0:0:0
     RDKit          3D

 96 99  0  0  1  0  0  0  0  0999 V2000
  -29.8300  -20.1840   20.6990 C   0  0  0  0  0  3  0  0  0  0  0  0
  -30.0760  -21.5340   21.1540 C   0  0  0  0  0  3  0  0  0  0  0  0
  -28.0490  -21.3070   19.5630 C   0  0  0  0  0  3  0  0  0  0  0  0
  -28.7780  -19.7410   19.8540 C   0  0  0  0  0  3  0  0  0  0  0  0
  -29.3810  -22.7750   20.8750 C   0  0  0  0  0  0  0  0  0  0  0  0
  -28.2470  -22.9780   20.0310 C   0  0  0  0  0  0  0  0  0  0  0  0
  -29.8870  -23.8940   21.4660 O   0  0  0  0  0  0  0  0  0  0  0  0
  -29.3750  -24.6550   21.1990 H   0  0  0  0  0  0  0  0  0  0  0  0
  -27.9730  -24.7330   19.8350 O   0  0  0  0  0  0  0  0  0  0  0  0
  -24.5850  -31.6380   22.9530 C   0  0  0  0  0  0  0  0  0  0  0  0
  -27.0530  -26.1260   20.0150 C   0  0  0  0  0  0  0  0  0  0  0  0
  -23.4230  -30.1970   21.3550 C   0  0  0  0  0  3  0  0  0  0  0  0
  -24.8600  -28.4460   19.9930 C   0  0  0  0  0  0  0  0  0  0  0  0
  -26.0210  -30.2030   21.2840 C   0  0  0  0  0  2  0  0  0  0  0  0
  -26.0700  -28.7130   20.6410 C   0  0  0  0  0  0  0  0  0  0  0  0
  -27.1370  -27.5940   20.6080 C   0  0  0  0  0  3  0  0  0  0  0  0
  -25.8040  -26.1890   19.3280 C   0  0  0  0  0  3  0  0  0  0  0  0
  -24.7890  -27.2140   19.3200 C   0  0  0  0  0  3  0  0  0  0  0  0
  -23.6820  -29.4550   20.0100 C   0  0  0  0  0  2  0  0  0  0  0  0
  -24.7080  -30.7240   21.9140 N   0  0  0  0  0  0  0  0  0  0  0  0
  -23.4790  -31.9620   23.4280 O   0  0  0  0  0  0  0  0  0  0  0  0
  -22.6730  -29.2650   22.3480 C   0  0  0  0  0  0  0  0  0  0  0  0
  -21.3340  -29.1400   22.2370 N   0  0  0  0  0  0  0  0  0  0  0  0
  -23.3150  -28.6490   23.2020 O   0  0  0  0  0  0  0  0  0  0  0  0
  -20.8600  -29.6860   21.5310 H   0  0  0  0  0  0  0  0  0  0  0  0
  -17.9360  -27.9540   22.7960 C   0  0  0  0  0  0  0  0  0  0  0  0
  -20.5010  -28.2210   23.0280 C   0  0  0  0  0  3  0  0  0  0  0  0
  -20.5900  -26.7790   22.4750 C   0  0  0  0  0  2  0  0  0  0  0  0
  -19.4800  -26.4480   21.4740 C   0  0  0  0  0  2  0  0  0  0  0  0
  -18.1040  -26.6000   22.1270 C   0  0  0  0  0  2  0  0  0  0  0  0
  -19.0610  -28.7230   23.2040 C   0  0  0  0  0  0  0  0  0  0  0  0
  -18.8430  -29.9850   23.7970 C   0  0  0  0  0  3  0  0  0  0  0  0
  -17.5390  -30.4810   23.9830 C   0  0  0  0  0  3  0  0  0  0  0  0
  -16.4310  -29.7120   23.5860 C   0  0  0  0  0  3  0  0  0  0  0  0
  -16.6310  -28.4490   22.9980 C   0  0  0  0  0  3  0  0  0  0  0  0
  -25.8200  -32.3350   23.6010 C   0  0  0  0  0  3  0  0  0  0  0  0
  -26.3500  -31.5760   24.8820 C   0  0  1  0  0  0  0  0  0  0  0  0
  -25.2620  -31.3110   25.9500 C   0  0  0  0  0  1  0  0  0  0  0  0
  -26.9680  -30.2130   24.5050 C   0  0  0  0  0  1  0  0  0  0  0  0
  -27.4820  -32.3960   25.5470 C   0  0  0  0  0  1  0  0  0  0  0  0
  -25.4420  -33.7180   23.9810 N   0  0  0  0  0  0  0  0  0  0  0  0
  -25.7620  -34.8300   23.3050 C   0  0  0  0  0  0  0  0  0  0  0  0
  -26.4540  -34.8050   22.2850 O   0  0  0  0  0  0  0  0  0  0  0  0
  -24.8230  -33.8070   24.7730 H   0  0  0  0  0  0  0  0  0  0  0  0
  -23.9940  -36.6130   23.0470 C   0  0  0  0  0  1  0  0  0  0  0  0
  -25.2410  -36.1850   23.8380 C   0  0  0  0  0  3  0  0  0  0  0  0
  -27.3480  -37.0850   24.7300 C   0  0  0  0  0  1  0  0  0  0  0  0
  -26.2460  -37.2710   23.7900 N   0  0  0  0  0  0  0  0  0  0  0  0
  -25.8140  -38.1700   23.9830 H   0  0  0  0  0  0  0  0  0  0  0  0
  -28.6790  -17.6480   19.6870 C   0  0  0  0  0 15  0  0  0  0  0  0
  -31.5390  -12.2450   19.9880 C   0  0  0  0  0  3  0  0  0  0  0  0
  -32.8770  -13.5260   19.7880 C   0  0  0  0  0  3  0  0  0  0  0  0
  -31.3870  -16.2370   19.1440 C   0  0  0  0  0  1  0  0  0  0  0  0
  -29.5640  -15.6370   19.3480 C   0  0  0  0  0  1  0  0  0  0  0  0
  -29.7710  -12.8930   19.8990 C   0  0  0  0  0  2  0  0  0  0  0  0
  -32.7220  -15.2090   19.4750 N   0  0  0  0  0  4  0  0  0  0  0  0
  -33.5550  -15.5610   19.0330 H   0  0  0  0  0  0  0  0  0  0  0  0
  -32.8050  -15.4630   20.4580 H   0  0  0  0  0  0  0  0  0  0  0  0
  -30.6040  -15.2480   21.5940 C   0  0  0  0  0  2  0  0  0  0  0  0
  -31.0680  -13.9000   18.5260 C   0  0  0  0  0  1  0  0  0  0  0  0
  -29.4490  -13.4600   17.6990 C   0  0  0  0  0  3  0  0  0  0  0  0
  -27.8630  -13.4160   18.6500 C   0  0  0  0  0  3  0  0  0  0  0  0
  -27.6150  -13.7080   20.4720 C   0  0  0  0  0  3  0  0  0  0  0  0
  -28.8840  -13.6440   21.8980 C   0  0  0  0  0  1  0  0  0  0  0  0
  -30.6740  -14.2590   21.0530 N   0  0  0  0  0  2  0  0  0  0  0  0
  -31.7530  -15.2150   22.0050 O   0  0  0  0  0  1  0  0  0  0  0  0
  -30.0390  -14.6800   20.4280 N   0  0  0  0  0  2  0  0  0  0  0  0
  -29.2270  -15.2230   20.1870 H   0  0  0  0  0  0  0  0  0  0  0  0
  -25.2200  -13.9740   20.7560 C   0  0  0  0  0  0  0  0  0  0  0  0
  -24.1780  -13.1500   20.9940 C   0  0  0  0  0  0  0  0  0  0  0  0
  -24.6950  -11.8140   21.0030 C   0  0  0  0  0  0  0  0  0  0  0  0
  -26.3230  -13.1750   20.7520 N   0  0  0  0  0  0  0  0  0  0  0  0
  -26.0290  -11.8420   20.8600 N   0  0  0  0  0  0  0  0  0  0  0  0
  -23.9530  -10.5430   21.1180 C   0  0  0  0  0  0  0  0  0  0  0  0
  -24.3100   -9.5450   22.0520 C   0  0  0  0  0  3  0  0  0  0  0  0
  -23.5340   -8.3710   22.1850 C   0  0  0  0  0  3  0  0  0  0  0  0
  -22.3810   -8.1860   21.3840 C   0  0  0  0  0  0  0  0  0  0  0  0
  -22.0400   -9.1710   20.4400 C   0  0  0  0  0  3  0  0  0  0  0  0
  -22.8180  -10.3330   20.3050 C   0  0  0  0  0  3  0  0  0  0  0  0
  -21.5800   -7.0690   21.4270 O   0  0  0  0  0  0  0  0  0  0  0  0
  -21.4970   -6.2800   22.5480 C   0  0  0  0  0  0  0  0  0  0  0  0
  -21.1020   -6.8030   23.7990 C   0  0  0  0  0  3  0  0  0  0  0  0
  -20.9620   -5.9450   24.9080 C   0  0  0  0  0  3  0  0  0  0  0  0
  -21.2090   -4.5660   24.7680 C   0  0  0  0  0  0  0  0  0  0  0  0
  -21.5960   -4.0430   23.5230 C   0  0  0  0  0  3  0  0  0  0  0  0
  -21.7370   -4.8970   22.4150 C   0  0  0  0  0  0  0  0  0  0  0  0
  -22.0900   -4.3840   21.2120 F   0  0  0  0  0  0  0  0  0  0  0  0
  -21.0700   -3.7410   25.8330 F   0  0  0  0  0  0  0  0  0  0  0  0
  -22.7690  -13.6180   21.1290 C   0  0  0  0  0  0  0  0  0  0  0  0
  -21.9850  -12.9470   21.9570 N   0  0  0  0  0  0  0  0  0  0  0  0
  -22.3900  -14.6440   20.5640 O   0  0  0  0  0  0  0  0  0  0  0  0
  -22.3160  -12.1280   22.4450 H   0  0  0  0  0  0  0  0  0  0  0  0
  -21.0340  -13.2560   22.1080 H   0  0  0  0  0  0  0  0  0  0  0  0
  -25.3120  -15.3490   20.5430 N   0  0  0  0  0  0  0  0  0  0  0  0
  -24.4790  -15.9250   20.4870 H   0  0  0  0  0  0  0  0  0  0  0  0
  -26.1600  -15.8550   20.3270 H   0  0  0  0  0  0  0  0  0  0  0  0
  1  2  1  0
  3  4  1  0
  3  6  2  0
  4  1  2  0
  5  2  2  0
  5  7  1  0
  6  5  1  0
  8  7  1  0
  9 11  1  0
  9  6  1  0
 10 21  2  0
 11 16  1  0
 12 20  1  0
 12 22  1  0
 13 19  1  0
 13 15  1  0
 14 20  1  0
 15 14  1  0
 16 15  2  0
 17 11  2  0
 18 17  1  0
 18 13  2  0
 19 12  1  0
 20 10  1  0
 22 24  2  0
 23 22  1  0
 25 23  1  0
 26 35  2  0
 26 31  1  0
 27 23  1  0
 27 31  1  0
 28 27  1  0
 29 30  1  0
 29 28  1  0
 30 26  1  0
 31 32  2  0
 32 33  1  0
 34 33  2  0
 35 34  1  0
 36 10  1  0
 36 41  1  0
 36 37  1  0
 37 40  1  1
 37 38  1  0
 39 37  1  0
 41 44  1  0
 42 46  1  0
 42 41  1  0
 43 42  2  0
 46 45  1  0
 48 46  1  0
 48 49  1  0
 48 47  1  0
 52 51  2  0
 53 56  1  0
 54 68  1  0
 55 51  1  0
 55 67  1  0
 56 52  1  0
 56 58  1  0
 57 56  1  0
 59 66  1  0
 61 60  1  0
 61 62  2  0
 62 63  1  0
 63 72  1  0
 63 64  1  0
 65 59  1  0
 67 65  1  0
 69 70  2  0
 70 71  1  0
 70 89  1  0
 71 74  1  0
 72 69  1  0
 72 73  1  0
 73 71  2  0
 74 75  1  0
 75 76  2  0
 77 80  1  0
 77 76  1  0
 78 77  2  0
 79 78  1  0
 79 74  2  0
 80 81  1  0
 81 82  1  0
 82 83  2  0
 84 83  1  0
 84 88  1  0
 85 84  2  0
 86 81  2  0
 86 85  1  0
 87 86  1  0
 89 90  1  0
 90 93  1  0
 90 92  1  0
 91 89  2  0
 94 69  1  0
 95 94  1  0
 96 94  1  0
M  ISO  4   6 101   9 101  59 100  67 100
M  END
>  <TORSDO>  (1) 
F 19

>  <SCORE>  (1) 
-15.230

>  <name>  (1) 
0

>  <ligand_id>  (1) 
0

>  <original_smiles>  (1) 
[H]Oc1c([H])c([H])c(C([H])([H])C2([H])C([H])(N([H])C(=O)N3C([H])([H])C([H])([H])C([H])([H])C([H])(n4nc(-c5c([H])c([H])c(Oc6c([H])c([H])c(F)c([H])c6F)c([H])c5[H])c(C(=O)N([H])[H])c4N([H])[H])C3([H])[H])C([H])([H])C([H])([H])[N+]([H])([H])C2([H])[H])c([H])c1Oc1c([H])c([H])c2c(c1[H])C([H])([H])N(C(=O)C([H])(N([H])C(=O)C([H])(N([H])C([H])([H])[H])C([H])([H])[H])C(C([H])([H])[H])(C([H])([H])[H])C([H])([H])[H])C([H])(C(=O)N([H])C1([H])c3c([H])c([H])c([H])c([H])c3C([H])([H])C([H])([H])C1([H])[H])C2([H])[H]

>  <smiles>  (1) 
[H]Oc1c([H])c([H])c(C([H])([H])C2([H])C([H])(N([H])C(=O)N3C([H])([H])C([H])([H])C([H])([H])C([H])(n4nc(-c5c([H])c([H])c(Oc6c([H])c([H])c(F)c([H])c6F)c([H])c5[H])c(C(=O)N([H])[H])c4N([H])[H])C3([H])[H])C([H])([H])C([H])([H])[N+]([H])([H])C2([H])[H])c([H])c1Oc1c([H])c([H])c2c(c1[H])C([H])([H])N(C(=O)C([H])(N([H])C(=O)C([H])(N([H])C([H])([H])[H])C([H])([H])[H])C(C([H])([H])[H])(C([H])([H])[H])C([H])([H])[H])C([H])(C(=O)N([H])C1([H])c3c([H])c([H])c([H])c([H])c3C([H])([H])C([H])([H])C1([H])[H])C2([H])[H]

$$$$
1:0:0
     RDKit          3D

 95103  0  0  1  0  0  0  0  0999 V2000
  -30.0170  -22.4630   22.2510 C   0  0  0  0  0  1  0  0  0  0  0  0
  -28.7690  -22.0830   21.4280 C   0  0  0  0  0  3  0  0  0  0  0  0
  -28.3290  -23.2550   20.5970 N   0  0  0  0  0  4  0  0  0  0  0  0
  -29.0810  -23.5570   19.9950 H   0  0  0  0  0  0  0  0  0  0  0  0
  -27.5970  -22.9280   19.9850 H   0  0  0  0  0  0  0  0  0  0  0  0
  -27.7650  -24.4430   21.3200 C   0  0  0  0  0  2  0  0  0  0  0  0
  -28.5880  -25.7690   21.2080 C   0  0  0  0  0  2  0  0  0  0  0  0
  -28.3450  -26.5920   20.0490 O   0  0  0  0  0  0  0  0  0  0  0  0
  -24.5850  -31.8290   23.1660 C   0  0  0  0  0  0  0  0  0  0  0  0
  -27.2140  -27.3780   20.0840 C   0  0  0  0  0  0  0  0  0  0  0  0
  -23.3810  -30.4410   21.5110 C   0  0  0  0  0  3  0  0  0  0  0  0
  -24.8370  -28.9080   20.0810 C   0  0  0  0  0  0  0  0  0  0  0  0
  -25.9090  -30.7900   21.3280 C   0  0  0  0  0  2  0  0  0  0  0  0
  -25.9940  -29.4190   20.6860 C   0  0  0  0  0  0  0  0  0  0  0  0
  -27.1890  -28.6590   20.6890 C   0  0  0  0  0  3  0  0  0  0  0  0
  -26.0490  -26.8940   19.4590 C   0  0  0  0  0  3  0  0  0  0  0  0
  -24.8590  -27.6460   19.4630 C   0  0  0  0  0  3  0  0  0  0  0  0
  -23.5950  -29.7720   20.1270 C   0  0  0  0  0  2  0  0  0  0  0  0
  -24.6430  -31.0350   22.0600 N   0  0  0  0  0  0  0  0  0  0  0  0
  -23.5030  -32.0990   23.7070 O   0  0  0  0  0  0  0  0  0  0  0  0
  -22.7260  -29.4130   22.4630 C   0  0  0  0  0  0  0  0  0  0  0  0
  -21.3970  -29.2560   22.3530 N   0  0  0  0  0  0  0  0  0  0  0  0
  -23.4110  -28.7620   23.2550 O   0  0  0  0  0  0  0  0  0  0  0  0
  -20.9070  -29.8340   21.6860 H   0  0  0  0  0  0  0  0  0  0  0  0
  -18.0090  -28.1240   22.8930 C   0  0  0  0  0  0  0  0  0  0  0  0
  -20.5770  -28.3180   23.1180 C   0  0  0  0  0  3  0  0  0  0  0  0
  -20.6350  -26.8990   22.5070 C   0  0  0  0  0  2  0  0  0  0  0  0
  -19.5070  -26.6250   21.5080 C   0  0  0  0  0  2  0  0  0  0  0  0
  -18.1410  -26.7870   22.1830 C   0  0  0  0  0  2  0  0  0  0  0  0
  -19.1520  -28.8500   23.3180 C   0  0  0  0  0  0  0  0  0  0  0  0
  -18.9760  -30.1030   23.9430 C   0  0  0  0  0  3  0  0  0  0  0  0
  -17.6860  -30.6310   24.1450 C   0  0  0  0  0  3  0  0  0  0  0  0
  -16.5570  -29.9010   23.7370 C   0  0  0  0  0  3  0  0  0  0  0  0
  -16.7180  -28.6490   23.1180 C   0  0  0  0  0  3  0  0  0  0  0  0
  -25.8710  -32.4540   23.7930 C   0  0  0  0  0  3  0  0  0  0  0  0
  -25.5600  -33.8460   24.1460 N   0  0  0  0  0  0  0  0  0  0  0  0
  -25.8840  -34.9090   23.4000 C   0  0  0  0  0  0  0  0  0  0  0  0
  -26.5470  -34.8240   22.3620 O   0  0  0  0  0  0  0  0  0  0  0  0
  -24.9710  -33.9870   24.9540 H   0  0  0  0  0  0  0  0  0  0  0  0
  -24.1420  -36.6960   23.0850 C   0  0  0  0  0  1  0  0  0  0  0  0
  -25.3930  -36.2890   23.8800 C   0  0  0  0  0  3  0  0  0  0  0  0
  -27.5330  -37.1730   24.6990 C   0  0  0  0  0  1  0  0  0  0  0  0
  -26.4200  -37.3490   23.7700 N   0  0  0  0  0  0  0  0  0  0  0  0
  -26.0100  -38.2650   23.9360 H   0  0  0  0  0  0  0  0  0  0  0  0
  -26.3970  -31.6630   25.0530 C   0  0  1  0  0  0  0  0  0  0  0  0
  -25.3110  -31.4080   26.1240 C   0  0  0  0  0  1  0  0  0  0  0  0
  -26.9800  -30.2930   24.6340 C   0  0  0  0  0  1  0  0  0  0  0  0
  -27.5490  -32.4500   25.7230 C   0  0  0  0  0  1  0  0  0  0  0  0
  -28.9480  -20.7720   20.5690 C   0  0  0  0  0  3  0  0  0  0  0  0
  -29.8950  -19.6380   21.1290 C   0  0  0  0  0  3  0  0  0  0  0  0
  -31.3410  -17.7800   18.0690 C   0  0  0  0  0  3  0  0  0  0  0  0
  -30.8400  -16.0380   19.7370 C   0  0  0  0  0  0  0  0  0  0  0  0
  -31.3210  -16.4320   18.4450 C   0  0  0  0  0  0  0  0  0  0  0  0
  -30.9730  -18.7960   18.9490 C   0  0  0  0  0  0  0  0  0  0  0  0
  -30.3100  -17.0860   20.5810 C   0  0  0  0  0  0  0  0  0  0  0  0
  -30.3410  -18.4780   20.1810 C   0  0  0  0  0  0  0  0  0  0  0  0
  -32.0050  -15.5200   17.4300 C   0  0  0  0  0  1  0  0  0  0  0  0
  -31.4280  -20.1910   18.5430 C   0  0  0  0  0  1  0  0  0  0  0  0
  -29.8300  -16.7600   21.9920 C   0  0  0  0  0  1  0  0  0  0  0  0
  -31.2810  -14.6630   20.2690 C   0  0  0  0  0  0  0  0  0  0  0  0
  -30.8390  -12.4260   19.3680 C   0  0  0  0  0  2  0  0  0  0  0  0
  -29.9140  -12.4840   18.1380 C   0  0  0  0  0  2  0  0  0  0  0  0
  -28.4380  -12.4580   18.5530 C   0  0  0  0  0  2  0  0  0  0  0  0
  -28.1030  -13.4330   19.7120 C   0  0  0  0  0  3  0  0  0  0  0  0
  -29.1550  -13.3760   20.8370 C   0  0  0  0  0  2  0  0  0  0  0  0
  -30.4810  -13.5580   20.2360 N   0  0  0  0  0  0  0  0  0  0  0  0
  -32.5020  -14.5530   20.2680 O   0  0  0  0  0  0  0  0  0  0  0  0
  -25.7370  -14.1300   20.4300 C   0  0  0  0  0  0  0  0  0  0  0  0
  -24.6360  -13.4000   20.7830 C   0  0  0  0  0  0  0  0  0  0  0  0
  -25.0450  -12.0310   20.7680 C   0  0  0  0  0  0  0  0  0  0  0  0
  -26.7480  -13.2100   20.2110 N   0  0  0  0  0  0  0  0  0  0  0  0
  -26.3390  -11.9430   20.4850 N   0  0  0  0  0  0  0  0  0  0  0  0
  -24.2670  -10.7980   20.9460 C   0  0  0  0  0  0  0  0  0  0  0  0
  -24.6470   -9.8130   21.8850 C   0  0  0  0  0  3  0  0  0  0  0  0
  -23.8710   -8.6450   22.0510 C   0  0  0  0  0  3  0  0  0  0  0  0
  -22.7010   -8.4540   21.2780 C   0  0  0  0  0  0  0  0  0  0  0  0
  -22.3430   -9.4240   20.3270 C   0  0  0  0  0  3  0  0  0  0  0  0
  -23.1190  -10.5830   20.1580 C   0  0  0  0  0  3  0  0  0  0  0  0
  -21.8990   -7.3410   21.3550 O   0  0  0  0  0  0  0  0  0  0  0  0
  -21.7830   -6.6140   22.5130 C   0  0  0  0  0  0  0  0  0  0  0  0
  -21.3580   -7.2020   23.7240 C   0  0  0  0  0  3  0  0  0  0  0  0
  -21.1890   -6.4040   24.8730 C   0  0  0  0  0  3  0  0  0  0  0  0
  -21.4350   -5.0200   24.8110 C   0  0  0  0  0  0  0  0  0  0  0  0
  -21.8510   -4.4310   23.6050 C   0  0  0  0  0  3  0  0  0  0  0  0
  -22.0240   -5.2270   22.4590 C   0  0  0  0  0  0  0  0  0  0  0  0
  -22.4070   -4.6500   21.2940 F   0  0  0  0  0  0  0  0  0  0  0  0
  -21.2640   -4.2520   25.9140 F   0  0  0  0  0  0  0  0  0  0  0  0
  -23.2530  -13.9300   21.0260 C   0  0  0  0  0  0  0  0  0  0  0  0
  -22.4890  -13.2760   21.8940 N   0  0  0  0  0  0  0  0  0  0  0  0
  -22.8570  -14.9590   20.4800 O   0  0  0  0  0  0  0  0  0  0  0  0
  -22.8230  -12.4450   22.3600 H   0  0  0  0  0  0  0  0  0  0  0  0
  -21.5580  -13.6110   22.0960 H   0  0  0  0  0  0  0  0  0  0  0  0
  -25.9600  -15.4920   20.2500 N   0  0  0  0  0  0  0  0  0  0  0  0
  -25.2240  -16.1800   20.3580 H   0  0  0  0  0  0  0  0  0  0  0  0
  -26.8430  -15.8990   19.9640 H   0  0  0  0  0  0  0  0  0  0  0  0
  2  1  1  0
  3  6  1  0
  3  2  1  0
  4  3  1  0
  5  3  1  0
  7  6  1  0
  8 10  1  0
  8  7  1  0
  9 20  2  0
 10 15  1  0
 11 19  1  0
 11 21  1  0
 12 18  1  0
 12 14  1  0
 13 19  1  0
 14 15  2  0
 14 13  1  0
 16 17  1  0
 16 10  2  0
 17 12  2  0
 18 11  1  0
 19  9  1  0
 21 23  2  0
 22 21  1  0
 24 22  1  0
 25 34  2  0
 25 30  1  0
 26 22  1  0
 26 30  1  0
 27 26  1  0
 28 29  1  0
 28 27  1  0
 29 25  1  0
 30 31  2  0
 31 32  1  0
 33 32  2  0
 34 33  1  0
 35  9  1  0
 35 36  1  0
 35 45  1  0
 36 39  1  0
 37 41  1  0
 37 36  1  0
 38 37  2  0
 41 40  1  0
 43 41  1  0
 43 44  1  0
 43 42  1  0
 45 48  1  1
 45 46  1  0
 47 45  1  0
 49 50  2  0
 49  2  1  0
 51 53  2  0
 51 54  1  0
 52 60  1  0
 52 55  2  0
 53 52  1  0
 54 56  2  0
 55 59  1  0
 56 55  1  0
 56 50  1  0
 57 53  1  0
 58 54  1  0
 61 66  1  0
 62 63  1  0
 62 61  1  0
 64 63  1  0
 64 71  1  0
 64 65  1  0
 66 60  1  0
 66 65  1  0
 67 60  2  0
 68 69  2  0
 69 88  1  0
 70 69  1  0
 70 73  1  0
 71 68  1  0
 71 72  1  0
 72 70  2  0
 73 74  1  0
 74 75  2  0
 76 79  1  0
 76 75  1  0
 77 76  2  0
 78 77  1  0
 78 73  2  0
 79 80  1  0
 80 81  1  0
 81 82  2  0
 83 82  1  0
 83 87  1  0
 84 83  2  0
 85 80  2  0
 85 84  1  0
 86 85  1  0
 88 89  1  0
 89 92  1  0
 89 91  1  0
 90 88  2  0
 93 94  1  0
 93 68  1  0
 95 93  1  0
M  ISO  4   7 101   8 101  52 100  60 100
M  END
>  <TORSDO>  (2) 
F 22

>  <SCORE>  (2) 
-12.964

>  <name>  (2) 
1

>  <ligand_id>  (2) 
1

>  <original_smiles>  (2) 
[H]c1c([H])c([H])c2c(c1[H])C([H])([H])C([H])([H])C([H])([H])C2([H])N([H])C(=O)C1([H])N(C(=O)C([H])(N([H])C(=O)C([H])(N([H])C([H])([H])[H])C([H])([H])[H])C(C([H])([H])[H])(C([H])([H])[H])C([H])([H])[H])C([H])([H])c2c([H])c(OC([H])([H])C([H])([H])[N+]([H])([H])C([H])(C([H])([H])[H])C([H])([H])C([H])([H])c3c(C([H])([H])[H])c([H])c(C([H])([H])[H])c(C(=O)N4C([H])([H])C([H])([H])C([H])([H])C([H])(n5nc(-c6c([H])c([H])c(Oc7c([H])c([H])c(F)c([H])c7F)c([H])c6[H])c(C(=O)N([H])[H])c5N([H])[H])C4([H])[H])c3C([H])([H])[H])c([H])c([H])c2C1([H])[H]

>  <smiles>  (2) 
[H]c1c([H])c([H])c2c(c1[H])C([H])([H])C([H])([H])C([H])([H])C2([H])N([H])C(=O)C1([H])N(C(=O)C([H])(N([H])C(=O)C([H])(N([H])C([H])([H])[H])C([H])([H])[H])C(C([H])([H])[H])(C([H])([H])[H])C([H])([H])[H])C([H])([H])c2c([H])c(OC([H])([H])C([H])([H])[N+]([H])([H])C([H])(C([H])([H])[H])C([H])([H])C([H])([H])c3c(C([H])([H])[H])c([H])c(C([H])([H])[H])c(C(=O)N4C([H])([H])C([H])([H])C([H])([H])C([H])(n5nc(-c6c([H])c([H])c(Oc7c([H])c([H])c(F)c([H])c7F)c([H])c6[H])c(C(=O)N([H])[H])c5N([H])[H])C4([H])[H])c3C([H])([H])[H])c([H])c([H])c2C1([H])[H]

$$$$
2:0:0
     RDKit          3D

 94102  0  0  1  0  0  0  0  0999 V2000
  -29.8710  -24.4670   21.4740 C   0  0  0  0  0  1  0  0  0  0  0  0
  -29.6560  -23.7010   20.1560 C   0  0  0  0  0  3  0  0  0  0  0  0
  -29.6130  -24.2380   17.6980 C   0  0  0  0  0  3  0  0  0  0  0  0
  -28.6690  -26.5150   17.7400 C   0  0  0  0  0  3  0  0  0  0  0  0
  -29.3140  -24.6290   18.9840 C   0  0  0  0  0  0  0  0  0  0  0  0
  -28.7560  -25.9750   19.0020 C   0  0  0  0  0  0  0  0  0  0  0  0
  -29.2190  -25.4340   16.5030 S   0  0  0  0  0  0  0  0  0  0  0  0
  -28.3990  -26.6930   20.1030 O   0  0  0  0  0  0  0  0  0  0  0  0
  -24.6180  -31.8930   23.2140 C   0  0  0  0  0  0  0  0  0  0  0  0
  -27.2330  -27.4390   20.1070 C   0  0  0  0  0  0  0  0  0  0  0  0
  -23.3930  -30.4850   21.5900 C   0  0  0  0  0  3  0  0  0  0  0  0
  -24.8320  -28.9420   20.1550 C   0  0  0  0  0  0  0  0  0  0  0  0
  -25.9170  -30.8440   21.3610 C   0  0  0  0  0  2  0  0  0  0  0  0
  -25.9980  -29.4690   20.7240 C   0  0  0  0  0  0  0  0  0  0  0  0
  -27.2010  -28.7240   20.6990 C   0  0  0  0  0  3  0  0  0  0  0  0
  -26.0410  -26.9170   19.5580 C   0  0  0  0  0  3  0  0  0  0  0  0
  -24.8470  -27.6630   19.5730 C   0  0  0  0  0  3  0  0  0  0  0  0
  -23.5890  -29.8030   20.2100 C   0  0  0  0  0  2  0  0  0  0  0  0
  -24.6610  -31.0890   22.1140 N   0  0  0  0  0  0  0  0  0  0  0  0
  -23.5410  -32.1660   23.7640 O   0  0  0  0  0  0  0  0  0  0  0  0
  -22.7540  -29.4660   22.5610 C   0  0  0  0  0  0  0  0  0  0  0  0
  -21.4270  -29.2850   22.4500 N   0  0  0  0  0  0  0  0  0  0  0  0
  -23.4470  -28.8440   23.3700 O   0  0  0  0  0  0  0  0  0  0  0  0
  -20.9290  -29.8400   21.7690 H   0  0  0  0  0  0  0  0  0  0  0  0
  -18.0610  -28.0780   22.9760 C   0  0  0  0  0  0  0  0  0  0  0  0
  -20.6190  -28.3490   23.2320 C   0  0  0  0  0  3  0  0  0  0  0  0
  -20.7250  -26.9130   22.6660 C   0  0  0  0  0  2  0  0  0  0  0  0
  -19.6180  -26.5790   21.6610 C   0  0  0  0  0  2  0  0  0  0  0  0
  -18.2400  -26.7240   22.3120 C   0  0  0  0  0  2  0  0  0  0  0  0
  -19.1790  -28.8480   23.3960 C   0  0  0  0  0  0  0  0  0  0  0  0
  -18.9590  -30.1160   23.9770 C   0  0  0  0  0  3  0  0  0  0  0  0
  -17.6540  -30.6140   24.1440 C   0  0  0  0  0  3  0  0  0  0  0  0
  -16.5510  -29.8420   23.7420 C   0  0  0  0  0  3  0  0  0  0  0  0
  -16.7550  -28.5760   23.1650 C   0  0  0  0  0  3  0  0  0  0  0  0
  -25.9090  -32.5260   23.8170 C   0  0  0  0  0  3  0  0  0  0  0  0
  -25.5970  -33.9180   24.1670 N   0  0  0  0  0  0  0  0  0  0  0  0
  -25.9110  -34.9800   23.4130 C   0  0  0  0  0  0  0  0  0  0  0  0
  -26.5650  -34.8920   22.3700 O   0  0  0  0  0  0  0  0  0  0  0  0
  -25.0160  -34.0610   24.9800 H   0  0  0  0  0  0  0  0  0  0  0  0
  -24.1620  -36.7620   23.1070 C   0  0  0  0  0  1  0  0  0  0  0  0
  -25.4210  -36.3610   23.8920 C   0  0  0  0  0  3  0  0  0  0  0  0
  -27.5690  -37.2490   24.6850 C   0  0  0  0  0  1  0  0  0  0  0  0
  -26.4440  -37.4220   23.7690 N   0  0  0  0  0  0  0  0  0  0  0  0
  -26.0350  -38.3380   23.9390 H   0  0  0  0  0  0  0  0  0  0  0  0
  -26.4580  -31.7440   25.0720 C   0  0  1  0  0  0  0  0  0  0  0  0
  -25.3910  -31.4880   26.1610 C   0  0  0  0  0  1  0  0  0  0  0  0
  -27.0390  -30.3750   24.6490 C   0  0  0  0  0  1  0  0  0  0  0  0
  -27.6200  -32.5370   25.7180 C   0  0  0  0  0  1  0  0  0  0  0  0
  -28.6750  -22.5970   20.3710 N   0  0  0  0  0  4  0  0  0  0  0  0
  -28.8260  -22.2140   21.2890 H   0  0  0  0  0  0  0  0  0  0  0  0
  -27.7630  -23.0230   20.3830 H   0  0  0  0  0  0  0  0  0  0  0  0
  -28.6180  -21.4580   19.4050 C   0  0  0  0  0  2  0  0  0  0  0  0
  -29.7710  -20.4060   19.4640 C   0  0  0  0  0  2  0  0  0  0  0  0
  -29.7320  -19.3580   20.6160 C   0  0  0  0  0  2  0  0  0  0  0  0
  -29.9370  -17.8760   20.1710 C   0  0  0  0  0  2  0  0  0  0  0  0
  -30.2730  -16.8970   21.3330 C   0  0  0  0  0  2  0  0  0  0  0  0
  -30.6400  -14.5050   20.5180 C   0  0  0  0  0  0  0  0  0  0  0  0
  -30.3540  -12.3400   19.3590 C   0  0  0  0  0  2  0  0  0  0  0  0
  -29.3970  -12.5420   18.1660 C   0  0  0  0  0  2  0  0  0  0  0  0
  -27.9270  -12.3980   18.6090 C   0  0  0  0  0  2  0  0  0  0  0  0
  -27.6020  -13.2350   19.8750 C   0  0  0  0  0  3  0  0  0  0  0  0
  -28.6650  -13.0030   20.9710 C   0  0  0  0  0  2  0  0  0  0  0  0
  -29.9830  -13.3190   20.3920 N   0  0  0  0  0  0  0  0  0  0  0  0
  -31.7600  -14.7130   20.0450 O   0  0  0  0  0  0  0  0  0  0  0  0
  -29.9130  -15.4900   21.0830 N   0  0  0  0  0  0  0  0  0  0  0  0
  -29.0020  -15.2010   21.4090 H   0  0  0  0  0  0  0  0  0  0  0  0
  -25.2110  -13.8560   20.5940 C   0  0  0  0  0  0  0  0  0  0  0  0
  -24.1420  -13.0890   20.9720 C   0  0  0  0  0  0  0  0  0  0  0  0
  -24.5980  -11.7360   20.9420 C   0  0  0  0  0  0  0  0  0  0  0  0
  -26.2520  -12.9690   20.3630 N   0  0  0  0  0  0  0  0  0  0  0  0
  -25.8870  -11.6890   20.6260 N   0  0  0  0  0  0  0  0  0  0  0  0
  -23.8690  -10.4760   21.1410 C   0  0  0  0  0  0  0  0  0  0  0  0
  -24.3270   -9.4920   22.0440 C   0  0  0  0  0  3  0  0  0  0  0  0
  -23.6000   -8.2970   22.2290 C   0  0  0  0  0  3  0  0  0  0  0  0
  -22.4000   -8.0780   21.5120 C   0  0  0  0  0  0  0  0  0  0  0  0
  -21.9600   -9.0510   20.5970 C   0  0  0  0  0  3  0  0  0  0  0  0
  -22.6890  -10.2380   20.4100 C   0  0  0  0  0  3  0  0  0  0  0  0
  -21.6400   -6.9370   21.6090 O   0  0  0  0  0  0  0  0  0  0  0  0
  -21.6520   -6.1600   22.7400 C   0  0  0  0  0  0  0  0  0  0  0  0
  -21.3310   -6.6870   24.0100 C   0  0  0  0  0  3  0  0  0  0  0  0
  -21.2870   -5.8370   25.1330 C   0  0  0  0  0  3  0  0  0  0  0  0
  -21.5540   -4.4630   24.9890 C   0  0  0  0  0  0  0  0  0  0  0  0
  -21.8660   -3.9350   23.7230 C   0  0  0  0  0  3  0  0  0  0  0  0
  -21.9130   -4.7820   22.6020 C   0  0  0  0  0  0  0  0  0  0  0  0
  -22.1950   -4.2650   21.3810 F   0  0  0  0  0  0  0  0  0  0  0  0
  -21.5030   -3.6450   26.0660 F   0  0  0  0  0  0  0  0  0  0  0  0
  -22.7490  -13.5720   21.2530 C   0  0  0  0  0  0  0  0  0  0  0  0
  -22.0260  -12.8810   22.1280 N   0  0  0  0  0  0  0  0  0  0  0  0
  -22.3080  -14.5960   20.7330 O   0  0  0  0  0  0  0  0  0  0  0  0
  -22.3920  -12.0500   22.5680 H   0  0  0  0  0  0  0  0  0  0  0  0
  -21.0930  -13.1900   22.3640 H   0  0  0  0  0  0  0  0  0  0  0  0
  -25.3810  -15.2260   20.4100 N   0  0  0  0  0  0  0  0  0  0  0  0
  -24.6170  -15.8850   20.5120 H   0  0  0  0  0  0  0  0  0  0  0  0
  -26.2300  -15.6560   20.0630 H   0  0  0  0  0  0  0  0  0  0  0  0
  2 49  1  0
  2  1  1  0
  3  5  2  0
  4  6  2  0
  5  6  1  0
  5  2  1  0
  6  8  1  0
  7  3  1  0
  7  4  1  0
  8 10  1  0
  9 20  2  0
 10 15  1  0
 11 19  1  0
 11 21  1  0
 12 18  1  0
 12 14  1  0
 13 19  1  0
 14 13  1  0
 15 14  2  0
 16 17  1  0
 16 10  2  0
 17 12  2  0
 18 11  1  0
 19  9  1  0
 21 23  2  0
 22 21  1  0
 24 22  1  0
 25 34  2  0
 25 30  1  0
 26 22  1  0
 26 30  1  0
 27 26  1  0
 28 29  1  0
 28 27  1  0
 29 25  1  0
 30 31  2  0
 31 32  1  0
 33 32  2  0
 34 33  1  0
 35  9  1  0
 35 36  1  0
 35 45  1  0
 36 39  1  0
 37 41  1  0
 37 36  1  0
 38 37  2  0
 41 40  1  0
 43 41  1  0
 43 44  1  0
 43 42  1  0
 45 48  1  1
 45 46  1  0
 47 45  1  0
 49 51  1  0
 49 50  1  0
 52 53  1  0
 52 49  1  0
 53 54  1  0
 55 54  1  0
 55 56  1  0
 57 65  1  0
 58 63  1  0
 59 60  1  0
 59 58  1  0
 61 60  1  0
 61 70  1  0
 61 62  1  0
 63 57  1  0
 63 62  1  0
 64 57  2  0
 65 56  1  0
 65 66  1  0
 67 68  2  0
 68 87  1  0
 69 68  1  0
 69 72  1  0
 70 67  1  0
 70 71  1  0
 71 69  2  0
 72 73  1  0
 73 74  2  0
 75 78  1  0
 75 74  1  0
 76 75  2  0
 77 76  1  0
 77 72  2  0
 78 79  1  0
 79 80  1  0
 80 81  2  0
 82 81  1  0
 82 86  1  0
 83 82  2  0
 84 79  2  0
 84 83  1  0
 85 84  1  0
 87 88  1  0
 88 91  1  0
 88 90  1  0
 89 87  2  0
 92 93  1  0
 92 67  1  0
 94 92  1  0
M  ISO  4   6 101   8 101  57 100  65 100
M  END
>  <TORSDO>  (3) 
F 23

>  <SCORE>  (3) 
-12.729

>  <name>  (3) 
2

>  <ligand_id>  (3) 
2

>  <original_smiles>  (3) 
[H]c1sc([H])c(C([H])(C([H])([H])[H])[N+]([H])([H])C([H])([H])C([H])([H])C([H])([H])C([H])([H])C([H])([H])N([H])C(=O)N2C([H])([H])C([H])([H])C([H])([H])C([H])(n3nc(-c4c([H])c([H])c(Oc5c([H])c([H])c(F)c([H])c5F)c([H])c4[H])c(C(=O)N([H])[H])c3N([H])[H])C2([H])[H])c1Oc1c([H])c([H])c2c(c1[H])C([H])([H])N(C(=O)C([H])(N([H])C(=O)C([H])(N([H])C([H])([H])[H])C([H])([H])[H])C(C([H])([H])[H])(C([H])([H])[H])C([H])([H])[H])C([H])(C(=O)N([H])C1([H])c3c([H])c([H])c([H])c([H])c3C([H])([H])C([H])([H])C1([H])[H])C2([H])[H]

>  <smiles>  (3) 
[H]c1sc([H])c(C([H])(C([H])([H])[H])[N+]([H])([H])C([H])([H])C([H])([H])C([H])([H])C([H])([H])C([H])([H])N([H])C(=O)N2C([H])([H])C([H])([H])C([H])([H])C([H])(n3nc(-c4c([H])c([H])c(Oc5c([H])c([H])c(F)c([H])c5F)c([H])c4[H])c(C(=O)N([H])[H])c3N([H])[H])C2([H])[H])c1Oc1c([H])c([H])c2c(c1[H])C([H])([H])N(C(=O)C([H])(N([H])C(=O)C([H])(N([H])C([H])([H])[H])C([H])([H])[H])C(C([H])([H])[H])(C([H])([H])[H])C([H])([H])[H])C([H])(C(=O)N([H])C1([H])c3c([H])c([H])c([H])c([H])c3C([H])([H])C([H])([H])C1([H])[H])C2([H])[H]

$$$$
3:0:0
     RDKit          3D

 91 99  0  0  1  0  0  0  0  0999 V2000
  -27.4810  -22.3260   21.0990 C   0  0  0  0  0  3  0  0  0  0  0  0
  -29.0530  -24.0040   20.2770 C   0  0  0  0  0  3  0  0  0  0  0  0
  -26.9110  -24.7080   21.1400 C   0  0  0  0  0  3  0  0  0  0  0  0
  -28.7710  -22.6100   20.6060 C   0  0  0  0  0  0  0  0  0  0  0  0
  -26.5720  -23.3620   21.3720 C   0  0  0  0  0  0  0  0  0  0  0  0
  -28.1120  -25.0990   20.5020 C   0  0  0  0  0  0  0  0  0  0  0  0
  -25.2010  -23.0580   21.9280 C   0  0  0  0  0  1  0  0  0  0  0  0
  -29.8160  -21.4560   20.6380 C   0  0  0  0  0  0  0  0  0  0  0  0
  -29.4140  -20.1410   20.4950 N   0  0  0  0  0  0  0  0  0  0  0  0
  -30.9890  -21.7300   20.8800 O   0  0  0  0  0  0  0  0  0  0  0  0
  -28.4840  -20.0380   20.1200 H   0  0  0  0  0  0  0  0  0  0  0  0
  -29.9510  -18.8860   21.1710 C   0  0  0  0  0  2  0  0  0  0  0  0
  -30.2760  -17.5610   20.3160 C   0  0  0  0  0  3  0  0  0  0  0  0
  -30.0130  -16.1040   20.9700 C   0  0  0  0  0  3  0  0  0  0  0  0
  -30.6900  -14.8150   20.3280 C   0  0  0  0  0  0  0  0  0  0  0  0
  -30.4570  -12.6030   19.1970 C   0  0  0  0  0  2  0  0  0  0  0  0
  -29.4900  -12.7460   17.9990 C   0  0  0  0  0  2  0  0  0  0  0  0
  -28.0240  -12.5790   18.4420 C   0  0  0  0  0  2  0  0  0  0  0  0
  -27.6820  -13.4050   19.7100 C   0  0  0  0  0  3  0  0  0  0  0  0
  -28.7580  -13.2270   20.8030 C   0  0  0  0  0  2  0  0  0  0  0  0
  -30.0550  -13.5990   20.2160 N   0  0  0  0  0  0  0  0  0  0  0  0
  -31.8180  -14.9540   19.8460 O   0  0  0  0  0  0  0  0  0  0  0  0
  -25.2810  -13.9800   20.4320 C   0  0  0  0  0  0  0  0  0  0  0  0
  -24.2220  -13.1970   20.8100 C   0  0  0  0  0  0  0  0  0  0  0  0
  -24.6940  -11.8500   20.7760 C   0  0  0  0  0  0  0  0  0  0  0  0
  -26.3360  -13.1110   20.1980 N   0  0  0  0  0  0  0  0  0  0  0  0
  -25.9850  -11.8240   20.4600 N   0  0  0  0  0  0  0  0  0  0  0  0
  -23.9770  -10.5830   20.9740 C   0  0  0  0  0  0  0  0  0  0  0  0
  -24.4180   -9.6190   21.9080 C   0  0  0  0  0  3  0  0  0  0  0  0
  -23.6960   -8.4190   22.0950 C   0  0  0  0  0  3  0  0  0  0  0  0
  -22.5200   -8.1750   21.3470 C   0  0  0  0  0  0  0  0  0  0  0  0
  -22.0980   -9.1290   20.4050 C   0  0  0  0  0  3  0  0  0  0  0  0
  -22.8200  -10.3190   20.2170 C   0  0  0  0  0  3  0  0  0  0  0  0
  -21.7730   -7.0250   21.4400 O   0  0  0  0  0  0  0  0  0  0  0  0
  -21.7370   -6.2820   22.5920 C   0  0  0  0  0  0  0  0  0  0  0  0
  -21.3170   -6.8350   23.8220 C   0  0  0  0  0  3  0  0  0  0  0  0
  -21.2280   -6.0190   24.9670 C   0  0  0  0  0  3  0  0  0  0  0  0
  -21.5500   -4.6520   24.8850 C   0  0  0  0  0  0  0  0  0  0  0  0
  -21.9630   -4.0970   23.6600 C   0  0  0  0  0  3  0  0  0  0  0  0
  -22.0530   -4.9090   22.5170 C   0  0  0  0  0  0  0  0  0  0  0  0
  -22.4320   -4.3660   21.3350 F   0  0  0  0  0  0  0  0  0  0  0  0
  -21.4560   -3.8660   25.9830 F   0  0  0  0  0  0  0  0  0  0  0  0
  -22.8220  -13.6670   21.0890 C   0  0  0  0  0  0  0  0  0  0  0  0
  -22.1030  -12.9740   21.9650 N   0  0  0  0  0  0  0  0  0  0  0  0
  -22.3790  -14.6880   20.5650 O   0  0  0  0  0  0  0  0  0  0  0  0
  -22.4730  -12.1500   22.4130 H   0  0  0  0  0  0  0  0  0  0  0  0
  -21.1630  -13.2740   22.1890 H   0  0  0  0  0  0  0  0  0  0  0  0
  -25.4250  -15.3520   20.2490 N   0  0  0  0  0  0  0  0  0  0  0  0
  -24.6410  -15.9870   20.3520 H   0  0  0  0  0  0  0  0  0  0  0  0
  -26.2560  -15.8080   19.8940 H   0  0  0  0  0  0  0  0  0  0  0  0
  -28.3120  -26.4890   20.1720 O   0  0  0  0  0  0  0  0  0  0  0  0
  -24.6410  -31.9580   23.2550 C   0  0  0  0  0  0  0  0  0  0  0  0
  -27.2340  -27.4120   20.1180 C   0  0  0  0  0  0  0  0  0  0  0  0
  -23.4300  -30.5870   21.6000 C   0  0  0  0  0  3  0  0  0  0  0  0
  -24.8750  -29.0540   20.1380 C   0  0  0  0  0  0  0  0  0  0  0  0
  -25.9730  -30.8940   21.4130 C   0  0  0  0  0  2  0  0  0  0  0  0
  -26.0480  -29.5200   20.7500 C   0  0  0  0  0  0  0  0  0  0  0  0
  -27.2260  -28.7050   20.7420 C   0  0  0  0  0  3  0  0  0  0  0  0
  -26.0560  -27.0420   19.4310 C   0  0  0  0  0  3  0  0  0  0  0  0
  -24.8830  -27.8180   19.4710 C   0  0  0  0  0  3  0  0  0  0  0  0
  -23.6400  -29.9250   20.2070 C   0  0  0  0  0  2  0  0  0  0  0  0
  -24.7010  -31.1650   22.1450 N   0  0  0  0  0  0  0  0  0  0  0  0
  -23.5590  -32.2240   23.8000 O   0  0  0  0  0  0  0  0  0  0  0  0
  -22.7720  -29.5610   22.5530 C   0  0  0  0  0  0  0  0  0  0  0  0
  -21.4420  -29.4030   22.4500 N   0  0  0  0  0  0  0  0  0  0  0  0
  -23.4540  -28.9160   23.3520 O   0  0  0  0  0  0  0  0  0  0  0  0
  -20.9450  -30.0100   21.8080 H   0  0  0  0  0  0  0  0  0  0  0  0
  -18.0760  -28.1530   22.9010 C   0  0  0  0  0  0  0  0  0  0  0  0
  -20.6280  -28.4400   23.2010 C   0  0  0  0  0  3  0  0  0  0  0  0
  -20.7610  -27.0190   22.6050 C   0  0  0  0  0  2  0  0  0  0  0  0
  -19.6730  -26.7030   21.5730 C   0  0  0  0  0  2  0  0  0  0  0  0
  -18.2770  -26.8220   22.1920 C   0  0  0  0  0  2  0  0  0  0  0  0
  -19.1800  -28.9140   23.3650 C   0  0  0  0  0  0  0  0  0  0  0  0
  -18.9410  -30.1590   23.9890 C   0  0  0  0  0  3  0  0  0  0  0  0
  -17.6300  -30.6470   24.1420 C   0  0  0  0  0  3  0  0  0  0  0  0
  -16.5420  -29.8900   23.6760 C   0  0  0  0  0  3  0  0  0  0  0  0
  -16.7650  -28.6440   23.0680 C   0  0  0  0  0  3  0  0  0  0  0  0
  -25.9260  -32.5810   23.8810 C   0  0  0  0  0  3  0  0  0  0  0  0
  -26.4340  -31.8060   25.1590 C   0  0  1  0  0  0  0  0  0  0  0  0
  -25.3380  -31.5780   26.2270 C   0  0  0  0  0  1  0  0  0  0  0  0
  -27.0080  -30.4230   24.7700 C   0  0  0  0  0  1  0  0  0  0  0  0
  -27.5870  -32.5910   25.8240 C   0  0  0  0  0  1  0  0  0  0  0  0
  -25.6220  -33.9820   24.2160 N   0  0  0  0  0  0  0  0  0  0  0  0
  -25.9430  -35.0340   23.4490 C   0  0  0  0  0  0  0  0  0  0  0  0
  -26.5940  -34.9290   22.4060 O   0  0  0  0  0  0  0  0  0  0  0  0
  -25.0460  -34.1370   25.0300 H   0  0  0  0  0  0  0  0  0  0  0  0
  -24.2030  -36.8290   23.1390 C   0  0  0  0  0  1  0  0  0  0  0  0
  -25.4660  -36.4240   23.9150 C   0  0  0  0  0  3  0  0  0  0  0  0
  -27.6240  -37.3160   24.6840 C   0  0  0  0  0  1  0  0  0  0  0  0
  -26.4950  -37.4780   23.7690 N   0  0  0  0  0  0  0  0  0  0  0  0
  -26.0910  -38.3970   23.9260 H   0  0  0  0  0  0  0  0  0  0  0  0
  1  5  1  0
  2  6  2  0
  2  4  1  0
  3  5  2  0
  4  8  1  0
  4  1  2  0
  5  7  1  0
  6  3  1  0
  8 10  2  0
  9  8  1  0
  9 12  1  0
 11  9  1  0
 13 14  2  0
 13 12  1  0
 15 14  1  0
 16 21  1  0
 17 18  1  0
 17 16  1  0
 19 18  1  0
 19 26  1  0
 19 20  1  0
 21 15  1  0
 21 20  1  0
 22 15  2  0
 23 24  2  0
 24 43  1  0
 25 24  1  0
 25 28  1  0
 26 23  1  0
 26 27  1  0
 27 25  2  0
 28 29  1  0
 29 30  2  0
 31 34  1  0
 31 30  1  0
 32 31  2  0
 33 32  1  0
 33 28  2  0
 34 35  1  0
 35 36  1  0
 36 37  2  0
 38 37  1  0
 38 42  1  0
 39 38  2  0
 40 35  2  0
 40 39  1  0
 41 40  1  0
 43 44  1  0
 44 47  1  0
 44 46  1  0
 45 43  2  0
 48 49  1  0
 48 23  1  0
 50 48  1  0
 51  6  1  0
 52 63  2  0
 53 51  1  0
 53 58  1  0
 54 62  1  0
 54 64  1  0
 55 61  1  0
 55 57  1  0
 56 62  1  0
 57 56  1  0
 58 57  2  0
 59 60  1  0
 59 53  2  0
 60 55  2  0
 61 54  1  0
 62 52  1  0
 64 66  2  0
 65 64  1  0
 67 65  1  0
 68 77  2  0
 68 73  1  0
 69 65  1  0
 69 73  1  0
 70 69  1  0
 71 72  1  0
 71 70  1  0
 72 68  1  0
 73 74  2  0
 74 75  1  0
 76 75  2  0
 77 76  1  0
 78 52  1  0
 78 83  1  0
 78 79  1  0
 79 82  1  1
 79 80  1  0
 81 79  1  0
 83 86  1  0
 84 88  1  0
 84 83  1  0
 85 84  2  0
 88 87  1  0
 90 88  1  0
 90 91  1  0
 90 89  1  0
M  ISO  4   6 101  14 100  15 100  51 101
M  END
>  <TORSDO>  (4) 
F 20

>  <SCORE>  (4) 
-13.533

>  <name>  (4) 
3

>  <ligand_id>  (4) 
3

>  <original_smiles>  (4) 
[H]c1c([H])c([H])c2c(c1[H])C([H])([H])C([H])([H])C([H])([H])C2([H])N([H])C(=O)C1([H])N(C(=O)C([H])(N([H])C(=O)C([H])(N([H])C([H])([H])[H])C([H])([H])[H])C(C([H])([H])[H])(C([H])([H])[H])C([H])([H])[H])C([H])([H])c2c([H])c(Oc3c([H])c(C(=O)N([H])C([H])([H])C([H])([H])C([H])([H])C(=O)N4C([H])([H])C([H])([H])C([H])([H])C([H])(n5nc(-c6c([H])c([H])c(Oc7c([H])c([H])c(F)c([H])c7F)c([H])c6[H])c(C(=O)N([H])[H])c5N([H])[H])C4([H])[H])c([H])c(C([H])([H])[H])c3[H])c([H])c([H])c2C1([H])[H]

>  <smiles>  (4) 
[H]c1c([H])c([H])c2c(c1[H])C([H])([H])C([H])([H])C([H])([H])C2([H])N([H])C(=O)C1([H])N(C(=O)C([H])(N([H])C(=O)C([H])(N([H])C([H])([H])[H])C([H])([H])[H])C(C([H])([H])[H])(C([H])([H])[H])C([H])([H])[H])C([H])([H])c2c([H])c(Oc3c([H])c(C(=O)N([H])C([H])([H])C([H])([H])C([H])([H])C(=O)N4C([H])([H])C([H])([H])C([H])([H])C([H])(n5nc(-c6c([H])c([H])c(Oc7c([H])c([H])c(F)c([H])c7F)c([H])c6[H])c(C(=O)N([H])[H])c5N([H])[H])C4([H])[H])c([H])c(C([H])([H])[H])c3[H])c([H])c([H])c2C1([H])[H]

$$$$
4:0:0
     RDKit          3D

100110  0  0  1  0  0  0  0  0999 V2000
  -28.4270  -21.7540   19.2150 C   0  0  0  0  0  3  0  0  0  0  0  0
  -30.8960  -16.0330   20.5150 C   0  0  0  0  0  0  0  0  0  0  0  0
  -30.9370  -13.5630   20.0180 C   0  0  0  0  0  2  0  0  0  0  0  0
  -30.1930  -13.2650   18.7000 C   0  0  0  0  0  2  0  0  0  0  0  0
  -28.6910  -13.0630   18.9680 C   0  0  0  0  0  2  0  0  0  0  0  0
  -28.0950  -14.1610   19.8900 C   0  0  0  0  0  3  0  0  0  0  0  0
  -28.9820  -14.4430   21.1200 C   0  0  0  0  0  2  0  0  0  0  0  0
  -30.3160  -14.7760   20.6150 N   0  0  0  0  0  0  0  0  0  0  0  0
  -32.1270  -16.0850   20.4100 O   0  0  0  0  0  0  0  0  0  0  0  0
  -29.1630  -19.1140   18.6310 C   0  0  0  0  0  2  0  0  0  0  0  0
  -29.4820  -19.7400   20.8910 C   0  0  0  0  0  2  0  0  0  0  0  0
  -30.0360  -17.7850   18.9090 C   0  0  0  0  0  2  0  0  0  0  0  0
  -30.3880  -18.4360   21.1250 C   0  0  0  0  0  2  0  0  0  0  0  0
  -29.4530  -20.4330   19.4600 C   0  0  0  0  0  3  0  0  0  0  0  0
  -30.1250  -17.2090   20.3000 N   0  0  0  0  0  0  0  0  0  0  0  0
  -25.6640  -14.7580   20.4140 C   0  0  0  0  0  0  0  0  0  0  0  0
  -24.5610  -13.9910   20.6750 C   0  0  0  0  0  0  0  0  0  0  0  0
  -25.0140  -12.6360   20.6760 C   0  0  0  0  0  0  0  0  0  0  0  0
  -26.7150  -13.8720   20.2620 N   0  0  0  0  0  0  0  0  0  0  0  0
  -26.3280  -12.5890   20.4860 N   0  0  0  0  0  0  0  0  0  0  0  0
  -24.2600  -11.3790   20.7860 C   0  0  0  0  0  0  0  0  0  0  0  0
  -24.6710  -10.3430   21.6530 C   0  0  0  0  0  3  0  0  0  0  0  0
  -23.9180   -9.1540   21.7550 C   0  0  0  0  0  3  0  0  0  0  0  0
  -22.7390   -8.9920   20.9890 C   0  0  0  0  0  0  0  0  0  0  0  0
  -22.3460  -10.0170   20.1080 C   0  0  0  0  0  3  0  0  0  0  0  0
  -23.1000  -11.1970   20.0050 C   0  0  0  0  0  3  0  0  0  0  0  0
  -21.9590   -7.8610   21.0040 O   0  0  0  0  0  0  0  0  0  0  0  0
  -21.8740   -7.0590   22.1150 C   0  0  0  0  0  0  0  0  0  0  0  0
  -21.5630   -7.5810   23.3890 C   0  0  0  0  0  3  0  0  0  0  0  0
  -21.4160   -6.7130   24.4890 C   0  0  0  0  0  3  0  0  0  0  0  0
  -21.5730   -5.3250   24.3170 C   0  0  0  0  0  0  0  0  0  0  0  0
  -21.8780   -4.8010   23.0480 C   0  0  0  0  0  3  0  0  0  0  0  0
  -22.0250   -5.6670   21.9490 C   0  0  0  0  0  0  0  0  0  0  0  0
  -22.2970   -5.1550   20.7240 F   0  0  0  0  0  0  0  0  0  0  0  0
  -21.4250   -4.4900   25.3720 F   0  0  0  0  0  0  0  0  0  0  0  0
  -23.1510  -14.4800   20.8190 C   0  0  0  0  0  0  0  0  0  0  0  0
  -22.3590  -13.8300   21.6650 N   0  0  0  0  0  0  0  0  0  0  0  0
  -22.7540  -15.4770   20.2160 O   0  0  0  0  0  0  0  0  0  0  0  0
  -22.6880  -13.0270   22.1790 H   0  0  0  0  0  0  0  0  0  0  0  0
  -21.4080  -14.1430   21.8030 H   0  0  0  0  0  0  0  0  0  0  0  0
  -25.8590  -16.1290   20.2700 N   0  0  0  0  0  0  0  0  0  0  0  0
  -25.0960  -16.7950   20.3150 H   0  0  0  0  0  0  0  0  0  0  0  0
  -26.7500  -16.5560   20.0520 H   0  0  0  0  0  0  0  0  0  0  0  0
  -29.4260  -24.5090   16.5970 C   0  0  0  0  0  3  0  0  0  0  0  0
  -29.2700  -23.2860   17.2900 C   0  0  0  0  0  3  0  0  0  0  0  0
  -29.1250  -25.7560   17.1890 C   0  0  0  0  0  3  0  0  0  0  0  0
  -28.5420  -24.5680   19.2160 C   0  0  0  0  0  3  0  0  0  0  0  0
  -28.8080  -23.2350   18.6210 C   0  0  0  0  0  0  0  0  0  0  0  0
  -28.6670  -25.8640   18.5190 C   0  0  0  0  0  0  0  0  0  0  0  0
  -28.5320  -27.2070   19.0550 O   0  0  0  0  0  0  0  0  0  0  0  0
  -24.4530  -31.5600   23.2840 C   0  0  0  0  0  0  0  0  0  0  0  0
  -27.3370  -27.9750   19.2050 C   0  0  0  0  0  0  0  0  0  0  0  0
  -23.3020  -30.3610   21.4610 C   0  0  0  0  0  3  0  0  0  0  0  0
  -24.8100  -29.3060   19.6670 C   0  0  0  0  0  0  0  0  0  0  0  0
  -25.7760  -31.0100   21.2130 C   0  0  0  0  0  2  0  0  0  0  0  0
  -25.9650  -29.7980   20.2880 C   0  0  0  0  0  0  0  0  0  0  0  0
  -27.2250  -29.1460   20.0470 C   0  0  0  0  0  3  0  0  0  0  0  0
  -26.1420  -27.5620   18.5760 C   0  0  0  0  0  3  0  0  0  0  0  0
  -24.9050  -28.2040   18.8040 C   0  0  0  0  0  3  0  0  0  0  0  0
  -23.4910  -30.0010   19.9640 C   0  0  0  0  0  2  0  0  0  0  0  0
  -24.5320  -30.9910   22.0440 N   0  0  0  0  0  0  0  0  0  0  0  0
  -23.3910  -31.5840   23.9210 O   0  0  0  0  0  0  0  0  0  0  0  0
  -22.8380  -29.1020   22.2340 C   0  0  0  0  0  0  0  0  0  0  0  0
  -21.5540  -28.7300   22.0790 N   0  0  0  0  0  0  0  0  0  0  0  0
  -23.6310  -28.4680   22.9350 O   0  0  0  0  0  0  0  0  0  0  0  0
  -20.9620  -29.3000   21.4920 H   0  0  0  0  0  0  0  0  0  0  0  0
  -18.5210  -26.7560   22.1560 C   0  0  0  0  0  0  0  0  0  0  0  0
  -20.9260  -27.5490   22.6780 C   0  0  0  0  0  3  0  0  0  0  0  0
  -21.3940  -26.2540   21.9760 C   0  0  0  0  0  2  0  0  0  0  0  0
  -20.4660  -25.8150   20.8380 C   0  0  0  0  0  2  0  0  0  0  0  0
  -19.0490  -25.5720   21.3640 C   0  0  0  0  0  2  0  0  0  0  0  0
  -19.4020  -27.6930   22.7590 C   0  0  0  0  0  0  0  0  0  0  0  0
  -18.8560  -28.7930   23.4590 C   0  0  0  0  0  3  0  0  0  0  0  0
  -17.4630  -28.9650   23.5540 C   0  0  0  0  0  3  0  0  0  0  0  0
  -16.5970  -28.0280   22.9630 C   0  0  0  0  0  3  0  0  0  0  0  0
  -17.1270  -26.9230   22.2730 C   0  0  0  0  0  3  0  0  0  0  0  0
  -25.6950  -32.2260   23.9560 C   0  0  0  0  0  3  0  0  0  0  0  0
  -26.1780  -31.4700   25.2530 C   0  0  1  0  0  0  0  0  0  0  0  0
  -25.0590  -31.2560   26.2990 C   0  0  0  0  0  1  0  0  0  0  0  0
  -26.7640  -30.0840   24.8970 C   0  0  0  0  0  1  0  0  0  0  0  0
  -27.3180  -32.2680   25.9310 C   0  0  0  0  0  1  0  0  0  0  0  0
  -25.3400  -33.6170   24.2770 N   0  0  0  0  0  0  0  0  0  0  0  0
  -25.6750  -34.6790   23.5340 C   0  0  0  0  0  0  0  0  0  0  0  0
  -26.3820  -34.5900   22.5240 O   0  0  0  0  0  0  0  0  0  0  0  0
  -24.7250  -33.7560   25.0660 H   0  0  0  0  0  0  0  0  0  0  0  0
  -23.8990  -36.4140   23.1360 C   0  0  0  0  0  1  0  0  0  0  0  0
  -25.1400  -36.0570   23.9700 C   0  0  0  0  0  3  0  0  0  0  0  0
  -27.2320  -37.0180   24.8310 C   0  0  0  0  0  1  0  0  0  0  0  0
  -26.1430  -37.1400   23.8640 N   0  0  0  0  0  0  0  0  0  0  0  0
  -25.7070  -38.0490   23.9930 H   0  0  0  0  0  0  0  0  0  0  0  0
  -27.3220  -21.8940   20.3010 C   0  0  0  0  0  2  0  0  0  0  0  0
  -24.3610  -24.1450   20.6400 C   0  0  0  0  0  2  0  0  0  0  0  0
  -25.1770  -22.4620   19.1570 C   0  0  0  0  0  2  0  0  0  0  0  0
  -23.8990  -22.9180   19.8630 C   0  0  0  0  0  3  0  0  0  0  0  0
  -25.7930  -23.7930   21.0830 C   0  0  1  0  0  0  0  0  0  0  0  0
  -22.7140  -23.1760   18.9200 C   0  0  0  0  0  1  0  0  0  0  0  0
  -26.6170  -25.0880   21.2430 C   0  0  0  0  0  1  0  0  0  0  0  0
  -25.7490  -23.0450   22.4390 C   0  0  0  0  0  1  0  0  0  0  0  0
  -26.3280  -22.9530   19.9650 N   0  0  1  0  0  4  0  0  0  0  0  0
  -26.8150  -23.5920   19.3550 H   0  0  0  0  0  0  0  0  0  0  0  0
  1 91  1  0
  2  8  1  0
  3  8  1  0
  4  5  1  0
  4  3  1  0
  6  5  1  0
  6 19  1  0
  6  7  1  0
  8  7  1  0
  9  2  2  0
 10 12  1  0
 10 14  1  0
 11 13  1  0
 12 15  1  0
 14  1  1  0
 14 11  1  0
 15  2  1  0
 15 13  1  0
 16 17  2  0
 17 18  1  0
 17 36  1  0
 18 21  1  0
 19 16  1  0
 19 20  1  0
 20 18  2  0
 21 22  1  0
 22 23  2  0
 24 27  1  0
 24 23  1  0
 25 24  2  0
 26 25  1  0
 26 21  2  0
 27 28  1  0
 28 29  1  0
 29 30  2  0
 31 30  1  0
 31 35  1  0
 32 31  2  0
 33 28  2  0
 33 32  1  0
 34 33  1  0
 36 37  1  0
 37 40  1  0
 37 39  1  0
 38 36  2  0
 41 42  1  0
 41 16  1  0
 43 41  1  0
 44 46  2  0
 44 45  1  0
 45 48  2  0
 46 49  1  0
 48  1  1  0
 48 47  1  0
 49 50  1  0
 49 47  2  0
 50 52  1  0
 51 62  2  0
 52 57  1  0
 53 61  1  0
 53 63  1  0
 54 60  1  0
 54 56  1  0
 55 61  1  0
 56 55  1  0
 57 56  2  0
 58 59  1  0
 58 52  2  0
 59 54  2  0
 60 53  1  0
 61 51  1  0
 63 65  2  0
 64 63  1  0
 66 64  1  0
 67 76  2  0
 67 72  1  0
 68 64  1  0
 68 72  1  0
 69 68  1  0
 70 71  1  0
 70 69  1  0
 71 67  1  0
 72 73  2  0
 73 74  1  0
 75 74  2  0
 76 75  1  0
 77 51  1  0
 77 82  1  0
 77 78  1  0
 78 81  1  1
 78 79  1  0
 80 78  1  0
 82 85  1  0
 83 87  1  0
 83 82  1  0
 84 83  2  0
 87 86  1  0
 89 87  1  0
 89 90  1  0
 89 88  1  0
 92 95  1  0
 93 94  1  0
 93 99  1  0
 94 96  1  0
 94 92  1  0
 95 97  1  1
 95 98  1  0
 99 91  1  0
 99 95  1  0
 99100  1  6
M  ISO  4   2 100  15 100  49 101  50 101
M  END
>  <TORSDO>  (5) 
F 19

>  <SCORE>  (5) 
-10.801

>  <name>  (5) 
4

>  <ligand_id>  (5) 
4

>  <original_smiles>  (5) 
[H]c1c([H])c([H])c2c(c1[H])C([H])([H])C([H])([H])C([H])([H])C2([H])N([H])C(=O)C1([H])N(C(=O)C([H])(N([H])C(=O)C([H])(N([H])C([H])([H])[H])C([H])([H])[H])C(C([H])([H])[H])(C([H])([H])[H])C([H])([H])[H])C([H])([H])c2c([H])c(Oc3c([H])c([H])c([H])c(C([H])(C4([H])C([H])([H])C([H])([H])N(C(=O)N5C([H])([H])C([H])([H])C([H])([H])C([H])(n6nc(-c7c([H])c([H])c(Oc8c([H])c([H])c(F)c([H])c8F)c([H])c7[H])c(C(=O)N([H])[H])c6N([H])[H])C5([H])[H])C([H])([H])C4([H])[H])C([H])([H])[N+]4([H])C([H])([H])C([H])(C([H])([H])[H])C([H])([H])C4(C([H])([H])[H])C([H])([H])[H])c3[H])c([H])c([H])c2C1([H])[H]

>  <smiles>  (5) 
[H]c1c([H])c([H])c2c(c1[H])C([H])([H])C([H])([H])C([H])([H])C2([H])N([H])C(=O)C1([H])N(C(=O)C([H])(N([H])C(=O)C([H])(N([H])C([H])([H])[H])C([H])([H])[H])C(C([H])([H])[H])(C([H])([H])[H])C([H])([H])[H])C([H])([H])c2c([H])c(Oc3c([H])c([H])c([H])c(C([H])(C4([H])C([H])([H])C([H])([H])N(C(=O)N5C([H])([H])C([H])([H])C([H])([H])C([H])(n6nc(-c7c([H])c([H])c(Oc8c([H])c([H])c(F)c([H])c8F)c([H])c7[H])c(C(=O)N([H])[H])c6N([H])[H])C5([H])[H])C([H])([H])C4([H])[H])C([H])([H])[N+]4([H])C([H])([H])C([H])(C([H])([H])[H])C([H])([H])C4(C([H])([H])[H])C([H])([H])[H])c3[H])c([H])c([H])c2C1([H])[H]

$$$$
5:0:0
     RDKit          3D

 91100  0  0  1  0  0  0  0  0999 V2000
  -29.1500  -22.7670   19.1990 C   0  0  0  0  0  2  0  0  0  0  0  0
  -28.0750  -22.5070   21.3010 C   0  0  0  0  0  2  0  0  0  0  0  0
  -30.9500  -18.2780   21.4910 C   0  0  0  0  0  2  0  0  0  0  0  0
  -30.0160  -21.4300   19.4280 C   0  0  0  0  0  2  0  0  0  0  0  0
  -28.9120  -21.1910   21.6620 C   0  0  0  0  0  2  0  0  0  0  0  0
  -31.0380  -19.7940   21.1510 C   0  0  0  0  0  2  0  0  0  0  0  0
  -29.1130  -18.8570   20.1360 C   0  0  0  0  0  2  0  0  0  0  0  0
  -28.7440  -23.6540   20.4410 C   0  0  0  0  0  3  0  0  0  0  0  0
  -30.1860  -17.6380   20.3290 C   0  0  0  0  0  3  0  0  0  0  0  0
  -29.6890  -20.3400   20.5580 C   0  0  2  0  0  0  0  0  0  0  0  0
  -30.5630  -14.9530   20.3360 C   0  0  0  0  0  0  0  0  0  0  0  0
  -30.3910  -12.6290   19.3720 C   0  0  0  0  0  2  0  0  0  0  0  0
  -29.4460  -12.6250   18.1480 C   0  0  0  0  0  2  0  0  0  0  0  0
  -27.9850  -12.4290   18.5910 C   0  0  0  0  0  2  0  0  0  0  0  0
  -27.5990  -13.3410   19.7850 C   0  0  0  0  0  3  0  0  0  0  0  0
  -28.6650  -13.3280   20.9020 C   0  0  0  0  0  2  0  0  0  0  0  0
  -29.9410  -13.7120   20.2880 N   0  0  0  0  0  0  0  0  0  0  0  0
  -31.7520  -15.0190   20.0130 O   0  0  0  0  0  0  0  0  0  0  0  0
  -29.8100  -16.1310   20.5320 N   0  0  0  0  0  0  0  0  0  0  0  0
  -28.8430  -15.9640   20.7640 H   0  0  0  0  0  0  0  0  0  0  0  0
  -25.2200  -13.9150   20.5390 C   0  0  0  0  0  0  0  0  0  0  0  0
  -24.1580  -13.1360   20.9100 C   0  0  0  0  0  0  0  0  0  0  0  0
  -24.6230  -11.7860   20.8670 C   0  0  0  0  0  0  0  0  0  0  0  0
  -26.2630  -13.0400   20.2890 N   0  0  0  0  0  0  0  0  0  0  0  0
  -25.9120  -11.7540   20.5520 N   0  0  0  0  0  0  0  0  0  0  0  0
  -23.8990  -10.5220   21.0520 C   0  0  0  0  0  0  0  0  0  0  0  0
  -24.3260   -9.5550   21.9890 C   0  0  0  0  0  3  0  0  0  0  0  0
  -23.6010   -8.3570   22.1640 C   0  0  0  0  0  3  0  0  0  0  0  0
  -22.4330   -8.1160   21.4010 C   0  0  0  0  0  0  0  0  0  0  0  0
  -22.0240   -9.0710   20.4540 C   0  0  0  0  0  3  0  0  0  0  0  0
  -22.7500  -10.2610   20.2780 C   0  0  0  0  0  3  0  0  0  0  0  0
  -21.6790   -6.9710   21.4850 O   0  0  0  0  0  0  0  0  0  0  0  0
  -21.6100   -6.2380   22.6420 C   0  0  0  0  0  0  0  0  0  0  0  0
  -21.1310   -6.7930   23.8490 C   0  0  0  0  0  3  0  0  0  0  0  0
  -21.0120   -5.9850   24.9980 C   0  0  0  0  0  3  0  0  0  0  0  0
  -21.3620   -4.6230   24.9400 C   0  0  0  0  0  0  0  0  0  0  0  0
  -21.8330   -4.0670   23.7380 C   0  0  0  0  0  3  0  0  0  0  0  0
  -21.9540   -4.8720   22.5920 C   0  0  0  0  0  0  0  0  0  0  0  0
  -22.3890   -4.3260   21.4300 F   0  0  0  0  0  0  0  0  0  0  0  0
  -21.2410   -3.8440   26.0410 F   0  0  0  0  0  0  0  0  0  0  0  0
  -22.7620  -13.6100   21.1910 C   0  0  0  0  0  0  0  0  0  0  0  0
  -22.0420  -12.9110   22.0600 N   0  0  0  0  0  0  0  0  0  0  0  0
  -22.3200  -14.6350   20.6740 O   0  0  0  0  0  0  0  0  0  0  0  0
  -22.4150  -12.0800   22.4960 H   0  0  0  0  0  0  0  0  0  0  0  0
  -21.1060  -13.2100   22.2950 H   0  0  0  0  0  0  0  0  0  0  0  0
  -25.3800  -15.2860   20.3670 N   0  0  0  0  0  0  0  0  0  0  0  0
  -24.6090  -15.9360   20.4780 H   0  0  0  0  0  0  0  0  0  0  0  0
  -26.2180  -15.7260   20.0070 H   0  0  0  0  0  0  0  0  0  0  0  0
  -27.7570  -24.8040   20.1630 N   0  0  0  0  0  0  0  0  0  0  0  0
  -27.0020  -24.7570   20.8430 H   0  0  0  0  0  0  0  0  0  0  0  0
  -28.2540  -26.2920   20.2280 O   0  0  0  0  0  0  0  0  0  0  0  0
  -24.6170  -31.9250   23.2500 C   0  0  0  0  0  0  0  0  0  0  0  0
  -27.1970  -27.2620   20.1870 C   0  0  0  0  0  0  0  0  0  0  0  0
  -23.4150  -30.5390   21.6020 C   0  0  0  0  0  3  0  0  0  0  0  0
  -24.8630  -28.9800   20.1670 C   0  0  0  0  0  0  0  0  0  0  0  0
  -25.9680  -30.8100   21.4420 C   0  0  0  0  0  2  0  0  0  0  0  0
  -26.0390  -29.4240   20.7870 C   0  0  0  0  0  0  0  0  0  0  0  0
  -27.2040  -28.5760   20.7940 C   0  0  0  0  0  3  0  0  0  0  0  0
  -26.0030  -26.9210   19.5100 C   0  0  0  0  0  3  0  0  0  0  0  0
  -24.8550  -27.7380   19.5160 C   0  0  0  0  0  3  0  0  0  0  0  0
  -23.6370  -29.8750   20.2180 C   0  0  0  0  0  2  0  0  0  0  0  0
  -24.6850  -31.1120   22.1530 N   0  0  0  0  0  0  0  0  0  0  0  0
  -23.5320  -32.2070   23.7790 O   0  0  0  0  0  0  0  0  0  0  0  0
  -22.7380  -29.5230   22.5560 C   0  0  0  0  0  0  0  0  0  0  0  0
  -21.4100  -29.3580   22.4300 N   0  0  0  0  0  0  0  0  0  0  0  0
  -23.4100  -28.8880   23.3730 O   0  0  0  0  0  0  0  0  0  0  0  0
  -20.9250  -29.9250   21.7490 H   0  0  0  0  0  0  0  0  0  0  0  0
  -18.0220  -28.1800   22.9360 C   0  0  0  0  0  0  0  0  0  0  0  0
  -20.5840  -28.4200   23.1940 C   0  0  0  0  0  3  0  0  0  0  0  0
  -20.6710  -26.9920   22.6070 C   0  0  0  0  0  2  0  0  0  0  0  0
  -19.5620  -26.6870   21.5940 C   0  0  0  0  0  2  0  0  0  0  0  0
  -18.1850  -26.8360   22.2450 C   0  0  0  0  0  2  0  0  0  0  0  0
  -19.1490  -28.9310   23.3660 C   0  0  0  0  0  0  0  0  0  0  0  0
  -18.9420  -30.1890   23.9740 C   0  0  0  0  0  3  0  0  0  0  0  0
  -17.6410  -30.6970   24.1520 C   0  0  0  0  0  3  0  0  0  0  0  0
  -16.5300  -29.9450   23.7370 C   0  0  0  0  0  3  0  0  0  0  0  0
  -16.7200  -28.6880   23.1360 C   0  0  0  0  0  3  0  0  0  0  0  0
  -25.8960  -32.5550   23.8790 C   0  0  0  0  0  3  0  0  0  0  0  0
  -25.5860  -33.9520   24.2220 N   0  0  0  0  0  0  0  0  0  0  0  0
  -25.8900  -35.0100   23.4590 C   0  0  0  0  0  0  0  0  0  0  0  0
  -26.5280  -34.9140   22.4060 O   0  0  0  0  0  0  0  0  0  0  0  0
  -25.0150  -34.1000   25.0410 H   0  0  0  0  0  0  0  0  0  0  0  0
  -24.1270  -36.7860   23.1860 C   0  0  0  0  0  1  0  0  0  0  0  0
  -25.4100  -36.3950   23.9370 C   0  0  0  0  0  3  0  0  0  0  0  0
  -27.5680  -37.3070   24.6690 C   0  0  0  0  0  1  0  0  0  0  0  0
  -26.4240  -37.4590   23.7740 N   0  0  0  0  0  0  0  0  0  0  0  0
  -26.0160  -38.3750   23.9370 H   0  0  0  0  0  0  0  0  0  0  0  0
  -26.4060  -31.7780   25.1550 C   0  0  1  0  0  0  0  0  0  0  0  0
  -25.3080  -31.5350   26.2180 C   0  0  0  0  0  1  0  0  0  0  0  0
  -26.9930  -30.4030   24.7610 C   0  0  0  0  0  1  0  0  0  0  0  0
  -27.5560  -32.5680   25.8230 C   0  0  0  0  0  1  0  0  0  0  0  0
  1  4  1  0
  1  8  1  0
  2  5  1  0
  6  3  1  0
  7  9  1  0
 10  7  1  6
  8 49  1  0
  8  2  1  0
  9 19  1  0
  9  3  1  0
 10  4  1  0
 10  6  1  0
 10  5  1  0
 11 19  1  0
 12 17  1  0
 13 14  1  0
 13 12  1  0
 15 14  1  0
 15 24  1  0
 15 16  1  0
 17 11  1  0
 17 16  1  0
 18 11  2  0
 19 20  1  0
 21 22  2  0
 22 41  1  0
 23 22  1  0
 23 26  1  0
 24 21  1  0
 24 25  1  0
 25 23  2  0
 26 27  1  0
 27 28  2  0
 29 32  1  0
 29 28  1  0
 30 29  2  0
 31 30  1  0
 31 26  2  0
 32 33  1  0
 33 34  1  0
 34 35  2  0
 36 35  1  0
 36 40  1  0
 37 36  2  0
 38 33  2  0
 38 37  1  0
 39 38  1  0
 41 42  1  0
 42 45  1  0
 42 44  1  0
 43 41  2  0
 46 47  1  0
 46 21  1  0
 48 46  1  0
 49 51  1  0
 49 50  1  0
 52 63  2  0
 53 51  1  0
 53 58  1  0
 54 62  1  0
 54 64  1  0
 55 61  1  0
 55 57  1  0
 56 62  1  0
 57 58  2  0
 57 56  1  0
 59 60  1  0
 59 53  2  0
 60 55  2  0
 61 54  1  0
 62 52  1  0
 64 66  2  0
 65 64  1  0
 67 65  1  0
 68 77  2  0
 68 73  1  0
 69 65  1  0
 69 73  1  0
 70 69  1  0
 71 72  1  0
 71 70  1  0
 72 68  1  0
 73 74  2  0
 74 75  1  0
 76 75  2  0
 77 76  1  0
 78 52  1  0
 78 79  1  0
 78 88  1  0
 79 82  1  0
 80 84  1  0
 80 79  1  0
 81 80  2  0
 84 83  1  0
 86 84  1  0
 86 87  1  0
 86 85  1  0
 88 91  1  1
 88 89  1  0
 90 88  1  0
M  ISO  4  11 100  19 100  49 101  51 101
M  END
>  <TORSDO>  (6) 
F 17

>  <SCORE>  (6) 
-15.285

>  <name>  (6) 
5

>  <ligand_id>  (6) 
5

>  <original_smiles>  (6) 
[H]c1c([H])c([H])c2c(c1[H])C([H])([H])C([H])([H])C([H])([H])C2([H])N([H])C(=O)C1([H])N(C(=O)C([H])(N([H])C(=O)C([H])(N([H])C([H])([H])[H])C([H])([H])[H])C(C([H])([H])[H])(C([H])([H])[H])C([H])([H])[H])C([H])([H])c2c([H])c(ON([H])C3([H])C([H])([H])C([H])([H])C4(C([H])([H])C3([H])[H])C([H])([H])C([H])([H])C([H])(N([H])C(=O)N3C([H])([H])C([H])([H])C([H])([H])C([H])(n5nc(-c6c([H])c([H])c(Oc7c([H])c([H])c(F)c([H])c7F)c([H])c6[H])c(C(=O)N([H])[H])c5N([H])[H])C3([H])[H])C4([H])[H])c([H])c([H])c2C1([H])[H]

>  <smiles>  (6) 
[H]c1c([H])c([H])c2c(c1[H])C([H])([H])C([H])([H])C([H])([H])C2([H])N([H])C(=O)C1([H])N(C(=O)C([H])(N([H])C(=O)C([H])(N([H])C([H])([H])[H])C([H])([H])[H])C(C([H])([H])[H])(C([H])([H])[H])C([H])([H])[H])C([H])([H])c2c([H])c(ON([H])C3([H])C([H])([H])C([H])([H])C4(C([H])([H])C3([H])[H])C([H])([H])C([H])([H])C([H])(N([H])C(=O)N3C([H])([H])C([H])([H])C([H])([H])C([H])(n5nc(-c6c([H])c([H])c(Oc7c([H])c([H])c(F)c([H])c7F)c([H])c6[H])c(C(=O)N([H])[H])c5N([H])[H])C3([H])[H])C4([H])[H])c([H])c([H])c2C1([H])[H]

$$$$
6:0:0
     RDKit          3D

 95105  0  0  1  0  0  0  0  0999 V2000
  -28.5390  -21.6130   21.2170 C   0  0  0  0  0  3  0  0  0  0  0  0
  -29.0590  -23.1700   19.0750 C   0  0  0  0  0  3  0  0  0  0  0  0
  -29.2510  -20.7020   20.2730 C   0  0  0  0  0  0  0  0  0  0  0  0
  -29.4530  -21.7080   19.1800 C   0  0  0  0  0  0  0  0  0  0  0  0
  -28.1470  -23.0970   21.1080 C   0  0  0  0  0  0  0  0  0  0  0  0
  -28.3650  -24.0780   20.0010 C   0  0  0  0  0  0  0  0  0  0  0  0
  -29.8730  -17.9300   18.2430 C   0  0  0  0  0  2  0  0  0  0  0  0
  -29.4110  -16.8990   19.1090 C   0  0  0  0  0  3  0  0  0  0  0  0
  -29.7470  -17.1570   20.4010 C   0  0  0  0  0  3  0  0  0  0  0  0
  -30.3820  -18.9590   18.9070 C   0  0  0  0  0  3  0  0  0  0  0  0
  -30.2250  -21.2470   17.9560 C   0  0  0  0  0  2  0  0  0  0  0  0
  -31.1470  -20.0710   18.2300 C   0  0  0  0  0  2  0  0  0  0  0  0
  -30.0380  -19.0030   20.3880 C   0  0  1  0  0  0  0  0  0  0  0  0
  -31.2790  -19.2060   21.2740 C   0  0  0  0  0  1  0  0  0  0  0  0
  -30.4830  -15.7140   20.9810 C   0  0  0  0  0  0  0  0  0  0  0  0
  -30.7230  -13.1180   20.4520 C   0  0  0  0  0  2  0  0  0  0  0  0
  -30.0180  -12.5790   19.1750 C   0  0  0  0  0  2  0  0  0  0  0  0
  -28.5390  -12.2540   19.4450 C   0  0  0  0  0  2  0  0  0  0  0  0
  -27.8650  -13.3200   20.3380 C   0  0  0  0  0  3  0  0  0  0  0  0
  -28.7300  -13.7740   21.5340 C   0  0  0  0  0  2  0  0  0  0  0  0
  -29.9840  -14.3420   20.9880 N   0  0  0  0  0  0  0  0  0  0  0  0
  -31.7170  -15.6410   21.1540 O   0  0  0  0  0  0  0  0  0  0  0  0
  -25.4270  -13.8570   20.7960 C   0  0  0  0  0  0  0  0  0  0  0  0
  -24.3350  -13.0750   21.0430 C   0  0  0  0  0  0  0  0  0  0  0  0
  -24.8170  -11.7310   21.1080 C   0  0  0  0  0  0  0  0  0  0  0  0
  -26.4990  -12.9890   20.7080 N   0  0  0  0  0  0  0  0  0  0  0  0
  -26.1390  -11.7050   20.9660 N   0  0  0  0  0  0  0  0  0  0  0  0
  -24.0860  -10.4640   21.2340 C   0  0  0  0  0  0  0  0  0  0  0  0
  -24.4080   -9.5200   22.2330 C   0  0  0  0  0  3  0  0  0  0  0  0
  -23.6730   -8.3210   22.3480 C   0  0  0  0  0  3  0  0  0  0  0  0
  -22.6020   -8.0560   21.4600 C   0  0  0  0  0  0  0  0  0  0  0  0
  -22.3000   -8.9880   20.4530 C   0  0  0  0  0  3  0  0  0  0  0  0
  -23.0360  -10.1800   20.3370 C   0  0  0  0  0  3  0  0  0  0  0  0
  -21.8500   -6.9060   21.4810 O   0  0  0  0  0  0  0  0  0  0  0  0
  -21.6650   -6.1890   22.6360 C   0  0  0  0  0  0  0  0  0  0  0  0
  -21.0730   -6.7620   23.7820 C   0  0  0  0  0  3  0  0  0  0  0  0
  -20.8380   -5.9700   24.9240 C   0  0  0  0  0  3  0  0  0  0  0  0
  -21.1850   -4.6050   24.9180 C   0  0  0  0  0  0  0  0  0  0  0  0
  -21.7690   -4.0310   23.7760 C   0  0  0  0  0  3  0  0  0  0  0  0
  -22.0060   -4.8210   22.6360 C   0  0  0  0  0  0  0  0  0  0  0  0
  -22.5510   -4.2580   21.5310 F   0  0  0  0  0  0  0  0  0  0  0  0
  -20.9520   -3.8420   26.0120 F   0  0  0  0  0  0  0  0  0  0  0  0
  -22.9110  -13.5410   21.1110 C   0  0  0  0  0  0  0  0  0  0  0  0
  -22.0850  -12.8670   21.9040 N   0  0  0  0  0  0  0  0  0  0  0  0
  -22.5360  -14.5390   20.4970 O   0  0  0  0  0  0  0  0  0  0  0  0
  -22.4010  -12.0620   22.4230 H   0  0  0  0  0  0  0  0  0  0  0  0
  -21.1230  -13.1630   21.9940 H   0  0  0  0  0  0  0  0  0  0  0  0
  -25.5980  -15.2250   20.6040 N   0  0  0  0  0  0  0  0  0  0  0  0
  -24.8180  -15.8730   20.5950 H   0  0  0  0  0  0  0  0  0  0  0  0
  -26.4800  -15.6600   20.3590 H   0  0  0  0  0  0  0  0  0  0  0  0
  -25.9290  -23.7020   22.1730 C   0  0  0  0  0  1  0  0  0  0  0  0
  -27.4540  -23.6780   22.3300 C   0  0  0  0  0  2  0  0  0  0  0  0
  -29.1510  -15.7120   18.5500 O   0  0  0  0  0  0  0  0  0  0  0  0
  -29.2670  -15.7990   17.6130 H   0  0  0  0  0  0  0  0  0  0  0  0
  -28.2590  -25.6750   19.9170 O   0  0  0  0  0  0  0  0  0  0  0  0
  -24.6360  -31.7720   22.9490 C   0  0  0  0  0  0  0  0  0  0  0  0
  -27.2070  -26.7950   19.9080 C   0  0  0  0  0  0  0  0  0  0  0  0
  -23.4440  -30.3580   21.3270 C   0  0  0  0  0  3  0  0  0  0  0  0
  -24.8940  -28.7430   19.8900 C   0  0  0  0  0  0  0  0  0  0  0  0
  -26.0130  -30.5610   21.1600 C   0  0  0  0  0  2  0  0  0  0  0  0
  -26.0890  -29.1350   20.5050 C   0  0  0  0  0  0  0  0  0  0  0  0
  -27.2280  -28.1850   20.4850 C   0  0  0  0  0  3  0  0  0  0  0  0
  -25.9770  -26.5950   19.2360 C   0  0  0  0  0  3  0  0  0  0  0  0
  -24.8710  -27.4970   19.2350 C   0  0  0  0  0  3  0  0  0  0  0  0
  -23.6700  -29.6670   19.9520 C   0  0  0  0  0  2  0  0  0  0  0  0
  -24.7210  -30.9300   21.8640 N   0  0  0  0  0  0  0  0  0  0  0  0
  -23.5480  -32.0510   23.4800 O   0  0  0  0  0  0  0  0  0  0  0  0
  -22.7640  -29.3650   22.3070 C   0  0  0  0  0  0  0  0  0  0  0  0
  -21.4290  -29.2120   22.2220 N   0  0  0  0  0  0  0  0  0  0  0  0
  -23.4470  -28.7310   23.1140 O   0  0  0  0  0  0  0  0  0  0  0  0
  -20.9260  -29.7740   21.5490 H   0  0  0  0  0  0  0  0  0  0  0  0
  -18.0530  -28.0320   22.8600 C   0  0  0  0  0  0  0  0  0  0  0  0
  -20.6270  -28.2640   23.0060 C   0  0  0  0  0  3  0  0  0  0  0  0
  -20.6810  -26.8460   22.3920 C   0  0  0  0  0  2  0  0  0  0  0  0
  -19.5290  -26.5640   21.4220 C   0  0  0  0  0  2  0  0  0  0  0  0
  -18.1810  -26.7030   22.1350 C   0  0  0  0  0  2  0  0  0  0  0  0
  -19.2000  -28.7730   23.2550 C   0  0  0  0  0  0  0  0  0  0  0  0
  -19.0210  -30.0150   23.9010 C   0  0  0  0  0  3  0  0  0  0  0  0
  -17.7300  -30.5180   24.1500 C   0  0  0  0  0  3  0  0  0  0  0  0
  -16.6000  -29.7760   23.7680 C   0  0  0  0  0  3  0  0  0  0  0  0
  -16.7630  -28.5340   23.1300 C   0  0  0  0  0  3  0  0  0  0  0  0
  -25.9010  -32.4380   23.5710 C   0  0  0  0  0  3  0  0  0  0  0  0
  -25.5380  -33.8050   23.9960 N   0  0  0  0  0  0  0  0  0  0  0  0
  -25.8320  -34.9250   23.3240 C   0  0  0  0  0  0  0  0  0  0  0  0
  -26.4940  -34.9200   22.2830 O   0  0  0  0  0  0  0  0  0  0  0  0
  -24.9450  -33.8790   24.8100 H   0  0  0  0  0  0  0  0  0  0  0  0
  -24.0550  -36.7010   23.1200 C   0  0  0  0  0  1  0  0  0  0  0  0
  -25.3110  -36.2640   23.8910 C   0  0  0  0  0  3  0  0  0  0  0  0
  -27.4240  -37.1460   24.7820 C   0  0  0  0  0  1  0  0  0  0  0  0
  -26.3150  -37.3510   23.8550 N   0  0  0  0  0  0  0  0  0  0  0  0
  -25.8850  -38.2470   24.0680 H   0  0  0  0  0  0  0  0  0  0  0  0
  -26.4840  -31.6330   24.7990 C   0  0  1  0  0  0  0  0  0  0  0  0
  -25.4370  -31.3180   25.8930 C   0  0  0  0  0  1  0  0  0  0  0  0
  -27.0960  -30.2900   24.3410 C   0  0  0  0  0  1  0  0  0  0  0  0
  -27.6330  -32.4360   25.4550 C   0  0  0  0  0  1  0  0  0  0  0  0
  2  4  2  0
  2  6  1  0
  3 13  1  0
  3  1  2  0
  4  3  1  0
  5  1  1  0
  5 52  1  0
  6  5  2  0
  7 10  1  0
  7  8  1  0
  8 53  1  0
  8  9  1  0
  9 15  1  0
 10 12  1  0
 10 13  1  0
 11 12  1  0
 11  4  1  0
 13  9  1  0
 13 14  1  1
 15 21  1  0
 15 22  2  0
 16 21  1  0
 17 18  1  0
 17 16  1  0
 19 18  1  0
 19 26  1  0
 19 20  1  0
 21 20  1  0
 23 24  2  0
 24 25  1  0
 24 43  1  0
 25 28  1  0
 26 23  1  0
 26 27  1  0
 27 25  2  0
 28 29  1  0
 29 30  2  0
 31 34  1  0
 31 30  1  0
 32 31  2  0
 33 32  1  0
 33 28  2  0
 34 35  1  0
 35 36  1  0
 36 37  2  0
 38 37  1  0
 38 42  1  0
 39 38  2  0
 40 35  2  0
 40 39  1  0
 41 40  1  0
 43 44  1  0
 44 47  1  0
 44 46  1  0
 45 43  2  0
 48 23  1  0
 49 48  1  0
 50 48  1  0
 51 52  1  0
 54 53  1  0
 55  6  1  0
 56 67  2  0
 57 55  1  0
 57 62  1  0
 58 66  1  0
 58 68  1  0
 59 65  1  0
 59 61  1  0
 60 66  1  0
 61 60  1  0
 62 61  2  0
 63 57  2  0
 64 63  1  0
 64 59  2  0
 65 58  1  0
 66 56  1  0
 68 70  2  0
 69 68  1  0
 71 69  1  0
 72 81  2  0
 72 77  1  0
 73 69  1  0
 73 77  1  0
 74 73  1  0
 75 76  1  0
 75 74  1  0
 76 72  1  0
 77 78  2  0
 78 79  1  0
 80 79  2  0
 81 80  1  0
 82 56  1  0
 82 83  1  0
 82 92  1  0
 83 86  1  0
 84 88  1  0
 84 83  1  0
 85 84  2  0
 88 87  1  0
 90 88  1  0
 90 91  1  0
 90 89  1  0
 92 95  1  1
 92 93  1  0
 94 92  1  0
M  ISO  4   6 101   9 100  15 100  55 101
M  END
>  <TORSDO>  (7) 
F 18

>  <SCORE>  (7) 
-14.436

>  <name>  (7) 
6

>  <ligand_id>  (7) 
6

>  <original_smiles>  (7) 
[H]OC1=C(C(=O)N2C([H])([H])C([H])([H])C([H])([H])C([H])(n3nc(-c4c([H])c([H])c(Oc5c([H])c([H])c(F)c([H])c5F)c([H])c4[H])c(C(=O)N([H])[H])c3N([H])[H])C2([H])[H])C2(C([H])([H])[H])C(=C1[H])C([H])([H])C([H])([H])c1c([H])c(Oc3c([H])c([H])c4c(c3[H])C([H])([H])N(C(=O)C([H])(N([H])C(=O)C([H])(N([H])C([H])([H])[H])C([H])([H])[H])C(C([H])([H])[H])(C([H])([H])[H])C([H])([H])[H])C([H])(C(=O)N([H])C3([H])c5c([H])c([H])c([H])c([H])c5C([H])([H])C([H])([H])C3([H])[H])C4([H])[H])c(C([H])([H])C([H])([H])[H])c([H])c12

>  <smiles>  (7) 
[H]OC1=C(C(=O)N2C([H])([H])C([H])([H])C([H])([H])C([H])(n3nc(-c4c([H])c([H])c(Oc5c([H])c([H])c(F)c([H])c5F)c([H])c4[H])c(C(=O)N([H])[H])c3N([H])[H])C2([H])[H])C2(C([H])([H])[H])C(=C1[H])C([H])([H])C([H])([H])c1c([H])c(Oc3c([H])c([H])c4c(c3[H])C([H])([H])N(C(=O)C([H])(N([H])C(=O)C([H])(N([H])C([H])([H])[H])C([H])([H])[H])C(C([H])([H])[H])(C([H])([H])[H])C([H])([H])[H])C([H])(C(=O)N([H])C3([H])c5c([H])c([H])c([H])c([H])c5C([H])([H])C([H])([H])C3([H])[H])C4([H])[H])c(C([H])([H])C([H])([H])[H])c([H])c12

$$$$
7:0:0
     RDKit          3D

 90 99  0  0  1  0  0  0  0  0999 V2000
  -27.8240  -20.9850   19.8530 C   0  0  0  0  0  3  0  0  0  0  0  0
  -30.3990  -20.1890   20.1410 C   0  0  0  0  0  3  0  0  0  0  0  0
  -28.2590  -19.5370   19.8870 C   0  0  0  0  0  0  0  0  0  0  0  0
  -29.5720  -18.9620   19.9990 C   0  0  0  0  0  0  0  0  0  0  0  0
  -29.9790  -21.6690   20.1070 C   0  0  0  0  0  0  0  0  0  0  0  0
  -28.6120  -22.2430   19.9640 C   0  0  0  0  0  0  0  0  0  0  0  0
  -27.3050  -18.3590   19.9720 C   0  0  0  0  0  2  0  0  0  0  0  0
  -28.1270  -17.0100   20.0290 C   0  0  0  0  0  2  0  0  0  0  0  0
  -29.6370  -17.1940   20.3470 C   0  0  2  0  0  0  0  0  0  0  0  0
  -29.8370  -17.2340   21.8700 C   0  0  0  0  0  1  0  0  0  0  0  0
  -30.4540  -15.5860   19.9080 C   0  0  0  0  0  0  0  0  0  0  0  0
  -30.4930  -13.0660   19.0410 C   0  0  0  0  0  2  0  0  0  0  0  0
  -29.5180  -12.7880   17.8620 C   0  0  0  0  0  2  0  0  0  0  0  0
  -28.1050  -12.4550   18.3720 C   0  0  0  0  0  2  0  0  0  0  0  0
  -27.6870  -13.3960   19.5250 C   0  0  0  0  0  3  0  0  0  0  0  0
  -28.7960  -13.6060   20.5800 C   0  0  0  0  0  2  0  0  0  0  0  0
  -29.9620  -14.2140   19.8960 N   0  0  0  0  0  0  0  0  0  0  0  0
  -31.6440  -15.5690   19.5460 O   0  0  0  0  0  0  0  0  0  0  0  0
  -25.3590  -13.8940   20.4450 C   0  0  0  0  0  0  0  0  0  0  0  0
  -24.3390  -13.1010   20.8740 C   0  0  0  0  0  0  0  0  0  0  0  0
  -24.8120  -11.7570   20.7670 C   0  0  0  0  0  0  0  0  0  0  0  0
  -26.3990  -13.0410   20.1130 N   0  0  0  0  0  0  0  0  0  0  0  0
  -26.0820  -11.7430   20.3690 N   0  0  0  0  0  0  0  0  0  0  0  0
  -24.0960  -10.4910   20.9560 C   0  0  0  0  0  0  0  0  0  0  0  0
  -24.5420   -9.5200   21.8780 C   0  0  0  0  0  3  0  0  0  0  0  0
  -23.8200   -8.3210   22.0600 C   0  0  0  0  0  3  0  0  0  0  0  0
  -22.6370   -8.0860   21.3210 C   0  0  0  0  0  0  0  0  0  0  0  0
  -22.2120   -9.0430   20.3840 C   0  0  0  0  0  3  0  0  0  0  0  0
  -22.9330  -10.2330   20.2020 C   0  0  0  0  0  3  0  0  0  0  0  0
  -21.8870   -6.9390   21.4120 O   0  0  0  0  0  0  0  0  0  0  0  0
  -21.7980   -6.2300   22.5830 C   0  0  0  0  0  0  0  0  0  0  0  0
  -21.3190   -6.8150   23.7740 C   0  0  0  0  0  3  0  0  0  0  0  0
  -21.1800   -6.0320   24.9370 C   0  0  0  0  0  3  0  0  0  0  0  0
  -21.5080   -4.6640   24.9080 C   0  0  0  0  0  0  0  0  0  0  0  0
  -21.9820   -4.0770   23.7210 C   0  0  0  0  0  3  0  0  0  0  0  0
  -22.1230   -4.8600   22.5610 C   0  0  0  0  0  0  0  0  0  0  0  0
  -22.5570   -4.2840   21.4140 F   0  0  0  0  0  0  0  0  0  0  0  0
  -21.3670   -3.9080   26.0240 F   0  0  0  0  0  0  0  0  0  0  0  0
  -22.9620  -13.5660   21.2460 C   0  0  0  0  0  0  0  0  0  0  0  0
  -22.2950  -12.8530   22.1450 N   0  0  0  0  0  0  0  0  0  0  0  0
  -22.4910  -14.6010   20.7740 O   0  0  0  0  0  0  0  0  0  0  0  0
  -22.6900  -12.0140   22.5430 H   0  0  0  0  0  0  0  0  0  0  0  0
  -21.3740  -13.1440   22.4400 H   0  0  0  0  0  0  0  0  0  0  0  0
  -25.4590  -15.2660   20.2710 N   0  0  0  0  0  0  0  0  0  0  0  0
  -24.6500  -15.8660   20.3900 H   0  0  0  0  0  0  0  0  0  0  0  0
  -26.2160  -15.7180   19.7790 H   0  0  0  0  0  0  0  0  0  0  0  0
  -32.5030  -22.3350   20.0760 C   0  0  0  0  0  1  0  0  0  0  0  0
  -31.0420  -22.7440   20.3030 C   0  0  0  0  0  2  0  0  0  0  0  0
  -27.8590  -23.9270   19.9220 C   0  0  0  0  0  2  0  0  0  0  0  0
  -28.1830  -25.6020   20.1390 O   0  0  0  0  0  0  0  0  0  0  0  0
  -24.6770  -31.7890   23.1330 C   0  0  0  0  0  0  0  0  0  0  0  0
  -27.2140  -26.7960   20.0880 C   0  0  0  0  0  0  0  0  0  0  0  0
  -23.4880  -30.4040   21.4870 C   0  0  0  0  0  3  0  0  0  0  0  0
  -24.9350  -28.7820   20.0550 C   0  0  0  0  0  0  0  0  0  0  0  0
  -26.0620  -30.5670   21.3570 C   0  0  0  0  0  2  0  0  0  0  0  0
  -26.1280  -29.1460   20.6910 C   0  0  0  0  0  0  0  0  0  0  0  0
  -27.2550  -28.1780   20.6810 C   0  0  0  0  0  3  0  0  0  0  0  0
  -25.9850  -26.6270   19.4020 C   0  0  0  0  0  3  0  0  0  0  0  0
  -24.8980  -27.5480   19.3890 C   0  0  0  0  0  3  0  0  0  0  0  0
  -23.7250  -29.7250   20.1080 C   0  0  0  0  0  2  0  0  0  0  0  0
  -24.7660  -30.9510   22.0460 N   0  0  0  0  0  0  0  0  0  0  0  0
  -23.5850  -32.0820   23.6490 O   0  0  0  0  0  0  0  0  0  0  0  0
  -22.7780  -29.4140   22.4490 C   0  0  0  0  0  0  0  0  0  0  0  0
  -21.4460  -29.2570   22.3230 N   0  0  0  0  0  0  0  0  0  0  0  0
  -23.4370  -28.7870   23.2820 O   0  0  0  0  0  0  0  0  0  0  0  0
  -20.9640  -29.8200   21.6350 H   0  0  0  0  0  0  0  0  0  0  0  0
  -18.0630  -28.0210   22.8150 C   0  0  0  0  0  0  0  0  0  0  0  0
  -20.6210  -28.3140   23.0890 C   0  0  0  0  0  3  0  0  0  0  0  0
  -20.7390  -26.8820   22.5170 C   0  0  0  0  0  2  0  0  0  0  0  0
  -19.6460  -26.5500   21.4950 C   0  0  0  0  0  2  0  0  0  0  0  0
  -18.2580  -26.6780   22.1280 C   0  0  0  0  0  2  0  0  0  0  0  0
  -19.1730  -28.7960   23.2480 C   0  0  0  0  0  0  0  0  0  0  0  0
  -18.9350  -30.0500   23.8520 C   0  0  0  0  0  3  0  0  0  0  0  0
  -17.6250  -30.5320   24.0190 C   0  0  0  0  0  3  0  0  0  0  0  0
  -16.5310  -29.7570   23.5980 C   0  0  0  0  0  3  0  0  0  0  0  0
  -16.7510  -28.5020   23.0030 C   0  0  0  0  0  3  0  0  0  0  0  0
  -25.9430  -32.4350   23.7770 C   0  0  0  0  0  3  0  0  0  0  0  0
  -25.6160  -33.8280   24.1380 N   0  0  0  0  0  0  0  0  0  0  0  0
  -25.9170  -34.9070   23.4020 C   0  0  0  0  0  0  0  0  0  0  0  0
  -26.5620  -34.8370   22.3530 O   0  0  0  0  0  0  0  0  0  0  0  0
  -25.0480  -33.9540   24.9620 H   0  0  0  0  0  0  0  0  0  0  0  0
  -24.1510  -36.6900   23.1620 C   0  0  0  0  0  1  0  0  0  0  0  0
  -25.4320  -36.2830   23.9090 C   0  0  0  0  0  3  0  0  0  0  0  0
  -27.5870  -37.1900   24.6660 C   0  0  0  0  0  1  0  0  0  0  0  0
  -26.4430  -37.3560   23.7730 N   0  0  0  0  0  0  0  0  0  0  0  0
  -26.0280  -38.2650   23.9580 H   0  0  0  0  0  0  0  0  0  0  0  0
  -26.4500  -31.6580   25.0550 C   0  0  1  0  0  0  0  0  0  0  0  0
  -25.3530  -31.4160   26.1180 C   0  0  0  0  0  1  0  0  0  0  0  0
  -27.0380  -30.2810   24.6700 C   0  0  0  0  0  1  0  0  0  0  0  0
  -27.5940  -32.4510   25.7300 C   0  0  0  0  0  1  0  0  0  0  0  0
  1  3  2  0
  1  6  1  0
  3  7  1  0
  3  4  1  0
  4  2  2  0
  4  9  1  0
  5  2  1  0
  5 48  1  0
  6  5  2  0
  7  8  1  0
  8  9  1  0
  9 10  1  1
 11  9  1  0
 12 17  1  0
 13 14  1  0
 13 12  1  0
 15 14  1  0
 15 22  1  0
 15 16  1  0
 17 11  1  0
 17 16  1  0
 18 11  2  0
 19 20  2  0
 20 39  1  0
 21 20  1  0
 21 24  1  0
 22 23  1  0
 22 19  1  0
 23 21  2  0
 24 25  1  0
 25 26  2  0
 27 30  1  0
 27 26  1  0
 28 27  2  0
 29 28  1  0
 29 24  2  0
 30 31  1  0
 31 32  1  0
 32 33  2  0
 34 33  1  0
 34 38  1  0
 35 34  2  0
 36 31  2  0
 36 35  1  0
 37 36  1  0
 39 40  1  0
 40 43  1  0
 40 42  1  0
 41 39  2  0
 44 45  1  0
 44 19  1  0
 46 44  1  0
 47 48  1  0
 49  6  1  0
 49 50  1  0
 51 62  2  0
 52 50  1  0
 52 57  1  0
 53 61  1  0
 53 63  1  0
 54 60  1  0
 54 56  1  0
 55 61  1  0
 56 55  1  0
 57 56  2  0
 58 52  2  0
 59 58  1  0
 59 54  2  0
 60 53  1  0
 61 51  1  0
 63 65  2  0
 64 63  1  0
 66 64  1  0
 67 76  2  0
 67 72  1  0
 68 64  1  0
 68 72  1  0
 69 68  1  0
 70 71  1  0
 70 69  1  0
 71 67  1  0
 72 73  2  0
 73 74  1  0
 75 74  2  0
 76 75  1  0
 77 51  1  0
 77 78  1  0
 77 87  1  0
 78 81  1  0
 79 83  1  0
 79 78  1  0
 80 79  2  0
 83 82  1  0
 85 83  1  0
 85 86  1  0
 85 84  1  0
 87 90  1  1
 87 88  1  0
 89 87  1  0
M  ISO  4   9 100  11 100  49 101  50 101
M  END
>  <TORSDO>  (8) 
F 18

>  <SCORE>  (8) 
-16.226

>  <name>  (8) 
7

>  <ligand_id>  (8) 
7

>  <original_smiles>  (8) 
[H]c1c([H])c([H])c2c(c1[H])C([H])([H])C([H])([H])C([H])([H])C2([H])N([H])C(=O)C1([H])N(C(=O)C([H])(N([H])C(=O)C([H])(N([H])C([H])([H])[H])C([H])([H])[H])C(C([H])([H])[H])(C([H])([H])[H])C([H])([H])[H])C([H])([H])c2c([H])c(OC([H])([H])c3c([H])c4c(c([H])c3C([H])([H])C([H])([H])[H])C(C(=O)N3C([H])([H])C([H])([H])C([H])([H])C([H])(n5nc(-c6c([H])c([H])c(Oc7c([H])c([H])c(F)c([H])c7F)c([H])c6[H])c(C(=O)N([H])[H])c5N([H])[H])C3([H])[H])(C([H])([H])[H])C([H])([H])C4([H])[H])c([H])c([H])c2C1([H])[H]

>  <smiles>  (8) 
[H]c1c([H])c([H])c2c(c1[H])C([H])([H])C([H])([H])C([H])([H])C2([H])N([H])C(=O)C1([H])N(C(=O)C([H])(N([H])C(=O)C([H])(N([H])C([H])([H])[H])C([H])([H])[H])C(C([H])([H])[H])(C([H])([H])[H])C([H])([H])[H])C([H])([H])c2c([H])c(OC([H])([H])c3c([H])c4c(c([H])c3C([H])([H])C([H])([H])[H])C(C(=O)N3C([H])([H])C([H])([H])C([H])([H])C([H])(n5nc(-c6c([H])c([H])c(Oc7c([H])c([H])c(F)c([H])c7F)c([H])c6[H])c(C(=O)N([H])[H])c5N([H])[H])C3([H])[H])(C([H])([H])[H])C([H])([H])C4([H])[H])c([H])c([H])c2C1([H])[H]

$$$$
8:0:0
     RDKit          3D

 89 97  0  0  1  0  0  0  0  0999 V2000
  -27.1550  -23.6950   19.8690 C   0  0  0  0  0  3  0  0  0  0  0  0
  -26.9320  -22.3560   19.4490 C   0  0  0  0  0  3  0  0  0  0  0  0
  -29.3300  -22.9580   20.5390 C   0  0  0  0  0  3  0  0  0  0  0  0
  -29.1410  -21.4560   20.1410 C   0  0  0  0  0  0  0  0  0  0  0  0
  -28.3690  -24.1840   20.4050 C   0  0  0  0  0  0  0  0  0  0  0  0
  -27.8640  -21.2780   19.5590 C   0  0  0  0  0  0  0  0  0  0  0  0
  -26.5170  -19.7830   18.2210 C   0  0  0  0  0  1  0  0  0  0  0  0
  -27.5580  -19.9910   19.1680 O   0  0  0  0  0  0  0  0  0  0  0  0
  -28.4420  -25.7080   20.7480 O   0  0  0  0  0  0  0  0  0  0  0  0
  -24.6200  -31.8060   23.2460 C   0  0  0  0  0  0  0  0  0  0  0  0
  -27.4350  -26.8260   20.5880 C   0  0  0  0  0  0  0  0  0  0  0  0
  -23.5540  -30.3190   21.6010 C   0  0  0  0  0  3  0  0  0  0  0  0
  -25.1180  -28.6960   20.3230 C   0  0  0  0  0  0  0  0  0  0  0  0
  -26.1210  -30.5660   21.6060 C   0  0  0  0  0  2  0  0  0  0  0  0
  -26.2540  -29.1280   21.0170 C   0  0  0  0  0  0  0  0  0  0  0  0
  -27.3990  -28.2090   21.1390 C   0  0  0  0  0  3  0  0  0  0  0  0
  -26.3000  -26.5990   19.7730 C   0  0  0  0  0  3  0  0  0  0  0  0
  -25.1710  -27.4520   19.6780 C   0  0  0  0  0  3  0  0  0  0  0  0
  -23.8790  -29.5920   20.2670 C   0  0  0  0  0  2  0  0  0  0  0  0
  -24.7820  -30.9290   22.2030 N   0  0  0  0  0  0  0  0  0  0  0  0
  -23.4960  -32.0920   23.6910 O   0  0  0  0  0  0  0  0  0  0  0  0
  -22.8260  -29.3450   22.5650 C   0  0  0  0  0  0  0  0  0  0  0  0
  -21.4990  -29.1780   22.4030 N   0  0  0  0  0  0  0  0  0  0  0  0
  -23.4620  -28.7390   23.4300 O   0  0  0  0  0  0  0  0  0  0  0  0
  -21.0370  -29.7210   21.6860 H   0  0  0  0  0  0  0  0  0  0  0  0
  -18.0950  -28.0090   22.8630 C   0  0  0  0  0  0  0  0  0  0  0  0
  -20.6520  -28.2580   23.1680 C   0  0  0  0  0  3  0  0  0  0  0  0
  -20.7510  -26.8180   22.6110 C   0  0  0  0  0  2  0  0  0  0  0  0
  -19.6640  -26.4950   21.5800 C   0  0  0  0  0  2  0  0  0  0  0  0
  -18.2730  -26.6540   22.1980 C   0  0  0  0  0  2  0  0  0  0  0  0
  -19.2120  -28.7690   23.3040 C   0  0  0  0  0  0  0  0  0  0  0  0
  -18.9890  -30.0340   23.8870 C   0  0  0  0  0  3  0  0  0  0  0  0
  -17.6840  -30.5420   24.0330 C   0  0  0  0  0  3  0  0  0  0  0  0
  -16.5820  -29.7810   23.6050 C   0  0  0  0  0  3  0  0  0  0  0  0
  -16.7880  -28.5160   23.0270 C   0  0  0  0  0  3  0  0  0  0  0  0
  -25.8380  -32.5050   23.9210 C   0  0  0  0  0  3  0  0  0  0  0  0
  -26.2760  -31.8150   25.2730 C   0  0  1  0  0  0  0  0  0  0  0  0
  -25.1060  -31.5650   26.2540 C   0  0  0  0  0  1  0  0  0  0  0  0
  -26.9580  -30.4540   25.0060 C   0  0  0  0  0  1  0  0  0  0  0  0
  -27.3240  -32.6950   25.9940 C   0  0  0  0  0  1  0  0  0  0  0  0
  -25.4740  -33.9130   24.1690 N   0  0  0  0  0  0  0  0  0  0  0  0
  -25.8430  -34.9490   23.4040 C   0  0  0  0  0  0  0  0  0  0  0  0
  -26.5880  -34.8230   22.4280 O   0  0  0  0  0  0  0  0  0  0  0  0
  -24.8210  -34.0830   24.9190 H   0  0  0  0  0  0  0  0  0  0  0  0
  -24.1190  -36.7060   22.8700 C   0  0  0  0  0  1  0  0  0  0  0  0
  -25.3070  -36.3460   23.7780 C   0  0  0  0  0  3  0  0  0  0  0  0
  -27.3630  -37.3010   24.7260 C   0  0  0  0  0  1  0  0  0  0  0  0
  -26.3280  -37.4130   23.7000 N   0  0  0  0  0  0  0  0  0  0  0  0
  -25.8990  -38.3300   23.7820 H   0  0  0  0  0  0  0  0  0  0  0  0
  -29.9920  -19.9260   20.4470 C   0  0  0  0  0  2  0  0  0  0  0  0
  -30.0890  -18.2770   19.6600 C   0  0  0  0  0  2  0  0  0  0  0  0
  -30.8820  -15.3610   19.8800 C   0  0  0  0  0  0  0  0  0  0  0  0
  -30.7590  -12.9090   18.9950 C   0  0  0  0  0  2  0  0  0  0  0  0
  -29.7880  -12.7430   17.7960 C   0  0  0  0  0  2  0  0  0  0  0  0
  -28.3500  -12.5040   18.2860 C   0  0  0  0  0  2  0  0  0  0  0  0
  -27.9760  -13.4600   19.4450 C   0  0  0  0  0  3  0  0  0  0  0  0
  -29.0700  -13.5660   20.5320 C   0  0  0  0  0  2  0  0  0  0  0  0
  -30.2920  -14.0560   19.8710 N   0  0  0  0  0  0  0  0  0  0  0  0
  -32.0570  -15.3380   19.4870 O   0  0  0  0  0  0  0  0  0  0  0  0
  -30.1720  -16.6520   20.1530 N   0  0  0  0  0  0  0  0  0  0  0  0
  -29.3060  -16.4180   20.6170 H   0  0  0  0  0  0  0  0  0  0  0  0
  -25.6580  -14.0780   20.3040 C   0  0  0  0  0  0  0  0  0  0  0  0
  -24.5860  -13.3290   20.7040 C   0  0  0  0  0  0  0  0  0  0  0  0
  -25.0050  -11.9650   20.6290 C   0  0  0  0  0  0  0  0  0  0  0  0
  -26.6590  -13.1740   20.0010 N   0  0  0  0  0  0  0  0  0  0  0  0
  -26.2820  -11.8940   20.2630 N   0  0  0  0  0  0  0  0  0  0  0  0
  -24.2440  -10.7250   20.8270 C   0  0  0  0  0  0  0  0  0  0  0  0
  -24.6160   -9.7750   21.8040 C   0  0  0  0  0  3  0  0  0  0  0  0
  -23.8520   -8.6020   21.9900 C   0  0  0  0  0  3  0  0  0  0  0  0
  -22.7010   -8.3700   21.2000 C   0  0  0  0  0  0  0  0  0  0  0  0
  -22.3480   -9.3080   20.2140 C   0  0  0  0  0  3  0  0  0  0  0  0
  -23.1110  -10.4720   20.0260 C   0  0  0  0  0  3  0  0  0  0  0  0
  -21.9150   -7.2470   21.2930 O   0  0  0  0  0  0  0  0  0  0  0  0
  -21.7200   -6.6020   22.4880 C   0  0  0  0  0  0  0  0  0  0  0  0
  -21.1400   -7.2520   23.5990 C   0  0  0  0  0  3  0  0  0  0  0  0
  -20.8930   -6.5320   24.7850 C   0  0  0  0  0  3  0  0  0  0  0  0
  -21.2160   -5.1650   24.8600 C   0  0  0  0  0  0  0  0  0  0  0  0
  -21.7890   -4.5150   23.7530 C   0  0  0  0  0  3  0  0  0  0  0  0
  -22.0360   -5.2320   22.5690 C   0  0  0  0  0  0  0  0  0  0  0  0
  -22.5690   -4.5950   21.4980 F   0  0  0  0  0  0  0  0  0  0  0  0
  -20.9720   -4.4710   25.9960 F   0  0  0  0  0  0  0  0  0  0  0  0
  -23.2190  -13.8490   21.0380 C   0  0  0  0  0  0  0  0  0  0  0  0
  -22.5140  -13.1830   21.9440 N   0  0  0  0  0  0  0  0  0  0  0  0
  -22.7880  -14.8820   20.5280 O   0  0  0  0  0  0  0  0  0  0  0  0
  -22.8780  -12.3470   22.3790 H   0  0  0  0  0  0  0  0  0  0  0  0
  -21.5980  -13.5130   22.2100 H   0  0  0  0  0  0  0  0  0  0  0  0
  -25.8580  -15.4460   20.1430 N   0  0  0  0  0  0  0  0  0  0  0  0
  -25.1120  -16.1170   20.2920 H   0  0  0  0  0  0  0  0  0  0  0  0
  -26.6930  -15.8610   19.7510 H   0  0  0  0  0  0  0  0  0  0  0  0
  1  5  1  0
  2  6  1  0
  2  1  2  0
  4 50  1  0
  4  3  1  0
  5  3  2  0
  5  9  1  0
  6  4  2  0
  7  8  1  0
  8  6  1  0
 10 21  2  0
 11  9  1  0
 11 16  1  0
 12 20  1  0
 12 22  1  0
 13 15  1  0
 14 20  1  0
 15 16  2  0
 15 14  1  0
 17 11  2  0
 18 17  1  0
 18 13  2  0
 19 13  1  0
 19 12  1  0
 20 10  1  0
 22 24  2  0
 23 22  1  0
 25 23  1  0
 26 35  2  0
 26 31  1  0
 27 23  1  0
 27 31  1  0
 28 27  1  0
 29 30  1  0
 29 28  1  0
 30 26  1  0
 31 32  2  0
 32 33  1  0
 34 33  2  0
 35 34  1  0
 36 10  1  0
 36 41  1  0
 36 37  1  0
 37 40  1  1
 37 38  1  0
 39 37  1  0
 41 44  1  0
 42 46  1  0
 42 41  1  0
 43 42  2  0
 46 45  1  0
 48 46  1  0
 48 49  1  0
 48 47  1  0
 51 60  1  0
 51 50  1  0
 52 60  1  0
 53 58  1  0
 54 55  1  0
 54 53  1  0
 56 55  1  0
 56 65  1  0
 56 57  1  0
 58 52  1  0
 58 57  1  0
 59 52  2  0
 60 61  1  0
 62 63  2  0
 63 82  1  0
 64 63  1  0
 64 67  1  0
 65 66  1  0
 65 62  1  0
 66 64  2  0
 67 68  1  0
 68 69  2  0
 70 73  1  0
 70 69  1  0
 71 70  2  0
 72 71  1  0
 72 67  2  0
 73 74  1  0
 74 79  2  0
 74 75  1  0
 75 76  2  0
 76 77  1  0
 77 81  1  0
 78 77  2  0
 79 78  1  0
 80 79  1  0
 82 83  1  0
 83 86  1  0
 83 85  1  0
 84 82  2  0
 87 88  1  0
 87 62  1  0
 89 87  1  0
M  ISO  4   5 101   9 101  52 100  60 100
M  END
>  <TORSDO>  (9) 
F 19

>  <SCORE>  (9) 
-14.722

>  <name>  (9) 
8

>  <ligand_id>  (9) 
8

>  <original_smiles>  (9) 
[H]c1c([H])c([H])c2c(c1[H])C([H])([H])C([H])([H])C([H])([H])C2([H])N([H])C(=O)C1([H])N(C(=O)C([H])(N([H])C(=O)C([H])(N([H])C([H])([H])[H])C([H])([H])[H])C(C([H])([H])[H])(C([H])([H])[H])C([H])([H])[H])C([H])([H])c2c([H])c(Oc3c([H])c([H])c(OC([H])([H])[H])c(C([H])([H])C([H])([H])N([H])C(=O)N4C([H])([H])C([H])([H])C([H])([H])C([H])(n5nc(-c6c([H])c([H])c(Oc7c([H])c([H])c(F)c([H])c7F)c([H])c6[H])c(C(=O)N([H])[H])c5N([H])[H])C4([H])[H])c3[H])c([H])c([H])c2C1([H])[H]

>  <smiles>  (9) 
[H]c1c([H])c([H])c2c(c1[H])C([H])([H])C([H])([H])C([H])([H])C2([H])N([H])C(=O)C1([H])N(C(=O)C([H])(N([H])C(=O)C([H])(N([H])C([H])([H])[H])C([H])([H])[H])C(C([H])([H])[H])(C([H])([H])[H])C([H])([H])[H])C([H])([H])c2c([H])c(Oc3c([H])c([H])c(OC([H])([H])[H])c(C([H])([H])C([H])([H])N([H])C(=O)N4C([H])([H])C([H])([H])C([H])([H])C([H])(n5nc(-c6c([H])c([H])c(Oc7c([H])c([H])c(F)c([H])c7F)c([H])c6[H])c(C(=O)N([H])[H])c5N([H])[H])C4([H])[H])c3[H])c([H])c([H])c2C1([H])[H]

$$$$
9:0:0
     RDKit          3D

 95103  0  0  1  0  0  0  0  0999 V2000
  -27.2310  -21.5890   18.0060 C   0  0  0  0  0  3  0  0  0  0  0  0
  -24.8850  -20.9860   17.9930 C   0  0  0  0  0  3  0  0  0  0  0  0
  -26.5940  -24.2600   21.1970 C   0  0  0  0  0  3  0  0  0  0  0  0
  -27.0330  -22.3890   19.1510 C   0  0  0  0  0  0  0  0  0  0  0  0
  -25.7350  -22.4810   19.7560 C   0  0  0  0  0  0  0  0  0  0  0  0
  -26.1630  -20.8910   17.4200 C   0  0  0  0  0  0  0  0  0  0  0  0
  -24.6530  -21.7700   19.1420 C   0  0  0  0  0  0  0  0  0  0  0  0
  -25.6240  -23.2680   20.9500 C   0  0  0  0  0  0  0  0  0  0  0  0
  -28.1620  -22.8720   19.8610 C   0  0  0  0  0  3  0  0  0  0  0  0
  -27.6860  -24.3950   20.3270 C   0  0  0  0  0  3  0  0  0  0  0  0
  -26.3740  -20.0180   16.1970 C   0  0  0  0  0  1  0  0  0  0  0  0
  -23.2050  -21.8210   19.6120 C   0  0  0  0  0  1  0  0  0  0  0  0
  -24.4700  -23.2120   21.9430 C   0  0  0  0  0  1  0  0  0  0  0  0
  -27.8260  -25.9820   19.9820 O   0  0  0  0  0  0  0  0  0  0  0  0
  -24.8160  -32.2930   23.5730 C   0  0  0  0  0  0  0  0  0  0  0  0
  -26.9260  -27.2560   20.1610 C   0  0  0  0  0  0  0  0  0  0  0  0
  -23.4730  -31.0350   21.9450 C   0  0  0  0  0  3  0  0  0  0  0  0
  -24.7600  -29.4110   20.3590 C   0  0  0  0  0  0  0  0  0  0  0  0
  -26.0460  -31.0710   21.6700 C   0  0  0  0  0  2  0  0  0  0  0  0
  -26.0080  -29.6700   20.9380 C   0  0  0  0  0  0  0  0  0  0  0  0
  -27.0750  -28.6250   20.8090 C   0  0  0  0  0  3  0  0  0  0  0  0
  -25.6530  -27.2330   19.5330 C   0  0  0  0  0  3  0  0  0  0  0  0
  -24.6230  -28.2170   19.6310 C   0  0  0  0  0  3  0  0  0  0  0  0
  -23.5990  -30.4080   20.5270 C   0  0  0  0  0  2  0  0  0  0  0  0
  -24.8080  -31.4960   22.4480 N   0  0  0  0  0  0  0  0  0  0  0  0
  -23.7680  -32.6080   24.1630 O   0  0  0  0  0  0  0  0  0  0  0  0
  -22.7770  -30.0320   22.9060 C   0  0  0  0  0  0  0  0  0  0  0  0
  -21.4760  -29.7560   22.6990 N   0  0  0  0  0  0  0  0  0  0  0  0
  -23.4210  -29.5040   23.8130 O   0  0  0  0  0  0  0  0  0  0  0  0
  -21.0000  -30.2340   21.9480 H   0  0  0  0  0  0  0  0  0  0  0  0
  -18.2170  -28.1660   22.9620 C   0  0  0  0  0  0  0  0  0  0  0  0
  -20.6840  -28.7750   23.4550 C   0  0  0  0  0  3  0  0  0  0  0  0
  -21.0150  -27.3320   23.0080 C   0  0  0  0  0  2  0  0  0  0  0  0
  -20.0770  -26.8070   21.9160 C   0  0  0  0  0  2  0  0  0  0  0  0
  -18.6260  -26.8120   22.4070 C   0  0  0  0  0  2  0  0  0  0  0  0
  -19.1820  -29.0940   23.4390 C   0  0  0  0  0  0  0  0  0  0  0  0
  -18.7460  -30.3470   23.9210 C   0  0  0  0  0  3  0  0  0  0  0  0
  -17.3790  -30.6820   23.9270 C   0  0  0  0  0  3  0  0  0  0  0  0
  -16.4260  -29.7570   23.4630 C   0  0  0  0  0  3  0  0  0  0  0  0
  -16.8460  -28.5010   22.9890 C   0  0  0  0  0  3  0  0  0  0  0  0
  -26.1400  -32.8620   24.1660 C   0  0  0  0  0  3  0  0  0  0  0  0
  -25.8860  -34.2440   24.6200 N   0  0  0  0  0  0  0  0  0  0  0  0
  -26.2190  -35.3530   23.9450 C   0  0  0  0  0  0  0  0  0  0  0  0
  -26.8270  -35.3180   22.8720 O   0  0  0  0  0  0  0  0  0  0  0  0
  -25.3380  -34.3490   25.4610 H   0  0  0  0  0  0  0  0  0  0  0  0
  -24.5480  -37.2380   23.8610 C   0  0  0  0  0  1  0  0  0  0  0  0
  -25.8180  -36.7160   24.5510 C   0  0  0  0  0  3  0  0  0  0  0  0
  -28.0290  -37.4600   25.3230 C   0  0  0  0  0  1  0  0  0  0  0  0
  -26.8830  -37.7390   24.4620 N   0  0  0  0  0  0  0  0  0  0  0  0
  -26.5200  -38.6560   24.7060 H   0  0  0  0  0  0  0  0  0  0  0  0
  -26.6980  -32.0010   25.3670 C   0  0  1  0  0  0  0  0  0  0  0  0
  -25.6540  -31.7290   26.4770 C   0  0  0  0  0  1  0  0  0  0  0  0
  -27.2180  -30.6310   24.8750 C   0  0  0  0  0  1  0  0  0  0  0  0
  -27.9040  -32.7220   26.0120 C   0  0  0  0  0  1  0  0  0  0  0  0
  -28.6830  -21.2030   20.5980 C   0  0  0  0  0  1  0  0  0  0  0  0
  -29.8090  -19.5180   18.6360 C   0  0  0  0  0  1  0  0  0  0  0  0
  -29.5570  -19.4870   20.1490 C   0  0  0  0  0  2  0  0  0  0  0  0
  -30.3550  -16.3810   20.5370 C   0  0  0  0  0  0  0  0  0  0  0  0
  -30.6450  -13.8070   19.8340 C   0  0  0  0  0  2  0  0  0  0  0  0
  -29.8890  -13.3260   18.5590 C   0  0  0  0  0  2  0  0  0  0  0  0
  -28.4480  -12.9140   18.8960 C   0  0  0  0  0  2  0  0  0  0  0  0
  -27.8030  -13.9090   19.8890 C   0  0  0  0  0  3  0  0  0  0  0  0
  -28.7140  -14.3140   21.0730 C   0  0  0  0  0  2  0  0  0  0  0  0
  -29.9080  -14.9810   20.5000 N   0  0  0  0  0  0  0  0  0  0  0  0
  -31.5950  -16.3630   20.4090 O   0  0  0  0  0  0  0  0  0  0  0  0
  -29.5350  -17.7270   20.5470 N   0  0  0  0  0  0  0  0  0  0  0  0
  -28.5790  -17.4680   20.7500 H   0  0  0  0  0  0  0  0  0  0  0  0
  -25.3810  -14.3440   20.5020 C   0  0  0  0  0  0  0  0  0  0  0  0
  -24.3270  -13.5230   20.7770 C   0  0  0  0  0  0  0  0  0  0  0  0
  -24.8410  -12.1890   20.7450 C   0  0  0  0  0  0  0  0  0  0  0  0
  -26.4660  -13.5130   20.3070 N   0  0  0  0  0  0  0  0  0  0  0  0
  -26.1520  -12.2050   20.5180 N   0  0  0  0  0  0  0  0  0  0  0  0
  -24.1440  -10.9000   20.8530 C   0  0  0  0  0  0  0  0  0  0  0  0
  -24.5410   -9.9160   21.7840 C   0  0  0  0  0  3  0  0  0  0  0  0
  -23.8370   -8.6970   21.8830 C   0  0  0  0  0  3  0  0  0  0  0  0
  -22.7190   -8.4520   21.0490 C   0  0  0  0  0  0  0  0  0  0  0  0
  -22.3420   -9.4240   20.1070 C   0  0  0  0  0  3  0  0  0  0  0  0
  -23.0480  -10.6360   20.0060 C   0  0  0  0  0  3  0  0  0  0  0  0
  -21.9930   -7.2850   21.0540 O   0  0  0  0  0  0  0  0  0  0  0  0
  -21.8800   -6.5120   22.1830 C   0  0  0  0  0  0  0  0  0  0  0  0
  -21.3410   -7.0220   23.3840 C   0  0  0  0  0  3  0  0  0  0  0  0
  -21.1770   -6.1760   24.4980 C   0  0  0  0  0  3  0  0  0  0  0  0
  -21.5450   -4.8200   24.4140 C   0  0  0  0  0  0  0  0  0  0  0  0
  -22.0790   -4.3080   23.2180 C   0  0  0  0  0  3  0  0  0  0  0  0
  -22.2420   -5.1530   22.1050 C   0  0  0  0  0  0  0  0  0  0  0  0
  -22.7370   -4.6500   20.9490 F   0  0  0  0  0  0  0  0  0  0  0  0
  -21.3840   -4.0040   25.4820 F   0  0  0  0  0  0  0  0  0  0  0  0
  -22.9000  -13.9510   20.9560 C   0  0  0  0  0  0  0  0  0  0  0  0
  -22.1420  -13.2250   21.7680 N   0  0  0  0  0  0  0  0  0  0  0  0
  -22.4640  -14.9650   20.4140 O   0  0  0  0  0  0  0  0  0  0  0  0
  -22.5070  -12.4060   22.2330 H   0  0  0  0  0  0  0  0  0  0  0  0
  -21.1830  -13.5010   21.9310 H   0  0  0  0  0  0  0  0  0  0  0  0
  -25.5080  -15.7230   20.3680 N   0  0  0  0  0  0  0  0  0  0  0  0
  -24.7080  -16.3450   20.4190 H   0  0  0  0  0  0  0  0  0  0  0  0
  -26.3500  -16.1850   20.0520 H   0  0  0  0  0  0  0  0  0  0  0  0
  1  4  1  0
  2  7  2  0
  4  5  2  0
  4  9  1  0
  5  8  1  0
  6  2  1  0
  6  1  2  0
  7 12  1  0
  7  5  1  0
  8  3  2  0
  8 13  1  0
  9 10  1  0
  9 55  1  0
 10 14  1  0
 10  3  1  0
 11  6  1  0
 14 16  1  0
 15 26  2  0
 16 21  1  0
 17 25  1  0
 17 27  1  0
 18 24  1  0
 18 20  1  0
 19 25  1  0
 20 19  1  0
 21 20  2  0
 22 23  1  0
 22 16  2  0
 23 18  2  0
 24 17  1  0
 25 15  1  0
 27 29  2  0
 28 27  1  0
 30 28  1  0
 31 40  2  0
 31 36  1  0
 32 28  1  0
 33 32  1  0
 34 35  1  0
 34 33  1  0
 35 31  1  0
 36 32  1  0
 36 37  2  0
 37 38  1  0
 39 38  2  0
 40 39  1  0
 41 15  1  0
 41 42  1  0
 41 51  1  0
 42 45  1  0
 43 47  1  0
 43 42  1  0
 44 43  2  0
 47 46  1  0
 49 47  1  0
 49 50  1  0
 49 48  1  0
 51 54  1  1
 51 52  1  0
 53 51  1  0
 56 57  1  0
 57 66  1  0
 58 66  1  0
 59 64  1  0
 60 61  1  0
 60 59  1  0
 62 61  1  0
 62 71  1  0
 62 63  1  0
 64 58  1  0
 64 63  1  0
 65 58  2  0
 66 67  1  0
 68 69  2  0
 69 88  1  0
 70 69  1  0
 70 73  1  0
 71 68  1  0
 71 72  1  0
 72 70  2  0
 73 74  1  0
 74 75  2  0
 76 79  1  0
 76 75  1  0
 77 76  2  0
 78 77  1  0
 78 73  2  0
 79 80  1  0
 80 81  1  0
 81 82  2  0
 83 82  1  0
 83 87  1  0
 84 83  2  0
 85 80  2  0
 85 84  1  0
 86 85  1  0
 88 89  1  0
 89 92  1  0
 89 91  1  0
 90 88  2  0
 93 94  1  0
 93 68  1  0
 95 93  1  0
M  ISO  4  10 101  14 101  58 100  66 100
M  END
>  <TORSDO>  (10) 
F 18

>  <SCORE>  (10) 
-11.225

>  <name>  (10) 
9

>  <ligand_id>  (10) 
9

>  <original_smiles>  (10) 
[H]c1c([H])c([H])c2c(c1[H])C([H])([H])C([H])([H])C([H])([H])C2([H])N([H])C(=O)C1([H])N(C(=O)C([H])(N([H])C(=O)C([H])(N([H])C([H])([H])[H])C([H])([H])[H])C(C([H])([H])[H])(C([H])([H])[H])C([H])([H])[H])C([H])([H])c2c([H])c(Oc3c([H])c(C([H])([H])[H])c4c(C([H])([H])[H])c([H])c(C([H])([H])[H])c([H])c4c3C([H])([H])C([H])(N([H])C(=O)N3C([H])([H])C([H])([H])C([H])([H])C([H])(n4nc(-c5c([H])c([H])c(Oc6c([H])c([H])c(F)c([H])c6F)c([H])c5[H])c(C(=O)N([H])[H])c4N([H])[H])C3([H])[H])C([H])([H])[H])c([H])c([H])c2C1([H])[H]

>  <smiles>  (10) 
[H]c1c([H])c([H])c2c(c1[H])C([H])([H])C([H])([H])C([H])([H])C2([H])N([H])C(=O)C1([H])N(C(=O)C([H])(N([H])C(=O)C([H])(N([H])C([H])([H])[H])C([H])([H])[H])C(C([H])([H])[H])(C([H])([H])[H])C([H])([H])[H])C([H])([H])c2c([H])c(Oc3c([H])c(C([H])([H])[H])c4c(C([H])([H])[H])c([H])c(C([H])([H])[H])c([H])c4c3C([H])([H])C([H])(N([H])C(=O)N3C([H])([H])C([H])([H])C([H])([H])C([H])(n4nc(-c5c([H])c([H])c(Oc6c([H])c([H])c(F)c([H])c6F)c([H])c5[H])c(C(=O)N([H])[H])c4N([H])[H])C3([H])[H])C([H])([H])[H])c([H])c([H])c2C1([H])[H]

$$$$
10:0:0
     RDKit          3D

 95104  0  0  1  0  0  0  0  0999 V2000
  -28.8000  -22.9290   18.2380 C   0  0  0  0  0  3  0  0  0  0  0  0
  -28.8460  -24.2690   20.2760 C   0  0  0  0  0  3  0  0  0  0  0  0
  -28.4390  -25.3440   18.1280 C   0  0  0  0  0  3  0  0  0  0  0  0
  -28.9630  -23.0100   19.6390 C   0  0  0  0  0  0  0  0  0  0  0  0
  -28.5480  -24.0940   17.4840 C   0  0  0  0  0  0  0  0  0  0  0  0
  -28.5660  -25.4360   19.5300 C   0  0  0  0  0  0  0  0  0  0  0  0
  -28.4010  -24.0210   16.1290 O   0  0  0  0  0  0  0  0  0  0  0  0
  -28.4840  -23.1370   15.7840 H   0  0  0  0  0  0  0  0  0  0  0  0
  -28.4490  -26.6550   20.1640 O   0  0  0  0  0  0  0  0  0  0  0  0
  -24.5660  -31.7730   23.2410 C   0  0  0  0  0  0  0  0  0  0  0  0
  -27.2510  -27.3440   20.1660 C   0  0  0  0  0  0  0  0  0  0  0  0
  -23.3750  -30.3690   21.5890 C   0  0  0  0  0  3  0  0  0  0  0  0
  -24.8390  -28.8340   20.1780 C   0  0  0  0  0  0  0  0  0  0  0  0
  -25.9000  -30.7360   21.4070 C   0  0  0  0  0  2  0  0  0  0  0  0
  -25.9920  -29.3630   20.7700 C   0  0  0  0  0  0  0  0  0  0  0  0
  -27.1960  -28.6240   20.7660 C   0  0  0  0  0  3  0  0  0  0  0  0
  -26.0700  -26.8190   19.5860 C   0  0  0  0  0  3  0  0  0  0  0  0
  -24.8720  -27.5580   19.5870 C   0  0  0  0  0  3  0  0  0  0  0  0
  -23.5930  -29.6870   20.2120 C   0  0  0  0  0  2  0  0  0  0  0  0
  -24.6320  -30.9740   22.1380 N   0  0  0  0  0  0  0  0  0  0  0  0
  -23.4800  -32.0420   23.7730 O   0  0  0  0  0  0  0  0  0  0  0  0
  -22.7180  -29.3490   22.5450 C   0  0  0  0  0  0  0  0  0  0  0  0
  -21.4020  -29.1370   22.3810 N   0  0  0  0  0  0  0  0  0  0  0  0
  -23.3910  -28.7470   23.3870 O   0  0  0  0  0  0  0  0  0  0  0  0
  -20.9220  -29.6720   21.6720 H   0  0  0  0  0  0  0  0  0  0  0  0
  -18.0500  -27.8430   22.7580 C   0  0  0  0  0  0  0  0  0  0  0  0
  -20.5820  -28.1920   23.1380 C   0  0  0  0  0  3  0  0  0  0  0  0
  -20.7570  -26.7520   22.6040 C   0  0  0  0  0  2  0  0  0  0  0  0
  -19.7130  -26.3680   21.5500 C   0  0  0  0  0  2  0  0  0  0  0  0
  -18.3010  -26.4830   22.1280 C   0  0  0  0  0  2  0  0  0  0  0  0
  -19.1220  -28.6510   23.2180 C   0  0  0  0  0  0  0  0  0  0  0  0
  -18.8370  -29.9220   23.7640 C   0  0  0  0  0  3  0  0  0  0  0  0
  -17.5110  -30.3840   23.8570 C   0  0  0  0  0  3  0  0  0  0  0  0
  -16.4520  -29.5740   23.4140 C   0  0  0  0  0  3  0  0  0  0  0  0
  -16.7210  -28.3040   22.8710 C   0  0  0  0  0  3  0  0  0  0  0  0
  -25.8470  -32.4050   23.8710 C   0  0  0  0  0  3  0  0  0  0  0  0
  -26.3540  -31.6340   25.1520 C   0  0  1  0  0  0  0  0  0  0  0  0
  -25.2530  -31.3950   26.2100 C   0  0  0  0  0  1  0  0  0  0  0  0
  -26.9410  -30.2580   24.7620 C   0  0  0  0  0  1  0  0  0  0  0  0
  -27.4980  -32.4290   25.8220 C   0  0  0  0  0  1  0  0  0  0  0  0
  -25.5340  -33.8020   24.1980 N   0  0  0  0  0  0  0  0  0  0  0  0
  -25.8630  -34.8520   23.4330 C   0  0  0  0  0  0  0  0  0  0  0  0
  -26.5300  -34.7470   22.4010 O   0  0  0  0  0  0  0  0  0  0  0  0
  -24.9400  -33.9580   24.9980 H   0  0  0  0  0  0  0  0  0  0  0  0
  -24.1210  -36.6320   23.0770 C   0  0  0  0  0  1  0  0  0  0  0  0
  -25.3690  -36.2410   23.8840 C   0  0  0  0  0  3  0  0  0  0  0  0
  -27.5020  -37.1440   24.6990 C   0  0  0  0  0  1  0  0  0  0  0  0
  -26.3960  -37.2980   23.7570 N   0  0  0  0  0  0  0  0  0  0  0  0
  -25.9860  -38.2170   23.8980 H   0  0  0  0  0  0  0  0  0  0  0  0
  -29.2400  -21.7600   20.4770 C   0  0  0  0  0  2  0  0  0  0  0  0
  -30.0770  -20.6580   19.7780 C   0  0  0  0  0  2  0  0  0  0  0  0
  -32.0280  -18.9880   19.9720 C   0  0  0  0  0  2  0  0  0  0  0  0
  -30.2870  -19.0680   21.8420 C   0  0  0  0  0  2  0  0  0  0  0  0
  -31.4770  -17.6100   19.5580 C   0  0  0  0  0  2  0  0  0  0  0  0
  -29.8170  -17.6630   21.4110 C   0  0  0  0  0  2  0  0  0  0  0  0
  -31.0100  -19.8710   20.7310 C   0  0  0  0  0  3  0  0  0  0  0  0
  -30.9700  -16.8410   20.7990 C   0  0  0  0  0  3  0  0  0  0  0  0
  -31.2300  -14.4040   20.0750 C   0  0  0  0  0  0  0  0  0  0  0  0
  -30.8290  -12.2180   19.0090 C   0  0  0  0  0  2  0  0  0  0  0  0
  -29.8610  -12.4160   17.8260 C   0  0  0  0  0  2  0  0  0  0  0  0
  -28.3940  -12.3550   18.2990 C   0  0  0  0  0  2  0  0  0  0  0  0
  -28.1260  -13.2530   19.5360 C   0  0  0  0  0  3  0  0  0  0  0  0
  -29.1990  -13.0200   20.6230 C   0  0  0  0  0  2  0  0  0  0  0  0
  -30.5170  -13.2500   20.0060 N   0  0  0  0  0  0  0  0  0  0  0  0
  -32.3650  -14.5170   19.6070 O   0  0  0  0  0  0  0  0  0  0  0  0
  -30.5420  -15.4530   20.5640 N   0  0  0  0  0  0  0  0  0  0  0  0
  -29.6070  -15.2280   20.8710 H   0  0  0  0  0  0  0  0  0  0  0  0
  -25.7960  -14.0060   20.3310 C   0  0  0  0  0  0  0  0  0  0  0  0
  -24.6940  -13.2970   20.7310 C   0  0  0  0  0  0  0  0  0  0  0  0
  -25.0680  -11.9200   20.6740 C   0  0  0  0  0  0  0  0  0  0  0  0
  -26.7750  -13.0630   20.0590 N   0  0  0  0  0  0  0  0  0  0  0  0
  -26.3430  -11.8040   20.3200 N   0  0  0  0  0  0  0  0  0  0  0  0
  -24.2750  -10.7030   20.8820 C   0  0  0  0  0  0  0  0  0  0  0  0
  -24.6560   -9.7240   21.8260 C   0  0  0  0  0  3  0  0  0  0  0  0
  -23.8650   -8.5710   22.0190 C   0  0  0  0  0  3  0  0  0  0  0  0
  -22.6820   -8.3870   21.2650 C   0  0  0  0  0  0  0  0  0  0  0  0
  -22.3200   -9.3530   20.3100 C   0  0  0  0  0  3  0  0  0  0  0  0
  -23.1100  -10.4980   20.1160 C   0  0  0  0  0  3  0  0  0  0  0  0
  -21.8680   -7.2860   21.3660 O   0  0  0  0  0  0  0  0  0  0  0  0
  -21.7380   -6.5910   22.5420 C   0  0  0  0  0  0  0  0  0  0  0  0
  -21.2910   -7.2120   23.7280 C   0  0  0  0  0  3  0  0  0  0  0  0
  -21.1040   -6.4460   24.8970 C   0  0  0  0  0  3  0  0  0  0  0  0
  -21.3560   -5.0620   24.8780 C   0  0  0  0  0  0  0  0  0  0  0  0
  -21.7980   -4.4400   23.6970 C   0  0  0  0  0  3  0  0  0  0  0  0
  -21.9850   -5.2040   22.5320 C   0  0  0  0  0  0  0  0  0  0  0  0
  -22.3900   -4.5980   21.3900 F   0  0  0  0  0  0  0  0  0  0  0  0
  -21.1710   -4.3240   25.9970 F   0  0  0  0  0  0  0  0  0  0  0  0
  -23.3400  -13.8580   21.0580 C   0  0  0  0  0  0  0  0  0  0  0  0
  -22.6060  -13.2090   21.9550 N   0  0  0  0  0  0  0  0  0  0  0  0
  -22.9440  -14.9060   20.5500 O   0  0  0  0  0  0  0  0  0  0  0  0
  -22.9410  -12.3600   22.3880 H   0  0  0  0  0  0  0  0  0  0  0  0
  -21.7010  -13.5710   22.2180 H   0  0  0  0  0  0  0  0  0  0  0  0
  -26.0410  -15.3640   20.1610 N   0  0  0  0  0  0  0  0  0  0  0  0
  -25.3180  -16.0630   20.3000 H   0  0  0  0  0  0  0  0  0  0  0  0
  -26.9050  -15.7550   19.8090 H   0  0  0  0  0  0  0  0  0  0  0  0
  1  4  1  0
  3  6  2  0
  4  2  2  0
  4 50  1  0
  5  3  1  0
  5  1  2  0
  6  9  1  0
  6  2  1  0
  7  5  1  0
  8  7  1  0
  9 11  1  0
 10 21  2  0
 11 16  1  0
 12 20  1  0
 12 22  1  0
 13 19  1  0
 13 15  1  0
 14 20  1  0
 15 14  1  0
 16 15  2  0
 17 18  1  0
 17 11  2  0
 18 13  2  0
 19 12  1  0
 20 10  1  0
 22 24  2  0
 23 22  1  0
 25 23  1  0
 26 35  2  0
 26 31  1  0
 27 23  1  0
 27 31  1  0
 28 27  1  0
 29 30  1  0
 29 28  1  0
 30 26  1  0
 31 32  2  0
 32 33  1  0
 34 33  2  0
 35 34  1  0
 36 10  1  0
 36 41  1  0
 36 37  1  0
 37 40  1  1
 37 38  1  0
 39 37  1  0
 41 44  1  0
 42 46  1  0
 42 41  1  0
 43 42  2  0
 46 45  1  0
 48 46  1  0
 48 49  1  0
 48 47  1  0
 51 50  1  0
 52 56  1  0
 54 52  1  0
 54 57  1  0
 55 53  1  0
 56 51  1  0
 56 53  1  0
 57 66  1  0
 57 55  1  0
 58 66  1  0
 59 64  1  0
 60 61  1  0
 60 59  1  0
 62 61  1  0
 62 71  1  0
 62 63  1  0
 64 58  1  0
 64 63  1  0
 65 58  2  0
 66 67  1  0
 68 69  2  0
 69 88  1  0
 70 69  1  0
 70 73  1  0
 71 72  1  0
 71 68  1  0
 72 70  2  0
 73 74  1  0
 74 75  2  0
 76 79  1  0
 76 75  1  0
 77 76  2  0
 78 77  1  0
 78 73  2  0
 79 80  1  0
 80 81  1  0
 81 82  2  0
 83 82  1  0
 83 87  1  0
 84 83  2  0
 85 80  2  0
 85 84  1  0
 86 85  1  0
 88 89  1  0
 89 92  1  0
 89 91  1  0
 90 88  2  0
 93 94  1  0
 93 68  1  0
 95 93  1  0
M  ISO  4   6 101   9 101  58 100  66 100
M  END
>  <TORSDO>  (11) 
F 20

>  <SCORE>  (11) 
-13.519

>  <name>  (11) 
10

>  <ligand_id>  (11) 
10

>  <original_smiles>  (11) 
[H]Oc1c([H])c(Oc2c([H])c([H])c3c(c2[H])C([H])([H])N(C(=O)C([H])(N([H])C(=O)C([H])(N([H])C([H])([H])[H])C([H])([H])[H])C(C([H])([H])[H])(C([H])([H])[H])C([H])([H])[H])C([H])(C(=O)N([H])C2([H])c4c([H])c([H])c([H])c([H])c4C([H])([H])C([H])([H])C2([H])[H])C3([H])[H])c([H])c(C([H])([H])C([H])([H])C2([H])C([H])([H])C([H])([H])C([H])(N([H])C(=O)N3C([H])([H])C([H])([H])C([H])([H])C([H])(n4nc(-c5c([H])c([H])c(Oc6c([H])c([H])c(F)c([H])c6F)c([H])c5[H])c(C(=O)N([H])[H])c4N([H])[H])C3([H])[H])C([H])([H])C2([H])[H])c1[H]

>  <smiles>  (11) 
[H]Oc1c([H])c(Oc2c([H])c([H])c3c(c2[H])C([H])([H])N(C(=O)C([H])(N([H])C(=O)C([H])(N([H])C([H])([H])[H])C([H])([H])[H])C(C([H])([H])[H])(C([H])([H])[H])C([H])([H])[H])C([H])(C(=O)N([H])C2([H])c4c([H])c([H])c([H])c([H])c4C([H])([H])C([H])([H])C2([H])[H])C3([H])[H])c([H])c(C([H])([H])C([H])([H])C2([H])C([H])([H])C([H])([H])C([H])(N([H])C(=O)N3C([H])([H])C([H])([H])C([H])([H])C([H])(n4nc(-c5c([H])c([H])c(Oc6c([H])c([H])c(F)c([H])c6F)c([H])c5[H])c(C(=O)N([H])[H])c4N([H])[H])C3([H])[H])C([H])([H])C2([H])[H])c1[H]

$$$$
11:0:0
     RDKit          3D

 88 97  0  0  1  0  0  0  0  0999 V2000
  -28.4320  -22.1190   21.8120 C   0  0  0  0  0  3  0  0  0  0  0  0
  -28.1230  -23.4240   21.2290 C   0  0  0  0  0  3  0  0  0  0  0  0
  -28.6290  -22.4320   19.1010 C   0  0  0  0  0  3  0  0  0  0  0  0
  -28.8060  -20.9520   21.0610 C   0  0  0  0  0  0  0  0  0  0  0  0
  -28.8690  -20.9130   19.6340 C   0  0  0  0  0  0  0  0  0  0  0  0
  -28.1970  -23.8210   19.8410 C   0  0  0  0  0  0  0  0  0  0  0  0
  -29.4010  -19.5630   21.1980 C   0  0  0  0  0  0  0  0  0  0  0  0
  -29.6820  -19.2060   19.6140 C   0  0  0  0  0  3  0  0  0  0  0  0
  -29.5750  -18.9190   22.2390 O   0  0  0  0  0  0  0  0  0  0  0  0
  -30.3630  -15.9810   19.5340 C   0  0  0  0  0  0  0  0  0  0  0  0
  -30.5580  -13.3610   18.8530 C   0  0  0  0  0  2  0  0  0  0  0  0
  -29.6240  -12.7750   17.7470 C   0  0  0  0  0  2  0  0  0  0  0  0
  -28.2700  -12.3570   18.3400 C   0  0  0  0  0  2  0  0  0  0  0  0
  -27.7610  -13.4340   19.3200 C   0  0  0  0  0  3  0  0  0  0  0  0
  -28.8360  -13.8950   20.3380 C   0  0  0  0  0  2  0  0  0  0  0  0
  -29.9090  -14.5700   19.5620 N   0  0  0  0  0  0  0  0  0  0  0  0
  -31.5910  -15.9200   19.3000 O   0  0  0  0  0  0  0  0  0  0  0  0
  -29.5630  -17.3650   19.5830 N   0  0  0  0  0  0  0  0  0  0  0  0
  -28.5980  -17.1360   19.7840 H   0  0  0  0  0  0  0  0  0  0  0  0
  -25.5080  -13.9640   20.3520 C   0  0  0  0  0  0  0  0  0  0  0  0
  -24.4760  -13.1840   20.7840 C   0  0  0  0  0  0  0  0  0  0  0  0
  -24.9020  -11.8310   20.6220 C   0  0  0  0  0  0  0  0  0  0  0  0
  -26.5020  -13.0860   19.9530 N   0  0  0  0  0  0  0  0  0  0  0  0
  -26.1570  -11.7910   20.1810 N   0  0  0  0  0  0  0  0  0  0  0  0
  -24.1640  -10.5750   20.8110 C   0  0  0  0  0  0  0  0  0  0  0  0
  -24.5290   -9.6450   21.8090 C   0  0  0  0  0  3  0  0  0  0  0  0
  -23.7910   -8.4550   21.9840 C   0  0  0  0  0  3  0  0  0  0  0  0
  -22.6680   -8.1860   21.1640 C   0  0  0  0  0  0  0  0  0  0  0  0
  -22.3230   -9.1040   20.1580 C   0  0  0  0  0  3  0  0  0  0  0  0
  -23.0610  -10.2860   19.9790 C   0  0  0  0  0  3  0  0  0  0  0  0
  -21.9040   -7.0460   21.2460 O   0  0  0  0  0  0  0  0  0  0  0  0
  -21.5950   -6.4780   22.4580 C   0  0  0  0  0  0  0  0  0  0  0  0
  -20.8840   -7.1830   23.4520 C   0  0  0  0  0  3  0  0  0  0  0  0
  -20.5220   -6.5390   24.6510 C   0  0  0  0  0  3  0  0  0  0  0  0
  -20.8620   -5.1880   24.8550 C   0  0  0  0  0  0  0  0  0  0  0  0
  -21.5650   -4.4790   23.8650 C   0  0  0  0  0  3  0  0  0  0  0  0
  -21.9270   -5.1220   22.6660 C   0  0  0  0  0  0  0  0  0  0  0  0
  -22.5860   -4.4330   21.7050 F   0  0  0  0  0  0  0  0  0  0  0  0
  -20.5110   -4.5630   26.0020 F   0  0  0  0  0  0  0  0  0  0  0  0
  -23.1240  -13.6730   21.2140 C   0  0  0  0  0  0  0  0  0  0  0  0
  -22.4670  -12.9570   22.1140 N   0  0  0  0  0  0  0  0  0  0  0  0
  -22.6640  -14.7280   20.7800 O   0  0  0  0  0  0  0  0  0  0  0  0
  -22.8410  -12.1010   22.4890 H   0  0  0  0  0  0  0  0  0  0  0  0
  -21.5620  -13.2660   22.4380 H   0  0  0  0  0  0  0  0  0  0  0  0
  -25.6840  -15.3400   20.2300 N   0  0  0  0  0  0  0  0  0  0  0  0
  -24.9360  -15.9940   20.4290 H   0  0  0  0  0  0  0  0  0  0  0  0
  -26.4580  -15.7600   19.7340 H   0  0  0  0  0  0  0  0  0  0  0  0
  -28.0760  -25.4450   19.5000 O   0  0  0  0  0  0  0  0  0  0  0  0
  -24.5630  -31.6570   22.9080 C   0  0  0  0  0  0  0  0  0  0  0  0
  -27.0740  -26.6650   19.6490 C   0  0  0  0  0  0  0  0  0  0  0  0
  -23.3370  -30.2700   21.2910 C   0  0  0  0  0  3  0  0  0  0  0  0
  -24.7660  -28.7050   19.7540 C   0  0  0  0  0  0  0  0  0  0  0  0
  -25.9050  -30.4830   21.0490 C   0  0  0  0  0  2  0  0  0  0  0  0
  -25.9840  -29.0560   20.3520 C   0  0  0  0  0  0  0  0  0  0  0  0
  -27.1180  -28.0710   20.2610 C   0  0  0  0  0  3  0  0  0  0  0  0
  -25.8150  -26.5630   18.9970 C   0  0  0  0  0  3  0  0  0  0  0  0
  -24.7280  -27.4880   19.0500 C   0  0  0  0  0  3  0  0  0  0  0  0
  -23.5370  -29.6230   19.8860 C   0  0  0  0  0  2  0  0  0  0  0  0
  -24.6250  -30.8380   21.8010 N   0  0  0  0  0  0  0  0  0  0  0  0
  -23.4880  -31.9060   23.4820 O   0  0  0  0  0  0  0  0  0  0  0  0
  -22.7030  -29.2420   22.2660 C   0  0  0  0  0  0  0  0  0  0  0  0
  -21.3740  -29.0220   22.1900 N   0  0  0  0  0  0  0  0  0  0  0  0
  -23.4200  -28.6370   23.0640 O   0  0  0  0  0  0  0  0  0  0  0  0
  -20.8410  -29.5690   21.5310 H   0  0  0  0  0  0  0  0  0  0  0  0
  -18.0870  -27.5730   22.7600 C   0  0  0  0  0  0  0  0  0  0  0  0
  -20.6280  -28.0250   22.9700 C   0  0  0  0  0  3  0  0  0  0  0  0
  -20.8160  -26.6040   22.3840 C   0  0  0  0  0  2  0  0  0  0  0  0
  -19.7180  -26.2120   21.3900 C   0  0  0  0  0  2  0  0  0  0  0  0
  -18.3450  -26.2490   22.0640 C   0  0  0  0  0  2  0  0  0  0  0  0
  -19.1560  -28.4160   23.1710 C   0  0  0  0  0  0  0  0  0  0  0  0
  -18.8530  -29.6480   23.7900 C   0  0  0  0  0  3  0  0  0  0  0  0
  -17.5170  -30.0440   23.9960 C   0  0  0  0  0  3  0  0  0  0  0  0
  -16.4660  -29.2040   23.5920 C   0  0  0  0  0  3  0  0  0  0  0  0
  -16.7510  -27.9690   22.9840 C   0  0  0  0  0  3  0  0  0  0  0  0
  -25.8330  -32.3350   23.5050 C   0  0  0  0  0  3  0  0  0  0  0  0
  -25.4660  -33.6900   23.9690 N   0  0  0  0  0  0  0  0  0  0  0  0
  -25.7300  -34.8280   23.3110 C   0  0  0  0  0  0  0  0  0  0  0  0
  -26.3620  -34.8490   22.2510 O   0  0  0  0  0  0  0  0  0  0  0  0
  -24.8890  -33.7420   24.7950 H   0  0  0  0  0  0  0  0  0  0  0  0
  -23.9270  -36.5880   23.2010 C   0  0  0  0  0  1  0  0  0  0  0  0
  -25.2140  -36.1480   23.9200 C   0  0  0  0  0  3  0  0  0  0  0  0
  -27.3420  -37.0440   24.7620 C   0  0  0  0  0  1  0  0  0  0  0  0
  -26.2030  -37.2490   23.8710 N   0  0  0  0  0  0  0  0  0  0  0  0
  -25.7690  -38.1340   24.1140 H   0  0  0  0  0  0  0  0  0  0  0  0
  -26.4640  -31.5150   24.7020 C   0  0  1  0  0  0  0  0  0  0  0  0
  -25.4470  -31.1400   25.8050 C   0  0  0  0  0  1  0  0  0  0  0  0
  -27.1090  -30.2020   24.2010 C   0  0  0  0  0  1  0  0  0  0  0  0
  -27.6020  -32.3360   25.3550 C   0  0  0  0  0  1  0  0  0  0  0  0
  2  1  1  0
  3  5  2  0
  3  6  1  0
  4  7  1  0
  4  1  2  0
  5  4  1  0
  6  2  2  0
  7  9  2  0
  8 18  1  0
  8  5  1  0
  8  7  1  0
 10 16  1  0
 10 18  1  0
 11 16  1  0
 12 13  1  0
 12 11  1  0
 14 13  1  0
 14 23  1  0
 14 15  1  0
 16 15  1  0
 17 10  2  0
 18 19  1  0
 20 21  2  0
 21 40  1  0
 22 21  1  0
 22 25  1  0
 23 24  1  0
 23 20  1  0
 24 22  2  0
 25 26  1  0
 26 27  2  0
 28 31  1  0
 28 27  1  0
 29 28  2  0
 30 29  1  0
 30 25  2  0
 31 32  1  0
 32 37  2  0
 32 33  1  0
 33 34  2  0
 34 35  1  0
 35 39  1  0
 36 35  2  0
 37 36  1  0
 38 37  1  0
 40 41  1  0
 41 44  1  0
 41 43  1  0
 42 40  2  0
 45 20  1  0
 45 46  1  0
 47 45  1  0
 48 50  1  0
 48  6  1  0
 49 60  2  0
 50 55  1  0
 51 59  1  0
 51 61  1  0
 52 58  1  0
 52 54  1  0
 53 59  1  0
 54 53  1  0
 55 54  2  0
 56 57  1  0
 56 50  2  0
 57 52  2  0
 58 51  1  0
 59 49  1  0
 61 63  2  0
 62 61  1  0
 64 62  1  0
 65 74  2  0
 65 70  1  0
 66 62  1  0
 66 70  1  0
 67 66  1  0
 68 69  1  0
 68 67  1  0
 69 65  1  0
 70 71  2  0
 71 72  1  0
 73 72  2  0
 74 73  1  0
 75 49  1  0
 75 76  1  0
 75 85  1  0
 76 79  1  0
 77 81  1  0
 77 76  1  0
 78 77  2  0
 81 80  1  0
 83 81  1  0
 83 84  1  0
 83 82  1  0
 85 88  1  1
 85 86  1  0
 87 85  1  0
M  ISO  4   6 101  10 100  18 100  48 101
M  END
>  <TORSDO>  (12) 
F 16

>  <SCORE>  (12) 
-14.060

>  <name>  (12) 
11

>  <ligand_id>  (12) 
11

>  <original_smiles>  (12) 
[H]c1c([H])c([H])c2c(c1[H])C([H])([H])C([H])([H])C([H])([H])C2([H])N([H])C(=O)C1([H])N(C(=O)C([H])(N([H])C(=O)C([H])(N([H])C([H])([H])[H])C([H])([H])[H])C(C([H])([H])[H])(C([H])([H])[H])C([H])([H])[H])C([H])([H])c2c([H])c(Oc3c([H])c([H])c4c(c3[H])C([H])(N([H])C(=O)N3C([H])([H])C([H])([H])C([H])([H])C([H])(n5nc(-c6c([H])c([H])c(Oc7c([H])c([H])c(F)c([H])c7F)c([H])c6[H])c(C(=O)N([H])[H])c5N([H])[H])C3([H])[H])C4=O)c([H])c([H])c2C1([H])[H]

>  <smiles>  (12) 
[H]c1c([H])c([H])c2c(c1[H])C([H])([H])C([H])([H])C([H])([H])C2([H])N([H])C(=O)C1([H])N(C(=O)C([H])(N([H])C(=O)C([H])(N([H])C([H])([H])[H])C([H])([H])[H])C(C([H])([H])[H])(C([H])([H])[H])C([H])([H])[H])C([H])([H])c2c([H])c(Oc3c([H])c([H])c4c(c3[H])C([H])(N([H])C(=O)N3C([H])([H])C([H])([H])C([H])([H])C([H])(n5nc(-c6c([H])c([H])c(Oc7c([H])c([H])c(F)c([H])c7F)c([H])c6[H])c(C(=O)N([H])[H])c5N([H])[H])C3([H])[H])C4=O)c([H])c([H])c2C1([H])[H]

$$$$
12:0:0
     RDKit          3D

 91 99  0  0  1  0  0  0  0  0999 V2000
  -28.7930  -21.0830   20.0620 C   0  0  0  0  0  0  0  0  0  0  0  0
  -29.0170  -22.3780   20.5100 N   0  0  0  0  0  0  0  0  0  0  0  0
  -27.9230  -20.8740   19.2140 O   0  0  0  0  0  0  0  0  0  0  0  0
  -29.6840  -22.4560   21.2650 H   0  0  0  0  0  0  0  0  0  0  0  0
  -31.7600  -19.0240   21.4770 C   0  0  0  0  0  3  0  0  0  0  0  0
  -30.9110  -20.0940   21.1230 C   0  0  0  0  0  3  0  0  0  0  0  0
  -31.3870  -17.6780   21.2760 C   0  0  0  0  0  3  0  0  0  0  0  0
  -29.2740  -18.4590   20.3660 C   0  0  0  0  0  3  0  0  0  0  0  0
  -29.6390  -19.8630   20.5550 C   0  0  0  0  0  0  0  0  0  0  0  0
  -30.1380  -17.3320   20.7120 C   0  0  0  0  0  0  0  0  0  0  0  0
  -30.5650  -14.7560   20.3870 C   0  0  0  0  0  0  0  0  0  0  0  0
  -30.3540  -12.4850   19.3540 C   0  0  0  0  0  2  0  0  0  0  0  0
  -29.4070  -12.5720   18.1370 C   0  0  0  0  0  2  0  0  0  0  0  0
  -27.9400  -12.4020   18.5770 C   0  0  0  0  0  2  0  0  0  0  0  0
  -27.5760  -13.2730   19.8100 C   0  0  0  0  0  3  0  0  0  0  0  0
  -28.6460  -13.1740   20.9190 C   0  0  0  0  0  2  0  0  0  0  0  0
  -29.9330  -13.5340   20.3110 N   0  0  0  0  0  0  0  0  0  0  0  0
  -31.7560  -14.8410   20.0730 O   0  0  0  0  0  0  0  0  0  0  0  0
  -29.7790  -15.8930   20.5680 N   0  0  0  0  0  0  0  0  0  0  0  0
  -28.7920  -15.6950   20.6010 H   0  0  0  0  0  0  0  0  0  0  0  0
  -25.1940  -13.8540   20.5620 C   0  0  0  0  0  0  0  0  0  0  0  0
  -24.1330  -13.0760   20.9380 C   0  0  0  0  0  0  0  0  0  0  0  0
  -24.6000  -11.7260   20.8980 C   0  0  0  0  0  0  0  0  0  0  0  0
  -26.2380  -12.9790   20.3130 N   0  0  0  0  0  0  0  0  0  0  0  0
  -25.8870  -11.6930   20.5780 N   0  0  0  0  0  0  0  0  0  0  0  0
  -23.8770  -10.4620   21.0890 C   0  0  0  0  0  0  0  0  0  0  0  0
  -24.3260   -9.4830   22.0020 C   0  0  0  0  0  3  0  0  0  0  0  0
  -23.6030   -8.2830   22.1810 C   0  0  0  0  0  3  0  0  0  0  0  0
  -22.4150   -8.0550   21.4460 C   0  0  0  0  0  0  0  0  0  0  0  0
  -21.9840   -9.0230   20.5210 C   0  0  0  0  0  3  0  0  0  0  0  0
  -22.7090  -10.2130   20.3400 C   0  0  0  0  0  3  0  0  0  0  0  0
  -21.6600   -6.9110   21.5350 O   0  0  0  0  0  0  0  0  0  0  0  0
  -21.6450   -6.1470   22.6740 C   0  0  0  0  0  0  0  0  0  0  0  0
  -21.2650   -6.6800   23.9250 C   0  0  0  0  0  3  0  0  0  0  0  0
  -21.1970   -5.8430   25.0570 C   0  0  0  0  0  3  0  0  0  0  0  0
  -21.4980   -4.4730   24.9390 C   0  0  0  0  0  0  0  0  0  0  0  0
  -21.8700   -3.9380   23.6930 C   0  0  0  0  0  3  0  0  0  0  0  0
  -21.9410   -4.7720   22.5630 C   0  0  0  0  0  0  0  0  0  0  0  0
  -22.2800   -4.2490   21.3610 F   0  0  0  0  0  0  0  0  0  0  0  0
  -21.4250   -3.6660   26.0230 F   0  0  0  0  0  0  0  0  0  0  0  0
  -22.7370  -13.5500   21.2210 C   0  0  0  0  0  0  0  0  0  0  0  0
  -22.0160  -12.8490   22.0880 N   0  0  0  0  0  0  0  0  0  0  0  0
  -22.2930  -14.5760   20.7070 O   0  0  0  0  0  0  0  0  0  0  0  0
  -22.3870  -12.0200   22.5280 H   0  0  0  0  0  0  0  0  0  0  0  0
  -21.0790  -13.1470   22.3180 H   0  0  0  0  0  0  0  0  0  0  0  0
  -25.3500  -15.2260   20.3840 N   0  0  0  0  0  0  0  0  0  0  0  0
  -24.5700  -15.8690   20.4770 H   0  0  0  0  0  0  0  0  0  0  0  0
  -26.1750  -15.6650   19.9980 H   0  0  0  0  0  0  0  0  0  0  0  0
  -28.6200  -23.7090   19.8510 C   0  0  0  0  0  2  0  0  0  0  0  0
  -28.2330  -25.0180   20.7310 C   0  0  0  0  0  2  0  0  0  0  0  0
  -28.3410  -26.4230   20.1970 O   0  0  0  0  0  0  0  0  0  0  0  0
  -24.6110  -31.8810   23.2350 C   0  0  0  0  0  0  0  0  0  0  0  0
  -27.2230  -27.2820   20.2030 C   0  0  0  0  0  0  0  0  0  0  0  0
  -23.4070  -30.4730   21.6010 C   0  0  0  0  0  3  0  0  0  0  0  0
  -24.8590  -28.9090   20.1820 C   0  0  0  0  0  0  0  0  0  0  0  0
  -25.9470  -30.7900   21.4110 C   0  0  0  0  0  2  0  0  0  0  0  0
  -26.0300  -29.4030   20.7730 C   0  0  0  0  0  0  0  0  0  0  0  0
  -27.2180  -28.6040   20.7650 C   0  0  0  0  0  3  0  0  0  0  0  0
  -26.0300  -26.8470   19.5930 C   0  0  0  0  0  3  0  0  0  0  0  0
  -24.8630  -27.6400   19.5810 C   0  0  0  0  0  3  0  0  0  0  0  0
  -23.6220  -29.7860   20.2260 C   0  0  0  0  0  2  0  0  0  0  0  0
  -24.6750  -31.0670   22.1390 N   0  0  0  0  0  0  0  0  0  0  0  0
  -23.5280  -32.1590   23.7710 O   0  0  0  0  0  0  0  0  0  0  0  0
  -22.7450  -29.4630   22.5690 C   0  0  0  0  0  0  0  0  0  0  0  0
  -21.4190  -29.2830   22.4440 N   0  0  0  0  0  0  0  0  0  0  0  0
  -23.4240  -28.8420   23.3900 O   0  0  0  0  0  0  0  0  0  0  0  0
  -20.9280  -29.8350   21.7540 H   0  0  0  0  0  0  0  0  0  0  0  0
  -18.0450  -28.0760   22.9460 C   0  0  0  0  0  0  0  0  0  0  0  0
  -20.6030  -28.3460   23.2190 C   0  0  0  0  0  3  0  0  0  0  0  0
  -20.7100  -26.9120   22.6500 C   0  0  0  0  0  2  0  0  0  0  0  0
  -19.6110  -26.5810   21.6360 C   0  0  0  0  0  2  0  0  0  0  0  0
  -18.2280  -26.7240   22.2770 C   0  0  0  0  0  2  0  0  0  0  0  0
  -19.1600  -28.8440   23.3750 C   0  0  0  0  0  0  0  0  0  0  0  0
  -18.9350  -30.1080   23.9600 C   0  0  0  0  0  3  0  0  0  0  0  0
  -17.6280  -30.6050   24.1240 C   0  0  0  0  0  3  0  0  0  0  0  0
  -16.5270  -29.8320   23.7140 C   0  0  0  0  0  3  0  0  0  0  0  0
  -16.7370  -28.5700   23.1310 C   0  0  0  0  0  3  0  0  0  0  0  0
  -25.8930  -32.5190   23.8540 C   0  0  0  0  0  3  0  0  0  0  0  0
  -26.4140  -31.7500   25.1310 C   0  0  1  0  0  0  0  0  0  0  0  0
  -25.3230  -31.5120   26.2020 C   0  0  0  0  0  1  0  0  0  0  0  0
  -26.9960  -30.3730   24.7390 C   0  0  0  0  0  1  0  0  0  0  0  0
  -27.5680  -32.5440   25.7880 C   0  0  0  0  0  1  0  0  0  0  0  0
  -25.5810  -33.9170   24.1860 N   0  0  0  0  0  0  0  0  0  0  0  0
  -25.9090  -34.9720   23.4270 C   0  0  0  0  0  0  0  0  0  0  0  0
  -26.5720  -34.8710   22.3920 O   0  0  0  0  0  0  0  0  0  0  0  0
  -24.9930  -34.0700   24.9920 H   0  0  0  0  0  0  0  0  0  0  0  0
  -24.1760  -36.7620   23.0840 C   0  0  0  0  0  1  0  0  0  0  0  0
  -25.4220  -36.3600   23.8880 C   0  0  0  0  0  3  0  0  0  0  0  0
  -27.5590  -37.2470   24.7080 C   0  0  0  0  0  1  0  0  0  0  0  0
  -26.4520  -37.4150   23.7700 N   0  0  0  0  0  0  0  0  0  0  0  0
  -26.0450  -38.3340   23.9210 H   0  0  0  0  0  0  0  0  0  0  0  0
  1  2  1  0
  1  9  1  0
  2  4  1  0
  3  1  2  0
  6  5  2  0
  7  5  1  0
  8  9  2  0
  8 10  1  0
  9  6  1  0
 10  7  2  0
 11 19  1  0
 12 17  1  0
 13 14  1  0
 13 12  1  0
 15 14  1  0
 15 24  1  0
 15 16  1  0
 17 11  1  0
 17 16  1  0
 18 11  2  0
 19 20  1  0
 19 10  1  0
 21 22  2  0
 22 41  1  0
 23 22  1  0
 23 26  1  0
 24 21  1  0
 24 25  1  0
 25 23  2  0
 26 27  1  0
 27 28  2  0
 29 32  1  0
 29 28  1  0
 30 29  2  0
 31 30  1  0
 31 26  2  0
 32 33  1  0
 33 34  1  0
 34 35  2  0
 36 35  1  0
 36 40  1  0
 37 36  2  0
 38 33  2  0
 38 37  1  0
 39 38  1  0
 41 42  1  0
 42 45  1  0
 42 44  1  0
 43 41  2  0
 46 47  1  0
 46 21  1  0
 48 46  1  0
 49  2  1  0
 49 50  1  0
 51 53  1  0
 51 50  1  0
 52 63  2  0
 53 58  1  0
 54 62  1  0
 54 64  1  0
 55 61  1  0
 55 57  1  0
 56 62  1  0
 57 56  1  0
 58 57  2  0
 59 53  2  0
 60 59  1  0
 60 55  2  0
 61 54  1  0
 62 52  1  0
 64 66  2  0
 65 64  1  0
 67 65  1  0
 68 77  2  0
 68 73  1  0
 69 65  1  0
 69 73  1  0
 70 69  1  0
 71 72  1  0
 71 70  1  0
 72 68  1  0
 73 74  2  0
 74 75  1  0
 76 75  2  0
 77 76  1  0
 78 52  1  0
 78 83  1  0
 78 79  1  0
 79 82  1  1
 79 80  1  0
 81 79  1  0
 83 86  1  0
 84 88  1  0
 84 83  1  0
 85 84  2  0
 88 87  1  0
 90 88  1  0
 90 91  1  0
 90 89  1  0
M  ISO  4  11 100  19 100  50 101  51 101
M  END
>  <TORSDO>  (13) 
F 19

>  <SCORE>  (13) 
-14.451

>  <name>  (13) 
12

>  <ligand_id>  (13) 
12

>  <original_smiles>  (13) 
[H]c1c([H])c(C(=O)N([H])C([H])([H])C([H])([H])Oc2c([H])c([H])c3c(c2[H])C([H])([H])N(C(=O)C([H])(N([H])C(=O)C([H])(N([H])C([H])([H])[H])C([H])([H])[H])C(C([H])([H])[H])(C([H])([H])[H])C([H])([H])[H])C([H])(C(=O)N([H])C2([H])c4c([H])c([H])c([H])c([H])c4C([H])([H])C([H])([H])C2([H])[H])C3([H])[H])c([H])c(N([H])C(=O)N2C([H])([H])C([H])([H])C([H])([H])C([H])(n3nc(-c4c([H])c([H])c(Oc5c([H])c([H])c(F)c([H])c5F)c([H])c4[H])c(C(=O)N([H])[H])c3N([H])[H])C2([H])[H])c1[H]

>  <smiles>  (13) 
[H]c1c([H])c(C(=O)N([H])C([H])([H])C([H])([H])Oc2c([H])c([H])c3c(c2[H])C([H])([H])N(C(=O)C([H])(N([H])C(=O)C([H])(N([H])C([H])([H])[H])C([H])([H])[H])C(C([H])([H])[H])(C([H])([H])[H])C([H])([H])[H])C([H])(C(=O)N([H])C2([H])c4c([H])c([H])c([H])c([H])c4C([H])([H])C([H])([H])C2([H])[H])C3([H])[H])c([H])c(N([H])C(=O)N2C([H])([H])C([H])([H])C([H])([H])C([H])(n3nc(-c4c([H])c([H])c(Oc5c([H])c([H])c(F)c([H])c5F)c([H])c4[H])c(C(=O)N([H])[H])c3N([H])[H])C2([H])[H])c1[H]

$$$$
13:0:0
     RDKit          3D

 92101  0  0  1  0  0  0  0  0999 V2000
  -28.6680  -22.1840   18.6880 C   0  0  0  0  0  3  0  0  0  0  0  0
  -28.5380  -23.4940   20.7380 C   0  0  0  0  0  3  0  0  0  0  0  0
  -28.4950  -23.4100   18.0110 C   0  0  0  0  0  0  0  0  0  0  0  0
  -28.3550  -24.6570   18.6430 C   0  0  0  0  0  0  0  0  0  0  0  0
  -28.7470  -22.1420   20.0930 C   0  0  0  0  0  0  0  0  0  0  0  0
  -28.2970  -24.8180   20.0530 C   0  0  0  0  0  0  0  0  0  0  0  0
  -28.5380  -23.5460   16.5100 C   0  0  0  0  0  2  0  0  0  0  0  0
  -28.4030  -25.7590   17.6050 C   0  0  0  0  0  2  0  0  0  0  0  0
  -28.2330  -25.0320   16.2570 C   0  0  0  0  0  2  0  0  0  0  0  0
  -28.2340  -26.2010   20.6060 O   0  0  0  0  0  0  0  0  0  0  0  0
  -24.5790  -32.0300   23.3980 C   0  0  0  0  0  0  0  0  0  0  0  0
  -27.1710  -27.1940   20.5120 C   0  0  0  0  0  0  0  0  0  0  0  0
  -23.3990  -30.6060   21.7730 C   0  0  0  0  0  3  0  0  0  0  0  0
  -24.8550  -28.9820   20.4130 C   0  0  0  0  0  0  0  0  0  0  0  0
  -25.9600  -30.8390   21.6460 C   0  0  0  0  0  2  0  0  0  0  0  0
  -26.0340  -29.4290   21.0230 C   0  0  0  0  0  0  0  0  0  0  0  0
  -27.1910  -28.5530   21.0480 C   0  0  0  0  0  3  0  0  0  0  0  0
  -25.9420  -26.8390   19.9140 C   0  0  0  0  0  3  0  0  0  0  0  0
  -24.8230  -27.6990   19.8470 C   0  0  0  0  0  3  0  0  0  0  0  0
  -23.6390  -29.8970   20.4150 C   0  0  0  0  0  2  0  0  0  0  0  0
  -24.6660  -31.1830   22.3270 N   0  0  0  0  0  0  0  0  0  0  0  0
  -23.4860  -32.3340   23.9000 O   0  0  0  0  0  0  0  0  0  0  0  0
  -22.6950  -29.6270   22.7470 C   0  0  0  0  0  0  0  0  0  0  0  0
  -21.3800  -29.4140   22.5630 N   0  0  0  0  0  0  0  0  0  0  0  0
  -23.3380  -29.0600   23.6350 O   0  0  0  0  0  0  0  0  0  0  0  0
  -20.9170  -29.9210   21.8210 H   0  0  0  0  0  0  0  0  0  0  0  0
  -18.0170  -28.1140   22.9280 C   0  0  0  0  0  0  0  0  0  0  0  0
  -20.5430  -28.4920   23.3350 C   0  0  0  0  0  3  0  0  0  0  0  0
  -20.7320  -27.0330   22.8550 C   0  0  0  0  0  2  0  0  0  0  0  0
  -19.7090  -26.6100   21.7960 C   0  0  0  0  0  2  0  0  0  0  0  0
  -18.2850  -26.7370   22.3450 C   0  0  0  0  0  2  0  0  0  0  0  0
  -19.0780  -28.9440   23.3800 C   0  0  0  0  0  0  0  0  0  0  0  0
  -18.7740  -30.2260   23.8860 C   0  0  0  0  0  3  0  0  0  0  0  0
  -17.4430  -30.6810   23.9470 C   0  0  0  0  0  3  0  0  0  0  0  0
  -16.3970  -29.8490   23.5110 C   0  0  0  0  0  3  0  0  0  0  0  0
  -16.6840  -28.5680   23.0070 C   0  0  0  0  0  3  0  0  0  0  0  0
  -25.8480  -32.6750   24.0340 C   0  0  0  0  0  3  0  0  0  0  0  0
  -25.5410  -34.0880   24.3170 N   0  0  0  0  0  0  0  0  0  0  0  0
  -25.8790  -35.1170   23.5290 C   0  0  0  0  0  0  0  0  0  0  0  0
  -26.5480  -34.9780   22.5010 O   0  0  0  0  0  0  0  0  0  0  0  0
  -24.9470  -34.2680   25.1120 H   0  0  0  0  0  0  0  0  0  0  0  0
  -24.1560  -36.9100   23.1320 C   0  0  0  0  0  1  0  0  0  0  0  0
  -25.4020  -36.5240   23.9450 C   0  0  0  0  0  3  0  0  0  0  0  0
  -27.5400  -37.4400   24.7390 C   0  0  0  0  0  1  0  0  0  0  0  0
  -26.4390  -37.5690   23.7880 N   0  0  0  0  0  0  0  0  0  0  0  0
  -26.0350  -38.4950   23.8960 H   0  0  0  0  0  0  0  0  0  0  0  0
  -26.3210  -31.9430   25.3500 C   0  0  1  0  0  0  0  0  0  0  0  0
  -25.1900  -31.7350   26.3860 C   0  0  0  0  0  1  0  0  0  0  0  0
  -26.9230  -30.5570   25.0270 C   0  0  0  0  0  1  0  0  0  0  0  0
  -27.4430  -32.7630   26.0310 C   0  0  0  0  0  1  0  0  0  0  0  0
  -29.1980  -20.6700   20.7560 C   0  0  0  0  0  2  0  0  0  0  0  0
  -28.9660  -19.0790   20.1420 C   0  0  0  0  0  2  0  0  0  0  0  0
  -30.4370  -15.1500   20.1680 C   0  0  0  0  0  0  0  0  0  0  0  0
  -30.3220  -12.8010   19.1790 C   0  0  0  0  0  2  0  0  0  0  0  0
  -29.3440  -12.7430   17.9820 C   0  0  0  0  0  2  0  0  0  0  0  0
  -27.9050  -12.4920   18.4710 C   0  0  0  0  0  2  0  0  0  0  0  0
  -27.5240  -13.3830   19.6820 C   0  0  0  0  0  3  0  0  0  0  0  0
  -28.6250  -13.4160   20.7620 C   0  0  0  0  0  2  0  0  0  0  0  0
  -29.8480  -13.8810   20.0960 N   0  0  0  0  0  0  0  0  0  0  0  0
  -31.6460  -15.1810   19.9140 O   0  0  0  0  0  0  0  0  0  0  0  0
  -29.9830  -17.7520   20.3340 C   0  0  0  0  0  0  0  0  0  0  0  0
  -29.6480  -16.3530   20.2770 N   0  0  0  0  0  0  0  0  0  0  0  0
  -31.1630  -18.0630   20.5130 O   0  0  0  0  0  0  0  0  0  0  0  0
  -28.6560  -16.1790   20.2690 H   0  0  0  0  0  0  0  0  0  0  0  0
  -25.1720  -13.8950   20.5390 C   0  0  0  0  0  0  0  0  0  0  0  0
  -24.1370  -13.0910   20.9320 C   0  0  0  0  0  0  0  0  0  0  0  0
  -24.6240  -11.7500   20.8470 C   0  0  0  0  0  0  0  0  0  0  0  0
  -26.2180  -13.0430   20.2320 N   0  0  0  0  0  0  0  0  0  0  0  0
  -25.9020  -11.7460   20.4850 N   0  0  0  0  0  0  0  0  0  0  0  0
  -23.9250  -10.4710   21.0320 C   0  0  0  0  0  0  0  0  0  0  0  0
  -24.3740   -9.5120   21.9670 C   0  0  0  0  0  3  0  0  0  0  0  0
  -23.6710   -8.3000   22.1400 C   0  0  0  0  0  3  0  0  0  0  0  0
  -22.5090   -8.0370   21.3780 C   0  0  0  0  0  0  0  0  0  0  0  0
  -22.0780   -8.9860   20.4330 C   0  0  0  0  0  3  0  0  0  0  0  0
  -22.7820  -10.1890   20.2570 C   0  0  0  0  0  3  0  0  0  0  0  0
  -21.7790   -6.8760   21.4600 O   0  0  0  0  0  0  0  0  0  0  0  0
  -21.7120   -6.1490   22.6210 C   0  0  0  0  0  0  0  0  0  0  0  0
  -21.1770   -6.6920   23.8100 C   0  0  0  0  0  3  0  0  0  0  0  0
  -21.0610   -5.8890   24.9620 C   0  0  0  0  0  3  0  0  0  0  0  0
  -21.4710   -4.5420   24.9260 C   0  0  0  0  0  0  0  0  0  0  0  0
  -21.9990   -3.9980   23.7420 C   0  0  0  0  0  3  0  0  0  0  0  0
  -22.1160   -4.7980   22.5930 C   0  0  0  0  0  0  0  0  0  0  0  0
  -22.6060   -4.2630   21.4490 F   0  0  0  0  0  0  0  0  0  0  0  0
  -21.3530   -3.7670   26.0290 F   0  0  0  0  0  0  0  0  0  0  0  0
  -22.7440  -13.5370   21.2650 C   0  0  0  0  0  0  0  0  0  0  0  0
  -22.0580  -12.8090   22.1370 N   0  0  0  0  0  0  0  0  0  0  0  0
  -22.2730  -14.5690   20.7870 O   0  0  0  0  0  0  0  0  0  0  0  0
  -22.4530  -11.9740   22.5460 H   0  0  0  0  0  0  0  0  0  0  0  0
  -21.1250  -13.0910   22.4030 H   0  0  0  0  0  0  0  0  0  0  0  0
  -25.3000  -15.2720   20.3890 N   0  0  0  0  0  0  0  0  0  0  0  0
  -24.5110  -15.8940   20.5330 H   0  0  0  0  0  0  0  0  0  0  0  0
  -26.0970  -15.7380   19.9800 H   0  0  0  0  0  0  0  0  0  0  0  0
  1  5  1  0
  3  4  1  0
  3  1  2  0
  4  6  2  0
  5  2  2  0
  5 51  1  0
  6 10  1  0
  6  2  1  0
  7  3  1  0
  8  4  1  0
  9  7  1  0
  9  8  1  0
 11 22  2  0
 12 10  1  0
 12 17  1  0
 13 21  1  0
 13 23  1  0
 14 20  1  0
 14 16  1  0
 15 21  1  0
 16 17  2  0
 16 15  1  0
 18 12  2  0
 19 18  1  0
 19 14  2  0
 20 13  1  0
 21 11  1  0
 23 25  2  0
 24 23  1  0
 26 24  1  0
 27 36  2  0
 27 32  1  0
 28 24  1  0
 28 32  1  0
 29 28  1  0
 30 31  1  0
 30 29  1  0
 31 27  1  0
 32 33  2  0
 33 34  1  0
 35 34  2  0
 36 35  1  0
 37 11  1  0
 37 38  1  0
 37 47  1  0
 38 41  1  0
 39 43  1  0
 39 38  1  0
 40 39  2  0
 43 42  1  0
 45 46  1  0
 45 43  1  0
 45 44  1  0
 47 50  1  1
 47 48  1  0
 49 47  1  0
 52 61  1  0
 52 51  1  0
 53 62  1  0
 54 59  1  0
 55 56  1  0
 55 54  1  0
 57 56  1  0
 57 68  1  0
 57 58  1  0
 59 53  1  0
 59 58  1  0
 60 53  2  0
 61 63  2  0
 62 61  1  0
 64 62  1  0
 65 66  2  0
 66 85  1  0
 67 66  1  0
 67 70  1  0
 68 69  1  0
 68 65  1  0
 69 67  2  0
 70 71  1  0
 71 72  2  0
 73 76  1  0
 73 72  1  0
 74 73  2  0
 75 74  1  0
 75 70  2  0
 76 77  1  0
 77 78  1  0
 78 79  2  0
 80 79  1  0
 80 84  1  0
 81 80  2  0
 82 77  2  0
 82 81  1  0
 83 82  1  0
 85 86  1  0
 86 89  1  0
 86 88  1  0
 87 85  2  0
 90 91  1  0
 90 65  1  0
 92 90  1  0
M  ISO  4   6 101  10 101  53 100  62 100
M  END
>  <TORSDO>  (14) 
F 18

>  <SCORE>  (14) 
-15.044

>  <name>  (14) 
13

>  <ligand_id>  (14) 
13

>  <original_smiles>  (14) 
[H]c1c([H])c([H])c2c(c1[H])C([H])([H])C([H])([H])C([H])([H])C2([H])N([H])C(=O)C1([H])N(C(=O)C([H])(N([H])C(=O)C([H])(N([H])C([H])([H])[H])C([H])([H])[H])C(C([H])([H])[H])(C([H])([H])[H])C([H])([H])[H])C([H])([H])c2c([H])c(Oc3c([H])c(C([H])([H])C([H])([H])C(=O)N([H])C(=O)N4C([H])([H])C([H])([H])C([H])([H])C([H])(n5nc(-c6c([H])c([H])c(Oc7c([H])c([H])c(F)c([H])c7F)c([H])c6[H])c(C(=O)N([H])[H])c5N([H])[H])C4([H])[H])c([H])c4c3C([H])([H])C([H])([H])C4([H])[H])c([H])c([H])c2C1([H])[H]

>  <smiles>  (14) 
[H]c1c([H])c([H])c2c(c1[H])C([H])([H])C([H])([H])C([H])([H])C2([H])N([H])C(=O)C1([H])N(C(=O)C([H])(N([H])C(=O)C([H])(N([H])C([H])([H])[H])C([H])([H])[H])C(C([H])([H])[H])(C([H])([H])[H])C([H])([H])[H])C([H])([H])c2c([H])c(Oc3c([H])c(C([H])([H])C([H])([H])C(=O)N([H])C(=O)N4C([H])([H])C([H])([H])C([H])([H])C([H])(n5nc(-c6c([H])c([H])c(Oc7c([H])c([H])c(F)c([H])c7F)c([H])c6[H])c(C(=O)N([H])[H])c5N([H])[H])C4([H])[H])c([H])c4c3C([H])([H])C([H])([H])C4([H])[H])c([H])c([H])c2C1([H])[H]

$$$$
14:0:0
     RDKit          3D

 92100  0  0  1  0  0  0  0  0999 V2000
  -30.1110  -22.7340   22.7410 C   0  0  0  0  0  0  0  0  0  0  0  0
  -29.8920  -23.9960   22.3240 N   0  0  0  0  0  0  0  0  0  0  0  0
  -30.3180  -22.5900   23.9440 O   0  0  0  0  0  0  0  0  0  0  0  0
  -29.9760  -24.6330   23.1020 H   0  0  0  0  0  0  0  0  0  0  0  0
  -29.6810  -20.2660   22.4920 C   0  0  0  0  0  3  0  0  0  0  0  0
  -30.7790  -21.3520   20.6340 C   0  0  0  0  0  3  0  0  0  0  0  0
  -29.9880  -18.9970   21.9650 C   0  0  0  0  0  3  0  0  0  0  0  0
  -31.0850  -20.0640   20.0960 C   0  0  0  0  0  3  0  0  0  0  0  0
  -30.1180  -21.4700   21.8840 C   0  0  0  0  0  0  0  0  0  0  0  0
  -30.7480  -18.8660   20.7900 C   0  0  0  0  0  0  0  0  0  0  0  0
  -31.3120  -17.4720   20.4030 C   0  0  0  0  0  2  0  0  0  0  0  0
  -29.7020  -16.7240   18.6520 C   0  0  0  0  0  1  0  0  0  0  0  0
  -30.3140  -16.3200   20.0290 C   0  0  0  0  0  3  0  0  0  0  0  0
  -31.0060  -14.8980   19.9630 C   0  0  0  0  0  0  0  0  0  0  0  0
  -30.6970  -12.5980   19.1340 C   0  0  0  0  0  2  0  0  0  0  0  0
  -29.7450  -12.6670   17.9200 C   0  0  0  0  0  2  0  0  0  0  0  0
  -28.2850  -12.5300   18.3950 C   0  0  0  0  0  2  0  0  0  0  0  0
  -27.9370  -13.4790   19.5750 C   0  0  0  0  0  3  0  0  0  0  0  0
  -29.0240  -13.4700   20.6690 C   0  0  0  0  0  2  0  0  0  0  0  0
  -30.3300  -13.7070   20.0380 N   0  0  0  0  0  0  0  0  0  0  0  0
  -32.1900  -14.9020   19.6210 O   0  0  0  0  0  0  0  0  0  0  0  0
  -25.6040  -14.1160   20.4130 C   0  0  0  0  0  0  0  0  0  0  0  0
  -24.5300  -13.3580   20.8080 C   0  0  0  0  0  0  0  0  0  0  0  0
  -24.9570  -11.9990   20.7310 C   0  0  0  0  0  0  0  0  0  0  0  0
  -26.6110  -13.2120   20.1160 N   0  0  0  0  0  0  0  0  0  0  0  0
  -26.2330  -11.9340   20.3650 N   0  0  0  0  0  0  0  0  0  0  0  0
  -24.2070  -10.7510   20.9260 C   0  0  0  0  0  0  0  0  0  0  0  0
  -24.6160   -9.7830   21.8670 C   0  0  0  0  0  3  0  0  0  0  0  0
  -23.8730   -8.5960   22.0490 C   0  0  0  0  0  3  0  0  0  0  0  0
  -22.7030   -8.3710   21.2860 C   0  0  0  0  0  0  0  0  0  0  0  0
  -22.3120   -9.3260   20.3300 C   0  0  0  0  0  3  0  0  0  0  0  0
  -23.0580  -10.5040   20.1490 C   0  0  0  0  0  3  0  0  0  0  0  0
  -21.9320   -7.2380   21.3710 O   0  0  0  0  0  0  0  0  0  0  0  0
  -21.7990   -6.5450   22.5450 C   0  0  0  0  0  0  0  0  0  0  0  0
  -21.2780   -7.1450   23.7140 C   0  0  0  0  0  3  0  0  0  0  0  0
  -21.0960   -6.3760   24.8800 C   0  0  0  0  0  3  0  0  0  0  0  0
  -21.4210   -5.0070   24.8790 C   0  0  0  0  0  0  0  0  0  0  0  0
  -21.9330   -4.4050   23.7150 C   0  0  0  0  0  3  0  0  0  0  0  0
  -22.1190   -5.1720   22.5530 C   0  0  0  0  0  0  0  0  0  0  0  0
  -22.5900   -4.5840   21.4260 F   0  0  0  0  0  0  0  0  0  0  0  0
  -21.2420   -4.2640   25.9960 F   0  0  0  0  0  0  0  0  0  0  0  0
  -23.1570  -13.8640   21.1420 C   0  0  0  0  0  0  0  0  0  0  0  0
  -22.4470  -13.1720   22.0290 N   0  0  0  0  0  0  0  0  0  0  0  0
  -22.7190  -14.9030   20.6530 O   0  0  0  0  0  0  0  0  0  0  0  0
  -22.8160  -12.3330   22.4510 H   0  0  0  0  0  0  0  0  0  0  0  0
  -21.5230  -13.4880   22.2820 H   0  0  0  0  0  0  0  0  0  0  0  0
  -25.7980  -15.4870   20.2660 N   0  0  0  0  0  0  0  0  0  0  0  0
  -25.0460  -16.1520   20.4170 H   0  0  0  0  0  0  0  0  0  0  0  0
  -26.6560  -15.9290   19.9550 H   0  0  0  0  0  0  0  0  0  0  0  0
  -29.4060  -24.6410   21.1030 C   0  0  0  0  0  2  0  0  0  0  0  0
  -29.0080  -26.1300   21.4090 C   0  0  0  0  0  2  0  0  0  0  0  0
  -28.7440  -26.9270   20.2370 O   0  0  0  0  0  0  0  0  0  0  0  0
  -24.6400  -31.9570   23.2650 C   0  0  0  0  0  0  0  0  0  0  0  0
  -27.5720  -27.6580   20.2360 C   0  0  0  0  0  0  0  0  0  0  0  0
  -23.5490  -30.5330   21.5570 C   0  0  0  0  0  3  0  0  0  0  0  0
  -25.1190  -29.0750   20.1670 C   0  0  0  0  0  0  0  0  0  0  0  0
  -26.0650  -30.9970   21.4540 C   0  0  0  0  0  2  0  0  0  0  0  0
  -26.2320  -29.6360   20.8090 C   0  0  0  0  0  0  0  0  0  0  0  0
  -27.4640  -28.9340   20.8430 C   0  0  0  0  0  3  0  0  0  0  0  0
  -26.4500  -27.1280   19.5650 C   0  0  0  0  0  3  0  0  0  0  0  0
  -25.2260  -27.8230   19.5380 C   0  0  0  0  0  3  0  0  0  0  0  0
  -23.8360  -29.8770   20.1770 C   0  0  0  0  0  2  0  0  0  0  0  0
  -24.7670  -31.1810   22.1500 N   0  0  0  0  0  0  0  0  0  0  0  0
  -23.5320  -32.1710   23.7720 O   0  0  0  0  0  0  0  0  0  0  0  0
  -22.9070  -29.4730   22.4830 C   0  0  0  0  0  0  0  0  0  0  0  0
  -21.5920  -29.2440   22.3150 N   0  0  0  0  0  0  0  0  0  0  0  0
  -23.5910  -28.8580   23.3070 O   0  0  0  0  0  0  0  0  0  0  0  0
  -21.1030  -29.7950   21.6240 H   0  0  0  0  0  0  0  0  0  0  0  0
  -18.2560  -27.9120   22.6910 C   0  0  0  0  0  0  0  0  0  0  0  0
  -20.7930  -28.2600   23.0440 C   0  0  0  0  0  3  0  0  0  0  0  0
  -20.9660  -26.8440   22.4460 C   0  0  0  0  0  2  0  0  0  0  0  0
  -19.9080  -26.5000   21.3940 C   0  0  0  0  0  2  0  0  0  0  0  0
  -18.5030  -26.5820   21.9980 C   0  0  0  0  0  2  0  0  0  0  0  0
  -19.3300  -28.7060   23.1690 C   0  0  0  0  0  0  0  0  0  0  0  0
  -19.0460  -29.9490   23.7750 C   0  0  0  0  0  3  0  0  0  0  0  0
  -17.7170  -30.3950   23.9130 C   0  0  0  0  0  3  0  0  0  0  0  0
  -16.6560  -29.5970   23.4530 C   0  0  0  0  0  3  0  0  0  0  0  0
  -16.9260  -28.3560   22.8460 C   0  0  0  0  0  3  0  0  0  0  0  0
  -25.8780  -32.6300   23.9360 C   0  0  0  0  0  3  0  0  0  0  0  0
  -25.5170  -34.0240   24.2350 N   0  0  0  0  0  0  0  0  0  0  0  0
  -25.8500  -35.0740   23.4740 C   0  0  0  0  0  0  0  0  0  0  0  0
  -26.5600  -34.9740   22.4690 O   0  0  0  0  0  0  0  0  0  0  0  0
  -24.8940  -34.1740   25.0130 H   0  0  0  0  0  0  0  0  0  0  0  0
  -24.0840  -36.8110   23.0350 C   0  0  0  0  0  1  0  0  0  0  0  0
  -25.3100  -36.4540   23.8910 C   0  0  0  0  0  3  0  0  0  0  0  0
  -27.3870  -37.4190   24.7760 C   0  0  0  0  0  1  0  0  0  0  0  0
  -26.3140  -37.5340   23.7920 N   0  0  0  0  0  0  0  0  0  0  0  0
  -25.8780  -38.4450   23.9080 H   0  0  0  0  0  0  0  0  0  0  0  0
  -26.3620  -31.8850   25.2410 C   0  0  1  0  0  0  0  0  0  0  0  0
  -25.2300  -31.6190   26.2590 C   0  0  0  0  0  1  0  0  0  0  0  0
  -27.0060  -30.5230   24.8870 C   0  0  0  0  0  1  0  0  0  0  0  0
  -27.4520  -32.7230   25.9510 C   0  0  0  0  0  1  0  0  0  0  0  0
  1  3  2  0
  2  1  1  0
  2  4  1  0
  6  9  1  0
  7  5  1  0
  8  6  2  0
  8 10  1  0
  9  5  2  0
  9  1  1  0
 10  7  2  0
 11 10  1  0
 13 12  1  0
 13 11  1  0
 14 13  1  0
 14 20  1  0
 15 20  1  0
 16 17  1  0
 16 15  1  0
 18 17  1  0
 18 25  1  0
 18 19  1  0
 20 19  1  0
 21 14  2  0
 22 23  2  0
 23 42  1  0
 24 23  1  0
 24 27  1  0
 25 26  1  0
 25 22  1  0
 26 24  2  0
 27 28  1  0
 28 29  2  0
 30 33  1  0
 30 29  1  0
 31 30  2  0
 32 31  1  0
 32 27  2  0
 33 34  1  0
 34 39  2  0
 34 35  1  0
 35 36  2  0
 37 36  1  0
 37 41  1  0
 38 37  2  0
 39 38  1  0
 40 39  1  0
 42 43  1  0
 43 46  1  0
 43 45  1  0
 44 42  2  0
 47 22  1  0
 47 48  1  0
 49 47  1  0
 50 51  1  0
 50  2  1  0
 52 51  1  0
 53 64  2  0
 54 52  1  0
 54 59  1  0
 55 63  1  0
 55 65  1  0
 56 62  1  0
 56 58  1  0
 57 63  1  0
 58 59  2  0
 58 57  1  0
 60 54  2  0
 61 60  1  0
 61 56  2  0
 62 55  1  0
 63 53  1  0
 65 67  2  0
 66 65  1  0
 68 66  1  0
 69 78  2  0
 69 74  1  0
 70 66  1  0
 70 74  1  0
 71 70  1  0
 72 73  1  0
 72 71  1  0
 73 69  1  0
 74 75  2  0
 75 76  1  0
 77 76  2  0
 78 77  1  0
 79 53  1  0
 79 80  1  0
 79 89  1  0
 80 83  1  0
 81 85  1  0
 81 80  1  0
 82 81  2  0
 85 84  1  0
 87 85  1  0
 87 88  1  0
 87 86  1  0
 89 92  1  1
 89 90  1  0
 91 89  1  0
M  ISO  4  13 100  14 100  51 101  52 101
M  END
>  <TORSDO>  (15) 
F 21

>  <SCORE>  (15) 
-12.288

>  <name>  (15) 
14

>  <ligand_id>  (15) 
14

>  <original_smiles>  (15) 
[H]c1c([H])c([H])c2c(c1[H])C([H])([H])C([H])([H])C([H])([H])C2([H])N([H])C(=O)C1([H])N(C(=O)C([H])(N([H])C(=O)C([H])(N([H])C([H])([H])[H])C([H])([H])[H])C(C([H])([H])[H])(C([H])([H])[H])C([H])([H])[H])C([H])([H])c2c([H])c(OC([H])([H])C([H])([H])N([H])C(=O)c3c([H])c([H])c(C([H])([H])C([H])(C(=O)N4C([H])([H])C([H])([H])C([H])([H])C([H])(n5nc(-c6c([H])c([H])c(Oc7c([H])c([H])c(F)c([H])c7F)c([H])c6[H])c(C(=O)N([H])[H])c5N([H])[H])C4([H])[H])C([H])([H])[H])c([H])c3[H])c([H])c([H])c2C1([H])[H]

>  <smiles>  (15) 
[H]c1c([H])c([H])c2c(c1[H])C([H])([H])C([H])([H])C([H])([H])C2([H])N([H])C(=O)C1([H])N(C(=O)C([H])(N([H])C(=O)C([H])(N([H])C([H])([H])[H])C([H])([H])[H])C(C([H])([H])[H])(C([H])([H])[H])C([H])([H])[H])C([H])([H])c2c([H])c(OC([H])([H])C([H])([H])N([H])C(=O)c3c([H])c([H])c(C([H])([H])C([H])(C(=O)N4C([H])([H])C([H])([H])C([H])([H])C([H])(n5nc(-c6c([H])c([H])c(Oc7c([H])c([H])c(F)c([H])c7F)c([H])c6[H])c(C(=O)N([H])[H])c5N([H])[H])C4([H])[H])C([H])([H])[H])c([H])c3[H])c([H])c([H])c2C1([H])[H]

$$$$
15:0:0
     RDKit          3D

 91 99  0  0  1  0  0  0  0  0999 V2000
  -30.1010  -22.7900   19.2760 C   0  0  0  0  0  3  0  0  0  0  0  0
  -30.6400  -20.3950   19.1820 C   0  0  0  0  0  3  0  0  0  0  0  0
  -28.6650  -21.1510   20.3670 C   0  0  0  0  0  3  0  0  0  0  0  0
  -30.9370  -21.7370   18.8530 C   0  0  0  0  0  0  0  0  0  0  0  0
  -28.9310  -22.5400   20.0160 C   0  0  0  0  0  0  0  0  0  0  0  0
  -29.5180  -20.0430   19.9670 C   0  0  0  0  0  0  0  0  0  0  0  0
  -32.1410  -22.0530   17.9850 C   0  0  0  0  0  1  0  0  0  0  0  0
  -27.9330  -23.7540   20.2360 C   0  0  0  0  0  2  0  0  0  0  0  0
  -28.3900  -25.1590   20.8800 C   0  0  0  0  0  2  0  0  0  0  0  0
  -28.3860  -26.4750   20.1790 O   0  0  0  0  0  0  0  0  0  0  0  0
  -24.6350  -31.8730   23.2530 C   0  0  0  0  0  0  0  0  0  0  0  0
  -27.2550  -27.3040   20.2190 C   0  0  0  0  0  0  0  0  0  0  0  0
  -23.4360  -30.4730   21.6100 C   0  0  0  0  0  3  0  0  0  0  0  0
  -24.8900  -28.9110   20.1960 C   0  0  0  0  0  0  0  0  0  0  0  0
  -25.9740  -30.7920   21.4310 C   0  0  0  0  0  2  0  0  0  0  0  0
  -26.0570  -29.4090   20.7900 C   0  0  0  0  0  0  0  0  0  0  0  0
  -27.2460  -28.6190   20.7850 C   0  0  0  0  0  3  0  0  0  0  0  0
  -26.0680  -26.8540   19.6110 C   0  0  0  0  0  3  0  0  0  0  0  0
  -24.8970  -27.6400   19.5970 C   0  0  0  0  0  3  0  0  0  0  0  0
  -23.6520  -29.7860   20.2360 C   0  0  0  0  0  2  0  0  0  0  0  0
  -24.7010  -31.0640   22.1550 N   0  0  0  0  0  0  0  0  0  0  0  0
  -23.5500  -32.1480   23.7860 O   0  0  0  0  0  0  0  0  0  0  0  0
  -22.7710  -29.4600   22.5720 C   0  0  0  0  0  0  0  0  0  0  0  0
  -21.4450  -29.2810   22.4430 N   0  0  0  0  0  0  0  0  0  0  0  0
  -23.4480  -28.8330   23.3910 O   0  0  0  0  0  0  0  0  0  0  0  0
  -20.9560  -29.8390   21.7570 H   0  0  0  0  0  0  0  0  0  0  0  0
  -18.0690  -28.0820   22.9410 C   0  0  0  0  0  0  0  0  0  0  0  0
  -20.6260  -28.3450   23.2140 C   0  0  0  0  0  3  0  0  0  0  0  0
  -20.7320  -26.9120   22.6410 C   0  0  0  0  0  2  0  0  0  0  0  0
  -19.6320  -26.5860   21.6260 C   0  0  0  0  0  2  0  0  0  0  0  0
  -18.2490  -26.7310   22.2660 C   0  0  0  0  0  2  0  0  0  0  0  0
  -19.1860  -28.8450   23.3720 C   0  0  0  0  0  0  0  0  0  0  0  0
  -18.9630  -30.1090   23.9630 C   0  0  0  0  0  3  0  0  0  0  0  0
  -17.6570  -30.6080   24.1270 C   0  0  0  0  0  3  0  0  0  0  0  0
  -16.5560  -29.8420   23.7100 C   0  0  0  0  0  3  0  0  0  0  0  0
  -16.7620  -28.5790   23.1230 C   0  0  0  0  0  3  0  0  0  0  0  0
  -25.9150  -32.5080   23.8780 C   0  0  0  0  0  3  0  0  0  0  0  0
  -26.4250  -31.7440   25.1620 C   0  0  1  0  0  0  0  0  0  0  0  0
  -25.3280  -31.5160   26.2280 C   0  0  0  0  0  1  0  0  0  0  0  0
  -27.0080  -30.3620   24.7850 C   0  0  0  0  0  1  0  0  0  0  0  0
  -27.5760  -32.5390   25.8220 C   0  0  0  0  0  1  0  0  0  0  0  0
  -25.6060  -33.9080   24.1990 N   0  0  0  0  0  0  0  0  0  0  0  0
  -25.9390  -34.9580   23.4360 C   0  0  0  0  0  0  0  0  0  0  0  0
  -26.6060  -34.8480   22.4040 O   0  0  0  0  0  0  0  0  0  0  0  0
  -25.0120  -34.0670   25.0010 H   0  0  0  0  0  0  0  0  0  0  0  0
  -24.2120  -36.7530   23.0780 C   0  0  0  0  0  1  0  0  0  0  0  0
  -25.4550  -36.3490   23.8880 C   0  0  0  0  0  3  0  0  0  0  0  0
  -27.5920  -37.2360   24.7120 C   0  0  0  0  0  1  0  0  0  0  0  0
  -26.4880  -37.4010   23.7680 N   0  0  0  0  0  0  0  0  0  0  0  0
  -26.0830  -38.3220   23.9120 H   0  0  0  0  0  0  0  0  0  0  0  0
  -29.1720  -18.4890   20.1610 C   0  0  0  0  0  2  0  0  0  0  0  0
  -31.6740  -17.7060   20.6040 C   0  0  0  0  0  1  0  0  0  0  0  0
  -30.1820  -17.3830   20.8100 C   0  0  0  0  0  0  0  0  0  0  0  0
  -30.6080  -14.7460   20.4040 C   0  0  0  0  0  0  0  0  0  0  0  0
  -30.4010  -12.4830   19.3720 C   0  0  0  0  0  2  0  0  0  0  0  0
  -29.4600  -12.5530   18.1510 C   0  0  0  0  0  2  0  0  0  0  0  0
  -27.9930  -12.3700   18.5860 C   0  0  0  0  0  2  0  0  0  0  0  0
  -27.6160  -13.2530   19.8050 C   0  0  0  0  0  3  0  0  0  0  0  0
  -28.6770  -13.1720   20.9230 C   0  0  0  0  0  2  0  0  0  0  0  0
  -29.9690  -13.5300   20.3240 N   0  0  0  0  0  0  0  0  0  0  0  0
  -31.8000  -14.8180   20.0940 O   0  0  0  0  0  0  0  0  0  0  0  0
  -29.8450  -15.8850   20.6410 N   0  0  0  0  0  4  0  0  0  0  0  0
  -28.8720  -15.6720   20.7980 H   0  0  0  0  0  0  0  0  0  0  0  0
  -25.2250  -13.8250   20.5340 C   0  0  0  0  0  0  0  0  0  0  0  0
  -24.1650  -13.0430   20.9050 C   0  0  0  0  0  0  0  0  0  0  0  0
  -24.6400  -11.6960   20.8770 C   0  0  0  0  0  0  0  0  0  0  0  0
  -26.2760  -12.9540   20.2990 N   0  0  0  0  0  0  0  0  0  0  0  0
  -25.9310  -11.6680   20.5660 N   0  0  0  0  0  0  0  0  0  0  0  0
  -23.9240  -10.4280   21.0650 C   0  0  0  0  0  0  0  0  0  0  0  0
  -24.3660   -9.4610   21.9940 C   0  0  0  0  0  3  0  0  0  0  0  0
  -23.6480   -8.2600   22.1730 C   0  0  0  0  0  3  0  0  0  0  0  0
  -22.4740   -8.0150   21.4220 C   0  0  0  0  0  0  0  0  0  0  0  0
  -22.0490   -8.9720   20.4830 C   0  0  0  0  0  3  0  0  0  0  0  0
  -22.7670  -10.1660   20.3030 C   0  0  0  0  0  3  0  0  0  0  0  0
  -21.7260   -6.8650   21.5100 O   0  0  0  0  0  0  0  0  0  0  0  0
  -21.6910   -6.1150   22.6580 C   0  0  0  0  0  0  0  0  0  0  0  0
  -21.2690   -6.6590   23.8900 C   0  0  0  0  0  3  0  0  0  0  0  0
  -21.1810   -5.8370   25.0310 C   0  0  0  0  0  3  0  0  0  0  0  0
  -21.5050   -4.4700   24.9400 C   0  0  0  0  0  0  0  0  0  0  0  0
  -21.9190   -3.9240   23.7120 C   0  0  0  0  0  3  0  0  0  0  0  0
  -22.0090   -4.7450   22.5750 C   0  0  0  0  0  0  0  0  0  0  0  0
  -22.3890   -4.2100   21.3880 F   0  0  0  0  0  0  0  0  0  0  0  0
  -21.4130   -3.6770   26.0330 F   0  0  0  0  0  0  0  0  0  0  0  0
  -22.7650  -13.5100   21.1730 C   0  0  0  0  0  0  0  0  0  0  0  0
  -22.0410  -12.8080   22.0370 N   0  0  0  0  0  0  0  0  0  0  0  0
  -22.3210  -14.5330   20.6520 O   0  0  0  0  0  0  0  0  0  0  0  0
  -22.4150  -11.9820   22.4820 H   0  0  0  0  0  0  0  0  0  0  0  0
  -21.1000  -13.1000   22.2590 H   0  0  0  0  0  0  0  0  0  0  0  0
  -25.3790  -15.1970   20.3510 N   0  0  0  0  0  0  0  0  0  0  0  0
  -24.6030  -15.8430   20.4490 H   0  0  0  0  0  0  0  0  0  0  0  0
  -26.2070  -15.6330   19.9690 H   0  0  0  0  0  0  0  0  0  0  0  0
  1  5  1  0
  2  6  2  0
  4  2  1  0
  4  1  2  0
  5  8  1  0
  5  3  2  0
  6 51  1  0
  6  3  1  0
  7  4  1  0
  8  9  1  0
 10 12  1  0
 10  9  1  0
 11 22  2  0
 12 17  1  0
 13 21  1  0
 13 23  1  0
 14 20  1  0
 14 16  1  0
 15 21  1  0
 16 15  1  0
 17 16  2  0
 18 12  2  0
 19 18  1  0
 19 14  2  0
 20 13  1  0
 21 11  1  0
 23 25  2  0
 24 23  1  0
 26 24  1  0
 27 36  2  0
 27 32  1  0
 28 24  1  0
 28 32  1  0
 29 28  1  0
 30 31  1  0
 30 29  1  0
 31 27  1  0
 32 33  2  0
 33 34  1  0
 35 34  2  0
 36 35  1  0
 37 11  1  0
 37 42  1  0
 37 38  1  0
 38 41  1  1
 38 39  1  0
 40 38  1  0
 42 45  1  0
 43 47  1  0
 43 42  1  0
 44 43  2  0
 47 46  1  0
 49 47  1  0
 49 50  1  0
 49 48  1  0
 51 53  1  0
 52 53  1  0
 54 62  1  0
 55 60  1  0
 56 57  1  0
 56 55  1  0
 58 57  1  0
 58 67  1  0
 58 59  1  0
 60 54  1  0
 60 59  1  0
 61 54  2  0
 62 63  1  0
 62 53  2  0
 64 65  2  0
 65 84  1  0
 66 65  1  0
 66 69  1  0
 67 64  1  0
 67 68  1  0
 68 66  2  0
 69 70  1  0
 70 71  2  0
 72 75  1  0
 72 71  1  0
 73 72  2  0
 74 73  1  0
 74 69  2  0
 75 76  1  0
 76 77  1  0
 77 78  2  0
 79 78  1  0
 79 83  1  0
 80 79  2  0
 81 76  2  0
 81 80  1  0
 82 81  1  0
 84 85  1  0
 85 88  1  0
 85 87  1  0
 86 84  2  0
 89 90  1  0
 89 64  1  0
 91 89  1  0
M  ISO  4   9 101  10 101  54 100  62 100
M  END
>  <TORSDO>  (16) 
F 20

>  <SCORE>  (16) 
-13.887

>  <name>  (16) 
15

>  <ligand_id>  (16) 
15

>  <original_smiles>  (16) 
[H]c1c([H])c([H])c2c(c1[H])C([H])([H])C([H])([H])C([H])([H])C2([H])N([H])C(=O)C1([H])N(C(=O)C([H])(N([H])C(=O)C([H])(N([H])C([H])([H])[H])C([H])([H])[H])C(C([H])([H])[H])(C([H])([H])[H])C([H])([H])[H])C([H])([H])c2c([H])c(OC([H])([H])C([H])([H])c3c([H])c(C([H])([H])[H])c([H])c(C([H])([H])C([H])(N([H])C(=O)N4C([H])([H])C([H])([H])C([H])([H])C([H])(n5nc(-c6c([H])c([H])c(Oc7c([H])c([H])c(F)c([H])c7F)c([H])c6[H])c(C(=O)N([H])[H])c5N([H])[H])C4([H])[H])C([H])([H])[H])c3[H])c([H])c([H])c2C1([H])[H]

>  <smiles>  (16) 
[H]c1c([H])c([H])c2c(c1[H])C([H])([H])C([H])([H])C([H])([H])C2([H])N([H])C(=O)C1([H])N(C(=O)C([H])(N([H])C(=O)C([H])(N([H])C([H])([H])[H])C([H])([H])[H])C(C([H])([H])[H])(C([H])([H])[H])C([H])([H])[H])C([H])([H])c2c([H])c(OC([H])([H])C([H])([H])c3c([H])c(C([H])([H])[H])c([H])c(C([H])([H])C([H])(N([H])C(=O)N4C([H])([H])C([H])([H])C([H])([H])C([H])(n5nc(-c6c([H])c([H])c(Oc7c([H])c([H])c(F)c([H])c7F)c([H])c6[H])c(C(=O)N([H])[H])c5N([H])[H])C4([H])[H])C([H])([H])[H])c3[H])c([H])c([H])c2C1([H])[H]

$$$$
16:0:0
     RDKit          3D

 90 98  0  0  1  0  0  0  0  0999 V2000
  -27.7050  -21.5820   18.7320 C   0  0  0  0  0  3  0  0  0  0  0  0
  -27.4270  -20.2950   18.2150 C   0  0  0  0  0  3  0  0  0  0  0  0
  -29.6290  -20.6000   19.8250 C   0  0  0  0  0  3  0  0  0  0  0  0
  -28.8240  -21.8280   19.5520 C   0  0  0  0  0  0  0  0  0  0  0  0
  -28.2400  -19.1550   18.4570 C   0  0  0  0  0  0  0  0  0  0  0  0
  -29.3800  -19.2230   19.3030 C   0  0  0  0  0  0  0  0  0  0  0  0
  -27.8890  -17.8750   17.7170 C   0  0  0  0  0  1  0  0  0  0  0  0
  -29.1170  -23.3890   20.0330 C   0  0  0  0  0  3  0  0  0  0  0  0
  -28.1330  -24.7510   19.8060 C   0  0  0  0  0  3  0  0  0  0  0  0
  -28.4030  -26.2350   20.2330 O   0  0  0  0  0  0  0  0  0  0  0  0
  -24.7980  -31.8230   23.4560 C   0  0  0  0  0  0  0  0  0  0  0  0
  -27.3810  -27.2540   20.1980 C   0  0  0  0  0  0  0  0  0  0  0  0
  -23.6250  -30.5540   21.6990 C   0  0  0  0  0  3  0  0  0  0  0  0
  -25.0890  -29.0490   20.2180 C   0  0  0  0  0  0  0  0  0  0  0  0
  -26.1890  -30.7800   21.6250 C   0  0  0  0  0  2  0  0  0  0  0  0
  -26.2580  -29.4300   20.8880 C   0  0  0  0  0  0  0  0  0  0  0  0
  -27.4050  -28.5480   20.8630 C   0  0  0  0  0  3  0  0  0  0  0  0
  -26.1870  -26.9840   19.4940 C   0  0  0  0  0  3  0  0  0  0  0  0
  -25.0670  -27.8400   19.5100 C   0  0  0  0  0  3  0  0  0  0  0  0
  -23.8760  -29.9630   20.2860 C   0  0  0  0  0  2  0  0  0  0  0  0
  -24.8890  -31.0720   22.3150 N   0  0  0  0  0  0  0  0  0  0  0  0
  -23.7000  -32.0930   23.9670 O   0  0  0  0  0  0  0  0  0  0  0  0
  -22.9070  -29.4970   22.5730 C   0  0  0  0  0  0  0  0  0  0  0  0
  -21.5810  -29.3520   22.3950 N   0  0  0  0  0  0  0  0  0  0  0  0
  -23.5440  -28.8090   23.3740 O   0  0  0  0  0  0  0  0  0  0  0  0
  -21.1210  -29.9620   21.7340 H   0  0  0  0  0  0  0  0  0  0  0  0
  -18.1700  -28.1820   22.7310 C   0  0  0  0  0  0  0  0  0  0  0  0
  -20.7250  -28.3810   23.0820 C   0  0  0  0  0  3  0  0  0  0  0  0
  -20.8190  -26.9850   22.4220 C   0  0  0  0  0  2  0  0  0  0  0  0
  -19.7430  -26.7480   21.3580 C   0  0  0  0  0  2  0  0  0  0  0  0
  -18.3450  -26.8760   21.9720 C   0  0  0  0  0  2  0  0  0  0  0  0
  -19.2880  -28.8970   23.2370 C   0  0  0  0  0  0  0  0  0  0  0  0
  -19.0710  -30.1220   23.9030 C   0  0  0  0  0  3  0  0  0  0  0  0
  -17.7700  -30.6320   24.0670 C   0  0  0  0  0  3  0  0  0  0  0  0
  -16.6660  -29.9140   23.5760 C   0  0  0  0  0  3  0  0  0  0  0  0
  -16.8670  -28.6910   22.9130 C   0  0  0  0  0  3  0  0  0  0  0  0
  -26.0660  -32.3990   24.1580 C   0  0  0  0  0  3  0  0  0  0  0  0
  -26.4960  -31.5730   25.4320 C   0  0  1  0  0  0  0  0  0  0  0  0
  -25.3480  -31.3420   26.4430 C   0  0  0  0  0  1  0  0  0  0  0  0
  -27.0530  -30.1870   25.0310 C   0  0  0  0  0  1  0  0  0  0  0  0
  -27.6360  -32.3150   26.1710 C   0  0  0  0  0  1  0  0  0  0  0  0
  -25.7790  -33.7950   24.5230 N   0  0  0  0  0  0  0  0  0  0  0  0
  -26.1400  -34.8650   23.8030 C   0  0  0  0  0  0  0  0  0  0  0  0
  -26.8190  -34.7780   22.7760 O   0  0  0  0  0  0  0  0  0  0  0  0
  -25.1790  -33.9380   25.3220 H   0  0  0  0  0  0  0  0  0  0  0  0
  -24.4530  -36.7100   23.4940 C   0  0  0  0  0  1  0  0  0  0  0  0
  -25.6800  -36.2500   24.3000 C   0  0  0  0  0  3  0  0  0  0  0  0
  -27.8230  -37.0730   25.1760 C   0  0  0  0  0  1  0  0  0  0  0  0
  -26.7360  -37.2850   24.2250 N   0  0  0  0  0  0  0  0  0  0  0  0
  -26.3450  -38.2090   24.3910 H   0  0  0  0  0  0  0  0  0  0  0  0
  -30.3620  -17.8830   19.4610 C   0  0  0  0  0  2  0  0  0  0  0  0
  -30.7400  -15.1700   19.6730 C   0  0  0  0  0  0  0  0  0  0  0  0
  -30.6080  -12.7850   18.7840 C   0  0  0  0  0  2  0  0  0  0  0  0
  -29.5330  -12.6590   17.6770 C   0  0  0  0  0  2  0  0  0  0  0  0
  -28.1290  -12.4380   18.2740 C   0  0  0  0  0  2  0  0  0  0  0  0
  -27.8470  -13.3710   19.4810 C   0  0  0  0  0  3  0  0  0  0  0  0
  -29.0330  -13.3600   20.4690 C   0  0  0  0  0  2  0  0  0  0  0  0
  -30.1860  -13.8790   19.7140 N   0  0  0  0  0  0  0  0  0  0  0  0
  -31.8880  -15.2280   19.2100 O   0  0  0  0  0  0  0  0  0  0  0  0
  -29.9850  -16.3940   19.8800 N   0  0  0  0  0  0  0  0  0  0  0  0
  -25.5970  -13.9560   20.5500 C   0  0  0  0  0  0  0  0  0  0  0  0
  -24.5610  -13.1800   20.9950 C   0  0  0  0  0  0  0  0  0  0  0  0
  -24.9740  -11.8260   20.8090 C   0  0  0  0  0  0  0  0  0  0  0  0
  -26.5740  -13.0720   20.1230 N   0  0  0  0  0  0  0  0  0  0  0  0
  -26.2140  -11.7810   20.3370 N   0  0  0  0  0  0  0  0  0  0  0  0
  -24.2360  -10.5710   20.9990 C   0  0  0  0  0  0  0  0  0  0  0  0
  -24.6570   -9.5980   21.9320 C   0  0  0  0  0  3  0  0  0  0  0  0
  -23.9150   -8.4110   22.1120 C   0  0  0  0  0  3  0  0  0  0  0  0
  -22.7400   -8.1870   21.3550 C   0  0  0  0  0  0  0  0  0  0  0  0
  -22.3390   -9.1480   20.4110 C   0  0  0  0  0  3  0  0  0  0  0  0
  -23.0820  -10.3270   20.2300 C   0  0  0  0  0  3  0  0  0  0  0  0
  -21.9700   -7.0520   21.4430 O   0  0  0  0  0  0  0  0  0  0  0  0
  -21.7720   -6.4070   22.6380 C   0  0  0  0  0  0  0  0  0  0  0  0
  -21.1930   -7.0590   23.7490 C   0  0  0  0  0  3  0  0  0  0  0  0
  -20.9430   -6.3400   24.9350 C   0  0  0  0  0  3  0  0  0  0  0  0
  -21.2630   -4.9700   25.0090 C   0  0  0  0  0  0  0  0  0  0  0  0
  -21.8370   -4.3200   23.9030 C   0  0  0  0  0  3  0  0  0  0  0  0
  -22.0870   -5.0360   22.7200 C   0  0  0  0  0  0  0  0  0  0  0  0
  -22.6190   -4.3990   21.6490 F   0  0  0  0  0  0  0  0  0  0  0  0
  -21.0170   -4.2770   26.1460 F   0  0  0  0  0  0  0  0  0  0  0  0
  -23.2270  -13.6720   21.4750 C   0  0  0  0  0  0  0  0  0  0  0  0
  -22.6120  -12.9590   22.4100 N   0  0  0  0  0  0  0  0  0  0  0  0
  -22.7450  -14.7230   21.0560 O   0  0  0  0  0  0  0  0  0  0  0  0
  -23.0210  -12.1100   22.7730 H   0  0  0  0  0  0  0  0  0  0  0  0
  -21.7210  -13.2670   22.7720 H   0  0  0  0  0  0  0  0  0  0  0  0
  -25.7750  -15.3320   20.4560 N   0  0  0  0  0  0  0  0  0  0  0  0
  -25.0670  -15.9910   20.7600 H   0  0  0  0  0  0  0  0  0  0  0  0
  -26.6180  -15.7830   20.1280 H   0  0  0  0  0  0  0  0  0  0  0  0
  -29.7030  -16.6440   22.3550 C   0  0  0  0  0  1  0  0  0  0  0  0
  -29.0150  -16.5210   20.9820 C   0  0  0  0  0  2  0  0  0  0  0  0
  1  4  1  0
  2  5  1  0
  2  1  2  0
  4  3  2  0
  4  8  1  0
  5  6  2  0
  6 51  1  0
  6  3  1  0
  7  5  1  0
  9  8  2  0
  9 10  1  0
 11 22  2  0
 12 10  1  0
 12 17  1  0
 13 21  1  0
 13 23  1  0
 14 20  1  0
 14 16  1  0
 15 21  1  0
 16 15  1  0
 17 16  2  0
 18 19  1  0
 18 12  2  0
 19 14  2  0
 20 13  1  0
 21 11  1  0
 23 25  2  0
 24 23  1  0
 26 24  1  0
 27 36  2  0
 27 32  1  0
 28 24  1  0
 28 32  1  0
 29 28  1  0
 30 31  1  0
 30 29  1  0
 31 27  1  0
 32 33  2  0
 33 34  1  0
 35 34  2  0
 36 35  1  0
 37 11  1  0
 37 42  1  0
 37 38  1  0
 38 41  1  1
 38 39  1  0
 40 38  1  0
 42 45  1  0
 43 47  1  0
 43 42  1  0
 44 43  2  0
 47 46  1  0
 49 47  1  0
 49 50  1  0
 49 48  1  0
 51 60  1  0
 52 58  1  0
 52 60  1  0
 53 58  1  0
 54 55  1  0
 54 53  1  0
 56 55  1  0
 56 64  1  0
 56 57  1  0
 58 57  1  0
 59 52  2  0
 60 90  1  0
 61 62  2  0
 62 81  1  0
 63 62  1  0
 63 66  1  0
 64 65  1  0
 64 61  1  0
 65 63  2  0
 66 67  1  0
 67 68  2  0
 69 72  1  0
 69 68  1  0
 70 69  2  0
 71 70  1  0
 71 66  2  0
 72 73  1  0
 73 78  2  0
 73 74  1  0
 74 75  2  0
 75 76  1  0
 76 80  1  0
 77 76  2  0
 78 77  1  0
 79 78  1  0
 81 82  1  0
 82 85  1  0
 82 84  1  0
 83 81  2  0
 86 61  1  0
 86 87  1  0
 88 86  1  0
 90 89  1  0
M  ISO  4   9 101  10 101  52 100  60 100
M  END
>  <TORSDO>  (17) 
F 20

>  <SCORE>  (17) 
-12.738

>  <name>  (17) 
16

>  <ligand_id>  (17) 
16

>  <original_smiles>  (17) 
[H]c1c([H])c([H])c2c(c1[H])C([H])([H])C([H])([H])C([H])([H])C2([H])N([H])C(=O)C1([H])N(C(=O)C([H])(N([H])C(=O)C([H])(N([H])C([H])([H])[H])C([H])([H])[H])C(C([H])([H])[H])(C([H])([H])[H])C([H])([H])[H])C([H])([H])c2c([H])c(OC([H])([H])C([H])([H])c3c([H])c([H])c(C([H])([H])[H])c(C([H])([H])N(C(=O)N4C([H])([H])C([H])([H])C([H])([H])C([H])(n5nc(-c6c([H])c([H])c(Oc7c([H])c([H])c(F)c([H])c7F)c([H])c6[H])c(C(=O)N([H])[H])c5N([H])[H])C4([H])[H])C([H])([H])C([H])([H])[H])c3[H])c([H])c([H])c2C1([H])[H]

>  <smiles>  (17) 
[H]c1c([H])c([H])c2c(c1[H])C([H])([H])C([H])([H])C([H])([H])C2([H])N([H])C(=O)C1([H])N(C(=O)C([H])(N([H])C(=O)C([H])(N([H])C([H])([H])[H])C([H])([H])[H])C(C([H])([H])[H])(C([H])([H])[H])C([H])([H])[H])C([H])([H])c2c([H])c(OC([H])([H])C([H])([H])c3c([H])c([H])c(C([H])([H])[H])c(C([H])([H])N(C(=O)N4C([H])([H])C([H])([H])C([H])([H])C([H])(n5nc(-c6c([H])c([H])c(Oc7c([H])c([H])c(F)c([H])c7F)c([H])c6[H])c(C(=O)N([H])[H])c5N([H])[H])C4([H])[H])C([H])([H])C([H])([H])[H])c3[H])c([H])c([H])c2C1([H])[H]

$$$$
17:0:0
     RDKit          3D

 98108  0  0  1  0  0  0  0  0999 V2000
  -28.1710  -17.8060   18.6670 C   0  0  0  0  0  3  0  0  0  0  0  0
  -28.0030  -17.4820   21.0940 C   0  0  0  0  0  3  0  0  0  0  0  0
  -29.4470  -17.2800   18.7970 C   0  0  0  0  0  0  0  0  0  0  0  0
  -29.9690  -16.6040   19.9670 C   0  0  0  0  0  0  0  0  0  0  0  0
  -27.3840  -17.7920   19.8460 C   0  0  0  0  0  0  0  0  0  0  0  0
  -29.3710  -17.0640   21.1770 C   0  0  0  0  0  0  0  0  0  0  0  0
  -30.0480  -18.9220   15.8720 C   0  0  0  0  0  3  0  0  0  0  0  0
  -30.2980  -20.2780   17.9710 C   0  0  0  0  0  2  0  0  0  0  0  0
  -30.6400  -17.5860   16.6050 C   0  0  0  0  0  3  0  0  0  0  0  0
  -31.1760  -19.0500   18.4660 C   0  0  0  0  0  2  0  0  0  0  0  0
  -29.5130  -20.2140   16.6400 C   0  0  0  0  0  3  0  0  0  0  0  0
  -31.3620  -16.3940   19.3350 C   0  0  1  0  0  0  0  0  0  0  0  0
  -30.7850  -17.5570   18.1770 C   0  0  1  0  0  0  0  0  0  0  0  0
  -25.9090  -18.1890   19.7980 C   0  0  0  0  0  1  0  0  0  0  0  0
  -30.1420  -17.4330   22.4470 C   0  0  0  0  0  1  0  0  0  0  0  0
  -32.5250  -16.8080   20.2620 C   0  0  0  0  0  1  0  0  0  0  0  0
  -31.7950  -14.8150   19.0250 C   0  0  0  0  0  0  0  0  0  0  0  0
  -31.6780  -12.2980   18.8410 C   0  0  0  0  0  2  0  0  0  0  0  0
  -30.6830  -11.8630   17.7510 C   0  0  0  0  0  2  0  0  0  0  0  0
  -29.2780  -11.7220   18.3570 C   0  0  0  0  0  2  0  0  0  0  0  0
  -28.8640  -12.9690   19.1820 C   0  0  0  0  0  3  0  0  0  0  0  0
  -29.9860  -13.3410   20.1840 C   0  0  0  0  0  2  0  0  0  0  0  0
  -31.2120  -13.5950   19.4080 N   0  0  0  0  0  0  0  0  0  0  0  0
  -32.8640  -14.7030   18.4130 O   0  0  0  0  0  0  0  0  0  0  0  0
  -26.6860  -13.7570   20.2790 C   0  0  0  0  0  0  0  0  0  0  0  0
  -25.5990  -13.0840   20.7740 C   0  0  0  0  0  0  0  0  0  0  0  0
  -25.8780  -11.6990   20.5870 C   0  0  0  0  0  0  0  0  0  0  0  0
  -27.5720  -12.7900   19.8430 N   0  0  0  0  0  0  0  0  0  0  0  0
  -27.0990  -11.5420   20.0860 N   0  0  0  0  0  0  0  0  0  0  0  0
  -25.0250  -10.5250   20.8020 C   0  0  0  0  0  0  0  0  0  0  0  0
  -25.2570   -9.6240   21.8630 C   0  0  0  0  0  3  0  0  0  0  0  0
  -24.4070   -8.5130   22.0610 C   0  0  0  0  0  3  0  0  0  0  0  0
  -23.3080   -8.2970   21.1950 C   0  0  0  0  0  0  0  0  0  0  0  0
  -23.0930   -9.1870   20.1280 C   0  0  0  0  0  3  0  0  0  0  0  0
  -23.9430  -10.2860   19.9300 C   0  0  0  0  0  3  0  0  0  0  0  0
  -22.4490   -7.2280   21.2950 O   0  0  0  0  0  0  0  0  0  0  0  0
  -21.9620   -6.8060   22.5080 C   0  0  0  0  0  0  0  0  0  0  0  0
  -21.2010   -7.6540   23.3440 C   0  0  0  0  0  3  0  0  0  0  0  0
  -20.6650   -7.1610   24.5520 C   0  0  0  0  0  3  0  0  0  0  0  0
  -20.8770   -5.8190   24.9190 C   0  0  0  0  0  0  0  0  0  0  0  0
  -21.6210   -4.9680   24.0830 C   0  0  0  0  0  3  0  0  0  0  0  0
  -22.1610   -5.4610   22.8820 C   0  0  0  0  0  0  0  0  0  0  0  0
  -22.8660   -4.6310   22.0740 F   0  0  0  0  0  0  0  0  0  0  0  0
  -20.3510   -5.3420   26.0710 F   0  0  0  0  0  0  0  0  0  0  0  0
  -24.3340  -13.7120   21.2840 C   0  0  0  0  0  0  0  0  0  0  0  0
  -23.6780  -13.0790   22.2480 N   0  0  0  0  0  0  0  0  0  0  0  0
  -23.9550  -14.8010   20.8680 O   0  0  0  0  0  0  0  0  0  0  0  0
  -23.9810  -12.1820   22.5850 H   0  0  0  0  0  0  0  0  0  0  0  0
  -22.8460  -13.4890   22.6550 H   0  0  0  0  0  0  0  0  0  0  0  0
  -26.9640  -15.0990   20.1360 N   0  0  0  0  0  0  0  0  0  0  0  0
  -26.2660  -15.8060   20.3460 H   0  0  0  0  0  0  0  0  0  0  0  0
  -27.8810  -15.4780   19.9250 H   0  0  0  0  0  0  0  0  0  0  0  0
  -29.5510  -21.5610   15.8460 N   0  0  0  0  0  4  0  0  0  0  0  0
  -29.1650  -21.2700   14.9520 H   0  0  0  0  0  0  0  0  0  0  0  0
  -30.4880  -21.8180   15.6050 H   0  0  0  0  0  0  0  0  0  0  0  0
  -28.6820  -22.8230   16.1420 C   0  0  0  0  0  2  0  0  0  0  0  0
  -29.1950  -24.0210   17.1320 C   0  0  0  0  0  2  0  0  0  0  0  0
  -28.9270  -25.5160   16.9840 O   0  0  0  0  0  0  0  0  0  0  0  0
  -26.2000  -28.9530   22.8550 C   0  0  0  0  0  0  0  0  0  0  0  0
  -27.8920  -26.2310   17.6370 C   0  0  0  0  0  0  0  0  0  0  0  0
  -24.6560  -28.5230   20.9830 C   0  0  0  0  0  3  0  0  0  0  0  0
  -25.7290  -27.7430   18.7830 C   0  0  0  0  0  0  0  0  0  0  0  0
  -27.1630  -28.7800   20.5460 C   0  0  0  0  0  2  0  0  0  0  0  0
  -27.0130  -27.8610   19.3290 C   0  0  0  0  0  0  0  0  0  0  0  0
  -28.0990  -27.1460   18.7310 C   0  0  0  0  0  3  0  0  0  0  0  0
  -26.5800  -26.1420   17.1400 C   0  0  0  0  0  3  0  0  0  0  0  0
  -25.5170  -26.9060   17.6800 C   0  0  0  0  0  3  0  0  0  0  0  0
  -24.6050  -28.5370   19.4300 C   0  0  0  0  0  2  0  0  0  0  0  0
  -26.0360  -28.7520   21.5210 N   0  0  0  0  0  0  0  0  0  0  0  0
  -25.2360  -28.9790   23.6260 O   0  0  0  0  0  0  0  0  0  0  0  0
  -24.0320  -27.1890   21.4570 C   0  0  0  0  0  0  0  0  0  0  0  0
  -22.7000  -27.0690   21.3260 N   0  0  0  0  0  0  0  0  0  0  0  0
  -24.7370  -26.2740   21.9000 O   0  0  0  0  0  0  0  0  0  0  0  0
  -22.1840  -27.8590   20.9780 H   0  0  0  0  0  0  0  0  0  0  0  0
  -19.3470  -25.7240   21.4060 C   0  0  0  0  0  0  0  0  0  0  0  0
  -21.9130  -25.8830   21.6580 C   0  0  0  0  0  3  0  0  0  0  0  0
  -21.9970  -24.8170   20.5510 C   0  0  0  0  0  2  0  0  0  0  0  0
  -20.8330  -24.7870   19.5610 C   0  0  0  0  0  2  0  0  0  0  0  0
  -19.4720  -24.7510   20.2380 C   0  0  0  0  0  2  0  0  0  0  0  0
  -20.4860  -26.2630   22.0650 C   0  0  0  0  0  0  0  0  0  0  0  0
  -20.3050  -27.2150   23.0860 C   0  0  0  0  0  3  0  0  0  0  0  0
  -19.0220  -27.6640   23.4440 C   0  0  0  0  0  3  0  0  0  0  0  0
  -17.8950  -27.0900   22.8250 C   0  0  0  0  0  3  0  0  0  0  0  0
  -18.0630  -26.1320   21.8150 C   0  0  0  0  0  3  0  0  0  0  0  0
  -27.6150  -29.1720   23.4810 C   0  0  0  0  0  3  0  0  0  0  0  0
  -28.2560  -27.8560   24.0740 C   0  0  1  0  0  0  0  0  0  0  0  0
  -27.3350  -27.0920   25.0510 C   0  0  0  0  0  1  0  0  0  0  0  0
  -28.6320  -26.8770   22.9410 C   0  0  0  0  0  1  0  0  0  0  0  0
  -29.5660  -28.2040   24.8150 C   0  0  0  0  0  1  0  0  0  0  0  0
  -27.4650  -30.1970   24.5170 N   0  0  0  0  0  0  0  0  0  0  0  0
  -27.8850  -31.4660   24.4160 C   0  0  0  0  0  0  0  0  0  0  0  0
  -28.5090  -31.8810   23.4350 O   0  0  0  0  0  0  0  0  0  0  0  0
  -26.8780  -29.9620   25.3030 H   0  0  0  0  0  0  0  0  0  0  0  0
  -26.3840  -33.3140   25.2220 C   0  0  0  0  0  1  0  0  0  0  0  0
  -27.5770  -32.4180   25.5860 C   0  0  0  0  0  3  0  0  0  0  0  0
  -29.8070  -32.5000   26.6100 C   0  0  0  0  0  1  0  0  0  0  0  0
  -28.7320  -33.2640   25.9750 N   0  0  0  0  0  0  0  0  0  0  0  0
  -28.4440  -34.0050   26.6120 H   0  0  0  0  0  0  0  0  0  0  0  0
  1  3  2  0
  1  5  1  0
  2  6  1  0
  3  4  1  0
  4  6  2  0
  5  2  2  0
  6 15  1  0
  7  9  2  0
  7 11  1  0
  8 10  1  0
 11 53  1  0
 11  8  1  0
 12  4  1  0
 12 16  1  1
 13  9  1  0
 13 10  1  1
 13  3  1  0
 13 12  1  0
 14  5  1  0
 17 12  1  0
 17 23  1  0
 18 23  1  0
 19 20  1  0
 19 18  1  0
 21 20  1  0
 21 28  1  0
 21 22  1  0
 23 22  1  0
 24 17  2  0
 25 26  2  0
 26 45  1  0
 27 26  1  0
 27 30  1  0
 28 29  1  0
 28 25  1  0
 29 27  2  0
 30 31  1  0
 31 32  2  0
 33 36  1  0
 33 32  1  0
 34 33  2  0
 35 34  1  0
 35 30  2  0
 36 37  1  0
 37 42  2  0
 37 38  1  0
 38 39  2  0
 39 40  1  0
 40 44  1  0
 41 40  2  0
 42 41  1  0
 43 42  1  0
 45 46  1  0
 46 48  1  0
 46 49  1  0
 47 45  2  0
 50 25  1  0
 50 51  1  0
 52 50  1  0
 53 56  1  0
 54 53  1  0
 55 53  1  0
 56 57  1  0
 58 57  1  0
 58 60  1  0
 59 70  2  0
 60 65  1  0
 61 71  1  0
 61 69  1  0
 62 64  1  0
 62 68  1  0
 63 69  1  0
 64 63  1  0
 65 64  2  0
 66 60  2  0
 66 67  1  0
 67 62  2  0
 68 61  1  0
 69 59  1  0
 71 73  2  0
 72 71  1  0
 74 72  1  0
 75 84  2  0
 75 80  1  0
 76 72  1  0
 76 80  1  0
 77 76  1  0
 78 79  1  0
 78 77  1  0
 79 75  1  0
 80 81  2  0
 81 82  1  0
 83 82  2  0
 84 83  1  0
 85 59  1  0
 85 86  1  0
 85 90  1  0
 86 89  1  1
 86 87  1  0
 88 86  1  0
 90 93  1  0
 91 90  1  0
 91 95  1  0
 92 91  2  0
 95 94  1  0
 95 97  1  0
 97 96  1  0
 97 98  1  0
M  ISO  4  12 100  17 100  57 101  58 101
M  END
>  <TORSDO>  (18) 
F 19

>  <SCORE>  (18) 
-6.854

>  <name>  (18) 
17

>  <ligand_id>  (18) 
17

>  <original_smiles>  (18) 
[H]c1c([H])c([H])c2c(c1[H])C([H])([H])C([H])([H])C([H])([H])C2([H])N([H])C(=O)C1([H])N(C(=O)C([H])(N([H])C(=O)C([H])(N([H])C([H])([H])[H])C([H])([H])[H])C(C([H])([H])[H])(C([H])([H])[H])C([H])([H])[H])C([H])([H])c2c([H])c(OC([H])([H])C([H])([H])[N+]([H])([H])C3([H])C([H])([H])C([H])([H])C4(c5c([H])c(C([H])([H])[H])c([H])c(C([H])([H])[H])c5C4(C(=O)N4C([H])([H])C([H])([H])C([H])([H])C([H])(n5nc(-c6c([H])c([H])c(Oc7c([H])c([H])c(F)c([H])c7F)c([H])c6[H])c(C(=O)N([H])[H])c5N([H])[H])C4([H])[H])C([H])([H])[H])C([H])([H])C3([H])[H])c([H])c([H])c2C1([H])[H]

>  <smiles>  (18) 
[H]c1c([H])c([H])c2c(c1[H])C([H])([H])C([H])([H])C([H])([H])C2([H])N([H])C(=O)C1([H])N(C(=O)C([H])(N([H])C(=O)C([H])(N([H])C([H])([H])[H])C([H])([H])[H])C(C([H])([H])[H])(C([H])([H])[H])C([H])([H])[H])C([H])([H])c2c([H])c(OC([H])([H])C([H])([H])[N+]([H])([H])C3([H])C([H])([H])C([H])([H])C4(c5c([H])c(C([H])([H])[H])c([H])c(C([H])([H])[H])c5C4(C(=O)N4C([H])([H])C([H])([H])C([H])([H])C([H])(n5nc(-c6c([H])c([H])c(Oc7c([H])c([H])c(F)c([H])c7F)c([H])c6[H])c(C(=O)N([H])[H])c5N([H])[H])C4([H])[H])C([H])([H])[H])C([H])([H])C3([H])[H])c([H])c([H])c2C1([H])[H]

$$$$
18:0:0
     RDKit          3D

 92101  0  0  1  0  0  0  0  0999 V2000
  -31.2270  -19.0630   21.5850 C   0  0  0  0  0  2  0  0  0  0  0  0
  -28.1510  -18.6980   20.3920 C   0  0  0  0  0  2  0  0  0  0  0  0
  -31.4290  -17.6790   20.8210 C   0  0  0  0  0  2  0  0  0  0  0  0
  -31.0370  -20.4500   20.8430 C   0  0  0  0  0  2  0  0  0  0  0  0
  -28.4880  -20.1970   20.7280 C   0  0  0  0  0  2  0  0  0  0  0  0
  -29.8720  -19.3830   18.9720 C   0  0  0  0  0  2  0  0  0  0  0  0
  -29.2960  -17.9820   19.5920 C   0  0  0  0  0  3  0  0  0  0  0  0
  -30.1730  -16.7990   20.4070 C   0  0  2  0  0  0  0  0  0  0  0  0
  -29.7580  -20.6560   19.9720 C   0  0  2  0  0  0  0  0  0  0  0  0
  -29.4660  -16.3820   21.7280 C   0  0  0  0  0  1  0  0  0  0  0  0
  -30.6870  -15.2860   19.8000 C   0  0  0  0  0  0  0  0  0  0  0  0
  -30.5520  -12.8730   18.9600 C   0  0  0  0  0  2  0  0  0  0  0  0
  -29.5560  -12.7340   17.7830 C   0  0  0  0  0  2  0  0  0  0  0  0
  -28.1280  -12.4970   18.3030 C   0  0  0  0  0  2  0  0  0  0  0  0
  -27.7630  -13.4570   19.4630 C   0  0  0  0  0  3  0  0  0  0  0  0
  -28.8800  -13.5410   20.5210 C   0  0  0  0  0  2  0  0  0  0  0  0
  -30.1020  -14.0030   19.8420 N   0  0  0  0  0  0  0  0  0  0  0  0
  -31.8050  -15.2890   19.2740 O   0  0  0  0  0  0  0  0  0  0  0  0
  -25.4510  -14.0090   20.4100 C   0  0  0  0  0  0  0  0  0  0  0  0
  -24.4130  -13.2230   20.8270 C   0  0  0  0  0  0  0  0  0  0  0  0
  -24.8640  -11.8730   20.7040 C   0  0  0  0  0  0  0  0  0  0  0  0
  -26.4660  -13.1390   20.0520 N   0  0  0  0  0  0  0  0  0  0  0  0
  -26.1270  -11.8440   20.2940 N   0  0  0  0  0  0  0  0  0  0  0  0
  -24.1430  -10.6060   20.8970 C   0  0  0  0  0  0  0  0  0  0  0  0
  -24.6070   -9.6190   21.7940 C   0  0  0  0  0  3  0  0  0  0  0  0
  -23.8850   -8.4200   21.9770 C   0  0  0  0  0  3  0  0  0  0  0  0
  -22.6820   -8.2000   21.2650 C   0  0  0  0  0  0  0  0  0  0  0  0
  -22.2370   -9.1750   20.3550 C   0  0  0  0  0  3  0  0  0  0  0  0
  -22.9590  -10.3660   20.1700 C   0  0  0  0  0  3  0  0  0  0  0  0
  -21.9290   -7.0540   21.3590 O   0  0  0  0  0  0  0  0  0  0  0  0
  -21.8720   -6.3230   22.5180 C   0  0  0  0  0  0  0  0  0  0  0  0
  -21.4390   -6.8890   23.7370 C   0  0  0  0  0  3  0  0  0  0  0  0
  -21.3300   -6.0840   24.8880 C   0  0  0  0  0  3  0  0  0  0  0  0
  -21.6470   -4.7140   24.8220 C   0  0  0  0  0  0  0  0  0  0  0  0
  -22.0740   -4.1480   23.6090 C   0  0  0  0  0  3  0  0  0  0  0  0
  -22.1830   -4.9500   22.4600 C   0  0  0  0  0  0  0  0  0  0  0  0
  -22.5760   -4.3940   21.2880 F   0  0  0  0  0  0  0  0  0  0  0  0
  -21.5350   -3.9390   25.9270 F   0  0  0  0  0  0  0  0  0  0  0  0
  -23.0440  -13.6950   21.2240 C   0  0  0  0  0  0  0  0  0  0  0  0
  -22.3900  -12.9820   22.1340 N   0  0  0  0  0  0  0  0  0  0  0  0
  -22.5660  -14.7300   20.7620 O   0  0  0  0  0  0  0  0  0  0  0  0
  -22.7910  -12.1430   22.5270 H   0  0  0  0  0  0  0  0  0  0  0  0
  -21.4750  -13.2780   22.4420 H   0  0  0  0  0  0  0  0  0  0  0  0
  -25.6130  -15.3850   20.2800 N   0  0  0  0  0  0  0  0  0  0  0  0
  -24.8680  -16.0400   20.4880 H   0  0  0  0  0  0  0  0  0  0  0  0
  -26.4500  -15.8320   19.9280 H   0  0  0  0  0  0  0  0  0  0  0  0
  -29.6060  -22.1460   19.3780 N   0  0  0  0  0  4  0  0  0  0  0  0
  -28.7660  -22.1230   18.8240 H   0  0  0  0  0  0  0  0  0  0  0  0
  -30.3510  -22.2430   18.7060 H   0  0  0  0  0  0  0  0  0  0  0  0
  -29.5660  -23.5460   20.1640 C   0  0  0  0  0  3  0  0  0  0  0  0
  -28.7870  -24.9520   19.5730 C   0  0  0  0  0  3  0  0  0  0  0  0
  -28.8500  -26.4510   20.0710 O   0  0  0  0  0  0  0  0  0  0  0  0
  -24.7850  -31.7970   23.1730 C   0  0  0  0  0  0  0  0  0  0  0  0
  -27.7470  -27.3940   19.9900 C   0  0  0  0  0  0  0  0  0  0  0  0
  -23.7310  -30.4240   21.4180 C   0  0  0  0  0  3  0  0  0  0  0  0
  -25.3210  -29.0180   19.9630 C   0  0  0  0  0  0  0  0  0  0  0  0
  -26.2680  -30.8440   21.3630 C   0  0  0  0  0  2  0  0  0  0  0  0
  -26.4490  -29.4920   20.6440 C   0  0  0  0  0  0  0  0  0  0  0  0
  -27.6590  -28.6940   20.6460 C   0  0  0  0  0  3  0  0  0  0  0  0
  -26.5910  -27.0410   19.2590 C   0  0  0  0  0  3  0  0  0  0  0  0
  -25.4060  -27.8100   19.2570 C   0  0  0  0  0  3  0  0  0  0  0  0
  -24.0400  -29.8380   20.0140 C   0  0  0  0  0  2  0  0  0  0  0  0
  -24.9450  -31.0440   22.0410 N   0  0  0  0  0  0  0  0  0  0  0  0
  -23.6660  -31.9840   23.6750 O   0  0  0  0  0  0  0  0  0  0  0  0
  -23.0820  -29.3270   22.2990 C   0  0  0  0  0  0  0  0  0  0  0  0
  -21.7610  -29.1210   22.1520 N   0  0  0  0  0  0  0  0  0  0  0  0
  -23.7710  -28.6670   23.0810 O   0  0  0  0  0  0  0  0  0  0  0  0
  -21.2600  -29.7080   21.4990 H   0  0  0  0  0  0  0  0  0  0  0  0
  -18.4160  -27.8010   22.5860 C   0  0  0  0  0  0  0  0  0  0  0  0
  -20.9710  -28.1010   22.8480 C   0  0  0  0  0  3  0  0  0  0  0  0
  -21.0980  -26.7270   22.1490 C   0  0  0  0  0  2  0  0  0  0  0  0
  -19.9910  -26.4660   21.1230 C   0  0  0  0  0  2  0  0  0  0  0  0
  -18.6150  -26.5200   21.7910 C   0  0  0  0  0  2  0  0  0  0  0  0
  -19.5210  -28.5500   23.0690 C   0  0  0  0  0  0  0  0  0  0  0  0
  -19.2790  -29.7480   23.7740 C   0  0  0  0  0  3  0  0  0  0  0  0
  -17.9650  -30.1980   24.0010 C   0  0  0  0  0  3  0  0  0  0  0  0
  -16.8740  -29.4450   23.5340 C   0  0  0  0  0  3  0  0  0  0  0  0
  -17.1000  -28.2480   22.8310 C   0  0  0  0  0  3  0  0  0  0  0  0
  -25.9990  -32.4740   23.8790 C   0  0  0  0  0  3  0  0  0  0  0  0
  -26.4530  -31.7200   25.1900 C   0  0  1  0  0  0  0  0  0  0  0  0
  -25.3000  -31.4510   26.1850 C   0  0  0  0  0  1  0  0  0  0  0  0
  -27.1010  -30.3590   24.8440 C   0  0  0  0  0  1  0  0  0  0  0  0
  -27.5350  -32.5470   25.9230 C   0  0  0  0  0  1  0  0  0  0  0  0
  -25.6190  -33.8610   24.1940 N   0  0  0  0  0  0  0  0  0  0  0  0
  -25.9480  -34.9310   23.4580 C   0  0  0  0  0  0  0  0  0  0  0  0
  -26.6700  -34.8570   22.4610 O   0  0  0  0  0  0  0  0  0  0  0  0
  -24.9830  -33.9880   24.9680 H   0  0  0  0  0  0  0  0  0  0  0  0
  -24.1640  -36.6580   23.0440 C   0  0  0  0  0  1  0  0  0  0  0  0
  -25.3910  -36.3000   23.8980 C   0  0  0  0  0  3  0  0  0  0  0  0
  -27.4570  -37.2730   24.8030 C   0  0  0  0  0  1  0  0  0  0  0  0
  -26.3850  -37.3930   23.8190 N   0  0  0  0  0  0  0  0  0  0  0  0
  -25.9370  -38.2970   23.9470 H   0  0  0  0  0  0  0  0  0  0  0  0
  2  5  1  0
  3  1  1  0
  4  1  1  0
  6  9  1  0
  7  6  1  0
  7  2  1  0
  7  8  1  0
  8  3  1  0
  8 10  1  1
  9 47  1  6
  9  5  1  0
  9  4  1  0
 11 17  1  0
 11  8  1  0
 12 17  1  0
 13 14  1  0
 13 12  1  0
 15 14  1  0
 15 22  1  0
 15 16  1  0
 17 16  1  0
 18 11  2  0
 19 20  2  0
 20 39  1  0
 21 20  1  0
 21 24  1  0
 22 23  1  0
 22 19  1  0
 23 21  2  0
 24 25  1  0
 25 26  2  0
 27 30  1  0
 27 26  1  0
 28 27  2  0
 29 28  1  0
 29 24  2  0
 30 31  1  0
 31 32  1  0
 32 33  2  0
 34 33  1  0
 34 38  1  0
 35 34  2  0
 36 31  2  0
 36 35  1  0
 37 36  1  0
 39 40  1  0
 40 43  1  0
 40 42  1  0
 41 39  2  0
 44 19  1  0
 44 45  1  0
 46 44  1  0
 47 50  1  0
 48 47  1  0
 49 47  1  0
 51 52  1  0
 51 50  2  0
 53 64  2  0
 54 52  1  0
 54 59  1  0
 55 63  1  0
 55 65  1  0
 56 62  1  0
 56 58  1  0
 57 63  1  0
 58 59  2  0
 58 57  1  0
 60 54  2  0
 61 60  1  0
 61 56  2  0
 62 55  1  0
 63 53  1  0
 65 67  2  0
 66 65  1  0
 68 66  1  0
 69 78  2  0
 69 74  1  0
 70 66  1  0
 70 74  1  0
 71 70  1  0
 72 73  1  0
 72 71  1  0
 73 69  1  0
 74 75  2  0
 75 76  1  0
 77 76  2  0
 78 77  1  0
 79 53  1  0
 79 84  1  0
 79 80  1  0
 80 83  1  1
 80 81  1  0
 82 80  1  0
 84 87  1  0
 85 89  1  0
 85 84  1  0
 86 85  2  0
 89 88  1  0
 91 89  1  0
 91 92  1  0
 91 90  1  0
M  ISO  4   8 100  11 100  51 101  52 101
M  END
>  <TORSDO>  (19) 
F 19

>  <SCORE>  (19) 
-14.761

>  <name>  (19) 
18

>  <ligand_id>  (19) 
18

>  <original_smiles>  (19) 
[H]c1c([H])c([H])c2c(c1[H])C([H])([H])C([H])([H])C([H])([H])C2([H])N([H])C(=O)C1([H])N(C(=O)C([H])(N([H])C(=O)C([H])(N([H])C([H])([H])[H])C([H])([H])[H])C(C([H])([H])[H])(C([H])([H])[H])C([H])([H])[H])C([H])([H])c2c([H])c(OC([H])([H])C([H])([H])[N+]([H])([H])C34C([H])([H])C([H])([H])C([H])([H])C(C(=O)N5C([H])([H])C([H])([H])C([H])([H])C([H])(n6nc(-c7c([H])c([H])c(Oc8c([H])c([H])c(F)c([H])c8F)c([H])c7[H])c(C(=O)N([H])[H])c6N([H])[H])C5([H])[H])(C([H])([H])[H])C([H])(C([H])([H])C3([H])[H])C4([H])[H])c([H])c([H])c2C1([H])[H]

>  <smiles>  (19) 
[H]c1c([H])c([H])c2c(c1[H])C([H])([H])C([H])([H])C([H])([H])C2([H])N([H])C(=O)C1([H])N(C(=O)C([H])(N([H])C(=O)C([H])(N([H])C([H])([H])[H])C([H])([H])[H])C(C([H])([H])[H])(C([H])([H])[H])C([H])([H])[H])C([H])([H])c2c([H])c(OC([H])([H])C([H])([H])[N+]([H])([H])C34C([H])([H])C([H])([H])C([H])([H])C(C(=O)N5C([H])([H])C([H])([H])C([H])([H])C([H])(n6nc(-c7c([H])c([H])c(Oc8c([H])c([H])c(F)c([H])c8F)c([H])c7[H])c(C(=O)N([H])[H])c6N([H])[H])C5([H])[H])(C([H])([H])[H])C([H])(C([H])([H])C3([H])[H])C4([H])[H])c([H])c([H])c2C1([H])[H]

$$$$
19:0:0
     RDKit          3D

 95104  0  0  1  0  0  0  0  0999 V2000
  -24.3570  -23.1120   20.7470 C   0  0  0  0  0  3  0  0  0  0  0  0
  -24.5440  -24.2250   21.5860 C   0  0  0  0  0  3  0  0  0  0  0  0
  -25.4070  -22.6740   19.9180 C   0  0  0  0  0  3  0  0  0  0  0  0
  -25.7780  -24.9030   21.5920 C   0  0  0  0  0  3  0  0  0  0  0  0
  -26.6440  -23.3520   19.9190 C   0  0  0  0  0  0  0  0  0  0  0  0
  -26.8300  -24.4940   20.7420 C   0  0  0  0  0  0  0  0  0  0  0  0
  -27.7880  -22.8430   19.0560 C   0  0  0  0  0  2  0  0  0  0  0  0
  -29.3570  -24.1350   20.6000 C   0  0  0  0  0  2  0  0  0  0  0  0
  -28.1840  -25.2190   20.7930 C   0  0  0  0  0  3  0  0  0  0  0  0
  -29.0980  -22.7290   19.8550 C   0  0  0  0  0  3  0  0  0  0  0  0
  -29.1650  -21.4270   20.6700 N   0  0  0  0  0  4  0  0  0  0  0  0
  -28.2450  -21.2550   21.0430 H   0  0  0  0  0  0  0  0  0  0  0  0
  -29.7720  -21.5850   21.4570 H   0  0  0  0  0  0  0  0  0  0  0  0
  -29.6720  -20.1500   19.9820 C   0  0  0  0  0  2  0  0  0  0  0  0
  -29.4500  -18.7050   20.6760 C   0  0  0  0  0  3  0  0  0  0  0  0
  -30.2210  -17.4320   20.0500 C   0  0  0  0  0  3  0  0  0  0  0  0
  -30.6490  -14.8800   20.2370 C   0  0  0  0  0  0  0  0  0  0  0  0
  -30.4250  -12.6160   19.2280 C   0  0  0  0  0  2  0  0  0  0  0  0
  -29.4800  -12.7090   18.0100 C   0  0  0  0  0  2  0  0  0  0  0  0
  -28.0130  -12.5410   18.4500 C   0  0  0  0  0  2  0  0  0  0  0  0
  -27.6510  -13.4200   19.6760 C   0  0  0  0  0  3  0  0  0  0  0  0
  -28.7180  -13.3240   20.7910 C   0  0  0  0  0  2  0  0  0  0  0  0
  -30.0160  -13.6620   20.1910 N   0  0  0  0  0  0  0  0  0  0  0  0
  -31.8160  -14.9900   19.8530 O   0  0  0  0  0  0  0  0  0  0  0  0
  -29.8910  -16.0080   20.4810 N   0  0  0  0  0  0  0  0  0  0  0  0
  -28.9460  -15.8370   20.7930 H   0  0  0  0  0  0  0  0  0  0  0  0
  -25.2640  -14.0020   20.4160 C   0  0  0  0  0  0  0  0  0  0  0  0
  -24.2060  -13.2230   20.7970 C   0  0  0  0  0  0  0  0  0  0  0  0
  -24.6750  -11.8740   20.7650 C   0  0  0  0  0  0  0  0  0  0  0  0
  -26.3110  -13.1270   20.1750 N   0  0  0  0  0  0  0  0  0  0  0  0
  -25.9640  -11.8420   20.4470 N   0  0  0  0  0  0  0  0  0  0  0  0
  -23.9570  -10.6090   20.9630 C   0  0  0  0  0  0  0  0  0  0  0  0
  -24.3860   -9.6560   21.9130 C   0  0  0  0  0  3  0  0  0  0  0  0
  -23.6660   -8.4550   22.0980 C   0  0  0  0  0  3  0  0  0  0  0  0
  -22.5040   -8.1980   21.3330 C   0  0  0  0  0  0  0  0  0  0  0  0
  -22.0940   -9.1400   20.3730 C   0  0  0  0  0  3  0  0  0  0  0  0
  -22.8140  -10.3320   20.1850 C   0  0  0  0  0  3  0  0  0  0  0  0
  -21.7560   -7.0490   21.4270 O   0  0  0  0  0  0  0  0  0  0  0  0
  -21.6830   -6.3320   22.5940 C   0  0  0  0  0  0  0  0  0  0  0  0
  -21.2080   -6.9060   23.7930 C   0  0  0  0  0  3  0  0  0  0  0  0
  -21.0830   -6.1130   24.9520 C   0  0  0  0  0  3  0  0  0  0  0  0
  -21.4240   -4.7480   24.9120 C   0  0  0  0  0  0  0  0  0  0  0  0
  -21.8940   -4.1740   23.7180 C   0  0  0  0  0  3  0  0  0  0  0  0
  -22.0200   -4.9640   22.5620 C   0  0  0  0  0  0  0  0  0  0  0  0
  -22.4520   -4.4010   21.4080 F   0  0  0  0  0  0  0  0  0  0  0  0
  -21.2980   -3.9840   26.0230 F   0  0  0  0  0  0  0  0  0  0  0  0
  -22.8080  -13.6930   21.0770 C   0  0  0  0  0  0  0  0  0  0  0  0
  -22.0880  -12.9940   21.9470 N   0  0  0  0  0  0  0  0  0  0  0  0
  -22.3630  -14.7160   20.5580 O   0  0  0  0  0  0  0  0  0  0  0  0
  -22.4600  -12.1650   22.3860 H   0  0  0  0  0  0  0  0  0  0  0  0
  -21.1510  -13.2920   22.1760 H   0  0  0  0  0  0  0  0  0  0  0  0
  -25.4190  -15.3730   20.2320 N   0  0  0  0  0  0  0  0  0  0  0  0
  -24.6440  -16.0200   20.3360 H   0  0  0  0  0  0  0  0  0  0  0  0
  -26.2540  -15.8120   19.8660 H   0  0  0  0  0  0  0  0  0  0  0  0
  -28.3030  -26.5640   20.1150 O   0  0  0  0  0  0  0  0  0  0  0  0
  -24.5490  -31.9300   23.2460 C   0  0  0  0  0  0  0  0  0  0  0  0
  -27.2160  -27.4610   20.1030 C   0  0  0  0  0  0  0  0  0  0  0  0
  -23.3800  -30.5840   21.5390 C   0  0  0  0  0  3  0  0  0  0  0  0
  -24.8630  -29.0930   20.0820 C   0  0  0  0  0  0  0  0  0  0  0  0
  -25.9220  -30.9110   21.4170 C   0  0  0  0  0  2  0  0  0  0  0  0
  -26.0180  -29.5520   20.7300 C   0  0  0  0  0  0  0  0  0  0  0  0
  -27.2000  -28.7460   20.7360 C   0  0  0  0  0  3  0  0  0  0  0  0
  -26.0610  -27.0940   19.3820 C   0  0  0  0  0  3  0  0  0  0  0  0
  -24.8890  -27.8700   19.3970 C   0  0  0  0  0  3  0  0  0  0  0  0
  -23.6210  -29.9600   20.1410 C   0  0  0  0  0  2  0  0  0  0  0  0
  -24.6340  -31.1580   22.1240 N   0  0  0  0  0  0  0  0  0  0  0  0
  -23.4540  -32.1850   23.7710 O   0  0  0  0  0  0  0  0  0  0  0  0
  -22.7050  -29.5320   22.4520 C   0  0  0  0  0  0  0  0  0  0  0  0
  -21.3840  -29.3480   22.2920 N   0  0  0  0  0  0  0  0  0  0  0  0
  -23.3720  -28.8860   23.2660 O   0  0  0  0  0  0  0  0  0  0  0  0
  -20.9020  -29.9250   21.6170 H   0  0  0  0  0  0  0  0  0  0  0  0
  -18.0100  -28.1030   22.6790 C   0  0  0  0  0  0  0  0  0  0  0  0
  -20.5580  -28.3780   23.0140 C   0  0  0  0  0  3  0  0  0  0  0  0
  -20.6900  -26.9660   22.3950 C   0  0  0  0  0  2  0  0  0  0  0  0
  -19.6120  -26.6670   21.3480 C   0  0  0  0  0  2  0  0  0  0  0  0
  -18.2160  -26.7770   21.9670 C   0  0  0  0  0  2  0  0  0  0  0  0
  -19.1110  -28.8620   23.1580 C   0  0  0  0  0  0  0  0  0  0  0  0
  -18.8660  -30.1050   23.7810 C   0  0  0  0  0  3  0  0  0  0  0  0
  -17.5520  -30.5890   23.9330 C   0  0  0  0  0  3  0  0  0  0  0  0
  -16.4650  -29.8260   23.4700 C   0  0  0  0  0  3  0  0  0  0  0  0
  -16.6950  -28.5850   22.8510 C   0  0  0  0  0  3  0  0  0  0  0  0
  -25.8180  -32.5480   23.9100 C   0  0  0  0  0  3  0  0  0  0  0  0
  -26.2820  -31.7690   25.2030 C   0  0  1  0  0  0  0  0  0  0  0  0
  -25.1510  -31.5460   26.2330 C   0  0  0  0  0  1  0  0  0  0  0  0
  -26.8610  -30.3840   24.8320 C   0  0  0  0  0  1  0  0  0  0  0  0
  -27.4200  -32.5490   25.9040 C   0  0  0  0  0  1  0  0  0  0  0  0
  -25.5140  -33.9490   24.2320 N   0  0  0  0  0  0  0  0  0  0  0  0
  -25.8810  -34.9990   23.4860 C   0  0  0  0  0  0  0  0  0  0  0  0
  -26.5810  -34.8890   22.4760 O   0  0  0  0  0  0  0  0  0  0  0  0
  -24.8980  -34.1100   25.0150 H   0  0  0  0  0  0  0  0  0  0  0  0
  -24.1880  -36.8150   23.0800 C   0  0  0  0  0  1  0  0  0  0  0  0
  -25.3970  -36.3920   23.9300 C   0  0  0  0  0  3  0  0  0  0  0  0
  -27.5110  -37.2520   24.8360 C   0  0  0  0  0  1  0  0  0  0  0  0
  -26.4450  -37.4330   23.8550 N   0  0  0  0  0  0  0  0  0  0  0  0
  -26.0450  -38.3590   23.9880 H   0  0  0  0  0  0  0  0  0  0  0  0
  1  2  1  0
  2  4  2  0
  3  5  1  0
  3  1  2  0
  5  6  2  0
  6  9  1  0
  6  4  1  0
  7 10  1  0
  7  5  1  0
  8  9  1  0
  9 55  1  0
 10  8  1  0
 10 11  1  0
 11 12  1  0
 11 13  1  0
 14 11  1  0
 14 15  1  0
 16 25  1  0
 16 15  2  0
 17 25  1  0
 18 23  1  0
 19 20  1  0
 19 18  1  0
 21 20  1  0
 21 30  1  0
 21 22  1  0
 23 17  1  0
 23 22  1  0
 24 17  2  0
 25 26  1  0
 27 28  2  0
 28 47  1  0
 29 28  1  0
 29 32  1  0
 30 27  1  0
 30 31  1  0
 31 29  2  0
 32 33  1  0
 33 34  2  0
 35 38  1  0
 35 34  1  0
 36 35  2  0
 37 36  1  0
 37 32  2  0
 38 39  1  0
 39 40  1  0
 40 41  2  0
 42 41  1  0
 42 46  1  0
 43 42  2  0
 44 39  2  0
 44 43  1  0
 45 44  1  0
 47 48  1  0
 48 51  1  0
 48 50  1  0
 49 47  2  0
 52 53  1  0
 52 27  1  0
 54 52  1  0
 56 67  2  0
 57 55  1  0
 57 62  1  0
 58 66  1  0
 58 68  1  0
 59 65  1  0
 59 61  1  0
 60 66  1  0
 61 62  2  0
 61 60  1  0
 63 64  1  0
 63 57  2  0
 64 59  2  0
 65 58  1  0
 66 56  1  0
 68 70  2  0
 69 68  1  0
 71 69  1  0
 72 81  2  0
 72 77  1  0
 73 69  1  0
 73 77  1  0
 74 73  1  0
 75 76  1  0
 75 74  1  0
 76 72  1  0
 77 78  2  0
 78 79  1  0
 80 79  2  0
 81 80  1  0
 82 56  1  0
 82 87  1  0
 82 83  1  0
 83 86  1  1
 83 84  1  0
 85 83  1  0
 87 90  1  0
 88 92  1  0
 88 87  1  0
 89 88  2  0
 92 91  1  0
 94 92  1  0
 94 95  1  0
 94 93  1  0
M  ISO  4   9 101  17 100  25 100  55 101
M  END
>  <TORSDO>  (20) 
F 20

>  <SCORE>  (20) 
-13.579

>  <name>  (20) 
19

>  <ligand_id>  (20) 
19

>  <original_smiles>  (20) 
[H]c1c([H])c([H])c2c(c1[H])C([H])([H])C([H])([H])C([H])([H])C2([H])N([H])C(=O)C1([H])N(C(=O)C([H])(N([H])C(=O)C([H])(N([H])C([H])([H])[H])C([H])([H])[H])C(C([H])([H])[H])(C([H])([H])[H])C([H])([H])[H])C([H])([H])c2c([H])c(OC3([H])c4c([H])c([H])c([H])c([H])c4C([H])([H])C([H])([N+]([H])([H])C([H])([H])C([H])([H])C([H])([H])N([H])C(=O)N4C([H])([H])C([H])([H])C([H])([H])C([H])(n5nc(-c6c([H])c([H])c(Oc7c([H])c([H])c(F)c([H])c7F)c([H])c6[H])c(C(=O)N([H])[H])c5N([H])[H])C4([H])[H])C3([H])[H])c([H])c([H])c2C1([H])[H]

>  <smiles>  (20) 
[H]c1c([H])c([H])c2c(c1[H])C([H])([H])C([H])([H])C([H])([H])C2([H])N([H])C(=O)C1([H])N(C(=O)C([H])(N([H])C(=O)C([H])(N([H])C([H])([H])[H])C([H])([H])[H])C(C([H])([H])[H])(C([H])([H])[H])C([H])([H])[H])C([H])([H])c2c([H])c(OC3([H])c4c([H])c([H])c([H])c([H])c4C([H])([H])C([H])([N+]([H])([H])C([H])([H])C([H])([H])C([H])([H])N([H])C(=O)N4C([H])([H])C([H])([H])C([H])([H])C([H])(n5nc(-c6c([H])c([H])c(Oc7c([H])c([H])c(F)c([H])c7F)c([H])c6[H])c(C(=O)N([H])[H])c5N([H])[H])C4([H])[H])C3([H])[H])c([H])c([H])c2C1([H])[H]

$$$$
20:0:0
     RDKit          3D

 88 96  0  0  1  0  0  0  0  0999 V2000
  -28.3610  -21.2670   21.1310 C   0  0  0  0  0  3  0  0  0  0  0  0
  -28.0100  -22.7800   21.1670 C   0  0  0  0  0  3  0  0  0  0  0  0
  -28.9700  -23.0570   19.2180 C   0  0  0  0  0  3  0  0  0  0  0  0
  -29.0810  -20.4190   20.1170 C   0  0  0  0  0  0  0  0  0  0  0  0
  -29.3350  -21.5570   19.1610 C   0  0  0  0  0  0  0  0  0  0  0  0
  -28.2490  -23.9190   20.2070 C   0  0  0  0  0  0  0  0  0  0  0  0
  -30.1310  -21.1770   17.9210 C   0  0  0  0  0  1  0  0  0  0  0  0
  -30.2410  -15.8370   20.1220 C   0  0  0  0  0  0  0  0  0  0  0  0
  -30.3510  -13.2730   19.3110 C   0  0  0  0  0  2  0  0  0  0  0  0
  -29.4450  -12.8320   18.1250 C   0  0  0  0  0  2  0  0  0  0  0  0
  -28.0420  -12.4500   18.6150 C   0  0  0  0  0  2  0  0  0  0  0  0
  -27.5380  -13.4450   19.6840 C   0  0  0  0  0  3  0  0  0  0  0  0
  -28.5880  -13.8010   20.7660 C   0  0  0  0  0  2  0  0  0  0  0  0
  -29.7250  -14.4560   20.0710 N   0  0  0  0  0  0  0  0  0  0  0  0
  -31.4710  -15.7420   19.9280 O   0  0  0  0  0  0  0  0  0  0  0  0
  -29.8140  -18.7610   20.1060 C   0  0  0  0  0  0  0  0  0  0  0  0
  -29.4940  -17.2270   20.2030 N   0  0  0  0  0  0  0  0  0  0  0  0
  -31.0230  -18.9140   19.9250 O   0  0  0  0  0  0  0  0  0  0  0  0
  -28.5050  -17.0910   20.3300 H   0  0  0  0  0  0  0  0  0  0  0  0
  -25.1990  -13.9360   20.5350 C   0  0  0  0  0  0  0  0  0  0  0  0
  -24.1580  -13.1390   20.9160 C   0  0  0  0  0  0  0  0  0  0  0  0
  -24.6390  -11.7950   20.8430 C   0  0  0  0  0  0  0  0  0  0  0  0
  -26.2430  -13.0800   20.2400 N   0  0  0  0  0  0  0  0  0  0  0  0
  -25.9230  -11.7830   20.4930 N   0  0  0  0  0  0  0  0  0  0  0  0
  -23.9260  -10.5230   21.0270 C   0  0  0  0  0  0  0  0  0  0  0  0
  -24.3690   -9.5520   21.9520 C   0  0  0  0  0  3  0  0  0  0  0  0
  -23.6510   -8.3490   22.1270 C   0  0  0  0  0  3  0  0  0  0  0  0
  -22.4740   -8.1090   21.3780 C   0  0  0  0  0  0  0  0  0  0  0  0
  -22.0490   -9.0680   20.4440 C   0  0  0  0  0  3  0  0  0  0  0  0
  -22.7690  -10.2620   20.2660 C   0  0  0  0  0  3  0  0  0  0  0  0
  -21.7270   -6.9570   21.4640 O   0  0  0  0  0  0  0  0  0  0  0  0
  -21.6660   -6.2240   22.6220 C   0  0  0  0  0  0  0  0  0  0  0  0
  -21.1810   -6.7730   23.8280 C   0  0  0  0  0  3  0  0  0  0  0  0
  -21.0700   -5.9630   24.9760 C   0  0  0  0  0  3  0  0  0  0  0  0
  -21.4330   -4.6050   24.9180 C   0  0  0  0  0  0  0  0  0  0  0  0
  -21.9110   -4.0540   23.7160 C   0  0  0  0  0  3  0  0  0  0  0  0
  -22.0240   -4.8610   22.5700 C   0  0  0  0  0  0  0  0  0  0  0  0
  -22.4650   -4.3200   21.4090 F   0  0  0  0  0  0  0  0  0  0  0  0
  -21.3200   -3.8250   26.0180 F   0  0  0  0  0  0  0  0  0  0  0  0
  -22.7650  -13.5980   21.2270 C   0  0  0  0  0  0  0  0  0  0  0  0
  -22.0660  -12.8860   22.1030 N   0  0  0  0  0  0  0  0  0  0  0  0
  -22.3070  -14.6270   20.7290 O   0  0  0  0  0  0  0  0  0  0  0  0
  -22.4520  -12.0560   22.5270 H   0  0  0  0  0  0  0  0  0  0  0  0
  -21.1320  -13.1760   22.3550 H   0  0  0  0  0  0  0  0  0  0  0  0
  -25.3390  -15.3110   20.3770 N   0  0  0  0  0  0  0  0  0  0  0  0
  -24.5630  -15.9500   20.5120 H   0  0  0  0  0  0  0  0  0  0  0  0
  -26.1580  -15.7620   19.9910 H   0  0  0  0  0  0  0  0  0  0  0  0
  -28.1550  -25.5600   20.2790 O   0  0  0  0  0  0  0  0  0  0  0  0
  -24.6470  -31.9050   23.2330 C   0  0  0  0  0  0  0  0  0  0  0  0
  -27.1450  -26.7610   20.2610 C   0  0  0  0  0  0  0  0  0  0  0  0
  -23.4490  -30.5030   21.6080 C   0  0  0  0  0  3  0  0  0  0  0  0
  -24.8840  -28.8300   20.2020 C   0  0  0  0  0  0  0  0  0  0  0  0
  -26.0290  -30.6190   21.4830 C   0  0  0  0  0  2  0  0  0  0  0  0
  -26.0830  -29.1770   20.8360 C   0  0  0  0  0  0  0  0  0  0  0  0
  -27.1910  -28.1700   20.8340 C   0  0  0  0  0  3  0  0  0  0  0  0
  -25.9140  -26.6390   19.5640 C   0  0  0  0  0  3  0  0  0  0  0  0
  -24.8410  -27.5870   19.5430 C   0  0  0  0  0  3  0  0  0  0  0  0
  -23.6840  -29.7920   20.2420 C   0  0  0  0  0  2  0  0  0  0  0  0
  -24.7330  -31.0440   22.1590 N   0  0  0  0  0  0  0  0  0  0  0  0
  -23.5560  -32.2130   23.7450 O   0  0  0  0  0  0  0  0  0  0  0  0
  -22.7300  -29.5370   22.5890 C   0  0  0  0  0  0  0  0  0  0  0  0
  -21.3980  -29.3770   22.4610 N   0  0  0  0  0  0  0  0  0  0  0  0
  -23.3830  -28.9270   23.4390 O   0  0  0  0  0  0  0  0  0  0  0  0
  -20.9200  -29.9180   21.7540 H   0  0  0  0  0  0  0  0  0  0  0  0
  -18.0170  -28.1400   22.9640 C   0  0  0  0  0  0  0  0  0  0  0  0
  -20.5730  -28.4450   23.2400 C   0  0  0  0  0  3  0  0  0  0  0  0
  -20.6930  -27.0040   22.6920 C   0  0  0  0  0  2  0  0  0  0  0  0
  -19.6050  -26.6530   21.6730 C   0  0  0  0  0  2  0  0  0  0  0  0
  -18.2160  -26.7860   22.3040 C   0  0  0  0  0  2  0  0  0  0  0  0
  -19.1220  -28.9260   23.3890 C   0  0  0  0  0  0  0  0  0  0  0  0
  -18.8780  -30.1880   23.9720 C   0  0  0  0  0  3  0  0  0  0  0  0
  -17.5640  -30.6670   24.1300 C   0  0  0  0  0  3  0  0  0  0  0  0
  -16.4740  -29.8810   23.7180 C   0  0  0  0  0  3  0  0  0  0  0  0
  -16.7010  -28.6190   23.1410 C   0  0  0  0  0  3  0  0  0  0  0  0
  -25.9130  -32.5570   23.8670 C   0  0  0  0  0  3  0  0  0  0  0  0
  -25.5950  -33.9630   24.1950 N   0  0  0  0  0  0  0  0  0  0  0  0
  -25.9120  -35.0240   23.4420 C   0  0  0  0  0  0  0  0  0  0  0  0
  -26.5590  -34.9250   22.3960 O   0  0  0  0  0  0  0  0  0  0  0  0
  -25.0130  -34.1120   25.0060 H   0  0  0  0  0  0  0  0  0  0  0  0
  -24.1720  -36.8270   23.1530 C   0  0  0  0  0  1  0  0  0  0  0  0
  -25.4410  -36.4160   23.9170 C   0  0  0  0  0  3  0  0  0  0  0  0
  -27.6010  -37.3110   24.6760 C   0  0  0  0  0  1  0  0  0  0  0  0
  -26.4660  -37.4740   23.7710 N   0  0  0  0  0  0  0  0  0  0  0  0
  -26.0610  -38.3920   23.9360 H   0  0  0  0  0  0  0  0  0  0  0  0
  -26.4080  -31.8080   25.1680 C   0  0  1  0  0  0  0  0  0  0  0  0
  -25.3010  -31.5980   26.2270 C   0  0  0  0  0  1  0  0  0  0  0  0
  -26.9890  -30.4190   24.8220 C   0  0  0  0  0  1  0  0  0  0  0  0
  -27.5540  -32.6090   25.8300 C   0  0  0  0  0  1  0  0  0  0  0  0
  1  2  1  0
  3  6  1  0
  4  1  2  0
  5  3  2  0
  5  4  1  0
  6 48  1  0
  6  2  2  0
  7  5  1  0
  8 17  1  0
  9 14  1  0
 10 11  1  0
 10  9  1  0
 12 11  1  0
 12 23  1  0
 12 13  1  0
 14  8  1  0
 14 13  1  0
 15  8  2  0
 16  4  1  0
 16 17  1  0
 17 19  1  0
 18 16  2  0
 20 21  2  0
 21 40  1  0
 22 21  1  0
 22 25  1  0
 23 24  1  0
 23 20  1  0
 24 22  2  0
 25 26  1  0
 26 27  2  0
 28 31  1  0
 28 27  1  0
 29 28  2  0
 30 29  1  0
 30 25  2  0
 31 32  1  0
 32 33  1  0
 33 34  2  0
 35 34  1  0
 35 39  1  0
 36 35  2  0
 37 32  2  0
 37 36  1  0
 38 37  1  0
 40 41  1  0
 41 44  1  0
 41 43  1  0
 42 40  2  0
 45 46  1  0
 45 20  1  0
 47 45  1  0
 49 60  2  0
 50 48  1  0
 50 55  1  0
 51 59  1  0
 51 61  1  0
 52 58  1  0
 52 54  1  0
 53 59  1  0
 54 53  1  0
 55 54  2  0
 56 50  2  0
 57 56  1  0
 57 52  2  0
 58 51  1  0
 59 49  1  0
 61 63  2  0
 62 61  1  0
 64 62  1  0
 65 74  2  0
 65 70  1  0
 66 62  1  0
 66 70  1  0
 67 66  1  0
 68 69  1  0
 68 67  1  0
 69 65  1  0
 70 71  2  0
 71 72  1  0
 73 72  2  0
 74 73  1  0
 75 49  1  0
 75 76  1  0
 75 85  1  0
 76 79  1  0
 77 81  1  0
 77 76  1  0
 78 77  2  0
 81 80  1  0
 83 81  1  0
 83 84  1  0
 83 82  1  0
 85 88  1  1
 85 86  1  0
 87 85  1  0
M  ISO  4   6 101   8 100  17 100  48 101
M  END
>  <TORSDO>  (21) 
F 16

>  <SCORE>  (21) 
-15.964

>  <name>  (21) 
20

>  <ligand_id>  (21) 
20

>  <original_smiles>  (21) 
[H]c1c([H])c([H])c2c(c1[H])C([H])([H])C([H])([H])C([H])([H])C2([H])N([H])C(=O)C1([H])N(C(=O)C([H])(N([H])C(=O)C([H])(N([H])C([H])([H])[H])C([H])([H])[H])C(C([H])([H])[H])(C([H])([H])[H])C([H])([H])[H])C([H])([H])c2c([H])c(Oc3c([H])c([H])c(C(=O)N([H])C(=O)N4C([H])([H])C([H])([H])C([H])([H])C([H])(n5nc(-c6c([H])c([H])c(Oc7c([H])c([H])c(F)c([H])c7F)c([H])c6[H])c(C(=O)N([H])[H])c5N([H])[H])C4([H])[H])c(C([H])([H])[H])c3[H])c([H])c([H])c2C1([H])[H]

>  <smiles>  (21) 
[H]c1c([H])c([H])c2c(c1[H])C([H])([H])C([H])([H])C([H])([H])C2([H])N([H])C(=O)C1([H])N(C(=O)C([H])(N([H])C(=O)C([H])(N([H])C([H])([H])[H])C([H])([H])[H])C(C([H])([H])[H])(C([H])([H])[H])C([H])([H])[H])C([H])([H])c2c([H])c(Oc3c([H])c([H])c(C(=O)N([H])C(=O)N4C([H])([H])C([H])([H])C([H])([H])C([H])(n5nc(-c6c([H])c([H])c(Oc7c([H])c([H])c(F)c([H])c7F)c([H])c6[H])c(C(=O)N([H])[H])c5N([H])[H])C4([H])[H])c(C([H])([H])[H])c3[H])c([H])c([H])c2C1([H])[H]

$$$$
21:0:0
     RDKit          3D

 89 98  0  0  1  0  0  0  0  0999 V2000
  -29.8380  -18.9600   20.4960 C   0  0  0  0  0  3  0  0  0  0  0  0
  -27.4750  -18.8210   19.3030 C   0  0  0  0  0  3  0  0  0  0  0  0
  -29.4710  -17.4210   20.1880 C   0  0  0  0  0  0  0  0  0  0  0  0
  -29.0720  -20.3700   20.2580 C   0  0  0  0  0  0  0  0  0  0  0  0
  -27.8550  -20.1950   19.5820 C   0  0  0  0  0  3  0  0  0  0  0  0
  -28.1870  -17.5780   19.5660 C   0  0  0  0  0  0  0  0  0  0  0  0
  -29.3220  -22.1420   20.4840 C   0  0  0  0  0  3  0  0  0  0  0  0
  -27.0090  -22.8280   19.5830 C   0  0  0  0  0  3  0  0  0  0  0  0
  -28.1610  -23.6070   20.3550 C   0  0  0  0  0  0  0  0  0  0  0  0
  -26.5120  -21.1960   17.7810 C   0  0  0  0  0  1  0  0  0  0  0  0
  -27.1140  -21.3650   19.1070 N   0  0  0  0  0  0  0  0  0  0  0  0
  -27.5720  -16.4580   19.1310 F   0  0  0  0  0  0  0  0  0  0  0  0
  -30.2490  -15.7820   20.2460 C   0  0  0  0  0  0  0  0  0  0  0  0
  -30.4140  -13.1810   19.5140 C   0  0  0  0  0  2  0  0  0  0  0  0
  -29.5510  -12.6970   18.3100 C   0  0  0  0  0  2  0  0  0  0  0  0
  -28.1380  -12.3000   18.7630 C   0  0  0  0  0  2  0  0  0  0  0  0
  -27.5850  -13.3240   19.7750 C   0  0  0  0  0  3  0  0  0  0  0  0
  -28.5900  -13.7380   20.8780 C   0  0  0  0  0  2  0  0  0  0  0  0
  -29.7590  -14.3830   20.2260 N   0  0  0  0  0  0  0  0  0  0  0  0
  -31.4920  -15.6860   20.1440 O   0  0  0  0  0  0  0  0  0  0  0  0
  -25.2240  -13.8450   20.5470 C   0  0  0  0  0  0  0  0  0  0  0  0
  -24.1690  -13.0610   20.9160 C   0  0  0  0  0  0  0  0  0  0  0  0
  -24.6490  -11.7150   20.8880 C   0  0  0  0  0  0  0  0  0  0  0  0
  -26.2730  -12.9800   20.3020 N   0  0  0  0  0  0  0  0  0  0  0  0
  -25.9420  -11.6900   20.5770 N   0  0  0  0  0  0  0  0  0  0  0  0
  -23.9300  -10.4490   21.0770 C   0  0  0  0  0  0  0  0  0  0  0  0
  -24.3730   -9.4770   22.0010 C   0  0  0  0  0  3  0  0  0  0  0  0
  -23.6490   -8.2810   22.1820 C   0  0  0  0  0  3  0  0  0  0  0  0
  -22.4680   -8.0440   21.4390 C   0  0  0  0  0  0  0  0  0  0  0  0
  -22.0440   -9.0050   20.5030 C   0  0  0  0  0  3  0  0  0  0  0  0
  -22.7690  -10.1950   20.3210 C   0  0  0  0  0  3  0  0  0  0  0  0
  -21.7150   -6.8970   21.5280 O   0  0  0  0  0  0  0  0  0  0  0  0
  -21.6920   -6.1400   22.6710 C   0  0  0  0  0  0  0  0  0  0  0  0
  -21.3110   -6.6850   23.9170 C   0  0  0  0  0  3  0  0  0  0  0  0
  -21.2320   -5.8560   25.0540 C   0  0  0  0  0  3  0  0  0  0  0  0
  -21.5250   -4.4830   24.9460 C   0  0  0  0  0  0  0  0  0  0  0  0
  -21.9020   -3.9380   23.7050 C   0  0  0  0  0  3  0  0  0  0  0  0
  -21.9810   -4.7660   22.5710 C   0  0  0  0  0  0  0  0  0  0  0  0
  -22.3240   -4.2320   21.3730 F   0  0  0  0  0  0  0  0  0  0  0  0
  -21.4440   -3.6840   26.0350 F   0  0  0  0  0  0  0  0  0  0  0  0
  -22.7680  -13.5310   21.1710 C   0  0  0  0  0  0  0  0  0  0  0  0
  -22.0400  -12.8440   22.0420 N   0  0  0  0  0  0  0  0  0  0  0  0
  -22.3270  -14.5470   20.6320 O   0  0  0  0  0  0  0  0  0  0  0  0
  -22.4110  -12.0250   22.5020 H   0  0  0  0  0  0  0  0  0  0  0  0
  -21.1000  -13.1420   22.2560 H   0  0  0  0  0  0  0  0  0  0  0  0
  -25.3720  -15.2150   20.3650 N   0  0  0  0  0  0  0  0  0  0  0  0
  -24.5880  -15.8530   20.4300 H   0  0  0  0  0  0  0  0  0  0  0  0
  -26.2020  -15.6440   19.9640 H   0  0  0  0  0  0  0  0  0  0  0  0
  -28.2120  -25.4160   20.2820 O   0  0  0  0  0  0  0  0  0  0  0  0
  -24.6990  -31.8270   23.1670 C   0  0  0  0  0  0  0  0  0  0  0  0
  -27.2220  -26.6450   20.2570 C   0  0  0  0  0  0  0  0  0  0  0  0
  -23.5180  -30.4160   21.5400 C   0  0  0  0  0  3  0  0  0  0  0  0
  -24.9650  -28.7300   20.1630 C   0  0  0  0  0  0  0  0  0  0  0  0
  -26.1010  -30.5250   21.4390 C   0  0  0  0  0  2  0  0  0  0  0  0
  -26.1610  -29.0760   20.8010 C   0  0  0  0  0  0  0  0  0  0  0  0
  -27.2710  -28.0660   20.8070 C   0  0  0  0  0  3  0  0  0  0  0  0
  -25.9880  -26.5250   19.5620 C   0  0  0  0  0  3  0  0  0  0  0  0
  -24.9210  -27.4790   19.5190 C   0  0  0  0  0  3  0  0  0  0  0  0
  -23.7660  -29.6960   20.1820 C   0  0  0  0  0  2  0  0  0  0  0  0
  -24.7970  -30.9580   22.1000 N   0  0  0  0  0  0  0  0  0  0  0  0
  -23.6030  -32.1400   23.6650 O   0  0  0  0  0  0  0  0  0  0  0  0
  -22.7840  -29.4590   22.5190 C   0  0  0  0  0  0  0  0  0  0  0  0
  -21.4480  -29.3300   22.4020 N   0  0  0  0  0  0  0  0  0  0  0  0
  -23.4310  -28.8290   23.3580 O   0  0  0  0  0  0  0  0  0  0  0  0
  -20.9750  -29.8870   21.7030 H   0  0  0  0  0  0  0  0  0  0  0  0
  -18.0410  -28.1770   22.9420 C   0  0  0  0  0  0  0  0  0  0  0  0
  -20.6080  -28.4090   23.1810 C   0  0  0  0  0  3  0  0  0  0  0  0
  -20.6820  -26.9740   22.6100 C   0  0  0  0  0  2  0  0  0  0  0  0
  -19.5680  -26.6680   21.6040 C   0  0  0  0  0  2  0  0  0  0  0  0
  -18.1930  -26.8280   22.2590 C   0  0  0  0  0  2  0  0  0  0  0  0
  -19.1740  -28.9250   23.3610 C   0  0  0  0  0  0  0  0  0  0  0  0
  -18.9740  -30.1850   23.9660 C   0  0  0  0  0  3  0  0  0  0  0  0
  -17.6740  -30.6960   24.1530 C   0  0  0  0  0  3  0  0  0  0  0  0
  -16.5580  -29.9450   23.7470 C   0  0  0  0  0  3  0  0  0  0  0  0
  -16.7430  -28.6870   23.1470 C   0  0  0  0  0  3  0  0  0  0  0  0
  -25.9580  -32.4810   23.8120 C   0  0  0  0  0  3  0  0  0  0  0  0
  -25.6250  -33.8770   24.1660 N   0  0  0  0  0  0  0  0  0  0  0  0
  -25.9400  -34.9570   23.4370 C   0  0  0  0  0  0  0  0  0  0  0  0
  -26.5960  -34.8820   22.3950 O   0  0  0  0  0  0  0  0  0  0  0  0
  -25.0340  -34.0050   24.9750 H   0  0  0  0  0  0  0  0  0  0  0  0
  -24.1850  -36.7490   23.1790 C   0  0  0  0  0  1  0  0  0  0  0  0
  -25.4560  -36.3360   23.9390 C   0  0  0  0  0  3  0  0  0  0  0  0
  -27.6070  -37.2340   24.7150 C   0  0  0  0  0  1  0  0  0  0  0  0
  -26.4730  -37.4020   23.8100 N   0  0  0  0  0  0  0  0  0  0  0  0
  -26.0630  -38.3170   23.9830 H   0  0  0  0  0  0  0  0  0  0  0  0
  -26.4620  -31.7140   25.0980 C   0  0  1  0  0  0  0  0  0  0  0  0
  -25.3610  -31.4800   26.1590 C   0  0  0  0  0  1  0  0  0  0  0  0
  -27.0480  -30.3340   24.7270 C   0  0  0  0  0  1  0  0  0  0  0  0
  -27.6090  -32.5080   25.7660 C   0  0  0  0  0  1  0  0  0  0  0  0
  2  6  2  0
  3 13  1  0
  3  1  2  0
  4  7  2  0
  4  1  1  0
  5  2  1  0
  5  4  1  0
  6  3  1  0
  8  9  2  0
  9  7  1  0
 10 11  1  0
 11  5  1  0
 11  8  1  0
 12  6  1  0
 14 19  1  0
 15 16  1  0
 15 14  1  0
 17 16  1  0
 17 24  1  0
 17 18  1  0
 19 13  1  0
 19 18  1  0
 20 13  2  0
 21 22  2  0
 22 41  1  0
 23 22  1  0
 23 26  1  0
 24 21  1  0
 24 25  1  0
 25 23  2  0
 26 27  1  0
 27 28  2  0
 29 32  1  0
 29 28  1  0
 30 29  2  0
 31 30  1  0
 31 26  2  0
 32 33  1  0
 33 34  1  0
 34 35  2  0
 36 35  1  0
 36 40  1  0
 37 36  2  0
 38 33  2  0
 38 37  1  0
 39 38  1  0
 41 42  1  0
 42 45  1  0
 42 44  1  0
 43 41  2  0
 46 47  1  0
 46 21  1  0
 48 46  1  0
 49  9  1  0
 50 61  2  0
 51 49  1  0
 51 56  1  0
 52 60  1  0
 52 62  1  0
 53 59  1  0
 53 55  1  0
 54 60  1  0
 55 56  2  0
 55 54  1  0
 57 51  2  0
 58 57  1  0
 58 53  2  0
 59 52  1  0
 60 50  1  0
 62 64  2  0
 63 62  1  0
 65 63  1  0
 66 75  2  0
 66 71  1  0
 67 63  1  0
 67 71  1  0
 68 67  1  0
 69 70  1  0
 69 68  1  0
 70 66  1  0
 71 72  2  0
 72 73  1  0
 74 73  2  0
 75 74  1  0
 76 50  1  0
 76 77  1  0
 76 86  1  0
 77 80  1  0
 78 82  1  0
 78 77  1  0
 79 78  2  0
 82 81  1  0
 84 82  1  0
 84 85  1  0
 84 83  1  0
 86 89  1  1
 86 87  1  0
 88 86  1  0
M  ISO  4   3 100   9 101  13 100  49 101
M  END
>  <TORSDO>  (22) 
F 16

>  <SCORE>  (22) 
-17.008

>  <name>  (22) 
21

>  <ligand_id>  (22) 
21

>  <original_smiles>  (22) 
[H]c1c([H])c([H])c2c(c1[H])C([H])([H])C([H])([H])C([H])([H])C2([H])N([H])C(=O)C1([H])N(C(=O)C([H])(N([H])C(=O)C([H])(N([H])C([H])([H])[H])C([H])([H])[H])C(C([H])([H])[H])(C([H])([H])[H])C([H])([H])[H])C([H])([H])c2c([H])c(OC3([H])C([H])([H])c4c([H])c(C(=O)N5C([H])([H])C([H])([H])C([H])([H])C([H])(n6nc(-c7c([H])c([H])c(Oc8c([H])c([H])c(F)c([H])c8F)c([H])c7[H])c(C(=O)N([H])[H])c6N([H])[H])C5([H])[H])c(F)c([H])c4N(C([H])([H])[H])C3([H])[H])c([H])c([H])c2C1([H])[H]

>  <smiles>  (22) 
[H]c1c([H])c([H])c2c(c1[H])C([H])([H])C([H])([H])C([H])([H])C2([H])N([H])C(=O)C1([H])N(C(=O)C([H])(N([H])C(=O)C([H])(N([H])C([H])([H])[H])C([H])([H])[H])C(C([H])([H])[H])(C([H])([H])[H])C([H])([H])[H])C([H])([H])c2c([H])c(OC3([H])C([H])([H])c4c([H])c(C(=O)N5C([H])([H])C([H])([H])C([H])([H])C([H])(n6nc(-c7c([H])c([H])c(Oc8c([H])c([H])c(F)c([H])c8F)c([H])c7[H])c(C(=O)N([H])[H])c6N([H])[H])C5([H])[H])c(F)c([H])c4N(C([H])([H])[H])C3([H])[H])c([H])c([H])c2C1([H])[H]

$$$$
22:0:0
     RDKit          3D

 91 99  0  0  1  0  0  0  0  0999 V2000
  -29.7170  -23.8760   16.9510 C   0  0  0  0  0  3  0  0  0  0  0  0
  -29.3070  -23.0930   18.0320 C   0  0  0  0  0  3  0  0  0  0  0  0
  -29.7840  -25.2530   17.0890 C   0  0  0  0  0  3  0  0  0  0  0  0
  -28.9140  -23.6030   19.3040 C   0  0  0  0  0  0  0  0  0  0  0  0
  -29.3420  -25.8690   18.2680 C   0  0  0  0  0  0  0  0  0  0  0  0
  -28.7580  -25.1430   19.3620 C   0  0  0  0  0  0  0  0  0  0  0  0
  -29.5860  -27.3760   18.3180 C   0  0  0  0  0  1  0  0  0  0  0  0
  -28.7330  -22.3630   20.3250 C   0  0  0  0  0  0  0  0  0  0  0  0
  -29.2620  -21.0420   20.0540 N   0  0  0  0  0  0  0  0  0  0  0  0
  -28.1030  -22.5600   21.3660 O   0  0  0  0  0  0  0  0  0  0  0  0
  -29.8010  -21.0380   19.2000 H   0  0  0  0  0  0  0  0  0  0  0  0
  -29.1270  -19.5760   20.6940 C   0  0  0  0  0  3  0  0  0  0  0  0
  -29.9520  -18.1300   20.2360 C   0  0  0  0  0  3  0  0  0  0  0  0
  -29.6480  -16.5180   20.7720 C   0  0  0  0  0  2  0  0  0  0  0  0
  -30.4710  -15.0770   20.4510 C   0  0  0  0  0  0  0  0  0  0  0  0
  -30.4200  -12.6860   19.5470 C   0  0  0  0  0  2  0  0  0  0  0  0
  -29.5210  -12.6190   18.2880 C   0  0  0  0  0  2  0  0  0  0  0  0
  -28.0500  -12.3960   18.6810 C   0  0  0  0  0  2  0  0  0  0  0  0
  -27.6050  -13.3280   19.8370 C   0  0  0  0  0  3  0  0  0  0  0  0
  -28.6280  -13.3590   20.9910 C   0  0  0  0  0  2  0  0  0  0  0  0
  -29.9140  -13.7880   20.4220 N   0  0  0  0  0  0  0  0  0  0  0  0
  -31.6660  -15.1370   20.1360 O   0  0  0  0  0  0  0  0  0  0  0  0
  -25.2030  -13.9110   20.5040 C   0  0  0  0  0  0  0  0  0  0  0  0
  -24.1290  -13.1400   20.8520 C   0  0  0  0  0  0  0  0  0  0  0  0
  -24.5940  -11.7880   20.8520 C   0  0  0  0  0  0  0  0  0  0  0  0
  -26.2530  -13.0320   20.3030 N   0  0  0  0  0  0  0  0  0  0  0  0
  -25.8940  -11.7500   20.5780 N   0  0  0  0  0  0  0  0  0  0  0  0
  -23.8620  -10.5280   21.0400 C   0  0  0  0  0  0  0  0  0  0  0  0
  -24.2750   -9.5680   21.9880 C   0  0  0  0  0  3  0  0  0  0  0  0
  -23.5430   -8.3740   22.1660 C   0  0  0  0  0  3  0  0  0  0  0  0
  -22.3820   -8.1330   21.3930 C   0  0  0  0  0  0  0  0  0  0  0  0
  -21.9860   -9.0830   20.4360 C   0  0  0  0  0  3  0  0  0  0  0  0
  -22.7190  -10.2680   20.2590 C   0  0  0  0  0  3  0  0  0  0  0  0
  -21.6240   -6.9900   21.4780 O   0  0  0  0  0  0  0  0  0  0  0  0
  -21.5680   -6.2460   22.6290 C   0  0  0  0  0  0  0  0  0  0  0  0
  -21.1480   -6.8050   23.8570 C   0  0  0  0  0  3  0  0  0  0  0  0
  -21.0380   -5.9890   25.0010 C   0  0  0  0  0  3  0  0  0  0  0  0
  -21.3370   -4.6160   24.9190 C   0  0  0  0  0  0  0  0  0  0  0  0
  -21.7470   -4.0560   23.6960 C   0  0  0  0  0  3  0  0  0  0  0  0
  -21.8590   -4.8690   22.5540 C   0  0  0  0  0  0  0  0  0  0  0  0
  -22.2350   -4.3200   21.3740 F   0  0  0  0  0  0  0  0  0  0  0  0
  -21.2220   -3.8310   26.0150 F   0  0  0  0  0  0  0  0  0  0  0  0
  -22.7240  -13.6200   21.0780 C   0  0  0  0  0  0  0  0  0  0  0  0
  -21.9720  -12.9390   21.9330 N   0  0  0  0  0  0  0  0  0  0  0  0
  -22.3020  -14.6400   20.5320 O   0  0  0  0  0  0  0  0  0  0  0  0
  -22.3210  -12.1150   22.3990 H   0  0  0  0  0  0  0  0  0  0  0  0
  -21.0310  -13.2500   22.1330 H   0  0  0  0  0  0  0  0  0  0  0  0
  -25.3670  -15.2800   20.3180 N   0  0  0  0  0  0  0  0  0  0  0  0
  -24.5940  -15.9290   20.4060 H   0  0  0  0  0  0  0  0  0  0  0  0
  -26.2270  -15.7270   20.0230 H   0  0  0  0  0  0  0  0  0  0  0  0
  -28.2820  -26.1330   20.3290 O   0  0  0  0  0  0  0  0  0  0  0  0
  -24.6490  -31.8740   23.1820 C   0  0  0  0  0  0  0  0  0  0  0  0
  -27.2550  -27.1510   20.1630 C   0  0  0  0  0  0  0  0  0  0  0  0
  -23.4470  -30.4590   21.5560 C   0  0  0  0  0  3  0  0  0  0  0  0
  -24.9040  -28.8840   20.1240 C   0  0  0  0  0  0  0  0  0  0  0  0
  -25.9950  -30.7420   21.3700 C   0  0  0  0  0  2  0  0  0  0  0  0
  -26.0790  -29.3420   20.7310 C   0  0  0  0  0  0  0  0  0  0  0  0
  -27.2460  -28.4880   20.7470 C   0  0  0  0  0  3  0  0  0  0  0  0
  -26.0580  -26.8010   19.5010 C   0  0  0  0  0  3  0  0  0  0  0  0
  -24.9070  -27.6260   19.4950 C   0  0  0  0  0  3  0  0  0  0  0  0
  -23.6670  -29.7700   20.1800 C   0  0  0  0  0  2  0  0  0  0  0  0
  -24.7170  -31.0480   22.0930 N   0  0  0  0  0  0  0  0  0  0  0  0
  -23.5650  -32.1540   23.7190 O   0  0  0  0  0  0  0  0  0  0  0  0
  -22.7810  -29.4580   22.5340 C   0  0  0  0  0  0  0  0  0  0  0  0
  -21.4520  -29.2830   22.4210 N   0  0  0  0  0  0  0  0  0  0  0  0
  -23.4610  -28.8400   23.3580 O   0  0  0  0  0  0  0  0  0  0  0  0
  -20.9590  -29.8320   21.7310 H   0  0  0  0  0  0  0  0  0  0  0  0
  -18.0830  -28.0630   22.9530 C   0  0  0  0  0  0  0  0  0  0  0  0
  -20.6410  -28.3480   23.2060 C   0  0  0  0  0  3  0  0  0  0  0  0
  -20.7520  -26.9120   22.6410 C   0  0  0  0  0  2  0  0  0  0  0  0
  -19.6470  -26.5730   21.6340 C   0  0  0  0  0  2  0  0  0  0  0  0
  -18.2690  -26.7120   22.2840 C   0  0  0  0  0  2  0  0  0  0  0  0
  -19.1980  -28.8370   23.3720 C   0  0  0  0  0  0  0  0  0  0  0  0
  -18.9700  -30.1000   23.9620 C   0  0  0  0  0  3  0  0  0  0  0  0
  -17.6620  -30.5890   24.1340 C   0  0  0  0  0  3  0  0  0  0  0  0
  -16.5630  -29.8130   23.7300 C   0  0  0  0  0  3  0  0  0  0  0  0
  -16.7730  -28.5510   23.1440 C   0  0  0  0  0  3  0  0  0  0  0  0
  -25.9290  -32.5220   23.7990 C   0  0  0  0  0  3  0  0  0  0  0  0
  -26.4620  -31.7520   25.0700 C   0  0  1  0  0  0  0  0  0  0  0  0
  -25.3800  -31.5030   26.1460 C   0  0  0  0  0  1  0  0  0  0  0  0
  -27.0450  -30.3780   24.6700 C   0  0  0  0  0  1  0  0  0  0  0  0
  -27.6200  -32.5460   25.7210 C   0  0  0  0  0  1  0  0  0  0  0  0
  -25.6080  -33.9170   24.1440 N   0  0  0  0  0  0  0  0  0  0  0  0
  -25.9280  -34.9810   23.3970 C   0  0  0  0  0  0  0  0  0  0  0  0
  -26.5910  -34.8950   22.3610 O   0  0  0  0  0  0  0  0  0  0  0  0
  -25.0210  -34.0610   24.9510 H   0  0  0  0  0  0  0  0  0  0  0  0
  -24.1880  -36.7710   23.0720 C   0  0  0  0  0  1  0  0  0  0  0  0
  -25.4340  -36.3620   23.8730 C   0  0  0  0  0  3  0  0  0  0  0  0
  -27.5680  -37.2500   24.7030 C   0  0  0  0  0  1  0  0  0  0  0  0
  -26.4600  -37.4240   23.7680 N   0  0  0  0  0  0  0  0  0  0  0  0
  -26.0490  -38.3400   23.9300 H   0  0  0  0  0  0  0  0  0  0  0  0
  1  3  2  0
  1  2  1  0
  2  4  2  0
  3  5  1  0
  4  6  1  0
  4  8  1  0
  5  7  1  0
  5  6  2  0
  6 51  1  0
  8 10  2  0
  9  8  1  0
  9 12  1  0
 11  9  1  0
 13 12  2  0
 13 14  1  0
 15 14  1  0
 16 21  1  0
 17 18  1  0
 17 16  1  0
 19 18  1  0
 19 26  1  0
 19 20  1  0
 21 15  1  0
 21 20  1  0
 22 15  2  0
 23 24  2  0
 24 25  1  0
 24 43  1  0
 25 28  1  0
 26 23  1  0
 26 27  1  0
 27 25  2  0
 28 29  1  0
 29 30  2  0
 31 34  1  0
 31 30  1  0
 32 31  2  0
 33 32  1  0
 33 28  2  0
 34 35  1  0
 35 36  1  0
 36 37  2  0
 38 37  1  0
 38 42  1  0
 39 38  2  0
 40 35  2  0
 40 39  1  0
 41 40  1  0
 43 44  1  0
 44 47  1  0
 44 46  1  0
 45 43  2  0
 48 49  1  0
 48 23  1  0
 50 48  1  0
 52 63  2  0
 53 51  1  0
 53 58  1  0
 54 62  1  0
 54 64  1  0
 55 61  1  0
 55 57  1  0
 56 62  1  0
 57 58  2  0
 57 56  1  0
 59 53  2  0
 60 59  1  0
 60 55  2  0
 61 54  1  0
 62 52  1  0
 64 66  2  0
 65 64  1  0
 67 65  1  0
 68 77  2  0
 68 73  1  0
 69 65  1  0
 69 73  1  0
 70 69  1  0
 71 72  1  0
 71 70  1  0
 72 68  1  0
 73 74  2  0
 74 75  1  0
 76 75  2  0
 77 76  1  0
 78 52  1  0
 78 83  1  0
 78 79  1  0
 79 82  1  1
 79 80  1  0
 81 79  1  0
 83 86  1  0
 84 88  1  0
 84 83  1  0
 85 84  2  0
 88 87  1  0
 90 88  1  0
 90 91  1  0
 90 89  1  0
M  ISO  4   6 101  14 100  15 100  51 101
M  END
>  <TORSDO>  (23) 
F 20

>  <SCORE>  (23) 
-14.927

>  <name>  (23) 
22

>  <ligand_id>  (23) 
22

>  <original_smiles>  (23) 
[H]c1c([H])c(C(=O)N([H])C([H])([H])C([H])([H])C([H])([H])C(=O)N2C([H])([H])C([H])([H])C([H])([H])C([H])(n3nc(-c4c([H])c([H])c(Oc5c([H])c([H])c(F)c([H])c5F)c([H])c4[H])c(C(=O)N([H])[H])c3N([H])[H])C2([H])[H])c(Oc2c([H])c([H])c3c(c2[H])C([H])([H])N(C(=O)C([H])(N([H])C(=O)C([H])(N([H])C([H])([H])[H])C([H])([H])[H])C(C([H])([H])[H])(C([H])([H])[H])C([H])([H])[H])C([H])(C(=O)N([H])C2([H])c4c([H])c([H])c([H])c([H])c4C([H])([H])C([H])([H])C2([H])[H])C3([H])[H])c(C([H])([H])[H])c1[H]

>  <smiles>  (23) 
[H]c1c([H])c(C(=O)N([H])C([H])([H])C([H])([H])C([H])([H])C(=O)N2C([H])([H])C([H])([H])C([H])([H])C([H])(n3nc(-c4c([H])c([H])c(Oc5c([H])c([H])c(F)c([H])c5F)c([H])c4[H])c(C(=O)N([H])[H])c3N([H])[H])C2([H])[H])c(Oc2c([H])c([H])c3c(c2[H])C([H])([H])N(C(=O)C([H])(N([H])C(=O)C([H])(N([H])C([H])([H])[H])C([H])([H])[H])C(C([H])([H])[H])(C([H])([H])[H])C([H])([H])[H])C([H])(C(=O)N([H])C2([H])c4c([H])c([H])c([H])c([H])c4C([H])([H])C([H])([H])C2([H])[H])C3([H])[H])c(C([H])([H])[H])c1[H]

$$$$
23:0:0
     RDKit          3D

 88 96  0  0  1  0  0  0  0  0999 V2000
  -28.2150  -21.9700   20.9000 C   0  0  0  0  0  3  0  0  0  0  0  0
  -27.4990  -24.3880   20.7940 C   0  0  0  0  0  3  0  0  0  0  0  0
  -28.9370  -23.4240   19.1190 C   0  0  0  0  0  3  0  0  0  0  0  0
  -27.5080  -23.1000   21.4070 C   0  0  0  0  0  0  0  0  0  0  0  0
  -28.9850  -21.9830   19.7190 C   0  0  0  0  0  0  0  0  0  0  0  0
  -28.2030  -24.7100   19.6130 C   0  0  0  0  0  0  0  0  0  0  0  0
  -26.7050  -22.9080   22.6790 C   0  0  0  0  0  1  0  0  0  0  0  0
  -28.1690  -26.2100   19.2100 O   0  0  0  0  0  0  0  0  0  0  0  0
  -24.7540  -31.8460   23.0860 C   0  0  0  0  0  0  0  0  0  0  0  0
  -27.1580  -27.3030   19.4360 C   0  0  0  0  0  0  0  0  0  0  0  0
  -23.4920  -30.6500   21.3450 C   0  0  0  0  0  3  0  0  0  0  0  0
  -24.8750  -29.2080   19.6980 C   0  0  0  0  0  0  0  0  0  0  0  0
  -26.0540  -30.8590   21.1280 C   0  0  0  0  0  2  0  0  0  0  0  0
  -26.0900  -29.5260   20.3180 C   0  0  0  0  0  0  0  0  0  0  0  0
  -27.2250  -28.6000   20.1640 C   0  0  0  0  0  3  0  0  0  0  0  0
  -25.9110  -27.1540   18.7880 C   0  0  0  0  0  3  0  0  0  0  0  0
  -24.8120  -28.0440   18.9140 C   0  0  0  0  0  3  0  0  0  0  0  0
  -23.6670  -30.1270   19.8930 C   0  0  0  0  0  2  0  0  0  0  0  0
  -24.7910  -31.1410   21.9090 N   0  0  0  0  0  0  0  0  0  0  0  0
  -23.6860  -32.0760   23.6770 O   0  0  0  0  0  0  0  0  0  0  0  0
  -22.8250  -29.5530   22.2160 C   0  0  0  0  0  0  0  0  0  0  0  0
  -21.4940  -29.3870   22.1030 N   0  0  0  0  0  0  0  0  0  0  0  0
  -23.5140  -28.8530   22.9630 O   0  0  0  0  0  0  0  0  0  0  0  0
  -20.9900  -30.0040   21.4820 H   0  0  0  0  0  0  0  0  0  0  0  0
  -18.1260  -28.1370   22.6210 C   0  0  0  0  0  0  0  0  0  0  0  0
  -20.6990  -28.3630   22.7900 C   0  0  0  0  0  3  0  0  0  0  0  0
  -20.7600  -27.0140   22.0360 C   0  0  0  0  0  2  0  0  0  0  0  0
  -19.6080  -26.8240   21.0450 C   0  0  0  0  0  2  0  0  0  0  0  0
  -18.2600  -26.8860   21.7680 C   0  0  0  0  0  2  0  0  0  0  0  0
  -19.2710  -28.8390   23.0870 C   0  0  0  0  0  0  0  0  0  0  0  0
  -19.0870  -30.0110   23.8520 C   0  0  0  0  0  3  0  0  0  0  0  0
  -17.7950  -30.4830   24.1490 C   0  0  0  0  0  3  0  0  0  0  0  0
  -16.6670  -29.7770   23.6960 C   0  0  0  0  0  3  0  0  0  0  0  0
  -16.8330  -28.6050   22.9380 C   0  0  0  0  0  3  0  0  0  0  0  0
  -26.0510  -32.4120   23.7410 C   0  0  0  0  0  3  0  0  0  0  0  0
  -25.7510  -33.7610   24.2520 N   0  0  0  0  0  0  0  0  0  0  0  0
  -26.1120  -34.9070   23.6590 C   0  0  0  0  0  0  0  0  0  0  0  0
  -26.7940  -34.9370   22.6320 O   0  0  0  0  0  0  0  0  0  0  0  0
  -25.1450  -33.8120   25.0590 H   0  0  0  0  0  0  0  0  0  0  0  0
  -24.4480  -36.7940   23.5230 C   0  0  0  0  0  1  0  0  0  0  0  0
  -25.6460  -36.2290   24.3040 C   0  0  0  0  0  3  0  0  0  0  0  0
  -27.7590  -36.9230   25.3480 C   0  0  0  0  0  1  0  0  0  0  0  0
  -26.7110  -37.2530   24.3860 N   0  0  0  0  0  0  0  0  0  0  0  0
  -26.3210  -38.1580   24.6390 H   0  0  0  0  0  0  0  0  0  0  0  0
  -26.6010  -31.5020   24.9070 C   0  0  1  0  0  0  0  0  0  0  0  0
  -25.5440  -31.1590   25.9840 C   0  0  0  0  0  1  0  0  0  0  0  0
  -27.1550  -30.1680   24.3570 C   0  0  0  0  0  1  0  0  0  0  0  0
  -27.7840  -32.2090   25.6100 C   0  0  0  0  0  1  0  0  0  0  0  0
  -29.5870  -20.3910   19.2000 C   0  0  0  0  0  2  0  0  0  0  0  0
  -30.2200  -18.8780   20.0220 C   0  0  0  0  0  2  0  0  0  0  0  0
  -30.8690  -15.9210   19.8010 C   0  0  0  0  0  0  0  0  0  0  0  0
  -30.8840  -13.4110   19.0580 C   0  0  0  0  0  2  0  0  0  0  0  0
  -29.9410  -13.0690   17.8770 C   0  0  0  0  0  2  0  0  0  0  0  0
  -28.5090  -12.7980   18.3740 C   0  0  0  0  0  2  0  0  0  0  0  0
  -28.0610  -13.8320   19.4360 C   0  0  0  0  0  3  0  0  0  0  0  0
  -29.1330  -14.0920   20.5150 C   0  0  0  0  0  2  0  0  0  0  0  0
  -30.3210  -14.5990   19.8060 N   0  0  0  0  0  0  0  0  0  0  0  0
  -32.0990  -15.9080   19.6330 O   0  0  0  0  0  0  0  0  0  0  0  0
  -30.0810  -17.1990   19.7850 N   0  0  0  0  0  0  0  0  0  0  0  0
  -29.1030  -16.9510   19.7520 H   0  0  0  0  0  0  0  0  0  0  0  0
  -25.7460  -14.4220   20.3170 C   0  0  0  0  0  0  0  0  0  0  0  0
  -24.6820  -13.6600   20.7110 C   0  0  0  0  0  0  0  0  0  0  0  0
  -25.1130  -12.3010   20.6220 C   0  0  0  0  0  0  0  0  0  0  0  0
  -26.7540  -13.5290   20.0020 N   0  0  0  0  0  0  0  0  0  0  0  0
  -26.3880  -12.2450   20.2540 N   0  0  0  0  0  0  0  0  0  0  0  0
  -24.3620  -11.0520   20.8060 C   0  0  0  0  0  0  0  0  0  0  0  0
  -24.7620  -10.0780   21.7470 C   0  0  0  0  0  3  0  0  0  0  0  0
  -24.0090   -8.8970   21.9200 C   0  0  0  0  0  3  0  0  0  0  0  0
  -22.8400   -8.6810   21.1520 C   0  0  0  0  0  0  0  0  0  0  0  0
  -22.4580   -9.6430   20.2010 C   0  0  0  0  0  3  0  0  0  0  0  0
  -23.2120  -10.8150   20.0240 C   0  0  0  0  0  3  0  0  0  0  0  0
  -22.0600   -7.5520   21.2350 O   0  0  0  0  0  0  0  0  0  0  0  0
  -21.9240   -6.8570   22.4090 C   0  0  0  0  0  0  0  0  0  0  0  0
  -21.3540   -7.4420   23.5620 C   0  0  0  0  0  3  0  0  0  0  0  0
  -21.1700   -6.6700   24.7260 C   0  0  0  0  0  3  0  0  0  0  0  0
  -21.5420   -5.3140   24.7380 C   0  0  0  0  0  0  0  0  0  0  0  0
  -22.1040   -4.7270   23.5910 C   0  0  0  0  0  3  0  0  0  0  0  0
  -22.2910   -5.4960   22.4280 C   0  0  0  0  0  0  0  0  0  0  0  0
  -22.8130   -4.9200   21.3190 F   0  0  0  0  0  0  0  0  0  0  0  0
  -21.3580   -4.5690   25.8540 F   0  0  0  0  0  0  0  0  0  0  0  0
  -23.3090  -14.1640   21.0490 C   0  0  0  0  0  0  0  0  0  0  0  0
  -22.6000  -13.4680   21.9290 N   0  0  0  0  0  0  0  0  0  0  0  0
  -22.8770  -15.2110   20.5670 O   0  0  0  0  0  0  0  0  0  0  0  0
  -22.9630  -12.6210   22.3400 H   0  0  0  0  0  0  0  0  0  0  0  0
  -21.6800  -13.7860   22.1980 H   0  0  0  0  0  0  0  0  0  0  0  0
  -25.9320  -15.7930   20.1700 N   0  0  0  0  0  0  0  0  0  0  0  0
  -25.1800  -16.4560   20.3280 H   0  0  0  0  0  0  0  0  0  0  0  0
  -26.7590  -16.2220   19.7790 H   0  0  0  0  0  0  0  0  0  0  0  0
  1  4  1  0
  2  4  2  0
  3  6  2  0
  3  5  1  0
  4  7  1  0
  5  1  2  0
  6  2  1  0
  8 10  1  0
  8  6  1  0
  9 20  2  0
 10 15  1  0
 11 19  1  0
 11 21  1  0
 12 18  1  0
 12 14  1  0
 13 19  1  0
 14 13  1  0
 15 14  2  0
 16 17  1  0
 16 10  2  0
 17 12  2  0
 18 11  1  0
 19  9  1  0
 21 23  2  0
 22 21  1  0
 24 22  1  0
 25 34  2  0
 25 30  1  0
 26 22  1  0
 26 30  1  0
 27 26  1  0
 28 29  1  0
 28 27  1  0
 29 25  1  0
 30 31  2  0
 31 32  1  0
 33 32  2  0
 34 33  1  0
 35  9  1  0
 35 36  1  0
 35 45  1  0
 36 39  1  0
 37 36  1  0
 37 41  1  0
 38 37  2  0
 41 40  1  0
 41 43  1  0
 43 44  1  0
 43 42  1  0
 45 48  1  1
 45 46  1  0
 47 45  1  0
 49  5  1  0
 49 50  1  0
 51 57  1  0
 52 57  1  0
 53 54  1  0
 53 52  1  0
 55 54  1  0
 55 64  1  0
 55 56  1  0
 57 56  1  0
 58 51  2  0
 59 51  1  0
 59 50  1  0
 60 59  1  0
 61 62  2  0
 62 81  1  0
 63 62  1  0
 63 66  1  0
 64 65  1  0
 64 61  1  0
 65 63  2  0
 66 67  1  0
 67 68  2  0
 69 72  1  0
 69 68  1  0
 70 69  2  0
 71 70  1  0
 71 66  2  0
 72 73  1  0
 73 78  2  0
 73 74  1  0
 74 75  2  0
 75 76  1  0
 76 80  1  0
 77 76  2  0
 78 77  1  0
 79 78  1  0
 81 82  1  0
 82 85  1  0
 82 84  1  0
 83 81  2  0
 86 61  1  0
 86 87  1  0
 88 86  1  0
M  ISO  4   6 101   8 101  51 100  59 100
M  END
>  <TORSDO>  (24) 
F 18

>  <SCORE>  (24) 
-12.616

>  <name>  (24) 
23

>  <ligand_id>  (24) 
23

>  <original_smiles>  (24) 
[H]c1c([H])c([H])c2c(c1[H])C([H])([H])C([H])([H])C([H])([H])C2([H])N([H])C(=O)C1([H])N(C(=O)C([H])(N([H])C(=O)C([H])(N([H])C([H])([H])[H])C([H])([H])[H])C(C([H])([H])[H])(C([H])([H])[H])C([H])([H])[H])C([H])([H])c2c([H])c(Oc3c([H])c(C([H])([H])[H])c([H])c(C([H])([H])C([H])([H])N([H])C(=O)N4C([H])([H])C([H])([H])C([H])([H])C([H])(n5nc(-c6c([H])c([H])c(Oc7c([H])c([H])c(F)c([H])c7F)c([H])c6[H])c(C(=O)N([H])[H])c5N([H])[H])C4([H])[H])c3[H])c([H])c([H])c2C1([H])[H]

>  <smiles>  (24) 
[H]c1c([H])c([H])c2c(c1[H])C([H])([H])C([H])([H])C([H])([H])C2([H])N([H])C(=O)C1([H])N(C(=O)C([H])(N([H])C(=O)C([H])(N([H])C([H])([H])[H])C([H])([H])[H])C(C([H])([H])[H])(C([H])([H])[H])C([H])([H])[H])C([H])([H])c2c([H])c(Oc3c([H])c(C([H])([H])[H])c([H])c(C([H])([H])C([H])([H])N([H])C(=O)N4C([H])([H])C([H])([H])C([H])([H])C([H])(n5nc(-c6c([H])c([H])c(Oc7c([H])c([H])c(F)c([H])c7F)c([H])c6[H])c(C(=O)N([H])[H])c5N([H])[H])C4([H])[H])c3[H])c([H])c([H])c2C1([H])[H]

$$$$
24:0:0
     RDKit          3D

 90 98  0  0  1  0  0  0  0  0999 V2000
  -30.9660  -21.9620   22.8160 C   0  0  0  0  0  3  0  0  0  0  0  0
  -30.3240  -23.1590   23.0640 C   0  0  0  0  0  3  0  0  0  0  0  0
  -30.4650  -21.1240   21.8240 C   0  0  0  0  0  3  0  0  0  0  0  0
  -29.2920  -23.6010   22.2300 C   0  0  0  0  0  0  0  0  0  0  0  0
  -29.4110  -21.4280   20.9180 C   0  0  0  0  0  0  0  0  0  0  0  0
  -28.9310  -22.9670   20.9870 C   0  0  0  0  0  0  0  0  0  0  0  0
  -28.5320  -24.7870   22.8170 C   0  0  0  0  0  1  0  0  0  0  0  0
  -29.1020  -19.8520   20.2050 C   0  0  0  0  0  2  0  0  0  0  0  0
  -31.3770  -18.4680   19.8040 C   0  0  0  0  0  1  0  0  0  0  0  0
  -30.0050  -18.2710   20.4720 C   0  0  0  0  0  0  0  0  0  0  0  0
  -30.3770  -15.3200   20.2690 C   0  0  0  0  0  0  0  0  0  0  0  0
  -30.3370  -12.8650   19.3940 C   0  0  0  0  0  2  0  0  0  0  0  0
  -29.4350  -12.6460   18.1550 C   0  0  0  0  0  2  0  0  0  0  0  0
  -27.9810  -12.3760   18.5840 C   0  0  0  0  0  2  0  0  0  0  0  0
  -27.5190  -13.3390   19.7080 C   0  0  0  0  0  3  0  0  0  0  0  0
  -28.5630  -13.5110   20.8330 C   0  0  0  0  0  2  0  0  0  0  0  0
  -29.7850  -14.0240   20.1920 N   0  0  0  0  0  0  0  0  0  0  0  0
  -31.6060  -15.2750   20.1120 O   0  0  0  0  0  0  0  0  0  0  0  0
  -29.6540  -16.6280   20.3220 N   0  0  0  0  0  4  0  0  0  0  0  0
  -28.6570  -16.4660   20.3380 H   0  0  0  0  0  0  0  0  0  0  0  0
  -25.1420  -13.8890   20.4450 C   0  0  0  0  0  0  0  0  0  0  0  0
  -24.0820  -13.1110   20.8170 C   0  0  0  0  0  0  0  0  0  0  0  0
  -24.5580  -11.7640   20.8080 C   0  0  0  0  0  0  0  0  0  0  0  0
  -26.1910  -13.0180   20.2160 N   0  0  0  0  0  0  0  0  0  0  0  0
  -25.8530  -11.7330   20.5030 N   0  0  0  0  0  0  0  0  0  0  0  0
  -23.8350  -10.4990   21.0090 C   0  0  0  0  0  0  0  0  0  0  0  0
  -24.2730   -9.5390   21.9460 C   0  0  0  0  0  3  0  0  0  0  0  0
  -23.5500   -8.3410   22.1360 C   0  0  0  0  0  3  0  0  0  0  0  0
  -22.3720   -8.0960   21.3890 C   0  0  0  0  0  0  0  0  0  0  0  0
  -21.9550   -9.0460   20.4400 C   0  0  0  0  0  3  0  0  0  0  0  0
  -22.6790  -10.2350   20.2480 C   0  0  0  0  0  3  0  0  0  0  0  0
  -21.6190   -6.9510   21.4890 O   0  0  0  0  0  0  0  0  0  0  0  0
  -21.5940   -6.2050   22.6400 C   0  0  0  0  0  0  0  0  0  0  0  0
  -21.1990   -6.7550   23.8790 C   0  0  0  0  0  3  0  0  0  0  0  0
  -21.1210   -5.9340   25.0210 C   0  0  0  0  0  3  0  0  0  0  0  0
  -21.4250   -4.5620   24.9260 C   0  0  0  0  0  0  0  0  0  0  0  0
  -21.8130   -4.0120   23.6910 C   0  0  0  0  0  3  0  0  0  0  0  0
  -21.8940   -4.8290   22.5520 C   0  0  0  0  0  0  0  0  0  0  0  0
  -22.2480   -4.2890   21.3600 F   0  0  0  0  0  0  0  0  0  0  0  0
  -21.3420   -3.7720   26.0200 F   0  0  0  0  0  0  0  0  0  0  0  0
  -22.6790  -13.5840   21.0610 C   0  0  0  0  0  0  0  0  0  0  0  0
  -21.9440  -12.9020   21.9280 N   0  0  0  0  0  0  0  0  0  0  0  0
  -22.2440  -14.5970   20.5120 O   0  0  0  0  0  0  0  0  0  0  0  0
  -22.3080  -12.0870   22.3990 H   0  0  0  0  0  0  0  0  0  0  0  0
  -20.9990  -13.2000   22.1270 H   0  0  0  0  0  0  0  0  0  0  0  0
  -25.2950  -15.2580   20.2520 N   0  0  0  0  0  0  0  0  0  0  0  0
  -24.5150  -15.8980   20.3520 H   0  0  0  0  0  0  0  0  0  0  0  0
  -26.1210  -15.7000   19.8700 H   0  0  0  0  0  0  0  0  0  0  0  0
  -28.0720  -24.2110   20.1080 C   0  0  0  0  0  2  0  0  0  0  0  0
  -28.1900  -25.8640   20.3130 O   0  0  0  0  0  0  0  0  0  0  0  0
  -24.6340  -31.8730   23.2200 C   0  0  0  0  0  0  0  0  0  0  0  0
  -27.1690  -26.9550   20.2280 C   0  0  0  0  0  0  0  0  0  0  0  0
  -23.4330  -30.4730   21.5890 C   0  0  0  0  0  3  0  0  0  0  0  0
  -24.8730  -28.8500   20.1720 C   0  0  0  0  0  0  0  0  0  0  0  0
  -26.0010  -30.6680   21.4410 C   0  0  0  0  0  2  0  0  0  0  0  0
  -26.0630  -29.2520   20.7920 C   0  0  0  0  0  0  0  0  0  0  0  0
  -27.2000  -28.3240   20.7960 C   0  0  0  0  0  3  0  0  0  0  0  0
  -25.9480  -26.7050   19.5580 C   0  0  0  0  0  3  0  0  0  0  0  0
  -24.8410  -27.5960   19.5360 C   0  0  0  0  0  3  0  0  0  0  0  0
  -23.6580  -29.7780   20.2160 C   0  0  0  0  0  2  0  0  0  0  0  0
  -24.7120  -31.0340   22.1340 N   0  0  0  0  0  0  0  0  0  0  0  0
  -23.5470  -32.1680   23.7410 O   0  0  0  0  0  0  0  0  0  0  0  0
  -22.7370  -29.4850   22.5610 C   0  0  0  0  0  0  0  0  0  0  0  0
  -21.4050  -29.3300   22.4430 N   0  0  0  0  0  0  0  0  0  0  0  0
  -23.4010  -28.8600   23.3910 O   0  0  0  0  0  0  0  0  0  0  0  0
  -20.9220  -29.8860   21.7520 H   0  0  0  0  0  0  0  0  0  0  0  0
  -18.0150  -28.1410   22.9590 C   0  0  0  0  0  0  0  0  0  0  0  0
  -20.5780  -28.4010   23.2190 C   0  0  0  0  0  3  0  0  0  0  0  0
  -20.6720  -26.9650   22.6500 C   0  0  0  0  0  2  0  0  0  0  0  0
  -19.5680  -26.6420   21.6400 C   0  0  0  0  0  2  0  0  0  0  0  0
  -18.1870  -26.7930   22.2840 C   0  0  0  0  0  2  0  0  0  0  0  0
  -19.1370  -28.9050   23.3830 C   0  0  0  0  0  0  0  0  0  0  0  0
  -18.9160  -30.1680   23.9740 C   0  0  0  0  0  3  0  0  0  0  0  0
  -17.6110  -30.6660   24.1480 C   0  0  0  0  0  3  0  0  0  0  0  0
  -16.5070  -29.9010   23.7400 C   0  0  0  0  0  3  0  0  0  0  0  0
  -16.7100  -28.6410   23.1510 C   0  0  0  0  0  3  0  0  0  0  0  0
  -25.9070  -32.5150   23.8490 C   0  0  0  0  0  3  0  0  0  0  0  0
  -26.4120  -31.7500   25.1350 C   0  0  1  0  0  0  0  0  0  0  0  0
  -25.3120  -31.5280   26.2010 C   0  0  0  0  0  1  0  0  0  0  0  0
  -26.9910  -30.3670   24.7630 C   0  0  0  0  0  1  0  0  0  0  0  0
  -27.5650  -32.5420   25.7960 C   0  0  0  0  0  1  0  0  0  0  0  0
  -25.5930  -33.9140   24.1880 N   0  0  0  0  0  0  0  0  0  0  0  0
  -25.9120  -34.9770   23.4370 C   0  0  0  0  0  0  0  0  0  0  0  0
  -26.5630  -34.8820   22.3950 O   0  0  0  0  0  0  0  0  0  0  0  0
  -25.0190  -34.0600   25.0050 H   0  0  0  0  0  0  0  0  0  0  0  0
  -24.1680  -36.7670   23.1460 C   0  0  0  0  0  1  0  0  0  0  0  0
  -25.4360  -36.3640   23.9150 C   0  0  0  0  0  3  0  0  0  0  0  0
  -27.5910  -37.2590   24.6810 C   0  0  0  0  0  1  0  0  0  0  0  0
  -26.4600  -37.4230   23.7730 N   0  0  0  0  0  0  0  0  0  0  0  0
  -26.0530  -38.3420   23.9330 H   0  0  0  0  0  0  0  0  0  0  0  0
  1  2  1  0
  3  1  2  0
  4  7  1  0
  4  2  2  0
  5  6  2  0
  5  3  1  0
  6  4  1  0
  8 10  1  0
  8  5  1  0
  9 10  1  0
 11 19  1  0
 12 17  1  0
 13 14  1  0
 13 12  1  0
 15 14  1  0
 15 24  1  0
 15 16  1  0
 17 11  1  0
 17 16  1  0
 18 11  2  0
 19 20  1  0
 19 10  2  0
 21 22  2  0
 22 41  1  0
 23 22  1  0
 23 26  1  0
 24 21  1  0
 24 25  1  0
 25 23  2  0
 26 27  1  0
 27 28  2  0
 29 32  1  0
 29 28  1  0
 30 29  2  0
 31 30  1  0
 31 26  2  0
 32 33  1  0
 33 34  1  0
 34 35  2  0
 36 35  1  0
 36 40  1  0
 37 36  2  0
 38 33  2  0
 38 37  1  0
 39 38  1  0
 41 42  1  0
 42 45  1  0
 42 44  1  0
 43 41  2  0
 46 47  1  0
 46 21  1  0
 48 46  1  0
 49 50  1  0
 49  6  1  0
 51 62  2  0
 52 50  1  0
 52 57  1  0
 53 61  1  0
 53 63  1  0
 54 60  1  0
 54 56  1  0
 55 61  1  0
 56 57  2  0
 56 55  1  0
 58 52  2  0
 59 58  1  0
 59 54  2  0
 60 53  1  0
 61 51  1  0
 63 65  2  0
 64 63  1  0
 66 64  1  0
 67 76  2  0
 67 72  1  0
 68 64  1  0
 68 72  1  0
 69 68  1  0
 70 71  1  0
 70 69  1  0
 71 67  1  0
 72 73  2  0
 73 74  1  0
 75 74  2  0
 76 75  1  0
 77 51  1  0
 77 82  1  0
 77 78  1  0
 78 81  1  1
 78 79  1  0
 80 78  1  0
 82 85  1  0
 83 87  1  0
 83 82  1  0
 84 83  2  0
 87 86  1  0
 89 87  1  0
 89 90  1  0
 89 88  1  0
M  ISO  4  11 100  19 100  49 101  50 101
M  END
>  <TORSDO>  (25) 
F 19

>  <SCORE>  (25) 
-16.597

>  <name>  (25) 
24

>  <ligand_id>  (25) 
24

>  <original_smiles>  (25) 
[H]c1c([H])c([H])c2c(c1[H])C([H])([H])C([H])([H])C([H])([H])C2([H])N([H])C(=O)C1([H])N(C(=O)C([H])(N([H])C(=O)C([H])(N([H])C([H])([H])[H])C([H])([H])[H])C(C([H])([H])[H])(C([H])([H])[H])C([H])([H])[H])C([H])([H])c2c([H])c(OC([H])([H])c3c(C([H])([H])[H])c([H])c([H])c([H])c3C([H])([H])C([H])(N([H])C(=O)N3C([H])([H])C([H])([H])C([H])([H])C([H])(n4nc(-c5c([H])c([H])c(Oc6c([H])c([H])c(F)c([H])c6F)c([H])c5[H])c(C(=O)N([H])[H])c4N([H])[H])C3([H])[H])C([H])([H])[H])c([H])c([H])c2C1([H])[H]

>  <smiles>  (25) 
[H]c1c([H])c([H])c2c(c1[H])C([H])([H])C([H])([H])C([H])([H])C2([H])N([H])C(=O)C1([H])N(C(=O)C([H])(N([H])C(=O)C([H])(N([H])C([H])([H])[H])C([H])([H])[H])C(C([H])([H])[H])(C([H])([H])[H])C([H])([H])[H])C([H])([H])c2c([H])c(OC([H])([H])c3c(C([H])([H])[H])c([H])c([H])c([H])c3C([H])([H])C([H])(N([H])C(=O)N3C([H])([H])C([H])([H])C([H])([H])C([H])(n4nc(-c5c([H])c([H])c(Oc6c([H])c([H])c(F)c([H])c6F)c([H])c5[H])c(C(=O)N([H])[H])c4N([H])[H])C3([H])[H])C([H])([H])[H])c([H])c([H])c2C1([H])[H]

$$$$
25:0:0
     RDKit          3D

 90 99  0  0  1  0  0  0  0  0999 V2000
  -29.0610  -19.6010   19.1470 C   0  0  0  0  0  3  0  0  0  0  0  0
  -28.8370  -21.0560   19.0140 C   0  0  0  0  0  0  0  0  0  0  0  0
  -29.0870  -21.8500   20.1280 C   0  0  0  0  0  0  0  0  0  0  0  0
  -29.6120  -19.1310   20.3290 C   0  0  0  0  0  0  0  0  0  0  0  0
  -28.5010  -21.6860   17.6850 C   0  0  0  0  0  2  0  0  0  0  0  0
  -28.7190  -23.2240   17.6100 C   0  0  0  0  0  2  0  0  0  0  0  0
  -29.6870  -23.8090   18.6690 C   0  0  0  0  0  2  0  0  0  0  0  0
  -29.2090  -23.4930   20.0980 C   0  0  0  0  0  3  0  0  0  0  0  0
  -29.7140  -20.6510   21.3450 S   0  0  0  0  0  0  0  0  0  0  0  0
  -30.3030  -17.6860   20.7200 C   0  0  0  0  0  2  0  0  0  0  0  0
  -30.5710  -14.9990   20.3120 C   0  0  0  0  0  0  0  0  0  0  0  0
  -30.4250  -12.6600   19.3370 C   0  0  0  0  0  2  0  0  0  0  0  0
  -29.4750  -12.6210   18.1180 C   0  0  0  0  0  2  0  0  0  0  0  0
  -28.0170  -12.4120   18.5670 C   0  0  0  0  0  2  0  0  0  0  0  0
  -27.6250  -13.3200   19.7620 C   0  0  0  0  0  3  0  0  0  0  0  0
  -28.6990  -13.3290   20.8700 C   0  0  0  0  0  2  0  0  0  0  0  0
  -29.9530  -13.7510   20.2360 N   0  0  0  0  0  0  0  0  0  0  0  0
  -31.7810  -15.0390   20.0670 O   0  0  0  0  0  0  0  0  0  0  0  0
  -29.8260  -16.2040   20.4620 N   0  0  0  0  0  0  0  0  0  0  0  0
  -28.8300  -16.0650   20.5450 H   0  0  0  0  0  0  0  0  0  0  0  0
  -25.2530  -13.8800   20.5380 C   0  0  0  0  0  0  0  0  0  0  0  0
  -24.1960  -13.0990   20.9140 C   0  0  0  0  0  0  0  0  0  0  0  0
  -24.6670  -11.7500   20.8710 C   0  0  0  0  0  0  0  0  0  0  0  0
  -26.2970  -13.0090   20.2790 N   0  0  0  0  0  0  0  0  0  0  0  0
  -25.9550  -11.7220   20.5450 N   0  0  0  0  0  0  0  0  0  0  0  0
  -23.9490  -10.4840   21.0610 C   0  0  0  0  0  0  0  0  0  0  0  0
  -24.3910   -9.5140   21.9880 C   0  0  0  0  0  3  0  0  0  0  0  0
  -23.6710   -8.3130   22.1660 C   0  0  0  0  0  3  0  0  0  0  0  0
  -22.4940   -8.0730   21.4180 C   0  0  0  0  0  0  0  0  0  0  0  0
  -22.0720   -9.0320   20.4810 C   0  0  0  0  0  3  0  0  0  0  0  0
  -22.7920  -10.2240   20.3010 C   0  0  0  0  0  3  0  0  0  0  0  0
  -21.7430   -6.9250   21.5060 O   0  0  0  0  0  0  0  0  0  0  0  0
  -21.6960   -6.1830   22.6590 C   0  0  0  0  0  0  0  0  0  0  0  0
  -21.2480   -6.7300   23.8800 C   0  0  0  0  0  3  0  0  0  0  0  0
  -21.1500   -5.9140   25.0240 C   0  0  0  0  0  3  0  0  0  0  0  0
  -21.4900   -4.5500   24.9480 C   0  0  0  0  0  0  0  0  0  0  0  0
  -21.9320   -4.0020   23.7320 C   0  0  0  0  0  3  0  0  0  0  0  0
  -22.0320   -4.8160   22.5900 C   0  0  0  0  0  0  0  0  0  0  0  0
  -22.4380   -4.2770   21.4150 F   0  0  0  0  0  0  0  0  0  0  0  0
  -21.3880   -3.7640   26.0450 F   0  0  0  0  0  0  0  0  0  0  0  0
  -22.8010  -13.5690   21.2000 C   0  0  0  0  0  0  0  0  0  0  0  0
  -22.0810  -12.8630   22.0650 N   0  0  0  0  0  0  0  0  0  0  0  0
  -22.3560  -14.5960   20.6900 O   0  0  0  0  0  0  0  0  0  0  0  0
  -22.4510  -12.0310   22.4970 H   0  0  0  0  0  0  0  0  0  0  0  0
  -21.1440  -13.1620   22.2970 H   0  0  0  0  0  0  0  0  0  0  0  0
  -25.4090  -15.2530   20.3640 N   0  0  0  0  0  0  0  0  0  0  0  0
  -24.6450  -15.9080   20.4920 H   0  0  0  0  0  0  0  0  0  0  0  0
  -26.2410  -15.6900   19.9880 H   0  0  0  0  0  0  0  0  0  0  0  0
  -28.0700  -24.6790   20.4620 C   0  0  0  0  0  2  0  0  0  0  0  0
  -28.3010  -26.2200   20.3290 O   0  0  0  0  0  0  0  0  0  0  0  0
  -24.6020  -31.8950   23.2570 C   0  0  0  0  0  0  0  0  0  0  0  0
  -27.2280  -27.1840   20.2730 C   0  0  0  0  0  0  0  0  0  0  0  0
  -23.4250  -30.4910   21.6080 C   0  0  0  0  0  3  0  0  0  0  0  0
  -24.8940  -28.9170   20.2040 C   0  0  0  0  0  0  0  0  0  0  0  0
  -25.9790  -30.7660   21.4710 C   0  0  0  0  0  2  0  0  0  0  0  0
  -26.0640  -29.3730   20.8250 C   0  0  0  0  0  0  0  0  0  0  0  0
  -27.2320  -28.5210   20.8420 C   0  0  0  0  0  3  0  0  0  0  0  0
  -26.0360  -26.8360   19.6020 C   0  0  0  0  0  3  0  0  0  0  0  0
  -24.8940  -27.6650   19.5750 C   0  0  0  0  0  3  0  0  0  0  0  0
  -23.6620  -29.8090   20.2340 C   0  0  0  0  0  2  0  0  0  0  0  0
  -24.6870  -31.0720   22.1670 N   0  0  0  0  0  0  0  0  0  0  0  0
  -23.5100  -32.1780   23.7720 O   0  0  0  0  0  0  0  0  0  0  0  0
  -22.7390  -29.4850   22.5650 C   0  0  0  0  0  0  0  0  0  0  0  0
  -21.4140  -29.3040   22.4180 N   0  0  0  0  0  0  0  0  0  0  0  0
  -23.4010  -28.8680   23.4030 O   0  0  0  0  0  0  0  0  0  0  0  0
  -20.9360  -29.8500   21.7150 H   0  0  0  0  0  0  0  0  0  0  0  0
  -18.0310  -28.0920   22.8780 C   0  0  0  0  0  0  0  0  0  0  0  0
  -20.5850  -28.3670   23.1800 C   0  0  0  0  0  3  0  0  0  0  0  0
  -20.7000  -26.9330   22.6130 C   0  0  0  0  0  2  0  0  0  0  0  0
  -19.6140  -26.6020   21.5850 C   0  0  0  0  0  2  0  0  0  0  0  0
  -18.2220  -26.7420   22.2090 C   0  0  0  0  0  2  0  0  0  0  0  0
  -19.1400  -28.8620   23.3200 C   0  0  0  0  0  0  0  0  0  0  0  0
  -18.9060  -30.1250   23.9070 C   0  0  0  0  0  3  0  0  0  0  0  0
  -17.5950  -30.6180   24.0550 C   0  0  0  0  0  3  0  0  0  0  0  0
  -16.5020  -29.8450   23.6290 C   0  0  0  0  0  3  0  0  0  0  0  0
  -16.7200  -28.5840   23.0470 C   0  0  0  0  0  3  0  0  0  0  0  0
  -25.8720  -32.5350   23.8970 C   0  0  0  0  0  3  0  0  0  0  0  0
  -25.5580  -33.9390   24.2050 N   0  0  0  0  0  0  0  0  0  0  0  0
  -25.9010  -34.9850   23.4410 C   0  0  0  0  0  0  0  0  0  0  0  0
  -26.5810  -34.8700   22.4190 O   0  0  0  0  0  0  0  0  0  0  0  0
  -24.9520  -34.1030   24.9960 H   0  0  0  0  0  0  0  0  0  0  0  0
  -24.1820  -36.7830   23.0550 C   0  0  0  0  0  1  0  0  0  0  0  0
  -25.4150  -36.3810   23.8820 C   0  0  0  0  0  3  0  0  0  0  0  0
  -27.5410  -37.2700   24.7280 C   0  0  0  0  0  1  0  0  0  0  0  0
  -26.4520  -37.4300   23.7690 N   0  0  0  0  0  0  0  0  0  0  0  0
  -26.0450  -38.3520   23.9020 H   0  0  0  0  0  0  0  0  0  0  0  0
  -26.3570  -31.7820   25.1970 C   0  0  1  0  0  0  0  0  0  0  0  0
  -25.2400  -31.5620   26.2440 C   0  0  0  0  0  1  0  0  0  0  0  0
  -26.9450  -30.3960   24.8420 C   0  0  0  0  0  1  0  0  0  0  0  0
  -27.4960  -32.5830   25.8690 C   0  0  0  0  0  1  0  0  0  0  0  0
  1  4  2  0
  2  1  1  0
  2  3  2  0
  3  9  1  0
  4 10  1  0
  4  9  1  0
  5  2  1  0
  6  5  1  0
  6  7  1  0
  7  8  1  0
  8  3  1  0
  8 49  1  0
 11 19  1  0
 12 17  1  0
 13 14  1  0
 13 12  1  0
 15 14  1  0
 15 24  1  0
 15 16  1  0
 17 11  1  0
 17 16  1  0
 18 11  2  0
 19 20  1  0
 19 10  1  0
 21 22  2  0
 22 41  1  0
 23 22  1  0
 23 26  1  0
 24 21  1  0
 24 25  1  0
 25 23  2  0
 26 27  1  0
 27 28  2  0
 29 32  1  0
 29 28  1  0
 30 29  2  0
 31 30  1  0
 31 26  2  0
 32 33  1  0
 33 34  1  0
 34 35  2  0
 36 35  1  0
 36 40  1  0
 37 36  2  0
 38 33  2  0
 38 37  1  0
 39 38  1  0
 41 42  1  0
 42 45  1  0
 42 44  1  0
 43 41  2  0
 46 47  1  0
 46 21  1  0
 48 46  1  0
 50 49  1  0
 51 62  2  0
 52 50  1  0
 52 57  1  0
 53 61  1  0
 53 63  1  0
 54 60  1  0
 54 56  1  0
 55 61  1  0
 56 57  2  0
 56 55  1  0
 58 52  2  0
 59 58  1  0
 59 54  2  0
 60 53  1  0
 61 51  1  0
 63 65  2  0
 64 63  1  0
 66 64  1  0
 67 76  2  0
 67 72  1  0
 68 64  1  0
 68 72  1  0
 69 68  1  0
 70 71  1  0
 70 69  1  0
 71 67  1  0
 72 73  2  0
 73 74  1  0
 75 74  2  0
 76 75  1  0
 77 51  1  0
 77 78  1  0
 77 87  1  0
 78 81  1  0
 79 83  1  0
 79 78  1  0
 80 79  2  0
 83 82  1  0
 85 83  1  0
 85 86  1  0
 85 84  1  0
 87 90  1  1
 87 88  1  0
 89 87  1  0
M  ISO  4  11 100  19 100  49 101  50 101
M  END
>  <TORSDO>  (26) 
F 18

>  <SCORE>  (26) 
-14.608

>  <name>  (26) 
25

>  <ligand_id>  (26) 
25

>  <original_smiles>  (26) 
[H]c1c([H])c([H])c2c(c1[H])C([H])([H])C([H])([H])C([H])([H])C2([H])N([H])C(=O)C1([H])N(C(=O)C([H])(N([H])C(=O)C([H])(N([H])C([H])([H])[H])C([H])([H])[H])C(C([H])([H])[H])(C([H])([H])[H])C([H])([H])[H])C([H])([H])c2c([H])c(OC([H])([H])C3([H])c4sc(C([H])([H])N([H])C(=O)N5C([H])([H])C([H])([H])C([H])([H])C([H])(n6nc(-c7c([H])c([H])c(Oc8c([H])c([H])c(F)c([H])c8F)c([H])c7[H])c(C(=O)N([H])[H])c6N([H])[H])C5([H])[H])c([H])c4C([H])([H])C([H])([H])C3([H])[H])c([H])c([H])c2C1([H])[H]

>  <smiles>  (26) 
[H]c1c([H])c([H])c2c(c1[H])C([H])([H])C([H])([H])C([H])([H])C2([H])N([H])C(=O)C1([H])N(C(=O)C([H])(N([H])C(=O)C([H])(N([H])C([H])([H])[H])C([H])([H])[H])C(C([H])([H])[H])(C([H])([H])[H])C([H])([H])[H])C([H])([H])c2c([H])c(OC([H])([H])C3([H])c4sc(C([H])([H])N([H])C(=O)N5C([H])([H])C([H])([H])C([H])([H])C([H])(n6nc(-c7c([H])c([H])c(Oc8c([H])c([H])c(F)c([H])c8F)c([H])c7[H])c(C(=O)N([H])[H])c6N([H])[H])C5([H])[H])c([H])c4C([H])([H])C([H])([H])C3([H])[H])c([H])c([H])c2C1([H])[H]

$$$$
26:0:0
     RDKit          3D

 88 97  0  0  1  0  0  0  0  0999 V2000
  -29.8970  -20.9340   18.6200 C   0  0  0  0  0  3  0  0  0  0  0  0
  -29.4640  -22.3090   18.9090 C   0  0  0  0  0  3  0  0  0  0  0  0
  -28.6410  -21.5450   20.9550 C   0  0  0  0  0  3  0  0  0  0  0  0
  -29.7250  -19.7700   19.4660 C   0  0  0  0  0  0  0  0  0  0  0  0
  -29.0880  -20.1350   20.6750 C   0  0  0  0  0  0  0  0  0  0  0  0
  -28.7880  -22.7590   20.1020 C   0  0  0  0  0  0  0  0  0  0  0  0
  -30.1980  -18.2110   19.1010 C   0  0  0  0  0  2  0  0  0  0  0  0
  -28.8550  -18.8850   21.5960 C   0  0  0  0  0  2  0  0  0  0  0  0
  -29.7290  -17.5220   21.4020 C   0  0  0  0  0  2  0  0  0  0  0  0
  -29.8280  -16.8220   19.9800 C   0  0  0  0  0  3  0  0  0  0  0  0
  -30.6290  -15.2690   19.8040 C   0  0  0  0  0  0  0  0  0  0  0  0
  -30.5590  -12.8330   18.9240 C   0  0  0  0  0  2  0  0  0  0  0  0
  -29.5410  -12.6620   17.7670 C   0  0  0  0  0  2  0  0  0  0  0  0
  -28.1310  -12.3790   18.3180 C   0  0  0  0  0  2  0  0  0  0  0  0
  -27.7690  -13.3220   19.4910 C   0  0  0  0  0  3  0  0  0  0  0  0
  -28.9040  -13.4560   20.5260 C   0  0  0  0  0  2  0  0  0  0  0  0
  -30.0910  -13.9540   19.8170 N   0  0  0  0  0  0  0  0  0  0  0  0
  -31.8200  -15.2760   19.4620 O   0  0  0  0  0  0  0  0  0  0  0  0
  -25.4880  -13.8460   20.5040 C   0  0  0  0  0  0  0  0  0  0  0  0
  -24.4580  -13.0530   20.9270 C   0  0  0  0  0  0  0  0  0  0  0  0
  -24.9060  -11.7050   20.7730 C   0  0  0  0  0  0  0  0  0  0  0  0
  -26.4930  -12.9830   20.1080 N   0  0  0  0  0  0  0  0  0  0  0  0
  -26.1620  -11.6840   20.3370 N   0  0  0  0  0  0  0  0  0  0  0  0
  -24.1880  -10.4370   20.9590 C   0  0  0  0  0  0  0  0  0  0  0  0
  -24.6350   -9.4590   21.8750 C   0  0  0  0  0  3  0  0  0  0  0  0
  -23.9140   -8.2590   22.0500 C   0  0  0  0  0  3  0  0  0  0  0  0
  -22.7310   -8.0270   21.3090 C   0  0  0  0  0  0  0  0  0  0  0  0
  -22.3030   -8.9920   20.3810 C   0  0  0  0  0  3  0  0  0  0  0  0
  -23.0240  -10.1840   20.2040 C   0  0  0  0  0  3  0  0  0  0  0  0
  -21.9800   -6.8780   21.3940 O   0  0  0  0  0  0  0  0  0  0  0  0
  -21.8530   -6.1860   22.5720 C   0  0  0  0  0  0  0  0  0  0  0  0
  -21.3110   -6.7820   23.7310 C   0  0  0  0  0  3  0  0  0  0  0  0
  -21.1350   -6.0140   24.9000 C   0  0  0  0  0  3  0  0  0  0  0  0
  -21.4910   -4.6530   24.9090 C   0  0  0  0  0  0  0  0  0  0  0  0
  -22.0260   -4.0570   23.7550 C   0  0  0  0  0  3  0  0  0  0  0  0
  -22.2030   -4.8220   22.5880 C   0  0  0  0  0  0  0  0  0  0  0  0
  -22.7000   -4.2370   21.4710 F   0  0  0  0  0  0  0  0  0  0  0  0
  -21.3150   -3.9130   26.0300 F   0  0  0  0  0  0  0  0  0  0  0  0
  -23.0970  -13.5200   21.3540 C   0  0  0  0  0  0  0  0  0  0  0  0
  -22.4510  -12.7850   22.2520 N   0  0  0  0  0  0  0  0  0  0  0  0
  -22.6200  -14.5710   20.9270 O   0  0  0  0  0  0  0  0  0  0  0  0
  -22.8520  -11.9340   22.6170 H   0  0  0  0  0  0  0  0  0  0  0  0
  -21.5410  -13.0780   22.5800 H   0  0  0  0  0  0  0  0  0  0  0  0
  -25.6460  -15.2240   20.3950 N   0  0  0  0  0  0  0  0  0  0  0  0
  -24.9020  -15.8730   20.6280 H   0  0  0  0  0  0  0  0  0  0  0  0
  -26.4670  -15.6820   20.0230 H   0  0  0  0  0  0  0  0  0  0  0  0
  -27.9900  -24.2960   20.3100 C   0  0  0  0  0  2  0  0  0  0  0  0
  -28.3760  -25.8830   20.1950 O   0  0  0  0  0  0  0  0  0  0  0  0
  -24.7290  -31.7990   23.1580 C   0  0  0  0  0  0  0  0  0  0  0  0
  -27.3680  -26.9800   20.1460 C   0  0  0  0  0  0  0  0  0  0  0  0
  -23.5750  -30.4130   21.4840 C   0  0  0  0  0  3  0  0  0  0  0  0
  -25.0600  -28.8380   20.0750 C   0  0  0  0  0  0  0  0  0  0  0  0
  -26.1430  -30.6450   21.3870 C   0  0  0  0  0  2  0  0  0  0  0  0
  -26.2340  -29.2450   20.7210 C   0  0  0  0  0  0  0  0  0  0  0  0
  -27.3860  -28.3380   20.7320 C   0  0  0  0  0  3  0  0  0  0  0  0
  -26.1650  -26.7290   19.4480 C   0  0  0  0  0  3  0  0  0  0  0  0
  -25.0490  -27.6000   19.4190 C   0  0  0  0  0  3  0  0  0  0  0  0
  -23.8340  -29.7480   20.1060 C   0  0  0  0  0  2  0  0  0  0  0  0
  -24.8360  -30.9780   22.0640 N   0  0  0  0  0  0  0  0  0  0  0  0
  -23.6290  -32.0770   23.6600 O   0  0  0  0  0  0  0  0  0  0  0  0
  -22.8700  -29.4010   22.4260 C   0  0  0  0  0  0  0  0  0  0  0  0
  -21.5440  -29.2310   22.2750 N   0  0  0  0  0  0  0  0  0  0  0  0
  -23.5240  -28.7690   23.2600 O   0  0  0  0  0  0  0  0  0  0  0  0
  -21.0700  -29.7920   21.5800 H   0  0  0  0  0  0  0  0  0  0  0  0
  -18.1530  -28.0210   22.7280 C   0  0  0  0  0  0  0  0  0  0  0  0
  -20.7110  -28.2820   23.0210 C   0  0  0  0  0  3  0  0  0  0  0  0
  -20.8170  -26.8590   22.4250 C   0  0  0  0  0  2  0  0  0  0  0  0
  -19.7240  -26.5530   21.3940 C   0  0  0  0  0  2  0  0  0  0  0  0
  -18.3360  -26.6850   22.0280 C   0  0  0  0  0  2  0  0  0  0  0  0
  -19.2670  -28.7770   23.1800 C   0  0  0  0  0  0  0  0  0  0  0  0
  -19.0390  -30.0260   23.7990 C   0  0  0  0  0  3  0  0  0  0  0  0
  -17.7320  -30.5200   23.9660 C   0  0  0  0  0  3  0  0  0  0  0  0
  -16.6330  -29.7610   23.5290 C   0  0  0  0  0  3  0  0  0  0  0  0
  -16.8440  -28.5130   22.9160 C   0  0  0  0  0  3  0  0  0  0  0  0
  -25.9850  -32.4420   23.8200 C   0  0  0  0  0  3  0  0  0  0  0  0
  -25.6470  -33.8320   24.1740 N   0  0  0  0  0  0  0  0  0  0  0  0
  -25.9490  -34.9070   23.4340 C   0  0  0  0  0  0  0  0  0  0  0  0
  -26.6030  -34.8350   22.3910 O   0  0  0  0  0  0  0  0  0  0  0  0
  -25.0630  -33.9600   24.9880 H   0  0  0  0  0  0  0  0  0  0  0  0
  -24.1670  -36.6680   23.1710 C   0  0  0  0  0  1  0  0  0  0  0  0
  -25.4480  -36.2810   23.9270 C   0  0  0  0  0  3  0  0  0  0  0  0
  -27.5860  -37.2160   24.6940 C   0  0  0  0  0  1  0  0  0  0  0  0
  -26.4500  -37.3600   23.7870 N   0  0  0  0  0  0  0  0  0  0  0  0
  -26.0270  -38.2690   23.9500 H   0  0  0  0  0  0  0  0  0  0  0  0
  -26.4780  -31.6600   25.1010 C   0  0  1  0  0  0  0  0  0  0  0  0
  -25.3630  -31.3980   26.1400 C   0  0  0  0  0  1  0  0  0  0  0  0
  -27.0840  -30.2920   24.7130 C   0  0  0  0  0  1  0  0  0  0  0  0
  -27.6060  -32.4570   25.7990 C   0  0  0  0  0  1  0  0  0  0  0  0
  1  2  2  0
  1  4  1  0
  2  6  1  0
  4  5  2  0
  5  3  1  0
  5  8  1  0
  6 47  1  0
  6  3  2  0
  7  4  1  0
  7 10  1  0
  9  8  1  0
 10 11  1  0
 10  9  1  0
 11 17  1  0
 12 17  1  0
 13 14  1  0
 13 12  1  0
 15 14  1  0
 15 22  1  0
 15 16  1  0
 17 16  1  0
 18 11  2  0
 19 20  2  0
 20 39  1  0
 21 20  1  0
 21 24  1  0
 22 23  1  0
 22 19  1  0
 23 21  2  0
 24 25  1  0
 25 26  2  0
 27 30  1  0
 27 26  1  0
 28 27  2  0
 29 28  1  0
 29 24  2  0
 30 31  1  0
 31 36  2  0
 31 32  1  0
 32 33  2  0
 33 34  1  0
 34 38  1  0
 35 34  2  0
 36 35  1  0
 37 36  1  0
 39 40  1  0
 40 43  1  0
 40 42  1  0
 41 39  2  0
 44 19  1  0
 44 45  1  0
 46 44  1  0
 48 47  1  0
 49 60  2  0
 50 48  1  0
 50 55  1  0
 51 59  1  0
 51 61  1  0
 52 58  1  0
 52 54  1  0
 53 59  1  0
 54 55  2  0
 54 53  1  0
 56 50  2  0
 57 56  1  0
 57 52  2  0
 58 51  1  0
 59 49  1  0
 61 63  2  0
 62 61  1  0
 64 62  1  0
 65 74  2  0
 65 70  1  0
 66 62  1  0
 66 70  1  0
 67 66  1  0
 68 69  1  0
 68 67  1  0
 69 65  1  0
 70 71  2  0
 71 72  1  0
 73 72  2  0
 74 73  1  0
 75 49  1  0
 75 76  1  0
 75 85  1  0
 76 79  1  0
 77 81  1  0
 77 76  1  0
 78 77  2  0
 81 80  1  0
 83 81  1  0
 83 84  1  0
 83 82  1  0
 85 88  1  1
 85 86  1  0
 87 85  1  0
M  ISO  4  10 100  11 100  47 101  48 101
M  END
>  <TORSDO>  (27) 
F 17

>  <SCORE>  (27) 
-14.451

>  <name>  (27) 
26

>  <ligand_id>  (27) 
26

>  <original_smiles>  (27) 
[H]c1c([H])c([H])c2c(c1[H])C([H])([H])C([H])([H])C([H])([H])C2([H])N([H])C(=O)C1([H])N(C(=O)C([H])(N([H])C(=O)C([H])(N([H])C([H])([H])[H])C([H])([H])[H])C(C([H])([H])[H])(C([H])([H])[H])C([H])([H])[H])C([H])([H])c2c([H])c(OC([H])([H])c3c([H])c([H])c4c(c3[H])C([H])([H])C([H])([H])C([H])(C(=O)N3C([H])([H])C([H])([H])C([H])([H])C([H])(n5nc(-c6c([H])c([H])c(Oc7c([H])c([H])c(F)c([H])c7F)c([H])c6[H])c(C(=O)N([H])[H])c5N([H])[H])C3([H])[H])C4([H])[H])c([H])c([H])c2C1([H])[H]

>  <smiles>  (27) 
[H]c1c([H])c([H])c2c(c1[H])C([H])([H])C([H])([H])C([H])([H])C2([H])N([H])C(=O)C1([H])N(C(=O)C([H])(N([H])C(=O)C([H])(N([H])C([H])([H])[H])C([H])([H])[H])C(C([H])([H])[H])(C([H])([H])[H])C([H])([H])[H])C([H])([H])c2c([H])c(OC([H])([H])c3c([H])c([H])c4c(c3[H])C([H])([H])C([H])([H])C([H])(C(=O)N3C([H])([H])C([H])([H])C([H])([H])C([H])(n5nc(-c6c([H])c([H])c(Oc7c([H])c([H])c(F)c([H])c7F)c([H])c6[H])c(C(=O)N([H])[H])c5N([H])[H])C3([H])[H])C4([H])[H])c([H])c([H])c2C1([H])[H]

$$$$
27:0:0
     RDKit          3D

 93102  0  0  1  0  0  0  0  0999 V2000
  -29.2510  -20.5290   21.3870 C   0  0  0  0  0  3  0  0  0  0  0  0
  -30.9710  -20.1860   19.7010 C   0  0  0  0  0  3  0  0  0  0  0  0
  -29.1080  -21.8690   20.9820 C   0  0  0  0  0  3  0  0  0  0  0  0
  -30.8400  -21.5340   19.3060 C   0  0  0  0  0  3  0  0  0  0  0  0
  -30.1800  -19.6760   20.7520 C   0  0  0  0  0  0  0  0  0  0  0  0
  -29.9060  -22.3840   19.9380 C   0  0  0  0  0  0  0  0  0  0  0  0
  -31.5560  -17.4660   20.8700 C   0  0  0  0  0  2  0  0  0  0  0  0
  -29.0650  -17.4220   20.6820 C   0  0  0  0  0  2  0  0  0  0  0  0
  -31.5590  -16.0850   21.5670 C   0  0  0  0  0  2  0  0  0  0  0  0
  -29.0120  -16.0270   21.3160 C   0  0  0  0  0  2  0  0  0  0  0  0
  -30.2590  -18.2240   21.2100 C   0  0  0  0  0  3  0  0  0  0  0  0
  -30.3280  -15.1980   21.2140 C   0  0  0  0  0  3  0  0  0  0  0  0
  -30.5200  -14.3770   19.9100 C   0  0  0  0  0  0  0  0  0  0  0  0
  -30.0500  -12.3520   18.5590 C   0  0  0  0  0  2  0  0  0  0  0  0
  -28.9560  -12.6100   17.5060 C   0  0  0  0  0  2  0  0  0  0  0  0
  -27.5530  -12.4150   18.1120 C   0  0  0  0  0  2  0  0  0  0  0  0
  -27.3810  -13.1740   19.4520 C   0  0  0  0  0  3  0  0  0  0  0  0
  -28.5640  -12.8570   20.4000 C   0  0  0  0  0  2  0  0  0  0  0  0
  -29.8070  -13.2350   19.7090 N   0  0  0  0  0  0  0  0  0  0  0  0
  -31.4110  -14.7250   19.1240 O   0  0  0  0  0  0  0  0  0  0  0  0
  -25.0670  -13.7310   20.4430 C   0  0  0  0  0  0  0  0  0  0  0  0
  -24.0580  -12.9290   20.9050 C   0  0  0  0  0  0  0  0  0  0  0  0
  -24.5320  -11.5870   20.7750 C   0  0  0  0  0  0  0  0  0  0  0  0
  -26.0920  -12.8740   20.0700 N   0  0  0  0  0  0  0  0  0  0  0  0
  -25.7780  -11.5790   20.3210 N   0  0  0  0  0  0  0  0  0  0  0  0
  -23.8520  -10.3070   21.0020 C   0  0  0  0  0  0  0  0  0  0  0  0
  -24.3520   -9.3590   21.9220 C   0  0  0  0  0  3  0  0  0  0  0  0
  -23.6720   -8.1410   22.1350 C   0  0  0  0  0  3  0  0  0  0  0  0
  -22.4770   -7.8620   21.4290 C   0  0  0  0  0  0  0  0  0  0  0  0
  -21.9970   -8.7990   20.4960 C   0  0  0  0  0  3  0  0  0  0  0  0
  -22.6770  -10.0090   20.2810 C   0  0  0  0  0  3  0  0  0  0  0  0
  -21.7630   -6.6960   21.5540 O   0  0  0  0  0  0  0  0  0  0  0  0
  -21.7220   -6.0000   22.7350 C   0  0  0  0  0  0  0  0  0  0  0  0
  -21.2490   -6.5860   23.9290 C   0  0  0  0  0  3  0  0  0  0  0  0
  -21.1570   -5.8130   25.1040 C   0  0  0  0  0  3  0  0  0  0  0  0
  -21.5290   -4.4560   25.0860 C   0  0  0  0  0  0  0  0  0  0  0  0
  -21.9950   -3.8690   23.8960 C   0  0  0  0  0  3  0  0  0  0  0  0
  -22.0880   -4.6390   22.7240 C   0  0  0  0  0  0  0  0  0  0  0  0
  -22.5170   -4.0630   21.5750 F   0  0  0  0  0  0  0  0  0  0  0  0
  -21.4340   -3.7120   26.2120 F   0  0  0  0  0  0  0  0  0  0  0  0
  -22.6950  -13.3690   21.3540 C   0  0  0  0  0  0  0  0  0  0  0  0
  -22.0840  -12.6290   22.2720 N   0  0  0  0  0  0  0  0  0  0  0  0
  -22.1840  -14.4040   20.9260 O   0  0  0  0  0  0  0  0  0  0  0  0
  -22.5140  -11.7920   22.6350 H   0  0  0  0  0  0  0  0  0  0  0  0
  -21.1760  -12.9030   22.6180 H   0  0  0  0  0  0  0  0  0  0  0  0
  -25.1880  -15.1090   20.2920 N   0  0  0  0  0  0  0  0  0  0  0  0
  -24.4320  -15.7430   20.5280 H   0  0  0  0  0  0  0  0  0  0  0  0
  -25.9820  -15.5780   19.8760 H   0  0  0  0  0  0  0  0  0  0  0  0
  -29.8250  -23.7150   19.5110 N   0  0  0  0  0  0  0  0  0  0  0  0
  -30.4900  -24.0070   18.7990 H   0  0  0  0  0  0  0  0  0  0  0  0
  -28.5500  -24.4320   19.5240 C   0  0  0  0  0  2  0  0  0  0  0  0
  -28.7120  -25.8520   18.9350 C   0  0  0  0  0  2  0  0  0  0  0  0
  -28.4960  -26.8570   19.9250 O   0  0  0  0  0  0  0  0  0  0  0  0
  -24.6040  -31.8340   23.1920 C   0  0  0  0  0  0  0  0  0  0  0  0
  -27.2810  -27.5080   19.9660 C   0  0  0  0  0  0  0  0  0  0  0  0
  -23.4030  -30.4550   21.5250 C   0  0  0  0  0  3  0  0  0  0  0  0
  -24.8610  -28.9680   20.0570 C   0  0  0  0  0  0  0  0  0  0  0  0
  -25.9220  -30.8470   21.3230 C   0  0  0  0  0  2  0  0  0  0  0  0
  -26.0150  -29.4910   20.6510 C   0  0  0  0  0  0  0  0  0  0  0  0
  -27.2210  -28.7600   20.6160 C   0  0  0  0  0  3  0  0  0  0  0  0
  -26.1010  -26.9850   19.3870 C   0  0  0  0  0  3  0  0  0  0  0  0
  -24.8980  -27.7120   19.4250 C   0  0  0  0  0  3  0  0  0  0  0  0
  -23.6070  -29.8060   20.1300 C   0  0  0  0  0  2  0  0  0  0  0  0
  -24.6610  -31.0610   22.0700 N   0  0  0  0  0  0  0  0  0  0  0  0
  -23.5240  -32.0810   23.7450 O   0  0  0  0  0  0  0  0  0  0  0  0
  -22.7750  -29.4040   22.4660 C   0  0  0  0  0  0  0  0  0  0  0  0
  -21.4590  -29.1820   22.3180 N   0  0  0  0  0  0  0  0  0  0  0  0
  -23.4670  -28.7910   23.2830 O   0  0  0  0  0  0  0  0  0  0  0  0
  -20.9610  -29.7320   21.6310 H   0  0  0  0  0  0  0  0  0  0  0  0
  -18.1220  -27.8630   22.7270 C   0  0  0  0  0  0  0  0  0  0  0  0
  -20.6610  -28.2080   23.0600 C   0  0  0  0  0  3  0  0  0  0  0  0
  -20.8250  -26.7860   22.4750 C   0  0  0  0  0  2  0  0  0  0  0  0
  -19.7590  -26.4340   21.4340 C   0  0  0  0  0  2  0  0  0  0  0  0
  -18.3600  -26.5260   22.0480 C   0  0  0  0  0  2  0  0  0  0  0  0
  -19.2030  -28.6610   23.1880 C   0  0  0  0  0  0  0  0  0  0  0  0
  -18.9280  -29.9140   23.7780 C   0  0  0  0  0  3  0  0  0  0  0  0
  -17.6030  -30.3720   23.9110 C   0  0  0  0  0  3  0  0  0  0  0  0
  -16.5350  -29.5720   23.4680 C   0  0  0  0  0  3  0  0  0  0  0  0
  -16.7950  -28.3190   22.8830 C   0  0  0  0  0  3  0  0  0  0  0  0
  -25.8880  -32.4630   23.8180 C   0  0  0  0  0  3  0  0  0  0  0  0
  -26.4030  -31.6850   25.0930 C   0  0  1  0  0  0  0  0  0  0  0  0
  -25.2990  -31.4160   26.1430 C   0  0  0  0  0  1  0  0  0  0  0  0
  -27.0120  -30.3230   24.6860 C   0  0  0  0  0  1  0  0  0  0  0  0
  -27.5330  -32.4920   25.7760 C   0  0  0  0  0  1  0  0  0  0  0  0
  -25.5810  -33.8580   24.1520 N   0  0  0  0  0  0  0  0  0  0  0  0
  -25.9240  -34.9120   23.3990 C   0  0  0  0  0  0  0  0  0  0  0  0
  -26.6010  -34.8100   22.3720 O   0  0  0  0  0  0  0  0  0  0  0  0
  -24.9780  -34.0140   24.9460 H   0  0  0  0  0  0  0  0  0  0  0  0
  -24.1960  -36.6980   23.0390 C   0  0  0  0  0  1  0  0  0  0  0  0
  -25.4340  -36.2970   23.8570 C   0  0  0  0  0  3  0  0  0  0  0  0
  -27.5640  -37.1780   24.7000 C   0  0  0  0  0  1  0  0  0  0  0  0
  -26.4670  -37.3500   23.7510 N   0  0  0  0  0  0  0  0  0  0  0  0
  -26.0610  -38.2700   23.9010 H   0  0  0  0  0  0  0  0  0  0  0  0
  2  5  1  0
  3  1  1  0
  4  2  2  0
  4  6  1  0
  5  1  2  0
  6  3  2  0
  7 11  1  0
  7  9  1  0
  8 11  1  0
  8 10  1  0
 11  5  1  0
 12 13  1  0
 12 10  1  0
 12  9  1  0
 14 19  1  0
 15 16  1  0
 15 14  1  0
 17 16  1  0
 17 24  1  0
 17 18  1  0
 19 13  1  0
 19 18  1  0
 20 13  2  0
 21 22  2  0
 22 41  1  0
 23 22  1  0
 23 26  1  0
 24 25  1  0
 24 21  1  0
 25 23  2  0
 26 27  1  0
 27 28  2  0
 29 32  1  0
 29 28  1  0
 30 29  2  0
 31 30  1  0
 31 26  2  0
 32 33  1  0
 33 34  1  0
 34 35  2  0
 36 35  1  0
 36 40  1  0
 37 36  2  0
 38 33  2  0
 38 37  1  0
 39 38  1  0
 41 42  1  0
 42 45  1  0
 42 44  1  0
 43 41  2  0
 46 21  1  0
 46 47  1  0
 48 46  1  0
 49 51  1  0
 49  6  1  0
 50 49  1  0
 52 51  1  0
 52 53  1  0
 53 55  1  0
 54 65  2  0
 55 60  1  0
 56 64  1  0
 56 66  1  0
 57 63  1  0
 57 59  1  0
 58 64  1  0
 59 58  1  0
 60 59  2  0
 61 62  1  0
 61 55  2  0
 62 57  2  0
 63 56  1  0
 64 54  1  0
 66 68  2  0
 67 66  1  0
 69 67  1  0
 70 79  2  0
 70 75  1  0
 71 67  1  0
 71 75  1  0
 72 71  1  0
 73 74  1  0
 73 72  1  0
 74 70  1  0
 75 76  2  0
 76 77  1  0
 78 77  2  0
 79 78  1  0
 80 54  1  0
 80 85  1  0
 80 81  1  0
 81 84  1  1
 81 82  1  0
 83 81  1  0
 85 88  1  0
 86 90  1  0
 86 85  1  0
 87 86  2  0
 90 89  1  0
 92 90  1  0
 92 93  1  0
 92 91  1  0
M  ISO  4  12 100  13 100  52 101  53 101
M  END
>  <TORSDO>  (28) 
F 20

>  <SCORE>  (28) 
-12.954

>  <name>  (28) 
27

>  <ligand_id>  (28) 
27

>  <original_smiles>  (28) 
[H]c1c([H])c([H])c2c(c1[H])C([H])([H])C([H])([H])C([H])([H])C2([H])N([H])C(=O)C1([H])N(C(=O)C([H])(N([H])C(=O)C([H])(N([H])C([H])([H])[H])C([H])([H])[H])C(C([H])([H])[H])(C([H])([H])[H])C([H])([H])[H])C([H])([H])c2c([H])c(OC([H])([H])C([H])([H])N([H])c3c([H])c([H])c(C4([H])C([H])([H])C([H])([H])C([H])(C(=O)N5C([H])([H])C([H])([H])C([H])([H])C([H])(n6nc(-c7c([H])c([H])c(Oc8c([H])c([H])c(F)c([H])c8F)c([H])c7[H])c(C(=O)N([H])[H])c6N([H])[H])C5([H])[H])C([H])([H])C4([H])[H])c([H])c3[H])c([H])c([H])c2C1([H])[H]

>  <smiles>  (28) 
[H]c1c([H])c([H])c2c(c1[H])C([H])([H])C([H])([H])C([H])([H])C2([H])N([H])C(=O)C1([H])N(C(=O)C([H])(N([H])C(=O)C([H])(N([H])C([H])([H])[H])C([H])([H])[H])C(C([H])([H])[H])(C([H])([H])[H])C([H])([H])[H])C([H])([H])c2c([H])c(OC([H])([H])C([H])([H])N([H])c3c([H])c([H])c(C4([H])C([H])([H])C([H])([H])C([H])(C(=O)N5C([H])([H])C([H])([H])C([H])([H])C([H])(n6nc(-c7c([H])c([H])c(Oc8c([H])c([H])c(F)c([H])c8F)c([H])c7[H])c(C(=O)N([H])[H])c6N([H])[H])C5([H])[H])C([H])([H])C4([H])[H])c([H])c3[H])c([H])c([H])c2C1([H])[H]

$$$$
28:0:0
     RDKit          3D

 89 97  0  0  1  0  0  0  0  0999 V2000
  -28.9570  -20.7920   20.0420 C   0  0  0  0  0  0  0  0  0  0  0  0
  -28.5870  -18.1350   19.4470 C   0  0  0  0  0  0  0  0  0  0  0  0
  -28.4910  -19.6650   19.0510 C   0  0  0  0  0  2  0  0  0  0  0  0
  -29.9720  -20.1900   21.0720 C   0  0  0  0  0  2  0  0  0  0  0  0
  -29.9620  -18.5980   21.3740 C   0  0  0  0  0  2  0  0  0  0  0  0
  -29.8430  -17.5620   20.1800 C   0  0  0  0  0  3  0  0  0  0  0  0
  -28.5350  -22.0580   19.8470 N   0  0  0  0  0  0  0  0  0  0  0  0
  -27.6400  -17.3910   19.1700 O   0  0  0  0  0  0  0  0  0  0  0  0
  -30.5150  -14.9070   20.2820 C   0  0  0  0  0  0  0  0  0  0  0  0
  -30.3760  -12.5830   19.3190 C   0  0  0  0  0  2  0  0  0  0  0  0
  -29.4140  -12.5780   18.1080 C   0  0  0  0  0  2  0  0  0  0  0  0
  -27.9590  -12.3750   18.5700 C   0  0  0  0  0  2  0  0  0  0  0  0
  -27.5840  -13.2930   19.7630 C   0  0  0  0  0  3  0  0  0  0  0  0
  -28.6580  -13.2550   20.8710 C   0  0  0  0  0  2  0  0  0  0  0  0
  -29.9300  -13.6500   20.2540 N   0  0  0  0  0  0  0  0  0  0  0  0
  -31.6870  -15.0180   19.9100 O   0  0  0  0  0  0  0  0  0  0  0  0
  -29.7200  -16.0400   20.5370 N   0  0  0  0  0  0  0  0  0  0  0  0
  -28.7810  -15.7920   20.8110 H   0  0  0  0  0  0  0  0  0  0  0  0
  -25.2240  -13.8810   20.5670 C   0  0  0  0  0  0  0  0  0  0  0  0
  -24.1620  -13.1060   20.9460 C   0  0  0  0  0  0  0  0  0  0  0  0
  -24.6130  -11.7510   20.8670 C   0  0  0  0  0  0  0  0  0  0  0  0
  -26.2530  -12.9990   20.2810 N   0  0  0  0  0  0  0  0  0  0  0  0
  -25.8960  -11.7130   20.5260 N   0  0  0  0  0  0  0  0  0  0  0  0
  -23.8800  -10.4900   21.0380 C   0  0  0  0  0  0  0  0  0  0  0  0
  -24.3270   -9.4900   21.9290 C   0  0  0  0  0  3  0  0  0  0  0  0
  -23.5960   -8.2940   22.0900 C   0  0  0  0  0  3  0  0  0  0  0  0
  -22.4000   -8.0900   21.3600 C   0  0  0  0  0  0  0  0  0  0  0  0
  -21.9710   -9.0780   20.4570 C   0  0  0  0  0  3  0  0  0  0  0  0
  -22.7040  -10.2660   20.2940 C   0  0  0  0  0  3  0  0  0  0  0  0
  -21.6370   -6.9490   21.4340 O   0  0  0  0  0  0  0  0  0  0  0  0
  -21.6230   -6.1630   22.5580 C   0  0  0  0  0  0  0  0  0  0  0  0
  -21.2190   -6.6670   23.8140 C   0  0  0  0  0  3  0  0  0  0  0  0
  -21.1540   -5.8080   24.9290 C   0  0  0  0  0  3  0  0  0  0  0  0
  -21.4830   -4.4450   24.7890 C   0  0  0  0  0  0  0  0  0  0  0  0
  -21.8800   -3.9420   23.5380 C   0  0  0  0  0  3  0  0  0  0  0  0
  -21.9470   -4.7990   22.4250 C   0  0  0  0  0  0  0  0  0  0  0  0
  -22.3100   -4.3030   21.2170 F   0  0  0  0  0  0  0  0  0  0  0  0
  -21.4120   -3.6180   25.8570 F   0  0  0  0  0  0  0  0  0  0  0  0
  -22.7760  -13.5850   21.2630 C   0  0  0  0  0  0  0  0  0  0  0  0
  -22.0660  -12.8780   22.1350 N   0  0  0  0  0  0  0  0  0  0  0  0
  -22.3320  -14.6240   20.7730 O   0  0  0  0  0  0  0  0  0  0  0  0
  -22.4400  -12.0390   22.5550 H   0  0  0  0  0  0  0  0  0  0  0  0
  -21.1360  -13.1790   22.3880 H   0  0  0  0  0  0  0  0  0  0  0  0
  -25.3920  -15.2540   20.4140 N   0  0  0  0  0  0  0  0  0  0  0  0
  -24.6110  -15.8920   20.5200 H   0  0  0  0  0  0  0  0  0  0  0  0
  -26.2000  -15.6960   19.9880 H   0  0  0  0  0  0  0  0  0  0  0  0
  -28.8990  -23.4270   20.4790 C   0  0  0  0  0  3  0  0  0  0  0  0
  -28.0040  -24.7600   20.0170 C   0  0  0  0  0  3  0  0  0  0  0  0
  -28.2490  -26.2480   20.3360 O   0  0  0  0  0  0  0  0  0  0  0  0
  -24.6200  -31.9050   23.2600 C   0  0  0  0  0  0  0  0  0  0  0  0
  -27.1940  -27.2170   20.2360 C   0  0  0  0  0  0  0  0  0  0  0  0
  -23.4200  -30.5170   21.6140 C   0  0  0  0  0  3  0  0  0  0  0  0
  -24.8670  -28.9440   20.1920 C   0  0  0  0  0  0  0  0  0  0  0  0
  -25.9730  -30.7800   21.4600 C   0  0  0  0  0  2  0  0  0  0  0  0
  -26.0420  -29.3920   20.8090 C   0  0  0  0  0  0  0  0  0  0  0  0
  -27.2060  -28.5420   20.8180 C   0  0  0  0  0  3  0  0  0  0  0  0
  -26.0000  -26.8700   19.5640 C   0  0  0  0  0  3  0  0  0  0  0  0
  -24.8570  -27.6960   19.5540 C   0  0  0  0  0  3  0  0  0  0  0  0
  -23.6410  -29.8400   20.2340 C   0  0  0  0  0  2  0  0  0  0  0  0
  -24.6910  -31.0880   22.1670 N   0  0  0  0  0  0  0  0  0  0  0  0
  -23.5340  -32.1960   23.7840 O   0  0  0  0  0  0  0  0  0  0  0  0
  -22.7340  -29.5110   22.5720 C   0  0  0  0  0  0  0  0  0  0  0  0
  -21.4050  -29.3520   22.4420 N   0  0  0  0  0  0  0  0  0  0  0  0
  -23.4000  -28.8760   23.3940 O   0  0  0  0  0  0  0  0  0  0  0  0
  -20.9250  -29.9170   21.7540 H   0  0  0  0  0  0  0  0  0  0  0  0
  -18.0110  -28.1920   22.9420 C   0  0  0  0  0  0  0  0  0  0  0  0
  -20.5730  -28.4220   23.2100 C   0  0  0  0  0  3  0  0  0  0  0  0
  -20.6560  -26.9900   22.6280 C   0  0  0  0  0  2  0  0  0  0  0  0
  -19.5490  -26.6860   21.6140 C   0  0  0  0  0  2  0  0  0  0  0  0
  -18.1700  -26.8440   22.2590 C   0  0  0  0  0  2  0  0  0  0  0  0
  -19.1390  -28.9390   23.3740 C   0  0  0  0  0  0  0  0  0  0  0  0
  -18.9350  -30.2000   23.9750 C   0  0  0  0  0  3  0  0  0  0  0  0
  -17.6360  -30.7150   24.1480 C   0  0  0  0  0  3  0  0  0  0  0  0
  -16.5230  -29.9650   23.7320 C   0  0  0  0  0  3  0  0  0  0  0  0
  -16.7100  -28.7060   23.1360 C   0  0  0  0  0  3  0  0  0  0  0  0
  -25.9000  -32.5340   23.8920 C   0  0  0  0  0  3  0  0  0  0  0  0
  -25.5940  -33.9340   24.2250 N   0  0  0  0  0  0  0  0  0  0  0  0
  -25.9070  -34.9880   23.4590 C   0  0  0  0  0  0  0  0  0  0  0  0
  -26.5530  -34.8840   22.4120 O   0  0  0  0  0  0  0  0  0  0  0  0
  -25.0200  -34.0880   25.0400 H   0  0  0  0  0  0  0  0  0  0  0  0
  -24.1590  -36.7740   23.1610 C   0  0  0  0  0  1  0  0  0  0  0  0
  -25.4310  -36.3770   23.9280 C   0  0  0  0  0  3  0  0  0  0  0  0
  -27.5880  -37.2800   24.6770 C   0  0  0  0  0  1  0  0  0  0  0  0
  -26.4530  -37.4360   23.7730 N   0  0  0  0  0  0  0  0  0  0  0  0
  -26.0480  -38.3540   23.9270 H   0  0  0  0  0  0  0  0  0  0  0  0
  -26.4010  -31.7610   25.1730 C   0  0  1  0  0  0  0  0  0  0  0  0
  -25.2970  -31.5300   26.2330 C   0  0  0  0  0  1  0  0  0  0  0  0
  -26.9800  -30.3790   24.7920 C   0  0  0  0  0  1  0  0  0  0  0  0
  -27.5510  -32.5500   25.8430 C   0  0  0  0  0  1  0  0  0  0  0  0
  1  4  1  0
  2  6  1  0
  3  2  1  0
  3  1  1  0
  4  5  1  0
  6 17  1  0
  6  5  1  0
  7  1  2  0
  7 47  1  0
  8  2  2  0
  9 17  1  0
 10 15  1  0
 11 12  1  0
 11 10  1  0
 13 12  1  0
 13 22  1  0
 13 14  1  0
 15  9  1  0
 15 14  1  0
 16  9  2  0
 17 18  1  0
 19 20  2  0
 20 39  1  0
 21 20  1  0
 21 24  1  0
 22 23  1  0
 22 19  1  0
 23 21  2  0
 24 25  1  0
 25 26  2  0
 27 30  1  0
 27 26  1  0
 28 27  2  0
 29 28  1  0
 29 24  2  0
 30 31  1  0
 31 32  1  0
 32 33  2  0
 34 33  1  0
 34 38  1  0
 35 34  2  0
 36 31  2  0
 36 35  1  0
 37 36  1  0
 39 40  1  0
 40 43  1  0
 40 42  1  0
 41 39  2  0
 44 45  1  0
 44 19  1  0
 46 44  1  0
 48 49  1  0
 48 47  2  0
 50 61  2  0
 51 49  1  0
 51 56  1  0
 52 60  1  0
 52 62  1  0
 53 59  1  0
 53 55  1  0
 54 60  1  0
 55 56  2  0
 55 54  1  0
 57 51  2  0
 58 57  1  0
 58 53  2  0
 59 52  1  0
 60 50  1  0
 62 64  2  0
 63 62  1  0
 65 63  1  0
 66 75  2  0
 66 71  1  0
 67 63  1  0
 67 71  1  0
 68 67  1  0
 69 70  1  0
 69 68  1  0
 70 66  1  0
 71 72  2  0
 72 73  1  0
 74 73  2  0
 75 74  1  0
 76 50  1  0
 76 77  1  0
 76 86  1  0
 77 80  1  0
 78 82  1  0
 78 77  1  0
 79 78  2  0
 82 81  1  0
 84 85  1  0
 84 82  1  0
 84 83  1  0
 86 89  1  1
 86 87  1  0
 88 86  1  0
M  ISO  4   9 100  17 100  48 101  49 101
M  END
>  <TORSDO>  (29) 
F 18

>  <SCORE>  (29) 
-14.495

>  <name>  (29) 
28

>  <ligand_id>  (29) 
28

>  <original_smiles>  (29) 
[H]c1c([H])c([H])c2c(c1[H])C([H])([H])C([H])([H])C([H])([H])C2([H])N([H])C(=O)C1([H])N(C(=O)C([H])(N([H])C(=O)C([H])(N([H])C([H])([H])[H])C([H])([H])[H])C(C([H])([H])[H])(C([H])([H])[H])C([H])([H])[H])C([H])([H])c2c([H])c(OC([H])([H])C([H])([H])N=C3C([H])([H])C(=O)C([H])(N([H])C(=O)N4C([H])([H])C([H])([H])C([H])([H])C([H])(n5nc(-c6c([H])c([H])c(Oc7c([H])c([H])c(F)c([H])c7F)c([H])c6[H])c(C(=O)N([H])[H])c5N([H])[H])C4([H])[H])C([H])([H])C3([H])[H])c([H])c([H])c2C1([H])[H]

>  <smiles>  (29) 
[H]c1c([H])c([H])c2c(c1[H])C([H])([H])C([H])([H])C([H])([H])C2([H])N([H])C(=O)C1([H])N(C(=O)C([H])(N([H])C(=O)C([H])(N([H])C([H])([H])[H])C([H])([H])[H])C(C([H])([H])[H])(C([H])([H])[H])C([H])([H])[H])C([H])([H])c2c([H])c(OC([H])([H])C([H])([H])N=C3C([H])([H])C(=O)C([H])(N([H])C(=O)N4C([H])([H])C([H])([H])C([H])([H])C([H])(n5nc(-c6c([H])c([H])c(Oc7c([H])c([H])c(F)c([H])c7F)c([H])c6[H])c(C(=O)N([H])[H])c5N([H])[H])C4([H])[H])C([H])([H])C3([H])[H])c([H])c([H])c2C1([H])[H]

$$$$
29:0:0
     RDKit          3D

 90 98  0  0  1  0  0  0  0  0999 V2000
  -27.1580  -23.4080   19.7820 C   0  0  0  0  0  3  0  0  0  0  0  0
  -29.1230  -20.9550   19.9340 C   0  0  0  0  0  0  0  0  0  0  0  0
  -26.8730  -22.0300   19.4590 C   0  0  0  0  0  0  0  0  0  0  0  0
  -29.3430  -22.5700   20.2740 C   0  0  0  0  0  0  0  0  0  0  0  0
  -28.3960  -23.9320   20.2290 C   0  0  0  0  0  0  0  0  0  0  0  0
  -27.7650  -20.8970   19.5280 C   0  0  0  0  0  0  0  0  0  0  0  0
  -25.4550  -21.7310   18.9970 C   0  0  0  0  0  1  0  0  0  0  0  0
  -30.7480  -22.8800   20.7470 C   0  0  0  0  0  1  0  0  0  0  0  0
  -27.2660  -19.6840   19.1850 F   0  0  0  0  0  0  0  0  0  0  0  0
  -30.6270  -16.2990   20.0220 C   0  0  0  0  0  0  0  0  0  0  0  0
  -30.7810  -13.6730   19.3090 C   0  0  0  0  0  2  0  0  0  0  0  0
  -29.9250  -13.0890   18.1420 C   0  0  0  0  0  2  0  0  0  0  0  0
  -28.5290  -12.6860   18.6280 C   0  0  0  0  0  2  0  0  0  0  0  0
  -27.9720  -13.7370   19.6100 C   0  0  0  0  0  3  0  0  0  0  0  0
  -28.9820  -14.2160   20.6870 C   0  0  0  0  0  2  0  0  0  0  0  0
  -30.1030  -14.8990   19.9790 N   0  0  0  0  0  0  0  0  0  0  0  0
  -31.8620  -16.1470   19.9060 O   0  0  0  0  0  0  0  0  0  0  0  0
  -30.0820  -19.3820   19.9600 C   0  0  0  0  0  0  0  0  0  0  0  0
  -29.9570  -17.7740   20.0150 N   0  0  0  0  0  0  0  0  0  0  0  0
  -31.2780  -19.6770   19.9180 O   0  0  0  0  0  0  0  0  0  0  0  0
  -30.9500  -17.9630   20.0020 H   0  0  0  0  0  0  0  0  0  0  0  0
  -25.6490  -14.2570   20.4710 C   0  0  0  0  0  0  0  0  0  0  0  0
  -24.5820  -13.4800   20.8180 C   0  0  0  0  0  0  0  0  0  0  0  0
  -25.0230  -12.1250   20.7020 C   0  0  0  0  0  0  0  0  0  0  0  0
  -26.6690  -13.3820   20.1530 N   0  0  0  0  0  0  0  0  0  0  0  0
  -26.3100  -12.0860   20.3570 N   0  0  0  0  0  0  0  0  0  0  0  0
  -24.2700  -10.8690   20.8380 C   0  0  0  0  0  0  0  0  0  0  0  0
  -24.6540   -9.8710   21.7600 C   0  0  0  0  0  3  0  0  0  0  0  0
  -23.8950   -8.6870   21.8910 C   0  0  0  0  0  3  0  0  0  0  0  0
  -22.7370   -8.4940   21.0990 C   0  0  0  0  0  0  0  0  0  0  0  0
  -22.3730   -9.4810   20.1670 C   0  0  0  0  0  3  0  0  0  0  0  0
  -23.1320  -10.6550   20.0340 C   0  0  0  0  0  3  0  0  0  0  0  0
  -21.9550   -7.3640   21.1380 O   0  0  0  0  0  0  0  0  0  0  0  0
  -21.7860   -6.6440   22.2940 C   0  0  0  0  0  0  0  0  0  0  0  0
  -21.2190   -7.2190   23.4530 C   0  0  0  0  0  3  0  0  0  0  0  0
  -20.9980   -6.4260   24.5970 C   0  0  0  0  0  3  0  0  0  0  0  0
  -21.3350   -5.0590   24.5820 C   0  0  0  0  0  0  0  0  0  0  0  0
  -21.8970   -4.4850   23.4300 C   0  0  0  0  0  3  0  0  0  0  0  0
  -22.1190   -5.2740   22.2870 C   0  0  0  0  0  0  0  0  0  0  0  0
  -22.6390   -4.7090   21.1710 F   0  0  0  0  0  0  0  0  0  0  0  0
  -21.1170   -4.2950   25.6790 F   0  0  0  0  0  0  0  0  0  0  0  0
  -23.2020  -13.9720   21.1360 C   0  0  0  0  0  0  0  0  0  0  0  0
  -22.4780  -13.2580   21.9920 N   0  0  0  0  0  0  0  0  0  0  0  0
  -22.7760  -15.0250   20.6660 O   0  0  0  0  0  0  0  0  0  0  0  0
  -22.8390  -12.4070   22.3980 H   0  0  0  0  0  0  0  0  0  0  0  0
  -21.5530  -13.5710   22.2460 H   0  0  0  0  0  0  0  0  0  0  0  0
  -25.8350  -15.6330   20.3650 N   0  0  0  0  0  0  0  0  0  0  0  0
  -25.0890  -16.2950   20.5450 H   0  0  0  0  0  0  0  0  0  0  0  0
  -26.6970  -16.0770   20.0740 H   0  0  0  0  0  0  0  0  0  0  0  0
  -28.4470  -25.5830   20.5410 O   0  0  0  0  0  0  0  0  0  0  0  0
  -24.8420  -32.0330   23.4970 C   0  0  0  0  0  0  0  0  0  0  0  0
  -27.4850  -26.8700   20.5220 C   0  0  0  0  0  0  0  0  0  0  0  0
  -23.7280  -30.6620   21.7900 C   0  0  0  0  0  3  0  0  0  0  0  0
  -25.2350  -29.0120   20.4120 C   0  0  0  0  0  0  0  0  0  0  0  0
  -26.3150  -30.7590   21.7940 C   0  0  0  0  0  2  0  0  0  0  0  0
  -26.4040  -29.3200   21.1170 C   0  0  0  0  0  0  0  0  0  0  0  0
  -27.5030  -28.2810   21.1400 C   0  0  0  0  0  3  0  0  0  0  0  0
  -26.2880  -26.8290   19.7480 C   0  0  0  0  0  3  0  0  0  0  0  0
  -25.2270  -27.7950   19.7070 C   0  0  0  0  0  3  0  0  0  0  0  0
  -24.0340  -29.9830   20.4210 C   0  0  0  0  0  2  0  0  0  0  0  0
  -24.9850  -31.1880   22.4150 N   0  0  0  0  0  0  0  0  0  0  0  0
  -23.7250  -32.3300   23.9600 O   0  0  0  0  0  0  0  0  0  0  0  0
  -22.9610  -29.6780   22.7160 C   0  0  0  0  0  0  0  0  0  0  0  0
  -21.6370  -29.5190   22.5240 N   0  0  0  0  0  0  0  0  0  0  0  0
  -23.5740  -29.0540   23.5850 O   0  0  0  0  0  0  0  0  0  0  0  0
  -21.1890  -30.0730   21.8080 H   0  0  0  0  0  0  0  0  0  0  0  0
  -18.2310  -28.2950   22.8970 C   0  0  0  0  0  0  0  0  0  0  0  0
  -20.7820  -28.5650   23.2450 C   0  0  0  0  0  3  0  0  0  0  0  0
  -20.9020  -27.1450   22.6420 C   0  0  0  0  0  2  0  0  0  0  0  0
  -19.8370  -26.8460   21.5830 C   0  0  0  0  0  2  0  0  0  0  0  0
  -18.4350  -26.9670   22.1860 C   0  0  0  0  0  2  0  0  0  0  0  0
  -19.3330  -29.0520   23.3790 C   0  0  0  0  0  0  0  0  0  0  0  0
  -19.0850  -30.2900   24.0110 C   0  0  0  0  0  3  0  0  0  0  0  0
  -17.7710  -30.7740   24.1590 C   0  0  0  0  0  3  0  0  0  0  0  0
  -16.6850  -30.0160   23.6880 C   0  0  0  0  0  3  0  0  0  0  0  0
  -16.9160  -28.7780   23.0640 C   0  0  0  0  0  3  0  0  0  0  0  0
  -26.0690  -32.6820   24.2060 C   0  0  0  0  0  3  0  0  0  0  0  0
  -25.7580  -34.1030   24.4750 N   0  0  0  0  0  0  0  0  0  0  0  0
  -26.1300  -35.1380   23.7070 C   0  0  0  0  0  0  0  0  0  0  0  0
  -26.8260  -34.9960   22.7000 O   0  0  0  0  0  0  0  0  0  0  0  0
  -25.1420  -34.2870   25.2530 H   0  0  0  0  0  0  0  0  0  0  0  0
  -24.4260  -36.9510   23.2980 C   0  0  0  0  0  1  0  0  0  0  0  0
  -25.6630  -36.5520   24.1190 C   0  0  0  0  0  3  0  0  0  0  0  0
  -27.7980  -37.4570   24.9330 C   0  0  0  0  0  1  0  0  0  0  0  0
  -26.7080  -37.5890   23.9700 N   0  0  0  0  0  0  0  0  0  0  0  0
  -26.3090  -38.5190   24.0690 H   0  0  0  0  0  0  0  0  0  0  0  0
  -26.4520  -31.9620   25.5590 C   0  0  1  0  0  0  0  0  0  0  0  0
  -25.2570  -31.7660   26.5230 C   0  0  0  0  0  1  0  0  0  0  0  0
  -27.0630  -30.5700   25.2920 C   0  0  0  0  0  1  0  0  0  0  0  0
  -27.5380  -32.7780   26.2990 C   0  0  0  0  0  1  0  0  0  0  0  0
  1  5  1  0
  2 18  1  0
  2  4  1  0
  3  6  1  0
  3  1  2  0
  4  8  1  0
  5  4  2  0
  5 50  1  0
  6  2  2  0
  7  3  1  0
  9  6  1  0
 11 16  1  0
 12 13  1  0
 12 11  1  0
 14 13  1  0
 14 25  1  0
 14 15  1  0
 16 10  1  0
 16 15  1  0
 17 10  2  0
 18 19  1  0
 19 10  1  0
 20 18  2  0
 21 19  1  0
 22 23  2  0
 23 42  1  0
 24 23  1  0
 24 27  1  0
 25 26  1  0
 25 22  1  0
 26 24  2  0
 27 28  1  0
 28 29  2  0
 30 33  1  0
 30 29  1  0
 31 30  2  0
 32 31  1  0
 32 27  2  0
 33 34  1  0
 34 35  1  0
 35 36  2  0
 37 36  1  0
 37 41  1  0
 38 37  2  0
 39 34  2  0
 39 38  1  0
 40 39  1  0
 42 43  1  0
 43 46  1  0
 43 45  1  0
 44 42  2  0
 47 22  1  0
 47 48  1  0
 49 47  1  0
 51 62  2  0
 52 50  1  0
 52 57  1  0
 53 61  1  0
 53 63  1  0
 54 60  1  0
 54 56  1  0
 55 61  1  0
 56 57  2  0
 56 55  1  0
 58 52  2  0
 59 58  1  0
 59 54  2  0
 60 53  1  0
 61 51  1  0
 63 65  2  0
 64 63  1  0
 66 64  1  0
 67 76  2  0
 67 72  1  0
 68 64  1  0
 68 72  1  0
 69 68  1  0
 70 71  1  0
 70 69  1  0
 71 67  1  0
 72 73  2  0
 73 74  1  0
 75 74  2  0
 76 75  1  0
 77 51  1  0
 77 78  1  0
 77 87  1  0
 78 81  1  0
 79 83  1  0
 79 78  1  0
 80 79  2  0
 83 82  1  0
 85 86  1  0
 85 83  1  0
 85 84  1  0
 87 90  1  1
 87 88  1  0
 89 87  1  0
M  ISO  4   5 101  10 100  19 100  50 101
M  END
>  <TORSDO>  (30) 
F 16

>  <SCORE>  (30) 
-15.530

>  <name>  (30) 
29

>  <ligand_id>  (30) 
29

>  <original_smiles>  (30) 
[H]c1c([H])c([H])c2c(c1[H])C([H])([H])C([H])([H])C([H])([H])C2([H])N([H])C(=O)C1([H])N(C(=O)C([H])(N([H])C(=O)C([H])(N([H])C([H])([H])[H])C([H])([H])[H])C(C([H])([H])[H])(C([H])([H])[H])C([H])([H])[H])C([H])([H])c2c([H])c(Oc3c([H])c(C([H])([H])[H])c(F)c(C(=O)N([H])C(=O)N4C([H])([H])C([H])([H])C([H])([H])C([H])(n5nc(-c6c([H])c([H])c(Oc7c([H])c([H])c(F)c([H])c7F)c([H])c6[H])c(C(=O)N([H])[H])c5N([H])[H])C4([H])[H])c3C([H])([H])[H])c([H])c([H])c2C1([H])[H]

>  <smiles>  (30) 
[H]c1c([H])c([H])c2c(c1[H])C([H])([H])C([H])([H])C([H])([H])C2([H])N([H])C(=O)C1([H])N(C(=O)C([H])(N([H])C(=O)C([H])(N([H])C([H])([H])[H])C([H])([H])[H])C(C([H])([H])[H])(C([H])([H])[H])C([H])([H])[H])C([H])([H])c2c([H])c(Oc3c([H])c(C([H])([H])[H])c(F)c(C(=O)N([H])C(=O)N4C([H])([H])C([H])([H])C([H])([H])C([H])(n5nc(-c6c([H])c([H])c(Oc7c([H])c([H])c(F)c([H])c7F)c([H])c6[H])c(C(=O)N([H])[H])c5N([H])[H])C4([H])[H])c3C([H])([H])[H])c([H])c([H])c2C1([H])[H]

$$$$
30:0:0
     RDKit          3D

 90 99  0  0  1  0  0  0  0  0999 V2000
  -27.5990  -20.1960   18.8240 C   0  0  0  0  0  3  0  0  0  0  0  0
  -28.2820  -19.0490   19.3170 C   0  0  0  0  0  3  0  0  0  0  0  0
  -29.4940  -20.5380   20.7800 C   0  0  0  0  0  3  0  0  0  0  0  0
  -27.8480  -21.5230   19.2710 C   0  0  0  0  0  0  0  0  0  0  0  0
  -28.7810  -21.7610   20.3020 C   0  0  0  0  0  0  0  0  0  0  0  0
  -29.2890  -19.1370   20.3020 C   0  0  0  0  0  0  0  0  0  0  0  0
  -27.0960  -22.6960   18.6230 C   0  0  0  0  0  2  0  0  0  0  0  0
  -28.9460  -23.3340   20.7760 C   0  0  0  0  0  2  0  0  0  0  0  0
  -27.7870  -24.0920   18.7040 C   0  0  0  0  0  2  0  0  0  0  0  0
  -27.9830  -24.5740   20.1610 C   0  0  0  0  0  3  0  0  0  0  0  0
  -28.2080  -26.1340   20.2910 O   0  0  0  0  0  0  0  0  0  0  0  0
  -24.5920  -31.8820   23.2650 C   0  0  0  0  0  0  0  0  0  0  0  0
  -27.1510  -27.1320   20.2370 C   0  0  0  0  0  0  0  0  0  0  0  0
  -23.3910  -30.4950   21.6230 C   0  0  0  0  0  3  0  0  0  0  0  0
  -24.8330  -28.9140   20.2020 C   0  0  0  0  0  0  0  0  0  0  0  0
  -25.9510  -30.7450   21.4610 C   0  0  0  0  0  2  0  0  0  0  0  0
  -26.0200  -29.3510   20.8060 C   0  0  0  0  0  0  0  0  0  0  0  0
  -27.1810  -28.4820   20.7940 C   0  0  0  0  0  3  0  0  0  0  0  0
  -25.9200  -26.7980   19.6280 C   0  0  0  0  0  3  0  0  0  0  0  0
  -24.7990  -27.6520   19.5980 C   0  0  0  0  0  3  0  0  0  0  0  0
  -23.6120  -29.8220   20.2440 C   0  0  0  0  0  2  0  0  0  0  0  0
  -24.6650  -31.0620   22.1710 N   0  0  0  0  0  0  0  0  0  0  0  0
  -23.5040  -32.1680   23.7900 O   0  0  0  0  0  0  0  0  0  0  0  0
  -22.7080  -29.4870   22.5830 C   0  0  0  0  0  0  0  0  0  0  0  0
  -21.3800  -29.3130   22.4490 N   0  0  0  0  0  0  0  0  0  0  0  0
  -23.3750  -28.8650   23.4130 O   0  0  0  0  0  0  0  0  0  0  0  0
  -20.8970  -29.8670   21.7550 H   0  0  0  0  0  0  0  0  0  0  0  0
  -17.9980  -28.1080   22.9400 C   0  0  0  0  0  0  0  0  0  0  0  0
  -20.5550  -28.3770   23.2180 C   0  0  0  0  0  3  0  0  0  0  0  0
  -20.6620  -26.9420   22.6470 C   0  0  0  0  0  2  0  0  0  0  0  0
  -19.5640  -26.6150   21.6300 C   0  0  0  0  0  2  0  0  0  0  0  0
  -18.1800  -26.7580   22.2660 C   0  0  0  0  0  2  0  0  0  0  0  0
  -19.1120  -28.8740   23.3740 C   0  0  0  0  0  0  0  0  0  0  0  0
  -18.8860  -30.1350   23.9650 C   0  0  0  0  0  3  0  0  0  0  0  0
  -17.5780  -30.6320   24.1280 C   0  0  0  0  0  3  0  0  0  0  0  0
  -16.4790  -29.8630   23.7100 C   0  0  0  0  0  3  0  0  0  0  0  0
  -16.6890  -28.6030   23.1210 C   0  0  0  0  0  3  0  0  0  0  0  0
  -25.8690  -32.5160   23.8960 C   0  0  0  0  0  3  0  0  0  0  0  0
  -25.5630  -33.9220   24.2090 N   0  0  0  0  0  0  0  0  0  0  0  0
  -25.9040  -34.9670   23.4440 C   0  0  0  0  0  0  0  0  0  0  0  0
  -26.5740  -34.8500   22.4150 O   0  0  0  0  0  0  0  0  0  0  0  0
  -24.9700  -34.0870   25.0090 H   0  0  0  0  0  0  0  0  0  0  0  0
  -24.1940  -36.7790   23.0750 C   0  0  0  0  0  1  0  0  0  0  0  0
  -25.4280  -36.3640   23.8910 C   0  0  0  0  0  3  0  0  0  0  0  0
  -27.5650  -37.2410   24.7280 C   0  0  0  0  0  1  0  0  0  0  0  0
  -26.4720  -37.4070   23.7740 N   0  0  0  0  0  0  0  0  0  0  0  0
  -26.0710  -38.3320   23.9080 H   0  0  0  0  0  0  0  0  0  0  0  0
  -26.3590  -31.7600   25.1920 C   0  0  1  0  0  0  0  0  0  0  0  0
  -25.2500  -31.5490   26.2510 C   0  0  0  0  0  1  0  0  0  0  0  0
  -26.9360  -30.3720   24.8340 C   0  0  0  0  0  1  0  0  0  0  0  0
  -27.5080  -32.5560   25.8570 C   0  0  0  0  0  1  0  0  0  0  0  0
  -30.1430  -17.7670   20.7140 C   0  0  0  0  0  2  0  0  0  0  0  0
  -30.5190  -15.0350   20.4040 C   0  0  0  0  0  0  0  0  0  0  0  0
  -30.4200  -12.6770   19.4500 C   0  0  0  0  0  2  0  0  0  0  0  0
  -29.4890  -12.6040   18.2180 C   0  0  0  0  0  2  0  0  0  0  0  0
  -28.0300  -12.3740   18.6520 C   0  0  0  0  0  2  0  0  0  0  0  0
  -27.6080  -13.3010   19.8230 C   0  0  0  0  0  3  0  0  0  0  0  0
  -28.6630  -13.3380   20.9490 C   0  0  0  0  0  2  0  0  0  0  0  0
  -29.9250  -13.7740   20.3350 N   0  0  0  0  0  0  0  0  0  0  0  0
  -31.7290  -15.0900   20.1580 O   0  0  0  0  0  0  0  0  0  0  0  0
  -29.7500  -16.2330   20.5570 N   0  0  0  0  0  0  0  0  0  0  0  0
  -28.7630  -16.0550   20.6690 H   0  0  0  0  0  0  0  0  0  0  0  0
  -25.2240  -13.8500   20.5680 C   0  0  0  0  0  0  0  0  0  0  0  0
  -24.1680  -13.0630   20.9330 C   0  0  0  0  0  0  0  0  0  0  0  0
  -24.6460  -11.7170   20.8940 C   0  0  0  0  0  0  0  0  0  0  0  0
  -26.2770  -12.9850   20.3230 N   0  0  0  0  0  0  0  0  0  0  0  0
  -25.9380  -11.6950   20.5870 N   0  0  0  0  0  0  0  0  0  0  0  0
  -23.9310  -10.4470   21.0740 C   0  0  0  0  0  0  0  0  0  0  0  0
  -24.3670   -9.4770   22.0040 C   0  0  0  0  0  3  0  0  0  0  0  0
  -23.6480   -8.2740   22.1720 C   0  0  0  0  0  3  0  0  0  0  0  0
  -22.4800   -8.0310   21.4110 C   0  0  0  0  0  0  0  0  0  0  0  0
  -22.0640   -8.9900   20.4700 C   0  0  0  0  0  3  0  0  0  0  0  0
  -22.7830  -10.1840   20.3000 C   0  0  0  0  0  3  0  0  0  0  0  0
  -21.7320   -6.8800   21.4900 O   0  0  0  0  0  0  0  0  0  0  0  0
  -21.6740   -6.1380   22.6420 C   0  0  0  0  0  0  0  0  0  0  0  0
  -21.2000   -6.6820   23.8560 C   0  0  0  0  0  3  0  0  0  0  0  0
  -21.0910   -5.8630   24.9980 C   0  0  0  0  0  3  0  0  0  0  0  0
  -21.4470   -4.5030   24.9280 C   0  0  0  0  0  0  0  0  0  0  0  0
  -21.9120   -3.9590   23.7180 C   0  0  0  0  0  3  0  0  0  0  0  0
  -22.0240   -4.7730   22.5780 C   0  0  0  0  0  0  0  0  0  0  0  0
  -22.4540   -4.2390   21.4100 F   0  0  0  0  0  0  0  0  0  0  0  0
  -21.3340   -3.7160   26.0230 F   0  0  0  0  0  0  0  0  0  0  0  0
  -22.7660  -13.5250   21.2010 C   0  0  0  0  0  0  0  0  0  0  0  0
  -22.0400  -12.8160   22.0580 N   0  0  0  0  0  0  0  0  0  0  0  0
  -22.3230  -14.5520   20.6880 O   0  0  0  0  0  0  0  0  0  0  0  0
  -22.4110  -11.9840   22.4940 H   0  0  0  0  0  0  0  0  0  0  0  0
  -21.1000  -13.1090   22.2840 H   0  0  0  0  0  0  0  0  0  0  0  0
  -25.3710  -15.2240   20.3960 N   0  0  0  0  0  0  0  0  0  0  0  0
  -24.5910  -15.8630   20.5050 H   0  0  0  0  0  0  0  0  0  0  0  0
  -26.2020  -15.6770   20.0400 H   0  0  0  0  0  0  0  0  0  0  0  0
  1  4  2  0
  1  2  1  0
  2  6  2  0
  4  5  1  0
  5  8  1  0
  5  3  2  0
  6 52  1  0
  6  3  1  0
  7  9  1  0
  7  4  1  0
  9 10  1  0
 10 11  1  0
 10  8  1  0
 12 23  2  0
 13 11  1  0
 13 18  1  0
 14 22  1  0
 14 24  1  0
 15 21  1  0
 15 17  1  0
 16 22  1  0
 17 16  1  0
 18 17  2  0
 19 13  2  0
 20 19  1  0
 20 15  2  0
 21 14  1  0
 22 12  1  0
 24 26  2  0
 25 24  1  0
 27 25  1  0
 28 37  2  0
 28 33  1  0
 29 25  1  0
 29 33  1  0
 30 29  1  0
 31 32  1  0
 31 30  1  0
 32 28  1  0
 33 34  2  0
 34 35  1  0
 36 35  2  0
 37 36  1  0
 38 12  1  0
 38 39  1  0
 38 48  1  0
 39 42  1  0
 40 44  1  0
 40 39  1  0
 41 40  2  0
 44 43  1  0
 46 44  1  0
 46 47  1  0
 46 45  1  0
 48 51  1  1
 48 49  1  0
 50 48  1  0
 53 61  1  0
 54 59  1  0
 55 56  1  0
 55 54  1  0
 57 56  1  0
 57 66  1  0
 57 58  1  0
 59 53  1  0
 59 58  1  0
 60 53  2  0
 61 62  1  0
 61 52  1  0
 63 64  2  0
 64 83  1  0
 65 64  1  0
 65 68  1  0
 66 63  1  0
 66 67  1  0
 67 65  2  0
 68 69  1  0
 69 70  2  0
 71 74  1  0
 71 70  1  0
 72 71  2  0
 73 72  1  0
 73 68  2  0
 74 75  1  0
 75 76  1  0
 76 77  2  0
 78 77  1  0
 78 82  1  0
 79 78  2  0
 80 75  2  0
 80 79  1  0
 81 80  1  0
 83 84  1  0
 84 87  1  0
 84 86  1  0
 85 83  2  0
 88 89  1  0
 88 63  1  0
 90 88  1  0
M  ISO  4  10 101  11 101  53 100  61 100
M  END
>  <TORSDO>  (31) 
F 17

>  <SCORE>  (31) 
-15.236

>  <name>  (31) 
30

>  <ligand_id>  (31) 
30

>  <original_smiles>  (31) 
[H]c1c([H])c([H])c2c(c1[H])C([H])([H])C([H])([H])C([H])([H])C2([H])N([H])C(=O)C1([H])N(C(=O)C([H])(N([H])C(=O)C([H])(N([H])C([H])([H])[H])C([H])([H])[H])C(C([H])([H])[H])(C([H])([H])[H])C([H])([H])[H])C([H])([H])c2c([H])c(OC3([H])C([H])([H])c4c([H])c(C([H])([H])N([H])C(=O)N5C([H])([H])C([H])([H])C([H])([H])C([H])(n6nc(-c7c([H])c([H])c(Oc8c([H])c([H])c(F)c([H])c8F)c([H])c7[H])c(C(=O)N([H])[H])c6N([H])[H])C5([H])[H])c([H])c([H])c4C([H])([H])C3([H])[H])c([H])c([H])c2C1([H])[H]

>  <smiles>  (31) 
[H]c1c([H])c([H])c2c(c1[H])C([H])([H])C([H])([H])C([H])([H])C2([H])N([H])C(=O)C1([H])N(C(=O)C([H])(N([H])C(=O)C([H])(N([H])C([H])([H])[H])C([H])([H])[H])C(C([H])([H])[H])(C([H])([H])[H])C([H])([H])[H])C([H])([H])c2c([H])c(OC3([H])C([H])([H])c4c([H])c(C([H])([H])N([H])C(=O)N5C([H])([H])C([H])([H])C([H])([H])C([H])(n6nc(-c7c([H])c([H])c(Oc8c([H])c([H])c(F)c([H])c8F)c([H])c7[H])c(C(=O)N([H])[H])c6N([H])[H])C5([H])[H])c([H])c([H])c4C([H])([H])C3([H])[H])c([H])c([H])c2C1([H])[H]

$$$$
31:0:0
     RDKit          3D

 91100  0  0  1  0  0  0  0  0999 V2000
  -29.3130  -16.5770   18.5650 C   0  0  0  0  0  3  0  0  0  0  0  0
  -29.1020  -17.7930   17.8590 C   0  0  0  0  0  3  0  0  0  0  0  0
  -29.9750  -17.8790   20.4980 C   0  0  0  0  0  3  0  0  0  0  0  0
  -29.8580  -16.5220   19.8780 C   0  0  0  0  0  0  0  0  0  0  0  0
  -29.3310  -19.0380   18.4740 C   0  0  0  0  0  0  0  0  0  0  0  0
  -29.6120  -19.1710   19.8330 C   0  0  0  0  0  0  0  0  0  0  0  0
  -29.6170  -20.3270   17.7340 C   0  0  0  0  0  2  0  0  0  0  0  0
  -30.4960  -21.1130   18.7390 C   0  0  0  0  0  2  0  0  0  0  0  0
  -29.8950  -20.7740   20.1300 C   0  0  2  0  0  0  0  0  0  0  0  0
  -30.9230  -20.8730   21.2710 C   0  0  0  0  0  1  0  0  0  0  0  0
  -30.5400  -15.1150   20.3230 C   0  0  0  0  0  0  0  0  0  0  0  0
  -30.4190  -12.7280   19.4920 C   0  0  0  0  0  2  0  0  0  0  0  0
  -29.5090  -12.6150   18.2480 C   0  0  0  0  0  2  0  0  0  0  0  0
  -28.0420  -12.4010   18.6760 C   0  0  0  0  0  2  0  0  0  0  0  0
  -27.5970  -13.3650   19.8100 C   0  0  0  0  0  3  0  0  0  0  0  0
  -28.6450  -13.4780   20.9330 C   0  0  0  0  0  2  0  0  0  0  0  0
  -29.9170  -13.8680   20.3110 N   0  0  0  0  0  0  0  0  0  0  0  0
  -31.7750  -15.1000   20.3040 O   0  0  0  0  0  0  0  0  0  0  0  0
  -25.2110  -13.9260   20.5510 C   0  0  0  0  0  0  0  0  0  0  0  0
  -24.1480  -13.1430   20.9080 C   0  0  0  0  0  0  0  0  0  0  0  0
  -24.6200  -11.7950   20.8800 C   0  0  0  0  0  0  0  0  0  0  0  0
  -26.2620  -13.0550   20.3150 N   0  0  0  0  0  0  0  0  0  0  0  0
  -25.9150  -11.7680   20.5810 N   0  0  0  0  0  0  0  0  0  0  0  0
  -23.8970  -10.5300   21.0550 C   0  0  0  0  0  0  0  0  0  0  0  0
  -24.3180   -9.5620   21.9980 C   0  0  0  0  0  3  0  0  0  0  0  0
  -23.5920   -8.3650   22.1670 C   0  0  0  0  0  3  0  0  0  0  0  0
  -22.4310   -8.1230   21.3920 C   0  0  0  0  0  0  0  0  0  0  0  0
  -22.0300   -9.0780   20.4400 C   0  0  0  0  0  3  0  0  0  0  0  0
  -22.7550  -10.2680   20.2700 C   0  0  0  0  0  3  0  0  0  0  0  0
  -21.6780   -6.9780   21.4720 O   0  0  0  0  0  0  0  0  0  0  0  0
  -21.6070   -6.2400   22.6260 C   0  0  0  0  0  0  0  0  0  0  0  0
  -21.1550   -6.7960   23.8430 C   0  0  0  0  0  3  0  0  0  0  0  0
  -21.0320   -5.9820   24.9860 C   0  0  0  0  0  3  0  0  0  0  0  0
  -21.3540   -4.6120   24.9150 C   0  0  0  0  0  0  0  0  0  0  0  0
  -21.8000   -4.0570   23.7030 C   0  0  0  0  0  3  0  0  0  0  0  0
  -21.9250   -4.8670   22.5620 C   0  0  0  0  0  0  0  0  0  0  0  0
  -22.3360   -4.3210   21.3910 F   0  0  0  0  0  0  0  0  0  0  0  0
  -21.2270   -3.8300   26.0100 F   0  0  0  0  0  0  0  0  0  0  0  0
  -22.7420  -13.6160   21.1490 C   0  0  0  0  0  0  0  0  0  0  0  0
  -21.9970  -12.9260   22.0030 N   0  0  0  0  0  0  0  0  0  0  0  0
  -22.3100  -14.6330   20.6070 O   0  0  0  0  0  0  0  0  0  0  0  0
  -22.3520  -12.1120   22.4820 H   0  0  0  0  0  0  0  0  0  0  0  0
  -21.0480  -13.2190   22.1870 H   0  0  0  0  0  0  0  0  0  0  0  0
  -25.3620  -15.2990   20.3810 N   0  0  0  0  0  0  0  0  0  0  0  0
  -24.5830  -15.9390   20.4960 H   0  0  0  0  0  0  0  0  0  0  0  0
  -26.2160  -15.7580   20.0820 H   0  0  0  0  0  0  0  0  0  0  0  0
  -28.9720  -23.4120   20.2460 C   0  0  0  0  0  3  0  0  0  0  0  0
  -28.7780  -21.9950   20.2830 C   0  0  0  0  0  0  0  0  0  0  0  0
  -27.3650  -21.4550   20.4030 C   0  0  0  0  0  1  0  0  0  0  0  0
  -27.9080  -24.6740   20.2320 C   0  0  0  0  0  2  0  0  0  0  0  0
  -28.2380  -26.1990   20.3370 O   0  0  0  0  0  0  0  0  0  0  0  0
  -24.6230  -31.9420   23.3000 C   0  0  0  0  0  0  0  0  0  0  0  0
  -27.1860  -27.1960   20.2860 C   0  0  0  0  0  0  0  0  0  0  0  0
  -23.4260  -30.5520   21.6570 C   0  0  0  0  0  3  0  0  0  0  0  0
  -24.8730  -28.9780   20.2400 C   0  0  0  0  0  0  0  0  0  0  0  0
  -25.9840  -30.8050   21.5000 C   0  0  0  0  0  2  0  0  0  0  0  0
  -26.0550  -29.4070   20.8560 C   0  0  0  0  0  0  0  0  0  0  0  0
  -27.2070  -28.5300   20.8700 C   0  0  0  0  0  3  0  0  0  0  0  0
  -25.9680  -26.8700   19.6440 C   0  0  0  0  0  3  0  0  0  0  0  0
  -24.8420  -27.7190   19.6220 C   0  0  0  0  0  3  0  0  0  0  0  0
  -23.6470  -29.8750   20.2790 C   0  0  0  0  0  2  0  0  0  0  0  0
  -24.6970  -31.1230   22.2060 N   0  0  0  0  0  0  0  0  0  0  0  0
  -23.5350  -32.2330   23.8220 O   0  0  0  0  0  0  0  0  0  0  0  0
  -22.7410  -29.5460   22.6160 C   0  0  0  0  0  0  0  0  0  0  0  0
  -21.4150  -29.3750   22.4860 N   0  0  0  0  0  0  0  0  0  0  0  0
  -23.4090  -28.9180   23.4430 O   0  0  0  0  0  0  0  0  0  0  0  0
  -20.9330  -29.9240   21.7900 H   0  0  0  0  0  0  0  0  0  0  0  0
  -18.0290  -28.1780   22.9680 C   0  0  0  0  0  0  0  0  0  0  0  0
  -20.5870  -28.4440   23.2570 C   0  0  0  0  0  3  0  0  0  0  0  0
  -20.6950  -27.0070   22.6920 C   0  0  0  0  0  2  0  0  0  0  0  0
  -19.6000  -26.6790   21.6730 C   0  0  0  0  0  2  0  0  0  0  0  0
  -18.2120  -26.8260   22.3030 C   0  0  0  0  0  2  0  0  0  0  0  0
  -19.1440  -28.9460   23.4030 C   0  0  0  0  0  0  0  0  0  0  0  0
  -18.9140  -30.2100   23.9870 C   0  0  0  0  0  3  0  0  0  0  0  0
  -17.6050  -30.7070   24.1430 C   0  0  0  0  0  3  0  0  0  0  0  0
  -16.5070  -29.9380   23.7220 C   0  0  0  0  0  3  0  0  0  0  0  0
  -16.7190  -28.6760   23.1400 C   0  0  0  0  0  3  0  0  0  0  0  0
  -25.8990  -32.5780   23.9300 C   0  0  0  0  0  3  0  0  0  0  0  0
  -25.5970  -33.9850   24.2440 N   0  0  0  0  0  0  0  0  0  0  0  0
  -25.9320  -35.0290   23.4720 C   0  0  0  0  0  0  0  0  0  0  0  0
  -26.5920  -34.9070   22.4350 O   0  0  0  0  0  0  0  0  0  0  0  0
  -25.0150  -34.1500   25.0500 H   0  0  0  0  0  0  0  0  0  0  0  0
  -24.2040  -36.8230   23.1280 C   0  0  0  0  0  1  0  0  0  0  0  0
  -25.4600  -36.4270   23.9190 C   0  0  0  0  0  3  0  0  0  0  0  0
  -27.6170  -37.3160   24.6890 C   0  0  0  0  0  1  0  0  0  0  0  0
  -26.4950  -37.4730   23.7680 N   0  0  0  0  0  0  0  0  0  0  0  0
  -26.0970  -38.3970   23.9090 H   0  0  0  0  0  0  0  0  0  0  0  0
  -26.3920  -31.8190   25.2220 C   0  0  1  0  0  0  0  0  0  0  0  0
  -25.2840  -31.6080   26.2810 C   0  0  0  0  0  1  0  0  0  0  0  0
  -26.9670  -30.4300   24.8600 C   0  0  0  0  0  1  0  0  0  0  0  0
  -27.5430  -32.6110   25.8860 C   0  0  0  0  0  1  0  0  0  0  0  0
  1  4  1  0
  2  5  1  0
  2  1  2  0
  4 11  1  0
  4  3  2  0
  5  6  2  0
  6  9  1  0
  6  3  1  0
  7  5  1  0
  7  8  1  0
  8  9  1  0
  9 48  1  0
  9 10  1  1
 12 17  1  0
 13 14  1  0
 13 12  1  0
 15 14  1  0
 15 22  1  0
 15 16  1  0
 17 11  1  0
 17 16  1  0
 18 11  2  0
 19 20  2  0
 20 39  1  0
 21 20  1  0
 21 24  1  0
 22 19  1  0
 22 23  1  0
 23 21  2  0
 24 25  1  0
 25 26  2  0
 27 30  1  0
 27 26  1  0
 28 27  2  0
 29 28  1  0
 29 24  2  0
 30 31  1  0
 31 32  1  0
 32 33  2  0
 34 33  1  0
 34 38  1  0
 35 34  2  0
 36 31  2  0
 36 35  1  0
 37 36  1  0
 39 40  1  0
 40 43  1  0
 40 42  1  0
 41 39  2  0
 44 45  1  0
 44 19  1  0
 46 44  1  0
 47 48  2  0
 48 49  1  0
 50 47  1  0
 50 51  1  0
 52 63  2  0
 53 51  1  0
 53 58  1  0
 54 62  1  0
 54 64  1  0
 55 61  1  0
 55 57  1  0
 56 62  1  0
 57 58  2  0
 57 56  1  0
 59 53  2  0
 60 59  1  0
 60 55  2  0
 61 54  1  0
 62 52  1  0
 64 66  2  0
 65 64  1  0
 67 65  1  0
 68 77  2  0
 68 73  1  0
 69 65  1  0
 69 73  1  0
 70 69  1  0
 71 72  1  0
 71 70  1  0
 72 68  1  0
 73 74  2  0
 74 75  1  0
 76 75  2  0
 77 76  1  0
 78 52  1  0
 78 79  1  0
 78 88  1  0
 79 82  1  0
 80 84  1  0
 80 79  1  0
 81 80  2  0
 84 83  1  0
 86 87  1  0
 86 84  1  0
 86 85  1  0
 88 91  1  1
 88 89  1  0
 90 88  1  0
M  ISO  4   4 100  11 100  50 101  51 101
M  END
>  <TORSDO>  (32) 
F 18

>  <SCORE>  (32) 
-14.075

>  <name>  (32) 
31

>  <ligand_id>  (32) 
31

>  <original_smiles>  (32) 
[H]C(=C(C([H])([H])[H])C1(C([H])([H])[H])c2c([H])c(C(=O)N3C([H])([H])C([H])([H])C([H])([H])C([H])(n4nc(-c5c([H])c([H])c(Oc6c([H])c([H])c(F)c([H])c6F)c([H])c5[H])c(C(=O)N([H])[H])c4N([H])[H])C3([H])[H])c([H])c([H])c2C([H])([H])C1([H])[H])C([H])([H])Oc1c([H])c([H])c2c(c1[H])C([H])([H])N(C(=O)C([H])(N([H])C(=O)C([H])(N([H])C([H])([H])[H])C([H])([H])[H])C(C([H])([H])[H])(C([H])([H])[H])C([H])([H])[H])C([H])(C(=O)N([H])C1([H])c3c([H])c([H])c([H])c([H])c3C([H])([H])C([H])([H])C1([H])[H])C2([H])[H]

>  <smiles>  (32) 
[H]C(=C(C([H])([H])[H])C1(C([H])([H])[H])c2c([H])c(C(=O)N3C([H])([H])C([H])([H])C([H])([H])C([H])(n4nc(-c5c([H])c([H])c(Oc6c([H])c([H])c(F)c([H])c6F)c([H])c5[H])c(C(=O)N([H])[H])c4N([H])[H])C3([H])[H])c([H])c([H])c2C([H])([H])C1([H])[H])C([H])([H])Oc1c([H])c([H])c2c(c1[H])C([H])([H])N(C(=O)C([H])(N([H])C(=O)C([H])(N([H])C([H])([H])[H])C([H])([H])[H])C(C([H])([H])[H])(C([H])([H])[H])C([H])([H])[H])C([H])(C(=O)N([H])C1([H])c3c([H])c([H])c([H])c([H])c3C([H])([H])C([H])([H])C1([H])[H])C2([H])[H]

$$$$
32:0:0
     RDKit          3D

 89 97  0  0  1  0  0  0  0  0999 V2000
  -27.2080  -20.3380   17.8870 C   0  0  0  0  0  3  0  0  0  0  0  0
  -26.8200  -19.4210   18.8740 C   0  0  0  0  0  3  0  0  0  0  0  0
  -28.2010  -21.2840   18.1980 C   0  0  0  0  0  3  0  0  0  0  0  0
  -27.6080  -19.2550   20.0290 C   0  0  0  0  0  0  0  0  0  0  0  0
  -28.8660  -21.2290   19.4430 C   0  0  0  0  0  0  0  0  0  0  0  0
  -28.9230  -19.7920   20.0480 C   0  0  0  0  0  0  0  0  0  0  0  0
  -27.0360  -18.4440   21.1700 C   0  0  0  0  0  1  0  0  0  0  0  0
  -29.0220  -22.8370   20.0400 C   0  0  0  0  0  3  0  0  0  0  0  0
  -28.0490  -24.2990   19.7040 C   0  0  0  0  0  3  0  0  0  0  0  0
  -28.1920  -25.8870   20.0600 O   0  0  0  0  0  0  0  0  0  0  0  0
  -24.4200  -31.6610   23.0700 C   0  0  0  0  0  0  0  0  0  0  0  0
  -27.1390  -26.9290   19.9950 C   0  0  0  0  0  0  0  0  0  0  0  0
  -23.2730  -30.2480   21.4100 C   0  0  0  0  0  3  0  0  0  0  0  0
  -24.7740  -28.7070   19.9750 C   0  0  0  0  0  0  0  0  0  0  0  0
  -25.8290  -30.5470   21.2740 C   0  0  0  0  0  2  0  0  0  0  0  0
  -25.9470  -29.1520   20.5990 C   0  0  0  0  0  0  0  0  0  0  0  0
  -27.1230  -28.2820   20.5880 C   0  0  0  0  0  3  0  0  0  0  0  0
  -25.9350  -26.6260   19.3220 C   0  0  0  0  0  3  0  0  0  0  0  0
  -24.7910  -27.4660   19.3190 C   0  0  0  0  0  3  0  0  0  0  0  0
  -23.5270  -29.5860   20.0290 C   0  0  0  0  0  2  0  0  0  0  0  0
  -24.5280  -30.8440   21.9730 N   0  0  0  0  0  0  0  0  0  0  0  0
  -23.3220  -31.9130   23.5890 O   0  0  0  0  0  0  0  0  0  0  0  0
  -22.6050  -29.2220   22.3620 C   0  0  0  0  0  0  0  0  0  0  0  0
  -21.2760  -29.0420   22.2470 N   0  0  0  0  0  0  0  0  0  0  0  0
  -23.2880  -28.5890   23.1710 O   0  0  0  0  0  0  0  0  0  0  0  0
  -20.7790  -29.6000   21.5680 H   0  0  0  0  0  0  0  0  0  0  0  0
  -17.9110  -27.8030   22.7870 C   0  0  0  0  0  0  0  0  0  0  0  0
  -20.4730  -28.0780   23.0080 C   0  0  0  0  0  3  0  0  0  0  0  0
  -20.5720  -26.6640   22.3880 C   0  0  0  0  0  2  0  0  0  0  0  0
  -19.4520  -26.3650   21.3870 C   0  0  0  0  0  2  0  0  0  0  0  0
  -18.0820  -26.4790   22.0620 C   0  0  0  0  0  2  0  0  0  0  0  0
  -19.0320  -28.5620   23.2160 C   0  0  0  0  0  0  0  0  0  0  0  0
  -18.8150  -29.8020   23.8560 C   0  0  0  0  0  3  0  0  0  0  0  0
  -17.5090  -30.2840   24.0660 C   0  0  0  0  0  3  0  0  0  0  0  0
  -16.4030  -29.5230   23.6520 C   0  0  0  0  0  3  0  0  0  0  0  0
  -16.6040  -28.2830   23.0200 C   0  0  0  0  0  3  0  0  0  0  0  0
  -25.6700  -32.3320   23.7150 C   0  0  0  0  0  3  0  0  0  0  0  0
  -26.1840  -31.5730   25.0010 C   0  0  1  0  0  0  0  0  0  0  0  0
  -25.0820  -31.3120   26.0540 C   0  0  0  0  0  1  0  0  0  0  0  0
  -26.8020  -30.2070   24.6240 C   0  0  0  0  0  1  0  0  0  0  0  0
  -27.3110  -32.3910   25.6760 C   0  0  0  0  0  1  0  0  0  0  0  0
  -25.3140  -33.7210   24.0540 N   0  0  0  0  0  0  0  0  0  0  0  0
  -25.6140  -34.7930   23.3090 C   0  0  0  0  0  0  0  0  0  0  0  0
  -26.2800  -34.7180   22.2730 O   0  0  0  0  0  0  0  0  0  0  0  0
  -24.7210  -33.8500   24.8610 H   0  0  0  0  0  0  0  0  0  0  0  0
  -23.8310  -36.5420   22.9880 C   0  0  0  0  0  1  0  0  0  0  0  0
  -25.0910  -36.1650   23.7840 C   0  0  0  0  0  3  0  0  0  0  0  0
  -27.2060  -37.1080   24.6030 C   0  0  0  0  0  1  0  0  0  0  0  0
  -26.0920  -37.2490   23.6700 N   0  0  0  0  0  0  0  0  0  0  0  0
  -25.6600  -38.1560   23.8270 H   0  0  0  0  0  0  0  0  0  0  0  0
  -29.9780  -18.4390   19.7720 C   0  0  0  0  0  2  0  0  0  0  0  0
  -30.2730  -16.8520   21.8780 C   0  0  0  0  0  1  0  0  0  0  0  0
  -29.9220  -16.7490   20.3780 C   0  0  0  0  0  3  0  0  0  0  0  0
  -30.6590  -15.2450   19.8840 C   0  0  0  0  0  0  0  0  0  0  0  0
  -30.4940  -12.8330   18.9380 C   0  0  0  0  0  2  0  0  0  0  0  0
  -29.4840  -12.7540   17.7650 C   0  0  0  0  0  2  0  0  0  0  0  0
  -28.0500  -12.5410   18.2860 C   0  0  0  0  0  2  0  0  0  0  0  0
  -27.7300  -13.4600   19.4920 C   0  0  0  0  0  3  0  0  0  0  0  0
  -28.8580  -13.4870   20.5440 C   0  0  0  0  0  2  0  0  0  0  0  0
  -30.0800  -13.9480   19.8610 N   0  0  0  0  0  0  0  0  0  0  0  0
  -31.8300  -15.2500   19.4720 O   0  0  0  0  0  0  0  0  0  0  0  0
  -25.4370  -14.0660   20.4360 C   0  0  0  0  0  0  0  0  0  0  0  0
  -24.3810  -13.3100   20.8590 C   0  0  0  0  0  0  0  0  0  0  0  0
  -24.8000  -11.9480   20.7490 C   0  0  0  0  0  0  0  0  0  0  0  0
  -26.4290  -13.1690   20.0810 N   0  0  0  0  0  0  0  0  0  0  0  0
  -26.0620  -11.8860   20.3400 N   0  0  0  0  0  0  0  0  0  0  0  0
  -24.0450  -10.7050   20.9490 C   0  0  0  0  0  0  0  0  0  0  0  0
  -24.4720   -9.7200   21.8670 C   0  0  0  0  0  3  0  0  0  0  0  0
  -23.7160   -8.5420   22.0540 C   0  0  0  0  0  3  0  0  0  0  0  0
  -22.5200   -8.3400   21.3220 C   0  0  0  0  0  0  0  0  0  0  0  0
  -22.1180   -9.3110   20.3880 C   0  0  0  0  0  3  0  0  0  0  0  0
  -22.8730  -10.4810   20.2010 C   0  0  0  0  0  3  0  0  0  0  0  0
  -21.7370   -7.2150   21.4190 O   0  0  0  0  0  0  0  0  0  0  0  0
  -21.6360   -6.5070   22.5900 C   0  0  0  0  0  0  0  0  0  0  0  0
  -21.1900   -7.1060   23.7890 C   0  0  0  0  0  3  0  0  0  0  0  0
  -21.0350   -6.3250   24.9520 C   0  0  0  0  0  3  0  0  0  0  0  0
  -21.3170   -4.9450   24.9180 C   0  0  0  0  0  0  0  0  0  0  0  0
  -21.7550   -4.3470   23.7240 C   0  0  0  0  0  3  0  0  0  0  0  0
  -21.9110   -5.1250   22.5630 C   0  0  0  0  0  0  0  0  0  0  0  0
  -22.3130   -4.5360   21.4110 F   0  0  0  0  0  0  0  0  0  0  0  0
  -21.1610   -4.1960   26.0340 F   0  0  0  0  0  0  0  0  0  0  0  0
  -23.0220  -13.8180   21.2460 C   0  0  0  0  0  0  0  0  0  0  0  0
  -22.3470  -13.1290   22.1570 N   0  0  0  0  0  0  0  0  0  0  0  0
  -22.5710  -14.8640   20.7740 O   0  0  0  0  0  0  0  0  0  0  0  0
  -22.7300  -12.2850   22.5580 H   0  0  0  0  0  0  0  0  0  0  0  0
  -21.4370  -13.4420   22.4600 H   0  0  0  0  0  0  0  0  0  0  0  0
  -25.6290  -15.4380   20.2940 N   0  0  0  0  0  0  0  0  0  0  0  0
  -24.8930  -16.1070   20.4910 H   0  0  0  0  0  0  0  0  0  0  0  0
  -26.4440  -15.8550   19.8670 H   0  0  0  0  0  0  0  0  0  0  0  0
  1  3  2  0
  1  2  1  0
  2  4  2  0
  3  5  1  0
  4  6  1  0
  4  7  1  0
  5  8  1  0
  5  6  2  3
  9  8  2  0
  9 10  1  0
 11 22  2  0
 12 10  1  0
 12 17  1  0
 13 21  1  0
 13 23  1  0
 14 20  1  0
 14 16  1  0
 15 21  1  0
 16 15  1  0
 17 16  2  0
 18 12  2  0
 19 18  1  0
 19 14  2  0
 20 13  1  0
 21 11  1  0
 23 25  2  0
 24 23  1  0
 26 24  1  0
 27 36  2  0
 27 32  1  0
 28 24  1  0
 28 32  1  0
 29 28  1  0
 30 31  1  0
 30 29  1  0
 31 27  1  0
 32 33  2  0
 33 34  1  0
 35 34  2  0
 36 35  1  0
 37 11  1  0
 37 42  1  0
 37 38  1  0
 38 41  1  1
 38 39  1  0
 40 38  1  0
 42 45  1  0
 43 47  1  0
 43 42  1  0
 44 43  2  0
 47 46  1  0
 49 47  1  0
 49 50  1  0
 49 48  1  0
 51  6  1  0
 51 53  1  0
 53 52  1  0
 54 53  1  0
 55 60  1  0
 56 57  1  0
 56 55  1  0
 58 57  1  0
 58 65  1  0
 58 59  1  0
 60 54  1  0
 60 59  1  0
 61 54  2  0
 62 63  2  0
 63 82  1  0
 64 63  1  0
 64 67  1  0
 65 66  1  0
 65 62  1  0
 66 64  2  0
 67 68  1  0
 68 69  2  0
 70 73  1  0
 70 69  1  0
 71 70  2  0
 72 71  1  0
 72 67  2  0
 73 74  1  0
 74 75  1  0
 75 76  2  0
 77 76  1  0
 77 81  1  0
 78 77  2  0
 79 74  2  0
 79 78  1  0
 80 79  1  0
 82 83  1  0
 83 86  1  0
 83 85  1  0
 84 82  2  0
 87 62  1  0
 87 88  1  0
 89 87  1  0
M  ISO  4   9 101  10 101  53 100  54 100
M  END
>  <TORSDO>  (33) 
F 20

>  <SCORE>  (33) 
-13.494

>  <name>  (33) 
32

>  <ligand_id>  (33) 
32

>  <original_smiles>  (33) 
[H]c1c([H])c(C([H])([H])[H])c(C([H])([H])C([H])(C(=O)N2C([H])([H])C([H])([H])C([H])([H])C([H])(n3nc(-c4c([H])c([H])c(Oc5c([H])c([H])c(F)c([H])c5F)c([H])c4[H])c(C(=O)N([H])[H])c3N([H])[H])C2([H])[H])C([H])([H])[H])c(C([H])([H])C([H])([H])Oc2c([H])c([H])c3c(c2[H])C([H])([H])N(C(=O)C([H])(N([H])C(=O)C([H])(N([H])C([H])([H])[H])C([H])([H])[H])C(C([H])([H])[H])(C([H])([H])[H])C([H])([H])[H])C([H])(C(=O)N([H])C2([H])c4c([H])c([H])c([H])c([H])c4C([H])([H])C([H])([H])C2([H])[H])C3([H])[H])c1[H]

>  <smiles>  (33) 
[H]c1c([H])c(C([H])([H])[H])c(C([H])([H])C([H])(C(=O)N2C([H])([H])C([H])([H])C([H])([H])C([H])(n3nc(-c4c([H])c([H])c(Oc5c([H])c([H])c(F)c([H])c5F)c([H])c4[H])c(C(=O)N([H])[H])c3N([H])[H])C2([H])[H])C([H])([H])[H])c(C([H])([H])C([H])([H])Oc2c([H])c([H])c3c(c2[H])C([H])([H])N(C(=O)C([H])(N([H])C(=O)C([H])(N([H])C([H])([H])[H])C([H])([H])[H])C(C([H])([H])[H])(C([H])([H])[H])C([H])([H])[H])C([H])(C(=O)N([H])C2([H])c4c([H])c([H])c([H])c([H])c4C([H])([H])C([H])([H])C2([H])[H])C3([H])[H])c1[H]

$$$$
33:0:0
     RDKit          3D

102102  0  0  1  0  0  0  0  0999 V2000
  -21.6470  -24.6900   17.6040 C   0  0  0  0  0  2  0  0  0  0  0  0
  -20.2110  -25.1570   17.8930 C   0  0  0  0  0  3  0  0  0  0  0  0
  -22.3510  -24.0230   18.7970 C   0  0  0  0  0  2  0  0  0  0  0  0
  -21.6040  -26.0100   23.4830 C   0  0  0  0  0  3  0  0  0  0  0  0
  -22.8970  -24.3170   22.6730 C   0  0  0  0  0 15  0  0  0  0  0  0
  -19.9900  -26.3320   18.8730 C   0  0  0  0  0  3  0  0  0  0  0  0
  -22.7690  -24.9370   19.9480 C   0  0  0  0  0  1  0  0  0  0  0  0
  -20.3320  -27.8050   21.6640 C   0  0  0  0  0 15  0  0  0  0  0  0
  -24.0800  -23.3990   21.0720 C   0  0  0  0  0  1  0  0  0  0  0  0
  -21.2180  -26.7670   19.7690 C   0  0  0  0  0  2  0  0  0  0  0  0
  -21.8150  -27.8330   18.8830 C   0  0  0  0  0  1  0  0  0  0  0  0
  -27.1270  -25.0790   22.7790 C   0  0  0  0  0  3  0  0  0  0  0  0
  -26.0190  -24.2460   22.5320 C   0  0  0  0  0  3  0  0  0  0  0  0
  -27.7380  -25.7710   21.7130 C   0  0  0  0  0  3  0  0  0  0  0  0
  -26.0600  -24.8500   20.1930 C   0  0  0  0  0  3  0  0  0  0  0  0
  -25.3880  -24.2110   21.2690 C   0  0  0  0  0  0  0  0  0  0  0  0
  -27.2580  -25.5910   20.3920 C   0  0  0  0  0  0  0  0  0  0  0  0
  -28.1040  -26.0580   19.1840 C   0  0  0  0  0  2  0  0  0  0  0  0
  -28.1680  -27.4770   18.8830 O   0  0  0  0  0  0  0  0  0  0  0  0
  -24.5820  -31.9260   23.0430 C   0  0  0  0  0  0  0  0  0  0  0  0
  -27.0060  -28.2040   18.9930 C   0  0  0  0  0  0  0  0  0  0  0  0
  -23.3040  -30.6710   21.3640 C   0  0  0  0  0  3  0  0  0  0  0  0
  -24.6000  -29.6130   19.4420 C   0  0  0  0  0  0  0  0  0  0  0  0
  -25.7270  -31.3050   20.9080 C   0  0  0  0  0  2  0  0  0  0  0  0
  -25.7880  -30.0680   20.0190 C   0  0  0  0  0  0  0  0  0  0  0  0
  -26.9940  -29.3760   19.7790 C   0  0  0  0  0  3  0  0  0  0  0  0
  -25.8220  -27.7930   18.3600 C   0  0  0  0  0  3  0  0  0  0  0  0
  -24.6360  -28.5060   18.5560 C   0  0  0  0  0  3  0  0  0  0  0  0
  -23.3640  -30.4010   19.8340 C   0  0  0  0  0  2  0  0  0  0  0  0
  -24.5450  -31.3590   21.8060 N   0  0  0  0  0  0  0  0  0  0  0  0
  -23.5730  -31.9860   23.7570 O   0  0  0  0  0  0  0  0  0  0  0  0
  -23.2040  -29.3500   22.1710 C   0  0  0  0  0  0  0  0  0  0  0  0
  -22.0880  -28.6880   22.2560 N   0  0  0  0  0  0  0  0  0  0  0  0
  -24.1610  -28.8700   22.7460 O   0  0  0  0  0  0  0  0  0  0  0  0
  -21.2630  -29.0960   21.8510 H   0  0  0  0  0  0  0  0  0  0  0  0
  -18.9210  -25.8830   23.3760 C   0  0  0  0  0  2  0  0  0  0  0  0
  -21.9250  -27.3980   23.0690 C   0  0  2  0  0  0  0  0  0  0  0  0
  -22.2000  -26.3030   21.6900 C   0  0  0  0  0  2  0  0  0  0  0  0
  -20.4430  -24.8110   21.1070 C   0  0  0  0  0  1  0  0  0  0  0  0
  -19.0150  -24.7880   22.1200 C   0  0  0  0  0  2  0  0  0  0  0  0
  -20.4180  -27.2160   23.9550 C   0  0  0  0  0  2  0  0  0  0  0  0
  -20.1120  -28.8730   23.5350 C   0  0  0  0  0 15  0  0  0  0  0  0
  -18.8290  -29.3300   22.6390 C   0  0  0  0  0  2  0  0  0  0  0  0
  -17.6610  -28.3200   22.1310 C   0  0  0  0  0  3  0  0  0  0  0  0
  -17.6210  -26.6790   22.4470 C   0  0  0  0  0  3  0  0  0  0  0  0
  -25.9060  -32.5280   23.6010 C   0  0  0  0  0  3  0  0  0  0  0  0
  -26.6210  -31.6050   24.6610 C   0  0  1  0  0  0  0  0  0  0  0  0
  -25.6890  -31.1320   25.8000 C   0  0  0  0  0  1  0  0  0  0  0  0
  -27.2250  -30.3480   23.9940 C   0  0  0  0  0  1  0  0  0  0  0  0
  -27.8080  -32.3730   25.2900 C   0  0  0  0  0  1  0  0  0  0  0  0
  -25.5650  -33.8260   24.1790 N   0  0  0  0  0  0  0  0  0  0  0  0
  -25.7310  -34.9960   23.5480 C   0  0  0  0  0  0  0  0  0  0  0  0
  -26.2670  -35.0860   22.4400 O   0  0  0  0  0  0  0  0  0  0  0  0
  -25.0700  -33.8170   25.0600 H   0  0  0  0  0  0  0  0  0  0  0  0
  -23.8870  -36.7000   23.6480 C   0  0  0  0  0  1  0  0  0  0  0  0
  -25.2270  -36.2610   24.2580 C   0  0  0  0  0  3  0  0  0  0  0  0
  -27.3980  -37.1410   24.9940 C   0  0  0  0  0  1  0  0  0  0  0  0
  -26.1900  -37.3850   24.2090 N   0  0  0  0  0  0  0  0  0  0  0  0
  -25.7590  -38.2400   24.5490 H   0  0  0  0  0  0  0  0  0  0  0  0
  -18.8030  -29.3470   23.8210 N   0  0  0  0  0  4  0  0  0  0  0  0
  -19.4420  -29.6170   24.5470 H   0  0  0  0  0  0  0  0  0  0  0  0
  -18.0730  -28.7530   24.1730 H   0  0  0  0  0  0  0  0  0  0  0  0
  -18.4130  -30.1630   23.3740 H   0  0  0  0  0  0  0  0  0  0  0  0
  -25.7770  -21.1460   20.4890 C   0  0  0  0  0 15  0  0  0  0  0  0
  -28.5310  -17.5490   20.1210 C   0  0  0  0  0  2  0  0  0  0  0  0
  -30.0140  -14.8920   19.1830 C   0  0  0  0  0  2  0  0  0  0  0  0
  -29.6700  -13.6650   18.1510 C   0  0  0  0  0  2  0  0  0  0  0  0
  -28.4800  -12.8220   18.5950 C   0  0  0  0  0  2  0  0  0  0  0  0
  -27.6820  -13.8030   19.4430 C   0  0  0  0  0  3  0  0  0  0  0  0
  -28.3990  -14.5960   20.5740 C   0  0  0  0  0  2  0  0  0  0  0  0
  -28.8440  -15.8860   19.9230 N   0  0  0  0  0  0  0  0  0  0  0  0
  -29.8360  -17.5650   19.8720 O   0  0  0  0  0  1  0  0  0  0  0  0
  -27.1060  -19.0130   20.4090 N   0  0  0  0  0  1  0  0  0  0  0  0
  -26.3600  -18.3700   20.6320 H   0  0  0  0  0  0  0  0  0  0  0  0
  -25.4520  -14.2960   20.2450 C   0  0  0  0  0  0  0  0  0  0  0  0
  -24.4350  -13.5270   20.6870 C   0  0  0  0  0  0  0  0  0  0  0  0
  -24.8950  -12.1740   20.6200 C   0  0  0  0  0  0  0  0  0  0  0  0
  -26.4420  -13.4000   19.9410 N   0  0  0  0  0  0  0  0  0  0  0  0
  -26.1590  -12.1140   20.2260 N   0  0  0  0  0  0  0  0  0  0  0  0
  -24.1710  -10.9300   20.8300 C   0  0  0  0  0  0  0  0  0  0  0  0
  -24.6030   -9.9680   21.7670 C   0  0  0  0  0  3  0  0  0  0  0  0
  -23.8560   -8.7880   21.9620 C   0  0  0  0  0  3  0  0  0  0  0  0
  -22.6720   -8.5710   21.2170 C   0  0  0  0  0  0  0  0  0  0  0  0
  -22.2660   -9.5220   20.2670 C   0  0  0  0  0  3  0  0  0  0  0  0
  -23.0110  -10.6910   20.0690 C   0  0  0  0  0  3  0  0  0  0  0  0
  -21.8930   -7.4470   21.3270 O   0  0  0  0  0  0  0  0  0  0  0  0
  -21.7720   -6.7730   22.5120 C   0  0  0  0  0  0  0  0  0  0  0  0
  -21.3390   -7.4120   23.6950 C   0  0  0  0  0  3  0  0  0  0  0  0
  -21.1640   -6.6630   24.8740 C   0  0  0  0  0  3  0  0  0  0  0  0
  -21.4090   -5.2770   24.8700 C   0  0  0  0  0  0  0  0  0  0  0  0
  -21.8360   -4.6380   23.6940 C   0  0  0  0  0  3  0  0  0  0  0  0
  -22.0150   -5.3840   22.5150 C   0  0  0  0  0  0  0  0  0  0  0  0
  -22.4070   -4.7640   21.3780 F   0  0  0  0  0  0  0  0  0  0  0  0
  -21.2310   -4.5540   26.0020 F   0  0  0  0  0  0  0  0  0  0  0  0
  -23.0780  -14.0430   21.0270 C   0  0  0  0  0  0  0  0  0  0  0  0
  -22.3870  -13.3750   21.9400 N   0  0  0  0  0  0  0  0  0  0  0  0
  -22.6550  -15.0810   20.5210 O   0  0  0  0  0  0  0  0  0  0  0  0
  -22.7520  -12.5350   22.3620 H   0  0  0  0  0  0  0  0  0  0  0  0
  -21.4740  -13.7080   22.2170 H   0  0  0  0  0  0  0  0  0  0  0  0
  -25.6090  -15.6710   20.0500 N   0  0  0  0  0  0  0  0  0  0  0  0
  -24.7480  -16.2100   20.0460 H   0  0  0  0  0  0  0  0  0  0  0  0
  -26.2530  -15.9730   19.3320 H   0  0  0  0  0  0  0  0  0  0  0  0
  1  2  1  0
  1  3  1  0
  2  6  2  0
  3  7  1  0
  4 38  1  0
  4 41  1  0
  6 10  1  0
  9 16  1  0
 11 10  1  0
 13 12  1  0
 14 12  2  0
 15 17  2  0
 15 16  1  0
 16 13  2  0
 17 14  1  0
 18 17  1  0
 19 21  1  0
 19 18  1  0
 20 31  2  0
 21 26  1  0
 22 30  1  0
 22 32  1  0
 23 29  1  0
 23 25  1  0
 24 30  1  0
 25 24  1  0
 26 25  2  0
 27 28  1  0
 27 21  2  0
 28 23  2  0
 29 22  1  0
 30 20  1  0
 32 33  1  0
 32 34  2  0
 35 33  1  0
 37 33  1  6
 37  4  1  0
 37 41  1  0
 38 37  1  0
 39 40  1  0
 40 36  1  0
 43 60  1  0
 44 45  2  0
 44 43  1  0
 45 36  1  0
 46 20  1  0
 46 51  1  0
 46 47  1  0
 47 50  1  1
 47 48  1  0
 49 47  1  0
 51 54  1  0
 52 51  1  0
 52 56  1  0
 53 52  2  0
 56 55  1  0
 58 56  1  0
 58 59  1  0
 58 57  1  0
 60 62  1  0
 60 61  1  0
 63 60  1  0
 66 71  1  0
 67 68  1  0
 67 66  1  0
 69 68  1  0
 69 78  1  0
 69 70  1  0
 71 65  1  0
 71 70  1  0
 72 65  1  0
 73 74  1  0
 75 76  2  0
 76 95  1  0
 77 76  1  0
 77 80  1  0
 78 79  1  0
 78 75  1  0
 79 77  2  0
 80 81  1  0
 81 82  2  0
 83 86  1  0
 83 82  1  0
 84 83  2  0
 85 84  1  0
 85 80  2  0
 86 87  1  0
 87 92  2  0
 87 88  1  0
 88 89  2  0
 90 89  1  0
 90 94  1  0
 91 90  2  0
 92 91  1  0
 93 92  1  0
 95 96  1  0
 96 99  1  0
 96 98  1  0
 97 95  2  0
100 75  1  0
101100  1  0
102100  1  0
M  ISO  4  18 101  19 101  65 100  73 100
M  END
>  <TORSDO>  (34) 
F 20

>  <SCORE>  (34) 
-5.696

>  <name>  (34) 
33

>  <ligand_id>  (34) 
33

>  <original_smiles>  (34) 
[H]c1c([H])c([H])c2c(c1[H])C([H])([H])C([H])([H])C([H])([H])C2([H])N([H])C(=O)C1([H])N(C(=O)C([H])(N([H])C(=O)C([H])(N([H])C([H])([H])[H])C([H])([H])[H])C(C([H])([H])[H])(C([H])([H])[H])C([H])([H])[H])C([H])([H])c2c([H])c(OC([H])([H])c3c([H])c([H])c([H])c(C4(C([H])([H])N([H])C(=O)N5C([H])([H])C([H])([H])C([H])([H])C([H])(n6nc(-c7c([H])c([H])c(Oc8c([H])c([H])c(F)c([H])c8F)c([H])c7[H])c(C(=O)N([H])[H])c6N([H])[H])C5([H])[H])C([H])([H])C([H])([H])C([H])([N+]([H])([H])[H])C5(C([H])([H])[H])C([H])([H])C([H])([H])C([H])([H])C([H])([H])C45[H])c3[H])c([H])c([H])c2C1([H])[H]

>  <smiles>  (34) 
[H]c1c([H])c([H])c2c(c1[H])C([H])([H])C([H])([H])C([H])([H])C2([H])N([H])C(=O)C1([H])N(C(=O)C([H])(N([H])C(=O)C([H])(N([H])C([H])([H])[H])C([H])([H])[H])C(C([H])([H])[H])(C([H])([H])[H])C([H])([H])[H])C([H])([H])c2c([H])c(OC([H])([H])c3c([H])c([H])c([H])c(C4(C([H])([H])N([H])C(=O)N5C([H])([H])C([H])([H])C([H])([H])C([H])(n6nc(-c7c([H])c([H])c(Oc8c([H])c([H])c(F)c([H])c8F)c([H])c7[H])c(C(=O)N([H])[H])c6N([H])[H])C5([H])[H])C([H])([H])C([H])([H])C([H])([N+]([H])([H])[H])C5(C([H])([H])[H])C([H])([H])C([H])([H])C([H])([H])C([H])([H])C45[H])c3[H])c([H])c([H])c2C1([H])[H]

$$$$
34:0:0
     RDKit          3D

 90 99  0  0  1  0  0  0  0  0999 V2000
  -28.2150  -20.6190   20.7880 C   0  0  0  0  0  3  0  0  0  0  0  0
  -27.4870  -21.7240   21.2680 C   0  0  0  0  0  3  0  0  0  0  0  0
  -29.4730  -22.1840   19.4450 C   0  0  0  0  0  3  0  0  0  0  0  0
  -29.2470  -20.7470   19.8500 C   0  0  0  0  0  0  0  0  0  0  0  0
  -27.7120  -23.0640   20.8630 C   0  0  0  0  0  0  0  0  0  0  0  0
  -28.7290  -23.4130   19.9340 C   0  0  0  0  0  0  0  0  0  0  0  0
  -26.7600  -24.0990   21.4200 C   0  0  0  0  0  1  0  0  0  0  0  0
  -30.7800  -15.3320   20.0250 C   0  0  0  0  0  0  0  0  0  0  0  0
  -30.6460  -12.9460   19.1890 C   0  0  0  0  0  2  0  0  0  0  0  0
  -29.6880  -12.8250   17.9820 C   0  0  0  0  0  2  0  0  0  0  0  0
  -28.2390  -12.6110   18.4630 C   0  0  0  0  0  2  0  0  0  0  0  0
  -27.8310  -13.5760   19.6070 C   0  0  0  0  0  3  0  0  0  0  0  0
  -28.9140  -13.6730   20.6970 C   0  0  0  0  0  2  0  0  0  0  0  0
  -30.1560  -14.0810   20.0190 N   0  0  0  0  0  0  0  0  0  0  0  0
  -32.0140  -15.3320   19.9430 O   0  0  0  0  0  0  0  0  0  0  0  0
  -29.0450  -18.4060   18.4090 C   0  0  0  0  0  2  0  0  0  0  0  0
  -29.4050  -16.8760   18.5610 C   0  0  0  0  0  2  0  0  0  0  0  0
  -30.3120  -18.0210   20.3730 C   0  0  0  0  0  2  0  0  0  0  0  0
  -29.9030  -19.2760   19.3650 C   0  0  0  0  0  3  0  0  0  0  0  0
  -30.0490  -16.5670   19.8610 N   0  0  0  0  0  0  0  0  0  0  0  0
  -25.4730  -14.1640   20.3990 C   0  0  0  0  0  0  0  0  0  0  0  0
  -24.4130  -13.3930   20.7800 C   0  0  0  0  0  0  0  0  0  0  0  0
  -24.8770  -12.0400   20.7420 C   0  0  0  0  0  0  0  0  0  0  0  0
  -26.5100  -13.2830   20.1430 N   0  0  0  0  0  0  0  0  0  0  0  0
  -26.1610  -12.0010   20.4180 N   0  0  0  0  0  0  0  0  0  0  0  0
  -24.1550  -10.7790   20.9360 C   0  0  0  0  0  0  0  0  0  0  0  0
  -24.5730   -9.8280   21.8940 C   0  0  0  0  0  3  0  0  0  0  0  0
  -23.8500   -8.6290   22.0770 C   0  0  0  0  0  3  0  0  0  0  0  0
  -22.6950   -8.3700   21.3010 C   0  0  0  0  0  0  0  0  0  0  0  0
  -22.2940   -9.3110   20.3350 C   0  0  0  0  0  3  0  0  0  0  0  0
  -23.0180  -10.5020   20.1510 C   0  0  0  0  0  3  0  0  0  0  0  0
  -21.9430   -7.2240   21.3930 O   0  0  0  0  0  0  0  0  0  0  0  0
  -21.8470   -6.5190   22.5660 C   0  0  0  0  0  0  0  0  0  0  0  0
  -21.2950   -7.0890   23.7360 C   0  0  0  0  0  3  0  0  0  0  0  0
  -21.1530   -6.3080   24.8990 C   0  0  0  0  0  3  0  0  0  0  0  0
  -21.5480   -4.9570   24.8950 C   0  0  0  0  0  0  0  0  0  0  0  0
  -22.0920   -4.3860   23.7310 C   0  0  0  0  0  3  0  0  0  0  0  0
  -22.2370   -5.1650   22.5690 C   0  0  0  0  0  0  0  0  0  0  0  0
  -22.7410   -4.6030   21.4450 F   0  0  0  0  0  0  0  0  0  0  0  0
  -21.4030   -4.2050   26.0110 F   0  0  0  0  0  0  0  0  0  0  0  0
  -23.0190  -13.8660   21.0660 C   0  0  0  0  0  0  0  0  0  0  0  0
  -22.3020  -13.1730   21.9420 N   0  0  0  0  0  0  0  0  0  0  0  0
  -22.5730  -14.8900   20.5450 O   0  0  0  0  0  0  0  0  0  0  0  0
  -22.6770  -12.3460   22.3850 H   0  0  0  0  0  0  0  0  0  0  0  0
  -21.3650  -13.4700   22.1730 H   0  0  0  0  0  0  0  0  0  0  0  0
  -25.6380  -15.5360   20.2180 N   0  0  0  0  0  0  0  0  0  0  0  0
  -24.8850  -16.2010   20.3540 H   0  0  0  0  0  0  0  0  0  0  0  0
  -26.4900  -15.9680   19.8830 H   0  0  0  0  0  0  0  0  0  0  0  0
  -28.8080  -25.0110   19.3830 C   0  0  0  0  0  2  0  0  0  0  0  0
  -28.5750  -26.4100   20.1210 O   0  0  0  0  0  0  0  0  0  0  0  0
  -24.6260  -31.9240   23.2220 C   0  0  0  0  0  0  0  0  0  0  0  0
  -27.4670  -27.3660   20.0480 C   0  0  0  0  0  0  0  0  0  0  0  0
  -23.5130  -30.5320   21.5190 C   0  0  0  0  0  3  0  0  0  0  0  0
  -25.0510  -29.0380   20.0720 C   0  0  0  0  0  0  0  0  0  0  0  0
  -26.0620  -30.8810   21.4150 C   0  0  0  0  0  2  0  0  0  0  0  0
  -26.2030  -29.5070   20.7140 C   0  0  0  0  0  0  0  0  0  0  0  0
  -27.3990  -28.6800   20.6940 C   0  0  0  0  0  3  0  0  0  0  0  0
  -26.2760  -27.0100   19.3780 C   0  0  0  0  0  3  0  0  0  0  0  0
  -25.1020  -27.8040   19.3970 C   0  0  0  0  0  3  0  0  0  0  0  0
  -23.7830  -29.8870   20.1330 C   0  0  0  0  0  2  0  0  0  0  0  0
  -24.7520  -31.1320   22.1090 N   0  0  0  0  0  0  0  0  0  0  0  0
  -23.5170  -32.1580   23.7290 O   0  0  0  0  0  0  0  0  0  0  0  0
  -22.8410  -29.4830   22.4440 C   0  0  0  0  0  0  0  0  0  0  0  0
  -21.5230  -29.2650   22.2750 N   0  0  0  0  0  0  0  0  0  0  0  0
  -23.5120  -28.8660   23.2730 O   0  0  0  0  0  0  0  0  0  0  0  0
  -21.0270  -29.8180   21.5910 H   0  0  0  0  0  0  0  0  0  0  0  0
  -18.1790  -27.9200   22.6820 C   0  0  0  0  0  0  0  0  0  0  0  0
  -20.7240  -28.2730   23.0030 C   0  0  0  0  0  3  0  0  0  0  0  0
  -20.8890  -26.8640   22.3900 C   0  0  0  0  0  2  0  0  0  0  0  0
  -19.8200  -26.5340   21.3430 C   0  0  0  0  0  2  0  0  0  0  0  0
  -18.4200  -26.6030   21.9650 C   0  0  0  0  0  2  0  0  0  0  0  0
  -19.2610  -28.7130   23.1540 C   0  0  0  0  0  0  0  0  0  0  0  0
  -18.9820  -29.9460   23.7810 C   0  0  0  0  0  3  0  0  0  0  0  0
  -17.6560  -30.3860   23.9470 C   0  0  0  0  0  3  0  0  0  0  0  0
  -16.5890  -29.5930   23.4910 C   0  0  0  0  0  3  0  0  0  0  0  0
  -16.8530  -28.3620   22.8620 C   0  0  0  0  0  3  0  0  0  0  0  0
  -25.8640  -32.5900   23.8970 C   0  0  0  0  0  3  0  0  0  0  0  0
  -25.5190  -33.9900   24.1930 N   0  0  0  0  0  0  0  0  0  0  0  0
  -25.8710  -35.0410   23.4400 C   0  0  0  0  0  0  0  0  0  0  0  0
  -26.5870  -34.9330   22.4420 O   0  0  0  0  0  0  0  0  0  0  0  0
  -24.8870  -34.1450   24.9640 H   0  0  0  0  0  0  0  0  0  0  0  0
  -24.1490  -36.8230   22.9920 C   0  0  0  0  0  1  0  0  0  0  0  0
  -25.3520  -36.4300   23.8630 C   0  0  0  0  0  3  0  0  0  0  0  0
  -27.4310  -37.3510   24.7940 C   0  0  0  0  0  1  0  0  0  0  0  0
  -26.3800  -37.4920   23.7920 N   0  0  0  0  0  0  0  0  0  0  0  0
  -25.9550  -38.4080   23.9060 H   0  0  0  0  0  0  0  0  0  0  0  0
  -26.3240  -31.8510   25.2170 C   0  0  1  0  0  0  0  0  0  0  0  0
  -25.1830  -31.6190   26.2370 C   0  0  0  0  0  1  0  0  0  0  0  0
  -26.9490  -30.4720   24.8960 C   0  0  0  0  0  1  0  0  0  0  0  0
  -27.4250  -32.6820   25.9170 C   0  0  0  0  0  1  0  0  0  0  0  0
  1  2  1  0
  3  4  1  0
  3  6  2  0
  4  1  2  0
  5  2  2  0
  5  7  1  0
  6  5  1  0
  9 14  1  0
 10 11  1  0
 10  9  1  0
 12 11  1  0
 12 24  1  0
 12 13  1  0
 14  8  1  0
 14 13  1  0
 15  8  2  0
 16 17  1  0
 16 19  1  0
 17 20  1  0
 19  4  1  0
 19 18  1  0
 20  8  1  0
 20 18  1  0
 21 22  2  0
 22 41  1  0
 23 22  1  0
 23 26  1  0
 24 21  1  0
 24 25  1  0
 25 23  2  0
 26 27  1  0
 27 28  2  0
 29 32  1  0
 29 28  1  0
 30 29  2  0
 31 30  1  0
 31 26  2  0
 32 33  1  0
 33 38  2  0
 33 34  1  0
 34 35  2  0
 36 35  1  0
 36 40  1  0
 37 36  2  0
 38 37  1  0
 39 38  1  0
 41 42  1  0
 42 45  1  0
 42 44  1  0
 43 41  2  0
 46 47  1  0
 46 21  1  0
 48 46  1  0
 49  6  1  0
 49 50  1  0
 51 62  2  0
 52 50  1  0
 52 57  1  0
 53 61  1  0
 53 63  1  0
 54 60  1  0
 54 56  1  0
 55 61  1  0
 56 55  1  0
 57 56  2  0
 58 59  1  0
 58 52  2  0
 59 54  2  0
 60 53  1  0
 61 51  1  0
 63 65  2  0
 64 63  1  0
 66 64  1  0
 67 76  2  0
 67 72  1  0
 68 64  1  0
 68 72  1  0
 69 68  1  0
 70 71  1  0
 70 69  1  0
 71 67  1  0
 72 73  2  0
 73 74  1  0
 75 74  2  0
 76 75  1  0
 77 51  1  0
 77 78  1  0
 77 87  1  0
 78 81  1  0
 79 83  1  0
 79 78  1  0
 80 79  2  0
 83 82  1  0
 85 83  1  0
 85 86  1  0
 85 84  1  0
 87 90  1  1
 87 88  1  0
 89 87  1  0
M  ISO  4   8 100  20 100  49 101  50 101
M  END
>  <TORSDO>  (35) 
F 17

>  <SCORE>  (35) 
-14.416

>  <name>  (35) 
34

>  <ligand_id>  (35) 
34

>  <original_smiles>  (35) 
[H]c1c([H])c([H])c2c(c1[H])C([H])([H])C([H])([H])C([H])([H])C2([H])N([H])C(=O)C1([H])N(C(=O)C([H])(N([H])C(=O)C([H])(N([H])C([H])([H])[H])C([H])([H])[H])C(C([H])([H])[H])(C([H])([H])[H])C([H])([H])[H])C([H])([H])c2c([H])c(OC([H])([H])c3c([H])c(C4([H])C([H])([H])N(C(=O)N5C([H])([H])C([H])([H])C([H])([H])C([H])(n6nc(-c7c([H])c([H])c(Oc8c([H])c([H])c(F)c([H])c8F)c([H])c7[H])c(C(=O)N([H])[H])c6N([H])[H])C5([H])[H])C([H])([H])C4([H])[H])c([H])c([H])c3C([H])([H])[H])c([H])c([H])c2C1([H])[H]

>  <smiles>  (35) 
[H]c1c([H])c([H])c2c(c1[H])C([H])([H])C([H])([H])C([H])([H])C2([H])N([H])C(=O)C1([H])N(C(=O)C([H])(N([H])C(=O)C([H])(N([H])C([H])([H])[H])C([H])([H])[H])C(C([H])([H])[H])(C([H])([H])[H])C([H])([H])[H])C([H])([H])c2c([H])c(OC([H])([H])c3c([H])c(C4([H])C([H])([H])N(C(=O)N5C([H])([H])C([H])([H])C([H])([H])C([H])(n6nc(-c7c([H])c([H])c(Oc8c([H])c([H])c(F)c([H])c8F)c([H])c7[H])c(C(=O)N([H])[H])c6N([H])[H])C5([H])[H])C([H])([H])C4([H])[H])c([H])c([H])c3C([H])([H])[H])c([H])c([H])c2C1([H])[H]

$$$$
35:0:0
     RDKit          3D

 87 96  0  0  1  0  0  0  0  0999 V2000
  -30.4200  -15.3970   20.3180 C   0  0  0  0  0  0  0  0  0  0  0  0
  -30.4700  -12.8750   19.5810 C   0  0  0  0  0  2  0  0  0  0  0  0
  -29.6370  -12.5650   18.3080 C   0  0  0  0  0  2  0  0  0  0  0  0
  -28.1610  -12.3070   18.6670 C   0  0  0  0  0  2  0  0  0  0  0  0
  -27.6480  -13.3210   19.7280 C   0  0  0  0  0  3  0  0  0  0  0  0
  -28.6310  -13.5310   20.9010 C   0  0  0  0  0  2  0  0  0  0  0  0
  -29.8640  -14.0690   20.3040 N   0  0  0  0  0  0  0  0  0  0  0  0
  -31.6400  -15.3350   20.0750 O   0  0  0  0  0  0  0  0  0  0  0  0
  -27.8150  -21.3680   20.4440 C   0  0  0  0  0  3  0  0  0  0  0  0
  -28.3220  -19.9150   20.4710 C   0  0  0  0  0  0  0  0  0  0  0  0
  -29.5510  -19.7060   19.9360 C   0  0  0  0  0  0  0  0  0  0  0  0
  -28.5470  -22.4730   19.8720 C   0  0  0  0  0  3  0  0  0  0  0  0
  -27.6610  -18.5760   20.9140 C   0  0  0  0  0  3  0  0  0  0  0  0
  -30.2990  -18.1920   19.8340 C   0  0  0  0  0  3  0  0  0  0  0  0
  -28.4790  -17.1510   21.0950 C   0  0  0  0  0  3  0  0  0  0  0  0
  -29.7270  -16.7520   20.3160 N   0  0  0  0  0  0  0  0  0  0  0  0
  -30.0280  -21.4420   19.3680 S   0  0  0  0  0  0  0  0  0  0  0  0
  -25.2680  -13.9270   20.3810 C   0  0  0  0  0  0  0  0  0  0  0  0
  -24.1860  -13.1770   20.7410 C   0  0  0  0  0  0  0  0  0  0  0  0
  -24.6340  -11.8180   20.7630 C   0  0  0  0  0  0  0  0  0  0  0  0
  -26.3030  -13.0310   20.1930 N   0  0  0  0  0  0  0  0  0  0  0  0
  -25.9350  -11.7580   20.4940 N   0  0  0  0  0  0  0  0  0  0  0  0
  -23.8830  -10.5750   20.9650 C   0  0  0  0  0  0  0  0  0  0  0  0
  -24.2840   -9.6150   21.9210 C   0  0  0  0  0  3  0  0  0  0  0  0
  -23.5300   -8.4370   22.1150 C   0  0  0  0  0  3  0  0  0  0  0  0
  -22.3610   -8.2100   21.3490 C   0  0  0  0  0  0  0  0  0  0  0  0
  -21.9760   -9.1590   20.3860 C   0  0  0  0  0  3  0  0  0  0  0  0
  -22.7300  -10.3280   20.1920 C   0  0  0  0  0  3  0  0  0  0  0  0
  -21.5770   -7.0850   21.4510 O   0  0  0  0  0  0  0  0  0  0  0  0
  -21.5180   -6.3500   22.6070 C   0  0  0  0  0  0  0  0  0  0  0  0
  -21.1370   -6.9250   23.8390 C   0  0  0  0  0  3  0  0  0  0  0  0
  -21.0240   -6.1190   24.9870 C   0  0  0  0  0  3  0  0  0  0  0  0
  -21.2770   -4.7360   24.9060 C   0  0  0  0  0  0  0  0  0  0  0  0
  -21.6480   -4.1600   23.6800 C   0  0  0  0  0  3  0  0  0  0  0  0
  -21.7660   -4.9640   22.5320 C   0  0  0  0  0  0  0  0  0  0  0  0
  -22.1040   -4.4000   21.3480 F   0  0  0  0  0  0  0  0  0  0  0  0
  -21.1600   -3.9600   26.0080 F   0  0  0  0  0  0  0  0  0  0  0  0
  -22.7900  -13.6840   20.9410 C   0  0  0  0  0  0  0  0  0  0  0  0
  -22.0210  -13.0410   21.8120 N   0  0  0  0  0  0  0  0  0  0  0  0
  -22.3880  -14.6930   20.3620 O   0  0  0  0  0  0  0  0  0  0  0  0
  -22.3580  -12.2290   22.3070 H   0  0  0  0  0  0  0  0  0  0  0  0
  -21.0800  -13.3660   21.9840 H   0  0  0  0  0  0  0  0  0  0  0  0
  -25.4510  -15.2870   20.1640 N   0  0  0  0  0  0  0  0  0  0  0  0
  -24.6830  -15.9470   20.2270 H   0  0  0  0  0  0  0  0  0  0  0  0
  -26.3030  -15.6990   19.8050 H   0  0  0  0  0  0  0  0  0  0  0  0
  -27.9410  -24.0940   19.3870 C   0  0  0  0  0  2  0  0  0  0  0  0
  -28.2870  -25.7000   19.7100 O   0  0  0  0  0  0  0  0  0  0  0  0
  -24.6730  -31.5830   22.8930 C   0  0  0  0  0  0  0  0  0  0  0  0
  -27.3080  -26.8510   19.6560 C   0  0  0  0  0  0  0  0  0  0  0  0
  -23.5030  -30.2250   21.2100 C   0  0  0  0  0  3  0  0  0  0  0  0
  -24.9780  -28.7250   19.6980 C   0  0  0  0  0  0  0  0  0  0  0  0
  -26.0630  -30.4960   21.0530 C   0  0  0  0  0  2  0  0  0  0  0  0
  -26.1610  -29.1130   20.3350 C   0  0  0  0  0  0  0  0  0  0  0  0
  -27.3190  -28.1970   20.2950 C   0  0  0  0  0  3  0  0  0  0  0  0
  -26.0980  -26.6500   18.9490 C   0  0  0  0  0  3  0  0  0  0  0  0
  -24.9780  -27.5210   18.9770 C   0  0  0  0  0  3  0  0  0  0  0  0
  -23.7360  -29.6140   19.8010 C   0  0  0  0  0  2  0  0  0  0  0  0
  -24.7680  -30.7940   21.7730 N   0  0  0  0  0  0  0  0  0  0  0  0
  -23.5810  -31.8180   23.4390 O   0  0  0  0  0  0  0  0  0  0  0  0
  -22.8470  -29.1690   22.1380 C   0  0  0  0  0  0  0  0  0  0  0  0
  -21.5140  -28.9980   22.0550 N   0  0  0  0  0  0  0  0  0  0  0  0
  -23.5470  -28.5020   22.9060 O   0  0  0  0  0  0  0  0  0  0  0  0
  -20.9990  -29.5810   21.4090 H   0  0  0  0  0  0  0  0  0  0  0  0
  -18.1620  -27.7440   22.6480 C   0  0  0  0  0  0  0  0  0  0  0  0
  -20.7320  -28.0100   22.8030 C   0  0  0  0  0  3  0  0  0  0  0  0
  -20.8100  -26.6190   22.1310 C   0  0  0  0  0  2  0  0  0  0  0  0
  -19.6610  -26.3560   21.1540 C   0  0  0  0  0  2  0  0  0  0  0  0
  -18.3120  -26.4450   21.8730 C   0  0  0  0  0  2  0  0  0  0  0  0
  -19.2980  -28.4850   23.0720 C   0  0  0  0  0  0  0  0  0  0  0  0
  -19.1000  -29.6980   23.7670 C   0  0  0  0  0  3  0  0  0  0  0  0
  -17.8030  -30.1720   24.0370 C   0  0  0  0  0  3  0  0  0  0  0  0
  -16.6820  -29.4270   23.6260 C   0  0  0  0  0  3  0  0  0  0  0  0
  -16.8650  -28.2150   22.9370 C   0  0  0  0  0  3  0  0  0  0  0  0
  -25.9310  -32.2430   23.5360 C   0  0  0  0  0  3  0  0  0  0  0  0
  -25.5550  -33.5890   24.0030 N   0  0  0  0  0  0  0  0  0  0  0  0
  -25.8020  -34.7290   23.3440 C   0  0  0  0  0  0  0  0  0  0  0  0
  -26.4350  -34.7600   22.2850 O   0  0  0  0  0  0  0  0  0  0  0  0
  -24.9820  -33.6340   24.8340 H   0  0  0  0  0  0  0  0  0  0  0  0
  -23.9650  -36.4510   23.2420 C   0  0  0  0  0  1  0  0  0  0  0  0
  -25.2670  -36.0430   23.9510 C   0  0  0  0  0  3  0  0  0  0  0  0
  -27.3920  -36.9720   24.7590 C   0  0  0  0  0  1  0  0  0  0  0  0
  -26.2340  -37.1610   23.8920 N   0  0  0  0  0  0  0  0  0  0  0  0
  -25.7870  -38.0390   24.1490 H   0  0  0  0  0  0  0  0  0  0  0  0
  -26.5240  -31.4010   24.7330 C   0  0  1  0  0  0  0  0  0  0  0  0
  -25.4790  -31.0340   25.8140 C   0  0  0  0  0  1  0  0  0  0  0  0
  -27.1530  -30.0820   24.2310 C   0  0  0  0  0  1  0  0  0  0  0  0
  -27.6640  -32.1920   25.4190 C   0  0  0  0  0  1  0  0  0  0  0  0
  2  7  1  0
  3  4  1  0
  3  2  1  0
  5  4  1  0
  5 21  1  0
  5  6  1  0
  7  1  1  0
  7  6  1  0
  8  1  2  0
  9 10  2  0
 10 13  1  0
 11 10  1  0
 12 46  1  0
 12  9  1  0
 13 15  2  0
 14 11  2  0
 14 16  1  0
 16  1  1  0
 16 15  1  0
 17 12  1  0
 17 11  1  0
 18 19  2  0
 19 20  1  0
 19 38  1  0
 20 23  1  0
 21 18  1  0
 21 22  1  0
 22 20  2  0
 23 24  1  0
 24 25  2  0
 26 29  1  0
 26 25  1  0
 27 26  2  0
 28 27  1  0
 28 23  2  0
 29 30  1  0
 30 31  1  0
 31 32  2  0
 33 32  1  0
 33 37  1  0
 34 33  2  0
 35 30  2  0
 35 34  1  0
 36 35  1  0
 38 39  1  0
 39 42  1  0
 39 41  1  0
 40 38  2  0
 43 44  1  0
 43 18  1  0
 45 43  1  0
 46 47  1  0
 48 59  2  0
 49 47  1  0
 49 54  1  0
 50 58  1  0
 50 60  1  0
 51 57  1  0
 51 53  1  0
 52 58  1  0
 53 52  1  0
 54 53  2  0
 55 56  1  0
 55 49  2  0
 56 51  2  0
 57 50  1  0
 58 48  1  0
 60 62  2  0
 61 60  1  0
 63 61  1  0
 64 73  2  0
 64 69  1  0
 65 61  1  0
 65 69  1  0
 66 65  1  0
 67 68  1  0
 67 66  1  0
 68 64  1  0
 69 70  2  0
 70 71  1  0
 72 71  2  0
 73 72  1  0
 74 48  1  0
 74 75  1  0
 74 84  1  0
 75 78  1  0
 76 80  1  0
 76 75  1  0
 77 76  2  0
 80 79  1  0
 82 80  1  0
 82 83  1  0
 82 81  1  0
 84 87  1  1
 84 85  1  0
 86 84  1  0
M  ISO  4   1 100  16 100  46 101  47 101
M  END
>  <TORSDO>  (36) 
F 16

>  <SCORE>  (36) 
-14.373

>  <name>  (36) 
35

>  <ligand_id>  (36) 
35

>  <original_smiles>  (36) 
[H]c1c([H])c([H])c2c(c1[H])C([H])([H])C([H])([H])C([H])([H])C2([H])N([H])C(=O)C1([H])N(C(=O)C([H])(N([H])C(=O)C([H])(N([H])C([H])([H])[H])C([H])([H])[H])C(C([H])([H])[H])(C([H])([H])[H])C([H])([H])[H])C([H])([H])c2c([H])c(OC([H])([H])c3sc4c(c3[H])C([H])([H])C([H])([H])N(C(=O)N3C([H])([H])C([H])([H])C([H])([H])C([H])(n5nc(-c6c([H])c([H])c(Oc7c([H])c([H])c(F)c([H])c7F)c([H])c6[H])c(C(=O)N([H])[H])c5N([H])[H])C3([H])[H])C4([H])[H])c([H])c([H])c2C1([H])[H]

>  <smiles>  (36) 
[H]c1c([H])c([H])c2c(c1[H])C([H])([H])C([H])([H])C([H])([H])C2([H])N([H])C(=O)C1([H])N(C(=O)C([H])(N([H])C(=O)C([H])(N([H])C([H])([H])[H])C([H])([H])[H])C(C([H])([H])[H])(C([H])([H])[H])C([H])([H])[H])C([H])([H])c2c([H])c(OC([H])([H])c3sc4c(c3[H])C([H])([H])C([H])([H])N(C(=O)N3C([H])([H])C([H])([H])C([H])([H])C([H])(n5nc(-c6c([H])c([H])c(Oc7c([H])c([H])c(F)c([H])c7F)c([H])c6[H])c(C(=O)N([H])[H])c5N([H])[H])C3([H])[H])C4([H])[H])c([H])c([H])c2C1([H])[H]

$$$$
36:0:0
     RDKit          3D

 93103  0  0  1  0  0  0  0  0999 V2000
  -28.7920  -20.5290   21.0400 C   0  0  0  0  0  3  0  0  0  0  0  0
  -29.0830  -19.1400   21.1980 C   0  0  0  0  0  3  0  0  0  0  0  0
  -30.9150  -19.3580   19.6570 C   0  0  0  0  0  3  0  0  0  0  0  0
  -29.5680  -21.4110   20.2340 C   0  0  0  0  0  0  0  0  0  0  0  0
  -29.5550  -22.8820   19.9800 C   0  0  0  0  0  0  0  0  0  0  0  0
  -30.1780  -18.5280   20.5360 C   0  0  0  0  0  0  0  0  0  0  0  0
  -30.6300  -20.7460   19.5220 C   0  0  0  0  0  0  0  0  0  0  0  0
  -30.5830  -23.2240   19.1400 C   0  0  0  0  0  0  0  0  0  0  0  0
  -28.6750  -24.0350   20.5210 C   0  0  0  0  0  2  0  0  0  0  0  0
  -30.8650  -24.6320   18.7290 C   0  0  0  0  0  2  0  0  0  0  0  0
  -29.5650  -25.3960   18.4400 C   0  0  0  0  0  2  0  0  0  0  0  0
  -28.4960  -25.2990   19.5600 C   0  0  0  0  0  3  0  0  0  0  0  0
  -31.5260  -21.8930   18.5370 S   0  0  0  0  0  0  0  0  0  0  0  0
  -28.3870  -26.6350   20.1860 O   0  0  0  0  0  0  0  0  0  0  0  0
  -24.6130  -31.9510   23.2400 C   0  0  0  0  0  0  0  0  0  0  0  0
  -27.2260  -27.4260   20.1350 C   0  0  0  0  0  0  0  0  0  0  0  0
  -23.4040  -30.5550   21.6020 C   0  0  0  0  0  3  0  0  0  0  0  0
  -24.8490  -29.0230   20.1600 C   0  0  0  0  0  0  0  0  0  0  0  0
  -25.9410  -30.8870   21.4040 C   0  0  0  0  0  2  0  0  0  0  0  0
  -26.0200  -29.5130   20.7500 C   0  0  0  0  0  0  0  0  0  0  0  0
  -27.2060  -28.7240   20.7320 C   0  0  0  0  0  3  0  0  0  0  0  0
  -26.0220  -26.9860   19.5320 C   0  0  0  0  0  3  0  0  0  0  0  0
  -24.8520  -27.7630   19.5470 C   0  0  0  0  0  3  0  0  0  0  0  0
  -23.6100  -29.8900   20.2180 C   0  0  0  0  0  2  0  0  0  0  0  0
  -24.6730  -31.1480   22.1380 N   0  0  0  0  0  0  0  0  0  0  0  0
  -23.5330  -32.2210   23.7820 O   0  0  0  0  0  0  0  0  0  0  0  0
  -22.7540  -29.5290   22.5610 C   0  0  0  0  0  0  0  0  0  0  0  0
  -21.4350  -29.3190   22.4160 N   0  0  0  0  0  0  0  0  0  0  0  0
  -23.4360  -28.9250   23.3930 O   0  0  0  0  0  0  0  0  0  0  0  0
  -20.9440  -29.8590   21.7160 H   0  0  0  0  0  0  0  0  0  0  0  0
  -18.0810  -28.0420   22.8650 C   0  0  0  0  0  0  0  0  0  0  0  0
  -20.6250  -28.3710   23.1830 C   0  0  0  0  0  3  0  0  0  0  0  0
  -20.7760  -26.9350   22.6290 C   0  0  0  0  0  2  0  0  0  0  0  0
  -19.7040  -26.5710   21.5980 C   0  0  0  0  0  2  0  0  0  0  0  0
  -18.3060  -26.6890   22.2120 C   0  0  0  0  0  2  0  0  0  0  0  0
  -19.1710  -28.8390   23.3050 C   0  0  0  0  0  0  0  0  0  0  0  0
  -18.9080  -30.1040   23.8750 C   0  0  0  0  0  3  0  0  0  0  0  0
  -17.5880  -30.5740   24.0070 C   0  0  0  0  0  3  0  0  0  0  0  0
  -16.5120  -29.7760   23.5820 C   0  0  0  0  0  3  0  0  0  0  0  0
  -16.7590  -28.5110   23.0160 C   0  0  0  0  0  3  0  0  0  0  0  0
  -25.8990  -32.5850   23.8570 C   0  0  0  0  0  3  0  0  0  0  0  0
  -25.5930  -33.9890   24.1690 N   0  0  0  0  0  0  0  0  0  0  0  0
  -25.9120  -35.0290   23.3880 C   0  0  0  0  0  0  0  0  0  0  0  0
  -26.5650  -34.9090   22.3460 O   0  0  0  0  0  0  0  0  0  0  0  0
  -25.0130  -34.1560   24.9770 H   0  0  0  0  0  0  0  0  0  0  0  0
  -24.1760  -36.8160   23.0350 C   0  0  0  0  0  1  0  0  0  0  0  0
  -25.4320  -36.4250   23.8310 C   0  0  0  0  0  3  0  0  0  0  0  0
  -27.5720  -37.3320   24.6200 C   0  0  0  0  0  1  0  0  0  0  0  0
  -26.4610  -37.4760   23.6830 N   0  0  0  0  0  0  0  0  0  0  0  0
  -26.0550  -38.3990   23.8130 H   0  0  0  0  0  0  0  0  0  0  0  0
  -26.4080  -31.8270   25.1430 C   0  0  1  0  0  0  0  0  0  0  0  0
  -25.3100  -31.6000   26.2080 C   0  0  0  0  0  1  0  0  0  0  0  0
  -26.9950  -30.4460   24.7690 C   0  0  0  0  0  1  0  0  0  0  0  0
  -27.5550  -32.6290   25.8030 C   0  0  0  0  0  1  0  0  0  0  0  0
  -30.7330  -17.1170   20.9390 C   0  0  0  0  0  2  0  0  0  0  0  0
  -30.7590  -14.7250   20.0670 C   0  0  0  0  0  0  0  0  0  0  0  0
  -30.4150  -12.5240   18.9690 C   0  0  0  0  0  2  0  0  0  0  0  0
  -29.4110  -12.6720   17.8090 C   0  0  0  0  0  2  0  0  0  0  0  0
  -27.9650  -12.5190   18.3200 C   0  0  0  0  0  2  0  0  0  0  0  0
  -27.6820  -13.3760   19.5840 C   0  0  0  0  0  3  0  0  0  0  0  0
  -28.8000  -13.2210   20.6370 C   0  0  0  0  0  2  0  0  0  0  0  0
  -30.0730  -13.5440   19.9790 N   0  0  0  0  0  0  0  0  0  0  0  0
  -31.9050  -14.8270   19.6220 O   0  0  0  0  0  0  0  0  0  0  0  0
  -30.0940  -15.8260   20.5300 N   0  0  0  0  0  0  0  0  0  0  0  0
  -29.1310  -15.6900   20.7970 H   0  0  0  0  0  0  0  0  0  0  0  0
  -25.3420  -13.9760   20.4560 C   0  0  0  0  0  0  0  0  0  0  0  0
  -24.2900  -13.2030   20.8680 C   0  0  0  0  0  0  0  0  0  0  0  0
  -24.7370  -11.8490   20.7790 C   0  0  0  0  0  0  0  0  0  0  0  0
  -26.3630  -13.0930   20.1410 N   0  0  0  0  0  0  0  0  0  0  0  0
  -26.0080  -11.8070   20.3960 N   0  0  0  0  0  0  0  0  0  0  0  0
  -24.0110  -10.5890   20.9790 C   0  0  0  0  0  0  0  0  0  0  0  0
  -24.4620   -9.6130   21.8950 C   0  0  0  0  0  3  0  0  0  0  0  0
  -23.7340   -8.4170   22.0840 C   0  0  0  0  0  3  0  0  0  0  0  0
  -22.5420   -8.1890   21.3560 C   0  0  0  0  0  0  0  0  0  0  0  0
  -22.1110   -9.1520   20.4280 C   0  0  0  0  0  3  0  0  0  0  0  0
  -22.8390  -10.3390   20.2380 C   0  0  0  0  0  3  0  0  0  0  0  0
  -21.7850   -7.0470   21.4560 O   0  0  0  0  0  0  0  0  0  0  0  0
  -21.7290   -6.3200   22.6180 C   0  0  0  0  0  0  0  0  0  0  0  0
  -21.2430   -6.8750   23.8210 C   0  0  0  0  0  3  0  0  0  0  0  0
  -21.1370   -6.0710   24.9740 C   0  0  0  0  0  3  0  0  0  0  0  0
  -21.5060   -4.7150   24.9250 C   0  0  0  0  0  0  0  0  0  0  0  0
  -21.9860   -4.1590   23.7260 C   0  0  0  0  0  3  0  0  0  0  0  0
  -22.0930   -4.9580   22.5740 C   0  0  0  0  0  0  0  0  0  0  0  0
  -22.5350   -4.4130   21.4160 F   0  0  0  0  0  0  0  0  0  0  0  0
  -21.3980   -3.9400   26.0300 F   0  0  0  0  0  0  0  0  0  0  0  0
  -22.9160  -13.6850   21.2300 C   0  0  0  0  0  0  0  0  0  0  0  0
  -22.2300  -12.9720   22.1170 N   0  0  0  0  0  0  0  0  0  0  0  0
  -22.4610  -14.7280   20.7620 O   0  0  0  0  0  0  0  0  0  0  0  0
  -22.6130  -12.1280   22.5160 H   0  0  0  0  0  0  0  0  0  0  0  0
  -21.3100  -13.2760   22.4010 H   0  0  0  0  0  0  0  0  0  0  0  0
  -25.5090  -15.3490   20.3010 N   0  0  0  0  0  0  0  0  0  0  0  0
  -24.7540  -16.0060   20.4670 H   0  0  0  0  0  0  0  0  0  0  0  0
  -26.3370  -15.7890   19.9180 H   0  0  0  0  0  0  0  0  0  0  0  0
  1  2  1  0
  3  6  1  0
  4  1  2  0
  5  4  1  0
  5  9  1  0
  6 55  1  0
  6  2  2  0
  7  3  2  0
  7  4  1  0
  8  5  2  0
 10  8  1  0
 11 10  1  0
 11 12  1  0
 12 14  1  0
 12  9  1  0
 13  8  1  0
 13  7  1  0
 15 26  2  0
 16 14  1  0
 16 21  1  0
 17 25  1  0
 17 27  1  0
 18 24  1  0
 18 20  1  0
 19 25  1  0
 20 19  1  0
 21 20  2  0
 22 23  1  0
 22 16  2  0
 23 18  2  0
 24 17  1  0
 25 15  1  0
 27 29  2  0
 28 27  1  0
 30 28  1  0
 31 40  2  0
 31 36  1  0
 32 28  1  0
 32 36  1  0
 33 32  1  0
 34 35  1  0
 34 33  1  0
 35 31  1  0
 36 37  2  0
 37 38  1  0
 39 38  2  0
 40 39  1  0
 41 15  1  0
 41 42  1  0
 41 51  1  0
 42 45  1  0
 43 47  1  0
 43 42  1  0
 44 43  2  0
 47 46  1  0
 49 50  1  0
 49 47  1  0
 49 48  1  0
 51 54  1  1
 51 52  1  0
 53 51  1  0
 56 64  1  0
 57 62  1  0
 58 59  1  0
 58 57  1  0
 60 59  1  0
 60 69  1  0
 60 61  1  0
 62 56  1  0
 62 61  1  0
 63 56  2  0
 64 65  1  0
 64 55  1  0
 66 67  2  0
 67 86  1  0
 68 67  1  0
 68 71  1  0
 69 70  1  0
 69 66  1  0
 70 68  2  0
 71 72  1  0
 72 73  2  0
 74 77  1  0
 74 73  1  0
 75 74  2  0
 76 75  1  0
 76 71  2  0
 77 78  1  0
 78 79  1  0
 79 80  2  0
 81 80  1  0
 81 85  1  0
 82 81  2  0
 83 78  2  0
 83 82  1  0
 84 83  1  0
 86 87  1  0
 87 90  1  0
 87 89  1  0
 88 86  2  0
 91 66  1  0
 91 92  1  0
 93 91  1  0
M  ISO  4  12 101  14 101  56 100  64 100
M  END
>  <TORSDO>  (37) 
F 17

>  <SCORE>  (37) 
-14.561

>  <name>  (37) 
36

>  <ligand_id>  (37) 
36

>  <original_smiles>  (37) 
[H]c1c([H])c([H])c2c(c1[H])C([H])([H])C([H])([H])C([H])([H])C2([H])N([H])C(=O)C1([H])N(C(=O)C([H])(N([H])C(=O)C([H])(N([H])C([H])([H])[H])C([H])([H])[H])C(C([H])([H])[H])(C([H])([H])[H])C([H])([H])[H])C([H])([H])c2c([H])c(OC3([H])C([H])([H])c4c(sc5c([H])c(C([H])([H])N([H])C(=O)N6C([H])([H])C([H])([H])C([H])([H])C([H])(n7nc(-c8c([H])c([H])c(Oc9c([H])c([H])c(F)c([H])c9F)c([H])c8[H])c(C(=O)N([H])[H])c7N([H])[H])C6([H])[H])c([H])c([H])c45)C([H])([H])C3([H])[H])c([H])c([H])c2C1([H])[H]

>  <smiles>  (37) 
[H]c1c([H])c([H])c2c(c1[H])C([H])([H])C([H])([H])C([H])([H])C2([H])N([H])C(=O)C1([H])N(C(=O)C([H])(N([H])C(=O)C([H])(N([H])C([H])([H])[H])C([H])([H])[H])C(C([H])([H])[H])(C([H])([H])[H])C([H])([H])[H])C([H])([H])c2c([H])c(OC3([H])C([H])([H])c4c(sc5c([H])c(C([H])([H])N([H])C(=O)N6C([H])([H])C([H])([H])C([H])([H])C([H])(n7nc(-c8c([H])c([H])c(Oc9c([H])c([H])c(F)c([H])c9F)c([H])c8[H])c(C(=O)N([H])[H])c7N([H])[H])C6([H])[H])c([H])c([H])c45)C([H])([H])C3([H])[H])c([H])c([H])c2C1([H])[H]

$$$$
37:0:0
     RDKit          3D

 88 95  0  0  1  0  0  0  0  0999 V2000
  -28.5260  -21.8800   20.2930 N   0  0  0  0  0  4  0  0  0  0  0  0
  -28.0340  -21.7740   19.4190 H   0  0  0  0  0  0  0  0  0  0  0  0
  -27.8390  -21.7360   21.0160 H   0  0  0  0  0  0  0  0  0  0  0  0
  -29.5350  -20.6620   20.3780 C   0  0  0  0  0  3  0  0  0  0  0  0
  -29.0830  -19.0280   20.4050 C   0  0  0  0  0  3  0  0  0  0  0  0
  -30.8840  -17.8950   18.9280 C   0  0  0  0  0  1  0  0  0  0  0  0
  -30.1540  -17.7250   20.2740 C   0  0  0  0  0  3  0  0  0  0  0  0
  -30.5160  -14.9880   20.3190 C   0  0  0  0  0  0  0  0  0  0  0  0
  -30.3690  -12.6490   19.3670 C   0  0  0  0  0  2  0  0  0  0  0  0
  -29.4330  -12.6160   18.1390 C   0  0  0  0  0  2  0  0  0  0  0  0
  -27.9740  -12.3990   18.5810 C   0  0  0  0  0  2  0  0  0  0  0  0
  -27.5700  -13.3230   19.7610 C   0  0  0  0  0  3  0  0  0  0  0  0
  -28.6300  -13.3370   20.8820 C   0  0  0  0  0  2  0  0  0  0  0  0
  -29.8980  -13.7420   20.2650 N   0  0  0  0  0  0  0  0  0  0  0  0
  -31.7230  -15.0220   20.0660 O   0  0  0  0  0  0  0  0  0  0  0  0
  -29.7630  -16.1940   20.4330 N   0  0  0  0  0  0  0  0  0  0  0  0
  -28.7840  -16.0320   20.6130 H   0  0  0  0  0  0  0  0  0  0  0  0
  -25.1910  -13.8900   20.5150 C   0  0  0  0  0  0  0  0  0  0  0  0
  -24.1320  -13.1090   20.8850 C   0  0  0  0  0  0  0  0  0  0  0  0
  -24.6020  -11.7600   20.8460 C   0  0  0  0  0  0  0  0  0  0  0  0
  -26.2370  -13.0170   20.2660 N   0  0  0  0  0  0  0  0  0  0  0  0
  -25.8920  -11.7310   20.5320 N   0  0  0  0  0  0  0  0  0  0  0  0
  -23.8810  -10.4940   21.0310 C   0  0  0  0  0  0  0  0  0  0  0  0
  -24.3060   -9.5310   21.9710 C   0  0  0  0  0  3  0  0  0  0  0  0
  -23.5840   -8.3300   22.1450 C   0  0  0  0  0  3  0  0  0  0  0  0
  -22.4210   -8.0850   21.3770 C   0  0  0  0  0  0  0  0  0  0  0  0
  -22.0140   -9.0370   20.4250 C   0  0  0  0  0  3  0  0  0  0  0  0
  -22.7380  -10.2280   20.2500 C   0  0  0  0  0  3  0  0  0  0  0  0
  -21.6700   -6.9370   21.4580 O   0  0  0  0  0  0  0  0  0  0  0  0
  -21.5970   -6.2060   22.6170 C   0  0  0  0  0  0  0  0  0  0  0  0
  -21.1140   -6.7640   23.8200 C   0  0  0  0  0  3  0  0  0  0  0  0
  -20.9900   -5.9590   24.9710 C   0  0  0  0  0  3  0  0  0  0  0  0
  -21.3380   -4.5960   24.9170 C   0  0  0  0  0  0  0  0  0  0  0  0
  -21.8150   -4.0380   23.7180 C   0  0  0  0  0  3  0  0  0  0  0  0
  -21.9400   -4.8400   22.5700 C   0  0  0  0  0  0  0  0  0  0  0  0
  -22.3790   -4.2910   21.4120 F   0  0  0  0  0  0  0  0  0  0  0  0
  -21.2130   -3.8200   26.0180 F   0  0  0  0  0  0  0  0  0  0  0  0
  -22.7330  -13.5790   21.1600 C   0  0  0  0  0  0  0  0  0  0  0  0
  -22.0120  -12.8820   22.0290 N   0  0  0  0  0  0  0  0  0  0  0  0
  -22.2900  -14.6020   20.6390 O   0  0  0  0  0  0  0  0  0  0  0  0
  -22.3840  -12.0540   22.4720 H   0  0  0  0  0  0  0  0  0  0  0  0
  -21.0740  -13.1790   22.2570 H   0  0  0  0  0  0  0  0  0  0  0  0
  -25.3480  -15.2620   20.3410 N   0  0  0  0  0  0  0  0  0  0  0  0
  -24.5740  -15.9090   20.4480 H   0  0  0  0  0  0  0  0  0  0  0  0
  -26.1830  -15.7040   19.9790 H   0  0  0  0  0  0  0  0  0  0  0  0
  -28.9750  -23.4030   20.3870 C   0  0  0  0  0  3  0  0  0  0  0  0
  -27.9280  -24.6980   20.1350 C   0  0  0  0  0  3  0  0  0  0  0  0
  -28.2230  -26.2220   20.2850 O   0  0  0  0  0  0  0  0  0  0  0  0
  -24.6350  -31.9140   23.2800 C   0  0  0  0  0  0  0  0  0  0  0  0
  -27.1720  -27.2070   20.2230 C   0  0  0  0  0  0  0  0  0  0  0  0
  -23.4210  -30.5300   21.6430 C   0  0  0  0  0  3  0  0  0  0  0  0
  -24.8530  -28.9580   20.2040 C   0  0  0  0  0  0  0  0  0  0  0  0
  -25.9750  -30.7870   21.4660 C   0  0  0  0  0  2  0  0  0  0  0  0
  -26.0370  -29.3990   20.8080 C   0  0  0  0  0  0  0  0  0  0  0  0
  -27.2000  -28.5400   20.7990 C   0  0  0  0  0  3  0  0  0  0  0  0
  -25.9590  -26.8660   19.5830 C   0  0  0  0  0  3  0  0  0  0  0  0
  -24.8250  -27.7050   19.5770 C   0  0  0  0  0  3  0  0  0  0  0  0
  -23.6320  -29.8610   20.2600 C   0  0  0  0  0  2  0  0  0  0  0  0
  -24.6970  -31.0980   22.1850 N   0  0  0  0  0  0  0  0  0  0  0  0
  -23.5530  -32.2040   23.8120 O   0  0  0  0  0  0  0  0  0  0  0  0
  -22.7430  -29.5220   22.6040 C   0  0  0  0  0  0  0  0  0  0  0  0
  -21.4170  -29.3440   22.4700 N   0  0  0  0  0  0  0  0  0  0  0  0
  -23.4130  -28.9010   23.4340 O   0  0  0  0  0  0  0  0  0  0  0  0
  -20.9320  -29.8950   21.7760 H   0  0  0  0  0  0  0  0  0  0  0  0
  -18.0380  -28.1240   22.9480 C   0  0  0  0  0  0  0  0  0  0  0  0
  -20.5930  -28.4070   23.2390 C   0  0  0  0  0  3  0  0  0  0  0  0
  -20.7110  -26.9720   22.6760 C   0  0  0  0  0  2  0  0  0  0  0  0
  -19.6210  -26.6330   21.6540 C   0  0  0  0  0  2  0  0  0  0  0  0
  -18.2320  -26.7720   22.2830 C   0  0  0  0  0  2  0  0  0  0  0  0
  -19.1470  -28.8990   23.3820 C   0  0  0  0  0  0  0  0  0  0  0  0
  -18.9130  -30.1630   23.9650 C   0  0  0  0  0  3  0  0  0  0  0  0
  -17.6020  -30.6540   24.1190 C   0  0  0  0  0  3  0  0  0  0  0  0
  -16.5080  -29.8770   23.7000 C   0  0  0  0  0  3  0  0  0  0  0  0
  -16.7270  -28.6150   23.1200 C   0  0  0  0  0  3  0  0  0  0  0  0
  -25.9200  -32.5410   23.9030 C   0  0  0  0  0  3  0  0  0  0  0  0
  -25.6190  -33.9430   24.2340 N   0  0  0  0  0  0  0  0  0  0  0  0
  -25.9250  -34.9940   23.4620 C   0  0  0  0  0  0  0  0  0  0  0  0
  -26.5590  -34.8860   22.4090 O   0  0  0  0  0  0  0  0  0  0  0  0
  -25.0510  -34.1010   25.0530 H   0  0  0  0  0  0  0  0  0  0  0  0
  -24.1720  -36.7780   23.1830 C   0  0  0  0  0  1  0  0  0  0  0  0
  -25.4560  -36.3850   23.9310 C   0  0  0  0  0  3  0  0  0  0  0  0
  -27.6250  -37.2940   24.6410 C   0  0  0  0  0  1  0  0  0  0  0  0
  -26.4770  -37.4420   23.7520 N   0  0  0  0  0  0  0  0  0  0  0  0
  -26.0730  -38.3620   23.9060 H   0  0  0  0  0  0  0  0  0  0  0  0
  -26.4270  -31.7710   25.1830 C   0  0  1  0  0  0  0  0  0  0  0  0
  -25.3300  -31.5460   26.2500 C   0  0  0  0  0  1  0  0  0  0  0  0
  -27.0010  -30.3870   24.8020 C   0  0  0  0  0  1  0  0  0  0  0  0
  -27.5820  -32.5590   25.8440 C   0  0  0  0  0  1  0  0  0  0  0  0
  1  4  1  0
  1 46  1  0
  1  3  1  0
  2  1  1  0
  4  5  2  0
  7  6  1  0
  7  5  1  0
  7 16  1  0
  8 16  1  0
  9 14  1  0
 10 11  1  0
 10  9  1  0
 12 11  1  0
 12 21  1  0
 12 13  1  0
 14  8  1  0
 14 13  1  0
 15  8  2  0
 16 17  1  0
 18 19  2  0
 19 38  1  0
 20 19  1  0
 20 23  1  0
 21 18  1  0
 21 22  1  0
 22 20  2  0
 23 24  1  0
 24 25  2  0
 26 29  1  0
 26 25  1  0
 27 26  2  0
 28 27  1  0
 28 23  2  0
 29 30  1  0
 30 31  1  0
 31 32  2  0
 33 32  1  0
 33 37  1  0
 34 33  2  0
 35 30  2  0
 35 34  1  0
 36 35  1  0
 38 39  1  0
 39 42  1  0
 39 41  1  0
 40 38  2  0
 43 44  1  0
 43 18  1  0
 45 43  1  0
 47 48  1  0
 47 46  2  0
 49 60  2  0
 50 48  1  0
 50 55  1  0
 51 59  1  0
 51 61  1  0
 52 58  1  0
 52 54  1  0
 53 59  1  0
 54 53  1  0
 55 54  2  0
 56 50  2  0
 57 56  1  0
 57 52  2  0
 58 51  1  0
 59 49  1  0
 61 63  2  0
 62 61  1  0
 64 62  1  0
 65 74  2  0
 65 70  1  0
 66 62  1  0
 66 70  1  0
 67 66  1  0
 68 69  1  0
 68 67  1  0
 69 65  1  0
 70 71  2  0
 71 72  1  0
 73 72  2  0
 74 73  1  0
 75 49  1  0
 75 76  1  0
 75 85  1  0
 76 79  1  0
 77 81  1  0
 77 76  1  0
 78 77  2  0
 81 80  1  0
 83 84  1  0
 83 81  1  0
 83 82  1  0
 85 88  1  1
 85 86  1  0
 87 85  1  0
M  ISO  4   8 100  16 100  47 101  48 101
M  END
>  <TORSDO>  (38) 
F 21

>  <SCORE>  (38) 
-13.974

>  <name>  (38) 
37

>  <ligand_id>  (38) 
37

>  <original_smiles>  (38) 
[H]c1c([H])c([H])c2c(c1[H])C([H])([H])C([H])([H])C([H])([H])C2([H])N([H])C(=O)C1([H])N(C(=O)C([H])(N([H])C(=O)C([H])(N([H])C([H])([H])[H])C([H])([H])[H])C(C([H])([H])[H])(C([H])([H])[H])C([H])([H])[H])C([H])([H])c2c([H])c(OC([H])([H])C([H])([H])[N+]([H])([H])C([H])([H])C([H])([H])C([H])(N([H])C(=O)N3C([H])([H])C([H])([H])C([H])([H])C([H])(n4nc(-c5c([H])c([H])c(Oc6c([H])c([H])c(F)c([H])c6F)c([H])c5[H])c(C(=O)N([H])[H])c4N([H])[H])C3([H])[H])C([H])([H])[H])c([H])c([H])c2C1([H])[H]

>  <smiles>  (38) 
[H]c1c([H])c([H])c2c(c1[H])C([H])([H])C([H])([H])C([H])([H])C2([H])N([H])C(=O)C1([H])N(C(=O)C([H])(N([H])C(=O)C([H])(N([H])C([H])([H])[H])C([H])([H])[H])C(C([H])([H])[H])(C([H])([H])[H])C([H])([H])[H])C([H])([H])c2c([H])c(OC([H])([H])C([H])([H])[N+]([H])([H])C([H])([H])C([H])([H])C([H])(N([H])C(=O)N3C([H])([H])C([H])([H])C([H])([H])C([H])(n4nc(-c5c([H])c([H])c(Oc6c([H])c([H])c(F)c([H])c6F)c([H])c5[H])c(C(=O)N([H])[H])c4N([H])[H])C3([H])[H])C([H])([H])[H])c([H])c([H])c2C1([H])[H]

$$$$
38:0:0
     RDKit          3D

 93101  0  0  1  0  0  0  0  0999 V2000
  -24.7380  -23.5130   21.2700 C   0  0  0  0  0  3  0  0  0  0  0  0
  -26.8130  -24.0870   20.1400 C   0  0  0  0  0  3  0  0  0  0  0  0
  -26.1460  -25.2980   22.1340 C   0  0  0  0  0  3  0  0  0  0  0  0
  -25.6800  -23.2170   20.2630 C   0  0  0  0  0  0  0  0  0  0  0  0
  -24.9570  -24.5380   22.1700 C   0  0  0  0  0  0  0  0  0  0  0  0
  -27.0320  -25.2320   21.0250 C   0  0  0  0  0  0  0  0  0  0  0  0
  -23.9460  -24.8770   23.0680 N   0  0  0  0  0  0  0  0  0  0  0  0
  -23.1160  -24.3000   23.1310 H   0  0  0  0  0  0  0  0  0  0  0  0
  -23.6210  -25.8250   22.9380 H   0  0  0  0  0  0  0  0  0  0  0  0
  -27.9320  -26.3710   20.8230 O   0  0  0  0  0  0  0  0  0  0  0  0
  -24.5580  -32.0970   23.4580 C   0  0  0  0  0  0  0  0  0  0  0  0
  -27.2420  -27.5340   20.5090 C   0  0  0  0  0  0  0  0  0  0  0  0
  -23.4780  -30.7070   21.7300 C   0  0  0  0  0  3  0  0  0  0  0  0
  -25.0280  -29.2540   20.3080 C   0  0  0  0  0  0  0  0  0  0  0  0
  -26.0210  -31.0440   21.7130 C   0  0  0  0  0  2  0  0  0  0  0  0
  -26.1640  -29.6890   21.0220 C   0  0  0  0  0  0  0  0  0  0  0  0
  -27.2850  -28.8100   21.1640 C   0  0  0  0  0  3  0  0  0  0  0  0
  -26.2390  -27.2870   19.5820 C   0  0  0  0  0  3  0  0  0  0  0  0
  -25.0940  -28.0900   19.5440 C   0  0  0  0  0  3  0  0  0  0  0  0
  -23.7870  -30.1360   20.3310 C   0  0  0  0  0  2  0  0  0  0  0  0
  -24.6960  -31.2950   22.3580 N   0  0  0  0  0  0  0  0  0  0  0  0
  -23.4430  -32.3440   23.9470 O   0  0  0  0  0  0  0  0  0  0  0  0
  -22.8130  -29.6360   22.6150 C   0  0  0  0  0  0  0  0  0  0  0  0
  -21.5050  -29.4160   22.4090 N   0  0  0  0  0  0  0  0  0  0  0  0
  -23.4570  -28.9960   23.4600 O   0  0  0  0  0  0  0  0  0  0  0  0
  -21.0430  -29.9740   21.7040 H   0  0  0  0  0  0  0  0  0  0  0  0
  -18.1190  -28.1960   22.8000 C   0  0  0  0  0  0  0  0  0  0  0  0
  -20.6560  -28.4370   23.0880 C   0  0  0  0  0  3  0  0  0  0  0  0
  -20.7750  -27.0280   22.4910 C   0  0  0  0  0  2  0  0  0  0  0  0
  -19.7070  -26.7890   21.4290 C   0  0  0  0  0  2  0  0  0  0  0  0
  -18.3300  -26.8900   22.0590 C   0  0  0  0  0  2  0  0  0  0  0  0
  -19.2260  -28.9620   23.2530 C   0  0  0  0  0  0  0  0  0  0  0  0
  -18.9800  -30.2080   23.8390 C   0  0  0  0  0  3  0  0  0  0  0  0
  -17.6680  -30.6860   24.0070 C   0  0  0  0  0  3  0  0  0  0  0  0
  -16.5750  -29.9090   23.6000 C   0  0  0  0  0  3  0  0  0  0  0  0
  -16.8030  -28.6630   22.9780 C   0  0  0  0  0  3  0  0  0  0  0  0
  -25.7870  -32.7480   24.1530 C   0  0  0  0  0  3  0  0  0  0  0  0
  -25.4740  -34.1680   24.3740 N   0  0  0  0  0  0  0  0  0  0  0  0
  -25.8780  -35.1720   23.5910 C   0  0  0  0  0  0  0  0  0  0  0  0
  -26.6260  -35.0120   22.6250 O   0  0  0  0  0  0  0  0  0  0  0  0
  -24.8170  -34.3650   25.1140 H   0  0  0  0  0  0  0  0  0  0  0  0
  -24.1930  -36.9510   23.0160 C   0  0  0  0  0  1  0  0  0  0  0  0
  -25.3700  -36.5880   23.9360 C   0  0  0  0  0  3  0  0  0  0  0  0
  -27.4500  -37.5110   24.8560 C   0  0  0  0  0  1  0  0  0  0  0  0
  -26.4130  -37.6300   23.8360 N   0  0  0  0  0  0  0  0  0  0  0  0
  -26.0070  -38.5600   23.9070 H   0  0  0  0  0  0  0  0  0  0  0  0
  -26.1760  -32.0470   25.5140 C   0  0  1  0  0  0  0  0  0  0  0  0
  -24.9790  -31.8610   26.4790 C   0  0  0  0  0  1  0  0  0  0  0  0
  -26.7920  -30.6510   25.2600 C   0  0  0  0  0  1  0  0  0  0  0  0
  -27.2550  -32.8770   26.2420 C   0  0  0  0  0  1  0  0  0  0  0  0
  -25.1490  -22.0800   19.3560 C   0  0  0  0  0  2  0  0  0  0  0  0
  -26.0220  -21.0610   18.6240 C   0  0  0  0  0  2  0  0  0  0  0  0
  -26.4310  -19.7980   19.4170 C   0  0  0  0  0  2  0  0  0  0  0  0
  -27.8930  -19.3600   19.0900 C   0  0  0  0  0  3  0  0  0  0  0  0
  -28.2250  -17.8850   19.3560 C   0  0  0  0  0  3  0  0  0  0  0  0
  -29.7280  -17.4780   19.1850 C   0  0  0  0  0  2  0  0  0  0  0  0
  -30.0510  -16.2560   20.0880 C   0  0  0  0  0  2  0  0  0  0  0  0
  -30.9850  -15.0990   19.5780 C   0  0  0  0  0  0  0  0  0  0  0  0
  -30.9570  -12.7360   18.8290 C   0  0  0  0  0  2  0  0  0  0  0  0
  -29.9180  -12.5900   17.6960 C   0  0  0  0  0  2  0  0  0  0  0  0
  -28.4780  -12.4530   18.2310 C   0  0  0  0  0  2  0  0  0  0  0  0
  -28.1340  -13.5290   19.2890 C   0  0  0  0  0  3  0  0  0  0  0  0
  -29.2410  -13.4920   20.3750 C   0  0  0  0  0  2  0  0  0  0  0  0
  -30.5100  -13.8270   19.7060 N   0  0  0  0  0  0  0  0  0  0  0  0
  -32.0680  -15.3350   19.0230 O   0  0  0  0  0  0  0  0  0  0  0  0
  -25.8570  -14.3140   20.2290 C   0  0  0  0  0  0  0  0  0  0  0  0
  -24.7690  -13.6150   20.6770 C   0  0  0  0  0  0  0  0  0  0  0  0
  -25.1280  -12.2420   20.5810 C   0  0  0  0  0  0  0  0  0  0  0  0
  -26.8090  -13.3630   19.8820 N   0  0  0  0  0  0  0  0  0  0  0  0
  -26.3790  -12.1100   20.1550 N   0  0  0  0  0  0  0  0  0  0  0  0
  -24.3350  -11.0320   20.8050 C   0  0  0  0  0  0  0  0  0  0  0  0
  -24.7420  -10.0500   21.7340 C   0  0  0  0  0  3  0  0  0  0  0  0
  -23.9540   -8.8970   21.9420 C   0  0  0  0  0  3  0  0  0  0  0  0
  -22.7480   -8.7260   21.2200 C   0  0  0  0  0  0  0  0  0  0  0  0
  -22.3610   -9.6950   20.2800 C   0  0  0  0  0  3  0  0  0  0  0  0
  -23.1500  -10.8390   20.0690 C   0  0  0  0  0  3  0  0  0  0  0  0
  -21.9330   -7.6290   21.3360 O   0  0  0  0  0  0  0  0  0  0  0  0
  -21.8240   -6.9390   22.5160 C   0  0  0  0  0  0  0  0  0  0  0  0
  -21.3980   -7.5660   23.7070 C   0  0  0  0  0  3  0  0  0  0  0  0
  -21.2330   -6.8040   24.8810 C   0  0  0  0  0  3  0  0  0  0  0  0
  -21.4840   -5.4170   24.8640 C   0  0  0  0  0  0  0  0  0  0  0  0
  -21.9070   -4.7950   23.6760 C   0  0  0  0  0  3  0  0  0  0  0  0
  -22.0740   -5.5540   22.5070 C   0  0  0  0  0  0  0  0  0  0  0  0
  -22.4610   -4.9450   21.3580 F   0  0  0  0  0  0  0  0  0  0  0  0
  -21.3180   -4.6840   25.9880 F   0  0  0  0  0  0  0  0  0  0  0  0
  -23.4360  -14.1880   21.0820 C   0  0  0  0  0  0  0  0  0  0  0  0
  -22.7440  -13.5330   22.0140 N   0  0  0  0  0  0  0  0  0  0  0  0
  -23.0270  -15.2470   20.6160 O   0  0  0  0  0  0  0  0  0  0  0  0
  -23.0850  -12.6750   22.4220 H   0  0  0  0  0  0  0  0  0  0  0  0
  -21.8550  -13.9040   22.3290 H   0  0  0  0  0  0  0  0  0  0  0  0
  -26.0770  -15.6670   20.0620 N   0  0  0  0  0  0  0  0  0  0  0  0
  -25.3520  -16.3470   20.2530 H   0  0  0  0  0  0  0  0  0  0  0  0
  -26.9080  -16.0650   19.6460 H   0  0  0  0  0  0  0  0  0  0  0  0
  1  5  1  0
  2  4  1  0
  2  6  2  0
  3  5  2  0
  4  1  2  0
  5  7  1  0
  6  3  1  0
  7  8  1  0
  9  7  1  0
 10  6  1  0
 11 22  2  0
 12 10  1  0
 12 17  1  0
 13 21  1  0
 13 23  1  0
 14 20  1  0
 14 16  1  0
 15 21  1  0
 16 17  2  0
 16 15  1  0
 18 12  2  0
 19 18  1  0
 19 14  2  0
 20 13  1  0
 21 11  1  0
 23 25  2  0
 24 23  1  0
 26 24  1  0
 27 36  2  0
 27 32  1  0
 28 24  1  0
 28 32  1  0
 29 28  1  0
 30 31  1  0
 30 29  1  0
 31 27  1  0
 32 33  2  0
 33 34  1  0
 35 34  2  0
 36 35  1  0
 37 11  1  0
 37 38  1  0
 37 47  1  0
 38 41  1  0
 39 43  1  0
 39 38  1  0
 40 39  2  0
 43 42  1  0
 45 46  1  0
 45 43  1  0
 45 44  1  0
 47 50  1  1
 47 48  1  0
 49 47  1  0
 51  4  1  0
 52 51  1  0
 52 53  1  0
 54 55  2  0
 54 53  1  0
 56 55  1  0
 56 57  1  0
 58 64  1  0
 58 57  1  0
 59 64  1  0
 60 61  1  0
 60 59  1  0
 62 61  1  0
 62 69  1  0
 62 63  1  0
 64 63  1  0
 65 58  2  0
 66 67  2  0
 67 86  1  0
 68 67  1  0
 68 71  1  0
 69 70  1  0
 69 66  1  0
 70 68  2  0
 71 72  1  0
 72 73  2  0
 74 77  1  0
 74 73  1  0
 75 74  2  0
 76 75  1  0
 76 71  2  0
 77 78  1  0
 78 79  1  0
 79 80  2  0
 81 80  1  0
 81 85  1  0
 82 81  2  0
 83 78  2  0
 83 82  1  0
 84 83  1  0
 86 87  1  0
 87 90  1  0
 87 89  1  0
 88 86  2  0
 91 66  1  0
 91 92  1  0
 93 91  1  0
M  ISO  4   6 101  10 101  57 100  58 100
M  END
>  <TORSDO>  (39) 
F 24

>  <SCORE>  (39) 
-11.028

>  <name>  (39) 
38

>  <ligand_id>  (39) 
38

>  <original_smiles>  (39) 
[H]c1c([H])c([H])c2c(c1[H])C([H])([H])C([H])([H])C([H])([H])C2([H])N([H])C(=O)C1([H])N(C(=O)C([H])(N([H])C(=O)C([H])(N([H])C([H])([H])[H])C([H])([H])[H])C(C([H])([H])[H])(C([H])([H])[H])C([H])([H])[H])C([H])([H])c2c([H])c(Oc3c([H])c(N([H])[H])c([H])c(C([H])([H])C([H])([H])C([H])([H])C([H])([H])C([H])([H])C([H])([H])C([H])([H])C(=O)N4C([H])([H])C([H])([H])C([H])([H])C([H])(n5nc(-c6c([H])c([H])c(Oc7c([H])c([H])c(F)c([H])c7F)c([H])c6[H])c(C(=O)N([H])[H])c5N([H])[H])C4([H])[H])c3[H])c([H])c([H])c2C1([H])[H]

>  <smiles>  (39) 
[H]c1c([H])c([H])c2c(c1[H])C([H])([H])C([H])([H])C([H])([H])C2([H])N([H])C(=O)C1([H])N(C(=O)C([H])(N([H])C(=O)C([H])(N([H])C([H])([H])[H])C([H])([H])[H])C(C([H])([H])[H])(C([H])([H])[H])C([H])([H])[H])C([H])([H])c2c([H])c(Oc3c([H])c(N([H])[H])c([H])c(C([H])([H])C([H])([H])C([H])([H])C([H])([H])C([H])([H])C([H])([H])C([H])([H])C(=O)N4C([H])([H])C([H])([H])C([H])([H])C([H])(n5nc(-c6c([H])c([H])c(Oc7c([H])c([H])c(F)c([H])c7F)c([H])c6[H])c(C(=O)N([H])[H])c5N([H])[H])C4([H])[H])c3[H])c([H])c([H])c2C1([H])[H]

$$$$
39:0:0
     RDKit          3D

 92101  0  0  1  0  0  0  0  0999 V2000
  -28.3780  -20.1980   18.7920 C   0  0  0  0  0  3  0  0  0  0  0  0
  -27.5150  -21.1440   18.2260 C   0  0  0  0  0  3  0  0  0  0  0  0
  -28.9960  -21.8950   20.4440 C   0  0  0  0  0  3  0  0  0  0  0  0
  -28.1860  -22.9750   19.7890 C   0  0  0  0  0  0  0  0  0  0  0  0
  -29.0560  -20.4540   19.9970 C   0  0  0  0  0  0  0  0  0  0  0  0
  -27.3210  -22.4140   18.7980 C   0  0  0  0  0  0  0  0  0  0  0  0
  -26.2330  -24.2070   20.7580 C   0  0  0  0  0  2  0  0  0  0  0  0
  -25.3500  -23.5320   19.6630 C   0  0  0  0  0  2  0  0  0  0  0  0
  -27.6390  -24.5110   20.2010 C   0  0  0  0  0  3  0  0  0  0  0  0
  -26.0900  -23.0220   18.4940 N   0  0  0  0  0  0  0  0  0  0  0  0
  -25.5160  -22.5030   17.8310 H   0  0  0  0  0  0  0  0  0  0  0  0
  -28.1490  -26.0120   20.2820 O   0  0  0  0  0  0  0  0  0  0  0  0
  -24.6400  -31.8460   23.2210 C   0  0  0  0  0  0  0  0  0  0  0  0
  -27.1830  -27.1050   20.1650 C   0  0  0  0  0  0  0  0  0  0  0  0
  -23.4350  -30.4580   21.5850 C   0  0  0  0  0  3  0  0  0  0  0  0
  -24.8800  -28.9020   20.1380 C   0  0  0  0  0  0  0  0  0  0  0  0
  -25.9950  -30.7010   21.4320 C   0  0  0  0  0  2  0  0  0  0  0  0
  -26.0600  -29.3130   20.7740 C   0  0  0  0  0  0  0  0  0  0  0  0
  -27.2080  -28.4230   20.7880 C   0  0  0  0  0  3  0  0  0  0  0  0
  -26.0130  -26.8760   19.4010 C   0  0  0  0  0  3  0  0  0  0  0  0
  -24.8720  -27.6970   19.4350 C   0  0  0  0  0  3  0  0  0  0  0  0
  -23.6540  -29.7970   20.2020 C   0  0  0  0  0  2  0  0  0  0  0  0
  -24.7100  -31.0250   22.1320 N   0  0  0  0  0  0  0  0  0  0  0  0
  -23.5550  -32.1340   23.7500 O   0  0  0  0  0  0  0  0  0  0  0  0
  -22.7600  -29.4430   22.5440 C   0  0  0  0  0  0  0  0  0  0  0  0
  -21.4310  -29.2770   22.4270 N   0  0  0  0  0  0  0  0  0  0  0  0
  -23.4340  -28.8120   23.3630 O   0  0  0  0  0  0  0  0  0  0  0  0
  -20.9430  -29.8350   21.7420 H   0  0  0  0  0  0  0  0  0  0  0  0
  -18.0510  -28.0760   22.9500 C   0  0  0  0  0  0  0  0  0  0  0  0
  -20.6110  -28.3410   23.2020 C   0  0  0  0  0  3  0  0  0  0  0  0
  -20.7100  -26.9080   22.6290 C   0  0  0  0  0  2  0  0  0  0  0  0
  -19.6020  -26.5830   21.6220 C   0  0  0  0  0  2  0  0  0  0  0  0
  -18.2240  -26.7280   22.2730 C   0  0  0  0  0  2  0  0  0  0  0  0
  -19.1710  -28.8410   23.3730 C   0  0  0  0  0  0  0  0  0  0  0  0
  -18.9530  -30.1020   23.9700 C   0  0  0  0  0  3  0  0  0  0  0  0
  -17.6490  -30.5990   24.1470 C   0  0  0  0  0  3  0  0  0  0  0  0
  -16.5430  -29.8330   23.7390 C   0  0  0  0  0  3  0  0  0  0  0  0
  -16.7450  -28.5740   23.1460 C   0  0  0  0  0  3  0  0  0  0  0  0
  -25.9210  -32.4840   23.8410 C   0  0  0  0  0  3  0  0  0  0  0  0
  -25.6080  -33.8820   24.1790 N   0  0  0  0  0  0  0  0  0  0  0  0
  -25.9220  -34.9410   23.4210 C   0  0  0  0  0  0  0  0  0  0  0  0
  -26.5770  -34.8450   22.3790 O   0  0  0  0  0  0  0  0  0  0  0  0
  -25.0330  -34.0300   24.9950 H   0  0  0  0  0  0  0  0  0  0  0  0
  -24.1800  -36.7330   23.1060 C   0  0  0  0  0  1  0  0  0  0  0  0
  -25.4370  -36.3270   23.8940 C   0  0  0  0  0  3  0  0  0  0  0  0
  -27.5820  -37.2190   24.6900 C   0  0  0  0  0  1  0  0  0  0  0  0
  -26.4630  -37.3860   23.7680 N   0  0  0  0  0  0  0  0  0  0  0  0
  -26.0540  -38.3040   23.9260 H   0  0  0  0  0  0  0  0  0  0  0  0
  -26.4390  -31.7140   25.1180 C   0  0  1  0  0  0  0  0  0  0  0  0
  -25.3470  -31.4780   26.1880 C   0  0  0  0  0  1  0  0  0  0  0  0
  -27.0210  -30.3340   24.7360 C   0  0  0  0  0  1  0  0  0  0  0  0
  -27.5930  -32.5080   25.7740 C   0  0  0  0  0  1  0  0  0  0  0  0
  -29.6260  -19.0880   20.7470 C   0  0  0  0  0  2  0  0  0  0  0  0
  -29.9650  -17.6040   19.9850 C   0  0  0  0  0  2  0  0  0  0  0  0
  -30.5960  -14.9470   20.3150 C   0  0  0  0  0  0  0  0  0  0  0  0
  -30.4280  -12.6040   19.3650 C   0  0  0  0  0  2  0  0  0  0  0  0
  -29.5090  -12.6180   18.1210 C   0  0  0  0  0  2  0  0  0  0  0  0
  -28.0370  -12.4290   18.5320 C   0  0  0  0  0  2  0  0  0  0  0  0
  -27.6420  -13.3260   19.7350 C   0  0  0  0  0  3  0  0  0  0  0  0
  -28.6920  -13.3020   20.8700 C   0  0  0  0  0  2  0  0  0  0  0  0
  -29.9800  -13.6940   20.2840 N   0  0  0  0  0  0  0  0  0  0  0  0
  -31.7670  -15.0100   19.9300 O   0  0  0  0  0  0  0  0  0  0  0  0
  -29.8590  -16.1340   20.5700 N   0  0  0  0  0  0  0  0  0  0  0  0
  -28.9560  -15.9380   20.9790 H   0  0  0  0  0  0  0  0  0  0  0  0
  -25.2500  -13.9100   20.4360 C   0  0  0  0  0  0  0  0  0  0  0  0
  -24.1810  -13.1410   20.8060 C   0  0  0  0  0  0  0  0  0  0  0  0
  -24.6450  -11.7890   20.7950 C   0  0  0  0  0  0  0  0  0  0  0  0
  -26.2960  -13.0300   20.2180 N   0  0  0  0  0  0  0  0  0  0  0  0
  -25.9390  -11.7490   20.4970 N   0  0  0  0  0  0  0  0  0  0  0  0
  -23.9140  -10.5310   20.9960 C   0  0  0  0  0  0  0  0  0  0  0  0
  -24.3420   -9.5680   21.9360 C   0  0  0  0  0  3  0  0  0  0  0  0
  -23.6100   -8.3750   22.1240 C   0  0  0  0  0  3  0  0  0  0  0  0
  -22.4340   -8.1370   21.3730 C   0  0  0  0  0  0  0  0  0  0  0  0
  -22.0260   -9.0870   20.4200 C   0  0  0  0  0  3  0  0  0  0  0  0
  -22.7590  -10.2710   20.2290 C   0  0  0  0  0  3  0  0  0  0  0  0
  -21.6740   -6.9950   21.4710 O   0  0  0  0  0  0  0  0  0  0  0  0
  -21.6290   -6.2570   22.6250 C   0  0  0  0  0  0  0  0  0  0  0  0
  -21.2230   -6.8200   23.8550 C   0  0  0  0  0  3  0  0  0  0  0  0
  -21.1250   -6.0090   25.0030 C   0  0  0  0  0  3  0  0  0  0  0  0
  -21.4210   -4.6350   24.9230 C   0  0  0  0  0  0  0  0  0  0  0  0
  -21.8190   -4.0700   23.6980 C   0  0  0  0  0  3  0  0  0  0  0  0
  -21.9200   -4.8790   22.5520 C   0  0  0  0  0  0  0  0  0  0  0  0
  -22.2830   -4.3270   21.3690 F   0  0  0  0  0  0  0  0  0  0  0  0
  -21.3180   -3.8530   26.0230 F   0  0  0  0  0  0  0  0  0  0  0  0
  -22.7830  -13.6230   21.0590 C   0  0  0  0  0  0  0  0  0  0  0  0
  -22.0480  -12.9400   21.9280 N   0  0  0  0  0  0  0  0  0  0  0  0
  -22.3510  -14.6400   20.5190 O   0  0  0  0  0  0  0  0  0  0  0  0
  -22.4100  -12.1150   22.3840 H   0  0  0  0  0  0  0  0  0  0  0  0
  -21.1070  -13.2440   22.1410 H   0  0  0  0  0  0  0  0  0  0  0  0
  -25.4160  -15.2780   20.2420 N   0  0  0  0  0  0  0  0  0  0  0  0
  -24.6500  -15.9340   20.3420 H   0  0  0  0  0  0  0  0  0  0  0  0
  -26.2600  -15.7100   19.8870 H   0  0  0  0  0  0  0  0  0  0  0  0
  1  5  1  0
  2  1  2  0
  2  6  1  0
  4  9  1  0
  4  3  1  0
  5  3  2  0
  5 53  1  0
  6  4  2  0
  8  7  1  0
  9 12  1  0
  9  7  1  0
 10  6  1  0
 10  8  1  0
 11 10  1  0
 13 24  2  0
 14 12  1  0
 14 19  1  0
 15 23  1  0
 15 25  1  0
 16 22  1  0
 16 18  1  0
 17 23  1  0
 18 19  2  0
 18 17  1  0
 20 21  1  0
 20 14  2  0
 21 16  2  0
 22 15  1  0
 23 13  1  0
 25 27  2  0
 26 25  1  0
 28 26  1  0
 29 38  2  0
 29 34  1  0
 30 26  1  0
 30 34  1  0
 31 30  1  0
 32 33  1  0
 32 31  1  0
 33 29  1  0
 34 35  2  0
 35 36  1  0
 37 36  2  0
 38 37  1  0
 39 13  1  0
 39 40  1  0
 39 49  1  0
 40 43  1  0
 41 45  1  0
 41 40  1  0
 42 41  2  0
 45 44  1  0
 47 45  1  0
 47 48  1  0
 47 46  1  0
 49 52  1  1
 49 50  1  0
 51 49  1  0
 54 63  1  0
 54 53  1  0
 55 63  1  0
 56 61  1  0
 57 58  1  0
 57 56  1  0
 59 58  1  0
 59 68  1  0
 59 60  1  0
 61 55  1  0
 61 60  1  0
 62 55  2  0
 63 64  1  0
 65 66  2  0
 66 85  1  0
 67 66  1  0
 67 70  1  0
 68 65  1  0
 68 69  1  0
 69 67  2  0
 70 71  1  0
 71 72  2  0
 73 76  1  0
 73 72  1  0
 74 73  2  0
 75 74  1  0
 75 70  2  0
 76 77  1  0
 77 78  1  0
 78 79  2  0
 80 79  1  0
 80 84  1  0
 81 80  2  0
 82 77  2  0
 82 81  1  0
 83 82  1  0
 85 86  1  0
 86 89  1  0
 86 88  1  0
 87 85  2  0
 90 91  1  0
 90 65  1  0
 92 90  1  0
M  ISO  4   9 101  12 101  55 100  63 100
M  END
>  <TORSDO>  (40) 
F 18

>  <SCORE>  (40) 
-15.605

>  <name>  (40) 
39

>  <ligand_id>  (40) 
39

>  <original_smiles>  (40) 
[H]c1c([H])c([H])c2c(c1[H])C([H])([H])C([H])([H])C([H])([H])C2([H])N([H])C(=O)C1([H])N(C(=O)C([H])(N([H])C(=O)C([H])(N([H])C([H])([H])[H])C([H])([H])[H])C(C([H])([H])[H])(C([H])([H])[H])C([H])([H])[H])C([H])([H])c2c([H])c(OC3([H])c4c([H])c(C([H])([H])C([H])([H])N([H])C(=O)N5C([H])([H])C([H])([H])C([H])([H])C([H])(n6nc(-c7c([H])c([H])c(Oc8c([H])c([H])c(F)c([H])c8F)c([H])c7[H])c(C(=O)N([H])[H])c6N([H])[H])C5([H])[H])c([H])c([H])c4N([H])C([H])([H])C3([H])[H])c([H])c([H])c2C1([H])[H]

>  <smiles>  (40) 
[H]c1c([H])c([H])c2c(c1[H])C([H])([H])C([H])([H])C([H])([H])C2([H])N([H])C(=O)C1([H])N(C(=O)C([H])(N([H])C(=O)C([H])(N([H])C([H])([H])[H])C([H])([H])[H])C(C([H])([H])[H])(C([H])([H])[H])C([H])([H])[H])C([H])([H])c2c([H])c(OC3([H])c4c([H])c(C([H])([H])C([H])([H])N([H])C(=O)N5C([H])([H])C([H])([H])C([H])([H])C([H])(n6nc(-c7c([H])c([H])c(Oc8c([H])c([H])c(F)c([H])c8F)c([H])c7[H])c(C(=O)N([H])[H])c6N([H])[H])C5([H])[H])c([H])c([H])c4N([H])C([H])([H])C3([H])[H])c([H])c([H])c2C1([H])[H]

$$$$
40:0:0
     RDKit          3D

 97107  0  0  1  0  0  0  0  0999 V2000
  -29.4060  -21.2310   19.9340 C   0  0  0  0  0  3  0  0  0  0  0  0
  -30.1420  -22.3550   19.8460 C   0  0  0  0  0  0  0  0  0  0  0  0
  -31.4900  -22.4540   19.1520 C   0  0  0  0  0  1  0  0  0  0  0  0
  -29.1130  -24.6600   19.5900 C   0  0  0  0  0  3  0  0  0  0  0  0
  -29.7690  -24.0630   21.6850 C   0  0  0  0  0  3  0  0  0  0  0  0
  -29.6480  -23.6220   20.3940 C   0  0  0  0  0  0  0  0  0  0  0  0
  -28.9500  -25.7290   20.4220 C   0  0  0  0  0  0  0  0  0  0  0  0
  -29.3980  -26.2580   22.8770 C   0  0  0  0  0  1  0  0  0  0  0  0
  -29.3480  -25.3850   21.7100 N   0  0  0  0  0  0  0  0  0  0  0  0
  -28.6950  -27.0050   20.0650 O   0  0  0  0  0  0  0  0  0  0  0  0
  -24.6380  -31.9230   23.1950 C   0  0  0  0  0  0  0  0  0  0  0  0
  -27.4510  -27.5660   20.1840 C   0  0  0  0  0  0  0  0  0  0  0  0
  -23.4850  -30.4640   21.5560 C   0  0  0  0  0  3  0  0  0  0  0  0
  -24.9950  -28.9470   20.1720 C   0  0  0  0  0  0  0  0  0  0  0  0
  -25.9920  -30.9070   21.3720 C   0  0  0  0  0  2  0  0  0  0  0  0
  -26.1220  -29.5280   20.7630 C   0  0  0  0  0  0  0  0  0  0  0  0
  -27.3510  -28.8420   20.7700 C   0  0  0  0  0  3  0  0  0  0  0  0
  -26.3100  -26.9770   19.5980 C   0  0  0  0  0  3  0  0  0  0  0  0
  -25.0770  -27.6660   19.5920 C   0  0  0  0  0  3  0  0  0  0  0  0
  -23.7250  -29.7670   20.1900 C   0  0  0  0  0  2  0  0  0  0  0  0
  -24.7200  -31.1160   22.0980 N   0  0  0  0  0  0  0  0  0  0  0  0
  -23.5470  -32.1690   23.7250 O   0  0  0  0  0  0  0  0  0  0  0  0
  -22.8570  -29.4390   22.5280 C   0  0  0  0  0  0  0  0  0  0  0  0
  -21.5430  -29.2010   22.3760 N   0  0  0  0  0  0  0  0  0  0  0  0
  -23.5480  -28.8550   23.3680 O   0  0  0  0  0  0  0  0  0  0  0  0
  -21.0420  -29.7260   21.6740 H   0  0  0  0  0  0  0  0  0  0  0  0
  -18.2180  -27.8700   22.8220 C   0  0  0  0  0  0  0  0  0  0  0  0
  -20.7530  -28.2450   23.1500 C   0  0  0  0  0  3  0  0  0  0  0  0
  -20.9290  -26.8070   22.6080 C   0  0  0  0  0  2  0  0  0  0  0  0
  -19.8710  -26.4180   21.5720 C   0  0  0  0  0  2  0  0  0  0  0  0
  -18.4690  -26.5160   22.1800 C   0  0  0  0  0  2  0  0  0  0  0  0
  -19.2910  -28.6890   23.2630 C   0  0  0  0  0  0  0  0  0  0  0  0
  -19.0050  -29.9540   23.8210 C   0  0  0  0  0  3  0  0  0  0  0  0
  -17.6750  -30.4010   23.9380 C   0  0  0  0  0  3  0  0  0  0  0  0
  -16.6170  -29.5800   23.5130 C   0  0  0  0  0  3  0  0  0  0  0  0
  -16.8870  -28.3140   22.9650 C   0  0  0  0  0  3  0  0  0  0  0  0
  -25.9040  -32.5940   23.8140 C   0  0  0  0  0  3  0  0  0  0  0  0
  -26.4690  -31.8290   25.0740 C   0  0  1  0  0  0  0  0  0  0  0  0
  -25.3920  -31.4810   26.1280 C   0  0  0  0  0  1  0  0  0  0  0  0
  -27.1570  -30.5110   24.6510 C   0  0  0  0  0  1  0  0  0  0  0  0
  -27.5580  -32.6870   25.7620 C   0  0  0  0  0  1  0  0  0  0  0  0
  -25.5450  -33.9750   24.1580 N   0  0  0  0  0  0  0  0  0  0  0  0
  -25.8210  -35.0440   23.4010 C   0  0  0  0  0  0  0  0  0  0  0  0
  -26.4750  -34.9750   22.3560 O   0  0  0  0  0  0  0  0  0  0  0  0
  -24.9590  -34.0990   24.9730 H   0  0  0  0  0  0  0  0  0  0  0  0
  -24.0130  -36.7620   23.0900 C   0  0  0  0  0  1  0  0  0  0  0  0
  -25.2850  -36.4070   23.8770 C   0  0  0  0  0  3  0  0  0  0  0  0
  -27.3920  -37.3730   24.6870 C   0  0  0  0  0  1  0  0  0  0  0  0
  -26.2700  -37.5030   23.7580 N   0  0  0  0  0  0  0  0  0  0  0  0
  -25.8260  -38.4030   23.9200 H   0  0  0  0  0  0  0  0  0  0  0  0
  -29.7270  -19.8870   19.2960 C   0  0  0  0  0  2  0  0  0  0  0  0
  -32.8160  -18.4690   21.3050 C   0  0  0  0  0  2  0  0  0  0  0  0
  -31.9870  -19.4040   20.3950 C   0  0  0  0  0  2  0  0  0  0  0  0
  -29.8250  -18.6260   21.5430 C   0  0  0  0  0  2  0  0  0  0  0  0
  -32.5990  -16.9770   20.9650 C   0  0  0  0  0  2  0  0  0  0  0  0
  -30.2450  -17.1910   21.9210 C   0  0  0  0  0  2  0  0  0  0  0  0
  -30.5820  -17.5260   19.5770 C   0  0  0  0  0  2  0  0  0  0  0  0
  -30.5220  -18.9230   20.1980 C   0  0  1  0  0  0  0  0  0  0  0  0
  -31.0990  -16.6690   20.7400 C   0  0  1  0  0  0  0  0  0  0  0  0
  -31.2320  -14.4180   19.5650 C   0  0  0  0  0  0  0  0  0  0  0  0
  -30.6780  -12.3160   18.3860 C   0  0  0  0  0  2  0  0  0  0  0  0
  -29.6120  -12.5640   17.3030 C   0  0  0  0  0  2  0  0  0  0  0  0
  -28.1920  -12.4970   17.9010 C   0  0  0  0  0  2  0  0  0  0  0  0
  -28.0470  -13.3630   19.1780 C   0  0  0  0  0  3  0  0  0  0  0  0
  -29.1980  -13.0610   20.1620 C   0  0  0  0  0  2  0  0  0  0  0  0
  -30.4810  -13.2910   19.4660 N   0  0  0  0  0  0  0  0  0  0  0  0
  -32.1760  -14.6750   18.8080 O   0  0  0  0  0  0  0  0  0  0  0  0
  -30.8350  -15.2430   20.5450 N   0  0  0  0  0  0  0  0  0  0  0  0
  -30.1310  -14.8500   21.1530 H   0  0  0  0  0  0  0  0  0  0  0  0
  -25.8120  -14.1280   20.2100 C   0  0  0  0  0  0  0  0  0  0  0  0
  -24.7340  -13.4250   20.6760 C   0  0  0  0  0  0  0  0  0  0  0  0
  -25.0650  -12.0450   20.5160 C   0  0  0  0  0  0  0  0  0  0  0  0
  -26.7400  -13.1800   19.8060 N   0  0  0  0  0  0  0  0  0  0  0  0
  -26.2970  -11.9190   20.0380 N   0  0  0  0  0  0  0  0  0  0  0  0
  -24.2610  -10.8360   20.7370 C   0  0  0  0  0  0  0  0  0  0  0  0
  -24.6270   -9.8720   21.7010 C   0  0  0  0  0  3  0  0  0  0  0  0
  -23.8300   -8.7270   21.9080 C   0  0  0  0  0  3  0  0  0  0  0  0
  -22.6500   -8.5360   21.1490 C   0  0  0  0  0  0  0  0  0  0  0  0
  -22.3010   -9.4900   20.1750 C   0  0  0  0  0  3  0  0  0  0  0  0
  -23.0990  -10.6270   19.9670 C   0  0  0  0  0  3  0  0  0  0  0  0
  -21.8280   -7.4410   21.2620 O   0  0  0  0  0  0  0  0  0  0  0  0
  -21.5930   -6.8400   22.4720 C   0  0  0  0  0  0  0  0  0  0  0  0
  -21.0140   -7.5420   23.5520 C   0  0  0  0  0  3  0  0  0  0  0  0
  -20.7230   -6.8670   24.7550 C   0  0  0  0  0  3  0  0  0  0  0  0
  -21.0030   -5.4940   24.8780 C   0  0  0  0  0  0  0  0  0  0  0  0
  -21.5740   -4.7920   23.8020 C   0  0  0  0  0  3  0  0  0  0  0  0
  -21.8660   -5.4640   22.6030 C   0  0  0  0  0  0  0  0  0  0  0  0
  -22.3980   -4.7780   21.5620 F   0  0  0  0  0  0  0  0  0  0  0  0
  -20.7170   -4.8440   26.0310 F   0  0  0  0  0  0  0  0  0  0  0  0
  -23.4290  -13.9960   21.1540 C   0  0  0  0  0  0  0  0  0  0  0  0
  -22.7690  -13.3200   22.0860 N   0  0  0  0  0  0  0  0  0  0  0  0
  -23.0090  -15.0730   20.7330 O   0  0  0  0  0  0  0  0  0  0  0  0
  -23.1180  -12.4460   22.4450 H   0  0  0  0  0  0  0  0  0  0  0  0
  -21.8970  -13.6830   22.4450 H   0  0  0  0  0  0  0  0  0  0  0  0
  -26.0730  -15.4890   20.0840 N   0  0  0  0  0  0  0  0  0  0  0  0
  -25.3880  -16.1960   20.3240 H   0  0  0  0  0  0  0  0  0  0  0  0
  -26.9200  -15.8780   19.6860 H   0  0  0  0  0  0  0  0  0  0  0  0
  2  1  2  0
  2  6  1  0
  3  2  1  0
  4  6  1  0
  4  7  2  0
  5  9  1  0
  6  5  2  0
  7  9  1  0
  9  8  1  0
 10 12  1  0
 10  7  1  0
 11 22  2  0
 12 17  1  0
 13 21  1  0
 13 23  1  0
 14 20  1  0
 14 16  1  0
 15 21  1  0
 16 17  2  0
 16 15  1  0
 18 12  2  0
 19 18  1  0
 19 14  2  0
 20 13  1  0
 21 11  1  0
 23 25  2  0
 24 23  1  0
 26 24  1  0
 27 36  2  0
 27 32  1  0
 28 24  1  0
 28 32  1  0
 29 28  1  0
 30 31  1  0
 30 29  1  0
 31 27  1  0
 32 33  2  0
 33 34  1  0
 35 34  2  0
 36 35  1  0
 37 11  1  0
 37 42  1  0
 37 38  1  0
 38 41  1  1
 38 39  1  0
 40 38  1  0
 42 45  1  0
 43 47  1  0
 43 42  1  0
 44 43  2  0
 47 46  1  0
 49 47  1  0
 49 50  1  0
 49 48  1  0
 51  1  1  0
 53 52  1  0
 54 56  1  0
 55 52  1  0
 57 58  1  0
 57 59  1  0
 58 51  1  6
 58 53  1  0
 58 54  1  0
 59 68  1  6
 59 55  1  0
 59 56  1  0
 60 68  1  0
 61 66  1  0
 62 63  1  0
 62 61  1  0
 64 63  1  0
 64 73  1  0
 64 65  1  0
 66 60  1  0
 66 65  1  0
 67 60  2  0
 68 69  1  0
 70 71  2  0
 71 90  1  0
 72 71  1  0
 72 75  1  0
 73 74  1  0
 73 70  1  0
 74 72  2  0
 75 76  1  0
 76 77  2  0
 78 81  1  0
 78 77  1  0
 79 78  2  0
 80 79  1  0
 80 75  2  0
 81 82  1  0
 82 87  2  0
 82 83  1  0
 83 84  2  0
 84 85  1  0
 85 89  1  0
 86 85  2  0
 87 86  1  0
 88 87  1  0
 90 91  1  0
 91 94  1  0
 91 93  1  0
 92 90  2  0
 95 70  1  0
 95 96  1  0
 97 95  1  0
M  ISO  4   7 101  10 101  60 100  68 100
M  END
>  <TORSDO>  (41) 
F 19

>  <SCORE>  (41) 
-11.976

>  <name>  (41) 
40

>  <ligand_id>  (41) 
40

>  <original_smiles>  (41) 
[H]C(=C(c1c([H])c(Oc2c([H])c([H])c3c(c2[H])C([H])([H])N(C(=O)C([H])(N([H])C(=O)C([H])(N([H])C([H])([H])[H])C([H])([H])[H])C(C([H])([H])[H])(C([H])([H])[H])C([H])([H])[H])C([H])(C(=O)N([H])C2([H])c4c([H])c([H])c([H])c([H])c4C([H])([H])C([H])([H])C2([H])[H])C3([H])[H])n(C([H])([H])[H])c1[H])C([H])([H])[H])C([H])([H])C12C([H])([H])C([H])([H])C([H])([H])C(N([H])C(=O)N3C([H])([H])C([H])([H])C([H])([H])C([H])(n4nc(-c5c([H])c([H])c(Oc6c([H])c([H])c(F)c([H])c6F)c([H])c5[H])c(C(=O)N([H])[H])c4N([H])[H])C3([H])[H])(C([H])([H])C1([H])[H])C2([H])[H]

>  <smiles>  (41) 
[H]C(=C(c1c([H])c(Oc2c([H])c([H])c3c(c2[H])C([H])([H])N(C(=O)C([H])(N([H])C(=O)C([H])(N([H])C([H])([H])[H])C([H])([H])[H])C(C([H])([H])[H])(C([H])([H])[H])C([H])([H])[H])C([H])(C(=O)N([H])C2([H])c4c([H])c([H])c([H])c([H])c4C([H])([H])C([H])([H])C2([H])[H])C3([H])[H])n(C([H])([H])[H])c1[H])C([H])([H])[H])C([H])([H])C12C([H])([H])C([H])([H])C([H])([H])C(N([H])C(=O)N3C([H])([H])C([H])([H])C([H])([H])C([H])(n4nc(-c5c([H])c([H])c(Oc6c([H])c([H])c(F)c([H])c6F)c([H])c5[H])c(C(=O)N([H])[H])c4N([H])[H])C3([H])[H])(C([H])([H])C1([H])[H])C2([H])[H]

$$$$
41:0:0
     RDKit          3D

 96105  0  0  1  0  0  0  0  0999 V2000
  -29.5470  -22.1300   19.5640 C   0  0  0  0  0  3  0  0  0  0  0  0
  -29.3180  -23.5980   19.5570 C   0  0  0  0  0  3  0  0  0  0  0  0
  -27.7690  -21.9020   20.9880 C   0  0  0  0  0  3  0  0  0  0  0  0
  -27.5160  -23.3740   20.9930 C   0  0  0  0  0  0  0  0  0  0  0  0
  -28.7950  -21.1280   20.2990 C   0  0  0  0  0  0  0  0  0  0  0  0
  -28.2870  -24.3800   20.2450 C   0  0  0  0  0  0  0  0  0  0  0  0
  -26.3220  -23.8140   21.7880 C   0  0  0  0  0  0  0  0  0  0  0  0
  -25.5640  -24.6940   21.3890 O   0  0  0  0  0  0  0  0  0  0  0  0
  -24.2760  -22.2500   24.5810 C   0  0  0  0  0  3  0  0  0  0  0  0
  -24.6320  -22.8910   23.3810 C   0  0  0  0  0  3  0  0  0  0  0  0
  -25.2770  -21.8290   25.4770 C   0  0  0  0  0  3  0  0  0  0  0  0
  -26.9920  -22.6860   23.9650 C   0  0  0  0  0  3  0  0  0  0  0  0
  -25.9920  -23.1080   23.0580 C   0  0  0  0  0  0  0  0  0  0  0  0
  -26.6330  -22.0490   25.1690 C   0  0  0  0  0  0  0  0  0  0  0  0
  -27.5970  -21.6510   26.0330 F   0  0  0  0  0  0  0  0  0  0  0  0
  -28.2620  -25.9160   20.2330 O   0  0  0  0  0  0  0  0  0  0  0  0
  -24.6580  -31.8250   23.1710 C   0  0  0  0  0  0  0  0  0  0  0  0
  -27.2170  -26.9660   20.1800 C   0  0  0  0  0  0  0  0  0  0  0  0
  -23.4710  -30.4390   21.5150 C   0  0  0  0  0  3  0  0  0  0  0  0
  -24.9280  -28.8370   20.0990 C   0  0  0  0  0  0  0  0  0  0  0  0
  -26.0360  -30.6430   21.3990 C   0  0  0  0  0  2  0  0  0  0  0  0
  -26.1010  -29.2350   20.7490 C   0  0  0  0  0  0  0  0  0  0  0  0
  -27.2380  -28.3160   20.7740 C   0  0  0  0  0  3  0  0  0  0  0  0
  -26.0360  -26.7290   19.4450 C   0  0  0  0  0  3  0  0  0  0  0  0
  -24.9170  -27.6020   19.4280 C   0  0  0  0  0  3  0  0  0  0  0  0
  -23.7110  -29.7610   20.1370 C   0  0  0  0  0  2  0  0  0  0  0  0
  -24.7420  -30.9960   22.0810 N   0  0  0  0  0  0  0  0  0  0  0  0
  -23.5640  -32.1220   23.6790 O   0  0  0  0  0  0  0  0  0  0  0  0
  -22.7660  -29.4450   22.4730 C   0  0  0  0  0  0  0  0  0  0  0  0
  -21.4330  -29.3030   22.3550 N   0  0  0  0  0  0  0  0  0  0  0  0
  -23.4240  -28.8020   23.2950 O   0  0  0  0  0  0  0  0  0  0  0  0
  -20.9560  -29.8730   21.6690 H   0  0  0  0  0  0  0  0  0  0  0  0
  -18.0330  -28.1440   22.8480 C   0  0  0  0  0  0  0  0  0  0  0  0
  -20.5950  -28.3750   23.1210 C   0  0  0  0  0  3  0  0  0  0  0  0
  -20.6800  -26.9440   22.5420 C   0  0  0  0  0  2  0  0  0  0  0  0
  -19.5760  -26.6390   21.5240 C   0  0  0  0  0  2  0  0  0  0  0  0
  -18.1940  -26.7980   22.1640 C   0  0  0  0  0  2  0  0  0  0  0  0
  -19.1600  -28.8920   23.2840 C   0  0  0  0  0  0  0  0  0  0  0  0
  -18.9510  -30.1510   23.8860 C   0  0  0  0  0  3  0  0  0  0  0  0
  -17.6510  -30.6630   24.0580 C   0  0  0  0  0  3  0  0  0  0  0  0
  -16.5400  -29.9130   23.6350 C   0  0  0  0  0  3  0  0  0  0  0  0
  -16.7310  -28.6540   23.0360 C   0  0  0  0  0  3  0  0  0  0  0  0
  -25.9270  -32.4600   23.8170 C   0  0  0  0  0  3  0  0  0  0  0  0
  -26.4520  -31.6550   25.0700 C   0  0  1  0  0  0  0  0  0  0  0  0
  -25.3640  -31.3820   26.1350 C   0  0  0  0  0  1  0  0  0  0  0  0
  -27.0400  -30.2910   24.6420 C   0  0  0  0  0  1  0  0  0  0  0  0
  -27.6030  -32.4330   25.7500 C   0  0  0  0  0  1  0  0  0  0  0  0
  -25.5960  -33.8420   24.2070 N   0  0  0  0  0  0  0  0  0  0  0  0
  -25.9090  -34.9370   23.5010 C   0  0  0  0  0  0  0  0  0  0  0  0
  -26.5710  -34.8910   22.4610 O   0  0  0  0  0  0  0  0  0  0  0  0
  -25.0080  -33.9500   25.0200 H   0  0  0  0  0  0  0  0  0  0  0  0
  -24.1460  -36.7200   23.2650 C   0  0  0  0  0  1  0  0  0  0  0  0
  -25.4110  -36.2970   24.0320 C   0  0  0  0  0  3  0  0  0  0  0  0
  -27.5540  -37.1750   24.8480 C   0  0  0  0  0  1  0  0  0  0  0  0
  -26.4230  -37.3720   23.9450 N   0  0  0  0  0  0  0  0  0  0  0  0
  -26.0070  -38.2760   24.1490 H   0  0  0  0  0  0  0  0  0  0  0  0
  -28.8120  -19.3860   20.2180 C   0  0  0  0  0  3  0  0  0  0  0  0
  -29.9630  -18.0560   20.4290 C   0  0  0  0  0  3  0  0  0  0  0  0
  -30.4650  -15.1800   20.3740 C   0  0  0  0  0  0  0  0  0  0  0  0
  -30.4420  -12.7440   19.5180 C   0  0  0  0  0  2  0  0  0  0  0  0
  -29.5330  -12.5590   18.2780 C   0  0  0  0  0  2  0  0  0  0  0  0
  -28.0780  -12.2970   18.7060 C   0  0  0  0  0  2  0  0  0  0  0  0
  -27.6180  -13.2660   19.8260 C   0  0  0  0  0  3  0  0  0  0  0  0
  -28.6540  -13.4060   20.9590 C   0  0  0  0  0  2  0  0  0  0  0  0
  -29.8980  -13.8840   20.3370 N   0  0  0  0  0  0  0  0  0  0  0  0
  -31.6850  -15.2000   20.1610 O   0  0  0  0  0  0  0  0  0  0  0  0
  -29.6870  -16.4250   20.4540 N   0  0  0  0  0  0  0  0  0  0  0  0
  -28.7090  -16.2150   20.5830 H   0  0  0  0  0  0  0  0  0  0  0  0
  -25.2410  -13.8250   20.5730 C   0  0  0  0  0  0  0  0  0  0  0  0
  -24.1750  -13.0450   20.9240 C   0  0  0  0  0  0  0  0  0  0  0  0
  -24.6400  -11.6940   20.8760 C   0  0  0  0  0  0  0  0  0  0  0  0
  -26.2840  -12.9510   20.3230 N   0  0  0  0  0  0  0  0  0  0  0  0
  -25.9340  -11.6620   20.5730 N   0  0  0  0  0  0  0  0  0  0  0  0
  -23.9100  -10.4300   21.0410 C   0  0  0  0  0  0  0  0  0  0  0  0
  -24.3640   -9.4210   21.9190 C   0  0  0  0  0  3  0  0  0  0  0  0
  -23.6310   -8.2250   22.0750 C   0  0  0  0  0  3  0  0  0  0  0  0
  -22.4290   -8.0280   21.3540 C   0  0  0  0  0  0  0  0  0  0  0  0
  -21.9940   -9.0260   20.4650 C   0  0  0  0  0  3  0  0  0  0  0  0
  -22.7270  -10.2130   20.3060 C   0  0  0  0  0  3  0  0  0  0  0  0
  -21.6640   -6.8890   21.4250 O   0  0  0  0  0  0  0  0  0  0  0  0
  -21.6860   -6.0740   22.5290 C   0  0  0  0  0  0  0  0  0  0  0  0
  -21.4010   -6.5650   23.8220 C   0  0  0  0  0  3  0  0  0  0  0  0
  -21.3660   -5.6790   24.9180 C   0  0  0  0  0  3  0  0  0  0  0  0
  -21.6040   -4.3060   24.7220 C   0  0  0  0  0  0  0  0  0  0  0  0
  -21.8820   -3.8160   23.4340 C   0  0  0  0  0  3  0  0  0  0  0  0
  -21.9190   -4.6980   22.3400 C   0  0  0  0  0  0  0  0  0  0  0  0
  -22.1660   -4.2160   21.0990 F   0  0  0  0  0  0  0  0  0  0  0  0
  -21.5620   -3.4540   25.7740 F   0  0  0  0  0  0  0  0  0  0  0  0
  -22.7770  -13.5190   21.1910 C   0  0  0  0  0  0  0  0  0  0  0  0
  -22.0430  -12.8160   22.0450 N   0  0  0  0  0  0  0  0  0  0  0  0
  -22.3450  -14.5500   20.6760 O   0  0  0  0  0  0  0  0  0  0  0  0
  -22.4050  -11.9820   22.4830 H   0  0  0  0  0  0  0  0  0  0  0  0
  -21.1050  -13.1170   22.2690 H   0  0  0  0  0  0  0  0  0  0  0  0
  -25.4080  -15.1970   20.4180 N   0  0  0  0  0  0  0  0  0  0  0  0
  -24.6400  -15.8500   20.5320 H   0  0  0  0  0  0  0  0  0  0  0  0
  -26.2540  -15.6410   20.0830 H   0  0  0  0  0  0  0  0  0  0  0  0
  1  5  1  0
  2  1  2  0
  2  6  1  0
  3  4  1  0
  4  7  1  0
  5  3  2  0
  6  4  2  0
  7 13  1  0
  8  7  2  0
  9 11  1  0
 10  9  2  0
 12 14  1  0
 13 10  1  0
 13 12  2  0
 14 11  2  0
 14 15  1  0
 16  6  1  0
 17 28  2  0
 18 16  1  0
 18 23  1  0
 19 27  1  0
 19 29  1  0
 20 26  1  0
 20 22  1  0
 21 27  1  0
 22 23  2  0
 22 21  1  0
 24 18  2  0
 25 24  1  0
 25 20  2  0
 26 19  1  0
 27 17  1  0
 29 31  2  0
 30 29  1  0
 32 30  1  0
 33 42  2  0
 33 38  1  0
 34 30  1  0
 34 38  1  0
 35 34  1  0
 36 37  1  0
 36 35  1  0
 37 33  1  0
 38 39  2  0
 39 40  1  0
 41 40  2  0
 42 41  1  0
 43 17  1  0
 43 48  1  0
 43 44  1  0
 44 47  1  1
 44 45  1  0
 46 44  1  0
 48 51  1  0
 49 53  1  0
 49 48  1  0
 50 49  2  0
 53 52  1  0
 55 53  1  0
 55 56  1  0
 55 54  1  0
 57  5  1  0
 57 58  2  0
 58 67  1  0
 59 67  1  0
 60 65  1  0
 61 62  1  0
 61 60  1  0
 63 62  1  0
 63 72  1  0
 63 64  1  0
 65 59  1  0
 65 64  1  0
 66 59  2  0
 67 68  1  0
 69 70  2  0
 70 89  1  0
 71 70  1  0
 71 74  1  0
 72 73  1  0
 72 69  1  0
 73 71  2  0
 74 75  1  0
 75 76  2  0
 77 80  1  0
 77 76  1  0
 78 77  2  0
 79 78  1  0
 79 74  2  0
 80 81  1  0
 81 82  1  0
 82 83  2  0
 84 83  1  0
 84 88  1  0
 85 84  2  0
 86 81  2  0
 86 85  1  0
 87 86  1  0
 89 90  1  0
 90 93  1  0
 90 92  1  0
 91 89  2  0
 94 95  1  0
 94 69  1  0
 96 94  1  0
M  ISO  4   6 101  16 101  59 100  67 100
M  END
>  <TORSDO>  (42) 
F 20

>  <SCORE>  (42) 
25.822

>  <name>  (42) 
41

>  <ligand_id>  (42) 
41

>  <original_smiles>  (42) 
[H]c1c([H])c(F)c([H])c(C(=O)c2c([H])c(C([H])([H])C([H])([H])N([H])C(=O)N3C([H])([H])C([H])([H])C([H])([H])C([H])(n4nc(-c5c([H])c([H])c(Oc6c([H])c([H])c(F)c([H])c6F)c([H])c5[H])c(C(=O)N([H])[H])c4N([H])[H])C3([H])[H])c([H])c([H])c2Oc2c([H])c([H])c3c(c2[H])C([H])([H])N(C(=O)C([H])(N([H])C(=O)C([H])(N([H])C([H])([H])[H])C([H])([H])[H])C(C([H])([H])[H])(C([H])([H])[H])C([H])([H])[H])C([H])(C(=O)N([H])C2([H])c4c([H])c([H])c([H])c([H])c4C([H])([H])C([H])([H])C2([H])[H])C3([H])[H])c1[H]

>  <smiles>  (42) 
[H]c1c([H])c(F)c([H])c(C(=O)c2c([H])c(C([H])([H])C([H])([H])N([H])C(=O)N3C([H])([H])C([H])([H])C([H])([H])C([H])(n4nc(-c5c([H])c([H])c(Oc6c([H])c([H])c(F)c([H])c6F)c([H])c5[H])c(C(=O)N([H])[H])c4N([H])[H])C3([H])[H])c([H])c([H])c2Oc2c([H])c([H])c3c(c2[H])C([H])([H])N(C(=O)C([H])(N([H])C(=O)C([H])(N([H])C([H])([H])[H])C([H])([H])[H])C(C([H])([H])[H])(C([H])([H])[H])C([H])([H])[H])C([H])(C(=O)N([H])C2([H])c4c([H])c([H])c([H])c([H])c4C([H])([H])C([H])([H])C2([H])[H])C3([H])[H])c1[H]

$$$$
42:0:0
     RDKit          3D

 91100  0  0  1  0  0  0  0  0999 V2000
  -30.9120  -21.5000   18.7530 C   0  0  0  0  0  3  0  0  0  0  0  0
  -30.6600  -20.1770   19.2060 C   0  0  0  0  0  3  0  0  0  0  0  0
  -28.7570  -21.1360   20.3520 C   0  0  0  0  0  3  0  0  0  0  0  0
  -30.1230  -22.6470   19.0640 C   0  0  0  0  0  0  0  0  0  0  0  0
  -28.9720  -22.6120   19.8980 C   0  0  0  0  0  0  0  0  0  0  0  0
  -29.5800  -19.8430   20.0470 C   0  0  0  0  0  0  0  0  0  0  0  0
  -30.4650  -23.9600   18.3830 C   0  0  0  0  0  2  0  0  0  0  0  0
  -29.2580  -24.5710   17.6460 C   0  0  0  0  0  2  0  0  0  0  0  0
  -27.8930  -24.2600   18.2980 C   0  0  0  0  0  2  0  0  0  0  0  0
  -27.9940  -24.1050   19.8390 C   0  0  0  0  0  3  0  0  0  0  0  0
  -30.6140  -18.2150   21.8430 C   0  0  0  0  0  1  0  0  0  0  0  0
  -29.6090  -18.1920   20.6830 C   0  0  0  0  0  0  0  0  0  0  0  0
  -30.4080  -15.3070   20.1330 C   0  0  0  0  0  0  0  0  0  0  0  0
  -30.3660  -12.8620   19.2150 C   0  0  0  0  0  2  0  0  0  0  0  0
  -29.4120  -12.6120   18.0210 C   0  0  0  0  0  2  0  0  0  0  0  0
  -27.9770  -12.3370   18.5060 C   0  0  0  0  0  2  0  0  0  0  0  0
  -27.5470  -13.3120   19.6300 C   0  0  0  0  0  3  0  0  0  0  0  0
  -28.6270  -13.4850   20.7160 C   0  0  0  0  0  2  0  0  0  0  0  0
  -29.8220  -14.0080   20.0310 N   0  0  0  0  0  0  0  0  0  0  0  0
  -31.6440  -15.2700   20.0320 O   0  0  0  0  0  0  0  0  0  0  0  0
  -29.6430  -16.5970   20.1110 N   0  0  0  0  0  4  0  0  0  0  0  0
  -28.6990  -16.3550   19.8530 H   0  0  0  0  0  0  0  0  0  0  0  0
  -25.1990  -13.8820   20.4480 C   0  0  0  0  0  0  0  0  0  0  0  0
  -24.1410  -13.1110   20.8380 C   0  0  0  0  0  0  0  0  0  0  0  0
  -24.5990  -11.7570   20.7950 C   0  0  0  0  0  0  0  0  0  0  0  0
  -26.2310  -13.0010   20.1780 N   0  0  0  0  0  0  0  0  0  0  0  0
  -25.8850  -11.7170   20.4580 N   0  0  0  0  0  0  0  0  0  0  0  0
  -23.8670  -10.4990   20.9920 C   0  0  0  0  0  0  0  0  0  0  0  0
  -24.3000   -9.5300   21.9240 C   0  0  0  0  0  3  0  0  0  0  0  0
  -23.5650   -8.3400   22.1110 C   0  0  0  0  0  3  0  0  0  0  0  0
  -22.3830   -8.1090   21.3670 C   0  0  0  0  0  0  0  0  0  0  0  0
  -21.9700   -9.0670   20.4250 C   0  0  0  0  0  3  0  0  0  0  0  0
  -22.7050  -10.2500   20.2350 C   0  0  0  0  0  3  0  0  0  0  0  0
  -21.6200   -6.9710   21.4630 O   0  0  0  0  0  0  0  0  0  0  0  0
  -21.5710   -6.2350   22.6200 C   0  0  0  0  0  0  0  0  0  0  0  0
  -21.1380   -6.7950   23.8430 C   0  0  0  0  0  3  0  0  0  0  0  0
  -21.0350   -5.9840   24.9900 C   0  0  0  0  0  3  0  0  0  0  0  0
  -21.3540   -4.6150   24.9180 C   0  0  0  0  0  0  0  0  0  0  0  0
  -21.7800   -4.0550   23.7010 C   0  0  0  0  0  3  0  0  0  0  0  0
  -21.8850   -4.8620   22.5550 C   0  0  0  0  0  0  0  0  0  0  0  0
  -22.2760   -4.3110   21.3810 F   0  0  0  0  0  0  0  0  0  0  0  0
  -21.2470   -3.8360   26.0200 F   0  0  0  0  0  0  0  0  0  0  0  0
  -22.7500  -13.5960   21.1250 C   0  0  0  0  0  0  0  0  0  0  0  0
  -22.0280  -12.9070   22.0000 N   0  0  0  0  0  0  0  0  0  0  0  0
  -22.3150  -14.6260   20.6120 O   0  0  0  0  0  0  0  0  0  0  0  0
  -22.3930  -12.0770   22.4430 H   0  0  0  0  0  0  0  0  0  0  0  0
  -21.0950  -13.2170   22.2330 H   0  0  0  0  0  0  0  0  0  0  0  0
  -25.3580  -15.2520   20.2610 N   0  0  0  0  0  0  0  0  0  0  0  0
  -24.5780  -15.8930   20.3550 H   0  0  0  0  0  0  0  0  0  0  0  0
  -26.1740  -15.6830   19.8460 H   0  0  0  0  0  0  0  0  0  0  0  0
  -28.2060  -25.7180   20.2540 O   0  0  0  0  0  0  0  0  0  0  0  0
  -24.6330  -31.7980   23.1990 C   0  0  0  0  0  0  0  0  0  0  0  0
  -27.1980  -26.8480   20.2110 C   0  0  0  0  0  0  0  0  0  0  0  0
  -23.4490  -30.3940   21.5670 C   0  0  0  0  0  3  0  0  0  0  0  0
  -24.9000  -28.7720   20.1700 C   0  0  0  0  0  0  0  0  0  0  0  0
  -26.0240  -30.5830   21.4350 C   0  0  0  0  0  2  0  0  0  0  0  0
  -26.0960  -29.1660   20.7830 C   0  0  0  0  0  0  0  0  0  0  0  0
  -27.2370  -28.2300   20.7700 C   0  0  0  0  0  3  0  0  0  0  0  0
  -25.9400  -26.6080   19.6050 C   0  0  0  0  0  3  0  0  0  0  0  0
  -24.8490  -27.5110   19.5640 C   0  0  0  0  0  3  0  0  0  0  0  0
  -23.6870  -29.7020   20.1980 C   0  0  0  0  0  2  0  0  0  0  0  0
  -24.7250  -30.9510   22.1210 N   0  0  0  0  0  0  0  0  0  0  0  0
  -23.5400  -32.0940   23.7070 O   0  0  0  0  0  0  0  0  0  0  0  0
  -22.7400  -29.4090   22.5340 C   0  0  0  0  0  0  0  0  0  0  0  0
  -21.4070  -29.2610   22.4120 N   0  0  0  0  0  0  0  0  0  0  0  0
  -23.3970  -28.7750   23.3650 O   0  0  0  0  0  0  0  0  0  0  0  0
  -20.9310  -29.8220   21.7200 H   0  0  0  0  0  0  0  0  0  0  0  0
  -18.0070  -28.0950   22.9350 C   0  0  0  0  0  0  0  0  0  0  0  0
  -20.5720  -28.3340   23.1840 C   0  0  0  0  0  3  0  0  0  0  0  0
  -20.6540  -26.9010   22.6100 C   0  0  0  0  0  2  0  0  0  0  0  0
  -19.5440  -26.5910   21.6010 C   0  0  0  0  0  2  0  0  0  0  0  0
  -18.1660  -26.7470   22.2520 C   0  0  0  0  0  2  0  0  0  0  0  0
  -19.1370  -28.8480   23.3570 C   0  0  0  0  0  0  0  0  0  0  0  0
  -18.9300  -30.1070   23.9610 C   0  0  0  0  0  3  0  0  0  0  0  0
  -17.6310  -30.6170   24.1400 C   0  0  0  0  0  3  0  0  0  0  0  0
  -16.5170  -29.8630   23.7290 C   0  0  0  0  0  3  0  0  0  0  0  0
  -16.7060  -28.6030   23.1330 C   0  0  0  0  0  3  0  0  0  0  0  0
  -25.8980  -32.4440   23.8410 C   0  0  0  0  0  3  0  0  0  0  0  0
  -25.5760  -33.8450   24.1660 N   0  0  0  0  0  0  0  0  0  0  0  0
  -25.9120  -34.9060   23.4180 C   0  0  0  0  0  0  0  0  0  0  0  0
  -26.5870  -34.8070   22.3900 O   0  0  0  0  0  0  0  0  0  0  0  0
  -24.9740  -33.9950   24.9620 H   0  0  0  0  0  0  0  0  0  0  0  0
  -24.1880  -36.7100   23.0720 C   0  0  0  0  0  1  0  0  0  0  0  0
  -25.4280  -36.2970   23.8820 C   0  0  0  0  0  3  0  0  0  0  0  0
  -27.5610  -37.1800   24.7220 C   0  0  0  0  0  1  0  0  0  0  0  0
  -26.4630  -37.3490   23.7740 N   0  0  0  0  0  0  0  0  0  0  0  0
  -26.0580  -38.2710   23.9170 H   0  0  0  0  0  0  0  0  0  0  0  0
  -26.3860  -31.6880   25.1380 C   0  0  1  0  0  0  0  0  0  0  0  0
  -25.2730  -31.4700   26.1910 C   0  0  0  0  0  1  0  0  0  0  0  0
  -26.9710  -30.3030   24.7820 C   0  0  0  0  0  1  0  0  0  0  0  0
  -27.5290  -32.4870   25.8080 C   0  0  0  0  0  1  0  0  0  0  0  0
  1  4  2  0
  1  2  1  0
  2  6  2  0
  4  5  1  0
  5  3  2  0
  6  3  1  0
  6 12  1  0
  7  4  1  0
  8  9  1  0
  8  7  1  0
  9 10  1  0
 10  5  1  0
 10 51  1  0
 12 11  1  0
 14 19  1  0
 15 16  1  0
 15 14  1  0
 17 16  1  0
 17 26  1  0
 17 18  1  0
 19 13  1  0
 19 18  1  0
 20 13  2  0
 21 13  1  0
 21 12  2  0
 22 21  1  0
 23 24  2  0
 24 43  1  0
 25 24  1  0
 25 28  1  0
 26 23  1  0
 26 27  1  0
 27 25  2  0
 28 29  1  0
 29 30  2  0
 31 34  1  0
 31 30  1  0
 32 31  2  0
 33 32  1  0
 33 28  2  0
 34 35  1  0
 35 36  1  0
 36 37  2  0
 38 37  1  0
 38 42  1  0
 39 38  2  0
 40 35  2  0
 40 39  1  0
 41 40  1  0
 43 44  1  0
 44 47  1  0
 44 46  1  0
 45 43  2  0
 48 49  1  0
 48 23  1  0
 50 48  1  0
 52 63  2  0
 53 51  1  0
 53 58  1  0
 54 62  1  0
 54 64  1  0
 55 61  1  0
 55 57  1  0
 56 62  1  0
 57 56  1  0
 58 57  2  0
 59 53  2  0
 60 59  1  0
 60 55  2  0
 61 54  1  0
 62 52  1  0
 64 66  2  0
 65 64  1  0
 67 65  1  0
 68 77  2  0
 68 73  1  0
 69 65  1  0
 69 73  1  0
 70 69  1  0
 71 72  1  0
 71 70  1  0
 72 68  1  0
 73 74  2  0
 74 75  1  0
 76 75  2  0
 77 76  1  0
 78 52  1  0
 78 79  1  0
 78 88  1  0
 79 82  1  0
 80 84  1  0
 80 79  1  0
 81 80  2  0
 84 83  1  0
 86 84  1  0
 86 87  1  0
 86 85  1  0
 88 91  1  1
 88 89  1  0
 90 88  1  0
M  ISO  4  10 101  13 100  21 100  51 101
M  END
>  <TORSDO>  (43) 
F 17

>  <SCORE>  (43) 
-16.624

>  <name>  (43) 
42

>  <ligand_id>  (43) 
42

>  <original_smiles>  (43) 
[H]c1c([H])c([H])c2c(c1[H])C([H])([H])C([H])([H])C([H])([H])C2([H])N([H])C(=O)C1([H])N(C(=O)C([H])(N([H])C(=O)C([H])(N([H])C([H])([H])[H])C([H])([H])[H])C(C([H])([H])[H])(C([H])([H])[H])C([H])([H])[H])C([H])([H])c2c([H])c(OC3([H])c4c([H])c(C([H])(N([H])C(=O)N5C([H])([H])C([H])([H])C([H])([H])C([H])(n6nc(-c7c([H])c([H])c(Oc8c([H])c([H])c(F)c([H])c8F)c([H])c7[H])c(C(=O)N([H])[H])c6N([H])[H])C5([H])[H])C([H])([H])[H])c([H])c([H])c4C([H])([H])C([H])([H])C3([H])[H])c([H])c([H])c2C1([H])[H]

>  <smiles>  (43) 
[H]c1c([H])c([H])c2c(c1[H])C([H])([H])C([H])([H])C([H])([H])C2([H])N([H])C(=O)C1([H])N(C(=O)C([H])(N([H])C(=O)C([H])(N([H])C([H])([H])[H])C([H])([H])[H])C(C([H])([H])[H])(C([H])([H])[H])C([H])([H])[H])C([H])([H])c2c([H])c(OC3([H])c4c([H])c(C([H])(N([H])C(=O)N5C([H])([H])C([H])([H])C([H])([H])C([H])(n6nc(-c7c([H])c([H])c(Oc8c([H])c([H])c(F)c([H])c8F)c([H])c7[H])c(C(=O)N([H])[H])c6N([H])[H])C5([H])[H])C([H])([H])[H])c([H])c([H])c4C([H])([H])C([H])([H])C3([H])[H])c([H])c([H])c2C1([H])[H]

$$$$
43:0:0
     RDKit          3D

 89 97  0  0  1  0  0  0  0  0999 V2000
  -29.3540  -20.7200   19.7830 C   0  0  0  0  0  0  0  0  0  0  0  0
  -30.0490  -20.0350   18.6100 C   0  0  0  0  0  2  0  0  0  0  0  0
  -29.1620  -19.4440   20.7700 C   0  0  0  0  0  2  0  0  0  0  0  0
  -30.2320  -18.4930   18.8540 C   0  0  0  0  0  2  0  0  0  0  0  0
  -30.0860  -18.1070   20.3520 C   0  0  1  0  0  0  0  0  0  0  0  0
  -29.1300  -22.0620   19.6880 N   0  0  0  0  0  0  0  0  0  0  0  0
  -32.2930  -19.4820   20.8990 C   0  0  0  0  0  1  0  0  0  0  0  0
  -31.3110  -17.9790   22.6420 C   0  0  0  0  0  1  0  0  0  0  0  0
  -31.4570  -18.2060   21.1210 C   0  0  0  0  0  3  0  0  0  0  0  0
  -29.5870  -16.4700   20.5040 C   0  0  0  0  0  2  0  0  0  0  0  0
  -30.4270  -15.0540   20.1630 C   0  0  0  0  0  0  0  0  0  0  0  0
  -30.3300  -12.7050   19.1910 C   0  0  0  0  0  2  0  0  0  0  0  0
  -29.3680  -12.6770   17.9780 C   0  0  0  0  0  2  0  0  0  0  0  0
  -27.9140  -12.4410   18.4350 C   0  0  0  0  0  2  0  0  0  0  0  0
  -27.5260  -13.3420   19.6360 C   0  0  0  0  0  3  0  0  0  0  0  0
  -28.6040  -13.3490   20.7390 C   0  0  0  0  0  2  0  0  0  0  0  0
  -29.8680  -13.7750   20.1240 N   0  0  0  0  0  0  0  0  0  0  0  0
  -31.6070  -15.1240   19.8000 O   0  0  0  0  0  0  0  0  0  0  0  0
  -25.1530  -13.8830   20.4280 C   0  0  0  0  0  0  0  0  0  0  0  0
  -24.1090  -13.0930   20.8200 C   0  0  0  0  0  0  0  0  0  0  0  0
  -24.5940  -11.7480   20.7810 C   0  0  0  0  0  0  0  0  0  0  0  0
  -26.2040  -13.0210   20.1630 N   0  0  0  0  0  0  0  0  0  0  0  0
  -25.8790  -11.7320   20.4410 N   0  0  0  0  0  0  0  0  0  0  0  0
  -23.8890  -10.4750   20.9850 C   0  0  0  0  0  0  0  0  0  0  0  0
  -24.3440   -9.5190   21.9220 C   0  0  0  0  0  3  0  0  0  0  0  0
  -23.6360   -8.3140   22.1140 C   0  0  0  0  0  3  0  0  0  0  0  0
  -22.4600   -8.0540   21.3710 C   0  0  0  0  0  0  0  0  0  0  0  0
  -22.0260   -8.9970   20.4240 C   0  0  0  0  0  3  0  0  0  0  0  0
  -22.7340  -10.1950   20.2290 C   0  0  0  0  0  3  0  0  0  0  0  0
  -21.7240   -6.8990   21.4730 O   0  0  0  0  0  0  0  0  0  0  0  0
  -21.6910   -6.1640   22.6310 C   0  0  0  0  0  0  0  0  0  0  0  0
  -21.2530   -6.7190   23.8540 C   0  0  0  0  0  3  0  0  0  0  0  0
  -21.1700   -5.9110   25.0050 C   0  0  0  0  0  3  0  0  0  0  0  0
  -21.5160   -4.5470   24.9360 C   0  0  0  0  0  0  0  0  0  0  0  0
  -21.9480   -3.9920   23.7170 C   0  0  0  0  0  3  0  0  0  0  0  0
  -22.0320   -4.7970   22.5690 C   0  0  0  0  0  0  0  0  0  0  0  0
  -22.4280   -4.2520   21.3940 F   0  0  0  0  0  0  0  0  0  0  0  0
  -21.4300   -3.7680   26.0380 F   0  0  0  0  0  0  0  0  0  0  0  0
  -22.7110  -13.5490   21.1180 C   0  0  0  0  0  0  0  0  0  0  0  0
  -22.0060  -12.8400   21.9940 N   0  0  0  0  0  0  0  0  0  0  0  0
  -22.2520  -14.5700   20.6100 O   0  0  0  0  0  0  0  0  0  0  0  0
  -22.3910  -12.0140   22.4280 H   0  0  0  0  0  0  0  0  0  0  0  0
  -21.0690  -13.1300   22.2350 H   0  0  0  0  0  0  0  0  0  0  0  0
  -25.2910  -15.2570   20.2490 N   0  0  0  0  0  0  0  0  0  0  0  0
  -24.5170  -15.8970   20.3780 H   0  0  0  0  0  0  0  0  0  0  0  0
  -26.1310  -15.7140   19.9180 H   0  0  0  0  0  0  0  0  0  0  0  0
  -28.6370  -23.2740   20.5550 C   0  0  0  0  0  2  0  0  0  0  0  0
  -28.1650  -24.7200   19.7900 C   0  0  0  0  0  2  0  0  0  0  0  0
  -28.2030  -26.2050   20.2990 O   0  0  0  0  0  0  0  0  0  0  0  0
  -24.6000  -31.9270   23.2410 C   0  0  0  0  0  0  0  0  0  0  0  0
  -27.1440  -27.1890   20.1910 C   0  0  0  0  0  0  0  0  0  0  0  0
  -23.3890  -30.5370   21.6050 C   0  0  0  0  0  3  0  0  0  0  0  0
  -24.8260  -28.9590   20.1710 C   0  0  0  0  0  0  0  0  0  0  0  0
  -25.9430  -30.7860   21.4360 C   0  0  0  0  0  2  0  0  0  0  0  0
  -26.0080  -29.3920   20.7810 C   0  0  0  0  0  0  0  0  0  0  0  0
  -27.1630  -28.5210   20.7790 C   0  0  0  0  0  3  0  0  0  0  0  0
  -25.9360  -26.8710   19.5290 C   0  0  0  0  0  3  0  0  0  0  0  0
  -24.8020  -27.7120   19.5320 C   0  0  0  0  0  3  0  0  0  0  0  0
  -23.6030  -29.8640   20.2250 C   0  0  0  0  0  2  0  0  0  0  0  0
  -24.6640  -31.1040   22.1490 N   0  0  0  0  0  0  0  0  0  0  0  0
  -23.5170  -32.2190   23.7710 O   0  0  0  0  0  0  0  0  0  0  0  0
  -22.7080  -29.5310   22.5670 C   0  0  0  0  0  0  0  0  0  0  0  0
  -21.3800  -29.3620   22.4390 N   0  0  0  0  0  0  0  0  0  0  0  0
  -23.3780  -28.9060   23.3940 O   0  0  0  0  0  0  0  0  0  0  0  0
  -20.8960  -29.9140   21.7450 H   0  0  0  0  0  0  0  0  0  0  0  0
  -17.9990  -28.1590   22.9360 C   0  0  0  0  0  0  0  0  0  0  0  0
  -20.5560  -28.4290   23.2110 C   0  0  0  0  0  3  0  0  0  0  0  0
  -20.6630  -26.9930   22.6480 C   0  0  0  0  0  2  0  0  0  0  0  0
  -19.5670  -26.6610   21.6290 C   0  0  0  0  0  2  0  0  0  0  0  0
  -18.1810  -26.8070   22.2640 C   0  0  0  0  0  2  0  0  0  0  0  0
  -19.1150  -28.9270   23.3650 C   0  0  0  0  0  0  0  0  0  0  0  0
  -18.8890  -30.1900   23.9530 C   0  0  0  0  0  3  0  0  0  0  0  0
  -17.5830  -30.6900   24.1110 C   0  0  0  0  0  3  0  0  0  0  0  0
  -16.4820  -29.9200   23.6970 C   0  0  0  0  0  3  0  0  0  0  0  0
  -16.6910  -28.6560   23.1150 C   0  0  0  0  0  3  0  0  0  0  0  0
  -25.8820  -32.5560   23.8630 C   0  0  0  0  0  3  0  0  0  0  0  0
  -26.3800  -31.8000   25.1550 C   0  0  1  0  0  0  0  0  0  0  0  0
  -25.2760  -31.5880   26.2170 C   0  0  0  0  0  1  0  0  0  0  0  0
  -26.9510  -30.4100   24.7940 C   0  0  0  0  0  1  0  0  0  0  0  0
  -27.5350  -32.5920   25.8120 C   0  0  0  0  0  1  0  0  0  0  0  0
  -25.5810  -33.9640   24.1760 N   0  0  0  0  0  0  0  0  0  0  0  0
  -25.9260  -35.0090   23.4110 C   0  0  0  0  0  0  0  0  0  0  0  0
  -26.5940  -34.8900   22.3810 O   0  0  0  0  0  0  0  0  0  0  0  0
  -24.9810  -34.1270   24.9720 H   0  0  0  0  0  0  0  0  0  0  0  0
  -24.2180  -36.8200   23.0430 C   0  0  0  0  0  1  0  0  0  0  0  0
  -25.4540  -36.4060   23.8570 C   0  0  0  0  0  3  0  0  0  0  0  0
  -27.5960  -37.2750   24.6860 C   0  0  0  0  0  1  0  0  0  0  0  0
  -26.4990  -37.4470   23.7370 N   0  0  0  0  0  0  0  0  0  0  0  0
  -26.1030  -38.3710   23.8770 H   0  0  0  0  0  0  0  0  0  0  0  0
  1  3  1  0
  2  4  1  0
  2  1  1  0
  4  5  1  0
  5 10  1  6
  5  3  1  0
  5  9  1  0
  6  1  2  0
  6 47  1  0
  7  9  1  0
  9  8  1  0
 11 10  1  0
 12 17  1  0
 13 14  1  0
 13 12  1  0
 15 14  1  0
 15 22  1  0
 15 16  1  0
 17 11  1  0
 17 16  1  0
 18 11  2  0
 19 20  2  0
 20 39  1  0
 21 20  1  0
 21 24  1  0
 22 19  1  0
 22 23  1  0
 23 21  2  0
 24 25  1  0
 25 26  2  0
 27 30  1  0
 27 26  1  0
 28 27  2  0
 29 28  1  0
 29 24  2  0
 30 31  1  0
 31 32  1  0
 32 33  2  0
 34 33  1  0
 34 38  1  0
 35 34  2  0
 36 31  2  0
 36 35  1  0
 37 36  1  0
 39 40  1  0
 40 43  1  0
 40 42  1  0
 41 39  2  0
 44 45  1  0
 44 19  1  0
 46 44  1  0
 48 49  1  0
 48 47  1  0
 50 61  2  0
 51 49  1  0
 51 56  1  0
 52 60  1  0
 52 62  1  0
 53 59  1  0
 53 55  1  0
 54 60  1  0
 55 54  1  0
 56 55  2  0
 57 58  1  0
 57 51  2  0
 58 53  2  0
 59 52  1  0
 60 50  1  0
 62 64  2  0
 63 62  1  0
 65 63  1  0
 66 75  2  0
 66 71  1  0
 67 63  1  0
 67 71  1  0
 68 67  1  0
 69 70  1  0
 69 68  1  0
 70 66  1  0
 71 72  2  0
 72 73  1  0
 74 73  2  0
 75 74  1  0
 76 50  1  0
 76 81  1  0
 76 77  1  0
 77 80  1  1
 77 78  1  0
 79 77  1  0
 81 84  1  0
 82 86  1  0
 82 81  1  0
 83 82  2  0
 86 85  1  0
 88 86  1  0
 88 89  1  0
 88 87  1  0
M  ISO  4  10 100  11 100  48 101  49 101
M  END
>  <TORSDO>  (44) 
F 20

>  <SCORE>  (44) 
-15.031

>  <name>  (44) 
43

>  <ligand_id>  (44) 
43

>  <original_smiles>  (44) 
[H]c1c([H])c([H])c2c(c1[H])C([H])([H])C([H])([H])C([H])([H])C2([H])N([H])C(=O)C1([H])N(C(=O)C([H])(N([H])C(=O)C([H])(N([H])C([H])([H])[H])C([H])([H])[H])C(C([H])([H])[H])(C([H])([H])[H])C([H])([H])[H])C([H])([H])c2c([H])c(OC([H])([H])C([H])([H])N=C3C([H])([H])C([H])([H])C(C([H])([H])C(=O)N4C([H])([H])C([H])([H])C([H])([H])C([H])(n5nc(-c6c([H])c([H])c(Oc7c([H])c([H])c(F)c([H])c7F)c([H])c6[H])c(C(=O)N([H])[H])c5N([H])[H])C4([H])[H])(C([H])(C([H])([H])[H])C([H])([H])[H])C3([H])[H])c([H])c([H])c2C1([H])[H]

>  <smiles>  (44) 
[H]c1c([H])c([H])c2c(c1[H])C([H])([H])C([H])([H])C([H])([H])C2([H])N([H])C(=O)C1([H])N(C(=O)C([H])(N([H])C(=O)C([H])(N([H])C([H])([H])[H])C([H])([H])[H])C(C([H])([H])[H])(C([H])([H])[H])C([H])([H])[H])C([H])([H])c2c([H])c(OC([H])([H])C([H])([H])N=C3C([H])([H])C([H])([H])C(C([H])([H])C(=O)N4C([H])([H])C([H])([H])C([H])([H])C([H])(n5nc(-c6c([H])c([H])c(Oc7c([H])c([H])c(F)c([H])c7F)c([H])c6[H])c(C(=O)N([H])[H])c5N([H])[H])C4([H])[H])(C([H])(C([H])([H])[H])C([H])([H])[H])C3([H])[H])c([H])c([H])c2C1([H])[H]

$$$$
44:0:0
     RDKit          3D

 90 98  0  0  1  0  0  0  0  0999 V2000
  -29.3360  -20.6790   18.5740 C   0  0  0  0  0  3  0  0  0  0  0  0
  -29.1690  -21.9060   17.8840 C   0  0  0  0  0  3  0  0  0  0  0  0
  -28.7080  -21.8560   20.5850 C   0  0  0  0  0  3  0  0  0  0  0  0
  -29.0910  -20.5430   19.9560 C   0  0  0  0  0  0  0  0  0  0  0  0
  -28.7500  -23.1120   18.5030 C   0  0  0  0  0  0  0  0  0  0  0  0
  -28.5360  -23.1900   19.9070 C   0  0  0  0  0  0  0  0  0  0  0  0
  -28.4400  -24.2780   17.5740 C   0  0  0  0  0  1  0  0  0  0  0  0
  -29.0790  -18.9780   20.5810 C   0  0  0  0  0  2  0  0  0  0  0  0
  -30.5480  -15.0520   20.2430 C   0  0  0  0  0  0  0  0  0  0  0  0
  -30.4130  -12.6670   19.3510 C   0  0  0  0  0  2  0  0  0  0  0  0
  -29.5070  -12.6750   18.1000 C   0  0  0  0  0  2  0  0  0  0  0  0
  -28.0240  -12.5160   18.4930 C   0  0  0  0  0  2  0  0  0  0  0  0
  -27.6330  -13.3700   19.7270 C   0  0  0  0  0  3  0  0  0  0  0  0
  -28.6900  -13.3600   20.8480 C   0  0  0  0  0  2  0  0  0  0  0  0
  -29.9580  -13.7770   20.2420 N   0  0  0  0  0  0  0  0  0  0  0  0
  -31.7420  -15.0780   19.9280 O   0  0  0  0  0  0  0  0  0  0  0  0
  -30.0340  -17.6470   20.1700 C   0  0  0  0  0  0  0  0  0  0  0  0
  -29.7700  -16.2520   20.4340 N   0  0  0  0  0  0  0  0  0  0  0  0
  -31.0700  -17.9420   19.5720 O   0  0  0  0  0  0  0  0  0  0  0  0
  -28.8520  -16.0790   20.8150 H   0  0  0  0  0  0  0  0  0  0  0  0
  -25.2630  -13.9150   20.5130 C   0  0  0  0  0  0  0  0  0  0  0  0
  -24.2090  -13.1330   20.8890 C   0  0  0  0  0  0  0  0  0  0  0  0
  -24.6770  -11.7840   20.8390 C   0  0  0  0  0  0  0  0  0  0  0  0
  -26.3040  -13.0460   20.2340 N   0  0  0  0  0  0  0  0  0  0  0  0
  -25.9610  -11.7560   20.4980 N   0  0  0  0  0  0  0  0  0  0  0  0
  -23.9520  -10.5190   21.0290 C   0  0  0  0  0  0  0  0  0  0  0  0
  -24.3810   -9.5550   21.9690 C   0  0  0  0  0  3  0  0  0  0  0  0
  -23.6550   -8.3580   22.1450 C   0  0  0  0  0  3  0  0  0  0  0  0
  -22.4880   -8.1170   21.3830 C   0  0  0  0  0  0  0  0  0  0  0  0
  -22.0780   -9.0680   20.4320 C   0  0  0  0  0  3  0  0  0  0  0  0
  -22.8050  -10.2580   20.2520 C   0  0  0  0  0  3  0  0  0  0  0  0
  -21.7400   -6.9680   21.4670 O   0  0  0  0  0  0  0  0  0  0  0  0
  -21.6650   -6.2390   22.6250 C   0  0  0  0  0  0  0  0  0  0  0  0
  -21.1770   -6.7960   23.8260 C   0  0  0  0  0  3  0  0  0  0  0  0
  -21.0520   -5.9930   24.9760 C   0  0  0  0  0  3  0  0  0  0  0  0
  -21.4050   -4.6300   24.9260 C   0  0  0  0  0  0  0  0  0  0  0  0
  -21.8900   -4.0720   23.7300 C   0  0  0  0  0  3  0  0  0  0  0  0
  -22.0150   -4.8730   22.5830 C   0  0  0  0  0  0  0  0  0  0  0  0
  -22.4630   -4.3270   21.4260 F   0  0  0  0  0  0  0  0  0  0  0  0
  -21.2740   -3.8530   26.0270 F   0  0  0  0  0  0  0  0  0  0  0  0
  -22.8150  -13.6060   21.1860 C   0  0  0  0  0  0  0  0  0  0  0  0
  -22.0970  -12.8970   22.0450 N   0  0  0  0  0  0  0  0  0  0  0  0
  -22.3790  -14.6450   20.6910 O   0  0  0  0  0  0  0  0  0  0  0  0
  -22.4670  -12.0600   22.4740 H   0  0  0  0  0  0  0  0  0  0  0  0
  -21.1630  -13.2010   22.2900 H   0  0  0  0  0  0  0  0  0  0  0  0
  -25.4160  -15.2910   20.3640 N   0  0  0  0  0  0  0  0  0  0  0  0
  -24.6330  -15.9180   20.5040 H   0  0  0  0  0  0  0  0  0  0  0  0
  -26.2190  -15.7510   19.9580 H   0  0  0  0  0  0  0  0  0  0  0  0
  -27.9120  -24.6000   20.5710 C   0  0  0  0  0  2  0  0  0  0  0  0
  -28.2440  -26.1150   20.2550 O   0  0  0  0  0  0  0  0  0  0  0  0
  -24.6110  -31.8960   23.2000 C   0  0  0  0  0  0  0  0  0  0  0  0
  -27.2150  -27.1370   20.2180 C   0  0  0  0  0  0  0  0  0  0  0  0
  -23.4240  -30.4800   21.5670 C   0  0  0  0  0  3  0  0  0  0  0  0
  -24.8910  -28.9040   20.1400 C   0  0  0  0  0  0  0  0  0  0  0  0
  -25.9730  -30.7460   21.4090 C   0  0  0  0  0  2  0  0  0  0  0  0
  -26.0590  -29.3410   20.7810 C   0  0  0  0  0  0  0  0  0  0  0  0
  -27.2220  -28.4720   20.8090 C   0  0  0  0  0  3  0  0  0  0  0  0
  -26.0390  -26.8270   19.5070 C   0  0  0  0  0  3  0  0  0  0  0  0
  -24.9040  -27.6690   19.4710 C   0  0  0  0  0  3  0  0  0  0  0  0
  -23.6550  -29.7970   20.1900 C   0  0  0  0  0  2  0  0  0  0  0  0
  -24.6920  -31.0610   22.1170 N   0  0  0  0  0  0  0  0  0  0  0  0
  -23.5220  -32.1810   23.7210 O   0  0  0  0  0  0  0  0  0  0  0  0
  -22.7430  -29.4810   22.5310 C   0  0  0  0  0  0  0  0  0  0  0  0
  -21.4120  -29.3190   22.4090 N   0  0  0  0  0  0  0  0  0  0  0  0
  -23.4120  -28.8500   23.3530 O   0  0  0  0  0  0  0  0  0  0  0  0
  -20.9160  -29.8890   21.7380 H   0  0  0  0  0  0  0  0  0  0  0  0
  -18.0410  -28.1060   22.9010 C   0  0  0  0  0  0  0  0  0  0  0  0
  -20.5990  -28.3670   23.1690 C   0  0  0  0  0  3  0  0  0  0  0  0
  -20.7080  -26.9480   22.5590 C   0  0  0  0  0  2  0  0  0  0  0  0
  -19.6050  -26.6590   21.5390 C   0  0  0  0  0  2  0  0  0  0  0  0
  -18.2260  -26.7750   22.1940 C   0  0  0  0  0  2  0  0  0  0  0  0
  -19.1580  -28.8650   23.3410 C   0  0  0  0  0  0  0  0  0  0  0  0
  -18.9360  -30.1250   23.9380 C   0  0  0  0  0  3  0  0  0  0  0  0
  -17.6300  -30.6240   24.1040 C   0  0  0  0  0  3  0  0  0  0  0  0
  -16.5270  -29.8570   23.6880 C   0  0  0  0  0  3  0  0  0  0  0  0
  -16.7340  -28.6000   23.0920 C   0  0  0  0  0  3  0  0  0  0  0  0
  -25.8840  -32.5430   23.8310 C   0  0  0  0  0  3  0  0  0  0  0  0
  -25.5640  -33.9410   24.1640 N   0  0  0  0  0  0  0  0  0  0  0  0
  -25.8950  -34.9970   23.4080 C   0  0  0  0  0  0  0  0  0  0  0  0
  -26.5720  -34.8970   22.3820 O   0  0  0  0  0  0  0  0  0  0  0  0
  -24.9710  -34.0970   24.9660 H   0  0  0  0  0  0  0  0  0  0  0  0
  -24.1810  -36.7970   23.0200 C   0  0  0  0  0  1  0  0  0  0  0  0
  -25.3990  -36.3840   23.8610 C   0  0  0  0  0  3  0  0  0  0  0  0
  -27.5120  -37.2630   24.7520 C   0  0  0  0  0  1  0  0  0  0  0  0
  -26.4370  -37.4350   23.7800 N   0  0  0  0  0  0  0  0  0  0  0  0
  -26.0280  -38.3560   23.9150 H   0  0  0  0  0  0  0  0  0  0  0  0
  -26.3920  -31.7780   25.1150 C   0  0  1  0  0  0  0  0  0  0  0  0
  -25.2870  -31.5430   26.1740 C   0  0  0  0  0  1  0  0  0  0  0  0
  -26.9800  -30.3990   24.7330 C   0  0  0  0  0  1  0  0  0  0  0  0
  -27.5310  -32.5770   25.7920 C   0  0  0  0  0  1  0  0  0  0  0  0
  1  4  1  0
  2  5  1  0
  2  1  2  0
  4  8  1  0
  4  3  2  0
  5  6  2  0
  6 49  1  0
  6  3  1  0
  7  5  1  0
  9 18  1  0
 10 15  1  0
 11 12  1  0
 11 10  1  0
 13 12  1  0
 13 24  1  0
 13 14  1  0
 15  9  1  0
 15 14  1  0
 16  9  2  0
 17 18  1  0
 17  8  1  0
 18 20  1  0
 19 17  2  0
 21 22  2  0
 22 41  1  0
 23 22  1  0
 23 26  1  0
 24 25  1  0
 24 21  1  0
 25 23  2  0
 26 27  1  0
 27 28  2  0
 29 32  1  0
 29 28  1  0
 30 29  2  0
 31 30  1  0
 31 26  2  0
 32 33  1  0
 33 34  1  0
 34 35  2  0
 36 35  1  0
 36 40  1  0
 37 36  2  0
 38 33  2  0
 38 37  1  0
 39 38  1  0
 41 42  1  0
 42 45  1  0
 42 44  1  0
 43 41  2  0
 46 47  1  0
 46 21  1  0
 48 46  1  0
 50 49  1  0
 51 62  2  0
 52 50  1  0
 52 57  1  0
 53 61  1  0
 53 63  1  0
 54 60  1  0
 54 56  1  0
 55 61  1  0
 56 57  2  0
 56 55  1  0
 58 52  2  0
 59 58  1  0
 59 54  2  0
 60 53  1  0
 61 51  1  0
 63 65  2  0
 64 63  1  0
 66 64  1  0
 67 76  2  0
 67 72  1  0
 68 64  1  0
 68 72  1  0
 69 68  1  0
 70 71  1  0
 70 69  1  0
 71 67  1  0
 72 73  2  0
 73 74  1  0
 75 74  2  0
 76 75  1  0
 77 51  1  0
 77 78  1  0
 77 87  1  0
 78 81  1  0
 79 83  1  0
 79 78  1  0
 80 79  2  0
 83 82  1  0
 85 83  1  0
 85 86  1  0
 85 84  1  0
 87 90  1  1
 87 88  1  0
 89 87  1  0
M  ISO  4   9 100  18 100  49 101  50 101
M  END
>  <TORSDO>  (45) 
F 18

>  <SCORE>  (45) 
-14.642

>  <name>  (45) 
44

>  <ligand_id>  (45) 
44

>  <original_smiles>  (45) 
[H]c1c([H])c([H])c2c(c1[H])C([H])([H])C([H])([H])C([H])([H])C2([H])N([H])C(=O)C1([H])N(C(=O)C([H])(N([H])C(=O)C([H])(N([H])C([H])([H])[H])C([H])([H])[H])C(C([H])([H])[H])(C([H])([H])[H])C([H])([H])[H])C([H])([H])c2c([H])c(OC([H])([H])c3c([H])c(C([H])([H])C(=O)N([H])C(=O)N4C([H])([H])C([H])([H])C([H])([H])C([H])(n5nc(-c6c([H])c([H])c(Oc7c([H])c([H])c(F)c([H])c7F)c([H])c6[H])c(C(=O)N([H])[H])c5N([H])[H])C4([H])[H])c([H])c([H])c3C([H])([H])[H])c([H])c([H])c2C1([H])[H]

>  <smiles>  (45) 
[H]c1c([H])c([H])c2c(c1[H])C([H])([H])C([H])([H])C([H])([H])C2([H])N([H])C(=O)C1([H])N(C(=O)C([H])(N([H])C(=O)C([H])(N([H])C([H])([H])[H])C([H])([H])[H])C(C([H])([H])[H])(C([H])([H])[H])C([H])([H])[H])C([H])([H])c2c([H])c(OC([H])([H])c3c([H])c(C([H])([H])C(=O)N([H])C(=O)N4C([H])([H])C([H])([H])C([H])([H])C([H])(n5nc(-c6c([H])c([H])c(Oc7c([H])c([H])c(F)c([H])c7F)c([H])c6[H])c(C(=O)N([H])[H])c5N([H])[H])C4([H])[H])c([H])c([H])c3C([H])([H])[H])c([H])c([H])c2C1([H])[H]

$$$$
45:0:0
     RDKit          3D

 89 97  0  0  1  0  0  0  0  0999 V2000
  -28.6810  -22.9960   20.6160 C   0  0  0  0  0  3  0  0  0  0  0  0
  -28.6090  -21.7110   18.5820 C   0  0  0  0  0  3  0  0  0  0  0  0
  -28.1090  -24.1740   18.5900 C   0  0  0  0  0  3  0  0  0  0  0  0
  -28.8570  -21.5860   19.9710 C   0  0  0  0  0  0  0  0  0  0  0  0
  -28.2880  -24.3680   19.9780 C   0  0  0  0  0  0  0  0  0  0  0  0
  -28.2560  -22.9240   17.9330 C   0  0  0  0  0  0  0  0  0  0  0  0
  -28.0570  -22.8880   16.5950 F   0  0  0  0  0  0  0  0  0  0  0  0
  -28.2300  -25.8480   20.4410 O   0  0  0  0  0  0  0  0  0  0  0  0
  -24.5760  -31.8760   23.2240 C   0  0  0  0  0  0  0  0  0  0  0  0
  -27.2190  -26.9540   20.2960 C   0  0  0  0  0  0  0  0  0  0  0  0
  -23.4210  -30.4530   21.5800 C   0  0  0  0  0  3  0  0  0  0  0  0
  -24.9060  -28.8410   20.1950 C   0  0  0  0  0  0  0  0  0  0  0  0
  -25.9890  -30.6720   21.4800 C   0  0  0  0  0  2  0  0  0  0  0  0
  -26.0810  -29.2520   20.8360 C   0  0  0  0  0  0  0  0  0  0  0  0
  -27.2250  -28.3280   20.8670 C   0  0  0  0  0  3  0  0  0  0  0  0
  -26.0110  -26.7040   19.6030 C   0  0  0  0  0  3  0  0  0  0  0  0
  -24.8980  -27.5880   19.5580 C   0  0  0  0  0  3  0  0  0  0  0  0
  -23.6820  -29.7560   20.2150 C   0  0  0  0  0  2  0  0  0  0  0  0
  -24.6830  -31.0290   22.1480 N   0  0  0  0  0  0  0  0  0  0  0  0
  -23.4760  -32.1630   23.7230 O   0  0  0  0  0  0  0  0  0  0  0  0
  -22.7160  -29.4630   22.5460 C   0  0  0  0  0  0  0  0  0  0  0  0
  -21.3900  -29.2880   22.4030 N   0  0  0  0  0  0  0  0  0  0  0  0
  -23.3730  -28.8530   23.3940 O   0  0  0  0  0  0  0  0  0  0  0  0
  -20.9110  -29.8350   21.7000 H   0  0  0  0  0  0  0  0  0  0  0  0
  -18.0090  -28.0560   22.8780 C   0  0  0  0  0  0  0  0  0  0  0  0
  -20.5630  -28.3510   23.1730 C   0  0  0  0  0  3  0  0  0  0  0  0
  -20.6850  -26.9140   22.6160 C   0  0  0  0  0  2  0  0  0  0  0  0
  -19.6010  -26.5700   21.5890 C   0  0  0  0  0  2  0  0  0  0  0  0
  -18.2090  -26.7040   22.2130 C   0  0  0  0  0  2  0  0  0  0  0  0
  -19.1130  -28.8360   23.3140 C   0  0  0  0  0  0  0  0  0  0  0  0
  -18.8700  -30.0980   23.8990 C   0  0  0  0  0  3  0  0  0  0  0  0
  -17.5570  -30.5820   24.0480 C   0  0  0  0  0  3  0  0  0  0  0  0
  -16.4680  -29.8000   23.6240 C   0  0  0  0  0  3  0  0  0  0  0  0
  -16.6940  -28.5390   23.0450 C   0  0  0  0  0  3  0  0  0  0  0  0
  -25.8300  -32.5370   23.8730 C   0  0  0  0  0  3  0  0  0  0  0  0
  -25.5000  -33.9420   24.1740 N   0  0  0  0  0  0  0  0  0  0  0  0
  -25.8470  -34.9920   23.4160 C   0  0  0  0  0  0  0  0  0  0  0  0
  -26.5390  -34.8810   22.4020 O   0  0  0  0  0  0  0  0  0  0  0  0
  -24.8900  -34.1040   24.9600 H   0  0  0  0  0  0  0  0  0  0  0  0
  -24.1290  -36.7890   23.0090 C   0  0  0  0  0  1  0  0  0  0  0  0
  -25.3490  -36.3860   23.8530 C   0  0  0  0  0  3  0  0  0  0  0  0
  -27.4580  -37.2850   24.7340 C   0  0  0  0  0  1  0  0  0  0  0  0
  -26.3840  -37.4390   23.7570 N   0  0  0  0  0  0  0  0  0  0  0  0
  -25.9720  -38.3600   23.8820 H   0  0  0  0  0  0  0  0  0  0  0  0
  -26.3080  -31.8020   25.1870 C   0  0  1  0  0  0  0  0  0  0  0  0
  -25.1830  -31.5910   26.2270 C   0  0  0  0  0  1  0  0  0  0  0  0
  -26.9080  -30.4160   24.8600 C   0  0  0  0  0  1  0  0  0  0  0  0
  -27.4350  -32.6200   25.8630 C   0  0  0  0  0  1  0  0  0  0  0  0
  -29.2060  -19.9280   20.5310 C   0  0  0  0  0  2  0  0  0  0  0  0
  -30.1570  -18.3760   18.4960 C   0  0  0  0  0  1  0  0  0  0  0  0
  -29.9850  -18.3300   20.0270 C   0  0  0  0  0  0  0  0  0  0  0  0
  -30.4880  -15.3960   20.2350 C   0  0  0  0  0  0  0  0  0  0  0  0
  -30.4480  -12.9490   19.3400 C   0  0  0  0  0  2  0  0  0  0  0  0
  -29.5210  -12.7590   18.1120 C   0  0  0  0  0  2  0  0  0  0  0  0
  -28.0720  -12.4890   18.5570 C   0  0  0  0  0  2  0  0  0  0  0  0
  -27.6370  -13.4290   19.7080 C   0  0  0  0  0  3  0  0  0  0  0  0
  -28.6980  -13.5600   20.8240 C   0  0  0  0  0  2  0  0  0  0  0  0
  -29.9180  -14.0850   20.1890 N   0  0  0  0  0  0  0  0  0  0  0  0
  -31.6980  -15.3810   19.9620 O   0  0  0  0  0  0  0  0  0  0  0  0
  -29.7480  -16.6920   20.3770 N   0  0  0  0  0  4  0  0  0  0  0  0
  -28.7890  -16.5120   20.6430 H   0  0  0  0  0  0  0  0  0  0  0  0
  -25.2700  -13.9730   20.4750 C   0  0  0  0  0  0  0  0  0  0  0  0
  -24.2130  -13.1920   20.8480 C   0  0  0  0  0  0  0  0  0  0  0  0
  -24.6850  -11.8440   20.8130 C   0  0  0  0  0  0  0  0  0  0  0  0
  -26.3150  -13.1040   20.2250 N   0  0  0  0  0  0  0  0  0  0  0  0
  -25.9760  -11.8150   20.4960 N   0  0  0  0  0  0  0  0  0  0  0  0
  -23.9630  -10.5790   21.0040 C   0  0  0  0  0  0  0  0  0  0  0  0
  -24.3880   -9.6170   21.9470 C   0  0  0  0  0  3  0  0  0  0  0  0
  -23.6620   -8.4200   22.1270 C   0  0  0  0  0  3  0  0  0  0  0  0
  -22.4950   -8.1750   21.3640 C   0  0  0  0  0  0  0  0  0  0  0  0
  -22.0900   -9.1250   20.4100 C   0  0  0  0  0  3  0  0  0  0  0  0
  -22.8160  -10.3130   20.2280 C   0  0  0  0  0  3  0  0  0  0  0  0
  -21.7410   -7.0310   21.4530 O   0  0  0  0  0  0  0  0  0  0  0  0
  -21.6710   -6.3020   22.6130 C   0  0  0  0  0  0  0  0  0  0  0  0
  -21.1990   -6.8660   23.8180 C   0  0  0  0  0  3  0  0  0  0  0  0
  -21.0780   -6.0650   24.9700 C   0  0  0  0  0  3  0  0  0  0  0  0
  -21.4200   -4.7000   24.9180 C   0  0  0  0  0  0  0  0  0  0  0  0
  -21.8840   -4.1350   23.7170 C   0  0  0  0  0  3  0  0  0  0  0  0
  -22.0070   -4.9350   22.5670 C   0  0  0  0  0  0  0  0  0  0  0  0
  -22.4360   -4.3800   21.4080 F   0  0  0  0  0  0  0  0  0  0  0  0
  -21.2960   -3.9270   26.0230 F   0  0  0  0  0  0  0  0  0  0  0  0
  -22.8150  -13.6640   21.1190 C   0  0  0  0  0  0  0  0  0  0  0  0
  -22.0910  -12.9670   21.9870 N   0  0  0  0  0  0  0  0  0  0  0  0
  -22.3760  -14.6890   20.5990 O   0  0  0  0  0  0  0  0  0  0  0  0
  -22.4600  -12.1370   22.4270 H   0  0  0  0  0  0  0  0  0  0  0  0
  -21.1540  -13.2660   22.2130 H   0  0  0  0  0  0  0  0  0  0  0  0
  -25.4240  -15.3470   20.2990 N   0  0  0  0  0  0  0  0  0  0  0  0
  -24.6510  -15.9920   20.4140 H   0  0  0  0  0  0  0  0  0  0  0  0
  -26.2580  -15.7890   19.9360 H   0  0  0  0  0  0  0  0  0  0  0  0
  2  4  1  0
  3  5  2  0
  4 49  1  0
  4  1  2  0
  5  8  1  0
  5  1  1  0
  6  2  2  0
  6  3  1  0
  7  6  1  0
  9 20  2  0
 10  8  1  0
 10 15  1  0
 11 19  1  0
 11 21  1  0
 12 18  1  0
 12 14  1  0
 13 19  1  0
 14 15  2  0
 14 13  1  0
 16 10  2  0
 17 16  1  0
 17 12  2  0
 18 11  1  0
 19  9  1  0
 21 23  2  0
 22 21  1  0
 24 22  1  0
 25 34  2  0
 25 30  1  0
 26 22  1  0
 26 30  1  0
 27 26  1  0
 28 29  1  0
 28 27  1  0
 29 25  1  0
 30 31  2  0
 31 32  1  0
 33 32  2  0
 34 33  1  0
 35  9  1  0
 35 36  1  0
 35 45  1  0
 36 39  1  0
 37 41  1  0
 37 36  1  0
 38 37  2  0
 41 40  1  0
 43 41  1  0
 43 44  1  0
 43 42  1  0
 45 48  1  1
 45 46  1  0
 47 45  1  0
 50 51  1  0
 51 60  2  0
 51 49  1  0
 52 60  1  0
 53 58  1  0
 54 55  1  0
 54 53  1  0
 56 55  1  0
 56 65  1  0
 56 57  1  0
 58 52  1  0
 58 57  1  0
 59 52  2  0
 60 61  1  0
 62 63  2  0
 63 82  1  0
 64 63  1  0
 64 67  1  0
 65 62  1  0
 65 66  1  0
 66 64  2  0
 67 68  1  0
 68 69  2  0
 70 73  1  0
 70 69  1  0
 71 70  2  0
 72 71  1  0
 72 67  2  0
 73 74  1  0
 74 75  1  0
 75 76  2  0
 77 76  1  0
 77 81  1  0
 78 77  2  0
 79 74  2  0
 79 78  1  0
 80 79  1  0
 82 83  1  0
 83 86  1  0
 83 85  1  0
 84 82  2  0
 87 88  1  0
 87 62  1  0
 89 87  1  0
M  ISO  4   5 101   8 101  52 100  60 100
M  END
>  <TORSDO>  (46) 
F 18

>  <SCORE>  (46) 
-15.517

>  <name>  (46) 
45

>  <ligand_id>  (46) 
45

>  <original_smiles>  (46) 
[H]c1c([H])c([H])c2c(c1[H])C([H])([H])C([H])([H])C([H])([H])C2([H])N([H])C(=O)C1([H])N(C(=O)C([H])(N([H])C(=O)C([H])(N([H])C([H])([H])[H])C([H])([H])[H])C(C([H])([H])[H])(C([H])([H])[H])C([H])([H])[H])C([H])([H])c2c([H])c(Oc3c([H])c(F)c([H])c(C([H])([H])C([H])(N([H])C(=O)N4C([H])([H])C([H])([H])C([H])([H])C([H])(n5nc(-c6c([H])c([H])c(Oc7c([H])c([H])c(F)c([H])c7F)c([H])c6[H])c(C(=O)N([H])[H])c5N([H])[H])C4([H])[H])C([H])([H])[H])c3[H])c([H])c([H])c2C1([H])[H]

>  <smiles>  (46) 
[H]c1c([H])c([H])c2c(c1[H])C([H])([H])C([H])([H])C([H])([H])C2([H])N([H])C(=O)C1([H])N(C(=O)C([H])(N([H])C(=O)C([H])(N([H])C([H])([H])[H])C([H])([H])[H])C(C([H])([H])[H])(C([H])([H])[H])C([H])([H])[H])C([H])([H])c2c([H])c(Oc3c([H])c(F)c([H])c(C([H])([H])C([H])(N([H])C(=O)N4C([H])([H])C([H])([H])C([H])([H])C([H])(n5nc(-c6c([H])c([H])c(Oc7c([H])c([H])c(F)c([H])c7F)c([H])c6[H])c(C(=O)N([H])[H])c5N([H])[H])C4([H])[H])C([H])([H])[H])c3[H])c([H])c([H])c2C1([H])[H]

$$$$
46:0:0
     RDKit          3D

 90 99  0  0  1  0  0  0  0  0999 V2000
  -28.2140  -21.2970   19.3960 C   0  0  0  0  0  3  0  0  0  0  0  0
  -28.7600  -20.9330   20.6670 C   0  0  0  0  0  3  0  0  0  0  0  0
  -27.8660  -22.6780   19.1390 C   0  0  0  0  0  3  0  0  0  0  0  0
  -28.9610  -22.4210   20.9630 C   0  0  0  0  0  3  0  0  0  0  0  0
  -28.5790  -19.8930   18.7800 C   0  0  0  0  0  2  0  0  0  0  0  0
  -29.4550  -19.2680   20.0470 C   0  0  0  0  0  3  0  0  0  0  0  0
  -28.2020  -23.6150   20.2240 N   0  0  0  0  0  0  0  0  0  0  0  0
  -30.1410  -15.9700   20.1440 C   0  0  0  0  0  0  0  0  0  0  0  0
  -30.2940  -13.3690   19.3180 C   0  0  0  0  0  2  0  0  0  0  0  0
  -29.4050  -12.8440   18.1500 C   0  0  0  0  0  2  0  0  0  0  0  0
  -28.0180  -12.4380   18.6550 C   0  0  0  0  0  2  0  0  0  0  0  0
  -27.4920  -13.4450   19.7000 C   0  0  0  0  0  3  0  0  0  0  0  0
  -28.5310  -13.8600   20.7720 C   0  0  0  0  0  2  0  0  0  0  0  0
  -29.6390  -14.5640   20.0670 N   0  0  0  0  0  0  0  0  0  0  0  0
  -31.3740  -15.8610   19.9610 O   0  0  0  0  0  0  0  0  0  0  0  0
  -29.3910  -17.4040   20.2320 N   0  0  0  0  0  0  0  0  0  0  0  0
  -28.4190  -17.1610   20.3670 H   0  0  0  0  0  0  0  0  0  0  0  0
  -25.1480  -13.9240   20.5300 C   0  0  0  0  0  0  0  0  0  0  0  0
  -24.1040  -13.1240   20.8990 C   0  0  0  0  0  0  0  0  0  0  0  0
  -24.5890  -11.7800   20.8400 C   0  0  0  0  0  0  0  0  0  0  0  0
  -26.1980  -13.0710   20.2490 N   0  0  0  0  0  0  0  0  0  0  0  0
  -25.8770  -11.7730   20.5000 N   0  0  0  0  0  0  0  0  0  0  0  0
  -23.8750  -10.5100   21.0240 C   0  0  0  0  0  0  0  0  0  0  0  0
  -24.3120   -9.5410   21.9530 C   0  0  0  0  0  3  0  0  0  0  0  0
  -23.5900   -8.3400   22.1330 C   0  0  0  0  0  3  0  0  0  0  0  0
  -22.4150   -8.0990   21.3820 C   0  0  0  0  0  0  0  0  0  0  0  0
  -21.9930   -9.0580   20.4450 C   0  0  0  0  0  3  0  0  0  0  0  0
  -22.7150  -10.2500   20.2640 C   0  0  0  0  0  3  0  0  0  0  0  0
  -21.6640   -6.9500   21.4700 O   0  0  0  0  0  0  0  0  0  0  0  0
  -21.6070   -6.2150   22.6270 C   0  0  0  0  0  0  0  0  0  0  0  0
  -21.1230   -6.7640   23.8350 C   0  0  0  0  0  3  0  0  0  0  0  0
  -21.0170   -5.9560   24.9840 C   0  0  0  0  0  3  0  0  0  0  0  0
  -21.3820   -4.5970   24.9250 C   0  0  0  0  0  0  0  0  0  0  0  0
  -21.8590   -4.0470   23.7220 C   0  0  0  0  0  3  0  0  0  0  0  0
  -21.9660   -4.8540   22.5750 C   0  0  0  0  0  0  0  0  0  0  0  0
  -22.4050   -4.3140   21.4120 F   0  0  0  0  0  0  0  0  0  0  0  0
  -21.2740   -3.8150   26.0250 F   0  0  0  0  0  0  0  0  0  0  0  0
  -22.7100  -13.5850   21.1990 C   0  0  0  0  0  0  0  0  0  0  0  0
  -22.0080  -12.8750   22.0740 N   0  0  0  0  0  0  0  0  0  0  0  0
  -22.2510  -14.6070   20.6880 O   0  0  0  0  0  0  0  0  0  0  0  0
  -22.3890  -12.0430   22.4990 H   0  0  0  0  0  0  0  0  0  0  0  0
  -21.0740  -13.1650   22.3210 H   0  0  0  0  0  0  0  0  0  0  0  0
  -25.2940  -15.2990   20.3750 N   0  0  0  0  0  0  0  0  0  0  0  0
  -24.5350  -15.9490   20.5490 H   0  0  0  0  0  0  0  0  0  0  0  0
  -26.1430  -15.7540   20.0730 H   0  0  0  0  0  0  0  0  0  0  0  0
  -27.3750  -23.1910   17.9760 O   0  0  0  0  0  0  0  0  0  0  0  0
  -27.3570  -22.4870   17.3360 H   0  0  0  0  0  0  0  0  0  0  0  0
  -29.7980  -22.8390   21.9530 O   0  0  0  0  0  0  0  0  0  0  0  0
  -29.8080  -23.7900   21.9460 H   0  0  0  0  0  0  0  0  0  0  0  0
  -28.1920  -25.3810   20.3080 O   0  0  0  0  0  0  0  0  0  0  0  0
  -24.6290  -31.8570   23.2210 C   0  0  0  0  0  0  0  0  0  0  0  0
  -27.1570  -26.6050   20.3040 C   0  0  0  0  0  0  0  0  0  0  0  0
  -23.4450  -30.4460   21.5920 C   0  0  0  0  0  3  0  0  0  0  0  0
  -24.8950  -28.7390   20.2200 C   0  0  0  0  0  0  0  0  0  0  0  0
  -26.0320  -30.5300   21.5000 C   0  0  0  0  0  2  0  0  0  0  0  0
  -26.0900  -29.0730   20.8610 C   0  0  0  0  0  0  0  0  0  0  0  0
  -27.1910  -28.0370   20.8720 C   0  0  0  0  0  3  0  0  0  0  0  0
  -25.9180  -26.5220   19.5990 C   0  0  0  0  0  3  0  0  0  0  0  0
  -24.8540  -27.4910   19.5680 C   0  0  0  0  0  3  0  0  0  0  0  0
  -23.6940  -29.7100   20.2410 C   0  0  0  0  0  2  0  0  0  0  0  0
  -24.7260  -30.9810   22.1540 N   0  0  0  0  0  0  0  0  0  0  0  0
  -23.5310  -32.1760   23.7160 O   0  0  0  0  0  0  0  0  0  0  0  0
  -22.7090  -29.4980   22.5760 C   0  0  0  0  0  0  0  0  0  0  0  0
  -21.3750  -29.3550   22.4490 N   0  0  0  0  0  0  0  0  0  0  0  0
  -23.3560  -28.8870   23.4290 O   0  0  0  0  0  0  0  0  0  0  0  0
  -20.9040  -29.8920   21.7370 H   0  0  0  0  0  0  0  0  0  0  0  0
  -17.9850  -28.1640   22.9870 C   0  0  0  0  0  0  0  0  0  0  0  0
  -20.5450  -28.4320   23.2320 C   0  0  0  0  0  3  0  0  0  0  0  0
  -20.6410  -26.9920   22.6810 C   0  0  0  0  0  2  0  0  0  0  0  0
  -19.5370  -26.6580   21.6720 C   0  0  0  0  0  2  0  0  0  0  0  0
  -18.1580  -26.8080   22.3190 C   0  0  0  0  0  2  0  0  0  0  0  0
  -19.1070  -28.9290   23.4000 C   0  0  0  0  0  0  0  0  0  0  0  0
  -18.8910  -30.1900   23.9940 C   0  0  0  0  0  3  0  0  0  0  0  0
  -17.5880  -30.6880   24.1730 C   0  0  0  0  0  3  0  0  0  0  0  0
  -16.4820  -29.9220   23.7720 C   0  0  0  0  0  3  0  0  0  0  0  0
  -16.6790  -28.6610   23.1830 C   0  0  0  0  0  3  0  0  0  0  0  0
  -25.8880  -32.5230   23.8600 C   0  0  0  0  0  3  0  0  0  0  0  0
  -25.5670  -33.9330   24.1710 N   0  0  0  0  0  0  0  0  0  0  0  0
  -25.9040  -34.9900   23.4220 C   0  0  0  0  0  0  0  0  0  0  0  0
  -26.5700  -34.8840   22.3910 O   0  0  0  0  0  0  0  0  0  0  0  0
  -24.9650  -34.0830   24.9690 H   0  0  0  0  0  0  0  0  0  0  0  0
  -24.1810  -36.8000   23.0880 C   0  0  0  0  0  1  0  0  0  0  0  0
  -25.4300  -36.3840   23.8820 C   0  0  0  0  0  3  0  0  0  0  0  0
  -27.5680  -37.2770   24.7010 C   0  0  0  0  0  1  0  0  0  0  0  0
  -26.4660  -37.4330   23.7570 N   0  0  0  0  0  0  0  0  0  0  0  0
  -26.0600  -38.3540   23.8950 H   0  0  0  0  0  0  0  0  0  0  0  0
  -26.3700  -31.7870   25.1740 C   0  0  1  0  0  0  0  0  0  0  0  0
  -25.2480  -31.5930   26.2210 C   0  0  0  0  0  1  0  0  0  0  0  0
  -26.9570  -30.3930   24.8610 C   0  0  0  0  0  1  0  0  0  0  0  0
  -27.5020  -32.5990   25.8440 C   0  0  0  0  0  1  0  0  0  0  0  0
  1  5  1  0
  1  2  1  0
  2  4  1  0
  3  1  1  0
  3  7  1  0
  4 48  1  0
  5  6  1  0
  6 16  1  0
  6  2  1  0
  7 50  1  0
  7  4  1  0
  8 16  1  0
  9 14  1  0
 10 11  1  0
 10  9  1  0
 11 12  1  0
 12 21  1  0
 12 13  1  0
 14  8  1  0
 14 13  1  0
 15  8  2  0
 16 17  1  0
 18 19  2  0
 19 38  1  0
 20 19  1  0
 20 23  1  0
 21 22  1  0
 21 18  1  0
 22 20  2  0
 23 24  1  0
 24 25  2  0
 26 29  1  0
 26 25  1  0
 27 26  2  0
 28 27  1  0
 28 23  2  0
 29 30  1  0
 30 31  1  0
 31 32  2  0
 33 32  1  0
 33 37  1  0
 34 33  2  0
 35 30  2  0
 35 34  1  0
 36 35  1  0
 38 39  1  0
 39 42  1  0
 39 41  1  0
 40 38  2  0
 43 18  1  0
 43 44  1  0
 45 43  1  0
 46  3  1  0
 47 46  1  0
 49 48  1  0
 51 62  2  0
 51 77  1  0
 52 50  1  0
 52 57  1  0
 53 61  1  0
 53 63  1  0
 54 60  1  0
 54 56  1  0
 55 61  1  0
 56 57  2  0
 56 55  1  0
 58 52  2  0
 59 58  1  0
 59 54  2  0
 60 53  1  0
 61 51  1  0
 63 65  2  0
 64 63  1  0
 64 68  1  0
 66 64  1  0
 67 76  2  0
 67 72  1  0
 68 72  1  0
 69 68  1  0
 70 71  1  0
 70 69  1  0
 71 67  1  0
 72 73  2  0
 73 74  1  0
 75 74  2  0
 76 75  1  0
 77 78  1  0
 77 87  1  0
 78 81  1  0
 79 83  1  0
 79 78  1  0
 80 79  2  0
 82 83  1  0
 85 83  1  0
 85 86  1  0
 85 84  1  0
 87 90  1  1
 87 88  1  0
 89 87  1  0
M  ISO  4   7 101   8 100  16 100  50 101
M  END
>  <TORSDO>  (47) 
F 18

>  <SCORE>  (47) 
-16.150

>  <name>  (47) 
46

>  <ligand_id>  (47) 
46

>  <original_smiles>  (47) 
[H]Oc1c2c(c(O[H])n1Oc1c([H])c([H])c3c(c1[H])C([H])([H])N(C(=O)C([H])(N([H])C(=O)C([H])(N([H])C([H])([H])[H])C([H])([H])[H])C(C([H])([H])[H])(C([H])([H])[H])C([H])([H])[H])C([H])(C(=O)N([H])C1([H])c4c([H])c([H])c([H])c([H])c4C([H])([H])C([H])([H])C1([H])[H])C3([H])[H])C([H])(N([H])C(=O)N1C([H])([H])C([H])([H])C([H])([H])C([H])(n3nc(-c4c([H])c([H])c(Oc5c([H])c([H])c(F)c([H])c5F)c([H])c4[H])c(C(=O)N([H])[H])c3N([H])[H])C1([H])[H])C2([H])[H]

>  <smiles>  (47) 
[H]Oc1c2c(c(O[H])n1Oc1c([H])c([H])c3c(c1[H])C([H])([H])N(C(=O)C([H])(N([H])C(=O)C([H])(N([H])C([H])([H])[H])C([H])([H])[H])C(C([H])([H])[H])(C([H])([H])[H])C([H])([H])[H])C([H])(C(=O)N([H])C1([H])c4c([H])c([H])c([H])c([H])c4C([H])([H])C([H])([H])C1([H])[H])C3([H])[H])C([H])(N([H])C(=O)N1C([H])([H])C([H])([H])C([H])([H])C([H])(n3nc(-c4c([H])c([H])c(Oc5c([H])c([H])c(F)c([H])c5F)c([H])c4[H])c(C(=O)N([H])[H])c3N([H])[H])C1([H])[H])C2([H])[H]

$$$$
47:0:0
     RDKit          3D

 87 93  0  0  1  0  0  0  0  0999 V2000
  -28.2980  -22.0540   21.2730 C   0  0  0  0  0  2  0  0  0  0  0  0
  -29.4680  -19.1290   21.2540 C   0  0  0  0  0  2  0  0  0  0  0  0
  -28.4100  -20.3510   20.8660 C   0  0  0  0  0  3  0  0  0  0  0  0
  -28.8380  -19.9950   19.4390 C   0  0  0  0  0  2  0  0  0  0  0  0
  -28.1930  -23.2820   20.0950 C   0  0  0  0  0  2  0  0  0  0  0  0
  -29.2080  -18.1010   20.0150 C   0  0  0  0  0  2  0  0  0  0  0  0
  -29.1290  -21.8640   19.2610 C   0  0  2  0  0  0  0  0  0  0  0  0
  -27.8250  -17.4430   20.0610 C   0  0  0  0  0  1  0  0  0  0  0  0
  -28.8830  -22.1440   17.7700 C   0  0  0  0  0  1  0  0  0  0  0  0
  -30.6360  -22.1100   19.5030 C   0  0  0  0  0  1  0  0  0  0  0  0
  -30.1240  -16.2820   19.7460 C   0  0  0  0  0  2  0  0  0  0  0  0
  -30.3970  -13.6200   18.9380 C   0  0  0  0  0  2  0  0  0  0  0  0
  -29.4760  -13.0160   17.8190 C   0  0  0  0  0  2  0  0  0  0  0  0
  -28.1350  -12.5270   18.3830 C   0  0  0  0  0  2  0  0  0  0  0  0
  -27.6170  -13.5230   19.4360 C   0  0  0  0  0  3  0  0  0  0  0  0
  -28.6900  -14.0080   20.4520 C   0  0  0  0  0  2  0  0  0  0  0  0
  -29.7380  -14.8050   19.7250 N   0  0  0  0  0  0  0  0  0  0  0  0
  -31.3430  -16.1960   19.4530 O   0  0  0  0  0  1  0  0  0  0  0  0
  -25.3310  -13.9480   20.4370 C   0  0  0  0  0  0  0  0  0  0  0  0
  -24.3200  -13.1350   20.8560 C   0  0  0  0  0  0  0  0  0  0  0  0
  -24.8040  -11.7970   20.7180 C   0  0  0  0  0  0  0  0  0  0  0  0
  -26.3650  -13.1140   20.0610 N   0  0  0  0  0  0  0  0  0  0  0  0
  -26.0680  -11.8050   20.2910 N   0  0  0  0  0  0  0  0  0  0  0  0
  -24.1050  -10.5190   20.9130 C   0  0  0  0  0  0  0  0  0  0  0  0
  -24.5640   -9.5550   21.8360 C   0  0  0  0  0  3  0  0  0  0  0  0
  -23.8560   -8.3480   22.0240 C   0  0  0  0  0  3  0  0  0  0  0  0
  -22.6730   -8.0960   21.2880 C   0  0  0  0  0  0  0  0  0  0  0  0
  -22.2310   -9.0490   20.3550 C   0  0  0  0  0  3  0  0  0  0  0  0
  -22.9410  -10.2480   20.1660 C   0  0  0  0  0  3  0  0  0  0  0  0
  -21.9350   -6.9400   21.3850 O   0  0  0  0  0  0  0  0  0  0  0  0
  -21.8410   -6.2410   22.5620 C   0  0  0  0  0  0  0  0  0  0  0  0
  -21.3210   -6.8280   23.7360 C   0  0  0  0  0  3  0  0  0  0  0  0
  -21.1770   -6.0550   24.9050 C   0  0  0  0  0  3  0  0  0  0  0  0
  -21.5440   -4.6960   24.9010 C   0  0  0  0  0  0  0  0  0  0  0  0
  -22.0560   -4.1080   23.7310 C   0  0  0  0  0  3  0  0  0  0  0  0
  -22.2010   -4.8790   22.5640 C   0  0  0  0  0  0  0  0  0  0  0  0
  -22.6760   -4.3020   21.4340 F   0  0  0  0  0  0  0  0  0  0  0  0
  -21.3980   -3.9510   26.0220 F   0  0  0  0  0  0  0  0  0  0  0  0
  -22.9470  -13.5820   21.2610 C   0  0  0  0  0  0  0  0  0  0  0  0
  -22.3040  -12.8450   22.1580 N   0  0  0  0  0  0  0  0  0  0  0  0
  -22.4600  -14.6230   20.8220 O   0  0  0  0  0  0  0  0  0  0  0  0
  -22.7150  -12.0030   22.5350 H   0  0  0  0  0  0  0  0  0  0  0  0
  -21.3860  -13.1250   22.4740 H   0  0  0  0  0  0  0  0  0  0  0  0
  -25.4430  -15.3260   20.3100 N   0  0  0  0  0  0  0  0  0  0  0  0
  -24.6730  -15.9470   20.5340 H   0  0  0  0  0  0  0  0  0  0  0  0
  -26.2520  -15.8090   19.9460 H   0  0  0  0  0  0  0  0  0  0  0  0
  -28.1820  -25.2070   20.2520 O   0  0  0  0  0  1  0  0  0  0  0  0
  -24.7420  -31.8740   23.2410 C   0  0  0  0  0  0  0  0  0  0  0  0
  -27.2290  -26.5480   20.2360 C   0  0  0  0  0  0  0  0  0  0  0  0
  -23.5540  -30.4830   21.6020 C   0  0  0  0  0  3  0  0  0  0  0  0
  -24.9920  -28.7790   20.1940 C   0  0  0  0  0  0  0  0  0  0  0  0
  -26.1450  -30.5330   21.5030 C   0  0  0  0  0  2  0  0  0  0  0  0
  -26.1990  -29.0710   20.8400 C   0  0  0  0  0  0  0  0  0  0  0  0
  -27.2840  -27.9960   20.8180 C   0  0  0  0  0  3  0  0  0  0  0  0
  -25.9820  -26.5450   19.5330 C   0  0  0  0  0  3  0  0  0  0  0  0
  -24.9410  -27.5450   19.5140 C   0  0  0  0  0  3  0  0  0  0  0  0
  -23.8020  -29.7690   20.2370 C   0  0  0  0  0  2  0  0  0  0  0  0
  -24.8420  -31.0040   22.1670 N   0  0  0  0  0  0  0  0  0  0  0  0
  -23.6460  -32.1860   23.7420 O   0  0  0  0  0  0  0  0  0  0  0  0
  -22.8100  -29.5300   22.5790 C   0  0  0  0  0  0  0  0  0  0  0  0
  -21.4760  -29.3800   22.4470 N   0  0  0  0  0  0  0  0  0  0  0  0
  -23.4520  -28.9160   23.4350 O   0  0  0  0  0  0  0  0  0  0  0  0
  -21.0020  -29.9250   21.7390 H   0  0  0  0  0  0  0  0  0  0  0  0
  -18.0920  -28.1250   22.9320 C   0  0  0  0  0  0  0  0  0  0  0  0
  -20.6460  -28.4420   23.2170 C   0  0  0  0  0  3  0  0  0  0  0  0
  -20.7750  -27.0030   22.6620 C   0  0  0  0  0  2  0  0  0  0  0  0
  -19.6920  -26.6540   21.6370 C   0  0  0  0  0  2  0  0  0  0  0  0
  -18.3000  -26.7770   22.2620 C   0  0  0  0  0  2  0  0  0  0  0  0
  -19.1930  -28.9140   23.3660 C   0  0  0  0  0  0  0  0  0  0  0  0
  -18.9390  -30.1680   23.9610 C   0  0  0  0  0  3  0  0  0  0  0  0
  -17.6220  -30.6380   24.1200 C   0  0  0  0  0  3  0  0  0  0  0  0
  -16.5370  -29.8500   23.6970 C   0  0  0  0  0  3  0  0  0  0  0  0
  -16.7730  -28.5940   23.1100 C   0  0  0  0  0  3  0  0  0  0  0  0
  -25.9970  -32.5320   23.8930 C   0  0  0  0  0  3  0  0  0  0  0  0
  -25.6790  -33.9420   24.2130 N   0  0  0  0  0  0  0  0  0  0  0  0
  -26.0060  -35.0040   23.4640 C   0  0  0  0  0  0  0  0  0  0  0  0
  -26.6570  -34.9000   22.4220 O   0  0  0  0  0  0  0  0  0  0  0  0
  -25.1000  -34.0940   25.0250 H   0  0  0  0  0  0  0  0  0  0  0  0
  -24.2720  -36.8140   23.1830 C   0  0  0  0  0  1  0  0  0  0  0  0
  -25.5450  -36.3990   23.9390 C   0  0  0  0  0  3  0  0  0  0  0  0
  -27.7080  -37.2990   24.6820 C   0  0  0  0  0  1  0  0  0  0  0  0
  -26.5730  -37.4530   23.7760 N   0  0  0  0  0  0  0  0  0  0  0  0
  -26.1710  -38.3740   23.9240 H   0  0  0  0  0  0  0  0  0  0  0  0
  -26.4650  -31.7910   25.2080 C   0  0  1  0  0  0  0  0  0  0  0  0
  -25.3390  -31.5980   26.2520 C   0  0  0  0  0  1  0  0  0  0  0  0
  -27.0430  -30.3960   24.8870 C   0  0  0  0  0  1  0  0  0  0  0  0
  -27.6070  -32.5900   25.8820 C   0  0  0  0  0  1  0  0  0  0  0  0
  3  2  1  0
  3  1  1  0
  4  3  1  0
  5  1  1  0
  6  8  1  0
  6  2  1  0
  7  4  1  0
  7 10  1  6
  7  5  1  0
  9  7  1  0
 12 17  1  0
 13 14  1  0
 13 12  1  0
 15 14  1  0
 15 22  1  0
 15 16  1  0
 17 11  1  0
 17 16  1  0
 18 11  1  0
 19 20  2  0
 20 39  1  0
 21 20  1  0
 21 24  1  0
 22 23  1  0
 22 19  1  0
 23 21  2  0
 24 25  1  0
 25 26  2  0
 27 30  1  0
 27 26  1  0
 28 27  2  0
 29 28  1  0
 29 24  2  0
 30 31  1  0
 31 36  2  0
 31 32  1  0
 32 33  2  0
 34 33  1  0
 34 38  1  0
 35 34  2  0
 36 35  1  0
 37 36  1  0
 39 40  1  0
 40 43  1  0
 40 42  1  0
 41 39  2  0
 44 19  1  0
 44 45  1  0
 46 44  1  0
 48 59  2  0
 49 47  1  0
 49 54  1  0
 50 58  1  0
 50 60  1  0
 51 57  1  0
 51 53  1  0
 52 58  1  0
 53 52  1  0
 54 53  2  0
 55 49  2  0
 56 55  1  0
 56 51  2  0
 57 50  1  0
 58 48  1  0
 60 62  2  0
 61 60  1  0
 63 61  1  0
 64 73  2  0
 64 69  1  0
 65 61  1  0
 65 69  1  0
 66 65  1  0
 67 68  1  0
 67 66  1  0
 68 64  1  0
 69 70  2  0
 70 71  1  0
 72 71  2  0
 73 72  1  0
 74 48  1  0
 74 75  1  0
 74 84  1  0
 75 78  1  0
 76 80  1  0
 76 75  1  0
 77 76  2  0
 80 79  1  0
 82 83  1  0
 82 80  1  0
 82 81  1  0
 84 87  1  1
 84 85  1  0
 86 84  1  0
M  ISO  4   5 101   6 100  11 100  47 101
M  END
>  <TORSDO>  (48) 
F 16

>  <SCORE>  (48) 
-16.097

>  <name>  (48) 
47

>  <ligand_id>  (48) 
47

>  <original_smiles>  (48) 
[H]c1c([H])c([H])c2c(c1[H])C([H])([H])C([H])([H])C([H])([H])C2([H])N([H])C(=O)C1([H])N(C(=O)C([H])(N([H])C(=O)C([H])(N([H])C([H])([H])[H])C([H])([H])[H])C(C([H])([H])[H])(C([H])([H])[H])C([H])([H])[H])C([H])([H])c2c([H])c(OC3([H])C([H])([H])C4([H])C([H])([H])C(C(=O)N5C([H])([H])C([H])([H])C([H])([H])C([H])(n6nc(-c7c([H])c([H])c(Oc8c([H])c([H])c(F)c([H])c8F)c([H])c7[H])c(C(=O)N([H])[H])c6N([H])[H])C5([H])[H])(C([H])([H])[H])C4([H])C3(C([H])([H])[H])C([H])([H])[H])c([H])c([H])c2C1([H])[H]

>  <smiles>  (48) 
[H]c1c([H])c([H])c2c(c1[H])C([H])([H])C([H])([H])C([H])([H])C2([H])N([H])C(=O)C1([H])N(C(=O)C([H])(N([H])C(=O)C([H])(N([H])C([H])([H])[H])C([H])([H])[H])C(C([H])([H])[H])(C([H])([H])[H])C([H])([H])[H])C([H])([H])c2c([H])c(OC3([H])C([H])([H])C4([H])C([H])([H])C(C(=O)N5C([H])([H])C([H])([H])C([H])([H])C([H])(n6nc(-c7c([H])c([H])c(Oc8c([H])c([H])c(F)c([H])c8F)c([H])c7[H])c(C(=O)N([H])[H])c6N([H])[H])C5([H])[H])(C([H])([H])[H])C4([H])C3(C([H])([H])[H])C([H])([H])[H])c([H])c([H])c2C1([H])[H]

$$$$
48:0:0
     RDKit          3D

 92101  0  0  1  0  0  0  0  0999 V2000
  -30.1550  -21.2260   22.7470 C   0  0  0  0  0  3  0  0  0  0  0  0
  -29.8160  -22.3100   21.9070 C   0  0  0  0  0  3  0  0  0  0  0  0
  -29.9760  -20.8290   19.9820 C   0  0  0  0  0  3  0  0  0  0  0  0
  -30.3990  -19.9350   22.2150 C   0  0  0  0  0  0  0  0  0  0  0  0
  -30.2750  -19.7130   20.8190 C   0  0  0  0  0  0  0  0  0  0  0  0
  -29.7480  -22.1360   20.5080 C   0  0  0  0  0  0  0  0  0  0  0  0
  -30.8020  -18.8030   23.1570 C   0  0  0  0  0  2  0  0  0  0  0  0
  -30.4020  -18.2890   20.2200 C   0  0  0  0  0  2  0  0  0  0  0  0
  -30.5890  -17.3870   22.5860 C   0  0  0  0  0  2  0  0  0  0  0  0
  -31.0560  -17.1900   21.1220 C   0  0  0  0  0  3  0  0  0  0  0  0
  -31.4210  -14.8180   20.0650 C   0  0  0  0  0  0  0  0  0  0  0  0
  -31.1410  -12.5880   18.9730 C   0  0  0  0  0  2  0  0  0  0  0  0
  -30.1580  -12.7040   17.7870 C   0  0  0  0  0  2  0  0  0  0  0  0
  -28.6920  -12.5930   18.2530 C   0  0  0  0  0  2  0  0  0  0  0  0
  -28.3940  -13.4860   19.4820 C   0  0  0  0  0  3  0  0  0  0  0  0
  -29.4730  -13.2940   20.5690 C   0  0  0  0  0  2  0  0  0  0  0  0
  -30.7750  -13.6160   19.9640 N   0  0  0  0  0  0  0  0  0  0  0  0
  -32.5100  -15.0280   19.5230 O   0  0  0  0  0  0  0  0  0  0  0  0
  -30.7300  -15.7870   20.7270 N   0  0  0  0  0  0  0  0  0  0  0  0
  -29.8460  -15.4640   21.0850 H   0  0  0  0  0  0  0  0  0  0  0  0
  -26.0540  -14.1780   20.2980 C   0  0  0  0  0  0  0  0  0  0  0  0
  -24.9710  -13.4470   20.6910 C   0  0  0  0  0  0  0  0  0  0  0  0
  -25.3700  -12.0760   20.6140 C   0  0  0  0  0  0  0  0  0  0  0  0
  -27.0500  -13.2580   20.0060 N   0  0  0  0  0  0  0  0  0  0  0  0
  -26.6450  -11.9860   20.2550 N   0  0  0  0  0  0  0  0  0  0  0  0
  -24.5970  -10.8460   20.8120 C   0  0  0  0  0  0  0  0  0  0  0  0
  -24.9480   -9.9070   21.8070 C   0  0  0  0  0  3  0  0  0  0  0  0
  -24.1800   -8.7380   21.9890 C   0  0  0  0  0  3  0  0  0  0  0  0
  -23.0470   -8.5000   21.1740 C   0  0  0  0  0  0  0  0  0  0  0  0
  -22.7140   -9.4290   20.1690 C   0  0  0  0  0  3  0  0  0  0  0  0
  -23.4840  -10.5890   19.9860 C   0  0  0  0  0  3  0  0  0  0  0  0
  -22.2470   -7.3870   21.2690 O   0  0  0  0  0  0  0  0  0  0  0  0
  -21.9660   -6.8010   22.4770 C   0  0  0  0  0  0  0  0  0  0  0  0
  -21.3280   -7.5100   23.5180 C   0  0  0  0  0  3  0  0  0  0  0  0
  -20.9940   -6.8500   24.7160 C   0  0  0  0  0  3  0  0  0  0  0  0
  -21.2900   -5.4830   24.8730 C   0  0  0  0  0  0  0  0  0  0  0  0
  -21.9220   -4.7750   23.8360 C   0  0  0  0  0  3  0  0  0  0  0  0
  -22.2570   -5.4310   22.6390 C   0  0  0  0  0  0  0  0  0  0  0  0
  -22.8460   -4.7380   21.6340 F   0  0  0  0  0  0  0  0  0  0  0  0
  -20.9610   -4.8460   26.0200 F   0  0  0  0  0  0  0  0  0  0  0  0
  -23.6070  -13.9780   21.0310 C   0  0  0  0  0  0  0  0  0  0  0  0
  -22.8950  -13.3110   21.9280 N   0  0  0  0  0  0  0  0  0  0  0  0
  -23.1860  -15.0200   20.5290 O   0  0  0  0  0  0  0  0  0  0  0  0
  -23.2440  -12.4650   22.3530 H   0  0  0  0  0  0  0  0  0  0  0  0
  -21.9800  -13.6500   22.1890 H   0  0  0  0  0  0  0  0  0  0  0  0
  -26.2660  -15.5470   20.1480 N   0  0  0  0  0  0  0  0  0  0  0  0
  -25.5360  -16.2200   20.3530 H   0  0  0  0  0  0  0  0  0  0  0  0
  -27.1330  -15.9750   19.8520 H   0  0  0  0  0  0  0  0  0  0  0  0
  -29.5320  -23.3500   19.5690 C   0  0  0  0  0  2  0  0  0  0  0  0
  -28.2570  -24.2460   19.7420 C   0  0  0  0  0  2  0  0  0  0  0  0
  -28.3470  -25.4990   20.6700 C   0  0  0  0  0  2  0  0  0  0  0  0
  -28.3460  -26.7880   19.9960 O   0  0  0  0  0  0  0  0  0  0  0  0
  -24.5330  -31.8520   23.2950 C   0  0  0  0  0  0  0  0  0  0  0  0
  -27.1750  -27.5270   20.0430 C   0  0  0  0  0  0  0  0  0  0  0  0
  -23.3130  -30.4930   21.6240 C   0  0  0  0  0  3  0  0  0  0  0  0
  -24.7630  -29.0170   20.1280 C   0  0  0  0  0  0  0  0  0  0  0  0
  -25.8300  -30.8900   21.3950 C   0  0  0  0  0  2  0  0  0  0  0  0
  -25.9230  -29.5370   20.7120 C   0  0  0  0  0  0  0  0  0  0  0  0
  -27.1340  -28.8030   20.6610 C   0  0  0  0  0  3  0  0  0  0  0  0
  -25.9990  -27.0260   19.4520 C   0  0  0  0  0  3  0  0  0  0  0  0
  -24.7940  -27.7600   19.4940 C   0  0  0  0  0  3  0  0  0  0  0  0
  -23.5090  -29.8600   20.2190 C   0  0  0  0  0  2  0  0  0  0  0  0
  -24.5760  -31.0930   22.1630 N   0  0  0  0  0  0  0  0  0  0  0  0
  -23.4600  -32.0870   23.8700 O   0  0  0  0  0  0  0  0  0  0  0  0
  -22.6890  -29.4350   22.5640 C   0  0  0  0  0  0  0  0  0  0  0  0
  -21.3810  -29.1780   22.3950 N   0  0  0  0  0  0  0  0  0  0  0  0
  -23.3810  -28.8450   23.3950 O   0  0  0  0  0  0  0  0  0  0  0  0
  -20.8780  -29.7060   21.6960 H   0  0  0  0  0  0  0  0  0  0  0  0
  -18.0900  -27.7250   22.7250 C   0  0  0  0  0  0  0  0  0  0  0  0
  -20.6000  -28.1870   23.1350 C   0  0  0  0  0  3  0  0  0  0  0  0
  -20.8490  -26.7630   22.5890 C   0  0  0  0  0  2  0  0  0  0  0  0
  -19.8360  -26.3420   21.5190 C   0  0  0  0  0  2  0  0  0  0  0  0
  -18.4110  -26.3860   22.0810 C   0  0  0  0  0  2  0  0  0  0  0  0
  -19.1180  -28.5780   23.2040 C   0  0  0  0  0  0  0  0  0  0  0  0
  -18.7700  -29.8280   23.7600 C   0  0  0  0  0  3  0  0  0  0  0  0
  -17.4250  -30.2290   23.8440 C   0  0  0  0  0  3  0  0  0  0  0  0
  -16.4090  -29.3750   23.3840 C   0  0  0  0  0  3  0  0  0  0  0  0
  -16.7400  -28.1250   22.8290 C   0  0  0  0  0  3  0  0  0  0  0  0
  -25.8220  -32.4760   23.9120 C   0  0  0  0  0  3  0  0  0  0  0  0
  -26.3260  -31.7180   25.2000 C   0  0  1  0  0  0  0  0  0  0  0  0
  -25.2250  -31.4920   26.2620 C   0  0  0  0  0  1  0  0  0  0  0  0
  -26.9060  -30.3360   24.8230 C   0  0  0  0  0  1  0  0  0  0  0  0
  -27.4700  -32.5170   25.8680 C   0  0  0  0  0  1  0  0  0  0  0  0
  -25.5310  -33.8850   24.2180 N   0  0  0  0  0  0  0  0  0  0  0  0
  -25.9050  -34.9220   23.4560 C   0  0  0  0  0  0  0  0  0  0  0  0
  -26.5990  -34.7920   22.4440 O   0  0  0  0  0  0  0  0  0  0  0  0
  -24.9320  -34.0640   25.0120 H   0  0  0  0  0  0  0  0  0  0  0  0
  -24.2240  -36.7410   23.0320 C   0  0  0  0  0  1  0  0  0  0  0  0
  -25.4340  -36.3250   23.8840 C   0  0  0  0  0  3  0  0  0  0  0  0
  -27.5580  -37.1830   24.7690 C   0  0  0  0  0  1  0  0  0  0  0  0
  -26.4890  -37.3570   23.7870 N   0  0  0  0  0  0  0  0  0  0  0  0
  -26.0960  -38.2870   23.9070 H   0  0  0  0  0  0  0  0  0  0  0  0
  2  1  2  0
  3  6  2  0
  3  5  1  0
  4  1  1  0
  4  7  1  0
  5  4  2  0
  6  2  1  0
  8  5  1  0
  8 10  1  0
  9  7  1  0
 10 19  1  0
 10  9  1  0
 11 19  1  0
 12 17  1  0
 13 14  1  0
 13 12  1  0
 15 14  1  0
 15 24  1  0
 15 16  1  0
 17 11  1  0
 17 16  1  0
 18 11  2  0
 19 20  1  0
 21 22  2  0
 22 41  1  0
 23 22  1  0
 23 26  1  0
 24 25  1  0
 24 21  1  0
 25 23  2  0
 26 27  1  0
 27 28  2  0
 29 32  1  0
 29 28  1  0
 30 29  2  0
 31 30  1  0
 31 26  2  0
 32 33  1  0
 33 38  2  0
 33 34  1  0
 34 35  2  0
 35 36  1  0
 36 40  1  0
 37 36  2  0
 38 37  1  0
 39 38  1  0
 41 42  1  0
 42 45  1  0
 42 44  1  0
 43 41  2  0
 46 21  1  0
 46 47  1  0
 48 46  1  0
 49 50  1  0
 49  6  1  0
 50 51  1  0
 52 54  1  0
 52 51  1  0
 53 64  2  0
 54 59  1  0
 55 63  1  0
 55 65  1  0
 56 62  1  0
 56 58  1  0
 57 63  1  0
 58 57  1  0
 59 58  2  0
 60 61  1  0
 60 54  2  0
 61 56  2  0
 62 55  1  0
 63 53  1  0
 65 67  2  0
 66 65  1  0
 68 66  1  0
 69 78  2  0
 69 74  1  0
 70 66  1  0
 70 74  1  0
 71 70  1  0
 72 73  1  0
 72 71  1  0
 73 69  1  0
 74 75  2  0
 75 76  1  0
 77 76  2  0
 78 77  1  0
 79 53  1  0
 79 84  1  0
 79 80  1  0
 80 83  1  1
 80 81  1  0
 82 80  1  0
 84 87  1  0
 85 89  1  0
 85 84  1  0
 86 85  2  0
 89 88  1  0
 91 89  1  0
 91 92  1  0
 91 90  1  0
M  ISO  4  11 100  19 100  51 101  52 101
M  END
>  <TORSDO>  (49) 
F 19

>  <SCORE>  (49) 
-12.652

>  <name>  (49) 
48

>  <ligand_id>  (49) 
48

>  <original_smiles>  (49) 
[H]c1c([H])c([H])c2c(c1[H])C([H])([H])C([H])([H])C([H])([H])C2([H])N([H])C(=O)C1([H])N(C(=O)C([H])(N([H])C(=O)C([H])(N([H])C([H])([H])[H])C([H])([H])[H])C(C([H])([H])[H])(C([H])([H])[H])C([H])([H])[H])C([H])([H])c2c([H])c(OC([H])([H])C([H])([H])C([H])([H])c3c([H])c([H])c4c(c3[H])C([H])([H])C([H])(N([H])C(=O)N3C([H])([H])C([H])([H])C([H])([H])C([H])(n5nc(-c6c([H])c([H])c(Oc7c([H])c([H])c(F)c([H])c7F)c([H])c6[H])c(C(=O)N([H])[H])c5N([H])[H])C3([H])[H])C([H])([H])C4([H])[H])c([H])c([H])c2C1([H])[H]

>  <smiles>  (49) 
[H]c1c([H])c([H])c2c(c1[H])C([H])([H])C([H])([H])C([H])([H])C2([H])N([H])C(=O)C1([H])N(C(=O)C([H])(N([H])C(=O)C([H])(N([H])C([H])([H])[H])C([H])([H])[H])C(C([H])([H])[H])(C([H])([H])[H])C([H])([H])[H])C([H])([H])c2c([H])c(OC([H])([H])C([H])([H])C([H])([H])c3c([H])c([H])c4c(c3[H])C([H])([H])C([H])(N([H])C(=O)N3C([H])([H])C([H])([H])C([H])([H])C([H])(n5nc(-c6c([H])c([H])c(Oc7c([H])c([H])c(F)c([H])c7F)c([H])c6[H])c(C(=O)N([H])[H])c5N([H])[H])C3([H])[H])C([H])([H])C4([H])[H])c([H])c([H])c2C1([H])[H]

$$$$
49:0:0
     RDKit          3D

 90 98  0  0  1  0  0  0  0  0999 V2000
  -30.0170  -22.9120   19.5040 C   0  0  0  0  0  3  0  0  0  0  0  0
  -27.9980  -22.3520   20.5800 C   0  0  0  0  0  3  0  0  0  0  0  0
  -29.1940  -21.8440   19.9750 C   0  0  0  0  0  0  0  0  0  0  0  0
  -29.7030  -24.3190   19.6060 C   0  0  0  0  0  0  0  0  0  0  0  0
  -27.6650  -23.7720   20.6990 C   0  0  0  0  0  0  0  0  0  0  0  0
  -28.5000  -24.8390   20.1840 C   0  0  0  0  0  0  0  0  0  0  0  0
  -30.7230  -25.3020   19.0620 C   0  0  0  0  0  1  0  0  0  0  0  0
  -26.3750  -24.1050   21.4200 C   0  0  0  0  0  1  0  0  0  0  0  0
  -28.3640  -26.2910   20.2900 O   0  0  0  0  0  0  0  0  0  0  0  0
  -24.6220  -31.8420   23.2170 C   0  0  0  0  0  0  0  0  0  0  0  0
  -27.2310  -27.1580   20.2340 C   0  0  0  0  0  0  0  0  0  0  0  0
  -23.4250  -30.4320   21.5820 C   0  0  0  0  0  3  0  0  0  0  0  0
  -24.8810  -28.8490   20.1730 C   0  0  0  0  0  0  0  0  0  0  0  0
  -25.9700  -30.7170   21.4160 C   0  0  0  0  0  2  0  0  0  0  0  0
  -26.0480  -29.3200   20.7870 C   0  0  0  0  0  0  0  0  0  0  0  0
  -27.2170  -28.4850   20.8080 C   0  0  0  0  0  3  0  0  0  0  0  0
  -26.0500  -26.7730   19.5680 C   0  0  0  0  0  3  0  0  0  0  0  0
  -24.8920  -27.5850   19.5510 C   0  0  0  0  0  3  0  0  0  0  0  0
  -23.6490  -29.7380   20.2080 C   0  0  0  0  0  2  0  0  0  0  0  0
  -24.6910  -31.0180   22.1280 N   0  0  0  0  0  0  0  0  0  0  0  0
  -23.5370  -32.1290   23.7440 O   0  0  0  0  0  0  0  0  0  0  0  0
  -22.7530  -29.4310   22.5530 C   0  0  0  0  0  0  0  0  0  0  0  0
  -21.4250  -29.2640   22.4310 N   0  0  0  0  0  0  0  0  0  0  0  0
  -23.4280  -28.8060   23.3750 O   0  0  0  0  0  0  0  0  0  0  0  0
  -20.9390  -29.8200   21.7400 H   0  0  0  0  0  0  0  0  0  0  0  0
  -18.0420  -28.0840   22.9500 C   0  0  0  0  0  0  0  0  0  0  0  0
  -20.6040  -28.3340   23.2090 C   0  0  0  0  0  3  0  0  0  0  0  0
  -20.6960  -26.9010   22.6350 C   0  0  0  0  0  2  0  0  0  0  0  0
  -19.5880  -26.5820   21.6260 C   0  0  0  0  0  2  0  0  0  0  0  0
  -18.2090  -26.7350   22.2730 C   0  0  0  0  0  2  0  0  0  0  0  0
  -19.1670  -28.8420   23.3750 C   0  0  0  0  0  0  0  0  0  0  0  0
  -18.9540  -30.1060   23.9680 C   0  0  0  0  0  3  0  0  0  0  0  0
  -17.6520  -30.6110   24.1410 C   0  0  0  0  0  3  0  0  0  0  0  0
  -16.5430  -29.8520   23.7290 C   0  0  0  0  0  3  0  0  0  0  0  0
  -16.7390  -28.5900   23.1400 C   0  0  0  0  0  3  0  0  0  0  0  0
  -25.9040  -32.4790   23.8420 C   0  0  0  0  0  3  0  0  0  0  0  0
  -26.4170  -31.7120   25.1230 C   0  0  1  0  0  0  0  0  0  0  0  0
  -25.3210  -31.4820   26.1900 C   0  0  0  0  0  1  0  0  0  0  0  0
  -26.9980  -30.3320   24.7380 C   0  0  0  0  0  1  0  0  0  0  0  0
  -27.5660  -32.5080   25.7870 C   0  0  0  0  0  1  0  0  0  0  0  0
  -25.5910  -33.8760   24.1740 N   0  0  0  0  0  0  0  0  0  0  0  0
  -25.9180  -34.9330   23.4170 C   0  0  0  0  0  0  0  0  0  0  0  0
  -26.5840  -34.8330   22.3840 O   0  0  0  0  0  0  0  0  0  0  0  0
  -25.0060  -34.0290   24.9830 H   0  0  0  0  0  0  0  0  0  0  0  0
  -24.1810  -36.7200   23.0770 C   0  0  0  0  0  1  0  0  0  0  0  0
  -25.4290  -36.3200   23.8790 C   0  0  0  0  0  3  0  0  0  0  0  0
  -27.5670  -37.2120   24.6960 C   0  0  0  0  0  1  0  0  0  0  0  0
  -26.4570  -37.3780   23.7600 N   0  0  0  0  0  0  0  0  0  0  0  0
  -26.0490  -38.2950   23.9140 H   0  0  0  0  0  0  0  0  0  0  0  0
  -29.6040  -20.2990   19.6120 C   0  0  0  0  0  2  0  0  0  0  0  0
  -29.4860  -18.8890   20.4670 C   0  0  0  0  0  3  0  0  0  0  0  0
  -30.1430  -17.4750   19.8560 C   0  0  0  0  0  3  0  0  0  0  0  0
  -30.6360  -14.8450   20.0520 C   0  0  0  0  0  0  0  0  0  0  0  0
  -30.3970  -12.5810   18.9470 C   0  0  0  0  0  2  0  0  0  0  0  0
  -29.3900  -12.6600   17.7760 C   0  0  0  0  0  2  0  0  0  0  0  0
  -27.9410  -12.4700   18.2690 C   0  0  0  0  0  2  0  0  0  0  0  0
  -27.6420  -13.3010   19.5440 C   0  0  0  0  0  3  0  0  0  0  0  0
  -28.7590  -13.1320   20.5900 C   0  0  0  0  0  2  0  0  0  0  0  0
  -30.0070  -13.6010   19.9640 N   0  0  0  0  0  0  0  0  0  0  0  0
  -31.7620  -14.9360   19.5470 O   0  0  0  0  0  0  0  0  0  0  0  0
  -29.2040  -16.0590   21.7030 C   0  0  0  0  0  1  0  0  0  0  0  0
  -29.9400  -16.0310   20.4340 N   0  0  0  0  0  0  0  0  0  0  0  0
  -25.3020  -13.8820   20.4070 C   0  0  0  0  0  0  0  0  0  0  0  0
  -24.2560  -13.1050   20.8210 C   0  0  0  0  0  0  0  0  0  0  0  0
  -24.7130  -11.7530   20.7400 C   0  0  0  0  0  0  0  0  0  0  0  0
  -26.3270  -13.0040   20.0970 N   0  0  0  0  0  0  0  0  0  0  0  0
  -25.9840  -11.7170   20.3570 N   0  0  0  0  0  0  0  0  0  0  0  0
  -23.9940  -10.4890   20.9470 C   0  0  0  0  0  0  0  0  0  0  0  0
  -24.4490   -9.5200   21.8660 C   0  0  0  0  0  3  0  0  0  0  0  0
  -23.7280   -8.3230   22.0600 C   0  0  0  0  0  3  0  0  0  0  0  0
  -22.5360   -8.0860   21.3340 C   0  0  0  0  0  0  0  0  0  0  0  0
  -22.1000   -9.0450   20.4020 C   0  0  0  0  0  3  0  0  0  0  0  0
  -22.8210  -10.2330   20.2070 C   0  0  0  0  0  3  0  0  0  0  0  0
  -21.7820   -6.9440   21.4380 O   0  0  0  0  0  0  0  0  0  0  0  0
  -21.7300   -6.2190   22.6030 C   0  0  0  0  0  0  0  0  0  0  0  0
  -21.3090   -6.7970   23.8210 C   0  0  0  0  0  3  0  0  0  0  0  0
  -21.2030   -5.9980   24.9770 C   0  0  0  0  0  3  0  0  0  0  0  0
  -21.5090   -4.6250   24.9180 C   0  0  0  0  0  0  0  0  0  0  0  0
  -21.9250   -4.0500   23.7050 C   0  0  0  0  0  3  0  0  0  0  0  0
  -22.0330   -4.8450   22.5500 C   0  0  0  0  0  0  0  0  0  0  0  0
  -22.4120   -4.2790   21.3780 F   0  0  0  0  0  0  0  0  0  0  0  0
  -21.4020   -3.8570   26.0270 F   0  0  0  0  0  0  0  0  0  0  0  0
  -22.8790  -13.5810   21.1790 C   0  0  0  0  0  0  0  0  0  0  0  0
  -22.2000  -12.8750   22.0750 N   0  0  0  0  0  0  0  0  0  0  0  0
  -22.4160  -14.6160   20.6980 O   0  0  0  0  0  0  0  0  0  0  0  0
  -22.5880  -12.0360   22.4790 H   0  0  0  0  0  0  0  0  0  0  0  0
  -21.2790  -13.1750   22.3590 H   0  0  0  0  0  0  0  0  0  0  0  0
  -25.4590  -15.2560   20.2460 N   0  0  0  0  0  0  0  0  0  0  0  0
  -24.7030  -15.9110   20.4150 H   0  0  0  0  0  0  0  0  0  0  0  0
  -26.2930  -15.7010   19.8830 H   0  0  0  0  0  0  0  0  0  0  0  0
  1  4  2  0
  1  3  1  0
  2  5  1  0
  3  2  2  0
  4  6  1  0
  5  8  1  0
  6  9  1  0
  6  5  2  0
  7  4  1  0
 10 21  2  0
 11  9  1  0
 11 16  1  0
 12 20  1  0
 12 22  1  0
 13 19  1  0
 13 15  1  0
 14 20  1  0
 15 16  2  0
 15 14  1  0
 17 11  2  0
 18 17  1  0
 18 13  2  0
 19 12  1  0
 20 10  1  0
 22 24  2  0
 23 22  1  0
 25 23  1  0
 26 35  2  0
 26 31  1  0
 27 23  1  0
 27 31  1  0
 28 27  1  0
 29 30  1  0
 29 28  1  0
 30 26  1  0
 31 32  2  0
 32 33  1  0
 34 33  2  0
 35 34  1  0
 36 10  1  0
 36 41  1  0
 36 37  1  0
 37 40  1  1
 37 38  1  0
 39 37  1  0
 41 44  1  0
 42 46  1  0
 42 41  1  0
 43 42  2  0
 46 45  1  0
 48 46  1  0
 48 49  1  0
 48 47  1  0
 50  3  1  0
 50 51  1  0
 52 62  1  0
 52 51  2  0
 53 62  1  0
 54 59  1  0
 55 56  1  0
 55 54  1  0
 57 56  1  0
 57 66  1  0
 57 58  1  0
 59 53  1  0
 59 58  1  0
 60 53  2  0
 62 61  1  0
 63 64  2  0
 64 83  1  0
 65 64  1  0
 65 68  1  0
 66 67  1  0
 66 63  1  0
 67 65  2  0
 68 69  1  0
 69 70  2  0
 71 74  1  0
 71 70  1  0
 72 71  2  0
 73 72  1  0
 73 68  2  0
 74 75  1  0
 75 76  1  0
 76 77  2  0
 78 77  1  0
 78 82  1  0
 79 78  2  0
 80 75  2  0
 80 79  1  0
 81 80  1  0
 83 84  1  0
 84 87  1  0
 84 86  1  0
 85 83  2  0
 88 63  1  0
 88 89  1  0
 90 88  1  0
M  ISO  4   6 101   9 101  53 100  62 100
M  END
>  <TORSDO>  (50) 
F 19

>  <SCORE>  (50) 
-13.570

>  <name>  (50) 
49

>  <ligand_id>  (50) 
49

>  <original_smiles>  (50) 
[H]c1c([H])c([H])c2c(c1[H])C([H])([H])C([H])([H])C([H])([H])C2([H])N([H])C(=O)C1([H])N(C(=O)C([H])(N([H])C(=O)C([H])(N([H])C([H])([H])[H])C([H])([H])[H])C(C([H])([H])[H])(C([H])([H])[H])C([H])([H])[H])C([H])([H])c2c([H])c(Oc3c(C([H])([H])[H])c([H])c(C([H])([H])C([H])([H])C([H])([H])N(C(=O)N4C([H])([H])C([H])([H])C([H])([H])C([H])(n5nc(-c6c([H])c([H])c(Oc7c([H])c([H])c(F)c([H])c7F)c([H])c6[H])c(C(=O)N([H])[H])c5N([H])[H])C4([H])[H])C([H])([H])[H])c([H])c3C([H])([H])[H])c([H])c([H])c2C1([H])[H]

>  <smiles>  (50) 
[H]c1c([H])c([H])c2c(c1[H])C([H])([H])C([H])([H])C([H])([H])C2([H])N([H])C(=O)C1([H])N(C(=O)C([H])(N([H])C(=O)C([H])(N([H])C([H])([H])[H])C([H])([H])[H])C(C([H])([H])[H])(C([H])([H])[H])C([H])([H])[H])C([H])([H])c2c([H])c(Oc3c(C([H])([H])[H])c([H])c(C([H])([H])C([H])([H])C([H])([H])N(C(=O)N4C([H])([H])C([H])([H])C([H])([H])C([H])(n5nc(-c6c([H])c([H])c(Oc7c([H])c([H])c(F)c([H])c7F)c([H])c6[H])c(C(=O)N([H])[H])c5N([H])[H])C4([H])[H])C([H])([H])[H])c([H])c3C([H])([H])[H])c([H])c([H])c2C1([H])[H]

$$$$
50:0:0
     RDKit          3D

 88 92  0  0  1  0  0  0  0  0999 V2000
  -23.7340  -26.5000   18.9330 C   0  0  0  0  0  3  0  0  0  0  0  0
  -24.1860  -25.1650   20.1000 C   0  0  0  0  0  3  0  0  0  0  0  0
  -24.8140  -27.8830   18.3780 C   0  0  0  0  0  2  0  0  0  0  0  0
  -26.7180  -26.2260   20.9610 C   0  0  0  0  0  1  0  0  0  0  0  0
  -25.7580  -24.7330   20.8480 C   0  0  0  0  0  2  0  0  0  0  0  0
  -26.4410  -28.0810   19.2230 C   0  0  0  0  0  3  0  0  0  0  0  0
  -27.6760  -28.4230   18.8630 O   0  0  0  0  0  0  0  0  0  0  0  0
  -24.6880  -31.9620   23.1900 C   0  0  0  0  0  0  0  0  0  0  0  0
  -28.0500  -27.6500   19.7780 C   0  0  1  0  0  0  0  0  0  0  0  0
  -23.5330  -30.2340   21.7000 C   0  0  0  0  0  3  0  0  0  0  0  0
  -24.9530  -27.7430   20.8240 C   0  0  0  0  0  2  0  0  0  0  0  0
  -25.9330  -30.4340   21.6050 C   0  0  0  0  0  2  0  0  0  0  0  0
  -26.0900  -28.8460   21.4780 C   0  0  0  0  0  3  0  0  0  0  0  0
  -27.6400  -28.6520   21.0760 C   0  0  0  0  0  2  0  0  0  0  0  0
  -27.5150  -26.2720   18.9460 C   0  0  0  0  0  2  0  0  0  0  0  0
  -25.9280  -26.0620   19.1220 C   0  0  0  0  0  1  0  0  0  0  0  0
  -23.7930  -29.0110   20.6670 C   0  0  0  0  0  2  0  0  0  0  0  0
  -24.7260  -30.9690   22.2150 N   0  0  0  0  0  0  0  0  0  0  0  0
  -23.6130  -32.3410   23.6800 O   0  0  0  0  0  0  0  0  0  0  0  0
  -22.7730  -29.5720   22.8050 C   0  0  0  0  0  0  0  0  0  0  0  0
  -21.4600  -29.4280   22.6170 N   0  0  0  0  0  0  0  0  0  0  0  0
  -23.4020  -29.0700   23.7340 O   0  0  0  0  0  0  0  0  0  0  0  0
  -21.0250  -29.8670   21.8190 H   0  0  0  0  0  0  0  0  0  0  0  0
  -18.1320  -28.1350   23.0340 C   0  0  0  0  0  0  0  0  0  0  0  0
  -20.6500  -28.5040   23.3890 C   0  0  0  0  0  3  0  0  0  0  0  0
  -20.8450  -27.0590   22.8720 C   0  0  0  0  0  2  0  0  0  0  0  0
  -19.7970  -26.6480   21.8370 C   0  0  0  0  0  2  0  0  0  0  0  0
  -18.3910  -26.7610   22.4340 C   0  0  0  0  0  2  0  0  0  0  0  0
  -19.2000  -28.9650   23.4560 C   0  0  0  0  0  0  0  0  0  0  0  0
  -18.9200  -30.2530   23.9630 C   0  0  0  0  0  3  0  0  0  0  0  0
  -17.5930  -30.7080   24.0640 C   0  0  0  0  0  3  0  0  0  0  0  0
  -16.5340  -29.8730   23.6710 C   0  0  0  0  0  3  0  0  0  0  0  0
  -16.8040  -28.5890   23.1590 C   0  0  0  0  0  3  0  0  0  0  0  0
  -25.9790  -32.6570   23.7750 C   0  0  0  0  0  3  0  0  0  0  0  0
  -26.5960  -31.8940   25.0220 C   0  0  1  0  0  0  0  0  0  0  0  0
  -25.5640  -31.6070   26.1390 C   0  0  0  0  0  1  0  0  0  0  0  0
  -27.2130  -30.5430   24.6020 C   0  0  0  0  0  1  0  0  0  0  0  0
  -27.7520  -32.7130   25.6520 C   0  0  0  0  0  1  0  0  0  0  0  0
  -25.6530  -34.0460   24.1790 N   0  0  0  0  0  0  0  0  0  0  0  0
  -25.9750  -35.1610   23.5040 C   0  0  0  0  0  0  0  0  0  0  0  0
  -26.6220  -35.1360   22.4550 O   0  0  0  0  0  0  0  0  0  0  0  0
  -25.0750  -34.1440   25.0010 H   0  0  0  0  0  0  0  0  0  0  0  0
  -24.2040  -36.9520   23.3520 C   0  0  0  0  0  1  0  0  0  0  0  0
  -25.4950  -36.5210   24.0680 C   0  0  0  0  0  3  0  0  0  0  0  0
  -27.6500  -37.4240   24.8360 C   0  0  0  0  0  1  0  0  0  0  0  0
  -26.4990  -37.6040   23.9540 N   0  0  0  0  0  0  0  0  0  0  0  0
  -26.0810  -38.5080   24.1590 H   0  0  0  0  0  0  0  0  0  0  0  0
  -26.8060  -22.9340   20.8780 C   0  0  0  0  0 15  0  0  0  0  0  0
  -27.1850  -20.8430   20.3700 C   0  0  0  0  0 15  0  0  0  0  0  0
  -28.5410  -19.1540   20.3330 C   0  0  0  0  0  2  0  0  0  0  0  0
  -29.8960  -19.8120   20.4330 C   0  0  0  0  0  1  0  0  0  0  0  0
  -28.7160  -17.5560   20.2230 N   0  0  0  0  0  2  0  0  0  0  0  0
  -29.8410  -16.1640   20.0730 C   0  0  0  0  0  0  0  0  0  0  0  0
  -30.4460  -13.5230   19.3130 C   0  0  0  0  0  2  0  0  0  0  0  0
  -29.6640  -12.8270   18.1380 C   0  0  0  0  0  2  0  0  0  0  0  0
  -28.2920  -12.3230   18.6030 C   0  0  0  0  0  2  0  0  0  0  0  0
  -27.6790  -13.3490   19.5720 C   0  0  0  0  0  3  0  0  0  0  0  0
  -28.6160  -13.8260   20.6900 C   0  0  0  0  0  2  0  0  0  0  0  0
  -29.6330  -14.6640   20.0350 N   0  0  0  0  0  0  0  0  0  0  0  0
  -31.0870  -16.1740   19.8620 O   0  0  0  0  0  0  0  0  0  0  0  0
  -25.3820  -13.8540   20.4310 C   0  0  0  0  0  0  0  0  0  0  0  0
  -24.3420  -13.0680   20.8220 C   0  0  0  0  0  0  0  0  0  0  0  0
  -24.8120  -11.7190   20.7480 C   0  0  0  0  0  0  0  0  0  0  0  0
  -26.4000  -12.9800   20.1140 N   0  0  0  0  0  0  0  0  0  0  0  0
  -26.0880  -11.6880   20.3790 N   0  0  0  0  0  0  0  0  0  0  0  0
  -24.0940  -10.4550   20.9420 C   0  0  0  0  0  0  0  0  0  0  0  0
  -24.5140   -9.5020   21.8950 C   0  0  0  0  0  3  0  0  0  0  0  0
  -23.7870   -8.3050   22.0740 C   0  0  0  0  0  3  0  0  0  0  0  0
  -22.6290   -8.0560   21.2990 C   0  0  0  0  0  0  0  0  0  0  0  0
  -22.2300   -8.9990   20.3360 C   0  0  0  0  0  3  0  0  0  0  0  0
  -22.9570  -10.1860   20.1550 C   0  0  0  0  0  3  0  0  0  0  0  0
  -21.8740   -6.9110   21.3870 O   0  0  0  0  0  0  0  0  0  0  0  0
  -21.7450   -6.2240   22.5670 C   0  0  0  0  0  0  0  0  0  0  0  0
  -21.2320   -6.8350   23.7320 C   0  0  0  0  0  3  0  0  0  0  0  0
  -21.0510   -6.0720   24.9040 C   0  0  0  0  0  3  0  0  0  0  0  0
  -21.3720   -4.7020   24.9090 C   0  0  0  0  0  0  0  0  0  0  0  0
  -21.8770   -4.0920   23.7480 C   0  0  0  0  0  3  0  0  0  0  0  0
  -22.0600   -4.8510   22.5790 C   0  0  0  0  0  0  0  0  0  0  0  0
  -22.5280   -4.2540   21.4560 F   0  0  0  0  0  0  0  0  0  0  0  0
  -21.1900   -3.9680   26.0320 F   0  0  0  0  0  0  0  0  0  0  0  0
  -22.9600  -13.5440   21.1460 C   0  0  0  0  0  0  0  0  0  0  0  0
  -22.2630  -12.8440   22.0310 N   0  0  0  0  0  0  0  0  0  0  0  0
  -22.5120  -14.5770   20.6490 O   0  0  0  0  0  0  0  0  0  0  0  0
  -22.6420  -12.0090   22.4540 H   0  0  0  0  0  0  0  0  0  0  0  0
  -21.3350  -13.1460   22.2910 H   0  0  0  0  0  0  0  0  0  0  0  0
  -25.5480  -15.2300   20.2840 N   0  0  0  0  0  0  0  0  0  0  0  0
  -24.8050  -15.8930   20.4710 H   0  0  0  0  0  0  0  0  0  0  0  0
  -26.4130  -15.6740   19.9970 H   0  0  0  0  0  0  0  0  0  0  0  0
  1  2  2  0
  2  5  1  0
  3  1  1  0
  5  4  1  0
  6  3  1  0
  6  9  1  0
  7  6  1  0
  7  9  1  0
  8 19  2  0
  9 15  1  6
  9 14  1  0
 10 18  1  0
 10 20  1  0
 11 13  1  0
 12 18  1  0
 13 14  1  0
 13 12  1  0
 15 16  1  0
 17 11  1  0
 17 10  1  0
 18  8  1  0
 20 22  2  0
 21 20  1  0
 23 21  1  0
 24 33  2  0
 24 29  1  0
 25 21  1  0
 25 29  1  0
 26 25  1  0
 27 28  1  0
 27 26  1  0
 28 24  1  0
 29 30  2  0
 30 31  1  0
 32 31  2  0
 33 32  1  0
 34  8  1  0
 34 39  1  0
 34 35  1  0
 35 38  1  1
 35 36  1  0
 37 35  1  0
 39 42  1  0
 40 44  1  0
 40 39  1  0
 41 40  2  0
 44 43  1  0
 46 44  1  0
 46 47  1  0
 46 45  1  0
 50 51  1  0
 52 50  1  0
 53 52  1  0
 54 59  1  0
 55 56  1  0
 55 54  1  0
 57 56  1  0
 57 64  1  0
 57 58  1  0
 59 53  1  0
 59 58  1  0
 60 53  2  0
 61 62  2  0
 62 81  1  0
 63 62  1  0
 63 66  1  0
 64 65  1  0
 64 61  1  0
 65 63  2  0
 66 67  1  0
 67 68  2  0
 69 72  1  0
 69 68  1  0
 70 69  2  0
 71 70  1  0
 71 66  2  0
 72 73  1  0
 73 78  2  0
 73 74  1  0
 74 75  2  0
 75 76  1  0
 76 80  1  0
 77 76  2  0
 78 77  1  0
 79 78  1  0
 81 82  1  0
 82 85  1  0
 82 84  1  0
 83 81  2  0
 86 61  1  0
 86 87  1  0
 88 86  1  0
M  ISO  4   6 101   7 101  52 100  53 100
M  END
>  <TORSDO>  (51) 
F 19

>  <SCORE>  (51) 
-14.668

>  <name>  (51) 
50

>  <ligand_id>  (51) 
50

>  <original_smiles>  (51) 
[H]c1c([H])c(Oc2c([H])c([H])c3c(c2[H])C([H])([H])N(C(=O)C([H])(N([H])C(=O)C([H])(N([H])C([H])([H])[H])C([H])([H])[H])C(C([H])([H])[H])(C([H])([H])[H])C([H])([H])[H])C([H])(C(=O)N([H])C2([H])c4c([H])c([H])c([H])c([H])c4C([H])([H])C([H])([H])C2([H])[H])C3([H])[H])c([H])c(C([H])([H])C([H])([H])C(=NC(=O)N2C([H])([H])C([H])([H])C([H])([H])C([H])(n3nc(-c4c([H])c([H])c(Oc5c([H])c([H])c(F)c([H])c5F)c([H])c4[H])c(C(=O)N([H])[H])c3N([H])[H])C2([H])[H])C([H])([H])[H])c1[H]

>  <smiles>  (51) 
[H]c1c([H])c(Oc2c([H])c([H])c3c(c2[H])C([H])([H])N(C(=O)C([H])(N([H])C(=O)C([H])(N([H])C([H])([H])[H])C([H])([H])[H])C(C([H])([H])[H])(C([H])([H])[H])C([H])([H])[H])C([H])(C(=O)N([H])C2([H])c4c([H])c([H])c([H])c([H])c4C([H])([H])C([H])([H])C2([H])[H])C3([H])[H])c([H])c(C([H])([H])C([H])([H])C(=NC(=O)N2C([H])([H])C([H])([H])C([H])([H])C([H])(n3nc(-c4c([H])c([H])c(Oc5c([H])c([H])c(F)c([H])c5F)c([H])c4[H])c(C(=O)N([H])[H])c3N([H])[H])C2([H])[H])C([H])([H])[H])c1[H]

$$$$
51:0:0
     RDKit          3D

 88 94  0  0  1  0  0  0  0  0999 V2000
  -27.3550  -23.5770   18.6530 C   0  0  0  0  0  3  0  0  0  0  0  0
  -26.7430  -22.6840   17.7770 C   0  0  0  0  0  3  0  0  0  0  0  0
  -27.6620  -20.8090   18.9660 C   0  0  0  0  0  3  0  0  0  0  0  0
  -28.4520  -21.5270   19.9040 C   0  0  0  0  0  3  0  0  0  0  0  0
  -28.0810  -23.3090   19.8420 C   0  0  0  0  0  0  0  0  0  0  0  0
  -26.8390  -21.3200   17.9680 C   0  0  0  0  0  0  0  0  0  0  0  0
  -26.1910  -20.4760   17.1320 F   0  0  0  0  0  0  0  0  0  0  0  0
  -30.8780  -20.1680   20.4340 C   0  0  0  0  0  1  0  0  0  0  0  0
  -29.3920  -19.8020   20.4880 C   0  0  0  0  0  1  0  0  0  0  0  0
  -30.1680  -16.3220   20.3090 C   0  0  0  0  0  0  0  0  0  0  0  0
  -30.4750  -13.6440   19.5460 C   0  0  0  0  0  2  0  0  0  0  0  0
  -29.6840  -12.9360   18.3900 C   0  0  0  0  0  2  0  0  0  0  0  0
  -28.3110  -12.4410   18.8570 C   0  0  0  0  0  2  0  0  0  0  0  0
  -27.6830  -13.4750   19.8090 C   0  0  0  0  0  3  0  0  0  0  0  0
  -28.6480  -14.0510   20.8900 C   0  0  0  0  0  2  0  0  0  0  0  0
  -29.7160  -14.8600   20.1960 N   0  0  0  0  0  0  0  0  0  0  0  0
  -31.4180  -16.1660   20.2770 O   0  0  0  0  0  0  0  0  0  0  0  0
  -29.4130  -17.8360   20.2940 N   0  0  0  0  0  2  0  0  0  0  0  0
  -28.4390  -17.5850   20.1940 H   0  0  0  0  0  0  0  0  0  0  0  0
  -25.3080  -13.9140   20.5490 C   0  0  0  0  0  0  0  0  0  0  0  0
  -24.2620  -13.1090   20.8960 C   0  0  0  0  0  0  0  0  0  0  0  0
  -24.7670  -11.7710   20.8730 C   0  0  0  0  0  0  0  0  0  0  0  0
  -26.3800  -13.0750   20.3270 N   0  0  0  0  0  0  0  0  0  0  0  0
  -26.0680  -11.7740   20.5820 N   0  0  0  0  0  0  0  0  0  0  0  0
  -24.0590  -10.4940   21.0510 C   0  0  0  0  0  0  0  0  0  0  0  0
  -24.4790   -9.5380   22.0010 C   0  0  0  0  0  3  0  0  0  0  0  0
  -23.7640   -8.3330   22.1730 C   0  0  0  0  0  3  0  0  0  0  0  0
  -22.6110   -8.0730   21.3930 C   0  0  0  0  0  0  0  0  0  0  0  0
  -22.2080   -9.0170   20.4330 C   0  0  0  0  0  3  0  0  0  0  0  0
  -22.9250  -10.2130   20.2590 C   0  0  0  0  0  3  0  0  0  0  0  0
  -21.8700   -6.9190   21.4720 O   0  0  0  0  0  0  0  0  0  0  0  0
  -21.7950   -6.1870   22.6310 C   0  0  0  0  0  0  0  0  0  0  0  0
  -21.2810   -6.7360   23.8250 C   0  0  0  0  0  3  0  0  0  0  0  0
  -21.1560   -5.9310   24.9750 C   0  0  0  0  0  3  0  0  0  0  0  0
  -21.5380   -4.5760   24.9300 C   0  0  0  0  0  0  0  0  0  0  0  0
  -22.0450   -4.0250   23.7400 C   0  0  0  0  0  3  0  0  0  0  0  0
  -22.1700   -4.8280   22.5930 C   0  0  0  0  0  0  0  0  0  0  0  0
  -22.6390   -4.2880   21.4430 F   0  0  0  0  0  0  0  0  0  0  0  0
  -21.4110   -3.7990   26.0320 F   0  0  0  0  0  0  0  0  0  0  0  0
  -22.8510  -13.5560   21.1290 C   0  0  0  0  0  0  0  0  0  0  0  0
  -22.1190  -12.8540   21.9850 N   0  0  0  0  0  0  0  0  0  0  0  0
  -22.4050  -14.5680   20.5870 O   0  0  0  0  0  0  0  0  0  0  0  0
  -22.4950  -12.0380   22.4450 H   0  0  0  0  0  0  0  0  0  0  0  0
  -21.1700  -13.1380   22.1860 H   0  0  0  0  0  0  0  0  0  0  0  0
  -25.4340  -15.2900   20.3670 N   0  0  0  0  0  0  0  0  0  0  0  0
  -24.6450  -15.9200   20.4540 H   0  0  0  0  0  0  0  0  0  0  0  0
  -26.2740  -15.7460   20.0370 H   0  0  0  0  0  0  0  0  0  0  0  0
  -28.1360  -25.0020   20.3080 O   0  0  0  0  0  0  0  0  0  0  0  0
  -24.7220  -31.8420   23.1820 C   0  0  0  0  0  0  0  0  0  0  0  0
  -27.2300  -26.4160   20.2350 C   0  0  0  0  0  0  0  0  0  0  0  0
  -23.5440  -30.4190   21.5720 C   0  0  0  0  0  3  0  0  0  0  0  0
  -24.9890  -28.6990   20.1830 C   0  0  0  0  0  0  0  0  0  0  0  0
  -26.1400  -30.4560   21.4760 C   0  0  0  0  0  2  0  0  0  0  0  0
  -26.2000  -28.9800   20.8270 C   0  0  0  0  0  0  0  0  0  0  0  0
  -27.2800  -27.8800   20.8140 C   0  0  0  0  0  3  0  0  0  0  0  0
  -25.9610  -26.4520   19.5530 C   0  0  0  0  0  3  0  0  0  0  0  0
  -24.9330  -27.4620   19.5220 C   0  0  0  0  0  3  0  0  0  0  0  0
  -23.7960  -29.6900   20.2170 C   0  0  0  0  0  2  0  0  0  0  0  0
  -24.8310  -30.9480   22.1280 N   0  0  0  0  0  0  0  0  0  0  0  0
  -23.6240  -32.1580   23.6760 O   0  0  0  0  0  0  0  0  0  0  0  0
  -22.8010  -29.4780   22.5630 C   0  0  0  0  0  0  0  0  0  0  0  0
  -21.4670  -29.3190   22.4340 N   0  0  0  0  0  0  0  0  0  0  0  0
  -23.4440  -28.8840   23.4300 O   0  0  0  0  0  0  0  0  0  0  0  0
  -20.9900  -29.8480   21.7170 H   0  0  0  0  0  0  0  0  0  0  0  0
  -18.0850  -28.0660   22.9650 C   0  0  0  0  0  0  0  0  0  0  0  0
  -20.6430  -28.3880   23.2210 C   0  0  0  0  0  3  0  0  0  0  0  0
  -20.7660  -26.9450   22.6790 C   0  0  0  0  0  2  0  0  0  0  0  0
  -19.6740  -26.5860   21.6670 C   0  0  0  0  0  2  0  0  0  0  0  0
  -18.2880  -26.7130   22.3060 C   0  0  0  0  0  2  0  0  0  0  0  0
  -19.1900  -28.8600   23.3800 C   0  0  0  0  0  0  0  0  0  0  0  0
  -18.9410  -30.1210   23.9660 C   0  0  0  0  0  3  0  0  0  0  0  0
  -17.6240  -30.5900   24.1350 C   0  0  0  0  0  3  0  0  0  0  0  0
  -16.5370  -29.7970   23.7310 C   0  0  0  0  0  3  0  0  0  0  0  0
  -16.7680  -28.5360   23.1520 C   0  0  0  0  0  3  0  0  0  0  0  0
  -25.9690  -32.5230   23.8240 C   0  0  0  0  0  3  0  0  0  0  0  0
  -25.6340  -33.9310   24.1340 N   0  0  0  0  0  0  0  0  0  0  0  0
  -25.9810  -34.9960   23.3970 C   0  0  0  0  0  0  0  0  0  0  0  0
  -26.6640  -34.8980   22.3760 O   0  0  0  0  0  0  0  0  0  0  0  0
  -25.0240  -34.0800   24.9240 H   0  0  0  0  0  0  0  0  0  0  0  0
  -24.2730  -36.8220   23.0390 C   0  0  0  0  0  1  0  0  0  0  0  0
  -25.5000  -36.3920   23.8610 C   0  0  0  0  0  3  0  0  0  0  0  0
  -27.6250  -37.2710   24.7330 C   0  0  0  0  0  1  0  0  0  0  0  0
  -26.5420  -37.4400   23.7670 N   0  0  0  0  0  0  0  0  0  0  0  0
  -26.1390  -38.3630   23.9020 H   0  0  0  0  0  0  0  0  0  0  0  0
  -26.4520  -31.8000   25.1440 C   0  0  1  0  0  0  0  0  0  0  0  0
  -25.3340  -31.6040   26.1960 C   0  0  0  0  0  1  0  0  0  0  0  0
  -27.0420  -30.4080   24.8360 C   0  0  0  0  0  1  0  0  0  0  0  0
  -27.5890  -32.6170   25.8030 C   0  0  0  0  0  1  0  0  0  0  0  0
  1  5  1  0
  2  6  1  0
  2  1  2  0
  3  4  1  0
  5  4  2  0
  5 48  1  0
  6  3  2  0
  7  6  1  0
  8  9  1  0
 11 16  1  0
 12 13  1  0
 12 11  1  0
 14 13  1  0
 14 23  1  0
 14 15  1  0
 16 10  1  0
 16 15  1  0
 17 10  2  0
 18 10  1  0
 19 18  1  0
 20 21  2  0
 21 40  1  0
 22 21  1  0
 22 25  1  0
 23 20  1  0
 23 24  1  0
 24 22  2  0
 25 26  1  0
 26 27  2  0
 28 31  1  0
 28 27  1  0
 29 28  2  0
 30 29  1  0
 30 25  2  0
 31 32  1  0
 32 33  1  0
 33 34  2  0
 35 34  1  0
 35 39  1  0
 36 35  2  0
 37 32  2  0
 37 36  1  0
 38 37  1  0
 40 41  1  0
 41 44  1  0
 41 43  1  0
 42 40  2  0
 45 46  1  0
 45 20  1  0
 47 45  1  0
 49 60  2  0
 50 48  1  0
 50 55  1  0
 51 59  1  0
 51 61  1  0
 52 58  1  0
 52 54  1  0
 53 59  1  0
 54 53  1  0
 55 54  2  0
 56 50  2  0
 57 56  1  0
 57 52  2  0
 58 51  1  0
 59 49  1  0
 61 63  2  0
 62 61  1  0
 64 62  1  0
 65 74  2  0
 65 70  1  0
 66 62  1  0
 66 70  1  0
 67 66  1  0
 68 69  1  0
 68 67  1  0
 69 65  1  0
 70 71  2  0
 71 72  1  0
 73 72  2  0
 74 73  1  0
 75 49  1  0
 75 76  1  0
 75 85  1  0
 76 79  1  0
 77 81  1  0
 77 76  1  0
 78 77  2  0
 81 80  1  0
 83 81  1  0
 83 84  1  0
 83 82  1  0
 85 88  1  1
 85 86  1  0
 87 85  1  0
M  ISO  4   5 101  10 100  18 100  48 101
M  END
>  <TORSDO>  (52) 
F 17

>  <SCORE>  (52) 
-16.707

>  <name>  (52) 
51

>  <ligand_id>  (52) 
51

>  <original_smiles>  (52) 
[H]c1c([H])c([H])c2c(c1[H])C([H])([H])C([H])([H])C([H])([H])C2([H])N([H])C(=O)C1([H])N(C(=O)C([H])(N([H])C(=O)C([H])(N([H])C([H])([H])[H])C([H])([H])[H])C(C([H])([H])[H])(C([H])([H])[H])C([H])([H])[H])C([H])([H])c2c([H])c(Oc3c([H])c([H])c(F)c([H])c3C([H])(N([H])C(=O)N3C([H])([H])C([H])([H])C([H])([H])C([H])(n4nc(-c5c([H])c([H])c(Oc6c([H])c([H])c(F)c([H])c6F)c([H])c5[H])c(C(=O)N([H])[H])c4N([H])[H])C3([H])[H])C([H])([H])[H])c([H])c([H])c2C1([H])[H]

>  <smiles>  (52) 
[H]c1c([H])c([H])c2c(c1[H])C([H])([H])C([H])([H])C([H])([H])C2([H])N([H])C(=O)C1([H])N(C(=O)C([H])(N([H])C(=O)C([H])(N([H])C([H])([H])[H])C([H])([H])[H])C(C([H])([H])[H])(C([H])([H])[H])C([H])([H])[H])C([H])([H])c2c([H])c(Oc3c([H])c([H])c(F)c([H])c3C([H])(N([H])C(=O)N3C([H])([H])C([H])([H])C([H])([H])C([H])(n4nc(-c5c([H])c([H])c(Oc6c([H])c([H])c(F)c([H])c6F)c([H])c5[H])c(C(=O)N([H])[H])c4N([H])[H])C3([H])[H])C([H])([H])[H])c([H])c([H])c2C1([H])[H]

$$$$
52:0:0
     RDKit          3D

 93102  0  0  1  0  0  0  0  0999 V2000
  -29.2290  -23.5070   21.7770 C   0  0  0  0  0  3  0  0  0  0  0  0
  -27.7530  -23.9740   19.9040 C   0  0  0  0  0  3  0  0  0  0  0  0
  -29.3480  -24.8930   22.0150 C   0  0  0  0  0  0  0  0  0  0  0  0
  -28.6790  -25.8340   21.1880 C   0  0  0  0  0  0  0  0  0  0  0  0
  -28.4540  -23.0000   20.7160 C   0  0  0  0  0  0  0  0  0  0  0  0
  -27.8390  -25.4000   20.1300 C   0  0  0  0  0  0  0  0  0  0  0  0
  -30.5510  -26.8160   23.2680 C   0  0  0  0  0  0  0  0  0  0  0  0
  -31.0810  -27.3610   24.3760 C   0  0  0  0  0  2  0  0  0  0  0  0
  -30.2190  -25.3350   23.1900 C   0  0  0  0  0  2  0  0  0  0  0  0
  -28.9080  -27.3230   21.4240 C   0  0  0  0  0  2  0  0  0  0  0  0
  -30.2890  -27.6270   22.0160 C   0  0  0  0  0  2  0  0  0  0  0  0
  -27.3080  -26.3820   19.2620 O   0  0  0  0  0  0  0  0  0  0  0  0
  -24.3450  -31.8360   23.0270 C   0  0  0  0  0  0  0  0  0  0  0  0
  -26.2350  -27.2330   19.5510 C   0  0  0  0  0  0  0  0  0  0  0  0
  -22.8520  -30.6020   21.4930 C   0  0  0  0  0  3  0  0  0  0  0  0
  -24.0030  -28.9920   19.8710 C   0  0  0  0  0  0  0  0  0  0  0  0
  -25.3670  -30.7410   21.0200 C   0  0  0  0  0  2  0  0  0  0  0  0
  -25.2650  -29.3810   20.3390 C   0  0  0  0  0  0  0  0  0  0  0  0
  -26.3820  -28.5130   20.1680 C   0  0  0  0  0  3  0  0  0  0  0  0
  -24.9530  -26.8860   19.0760 C   0  0  0  0  0  3  0  0  0  0  0  0
  -23.8470  -27.7480   19.2340 C   0  0  0  0  0  3  0  0  0  0  0  0
  -22.8520  -29.9570   20.0800 C   0  0  0  0  0  2  0  0  0  0  0  0
  -24.2150  -31.0740   21.9010 N   0  0  0  0  0  0  0  0  0  0  0  0
  -23.3580  -32.1710   23.6960 O   0  0  0  0  0  0  0  0  0  0  0  0
  -22.2230  -29.6040   22.4930 C   0  0  0  0  0  0  0  0  0  0  0  0
  -20.8900  -29.4460   22.4320 N   0  0  0  0  0  0  0  0  0  0  0  0
  -22.9310  -28.9730   23.2810 O   0  0  0  0  0  0  0  0  0  0  0  0
  -20.3780  -30.0050   21.7640 H   0  0  0  0  0  0  0  0  0  0  0  0
  -17.5420  -28.2080   23.0080 C   0  0  0  0  0  0  0  0  0  0  0  0
  -20.0960  -28.5250   23.2460 C   0  0  0  0  0  3  0  0  0  0  0  0
  -20.2210  -27.0740   22.7240 C   0  0  0  0  0  2  0  0  0  0  0  0
  -19.1170  -26.6930   21.7340 C   0  0  0  0  0  2  0  0  0  0  0  0
  -17.7380  -26.8370   22.3830 C   0  0  0  0  0  2  0  0  0  0  0  0
  -18.6490  -29.0070   23.3980 C   0  0  0  0  0  0  0  0  0  0  0  0
  -18.4110  -30.2880   23.9430 C   0  0  0  0  0  3  0  0  0  0  0  0
  -17.0990  -30.7710   24.1020 C   0  0  0  0  0  3  0  0  0  0  0  0
  -16.0060  -29.9700   23.7260 C   0  0  0  0  0  3  0  0  0  0  0  0
  -16.2280  -28.6900   23.1870 C   0  0  0  0  0  3  0  0  0  0  0  0
  -25.7390  -32.3390   23.5160 C   0  0  0  0  0  3  0  0  0  0  0  0
  -25.5660  -33.7110   24.0150 N   0  0  0  0  0  0  0  0  0  0  0  0
  -25.9550  -34.8130   23.3610 C   0  0  0  0  0  0  0  0  0  0  0  0
  -26.5670  -34.7750   22.2890 O   0  0  0  0  0  0  0  0  0  0  0  0
  -25.0220  -33.8190   24.8580 H   0  0  0  0  0  0  0  0  0  0  0  0
  -24.3860  -36.7790   23.2910 C   0  0  0  0  0  1  0  0  0  0  0  0
  -25.6120  -36.1760   23.9950 C   0  0  0  0  0  3  0  0  0  0  0  0
  -27.8430  -36.7740   24.8310 C   0  0  0  0  0  1  0  0  0  0  0  0
  -26.7320  -37.1420   23.9570 N   0  0  0  0  0  0  0  0  0  0  0  0
  -26.4150  -38.0700   24.2240 H   0  0  0  0  0  0  0  0  0  0  0  0
  -26.3760  -31.4190   24.6290 C   0  0  1  0  0  0  0  0  0  0  0  0
  -25.4320  -31.1380   25.8200 C   0  0  0  0  0  1  0  0  0  0  0  0
  -26.8010  -30.0540   24.0330 C   0  0  0  0  0  1  0  0  0  0  0  0
  -27.6620  -32.0780   25.1830 C   0  0  0  0  0  1  0  0  0  0  0  0
  -28.3200  -21.4340   20.5650 C   0  0  0  0  0  3  0  0  0  0  0  0
  -29.5500  -20.4440   20.8770 C   0  0  0  0  0  3  0  0  0  0  0  0
  -29.2430  -18.8900   21.1370 C   0  0  0  0  0  3  0  0  0  0  0  0
  -30.4010  -17.7860   21.0050 C   0  0  0  0  0  3  0  0  0  0  0  0
  -30.0550  -16.2630   21.3790 C   0  0  0  0  0  2  0  0  0  0  0  0
  -30.8610  -15.0500   20.7310 C   0  0  0  0  0  0  0  0  0  0  0  0
  -30.6430  -12.9880   19.3400 C   0  0  0  0  0  2  0  0  0  0  0  0
  -29.6960  -13.2940   18.1550 C   0  0  0  0  0  2  0  0  0  0  0  0
  -28.2250  -13.0780   18.5590 C   0  0  0  0  0  2  0  0  0  0  0  0
  -27.8730  -13.7590   19.9060 C   0  0  0  0  0  3  0  0  0  0  0  0
  -28.9300  -13.4490   20.9880 C   0  0  0  0  0  2  0  0  0  0  0  0
  -30.2430  -13.8520   20.4680 N   0  0  0  0  0  0  0  0  0  0  0  0
  -32.0190  -15.2440   20.3480 O   0  0  0  0  0  0  0  0  0  0  0  0
  -25.4440  -14.2700   20.5710 C   0  0  0  0  0  0  0  0  0  0  0  0
  -24.3940  -13.4550   20.8990 C   0  0  0  0  0  0  0  0  0  0  0  0
  -24.9040  -12.1200   20.8650 C   0  0  0  0  0  0  0  0  0  0  0  0
  -26.5230  -13.4270   20.3530 N   0  0  0  0  0  0  0  0  0  0  0  0
  -26.2030  -12.1290   20.5920 N   0  0  0  0  0  0  0  0  0  0  0  0
  -24.2180  -10.8320   21.0180 C   0  0  0  0  0  0  0  0  0  0  0  0
  -24.6230   -9.8880   21.9870 C   0  0  0  0  0  3  0  0  0  0  0  0
  -23.9350   -8.6650   22.1270 C   0  0  0  0  0  3  0  0  0  0  0  0
  -22.8260   -8.3750   21.2960 C   0  0  0  0  0  0  0  0  0  0  0  0
  -22.4420   -9.3080   20.3150 C   0  0  0  0  0  3  0  0  0  0  0  0
  -23.1320  -10.5230   20.1750 C   0  0  0  0  0  3  0  0  0  0  0  0
  -22.1140   -7.2020   21.3420 O   0  0  0  0  0  0  0  0  0  0  0  0
  -21.9220   -6.5220   22.5180 C   0  0  0  0  0  0  0  0  0  0  0  0
  -21.2650   -7.1110   23.6200 C   0  0  0  0  0  3  0  0  0  0  0  0
  -21.0280   -6.3550   24.7860 C   0  0  0  0  0  3  0  0  0  0  0  0
  -21.4380   -5.0090   24.8470 C   0  0  0  0  0  0  0  0  0  0  0  0
  -22.0870   -4.4180   23.7490 C   0  0  0  0  0  3  0  0  0  0  0  0
  -22.3260   -5.1720   22.5860 C   0  0  0  0  0  0  0  0  0  0  0  0
  -22.9330   -4.5920   21.5230 F   0  0  0  0  0  0  0  0  0  0  0  0
  -21.2040   -4.2790   25.9640 F   0  0  0  0  0  0  0  0  0  0  0  0
  -22.9740  -13.8790   21.1380 C   0  0  0  0  0  0  0  0  0  0  0  0
  -22.2540  -13.1600   21.9910 N   0  0  0  0  0  0  0  0  0  0  0  0
  -22.5080  -14.8850   20.6030 O   0  0  0  0  0  0  0  0  0  0  0  0
  -22.6440  -12.3470   22.4460 H   0  0  0  0  0  0  0  0  0  0  0  0
  -21.3010  -13.4260   22.1940 H   0  0  0  0  0  0  0  0  0  0  0  0
  -25.5650  -15.6470   20.4160 N   0  0  0  0  0  0  0  0  0  0  0  0
  -24.7750  -16.2750   20.5200 H   0  0  0  0  0  0  0  0  0  0  0  0
  -26.4110  -16.1210   20.1260 H   0  0  0  0  0  0  0  0  0  0  0  0
  1  3  1  0
  2  6  2  0
  2  5  1  0
  3  9  1  0
  4 10  1  0
  4  3  2  0
  5  1  2  0
  6  4  1  0
  7  8  2  0
  9  7  1  0
 10 11  1  0
 11  7  1  0
 12 14  1  0
 12  6  1  0
 13 24  2  0
 14 19  1  0
 15 23  1  0
 15 25  1  0
 16 22  1  0
 16 18  1  0
 17 23  1  0
 18 17  1  0
 19 18  2  0
 20 21  1  0
 20 14  2  0
 21 16  2  0
 22 15  1  0
 23 13  1  0
 25 27  2  0
 26 25  1  0
 28 26  1  0
 29 38  2  0
 29 34  1  0
 30 26  1  0
 30 34  1  0
 31 30  1  0
 32 33  1  0
 32 31  1  0
 33 29  1  0
 34 35  2  0
 35 36  1  0
 37 36  2  0
 38 37  1  0
 39 13  1  0
 39 40  1  0
 39 49  1  0
 40 43  1  0
 41 45  1  0
 41 40  1  0
 42 41  2  0
 45 44  1  0
 47 45  1  0
 47 48  1  0
 47 46  1  0
 49 52  1  1
 49 50  1  0
 51 49  1  0
 53  5  1  0
 53 54  2  0
 54 55  1  0
 56 55  2  0
 56 57  1  0
 58 57  1  0
 59 64  1  0
 60 61  1  0
 60 59  1  0
 62 61  1  0
 62 69  1  0
 62 63  1  0
 64 58  1  0
 64 63  1  0
 65 58  2  0
 66 67  2  0
 67 86  1  0
 68 67  1  0
 68 71  1  0
 69 66  1  0
 69 70  1  0
 70 68  2  0
 71 72  1  0
 72 73  2  0
 74 77  1  0
 74 73  1  0
 75 74  2  0
 76 75  1  0
 76 71  2  0
 77 78  1  0
 78 83  2  0
 78 79  1  0
 79 80  2  0
 80 81  1  0
 81 85  1  0
 82 81  2  0
 83 82  1  0
 84 83  1  0
 86 87  1  0
 87 90  1  0
 87 89  1  0
 88 86  2  0
 91 92  1  0
 91 66  1  0
 93 91  1  0
M  ISO  4   6 101  12 101  57 100  58 100
M  END
>  <TORSDO>  (53) 
F 21

>  <SCORE>  (53) 
-11.502

>  <name>  (53) 
52

>  <ligand_id>  (53) 
52

>  <original_smiles>  (53) 
[H]C([H])=C1C([H])([H])c2c([H])c(C([H])([H])C([H])([H])C([H])([H])C([H])([H])C([H])([H])C(=O)N3C([H])([H])C([H])([H])C([H])([H])C([H])(n4nc(-c5c([H])c([H])c(Oc6c([H])c([H])c(F)c([H])c6F)c([H])c5[H])c(C(=O)N([H])[H])c4N([H])[H])C3([H])[H])c([H])c(Oc3c([H])c([H])c4c(c3[H])C([H])([H])N(C(=O)C([H])(N([H])C(=O)C([H])(N([H])C([H])([H])[H])C([H])([H])[H])C(C([H])([H])[H])(C([H])([H])[H])C([H])([H])[H])C([H])(C(=O)N([H])C3([H])c5c([H])c([H])c([H])c([H])c5C([H])([H])C([H])([H])C3([H])[H])C4([H])[H])c2C([H])([H])C1([H])[H]

>  <smiles>  (53) 
[H]C([H])=C1C([H])([H])c2c([H])c(C([H])([H])C([H])([H])C([H])([H])C([H])([H])C([H])([H])C(=O)N3C([H])([H])C([H])([H])C([H])([H])C([H])(n4nc(-c5c([H])c([H])c(Oc6c([H])c([H])c(F)c([H])c6F)c([H])c5[H])c(C(=O)N([H])[H])c4N([H])[H])C3([H])[H])c([H])c(Oc3c([H])c([H])c4c(c3[H])C([H])([H])N(C(=O)C([H])(N([H])C(=O)C([H])(N([H])C([H])([H])[H])C([H])([H])[H])C(C([H])([H])[H])(C([H])([H])[H])C([H])([H])[H])C([H])(C(=O)N([H])C3([H])c5c([H])c([H])c([H])c([H])c5C([H])([H])C([H])([H])C3([H])[H])C4([H])[H])c2C([H])([H])C1([H])[H]

$$$$
53:0:0
     RDKit          3D

 88 96  0  0  1  0  0  0  0  0999 V2000
  -28.6540  -21.6730   19.1670 C   0  0  0  0  0  3  0  0  0  0  0  0
  -28.3100  -23.1520   19.1350 C   0  0  0  0  0  3  0  0  0  0  0  0
  -29.1460  -20.8060   20.2650 C   0  0  0  0  0  0  0  0  0  0  0  0
  -29.1880  -21.8280   21.3450 C   0  0  0  0  0  0  0  0  0  0  0  0
  -28.3490  -24.1810   20.1990 C   0  0  0  0  0  0  0  0  0  0  0  0
  -28.8370  -23.3200   21.3100 C   0  0  0  0  0  0  0  0  0  0  0  0
  -29.0520  -23.9920   22.4680 F   0  0  0  0  0  0  0  0  0  0  0  0
  -31.2310  -21.5300   22.8240 C   0  0  0  0  0  1  0  0  0  0  0  0
  -29.7200  -21.3120   22.6740 C   0  0  0  0  0  2  0  0  0  0  0  0
  -28.2730  -25.7760   20.1230 O   0  0  0  0  0  0  0  0  0  0  0  0
  -24.6950  -31.8820   23.1670 C   0  0  0  0  0  0  0  0  0  0  0  0
  -27.2310  -26.8980   20.1250 C   0  0  0  0  0  0  0  0  0  0  0  0
  -23.4940  -30.4820   21.5390 C   0  0  0  0  0  3  0  0  0  0  0  0
  -24.9330  -28.8600   20.1020 C   0  0  0  0  0  0  0  0  0  0  0  0
  -26.0640  -30.6650   21.3790 C   0  0  0  0  0  2  0  0  0  0  0  0
  -26.1290  -29.2420   20.7210 C   0  0  0  0  0  0  0  0  0  0  0  0
  -27.2620  -28.2850   20.7050 C   0  0  0  0  0  3  0  0  0  0  0  0
  -26.0020  -26.7060   19.4490 C   0  0  0  0  0  3  0  0  0  0  0  0
  -24.9020  -27.6160   19.4450 C   0  0  0  0  0  3  0  0  0  0  0  0
  -23.7180  -29.7940   20.1620 C   0  0  0  0  0  2  0  0  0  0  0  0
  -24.7750  -31.0420   22.0800 N   0  0  0  0  0  0  0  0  0  0  0  0
  -23.6090  -32.1700   23.6960 O   0  0  0  0  0  0  0  0  0  0  0  0
  -22.8050  -29.4920   22.5140 C   0  0  0  0  0  0  0  0  0  0  0  0
  -21.4740  -29.3170   22.3970 N   0  0  0  0  0  0  0  0  0  0  0  0
  -23.4770  -28.8780   23.3460 O   0  0  0  0  0  0  0  0  0  0  0  0
  -20.9820  -29.8630   21.7040 H   0  0  0  0  0  0  0  0  0  0  0  0
  -18.1090  -28.0560   22.9240 C   0  0  0  0  0  0  0  0  0  0  0  0
  -20.6650  -28.3700   23.1750 C   0  0  0  0  0  3  0  0  0  0  0  0
  -20.7890  -26.9370   22.6080 C   0  0  0  0  0  2  0  0  0  0  0  0
  -19.6910  -26.5910   21.5980 C   0  0  0  0  0  2  0  0  0  0  0  0
  -18.3090  -26.7100   22.2460 C   0  0  0  0  0  2  0  0  0  0  0  0
  -19.2150  -28.8420   23.3450 C   0  0  0  0  0  0  0  0  0  0  0  0
  -18.9710  -30.0970   23.9440 C   0  0  0  0  0  3  0  0  0  0  0  0
  -17.6560  -30.5680   24.1210 C   0  0  0  0  0  3  0  0  0  0  0  0
  -16.5660  -29.7810   23.7120 C   0  0  0  0  0  3  0  0  0  0  0  0
  -16.7930  -28.5260   23.1200 C   0  0  0  0  0  3  0  0  0  0  0  0
  -25.9660  -32.5360   23.7920 C   0  0  0  0  0  3  0  0  0  0  0  0
  -26.4980  -31.7610   25.0620 C   0  0  1  0  0  0  0  0  0  0  0  0
  -25.4160  -31.5090   26.1390 C   0  0  0  0  0  1  0  0  0  0  0  0
  -27.0890  -30.3900   24.6670 C   0  0  0  0  0  1  0  0  0  0  0  0
  -27.6480  -32.5610   25.7190 C   0  0  0  0  0  1  0  0  0  0  0  0
  -25.6330  -33.9260   24.1570 N   0  0  0  0  0  0  0  0  0  0  0  0
  -25.9310  -35.0080   23.4250 C   0  0  0  0  0  0  0  0  0  0  0  0
  -26.5730  -34.9420   22.3740 O   0  0  0  0  0  0  0  0  0  0  0  0
  -25.0550  -34.0490   24.9760 H   0  0  0  0  0  0  0  0  0  0  0  0
  -24.1680  -36.7930   23.1800 C   0  0  0  0  0  1  0  0  0  0  0  0
  -25.4420  -36.3810   23.9360 C   0  0  0  0  0  3  0  0  0  0  0  0
  -27.5900  -37.2830   24.7170 C   0  0  0  0  0  1  0  0  0  0  0  0
  -26.4570  -37.4520   23.8120 N   0  0  0  0  0  0  0  0  0  0  0  0
  -26.0420  -38.3630   23.9900 H   0  0  0  0  0  0  0  0  0  0  0  0
  -29.8690  -19.1130   20.1610 C   0  0  0  0  0  3  0  0  0  0  0  0
  -29.5580  -17.2780   20.5090 C   0  0  0  0  0  3  0  0  0  0  0  0
  -30.4020  -15.6590   20.2710 C   0  0  0  0  0  0  0  0  0  0  0  0
  -30.4880  -13.1480   19.4080 C   0  0  0  0  0  2  0  0  0  0  0  0
  -29.5780  -12.8600   18.1800 C   0  0  0  0  0  2  0  0  0  0  0  0
  -28.1410  -12.5330   18.6210 C   0  0  0  0  0  2  0  0  0  0  0  0
  -27.6610  -13.4960   19.7300 C   0  0  0  0  0  3  0  0  0  0  0  0
  -28.7020  -13.7110   20.8510 C   0  0  0  0  0  2  0  0  0  0  0  0
  -29.9090  -14.2940   20.2300 N   0  0  0  0  0  0  0  0  0  0  0  0
  -31.6200  -15.6350   20.0130 O   0  0  0  0  0  0  0  0  0  0  0  0
  -25.2970  -14.0210   20.5070 C   0  0  0  0  0  0  0  0  0  0  0  0
  -24.2420  -13.2340   20.8720 C   0  0  0  0  0  0  0  0  0  0  0  0
  -24.7170  -11.8870   20.8300 C   0  0  0  0  0  0  0  0  0  0  0  0
  -26.3430  -13.1540   20.2480 N   0  0  0  0  0  0  0  0  0  0  0  0
  -26.0090  -11.8640   20.5120 N   0  0  0  0  0  0  0  0  0  0  0  0
  -23.9950  -10.6200   21.0130 C   0  0  0  0  0  0  0  0  0  0  0  0
  -24.4140   -9.6580   21.9590 C   0  0  0  0  0  3  0  0  0  0  0  0
  -23.6880   -8.4590   22.1310 C   0  0  0  0  0  3  0  0  0  0  0  0
  -22.5290   -8.2130   21.3580 C   0  0  0  0  0  0  0  0  0  0  0  0
  -22.1300   -9.1630   20.4010 C   0  0  0  0  0  3  0  0  0  0  0  0
  -22.8560  -10.3530   20.2270 C   0  0  0  0  0  3  0  0  0  0  0  0
  -21.7780   -7.0660   21.4380 O   0  0  0  0  0  0  0  0  0  0  0  0
  -21.6820   -6.3470   22.6030 C   0  0  0  0  0  0  0  0  0  0  0  0
  -21.1840   -6.9210   23.7930 C   0  0  0  0  0  3  0  0  0  0  0  0
  -21.0370   -6.1290   24.9490 C   0  0  0  0  0  3  0  0  0  0  0  0
  -21.3780   -4.7640   24.9150 C   0  0  0  0  0  0  0  0  0  0  0  0
  -21.8690   -4.1890   23.7290 C   0  0  0  0  0  3  0  0  0  0  0  0
  -22.0170   -4.9790   22.5760 C   0  0  0  0  0  0  0  0  0  0  0  0
  -22.4700   -4.4150   21.4300 F   0  0  0  0  0  0  0  0  0  0  0  0
  -21.2310   -4.0000   26.0240 F   0  0  0  0  0  0  0  0  0  0  0  0
  -22.8430  -13.7030   21.1460 C   0  0  0  0  0  0  0  0  0  0  0  0
  -22.1220  -13.0060   22.0150 N   0  0  0  0  0  0  0  0  0  0  0  0
  -22.3990  -14.7250   20.6220 O   0  0  0  0  0  0  0  0  0  0  0  0
  -22.4960  -12.1800   22.4610 H   0  0  0  0  0  0  0  0  0  0  0  0
  -21.1830  -13.3030   22.2420 H   0  0  0  0  0  0  0  0  0  0  0  0
  -25.4520  -15.3940   20.3430 N   0  0  0  0  0  0  0  0  0  0  0  0
  -24.6840  -16.0440   20.4700 H   0  0  0  0  0  0  0  0  0  0  0  0
  -26.3010  -15.8430   20.0230 H   0  0  0  0  0  0  0  0  0  0  0  0
  1  3  1  0
  2  1  2  0
  2  5  1  0
  3  4  2  0
  4  9  1  0
  5  6  2  0
  6  4  1  0
  6  7  1  0
  9  8  1  0
 10 12  1  0
 10  5  1  0
 11 22  2  0
 12 17  1  0
 13 21  1  0
 13 23  1  0
 14 20  1  0
 14 16  1  0
 15 21  1  0
 16 15  1  0
 17 16  2  0
 18 12  2  0
 19 18  1  0
 19 14  2  0
 20 13  1  0
 21 11  1  0
 23 25  2  0
 24 23  1  0
 26 24  1  0
 27 36  2  0
 27 32  1  0
 28 24  1  0
 28 32  1  0
 29 28  1  0
 30 31  1  0
 30 29  1  0
 31 27  1  0
 32 33  2  0
 33 34  1  0
 35 34  2  0
 36 35  1  0
 37 11  1  0
 37 42  1  0
 37 38  1  0
 38 41  1  1
 38 39  1  0
 40 38  1  0
 42 45  1  0
 43 47  1  0
 43 42  1  0
 44 43  2  0
 47 46  1  0
 49 47  1  0
 49 50  1  0
 49 48  1  0
 51  3  1  0
 51 52  2  0
 53 52  1  0
 54 59  1  0
 55 56  1  0
 55 54  1  0
 57 56  1  0
 57 64  1  0
 57 58  1  0
 59 53  1  0
 59 58  1  0
 60 53  2  0
 61 62  2  0
 62 81  1  0
 63 62  1  0
 63 66  1  0
 64 61  1  0
 64 65  1  0
 65 63  2  0
 66 67  1  0
 67 68  2  0
 69 72  1  0
 69 68  1  0
 70 69  2  0
 71 70  1  0
 71 66  2  0
 72 73  1  0
 73 74  1  0
 74 75  2  0
 76 75  1  0
 76 80  1  0
 77 76  2  0
 78 73  2  0
 78 77  1  0
 79 78  1  0
 81 82  1  0
 82 85  1  0
 82 84  1  0
 83 81  2  0
 86 87  1  0
 86 61  1  0
 88 86  1  0
M  ISO  4   5 101  10 101  52 100  53 100
M  END
>  <TORSDO>  (54) 
F 19

>  <SCORE>  (54) 
-15.554

>  <name>  (54) 
53

>  <ligand_id>  (54) 
53

>  <original_smiles>  (54) 
[H]c1c([H])c([H])c2c(c1[H])C([H])([H])C([H])([H])C([H])([H])C2([H])N([H])C(=O)C1([H])N(C(=O)C([H])(N([H])C(=O)C([H])(N([H])C([H])([H])[H])C([H])([H])[H])C(C([H])([H])[H])(C([H])([H])[H])C([H])([H])[H])C([H])([H])c2c([H])c(Oc3c([H])c([H])c(C([H])([H])C([H])([H])C(=O)N4C([H])([H])C([H])([H])C([H])([H])C([H])(n5nc(-c6c([H])c([H])c(Oc7c([H])c([H])c(F)c([H])c7F)c([H])c6[H])c(C(=O)N([H])[H])c5N([H])[H])C4([H])[H])c(C([H])([H])C([H])([H])[H])c3F)c([H])c([H])c2C1([H])[H]

>  <smiles>  (54) 
[H]c1c([H])c([H])c2c(c1[H])C([H])([H])C([H])([H])C([H])([H])C2([H])N([H])C(=O)C1([H])N(C(=O)C([H])(N([H])C(=O)C([H])(N([H])C([H])([H])[H])C([H])([H])[H])C(C([H])([H])[H])(C([H])([H])[H])C([H])([H])[H])C([H])([H])c2c([H])c(Oc3c([H])c([H])c(C([H])([H])C([H])([H])C(=O)N4C([H])([H])C([H])([H])C([H])([H])C([H])(n5nc(-c6c([H])c([H])c(Oc7c([H])c([H])c(F)c([H])c7F)c([H])c6[H])c(C(=O)N([H])[H])c5N([H])[H])C4([H])[H])c(C([H])([H])C([H])([H])[H])c3F)c([H])c([H])c2C1([H])[H]

$$$$
54:0:0
     RDKit          3D

 91100  0  0  1  0  0  0  0  0999 V2000
  -28.2280  -22.5780   21.2590 C   0  0  0  0  0  2  0  0  0  0  0  0
  -29.3470  -22.7300   19.0640 C   0  0  0  0  0  2  0  0  0  0  0  0
  -28.2520  -24.1620   21.3870 C   0  0  0  0  0  2  0  0  0  0  0  0
  -29.3780  -24.3120   19.2010 C   0  0  0  0  0  2  0  0  0  0  0  0
  -29.3820  -21.9360   20.4110 C   0  0  0  0  0  3  0  0  0  0  0  0
  -28.2280  -24.9630   20.0420 C   0  0  0  0  0  3  0  0  0  0  0  0
  -30.6630  -19.6390   19.9450 C   0  0  0  0  0  3  0  0  0  0  0  0
  -28.4230  -19.4620   20.7420 C   0  0  0  0  0  3  0  0  0  0  0  0
  -30.8010  -18.2030   19.9640 C   0  0  0  0  0  3  0  0  0  0  0  0
  -28.5570  -18.0340   20.7630 C   0  0  0  0  0  3  0  0  0  0  0  0
  -29.4730  -20.3320   20.3380 C   0  0  0  0  0  0  0  0  0  0  0  0
  -29.7460  -17.3400   20.3860 C   0  0  0  0  0  0  0  0  0  0  0  0
  -30.5820  -14.8250   20.0320 C   0  0  0  0  0  0  0  0  0  0  0  0
  -30.3800  -12.5740   18.9530 C   0  0  0  0  0  2  0  0  0  0  0  0
  -29.3610  -12.6810   17.7940 C   0  0  0  0  0  2  0  0  0  0  0  0
  -27.9190  -12.4880   18.3040 C   0  0  0  0  0  2  0  0  0  0  0  0
  -27.6200  -13.3310   19.5720 C   0  0  0  0  0  3  0  0  0  0  0  0
  -28.7430  -13.1790   20.6220 C   0  0  0  0  0  2  0  0  0  0  0  0
  -30.0050  -13.5740   19.9770 N   0  0  0  0  0  0  0  0  0  0  0  0
  -31.7200  -15.0060   19.5890 O   0  0  0  0  0  0  0  0  0  0  0  0
  -29.7570  -15.8540   20.4560 N   0  0  0  0  0  0  0  0  0  0  0  0
  -28.9010  -15.4760   20.8320 H   0  0  0  0  0  0  0  0  0  0  0  0
  -25.2780  -13.9030   20.4560 C   0  0  0  0  0  0  0  0  0  0  0  0
  -24.2330  -13.1190   20.8650 C   0  0  0  0  0  0  0  0  0  0  0  0
  -24.6910  -11.7690   20.7600 C   0  0  0  0  0  0  0  0  0  0  0  0
  -26.3030  -13.0300   20.1280 N   0  0  0  0  0  0  0  0  0  0  0  0
  -25.9590  -11.7400   20.3730 N   0  0  0  0  0  0  0  0  0  0  0  0
  -23.9730  -10.5010   20.9520 C   0  0  0  0  0  0  0  0  0  0  0  0
  -24.4140   -9.5370   21.8840 C   0  0  0  0  0  3  0  0  0  0  0  0
  -23.6980   -8.3340   22.0630 C   0  0  0  0  0  3  0  0  0  0  0  0
  -22.5250   -8.0880   21.3090 C   0  0  0  0  0  0  0  0  0  0  0  0
  -22.1040   -9.0410   20.3660 C   0  0  0  0  0  3  0  0  0  0  0  0
  -22.8210  -10.2350   20.1860 C   0  0  0  0  0  3  0  0  0  0  0  0
  -21.7800   -6.9370   21.3980 O   0  0  0  0  0  0  0  0  0  0  0  0
  -21.6730   -6.2360   22.5730 C   0  0  0  0  0  0  0  0  0  0  0  0
  -21.1600   -6.8270   23.7480 C   0  0  0  0  0  3  0  0  0  0  0  0
  -21.0030   -6.0520   24.9140 C   0  0  0  0  0  3  0  0  0  0  0  0
  -21.3500   -4.6870   24.9070 C   0  0  0  0  0  0  0  0  0  0  0  0
  -21.8560   -4.0960   23.7360 C   0  0  0  0  0  3  0  0  0  0  0  0
  -22.0140   -4.8690   22.5710 C   0  0  0  0  0  0  0  0  0  0  0  0
  -22.4830   -4.2900   21.4400 F   0  0  0  0  0  0  0  0  0  0  0  0
  -21.1910   -3.9410   26.0240 F   0  0  0  0  0  0  0  0  0  0  0  0
  -22.8570  -13.5880   21.2350 C   0  0  0  0  0  0  0  0  0  0  0  0
  -22.1820  -12.8650   22.1230 N   0  0  0  0  0  0  0  0  0  0  0  0
  -22.3890  -14.6280   20.7730 O   0  0  0  0  0  0  0  0  0  0  0  0
  -22.5730  -12.0240   22.5180 H   0  0  0  0  0  0  0  0  0  0  0  0
  -21.2590  -13.1610   22.4130 H   0  0  0  0  0  0  0  0  0  0  0  0
  -25.4340  -15.2790   20.3120 N   0  0  0  0  0  0  0  0  0  0  0  0
  -24.6680  -15.9230   20.4750 H   0  0  0  0  0  0  0  0  0  0  0  0
  -26.2390  -15.7230   19.8910 H   0  0  0  0  0  0  0  0  0  0  0  0
  -28.3220  -26.4670   20.1760 O   0  0  0  0  0  0  0  0  0  0  0  0
  -24.6040  -31.9110   23.2410 C   0  0  0  0  0  0  0  0  0  0  0  0
  -27.1930  -27.3240   20.1490 C   0  0  0  0  0  0  0  0  0  0  0  0
  -23.3940  -30.5280   21.5930 C   0  0  0  0  0  3  0  0  0  0  0  0
  -24.8370  -28.9810   20.1530 C   0  0  0  0  0  0  0  0  0  0  0  0
  -25.9380  -30.8280   21.4120 C   0  0  0  0  0  2  0  0  0  0  0  0
  -26.0110  -29.4510   20.7530 C   0  0  0  0  0  0  0  0  0  0  0  0
  -27.1890  -28.6360   20.7390 C   0  0  0  0  0  3  0  0  0  0  0  0
  -25.9920  -26.9280   19.5140 C   0  0  0  0  0  3  0  0  0  0  0  0
  -24.8330  -27.7290   19.5230 C   0  0  0  0  0  3  0  0  0  0  0  0
  -23.6050  -29.8630   20.2080 C   0  0  0  0  0  2  0  0  0  0  0  0
  -24.6640  -31.1080   22.1380 N   0  0  0  0  0  0  0  0  0  0  0  0
  -23.5210  -32.1880   23.7780 O   0  0  0  0  0  0  0  0  0  0  0  0
  -22.7280  -29.5070   22.5480 C   0  0  0  0  0  0  0  0  0  0  0  0
  -21.4020  -29.3300   22.4190 N   0  0  0  0  0  0  0  0  0  0  0  0
  -23.4060  -28.8760   23.3640 O   0  0  0  0  0  0  0  0  0  0  0  0
  -20.9150  -29.8900   21.7330 H   0  0  0  0  0  0  0  0  0  0  0  0
  -18.0220  -28.1400   22.9210 C   0  0  0  0  0  0  0  0  0  0  0  0
  -20.5830  -28.3890   23.1830 C   0  0  0  0  0  3  0  0  0  0  0  0
  -20.6770  -26.9630   22.5930 C   0  0  0  0  0  2  0  0  0  0  0  0
  -19.5710  -26.6530   21.5800 C   0  0  0  0  0  2  0  0  0  0  0  0
  -18.1920  -26.7970   22.2300 C   0  0  0  0  0  2  0  0  0  0  0  0
  -19.1450  -28.8940   23.3540 C   0  0  0  0  0  0  0  0  0  0  0  0
  -18.9330  -30.1510   23.9600 C   0  0  0  0  0  3  0  0  0  0  0  0
  -17.6290  -30.6550   24.1370 C   0  0  0  0  0  3  0  0  0  0  0  0
  -16.5220  -29.8980   23.7190 C   0  0  0  0  0  3  0  0  0  0  0  0
  -16.7190  -28.6410   23.1170 C   0  0  0  0  0  3  0  0  0  0  0  0
  -25.8870  -32.5370   23.8670 C   0  0  0  0  0  3  0  0  0  0  0  0
  -25.5810  -33.9340   24.2060 N   0  0  0  0  0  0  0  0  0  0  0  0
  -25.8930  -34.9910   23.4430 C   0  0  0  0  0  0  0  0  0  0  0  0
  -26.5380  -34.8920   22.3960 O   0  0  0  0  0  0  0  0  0  0  0  0
  -25.0050  -34.0850   25.0210 H   0  0  0  0  0  0  0  0  0  0  0  0
  -24.1420  -36.7740   23.1500 C   0  0  0  0  0  1  0  0  0  0  0  0
  -25.4150  -36.3760   23.9160 C   0  0  0  0  0  3  0  0  0  0  0  0
  -27.5690  -37.2780   24.6720 C   0  0  0  0  0  1  0  0  0  0  0  0
  -26.4350  -37.4370   23.7660 N   0  0  0  0  0  0  0  0  0  0  0  0
  -26.0280  -38.3550   23.9250 H   0  0  0  0  0  0  0  0  0  0  0  0
  -26.4010  -31.7580   25.1390 C   0  0  1  0  0  0  0  0  0  0  0  0
  -25.3060  -31.5150   26.2050 C   0  0  0  0  0  1  0  0  0  0  0  0
  -26.9840  -30.3820   24.7430 C   0  0  0  0  0  1  0  0  0  0  0  0
  -27.5510  -32.5480   25.8080 C   0  0  0  0  0  1  0  0  0  0  0  0
  1  3  1  0
  2  4  1  0
  2  5  1  0
  4  6  1  0
  5 11  1  0
  5  1  1  0
  6 51  1  0
  6  3  1  0
  7  9  2  0
  7 11  1  0
  8 10  1  0
  9 12  1  0
 11  8  2  0
 12 21  1  0
 12 10  2  0
 13 21  1  0
 14 19  1  0
 15 16  1  0
 15 14  1  0
 17 16  1  0
 17 26  1  0
 17 18  1  0
 19 13  1  0
 19 18  1  0
 20 13  2  0
 21 22  1  0
 23 24  2  0
 24 43  1  0
 25 24  1  0
 25 28  1  0
 26 27  1  0
 26 23  1  0
 27 25  2  0
 28 29  1  0
 29 30  2  0
 31 34  1  0
 31 30  1  0
 32 31  2  0
 33 32  1  0
 33 28  2  0
 34 35  1  0
 35 36  1  0
 36 37  2  0
 38 37  1  0
 38 42  1  0
 39 38  2  0
 40 35  2  0
 40 39  1  0
 41 40  1  0
 43 44  1  0
 44 47  1  0
 44 46  1  0
 45 43  2  0
 48 23  1  0
 48 49  1  0
 50 48  1  0
 52 63  2  0
 53 51  1  0
 53 58  1  0
 54 62  1  0
 54 64  1  0
 55 61  1  0
 55 57  1  0
 56 62  1  0
 57 56  1  0
 58 57  2  0
 59 60  1  0
 59 53  2  0
 60 55  2  0
 61 54  1  0
 62 52  1  0
 64 66  2  0
 65 64  1  0
 67 65  1  0
 68 77  2  0
 68 73  1  0
 69 65  1  0
 69 73  1  0
 70 69  1  0
 71 72  1  0
 71 70  1  0
 72 68  1  0
 73 74  2  0
 74 75  1  0
 76 75  2  0
 77 76  1  0
 78 52  1  0
 78 79  1  0
 78 88  1  0
 79 82  1  0
 80 84  1  0
 80 79  1  0
 81 80  2  0
 84 83  1  0
 86 84  1  0
 86 87  1  0
 86 85  1  0
 88 91  1  1
 88 89  1  0
 90 88  1  0
M  ISO  4   6 101  13 100  21 100  51 101
M  END
>  <TORSDO>  (55) 
F 17

>  <SCORE>  (55) 
-14.881

>  <name>  (55) 
54

>  <ligand_id>  (55) 
54

>  <original_smiles>  (55) 
[H]c1c([H])c([H])c2c(c1[H])C([H])([H])C([H])([H])C([H])([H])C2([H])N([H])C(=O)C1([H])N(C(=O)C([H])(N([H])C(=O)C([H])(N([H])C([H])([H])[H])C([H])([H])[H])C(C([H])([H])[H])(C([H])([H])[H])C([H])([H])[H])C([H])([H])c2c([H])c(OC3([H])C([H])([H])C([H])([H])C([H])(c4c([H])c([H])c(N([H])C(=O)N5C([H])([H])C([H])([H])C([H])([H])C([H])(n6nc(-c7c([H])c([H])c(Oc8c([H])c([H])c(F)c([H])c8F)c([H])c7[H])c(C(=O)N([H])[H])c6N([H])[H])C5([H])[H])c([H])c4[H])C([H])([H])C3([H])[H])c([H])c([H])c2C1([H])[H]

>  <smiles>  (55) 
[H]c1c([H])c([H])c2c(c1[H])C([H])([H])C([H])([H])C([H])([H])C2([H])N([H])C(=O)C1([H])N(C(=O)C([H])(N([H])C(=O)C([H])(N([H])C([H])([H])[H])C([H])([H])[H])C(C([H])([H])[H])(C([H])([H])[H])C([H])([H])[H])C([H])([H])c2c([H])c(OC3([H])C([H])([H])C([H])([H])C([H])(c4c([H])c([H])c(N([H])C(=O)N5C([H])([H])C([H])([H])C([H])([H])C([H])(n6nc(-c7c([H])c([H])c(Oc8c([H])c([H])c(F)c([H])c8F)c([H])c7[H])c(C(=O)N([H])[H])c6N([H])[H])C5([H])[H])c([H])c4[H])C([H])([H])C3([H])[H])c([H])c([H])c2C1([H])[H]

$$$$
55:0:0
     RDKit          3D

 90 99  0  0  1  0  0  0  0  0999 V2000
  -28.6220  -20.5280   18.9230 C   0  0  0  0  0  3  0  0  0  0  0  0
  -28.2140  -21.9560   18.9810 C   0  0  0  0  0  3  0  0  0  0  0  0
  -29.4350  -22.2780   20.9240 C   0  0  0  0  0  3  0  0  0  0  0  0
  -29.4680  -19.8610   19.8890 C   0  0  0  0  0  0  0  0  0  0  0  0
  -29.8430  -20.8460   20.8550 C   0  0  0  0  0  0  0  0  0  0  0  0
  -28.5750  -22.9760   19.9690 C   0  0  0  0  0  0  0  0  0  0  0  0
  -30.7980  -20.1630   21.8140 C   0  0  0  0  0  2  0  0  0  0  0  0
  -30.2790  -18.3620   20.0120 C   0  0  0  0  0  3  0  0  0  0  0  0
  -30.9730  -18.6530   21.3850 C   0  0  0  0  0  3  0  0  0  0  0  0
  -32.4450  -18.2090   21.4340 C   0  0  0  0  0  1  0  0  0  0  0  0
  -30.6610  -15.4960   19.8170 C   0  0  0  0  0  0  0  0  0  0  0  0
  -30.6010  -13.0450   18.9970 C   0  0  0  0  0  2  0  0  0  0  0  0
  -29.6200  -12.8110   17.8220 C   0  0  0  0  0  2  0  0  0  0  0  0
  -28.1990  -12.5410   18.3460 C   0  0  0  0  0  2  0  0  0  0  0  0
  -27.7970  -13.5260   19.4730 C   0  0  0  0  0  3  0  0  0  0  0  0
  -28.9020  -13.7100   20.5350 C   0  0  0  0  0  2  0  0  0  0  0  0
  -30.0920  -14.1970   19.8210 N   0  0  0  0  0  0  0  0  0  0  0  0
  -31.8680  -15.5000   19.5410 O   0  0  0  0  0  0  0  0  0  0  0  0
  -29.9050  -16.7560   19.9260 N   0  0  0  0  0  0  0  0  0  0  0  0
  -28.9170  -16.5880   20.0430 H   0  0  0  0  0  0  0  0  0  0  0  0
  -25.4850  -14.0720   20.4030 C   0  0  0  0  0  0  0  0  0  0  0  0
  -24.4450  -13.2890   20.8160 C   0  0  0  0  0  0  0  0  0  0  0  0
  -24.9000  -11.9380   20.7090 C   0  0  0  0  0  0  0  0  0  0  0  0
  -26.5040  -13.2010   20.0620 N   0  0  0  0  0  0  0  0  0  0  0  0
  -26.1680  -11.9090   20.3140 N   0  0  0  0  0  0  0  0  0  0  0  0
  -24.1780  -10.6730   20.9040 C   0  0  0  0  0  0  0  0  0  0  0  0
  -24.6180   -9.7060   21.8340 C   0  0  0  0  0  3  0  0  0  0  0  0
  -23.8930   -8.5080   22.0190 C   0  0  0  0  0  3  0  0  0  0  0  0
  -22.7150   -8.2690   21.2720 C   0  0  0  0  0  0  0  0  0  0  0  0
  -22.2950   -9.2260   20.3310 C   0  0  0  0  0  3  0  0  0  0  0  0
  -23.0190  -10.4140   20.1460 C   0  0  0  0  0  3  0  0  0  0  0  0
  -21.9610   -7.1240   21.3660 O   0  0  0  0  0  0  0  0  0  0  0  0
  -21.8570   -6.4260   22.5420 C   0  0  0  0  0  0  0  0  0  0  0  0
  -21.2820   -6.9950   23.6990 C   0  0  0  0  0  3  0  0  0  0  0  0
  -21.1320   -6.2190   24.8650 C   0  0  0  0  0  3  0  0  0  0  0  0
  -21.5460   -4.8740   24.8750 C   0  0  0  0  0  0  0  0  0  0  0  0
  -22.1120   -4.3030   23.7220 C   0  0  0  0  0  3  0  0  0  0  0  0
  -22.2650   -5.0770   22.5580 C   0  0  0  0  0  0  0  0  0  0  0  0
  -22.7920   -4.5150   21.4440 F   0  0  0  0  0  0  0  0  0  0  0  0
  -21.3940   -4.1260   25.9930 F   0  0  0  0  0  0  0  0  0  0  0  0
  -23.0710  -13.7630   21.1880 C   0  0  0  0  0  0  0  0  0  0  0  0
  -22.4000  -13.0520   22.0870 N   0  0  0  0  0  0  0  0  0  0  0  0
  -22.6050  -14.8000   20.7170 O   0  0  0  0  0  0  0  0  0  0  0  0
  -22.7930  -12.2130   22.4890 H   0  0  0  0  0  0  0  0  0  0  0  0
  -21.4810  -13.3520   22.3800 H   0  0  0  0  0  0  0  0  0  0  0  0
  -25.6430  -15.4490   20.2590 N   0  0  0  0  0  0  0  0  0  0  0  0
  -24.8840  -16.0970   20.4360 H   0  0  0  0  0  0  0  0  0  0  0  0
  -26.4560  -15.8940   19.8550 H   0  0  0  0  0  0  0  0  0  0  0  0
  -27.7820  -24.5270   20.0570 C   0  0  0  0  0  2  0  0  0  0  0  0
  -28.1820  -26.1020   20.2070 O   0  0  0  0  0  0  0  0  0  0  0  0
  -24.6510  -31.9870   23.3220 C   0  0  0  0  0  0  0  0  0  0  0  0
  -27.1800  -27.2010   20.1750 C   0  0  0  0  0  0  0  0  0  0  0  0
  -23.4370  -30.6160   21.6790 C   0  0  0  0  0  3  0  0  0  0  0  0
  -24.8700  -29.0560   20.2030 C   0  0  0  0  0  0  0  0  0  0  0  0
  -25.9990  -30.8520   21.4930 C   0  0  0  0  0  2  0  0  0  0  0  0
  -26.0650  -29.4570   20.8110 C   0  0  0  0  0  0  0  0  0  0  0  0
  -27.2170  -28.5510   20.7750 C   0  0  0  0  0  3  0  0  0  0  0  0
  -25.9520  -26.9530   19.5200 C   0  0  0  0  0  3  0  0  0  0  0  0
  -24.8360  -27.8230   19.5360 C   0  0  0  0  0  3  0  0  0  0  0  0
  -23.6460  -29.9630   20.2870 C   0  0  0  0  0  2  0  0  0  0  0  0
  -24.7180  -31.1770   22.2180 N   0  0  0  0  0  0  0  0  0  0  0  0
  -23.5690  -32.2600   23.8680 O   0  0  0  0  0  0  0  0  0  0  0  0
  -22.7650  -29.5960   22.6360 C   0  0  0  0  0  0  0  0  0  0  0  0
  -21.4450  -29.3780   22.4850 N   0  0  0  0  0  0  0  0  0  0  0  0
  -23.4380  -29.0020   23.4810 O   0  0  0  0  0  0  0  0  0  0  0  0
  -20.9540  -29.9100   21.7820 H   0  0  0  0  0  0  0  0  0  0  0  0
  -18.1130  -28.0030   22.9000 C   0  0  0  0  0  0  0  0  0  0  0  0
  -20.6450  -28.4130   23.2470 C   0  0  0  0  0  3  0  0  0  0  0  0
  -20.8430  -26.9760   22.7090 C   0  0  0  0  0  2  0  0  0  0  0  0
  -19.7970  -26.5740   21.6640 C   0  0  0  0  0  2  0  0  0  0  0  0
  -18.3870  -26.6540   22.2560 C   0  0  0  0  0  2  0  0  0  0  0  0
  -19.1720  -28.8350   23.3510 C   0  0  0  0  0  0  0  0  0  0  0  0
  -18.8610  -30.0920   23.9140 C   0  0  0  0  0  3  0  0  0  0  0  0
  -17.5260  -30.5200   24.0280 C   0  0  0  0  0  3  0  0  0  0  0  0
  -16.4810  -29.6870   23.5920 C   0  0  0  0  0  3  0  0  0  0  0  0
  -16.7750  -28.4300   23.0340 C   0  0  0  0  0  3  0  0  0  0  0  0
  -25.9290  -32.6240   23.9450 C   0  0  0  0  0  3  0  0  0  0  0  0
  -25.6280  -34.0330   24.2550 N   0  0  0  0  0  0  0  0  0  0  0  0
  -25.9340  -35.0740   23.4690 C   0  0  0  0  0  0  0  0  0  0  0  0
  -26.5630  -34.9490   22.4150 O   0  0  0  0  0  0  0  0  0  0  0  0
  -25.0660  -34.2030   25.0760 H   0  0  0  0  0  0  0  0  0  0  0  0
  -24.1880  -36.8650   23.1730 C   0  0  0  0  0  1  0  0  0  0  0  0
  -25.4720  -36.4750   23.9220 C   0  0  0  0  0  3  0  0  0  0  0  0
  -27.6380  -37.3930   24.6290 C   0  0  0  0  0  1  0  0  0  0  0  0
  -26.4970  -37.5250   23.7270 N   0  0  0  0  0  0  0  0  0  0  0  0
  -26.0950  -38.4490   23.8570 H   0  0  0  0  0  0  0  0  0  0  0  0
  -26.4230  -31.8760   25.2450 C   0  0  1  0  0  0  0  0  0  0  0  0
  -25.3140  -31.6660   26.3030 C   0  0  0  0  0  1  0  0  0  0  0  0
  -27.0040  -30.4870   24.8960 C   0  0  0  0  0  1  0  0  0  0  0  0
  -27.5690  -32.6770   25.9060 C   0  0  0  0  0  1  0  0  0  0  0  0
  1  2  2  0
  1  4  1  0
  2  6  1  0
  4  8  1  0
  4  5  2  0
  5  3  1  0
  5  7  1  0
  6 49  1  0
  6  3  2  0
  8 19  1  0
  8  9  1  0
  9 10  1  0
  9  7  1  0
 11 17  1  0
 11 19  1  0
 12 17  1  0
 13 14  1  0
 13 12  1  0
 15 14  1  0
 15 24  1  0
 15 16  1  0
 17 16  1  0
 18 11  2  0
 19 20  1  0
 21 22  2  0
 22 41  1  0
 23 22  1  0
 23 26  1  0
 24 25  1  0
 24 21  1  0
 25 23  2  0
 26 27  1  0
 27 28  2  0
 29 32  1  0
 29 28  1  0
 30 29  2  0
 31 30  1  0
 31 26  2  0
 32 33  1  0
 33 38  2  0
 33 34  1  0
 34 35  2  0
 35 36  1  0
 36 40  1  0
 37 36  2  0
 38 37  1  0
 39 38  1  0
 41 42  1  0
 42 45  1  0
 42 44  1  0
 43 41  2  0
 46 21  1  0
 46 47  1  0
 48 46  1  0
 49 50  1  0
 51 62  2  0
 52 50  1  0
 52 57  1  0
 53 61  1  0
 53 63  1  0
 54 60  1  0
 54 56  1  0
 55 61  1  0
 56 55  1  0
 57 56  2  0
 58 59  1  0
 58 52  2  0
 59 54  2  0
 60 53  1  0
 61 51  1  0
 63 65  2  0
 64 63  1  0
 66 64  1  0
 67 76  2  0
 67 72  1  0
 68 64  1  0
 68 72  1  0
 69 68  1  0
 70 71  1  0
 70 69  1  0
 71 67  1  0
 72 73  2  0
 73 74  1  0
 75 74  2  0
 76 75  1  0
 77 51  1  0
 77 78  1  0
 77 87  1  0
 78 81  1  0
 79 83  1  0
 79 78  1  0
 80 79  2  0
 83 82  1  0
 85 86  1  0
 85 83  1  0
 85 84  1  0
 87 90  1  1
 87 88  1  0
 89 87  1  0
M  ISO  4  11 100  19 100  49 101  50 101
M  END
>  <TORSDO>  (56) 
F 17

>  <SCORE>  (56) 
-15.323

>  <name>  (56) 
55

>  <ligand_id>  (56) 
55

>  <original_smiles>  (56) 
[H]c1c([H])c([H])c2c(c1[H])C([H])([H])C([H])([H])C([H])([H])C2([H])N([H])C(=O)C1([H])N(C(=O)C([H])(N([H])C(=O)C([H])(N([H])C([H])([H])[H])C([H])([H])[H])C(C([H])([H])[H])(C([H])([H])[H])C([H])([H])[H])C([H])([H])c2c([H])c(OC([H])([H])c3c([H])c([H])c4c(c3[H])C([H])([H])C([H])(C([H])([H])[H])C4([H])N([H])C(=O)N3C([H])([H])C([H])([H])C([H])([H])C([H])(n4nc(-c5c([H])c([H])c(Oc6c([H])c([H])c(F)c([H])c6F)c([H])c5[H])c(C(=O)N([H])[H])c4N([H])[H])C3([H])[H])c([H])c([H])c2C1([H])[H]

>  <smiles>  (56) 
[H]c1c([H])c([H])c2c(c1[H])C([H])([H])C([H])([H])C([H])([H])C2([H])N([H])C(=O)C1([H])N(C(=O)C([H])(N([H])C(=O)C([H])(N([H])C([H])([H])[H])C([H])([H])[H])C(C([H])([H])[H])(C([H])([H])[H])C([H])([H])[H])C([H])([H])c2c([H])c(OC([H])([H])c3c([H])c([H])c4c(c3[H])C([H])([H])C([H])(C([H])([H])[H])C4([H])N([H])C(=O)N3C([H])([H])C([H])([H])C([H])([H])C([H])(n4nc(-c5c([H])c([H])c(Oc6c([H])c([H])c(F)c([H])c6F)c([H])c5[H])c(C(=O)N([H])[H])c4N([H])[H])C3([H])[H])c([H])c([H])c2C1([H])[H]

$$$$
56:0:0
     RDKit          3D

 94103  0  0  1  0  0  0  0  0999 V2000
  -29.2840  -22.1810   19.3530 C   0  0  0  0  0  3  0  0  0  0  0  0
  -27.8530  -22.0740   21.1390 C   0  0  0  0  0  3  0  0  0  0  0  0
  -29.1210  -23.6650   19.3070 C   0  0  0  0  0  0  0  0  0  0  0  0
  -28.6890  -21.2380   20.2830 C   0  0  0  0  0  0  0  0  0  0  0  0
  -27.6520  -23.5480   21.1010 C   0  0  0  0  0  0  0  0  0  0  0  0
  -28.2600  -24.4870   20.1680 C   0  0  0  0  0  0  0  0  0  0  0  0
  -26.7280  -24.1440   22.1450 C   0  0  0  0  0  1  0  0  0  0  0  0
  -31.7270  -24.5810   15.8640 C   0  0  0  0  0  2  0  0  0  0  0  0
  -30.2330  -24.9390   15.7740 C   0  0  0  0  0  2  0  0  0  0  0  0
  -32.2740  -24.8290   17.2780 C   0  0  0  0  0  2  0  0  0  0  0  0
  -29.4070  -24.1760   16.8270 C   0  0  0  0  0  2  0  0  0  0  0  0
  -31.4530  -24.0730   18.3350 C   0  0  0  0  0  2  0  0  0  0  0  0
  -29.9450  -24.4100   18.2530 C   0  0  0  0  0  3  0  0  0  0  0  0
  -28.2340  -26.0180   20.1880 O   0  0  0  0  0  0  0  0  0  0  0  0
  -24.6350  -31.9060   23.1830 C   0  0  0  0  0  0  0  0  0  0  0  0
  -27.1720  -27.0470   20.1730 C   0  0  0  0  0  0  0  0  0  0  0  0
  -23.4350  -30.5210   21.5350 C   0  0  0  0  0  3  0  0  0  0  0  0
  -24.8750  -28.9060   20.1200 C   0  0  0  0  0  0  0  0  0  0  0  0
  -25.9970  -30.7250   21.3950 C   0  0  0  0  0  2  0  0  0  0  0  0
  -26.0590  -29.3160   20.7440 C   0  0  0  0  0  0  0  0  0  0  0  0
  -27.2000  -28.4050   20.7500 C   0  0  0  0  0  3  0  0  0  0  0  0
  -25.9620  -26.7750   19.5010 C   0  0  0  0  0  3  0  0  0  0  0  0
  -24.8480  -27.6540   19.4800 C   0  0  0  0  0  3  0  0  0  0  0  0
  -23.6620  -29.8330   20.1610 C   0  0  0  0  0  2  0  0  0  0  0  0
  -24.7110  -31.0770   22.0920 N   0  0  0  0  0  0  0  0  0  0  0  0
  -23.5480  -32.2020   23.7030 O   0  0  0  0  0  0  0  0  0  0  0  0
  -22.7320  -29.5280   22.4990 C   0  0  0  0  0  0  0  0  0  0  0  0
  -21.4000  -29.3860   22.3770 N   0  0  0  0  0  0  0  0  0  0  0  0
  -23.3930  -28.8880   23.3200 O   0  0  0  0  0  0  0  0  0  0  0  0
  -20.9210  -29.9540   21.6930 H   0  0  0  0  0  0  0  0  0  0  0  0
  -18.0000  -28.2410   22.9040 C   0  0  0  0  0  0  0  0  0  0  0  0
  -20.5670  -28.4550   23.1450 C   0  0  0  0  0  3  0  0  0  0  0  0
  -20.6340  -27.0270   22.5520 C   0  0  0  0  0  2  0  0  0  0  0  0
  -19.5160  -26.7400   21.5450 C   0  0  0  0  0  2  0  0  0  0  0  0
  -18.1440  -26.9010   22.2060 C   0  0  0  0  0  2  0  0  0  0  0  0
  -19.1370  -28.9780   23.3330 C   0  0  0  0  0  0  0  0  0  0  0  0
  -18.9450  -30.2330   23.9510 C   0  0  0  0  0  3  0  0  0  0  0  0
  -17.6520  -30.7510   24.1430 C   0  0  0  0  0  3  0  0  0  0  0  0
  -16.5300  -30.0120   23.7300 C   0  0  0  0  0  3  0  0  0  0  0  0
  -16.7040  -28.7580   23.1170 C   0  0  0  0  0  3  0  0  0  0  0  0
  -25.9110  -32.5340   23.8210 C   0  0  0  0  0  3  0  0  0  0  0  0
  -26.4100  -31.7590   25.1040 C   0  0  1  0  0  0  0  0  0  0  0  0
  -25.3060  -31.5300   26.1630 C   0  0  0  0  0  1  0  0  0  0  0  0
  -26.9860  -30.3760   24.7240 C   0  0  0  0  0  1  0  0  0  0  0  0
  -27.5620  -32.5430   25.7760 C   0  0  0  0  0  1  0  0  0  0  0  0
  -25.6030  -33.9340   24.1640 N   0  0  0  0  0  0  0  0  0  0  0  0
  -25.9270  -34.9960   23.4170 C   0  0  0  0  0  0  0  0  0  0  0  0
  -26.5790  -34.9030   22.3750 O   0  0  0  0  0  0  0  0  0  0  0  0
  -25.0170  -34.0800   24.9740 H   0  0  0  0  0  0  0  0  0  0  0  0
  -24.1920  -36.8010   23.1250 C   0  0  0  0  0  1  0  0  0  0  0  0
  -25.4530  -36.3830   23.8990 C   0  0  0  0  0  3  0  0  0  0  0  0
  -27.6070  -37.2670   24.6830 C   0  0  0  0  0  1  0  0  0  0  0  0
  -26.4830  -37.4370   23.7670 N   0  0  0  0  0  0  0  0  0  0  0  0
  -26.0800  -38.3570   23.9260 H   0  0  0  0  0  0  0  0  0  0  0  0
  -28.6730  -19.4930   20.2590 C   0  0  0  0  0  3  0  0  0  0  0  0
  -29.8350  -18.1520   20.3490 C   0  0  0  0  0  3  0  0  0  0  0  0
  -30.3630  -15.2730   20.2490 C   0  0  0  0  0  0  0  0  0  0  0  0
  -30.3400  -12.8570   19.3340 C   0  0  0  0  0  2  0  0  0  0  0  0
  -29.3980  -12.6720   18.1180 C   0  0  0  0  0  2  0  0  0  0  0  0
  -27.9560  -12.3990   18.5780 C   0  0  0  0  0  2  0  0  0  0  0  0
  -27.5190  -13.3520   19.7190 C   0  0  0  0  0  3  0  0  0  0  0  0
  -28.5800  -13.4680   20.8320 C   0  0  0  0  0  2  0  0  0  0  0  0
  -29.8050  -13.9710   20.1940 N   0  0  0  0  0  0  0  0  0  0  0  0
  -31.5770  -15.3050   20.0040 O   0  0  0  0  0  0  0  0  0  0  0  0
  -29.5760  -16.5120   20.3780 N   0  0  0  0  0  0  0  0  0  0  0  0
  -28.6040  -16.2880   20.5310 H   0  0  0  0  0  0  0  0  0  0  0  0
  -25.1510  -13.9000   20.4980 C   0  0  0  0  0  0  0  0  0  0  0  0
  -24.0990  -13.1150   20.8760 C   0  0  0  0  0  0  0  0  0  0  0  0
  -24.5750  -11.7680   20.8380 C   0  0  0  0  0  0  0  0  0  0  0  0
  -26.1970  -13.0320   20.2400 N   0  0  0  0  0  0  0  0  0  0  0  0
  -25.8650  -11.7440   20.5150 N   0  0  0  0  0  0  0  0  0  0  0  0
  -23.8600  -10.4990   21.0320 C   0  0  0  0  0  0  0  0  0  0  0  0
  -24.3050   -9.5350   21.9610 C   0  0  0  0  0  3  0  0  0  0  0  0
  -23.5880   -8.3330   22.1450 C   0  0  0  0  0  3  0  0  0  0  0  0
  -22.4100   -8.0880   21.4000 C   0  0  0  0  0  0  0  0  0  0  0  0
  -21.9830   -9.0410   20.4600 C   0  0  0  0  0  3  0  0  0  0  0  0
  -22.7020  -10.2350   20.2740 C   0  0  0  0  0  3  0  0  0  0  0  0
  -21.6660   -6.9380   21.4930 O   0  0  0  0  0  0  0  0  0  0  0  0
  -21.6290   -6.1940   22.6440 C   0  0  0  0  0  0  0  0  0  0  0  0
  -21.1870   -6.7380   23.8690 C   0  0  0  0  0  3  0  0  0  0  0  0
  -21.0990   -5.9210   25.0120 C   0  0  0  0  0  3  0  0  0  0  0  0
  -21.4430   -4.5590   24.9330 C   0  0  0  0  0  0  0  0  0  0  0  0
  -21.8760   -4.0120   23.7120 C   0  0  0  0  0  3  0  0  0  0  0  0
  -21.9660   -4.8270   22.5700 C   0  0  0  0  0  0  0  0  0  0  0  0
  -22.3670   -4.2910   21.3920 F   0  0  0  0  0  0  0  0  0  0  0  0
  -21.3480   -3.7700   26.0290 F   0  0  0  0  0  0  0  0  0  0  0  0
  -22.6990  -13.5810   21.1550 C   0  0  0  0  0  0  0  0  0  0  0  0
  -21.9840  -12.8860   22.0310 N   0  0  0  0  0  0  0  0  0  0  0  0
  -22.2500  -14.5990   20.6300 O   0  0  0  0  0  0  0  0  0  0  0  0
  -22.3600  -12.0650   22.4800 H   0  0  0  0  0  0  0  0  0  0  0  0
  -21.0450  -13.1810   22.2570 H   0  0  0  0  0  0  0  0  0  0  0  0
  -25.3010  -15.2710   20.3190 N   0  0  0  0  0  0  0  0  0  0  0  0
  -24.5270  -15.9140   20.4450 H   0  0  0  0  0  0  0  0  0  0  0  0
  -26.1190  -15.7100   19.9150 H   0  0  0  0  0  0  0  0  0  0  0  0
  1  4  1  0
  3  1  2  0
  3  6  1  0
  4  2  2  0
  5  2  1  0
  5  7  1  0
  6 14  1  0
  6  5  2  0
  8 10  1  0
  9  8  1  0
  9 11  1  0
 10 12  1  0
 11 13  1  0
 13 12  1  0
 13  3  1  0
 15 26  2  0
 16 14  1  0
 16 21  1  0
 17 25  1  0
 17 27  1  0
 18 24  1  0
 18 20  1  0
 19 25  1  0
 20 21  2  0
 20 19  1  0
 22 16  2  0
 23 22  1  0
 23 18  2  0
 24 17  1  0
 25 15  1  0
 27 29  2  0
 28 27  1  0
 30 28  1  0
 31 40  2  0
 31 36  1  0
 32 28  1  0
 32 36  1  0
 33 32  1  0
 34 35  1  0
 34 33  1  0
 35 31  1  0
 36 37  2  0
 37 38  1  0
 39 38  2  0
 40 39  1  0
 41 15  1  0
 41 46  1  0
 41 42  1  0
 42 45  1  1
 42 43  1  0
 44 42  1  0
 46 49  1  0
 47 51  1  0
 47 46  1  0
 48 47  2  0
 51 50  1  0
 53 51  1  0
 53 54  1  0
 53 52  1  0
 55  4  1  0
 55 56  2  0
 56 65  1  0
 57 65  1  0
 58 63  1  0
 59 60  1  0
 59 58  1  0
 61 60  1  0
 61 70  1  0
 61 62  1  0
 63 57  1  0
 63 62  1  0
 64 57  2  0
 65 66  1  0
 67 68  2  0
 68 87  1  0
 69 68  1  0
 69 72  1  0
 70 67  1  0
 70 71  1  0
 71 69  2  0
 72 73  1  0
 73 74  2  0
 75 78  1  0
 75 74  1  0
 76 75  2  0
 77 76  1  0
 77 72  2  0
 78 79  1  0
 79 80  1  0
 80 81  2  0
 82 81  1  0
 82 86  1  0
 83 82  2  0
 84 79  2  0
 84 83  1  0
 85 84  1  0
 87 88  1  0
 88 91  1  0
 88 90  1  0
 89 87  2  0
 92 93  1  0
 92 67  1  0
 94 92  1  0
M  ISO  4   6 101  14 101  57 100  65 100
M  END
>  <TORSDO>  (57) 
F 19

>  <SCORE>  (57) 
-15.213

>  <name>  (57) 
56

>  <ligand_id>  (57) 
56

>  <original_smiles>  (57) 
[H]c1c([H])c([H])c2c(c1[H])C([H])([H])C([H])([H])C([H])([H])C2([H])N([H])C(=O)C1([H])N(C(=O)C([H])(N([H])C(=O)C([H])(N([H])C([H])([H])[H])C([H])([H])[H])C(C([H])([H])[H])(C([H])([H])[H])C([H])([H])[H])C([H])([H])c2c([H])c(Oc3c(C([H])([H])[H])c([H])c(C([H])([H])C([H])([H])N([H])C(=O)N4C([H])([H])C([H])([H])C([H])([H])C([H])(n5nc(-c6c([H])c([H])c(Oc7c([H])c([H])c(F)c([H])c7F)c([H])c6[H])c(C(=O)N([H])[H])c5N([H])[H])C4([H])[H])c([H])c3C3([H])C([H])([H])C([H])([H])C([H])([H])C([H])([H])C3([H])[H])c([H])c([H])c2C1([H])[H]

>  <smiles>  (57) 
[H]c1c([H])c([H])c2c(c1[H])C([H])([H])C([H])([H])C([H])([H])C2([H])N([H])C(=O)C1([H])N(C(=O)C([H])(N([H])C(=O)C([H])(N([H])C([H])([H])[H])C([H])([H])[H])C(C([H])([H])[H])(C([H])([H])[H])C([H])([H])[H])C([H])([H])c2c([H])c(Oc3c(C([H])([H])[H])c([H])c(C([H])([H])C([H])([H])N([H])C(=O)N4C([H])([H])C([H])([H])C([H])([H])C([H])(n5nc(-c6c([H])c([H])c(Oc7c([H])c([H])c(F)c([H])c7F)c([H])c6[H])c(C(=O)N([H])[H])c5N([H])[H])C4([H])[H])c([H])c3C3([H])C([H])([H])C([H])([H])C([H])([H])C([H])([H])C3([H])[H])c([H])c([H])c2C1([H])[H]

$$$$
57:0:0
     RDKit          3D

 91 99  0  0  1  0  0  0  0  0999 V2000
  -27.8790  -23.7000   23.0310 C   0  0  0  0  0  3  0  0  0  0  0  0
  -27.7750  -25.0840   23.0860 C   0  0  0  0  0  3  0  0  0  0  0  0
  -28.1940  -23.0820   21.8170 C   0  0  0  0  0  3  0  0  0  0  0  0
  -27.9340  -25.8320   21.9160 C   0  0  0  0  0  3  0  0  0  0  0  0
  -28.4210  -23.7680   20.5910 C   0  0  0  0  0  0  0  0  0  0  0  0
  -28.1840  -25.2900   20.6230 C   0  0  0  0  0  0  0  0  0  0  0  0
  -29.4550  -23.2250   18.2540 C   0  0  0  0  0  1  0  0  0  0  0  0
  -28.8070  -22.5950   19.4940 C   0  0  0  0  0  3  0  0  0  0  0  0
  -29.6200  -21.2790   19.9290 N   0  0  0  0  0  4  0  0  0  0  0  0
  -30.5500  -21.4120   19.5680 H   0  0  0  0  0  0  0  0  0  0  0  0
  -29.7160  -21.3420   20.9290 H   0  0  0  0  0  0  0  0  0  0  0  0
  -29.2370  -19.7570   19.6330 C   0  0  0  0  0  3  0  0  0  0  0  0
  -30.2590  -18.4160   19.9160 C   0  0  0  0  0  3  0  0  0  0  0  0
  -29.8110  -16.7720   19.9360 C   0  0  0  0  0  2  0  0  0  0  0  0
  -30.7640  -15.3970   19.8460 C   0  0  0  0  0  0  0  0  0  0  0  0
  -30.7330  -12.9980   19.0040 C   0  0  0  0  0  2  0  0  0  0  0  0
  -29.7600  -12.9040   17.8030 C   0  0  0  0  0  2  0  0  0  0  0  0
  -28.3120  -12.6750   18.2810 C   0  0  0  0  0  2  0  0  0  0  0  0
  -27.9210  -13.6200   19.4470 C   0  0  0  0  0  3  0  0  0  0  0  0
  -29.0090  -13.6700   20.5370 C   0  0  0  0  0  2  0  0  0  0  0  0
  -30.2580  -14.0960   19.8940 N   0  0  0  0  0  0  0  0  0  0  0  0
  -31.9550  -15.5050   19.5340 O   0  0  0  0  0  0  0  0  0  0  0  0
  -25.5760  -14.1810   20.3070 C   0  0  0  0  0  0  0  0  0  0  0  0
  -24.5290  -13.3990   20.7060 C   0  0  0  0  0  0  0  0  0  0  0  0
  -24.9910  -12.0490   20.6250 C   0  0  0  0  0  0  0  0  0  0  0  0
  -26.6070  -13.3090   19.9970 N   0  0  0  0  0  0  0  0  0  0  0  0
  -26.2670  -12.0200   20.2540 N   0  0  0  0  0  0  0  0  0  0  0  0
  -24.2730  -10.7830   20.8190 C   0  0  0  0  0  0  0  0  0  0  0  0
  -24.6730   -9.8470   21.7980 C   0  0  0  0  0  3  0  0  0  0  0  0
  -23.9540   -8.6470   21.9780 C   0  0  0  0  0  3  0  0  0  0  0  0
  -22.8180   -8.3720   21.1800 C   0  0  0  0  0  0  0  0  0  0  0  0
  -22.4360   -9.2950   20.1900 C   0  0  0  0  0  3  0  0  0  0  0  0
  -23.1570  -10.4880   20.0080 C   0  0  0  0  0  3  0  0  0  0  0  0
  -22.0740   -7.2210   21.2660 O   0  0  0  0  0  0  0  0  0  0  0  0
  -21.9090   -6.5580   22.4570 C   0  0  0  0  0  0  0  0  0  0  0  0
  -21.2800   -7.1650   23.5670 C   0  0  0  0  0  3  0  0  0  0  0  0
  -21.0700   -6.4250   24.7480 C   0  0  0  0  0  3  0  0  0  0  0  0
  -21.4750   -5.0790   24.8180 C   0  0  0  0  0  0  0  0  0  0  0  0
  -22.0960   -4.4720   23.7120 C   0  0  0  0  0  3  0  0  0  0  0  0
  -22.3090   -5.2100   22.5330 C   0  0  0  0  0  0  0  0  0  0  0  0
  -22.8880   -4.6130   21.4640 F   0  0  0  0  0  0  0  0  0  0  0  0
  -21.2650   -4.3660   25.9490 F   0  0  0  0  0  0  0  0  0  0  0  0
  -23.1450  -13.8700   21.0480 C   0  0  0  0  0  0  0  0  0  0  0  0
  -22.4580  -13.1600   21.9360 N   0  0  0  0  0  0  0  0  0  0  0  0
  -22.6840  -14.9020   20.5630 O   0  0  0  0  0  0  0  0  0  0  0  0
  -22.8430  -12.3260   22.3520 H   0  0  0  0  0  0  0  0  0  0  0  0
  -21.5310  -13.4580   22.2050 H   0  0  0  0  0  0  0  0  0  0  0  0
  -25.7350  -15.5560   20.1560 N   0  0  0  0  0  0  0  0  0  0  0  0
  -24.9770  -16.2090   20.3210 H   0  0  0  0  0  0  0  0  0  0  0  0
  -26.5710  -16.0010   19.8030 H   0  0  0  0  0  0  0  0  0  0  0  0
  -28.1700  -26.4220   19.6870 O   0  0  0  0  0  0  0  0  0  0  0  0
  -24.5760  -31.9170   23.1370 C   0  0  0  0  0  0  0  0  0  0  0  0
  -27.1460  -27.4510   19.7380 C   0  0  0  0  0  0  0  0  0  0  0  0
  -23.3550  -30.6030   21.4470 C   0  0  0  0  0  3  0  0  0  0  0  0
  -24.7900  -29.1530   19.8810 C   0  0  0  0  0  0  0  0  0  0  0  0
  -25.8970  -30.9310   21.2260 C   0  0  0  0  0  2  0  0  0  0  0  0
  -25.9800  -29.5840   20.4840 C   0  0  0  0  0  0  0  0  0  0  0  0
  -27.1600  -28.7500   20.3970 C   0  0  0  0  0  3  0  0  0  0  0  0
  -25.9330  -27.1310   19.1000 C   0  0  0  0  0  3  0  0  0  0  0  0
  -24.7800  -27.9410   19.1710 C   0  0  0  0  0  3  0  0  0  0  0  0
  -23.5490  -30.0210   20.0210 C   0  0  0  0  0  2  0  0  0  0  0  0
  -24.6300  -31.1690   21.9920 N   0  0  0  0  0  0  0  0  0  0  0  0
  -23.5010  -32.1450   23.7130 O   0  0  0  0  0  0  0  0  0  0  0  0
  -22.7240  -29.5230   22.3600 C   0  0  0  0  0  0  0  0  0  0  0  0
  -21.4020  -29.3100   22.2370 N   0  0  0  0  0  0  0  0  0  0  0  0
  -23.4260  -28.8820   23.1460 O   0  0  0  0  0  0  0  0  0  0  0  0
  -20.8900  -29.8820   21.5790 H   0  0  0  0  0  0  0  0  0  0  0  0
  -18.0740  -27.9560   22.7080 C   0  0  0  0  0  0  0  0  0  0  0  0
  -20.6230  -28.3060   22.9660 C   0  0  0  0  0  3  0  0  0  0  0  0
  -20.7730  -26.9090   22.3210 C   0  0  0  0  0  2  0  0  0  0  0  0
  -19.6750  -26.5940   21.3000 C   0  0  0  0  0  2  0  0  0  0  0  0
  -18.2960  -26.6520   21.9610 C   0  0  0  0  0  2  0  0  0  0  0  0
  -19.1670  -28.7400   23.1670 C   0  0  0  0  0  0  0  0  0  0  0  0
  -18.9030  -29.9590   23.8280 C   0  0  0  0  0  3  0  0  0  0  0  0
  -17.5810  -30.3980   24.0300 C   0  0  0  0  0  3  0  0  0  0  0  0
  -16.5030  -29.6110   23.5840 C   0  0  0  0  0  3  0  0  0  0  0  0
  -16.7510  -28.3910   22.9310 C   0  0  0  0  0  3  0  0  0  0  0  0
  -25.8600  -32.5380   23.7690 C   0  0  0  0  0  3  0  0  0  0  0  0
  -25.5500  -33.9280   24.1360 N   0  0  0  0  0  0  0  0  0  0  0  0
  -25.9010  -35.0050   23.4200 C   0  0  0  0  0  0  0  0  0  0  0  0
  -26.5840  -34.9290   22.3940 O   0  0  0  0  0  0  0  0  0  0  0  0
  -24.9440  -34.0600   24.9340 H   0  0  0  0  0  0  0  0  0  0  0  0
  -24.2060  -36.8340   23.0870 C   0  0  0  0  0  1  0  0  0  0  0  0
  -25.4190  -36.3810   23.9170 C   0  0  0  0  0  3  0  0  0  0  0  0
  -27.5320  -37.2130   24.8510 C   0  0  0  0  0  1  0  0  0  0  0  0
  -26.4690  -37.4240   23.8730 N   0  0  0  0  0  0  0  0  0  0  0  0
  -26.0700  -38.3450   24.0320 H   0  0  0  0  0  0  0  0  0  0  0  0
  -26.3790  -31.7390   25.0280 C   0  0  1  0  0  0  0  0  0  0  0  0
  -25.2830  -31.4600   26.0830 C   0  0  0  0  0  1  0  0  0  0  0  0
  -26.9830  -30.3790   24.6080 C   0  0  0  0  0  1  0  0  0  0  0  0
  -27.5140  -32.5310   25.7170 C   0  0  0  0  0  1  0  0  0  0  0  0
  1  2  1  0
  3  1  2  0
  4  2  2  0
  5  6  2  0
  5  3  1  0
  6  4  1  0
  8  7  1  0
  8  9  1  0
  8  5  1  0
  9 11  1  0
 10  9  1  0
 12 13  2  0
 12  9  1  0
 13 14  1  0
 15 21  1  0
 15 14  1  0
 16 21  1  0
 17 18  1  0
 17 16  1  0
 19 18  1  0
 19 26  1  0
 19 20  1  0
 21 20  1  0
 22 15  2  0
 23 24  2  0
 24 43  1  0
 25 24  1  0
 25 28  1  0
 26 27  1  0
 26 23  1  0
 27 25  2  0
 28 29  1  0
 29 30  2  0
 31 34  1  0
 31 30  1  0
 32 31  2  0
 33 32  1  0
 33 28  2  0
 34 35  1  0
 35 40  2  0
 35 36  1  0
 36 37  2  0
 37 38  1  0
 38 42  1  0
 39 38  2  0
 40 39  1  0
 41 40  1  0
 43 44  1  0
 44 47  1  0
 44 46  1  0
 45 43  2  0
 48 23  1  0
 48 49  1  0
 50 48  1  0
 51 53  1  0
 51  6  1  0
 52 63  2  0
 53 58  1  0
 54 62  1  0
 54 64  1  0
 55 61  1  0
 55 57  1  0
 56 62  1  0
 57 56  1  0
 58 57  2  0
 59 60  1  0
 59 53  2  0
 60 55  2  0
 61 54  1  0
 62 52  1  0
 64 66  2  0
 65 64  1  0
 67 65  1  0
 68 77  2  0
 68 73  1  0
 69 65  1  0
 69 73  1  0
 70 69  1  0
 71 72  1  0
 71 70  1  0
 72 68  1  0
 73 74  2  0
 74 75  1  0
 76 75  2  0
 77 76  1  0
 78 52  1  0
 78 79  1  0
 78 88  1  0
 79 82  1  0
 80 84  1  0
 80 79  1  0
 81 80  2  0
 84 83  1  0
 86 84  1  0
 86 87  1  0
 86 85  1  0
 88 91  1  1
 88 89  1  0
 90 88  1  0
M  ISO  4   6 101  14 100  15 100  51 101
M  END
>  <TORSDO>  (58) 
F 21

>  <SCORE>  (58) 
-12.559

>  <name>  (58) 
57

>  <ligand_id>  (58) 
57

>  <original_smiles>  (58) 
[H]c1c([H])c([H])c(C([H])(C([H])([H])[H])[N+]([H])([H])C([H])([H])C([H])([H])C([H])([H])C(=O)N2C([H])([H])C([H])([H])C([H])([H])C([H])(n3nc(-c4c([H])c([H])c(Oc5c([H])c([H])c(F)c([H])c5F)c([H])c4[H])c(C(=O)N([H])[H])c3N([H])[H])C2([H])[H])c(Oc2c([H])c([H])c3c(c2[H])C([H])([H])N(C(=O)C([H])(N([H])C(=O)C([H])(N([H])C([H])([H])[H])C([H])([H])[H])C(C([H])([H])[H])(C([H])([H])[H])C([H])([H])[H])C([H])(C(=O)N([H])C2([H])c4c([H])c([H])c([H])c([H])c4C([H])([H])C([H])([H])C2([H])[H])C3([H])[H])c1[H]

>  <smiles>  (58) 
[H]c1c([H])c([H])c(C([H])(C([H])([H])[H])[N+]([H])([H])C([H])([H])C([H])([H])C([H])([H])C(=O)N2C([H])([H])C([H])([H])C([H])([H])C([H])(n3nc(-c4c([H])c([H])c(Oc5c([H])c([H])c(F)c([H])c5F)c([H])c4[H])c(C(=O)N([H])[H])c3N([H])[H])C2([H])[H])c(Oc2c([H])c([H])c3c(c2[H])C([H])([H])N(C(=O)C([H])(N([H])C(=O)C([H])(N([H])C([H])([H])[H])C([H])([H])[H])C(C([H])([H])[H])(C([H])([H])[H])C([H])([H])[H])C([H])(C(=O)N([H])C2([H])c4c([H])c([H])c([H])c([H])c4C([H])([H])C([H])([H])C2([H])[H])C3([H])[H])c1[H]

$$$$
58:0:0
     RDKit          3D

 89 97  0  0  1  0  0  0  0  0999 V2000
  -27.9340  -21.3730   18.7760 C   0  0  0  0  0  3  0  0  0  0  0  0
  -27.3070  -22.5150   18.2210 C   0  0  0  0  0  3  0  0  0  0  0  0
  -28.9780  -22.9230   20.3040 C   0  0  0  0  0  3  0  0  0  0  0  0
  -28.9000  -21.4410   19.7980 C   0  0  0  0  0  0  0  0  0  0  0  0
  -28.2240  -24.2110   19.8240 C   0  0  0  0  0  0  0  0  0  0  0  0
  -27.4950  -23.8520   18.6580 C   0  0  0  0  0  0  0  0  0  0  0  0
  -27.0040  -24.8180   17.8460 F   0  0  0  0  0  0  0  0  0  0  0  0
  -28.2600  -25.7340   20.1890 O   0  0  0  0  0  0  0  0  0  0  0  0
  -24.6610  -31.7980   23.1110 C   0  0  0  0  0  0  0  0  0  0  0  0
  -27.2380  -26.8540   20.1270 C   0  0  0  0  0  0  0  0  0  0  0  0
  -23.4820  -30.3970   21.4740 C   0  0  0  0  0  3  0  0  0  0  0  0
  -24.9400  -28.7830   20.0740 C   0  0  0  0  0  0  0  0  0  0  0  0
  -26.0570  -30.5910   21.3480 C   0  0  0  0  0  2  0  0  0  0  0  0
  -26.1330  -29.1760   20.6920 C   0  0  0  0  0  0  0  0  0  0  0  0
  -27.2740  -28.2380   20.6860 C   0  0  0  0  0  3  0  0  0  0  0  0
  -25.9790  -26.6180   19.5210 C   0  0  0  0  0  3  0  0  0  0  0  0
  -24.8910  -27.5220   19.4700 C   0  0  0  0  0  3  0  0  0  0  0  0
  -23.7240  -29.7110   20.1040 C   0  0  0  0  0  2  0  0  0  0  0  0
  -24.7570  -30.9560   22.0310 N   0  0  0  0  0  0  0  0  0  0  0  0
  -23.5650  -32.0920   23.6190 O   0  0  0  0  0  0  0  0  0  0  0  0
  -22.7760  -29.4050   22.4370 C   0  0  0  0  0  0  0  0  0  0  0  0
  -21.4420  -29.2580   22.3170 N   0  0  0  0  0  0  0  0  0  0  0  0
  -23.4350  -28.7710   23.2640 O   0  0  0  0  0  0  0  0  0  0  0  0
  -20.9630  -29.8190   21.6260 H   0  0  0  0  0  0  0  0  0  0  0  0
  -18.0470  -28.0810   22.8360 C   0  0  0  0  0  0  0  0  0  0  0  0
  -20.6110  -28.3260   23.0880 C   0  0  0  0  0  3  0  0  0  0  0  0
  -20.6970  -26.8940   22.5100 C   0  0  0  0  0  2  0  0  0  0  0  0
  -19.5880  -26.5820   21.5000 C   0  0  0  0  0  2  0  0  0  0  0  0
  -18.2100  -26.7350   22.1520 C   0  0  0  0  0  2  0  0  0  0  0  0
  -19.1740  -28.8360   23.2610 C   0  0  0  0  0  0  0  0  0  0  0  0
  -18.9640  -30.0940   23.8650 C   0  0  0  0  0  3  0  0  0  0  0  0
  -17.6620  -30.6000   24.0450 C   0  0  0  0  0  3  0  0  0  0  0  0
  -16.5510  -29.8440   23.6320 C   0  0  0  0  0  3  0  0  0  0  0  0
  -16.7450  -28.5850   23.0340 C   0  0  0  0  0  3  0  0  0  0  0  0
  -25.9230  -32.4470   23.7530 C   0  0  0  0  0  3  0  0  0  0  0  0
  -25.5900  -33.8410   24.1030 N   0  0  0  0  0  0  0  0  0  0  0  0
  -25.9170  -34.9160   23.3720 C   0  0  0  0  0  0  0  0  0  0  0  0
  -26.5910  -34.8390   22.3420 O   0  0  0  0  0  0  0  0  0  0  0  0
  -24.9910  -33.9730   24.9030 H   0  0  0  0  0  0  0  0  0  0  0  0
  -24.1850  -36.7160   23.0480 C   0  0  0  0  0  1  0  0  0  0  0  0
  -25.4210  -36.2930   23.8580 C   0  0  0  0  0  3  0  0  0  0  0  0
  -27.5390  -37.1770   24.7360 C   0  0  0  0  0  1  0  0  0  0  0  0
  -26.4500  -37.3530   23.7780 N   0  0  0  0  0  0  0  0  0  0  0  0
  -26.0380  -38.2690   23.9330 H   0  0  0  0  0  0  0  0  0  0  0  0
  -26.4300  -31.6770   25.0350 C   0  0  1  0  0  0  0  0  0  0  0  0
  -25.3280  -31.4290   26.0920 C   0  0  0  0  0  1  0  0  0  0  0  0
  -27.0280  -30.3030   24.6540 C   0  0  0  0  0  1  0  0  0  0  0  0
  -27.5690  -32.4770   25.7110 C   0  0  0  0  0  1  0  0  0  0  0  0
  -29.8530  -19.9440   19.9060 C   0  0  0  0  0  2  0  0  0  0  0  0
  -30.2860  -18.2100   21.9050 C   0  0  0  0  0  1  0  0  0  0  0  0
  -29.6490  -18.2330   20.5070 C   0  0  0  0  0  0  0  0  0  0  0  0
  -30.5850  -15.3560   19.9020 C   0  0  0  0  0  0  0  0  0  0  0  0
  -30.4920  -12.9270   18.9290 C   0  0  0  0  0  2  0  0  0  0  0  0
  -29.4750  -12.7130   17.7800 C   0  0  0  0  0  2  0  0  0  0  0  0
  -28.0640  -12.4360   18.3300 C   0  0  0  0  0  2  0  0  0  0  0  0
  -27.7020  -13.3870   19.4970 C   0  0  0  0  0  3  0  0  0  0  0  0
  -28.8360  -13.5200   20.5320 C   0  0  0  0  0  2  0  0  0  0  0  0
  -29.9990  -14.0560   19.8010 N   0  0  0  0  0  0  0  0  0  0  0  0
  -31.8130  -15.3310   19.7360 O   0  0  0  0  0  0  0  0  0  0  0  0
  -29.8020  -16.6330   19.9390 N   0  0  0  0  0  4  0  0  0  0  0  0
  -28.8640  -16.3420   19.7040 H   0  0  0  0  0  0  0  0  0  0  0  0
  -25.4090  -13.9590   20.4530 C   0  0  0  0  0  0  0  0  0  0  0  0
  -24.3610  -13.1880   20.8710 C   0  0  0  0  0  0  0  0  0  0  0  0
  -24.7990  -11.8330   20.7640 C   0  0  0  0  0  0  0  0  0  0  0  0
  -26.4140  -13.0750   20.1020 N   0  0  0  0  0  0  0  0  0  0  0  0
  -26.0640  -11.7870   20.3580 N   0  0  0  0  0  0  0  0  0  0  0  0
  -24.0620  -10.5780   20.9650 C   0  0  0  0  0  0  0  0  0  0  0  0
  -24.5090   -9.5950   21.8750 C   0  0  0  0  0  3  0  0  0  0  0  0
  -23.7710   -8.4070   22.0660 C   0  0  0  0  0  3  0  0  0  0  0  0
  -22.5710   -8.1940   21.3470 C   0  0  0  0  0  0  0  0  0  0  0  0
  -22.1430   -9.1650   20.4240 C   0  0  0  0  0  3  0  0  0  0  0  0
  -22.8820  -10.3440   20.2320 C   0  0  0  0  0  3  0  0  0  0  0  0
  -21.8010   -7.0600   21.4480 O   0  0  0  0  0  0  0  0  0  0  0  0
  -21.7400   -6.3340   22.6110 C   0  0  0  0  0  0  0  0  0  0  0  0
  -21.2820   -6.9020   23.8210 C   0  0  0  0  0  3  0  0  0  0  0  0
  -21.1690   -6.1010   24.9750 C   0  0  0  0  0  3  0  0  0  0  0  0
  -21.5020   -4.7340   24.9210 C   0  0  0  0  0  0  0  0  0  0  0  0
  -21.9530   -4.1670   23.7170 C   0  0  0  0  0  3  0  0  0  0  0  0
  -22.0680   -4.9650   22.5640 C   0  0  0  0  0  0  0  0  0  0  0  0
  -22.4820   -4.4070   21.4000 F   0  0  0  0  0  0  0  0  0  0  0  0
  -21.3870   -3.9640   26.0280 F   0  0  0  0  0  0  0  0  0  0  0  0
  -22.9950  -13.6810   21.2520 C   0  0  0  0  0  0  0  0  0  0  0  0
  -22.3180  -12.9780   22.1520 N   0  0  0  0  0  0  0  0  0  0  0  0
  -22.5410  -14.7250   20.7840 O   0  0  0  0  0  0  0  0  0  0  0  0
  -22.7020  -12.1340   22.5520 H   0  0  0  0  0  0  0  0  0  0  0  0
  -21.4040  -13.2910   22.4480 H   0  0  0  0  0  0  0  0  0  0  0  0
  -25.5820  -15.3340   20.3110 N   0  0  0  0  0  0  0  0  0  0  0  0
  -24.8380  -15.9930   20.5130 H   0  0  0  0  0  0  0  0  0  0  0  0
  -26.4110  -15.7760   19.9400 H   0  0  0  0  0  0  0  0  0  0  0  0
  1  4  1  0
  2  6  1  0
  2  1  2  0
  4 49  1  0
  4  3  2  0
  5  8  1  0
  5  3  1  0
  6  5  2  0
  7  6  1  0
  9 20  2  0
 10  8  1  0
 10 15  1  0
 11 19  1  0
 11 21  1  0
 12 18  1  0
 12 14  1  0
 13 19  1  0
 14 13  1  0
 15 14  2  0
 16 10  2  0
 17 16  1  0
 17 12  2  0
 18 11  1  0
 19  9  1  0
 21 23  2  0
 22 21  1  0
 24 22  1  0
 25 34  2  0
 25 30  1  0
 26 22  1  0
 26 30  1  0
 27 26  1  0
 28 29  1  0
 28 27  1  0
 29 25  1  0
 30 31  2  0
 31 32  1  0
 33 32  2  0
 34 33  1  0
 35  9  1  0
 35 36  1  0
 35 45  1  0
 36 39  1  0
 37 41  1  0
 37 36  1  0
 38 37  2  0
 41 40  1  0
 43 41  1  0
 43 44  1  0
 43 42  1  0
 45 48  1  1
 45 46  1  0
 47 45  1  0
 49 51  1  0
 51 50  1  0
 52 60  1  0
 53 58  1  0
 54 55  1  0
 54 53  1  0
 56 55  1  0
 56 65  1  0
 56 57  1  0
 58 52  1  0
 58 57  1  0
 59 52  2  0
 60 51  2  3
 61 60  1  0
 62 63  2  0
 63 82  1  0
 64 63  1  0
 64 67  1  0
 65 66  1  0
 65 62  1  0
 66 64  2  0
 67 68  1  0
 68 69  2  0
 70 73  1  0
 70 69  1  0
 71 70  2  0
 72 71  1  0
 72 67  2  0
 73 74  1  0
 74 75  1  0
 75 76  2  0
 77 76  1  0
 77 81  1  0
 78 77  2  0
 79 74  2  0
 79 78  1  0
 80 79  1  0
 82 83  1  0
 83 86  1  0
 83 85  1  0
 84 82  2  0
 87 62  1  0
 87 88  1  0
 89 87  1  0
M  ISO  4   5 101   8 101  52 100  60 100
M  END
>  <TORSDO>  (59) 
F 18

>  <SCORE>  (59) 
-15.478

>  <name>  (59) 
58

>  <ligand_id>  (59) 
58

>  <original_smiles>  (59) 
[H]c1c([H])c([H])c2c(c1[H])C([H])([H])C([H])([H])C([H])([H])C2([H])N([H])C(=O)C1([H])N(C(=O)C([H])(N([H])C(=O)C([H])(N([H])C([H])([H])[H])C([H])([H])[H])C(C([H])([H])[H])(C([H])([H])[H])C([H])([H])[H])C([H])([H])c2c([H])c(Oc3c([H])c(C([H])([H])C([H])(N([H])C(=O)N4C([H])([H])C([H])([H])C([H])([H])C([H])(n5nc(-c6c([H])c([H])c(Oc7c([H])c([H])c(F)c([H])c7F)c([H])c6[H])c(C(=O)N([H])[H])c5N([H])[H])C4([H])[H])C([H])([H])[H])c([H])c([H])c3F)c([H])c([H])c2C1([H])[H]

>  <smiles>  (59) 
[H]c1c([H])c([H])c2c(c1[H])C([H])([H])C([H])([H])C([H])([H])C2([H])N([H])C(=O)C1([H])N(C(=O)C([H])(N([H])C(=O)C([H])(N([H])C([H])([H])[H])C([H])([H])[H])C(C([H])([H])[H])(C([H])([H])[H])C([H])([H])[H])C([H])([H])c2c([H])c(Oc3c([H])c(C([H])([H])C([H])(N([H])C(=O)N4C([H])([H])C([H])([H])C([H])([H])C([H])(n5nc(-c6c([H])c([H])c(Oc7c([H])c([H])c(F)c([H])c7F)c([H])c6[H])c(C(=O)N([H])[H])c5N([H])[H])C4([H])[H])C([H])([H])[H])c([H])c([H])c3F)c([H])c([H])c2C1([H])[H]

$$$$
59:0:0
     RDKit          3D

 93102  0  0  1  0  0  0  0  0999 V2000
  -28.5390  -25.4150   19.8620 C   0  0  0  0  0  3  0  0  0  0  0  0
  -30.8260  -25.2610   19.1710 C   0  0  0  0  0  3  0  0  0  0  0  0
  -28.5530  -23.9890   19.8880 C   0  0  0  0  0  0  0  0  0  0  0  0
  -29.6190  -23.1580   19.3910 C   0  0  0  0  0  0  0  0  0  0  0  0
  -30.9310  -23.7090   19.1900 C   0  0  0  0  0  0  0  0  0  0  0  0
  -29.6090  -26.2110   19.4170 C   0  0  0  0  0  0  0  0  0  0  0  0
  -27.4290  -23.3860   20.6500 C   0  0  0  0  0  0  0  0  0  0  0  0
  -29.3340  -21.6820   19.0160 C   0  0  0  0  0  2  0  0  0  0  0  0
  -26.3140  -22.7410   19.8600 C   0  0  0  0  0  2  0  0  0  0  0  0
  -27.9140  -21.3350   18.4410 C   0  0  0  0  0  2  0  0  0  0  0  0
  -26.7300  -21.3310   19.4370 C   0  0  0  0  0  2  0  0  0  0  0  0
  -27.3750  -23.3890   21.8820 O   0  0  0  0  0  0  0  0  0  0  0  0
  -29.3660  -27.7450   19.4830 O   0  0  0  0  0  0  0  0  0  0  0  0
  -24.4740  -31.8270   23.7060 C   0  0  0  0  0  0  0  0  0  0  0  0
  -28.1210  -28.5510   19.7370 C   0  0  0  0  0  0  0  0  0  0  0  0
  -23.6780  -30.6310   21.7310 C   0  0  0  0  0  3  0  0  0  0  0  0
  -25.4410  -29.8160   20.0290 C   0  0  0  0  0  0  0  0  0  0  0  0
  -26.1010  -31.4690   21.7630 C   0  0  0  0  0  2  0  0  0  0  0  0
  -26.5020  -30.3140   20.7910 C   0  0  0  0  0  0  0  0  0  0  0  0
  -27.8320  -29.7010   20.6230 C   0  0  0  0  0  3  0  0  0  0  0  0
  -26.9900  -28.2230   18.9500 C   0  0  0  0  0  3  0  0  0  0  0  0
  -25.7030  -28.8030   19.0900 C   0  0  0  0  0  3  0  0  0  0  0  0
  -24.0400  -30.3840   20.2420 C   0  0  0  0  0  2  0  0  0  0  0  0
  -24.7700  -31.3260   22.4630 N   0  0  0  0  0  0  0  0  0  0  0  0
  -23.3480  -31.6960   24.2200 O   0  0  0  0  0  0  0  0  0  0  0  0
  -23.2580  -29.2930   22.3970 C   0  0  0  0  0  0  0  0  0  0  0  0
  -22.0420  -28.8780   22.0560 N   0  0  0  0  0  0  0  0  0  0  0  0
  -24.0130  -28.6640   23.1370 O   0  0  0  0  0  0  0  0  0  0  0  0
  -21.5230  -29.5430   21.4990 H   0  0  0  0  0  0  0  0  0  0  0  0
  -19.2000  -26.4230   21.8830 C   0  0  0  0  0  0  0  0  0  0  0  0
  -21.4190  -27.5760   22.1190 C   0  0  0  0  0  3  0  0  0  0  0  0
  -22.1310  -26.3070   21.6440 C   0  0  0  0  0  2  0  0  0  0  0  0
  -21.2880  -25.6800   20.5160 C   0  0  0  0  0  2  0  0  0  0  0  0
  -19.8500  -25.3620   20.9910 C   0  0  0  0  0  2  0  0  0  0  0  0
  -19.9660  -27.4280   22.5200 C   0  0  0  0  0  0  0  0  0  0  0  0
  -19.3380  -28.3870   23.3420 C   0  0  0  0  0  3  0  0  0  0  0  0
  -17.9430  -28.3780   23.4900 C   0  0  0  0  0  3  0  0  0  0  0  0
  -17.1680  -27.3960   22.8380 C   0  0  0  0  0  3  0  0  0  0  0  0
  -17.8010  -26.4140   22.0550 C   0  0  0  0  0  3  0  0  0  0  0  0
  -25.5400  -32.5930   24.5410 C   0  0  0  0  0  3  0  0  0  0  0  0
  -25.0330  -33.9570   24.7840 N   0  0  0  0  0  0  0  0  0  0  0  0
  -25.3940  -35.0440   24.0950 C   0  0  0  0  0  0  0  0  0  0  0  0
  -26.2460  -35.0160   23.2060 O   0  0  0  0  0  0  0  0  0  0  0  0
  -24.2990  -34.0520   25.4660 H   0  0  0  0  0  0  0  0  0  0  0  0
  -23.6000  -36.6800   23.4250 C   0  0  0  0  0  1  0  0  0  0  0  0
  -24.7070  -36.3810   24.4480 C   0  0  0  0  0  3  0  0  0  0  0  0
  -26.5840  -37.4370   25.6290 C   0  0  0  0  0  1  0  0  0  0  0  0
  -25.6420  -37.5250   24.5180 N   0  0  0  0  0  0  0  0  0  0  0  0
  -25.1320  -38.4010   24.6040 H   0  0  0  0  0  0  0  0  0  0  0  0
  -25.8670  -31.8840   25.9120 C   0  0  1  0  0  0  0  0  0  0  0  0
  -24.6120  -31.5130   26.7370 C   0  0  0  0  0  1  0  0  0  0  0  0
  -26.6730  -30.5840   25.6880 C   0  0  0  0  0  1  0  0  0  0  0  0
  -26.7520  -32.8060   26.7800 C   0  0  0  0  0  1  0  0  0  0  0  0
  -32.2580  -22.5890   18.8200 C   0  0  0  0  0  2  0  0  0  0  0  0
  -33.1310  -21.2030   19.6620 C   0  0  0  0  0  2  0  0  0  0  0  0
  -33.9290  -18.2960   19.9880 C   0  0  0  0  0  0  0  0  0  0  0  0
  -34.1780  -15.7190   19.5650 C   0  0  0  0  0  2  0  0  0  0  0  0
  -33.5010  -15.2400   18.2550 C   0  0  0  0  0  2  0  0  0  0  0  0
  -31.9950  -14.9920   18.4690 C   0  0  0  0  0  2  0  0  0  0  0  0
  -31.3320  -16.0890   19.3420 C   0  0  0  0  0  3  0  0  0  0  0  0
  -32.1690  -16.4810   20.5770 C   0  0  0  0  0  2  0  0  0  0  0  0
  -33.4530  -16.9540   20.0550 N   0  0  0  0  0  0  0  0  0  0  0  0
  -35.1690  -18.3490   20.0460 O   0  0  0  0  0  0  0  0  0  0  0  0
  -33.0770  -19.4970   19.6910 N   0  0  0  0  0  0  0  0  0  0  0  0
  -32.1350  -19.1620   19.5900 H   0  0  0  0  0  0  0  0  0  0  0  0
  -28.8910  -16.6780   19.7730 C   0  0  0  0  0  0  0  0  0  0  0  0
  -27.7810  -15.9150   19.9980 C   0  0  0  0  0  0  0  0  0  0  0  0
  -28.2290  -14.5580   20.0390 C   0  0  0  0  0  0  0  0  0  0  0  0
  -29.9450  -15.7890   19.6710 N   0  0  0  0  0  0  0  0  0  0  0  0
  -29.5520  -14.5100   19.9100 N   0  0  0  0  0  0  0  0  0  0  0  0
  -27.4650  -13.3080   20.1340 C   0  0  0  0  0  0  0  0  0  0  0  0
  -27.4900  -12.5100   21.2990 C   0  0  0  0  0  3  0  0  0  0  0  0
  -26.7240  -11.3270   21.3750 C   0  0  0  0  0  3  0  0  0  0  0  0
  -25.9150  -10.9310   20.2830 C   0  0  0  0  0  0  0  0  0  0  0  0
  -25.9060  -11.7190   19.1180 C   0  0  0  0  0  3  0  0  0  0  0  0
  -26.6740  -12.8940   19.0420 C   0  0  0  0  0  3  0  0  0  0  0  0
  -25.1610   -9.7840   20.2580 O   0  0  0  0  0  0  0  0  0  0  0  0
  -24.3410   -9.4400   21.3030 C   0  0  0  0  0  0  0  0  0  0  0  0
  -23.2390  -10.2390   21.6790 C   0  0  0  0  0  3  0  0  0  0  0  0
  -22.3790   -9.8120   22.7100 C   0  0  0  0  0  3  0  0  0  0  0  0
  -22.6140   -8.5870   23.3630 C   0  0  0  0  0  0  0  0  0  0  0  0
  -23.7030   -7.7830   22.9800 C   0  0  0  0  0  3  0  0  0  0  0  0
  -24.5620   -8.2090   21.9520 C   0  0  0  0  0  0  0  0  0  0  0  0
  -25.6010   -7.4230   21.5790 F   0  0  0  0  0  0  0  0  0  0  0  0
  -21.7810   -8.1710   24.3460 F   0  0  0  0  0  0  0  0  0  0  0  0
  -26.3650  -16.4110   20.0610 C   0  0  0  0  0  0  0  0  0  0  0  0
  -25.5160  -15.7380   20.8200 N   0  0  0  0  0  0  0  0  0  0  0  0
  -26.0260  -17.4430   19.4820 O   0  0  0  0  0  0  0  0  0  0  0  0
  -25.8020  -14.9030   21.3120 H   0  0  0  0  0  0  0  0  0  0  0  0
  -24.5600  -16.0500   20.9090 H   0  0  0  0  0  0  0  0  0  0  0  0
  -29.0890  -18.0440   19.5990 N   0  0  0  0  0  0  0  0  0  0  0  0
  -28.3070  -18.6900   19.5760 H   0  0  0  0  0  0  0  0  0  0  0  0
  -29.9570  -18.4710   19.3050 H   0  0  0  0  0  0  0  0  0  0  0  0
  1  3  1  0
  2  5  2  0
  2  6  1  0
  3  7  1  0
  4  3  2  0
  5  4  1  0
  6 13  1  0
  6  1  2  0
  7 12  2  0
  8  4  1  0
  9  7  1  0
 10  8  1  0
 10 11  1  0
 11  9  1  0
 13 15  1  0
 14 25  2  0
 15 20  1  0
 16 26  1  0
 16 24  1  0
 17 23  1  0
 17 19  1  0
 18 24  1  0
 19 18  1  0
 20 19  2  0
 21 22  1  0
 21 15  2  0
 22 17  2  0
 23 16  1  0
 24 14  1  0
 26 28  2  0
 27 26  1  0
 29 27  1  0
 30 39  2  0
 30 35  1  0
 31 27  1  0
 31 35  1  0
 32 31  1  0
 33 34  1  0
 33 32  1  0
 34 30  1  0
 35 36  2  0
 36 37  1  0
 38 37  2  0
 39 38  1  0
 40 14  1  0
 40 41  1  0
 40 50  1  0
 41 44  1  0
 42 46  1  0
 42 41  1  0
 43 42  2  0
 46 45  1  0
 46 48  1  0
 48 49  1  0
 48 47  1  0
 50 51  1  1
 50 53  1  0
 52 50  1  0
 54  5  1  0
 54 55  1  0
 55 64  1  0
 56 63  2  0
 56 62  1  0
 57 62  1  0
 58 59  1  0
 58 57  1  0
 60 59  1  0
 60 69  1  0
 60 61  1  0
 62 61  1  0
 64 56  1  0
 65 64  1  0
 66 67  2  0
 67 68  1  0
 67 86  1  0
 68 71  1  0
 69 66  1  0
 69 70  1  0
 70 68  2  0
 71 72  1  0
 72 73  2  0
 74 73  1  0
 75 74  2  0
 76 75  1  0
 76 71  2  0
 77 74  1  0
 77 78  1  0
 78 79  2  0
 78 83  1  0
 79 80  1  0
 80 81  2  0
 81 85  1  0
 82 81  1  0
 83 82  2  0
 84 83  1  0
 86 87  1  0
 87 90  1  0
 87 89  1  0
 88 86  2  0
 91 66  1  0
 92 91  1  0
 93 91  1  0
M  ISO  4   6 101  13 101  56 100  64 100
M  END
>  <TORSDO>  (60) 
F 18

>  <SCORE>  (60) 
-3.177

>  <name>  (60) 
59

>  <ligand_id>  (60) 
59

>  <original_smiles>  (60) 
[H]c1c([H])c([H])c2c(c1[H])C([H])([H])C([H])([H])C([H])([H])C2([H])N([H])C(=O)C1([H])N(C(=O)C([H])(N([H])C(=O)C([H])(N([H])C([H])([H])[H])C([H])([H])[H])C(C([H])([H])[H])(C([H])([H])[H])C([H])([H])[H])C([H])([H])c2c([H])c(Oc3c([H])c4c(c(C([H])([H])C([H])([H])N([H])C(=O)N5C([H])([H])C([H])([H])C([H])([H])C([H])(n6nc(-c7c([H])c([H])c(Oc8c([H])c([H])c(F)c([H])c8F)c([H])c7[H])c(C(=O)N([H])[H])c6N([H])[H])C5([H])[H])c3[H])C([H])([H])C([H])([H])C([H])([H])C([H])([H])C4=O)c([H])c([H])c2C1([H])[H]

>  <smiles>  (60) 
[H]c1c([H])c([H])c2c(c1[H])C([H])([H])C([H])([H])C([H])([H])C2([H])N([H])C(=O)C1([H])N(C(=O)C([H])(N([H])C(=O)C([H])(N([H])C([H])([H])[H])C([H])([H])[H])C(C([H])([H])[H])(C([H])([H])[H])C([H])([H])[H])C([H])([H])c2c([H])c(Oc3c([H])c4c(c(C([H])([H])C([H])([H])N([H])C(=O)N5C([H])([H])C([H])([H])C([H])([H])C([H])(n6nc(-c7c([H])c([H])c(Oc8c([H])c([H])c(F)c([H])c8F)c([H])c7[H])c(C(=O)N([H])[H])c6N([H])[H])C5([H])[H])c3[H])C([H])([H])C([H])([H])C([H])([H])C([H])([H])C4=O)c([H])c([H])c2C1([H])[H]

$$$$
60:0:0
     RDKit          3D

 91100  0  0  1  0  0  0  0  0999 V2000
  -29.4070  -22.3940   22.0850 C   0  0  0  0  0  3  0  0  0  0  0  0
  -28.9620  -23.7520   21.7610 C   0  0  0  0  0  3  0  0  0  0  0  0
  -28.5720  -22.9920   19.6020 C   0  0  0  0  0  3  0  0  0  0  0  0
  -29.4350  -21.2220   21.2280 C   0  0  0  0  0  0  0  0  0  0  0  0
  -29.0030  -21.5180   19.9070 C   0  0  0  0  0  0  0  0  0  0  0  0
  -28.4930  -24.2540   20.4910 C   0  0  0  0  0  0  0  0  0  0  0  0
  -30.1480  -19.8490   21.6890 C   0  0  0  0  0  0  0  0  0  0  0  0
  -29.0380  -20.1810   18.9510 C   0  0  0  0  0  0  0  0  0  0  0  0
  -29.8010  -18.2370   21.4780 C   0  0  0  0  0  2  0  0  0  0  0  0
  -29.8720  -18.6980   19.0850 C   0  0  0  0  0  2  0  0  0  0  0  0
  -29.6040  -17.3420   20.0970 C   0  0  2  0  0  0  0  0  0  0  0  0
  -28.0850  -17.0820   19.9860 C   0  0  0  0  0  1  0  0  0  0  0  0
  -31.1470  -20.0170   22.3960 O   0  0  0  0  0  0  0  0  0  0  0  0
  -28.4010  -20.2730   17.8980 O   0  0  0  0  0  0  0  0  0  0  0  0
  -30.3660  -15.6680   19.9040 C   0  0  0  0  0  0  0  0  0  0  0  0
  -30.3880  -13.1610   19.0270 C   0  0  0  0  0  2  0  0  0  0  0  0
  -29.4090  -12.8350   17.8720 C   0  0  0  0  0  2  0  0  0  0  0  0
  -27.9980  -12.4950   18.3830 C   0  0  0  0  0  2  0  0  0  0  0  0
  -27.5740  -13.4380   19.5290 C   0  0  0  0  0  3  0  0  0  0  0  0
  -28.6860  -13.6960   20.5760 C   0  0  0  0  0  2  0  0  0  0  0  0
  -29.8440  -14.3070   19.8770 N   0  0  0  0  0  0  0  0  0  0  0  0
  -31.5740  -15.6120   19.6130 O   0  0  0  0  0  0  0  0  0  0  0  0
  -25.2620  -13.9420   20.4640 C   0  0  0  0  0  0  0  0  0  0  0  0
  -24.2280  -13.1510   20.8770 C   0  0  0  0  0  0  0  0  0  0  0  0
  -24.6930  -11.8060   20.7680 C   0  0  0  0  0  0  0  0  0  0  0  0
  -26.2930  -13.0830   20.1280 N   0  0  0  0  0  0  0  0  0  0  0  0
  -25.9690  -11.7860   20.3780 N   0  0  0  0  0  0  0  0  0  0  0  0
  -23.9820  -10.5380   20.9630 C   0  0  0  0  0  0  0  0  0  0  0  0
  -24.4440   -9.5670   21.8770 C   0  0  0  0  0  3  0  0  0  0  0  0
  -23.7300   -8.3650   22.0660 C   0  0  0  0  0  3  0  0  0  0  0  0
  -22.5380   -8.1280   21.3430 C   0  0  0  0  0  0  0  0  0  0  0  0
  -22.0960   -9.0880   20.4170 C   0  0  0  0  0  3  0  0  0  0  0  0
  -22.8110  -10.2810   20.2290 C   0  0  0  0  0  3  0  0  0  0  0  0
  -21.7900   -6.9830   21.4410 O   0  0  0  0  0  0  0  0  0  0  0  0
  -21.7270   -6.2580   22.6030 C   0  0  0  0  0  0  0  0  0  0  0  0
  -21.2630   -6.8260   23.8110 C   0  0  0  0  0  3  0  0  0  0  0  0
  -21.1550   -6.0270   24.9680 C   0  0  0  0  0  3  0  0  0  0  0  0
  -21.4970   -4.6630   24.9150 C   0  0  0  0  0  0  0  0  0  0  0  0
  -21.9430   -4.0940   23.7110 C   0  0  0  0  0  3  0  0  0  0  0  0
  -22.0560   -4.8890   22.5570 C   0  0  0  0  0  0  0  0  0  0  0  0
  -22.4770   -4.3310   21.3950 F   0  0  0  0  0  0  0  0  0  0  0  0
  -21.3780   -3.8930   26.0240 F   0  0  0  0  0  0  0  0  0  0  0  0
  -22.8510  -13.6210   21.2390 C   0  0  0  0  0  0  0  0  0  0  0  0
  -22.1820  -12.9060   22.1360 N   0  0  0  0  0  0  0  0  0  0  0  0
  -22.3780  -14.6530   20.7670 O   0  0  0  0  0  0  0  0  0  0  0  0
  -22.5870  -12.0820   22.5510 H   0  0  0  0  0  0  0  0  0  0  0  0
  -21.2550  -13.1960   22.4120 H   0  0  0  0  0  0  0  0  0  0  0  0
  -25.3870  -15.3170   20.3100 N   0  0  0  0  0  0  0  0  0  0  0  0
  -24.5940  -15.9360   20.4450 H   0  0  0  0  0  0  0  0  0  0  0  0
  -26.1950  -15.7830   19.9180 H   0  0  0  0  0  0  0  0  0  0  0  0
  -28.3430  -25.8200   20.2580 O   0  0  0  0  0  0  0  0  0  0  0  0
  -24.6470  -31.9070   23.2580 C   0  0  0  0  0  0  0  0  0  0  0  0
  -27.2750  -26.9100   20.3220 C   0  0  0  0  0  0  0  0  0  0  0  0
  -23.4840  -30.4880   21.6180 C   0  0  0  0  0  3  0  0  0  0  0  0
  -24.9600  -28.8520   20.2420 C   0  0  0  0  0  0  0  0  0  0  0  0
  -26.0600  -30.6770   21.5140 C   0  0  0  0  0  2  0  0  0  0  0  0
  -26.1440  -29.2430   20.8830 C   0  0  0  0  0  0  0  0  0  0  0  0
  -27.2840  -28.2970   20.8930 C   0  0  0  0  0  3  0  0  0  0  0  0
  -26.0540  -26.7010   19.6280 C   0  0  0  0  0  3  0  0  0  0  0  0
  -24.9460  -27.6000   19.6000 C   0  0  0  0  0  3  0  0  0  0  0  0
  -23.7420  -29.7830   20.2590 C   0  0  0  0  0  2  0  0  0  0  0  0
  -24.7550  -31.0560   22.1840 N   0  0  0  0  0  0  0  0  0  0  0  0
  -23.5480  -32.1990   23.7560 O   0  0  0  0  0  0  0  0  0  0  0  0
  -22.7750  -29.5080   22.5870 C   0  0  0  0  0  0  0  0  0  0  0  0
  -21.4450  -29.3450   22.4580 N   0  0  0  0  0  0  0  0  0  0  0  0
  -23.4330  -28.8910   23.4290 O   0  0  0  0  0  0  0  0  0  0  0  0
  -20.9660  -29.8860   21.7520 H   0  0  0  0  0  0  0  0  0  0  0  0
  -18.0610  -28.1180   22.9540 C   0  0  0  0  0  0  0  0  0  0  0  0
  -20.6190  -28.4070   23.2260 C   0  0  0  0  0  3  0  0  0  0  0  0
  -20.7360  -26.9710   22.6610 C   0  0  0  0  0  2  0  0  0  0  0  0
  -19.6420  -26.6390   21.6410 C   0  0  0  0  0  2  0  0  0  0  0  0
  -18.2550  -26.7740   22.2740 C   0  0  0  0  0  2  0  0  0  0  0  0
  -19.1720  -28.8940   23.3870 C   0  0  0  0  0  0  0  0  0  0  0  0
  -18.9360  -30.1510   23.9820 C   0  0  0  0  0  3  0  0  0  0  0  0
  -17.6250  -30.6370   24.1470 C   0  0  0  0  0  3  0  0  0  0  0  0
  -16.5300  -29.8620   23.7280 C   0  0  0  0  0  3  0  0  0  0  0  0
  -16.7500  -28.6040   23.1380 C   0  0  0  0  0  3  0  0  0  0  0  0
  -25.9010  -32.5670   23.9120 C   0  0  0  0  0  3  0  0  0  0  0  0
  -25.5740  -33.9700   24.2250 N   0  0  0  0  0  0  0  0  0  0  0  0
  -25.9010  -35.0230   23.4640 C   0  0  0  0  0  0  0  0  0  0  0  0
  -26.5680  -34.9150   22.4290 O   0  0  0  0  0  0  0  0  0  0  0  0
  -24.9780  -34.1300   25.0250 H   0  0  0  0  0  0  0  0  0  0  0  0
  -24.1510  -36.8080   23.1340 C   0  0  0  0  0  1  0  0  0  0  0  0
  -25.4120  -36.4160   23.9200 C   0  0  0  0  0  3  0  0  0  0  0  0
  -27.5540  -37.3360   24.6930 C   0  0  0  0  0  1  0  0  0  0  0  0
  -26.4330  -37.4750   23.7690 N   0  0  0  0  0  0  0  0  0  0  0  0
  -26.0250  -38.3960   23.9090 H   0  0  0  0  0  0  0  0  0  0  0  0
  -26.3840  -31.8240   25.2180 C   0  0  1  0  0  0  0  0  0  0  0  0
  -25.2620  -31.6030   26.2600 C   0  0  0  0  0  1  0  0  0  0  0  0
  -26.9840  -30.4420   24.8790 C   0  0  0  0  0  1  0  0  0  0  0  0
  -27.5180  -32.6350   25.8910 C   0  0  0  0  0  1  0  0  0  0  0  0
  2  1  1  0
  3  5  2  0
  3  6  1  0
  4  7  1  0
  4  1  2  0
  5  4  1  0
  6  2  2  0
  7 13  2  0
  8 10  1  0
  8  5  1  0
  9  7  1  0
 10 11  1  0
 11 12  1  1
 11  9  1  0
 14  8  2  0
 15 11  1  0
 16 21  1  0
 17 18  1  0
 17 16  1  0
 19 18  1  0
 19 26  1  0
 19 20  1  0
 21 15  1  0
 21 20  1  0
 22 15  2  0
 23 24  2  0
 24 43  1  0
 25 24  1  0
 25 28  1  0
 26 27  1  0
 26 23  1  0
 27 25  2  0
 28 29  1  0
 29 30  2  0
 31 34  1  0
 31 30  1  0
 32 31  2  0
 33 32  1  0
 33 28  2  0
 34 35  1  0
 35 36  1  0
 36 37  2  0
 38 37  1  0
 38 42  1  0
 39 38  2  0
 40 35  2  0
 40 39  1  0
 41 40  1  0
 43 44  1  0
 44 47  1  0
 44 46  1  0
 45 43  2  0
 48 49  1  0
 48 23  1  0
 50 48  1  0
 51 53  1  0
 51  6  1  0
 52 63  2  0
 53 58  1  0
 54 62  1  0
 54 64  1  0
 55 61  1  0
 55 57  1  0
 56 62  1  0
 57 58  2  0
 57 56  1  0
 59 53  2  0
 60 59  1  0
 60 55  2  0
 61 54  1  0
 62 52  1  0
 64 66  2  0
 65 64  1  0
 67 65  1  0
 68 77  2  0
 68 73  1  0
 69 65  1  0
 69 73  1  0
 70 69  1  0
 71 72  1  0
 71 70  1  0
 72 68  1  0
 73 74  2  0
 74 75  1  0
 76 75  2  0
 77 76  1  0
 78 52  1  0
 78 79  1  0
 78 88  1  0
 79 82  1  0
 80 84  1  0
 80 79  1  0
 81 80  2  0
 84 83  1  0
 86 87  1  0
 86 84  1  0
 86 85  1  0
 88 91  1  1
 88 89  1  0
 90 88  1  0
M  ISO  4   6 101  11 100  15 100  51 101
M  END
>  <TORSDO>  (61) 
F 16

>  <SCORE>  (61) 
-16.002

>  <name>  (61) 
60

>  <ligand_id>  (61) 
60

>  <original_smiles>  (61) 
[H]c1c([H])c([H])c2c(c1[H])C([H])([H])C([H])([H])C([H])([H])C2([H])N([H])C(=O)C1([H])N(C(=O)C([H])(N([H])C(=O)C([H])(N([H])C([H])([H])[H])C([H])([H])[H])C(C([H])([H])[H])(C([H])([H])[H])C([H])([H])[H])C([H])([H])c2c([H])c(Oc3c([H])c([H])c4c(c3[H])C(=O)C([H])([H])C(C(=O)N3C([H])([H])C([H])([H])C([H])([H])C([H])(n5nc(-c6c([H])c([H])c(Oc7c([H])c([H])c(F)c([H])c7F)c([H])c6[H])c(C(=O)N([H])[H])c5N([H])[H])C3([H])[H])(C([H])([H])[H])C([H])([H])C4=O)c([H])c([H])c2C1([H])[H]

>  <smiles>  (61) 
[H]c1c([H])c([H])c2c(c1[H])C([H])([H])C([H])([H])C([H])([H])C2([H])N([H])C(=O)C1([H])N(C(=O)C([H])(N([H])C(=O)C([H])(N([H])C([H])([H])[H])C([H])([H])[H])C(C([H])([H])[H])(C([H])([H])[H])C([H])([H])[H])C([H])([H])c2c([H])c(Oc3c([H])c([H])c4c(c3[H])C(=O)C([H])([H])C(C(=O)N3C([H])([H])C([H])([H])C([H])([H])C([H])(n5nc(-c6c([H])c([H])c(Oc7c([H])c([H])c(F)c([H])c7F)c([H])c6[H])c(C(=O)N([H])[H])c5N([H])[H])C3([H])[H])(C([H])([H])[H])C([H])([H])C4=O)c([H])c([H])c2C1([H])[H]

$$$$
61:0:0
     RDKit          3D

 90 98  0  0  1  0  0  0  0  0999 V2000
  -28.7330  -22.1610   19.1540 C   0  0  0  0  0  3  0  0  0  0  0  0
  -28.5120  -23.6330   19.1150 C   0  0  0  0  0  3  0  0  0  0  0  0
  -28.5320  -22.2050   21.4420 C   0  0  0  0  0  3  0  0  0  0  0  0
  -28.7720  -21.2950   20.3260 C   0  0  0  0  0  0  0  0  0  0  0  0
  -28.3120  -23.6770   21.4090 C   0  0  0  0  0  0  0  0  0  0  0  0
  -28.2550  -24.5370   20.2310 C   0  0  0  0  0  0  0  0  0  0  0  0
  -28.1560  -24.3180   22.6350 N   0  0  0  0  0  0  0  0  0  0  0  0
  -28.5450  -23.8760   23.4610 H   0  0  0  0  0  0  0  0  0  0  0  0
  -28.2610  -25.3290   22.6410 H   0  0  0  0  0  0  0  0  0  0  0  0
  -28.2410  -26.0650   20.2020 O   0  0  0  0  0  0  0  0  0  0  0  0
  -24.6720  -31.9490   23.2370 C   0  0  0  0  0  0  0  0  0  0  0  0
  -27.1740  -27.0900   20.2020 C   0  0  0  0  0  0  0  0  0  0  0  0
  -23.4500  -30.5580   21.6130 C   0  0  0  0  0  3  0  0  0  0  0  0
  -24.8730  -28.9430   20.1790 C   0  0  0  0  0  0  0  0  0  0  0  0
  -26.0110  -30.7660   21.4340 C   0  0  0  0  0  2  0  0  0  0  0  0
  -26.0650  -29.3580   20.7850 C   0  0  0  0  0  0  0  0  0  0  0  0
  -27.2090  -28.4490   20.7740 C   0  0  0  0  0  3  0  0  0  0  0  0
  -25.9540  -26.8110   19.5510 C   0  0  0  0  0  3  0  0  0  0  0  0
  -24.8380  -27.6900   19.5450 C   0  0  0  0  0  3  0  0  0  0  0  0
  -23.6570  -29.8660   20.2360 C   0  0  0  0  0  2  0  0  0  0  0  0
  -24.7330  -31.1180   22.1480 N   0  0  0  0  0  0  0  0  0  0  0  0
  -23.5920  -32.2450   23.7720 O   0  0  0  0  0  0  0  0  0  0  0  0
  -22.7650  -29.5670   22.5880 C   0  0  0  0  0  0  0  0  0  0  0  0
  -21.4360  -29.3910   22.4640 N   0  0  0  0  0  0  0  0  0  0  0  0
  -23.4350  -28.9540   23.4250 O   0  0  0  0  0  0  0  0  0  0  0  0
  -20.9490  -29.9350   21.7660 H   0  0  0  0  0  0  0  0  0  0  0  0
  -18.0630  -28.1600   22.9720 C   0  0  0  0  0  0  0  0  0  0  0  0
  -20.6190  -28.4560   23.2430 C   0  0  0  0  0  3  0  0  0  0  0  0
  -20.7370  -27.0180   22.6890 C   0  0  0  0  0  2  0  0  0  0  0  0
  -19.6430  -26.6710   21.6740 C   0  0  0  0  0  2  0  0  0  0  0  0
  -18.2570  -26.8060   22.3100 C   0  0  0  0  0  2  0  0  0  0  0  0
  -19.1710  -28.9420   23.3950 C   0  0  0  0  0  0  0  0  0  0  0  0
  -18.9330  -30.2060   23.9780 C   0  0  0  0  0  3  0  0  0  0  0  0
  -17.6210  -30.6910   24.1380 C   0  0  0  0  0  3  0  0  0  0  0  0
  -16.5280  -29.9070   23.7280 C   0  0  0  0  0  3  0  0  0  0  0  0
  -16.7500  -28.6440   23.1510 C   0  0  0  0  0  3  0  0  0  0  0  0
  -25.9560  -32.5840   23.8540 C   0  0  0  0  0  3  0  0  0  0  0  0
  -26.4690  -31.8190   25.1370 C   0  0  1  0  0  0  0  0  0  0  0  0
  -25.3780  -31.5970   26.2100 C   0  0  0  0  0  1  0  0  0  0  0  0
  -27.0440  -30.4350   24.7620 C   0  0  0  0  0  1  0  0  0  0  0  0
  -27.6280  -32.6110   25.7900 C   0  0  0  0  0  1  0  0  0  0  0  0
  -25.6510  -33.9860   24.1890 N   0  0  0  0  0  0  0  0  0  0  0  0
  -25.9520  -35.0420   23.4210 C   0  0  0  0  0  0  0  0  0  0  0  0
  -26.5780  -34.9370   22.3620 O   0  0  0  0  0  0  0  0  0  0  0  0
  -25.0890  -34.1400   25.0130 H   0  0  0  0  0  0  0  0  0  0  0  0
  -24.2020  -36.8330   23.1580 C   0  0  0  0  0  1  0  0  0  0  0  0
  -25.4880  -36.4330   23.8980 C   0  0  0  0  0  3  0  0  0  0  0  0
  -27.6570  -37.3380   24.6130 C   0  0  0  0  0  1  0  0  0  0  0  0
  -26.5100  -37.4890   23.7220 N   0  0  0  0  0  0  0  0  0  0  0  0
  -26.1070  -38.4090   23.8770 H   0  0  0  0  0  0  0  0  0  0  0  0
  -28.7400  -19.5530   20.3800 C   0  0  0  0  0  3  0  0  0  0  0  0
  -29.8970  -18.2040   20.3470 C   0  0  0  0  0  3  0  0  0  0  0  0
  -30.4000  -15.3210   20.2530 C   0  0  0  0  0  0  0  0  0  0  0  0
  -30.3580  -12.9120   19.3180 C   0  0  0  0  0  2  0  0  0  0  0  0
  -29.4170  -12.7560   18.0980 C   0  0  0  0  0  2  0  0  0  0  0  0
  -27.9720  -12.4840   18.5540 C   0  0  0  0  0  2  0  0  0  0  0  0
  -27.5440  -13.4130   19.7190 C   0  0  0  0  0  3  0  0  0  0  0  0
  -28.6120  -13.5160   20.8280 C   0  0  0  0  0  2  0  0  0  0  0  0
  -29.8340  -14.0230   20.1880 N   0  0  0  0  0  0  0  0  0  0  0  0
  -31.6130  -15.3470   20.0000 O   0  0  0  0  0  0  0  0  0  0  0  0
  -29.6260  -16.5660   20.3970 N   0  0  0  0  0  0  0  0  0  0  0  0
  -28.6510  -16.3560   20.5540 H   0  0  0  0  0  0  0  0  0  0  0  0
  -25.1770  -13.9420   20.5080 C   0  0  0  0  0  0  0  0  0  0  0  0
  -24.1280  -13.1510   20.8840 C   0  0  0  0  0  0  0  0  0  0  0  0
  -24.6090  -11.8060   20.8320 C   0  0  0  0  0  0  0  0  0  0  0  0
  -26.2260  -13.0800   20.2410 N   0  0  0  0  0  0  0  0  0  0  0  0
  -25.8970  -11.7890   20.5040 N   0  0  0  0  0  0  0  0  0  0  0  0
  -23.8970  -10.5330   21.0160 C   0  0  0  0  0  0  0  0  0  0  0  0
  -24.3290   -9.5740   21.9570 C   0  0  0  0  0  3  0  0  0  0  0  0
  -23.6150   -8.3680   22.1310 C   0  0  0  0  0  3  0  0  0  0  0  0
  -22.4540   -8.1150   21.3620 C   0  0  0  0  0  0  0  0  0  0  0  0
  -22.0410   -9.0640   20.4100 C   0  0  0  0  0  3  0  0  0  0  0  0
  -22.7570  -10.2600   20.2350 C   0  0  0  0  0  3  0  0  0  0  0  0
  -21.7110   -6.9620   21.4450 O   0  0  0  0  0  0  0  0  0  0  0  0
  -21.6280   -6.2410   22.6090 C   0  0  0  0  0  0  0  0  0  0  0  0
  -21.0990   -6.7960   23.7940 C   0  0  0  0  0  3  0  0  0  0  0  0
  -20.9690   -5.9990   24.9480 C   0  0  0  0  0  3  0  0  0  0  0  0
  -21.3560   -4.6460   24.9170 C   0  0  0  0  0  0  0  0  0  0  0  0
  -21.8760   -4.0890   23.7360 C   0  0  0  0  0  3  0  0  0  0  0  0
  -22.0090   -4.8830   22.5850 C   0  0  0  0  0  0  0  0  0  0  0  0
  -22.4920   -4.3360   21.4430 F   0  0  0  0  0  0  0  0  0  0  0  0
  -21.2230   -3.8770   26.0230 F   0  0  0  0  0  0  0  0  0  0  0  0
  -22.7290  -13.6110   21.1720 C   0  0  0  0  0  0  0  0  0  0  0  0
  -22.0200  -12.9040   22.0440 N   0  0  0  0  0  0  0  0  0  0  0  0
  -22.2750  -14.6330   20.6600 O   0  0  0  0  0  0  0  0  0  0  0  0
  -22.4010  -12.0790   22.4830 H   0  0  0  0  0  0  0  0  0  0  0  0
  -21.0810  -13.1940   22.2810 H   0  0  0  0  0  0  0  0  0  0  0  0
  -25.3200  -15.3160   20.3420 N   0  0  0  0  0  0  0  0  0  0  0  0
  -24.5410  -15.9550   20.4640 H   0  0  0  0  0  0  0  0  0  0  0  0
  -26.1400  -15.7660   19.9560 H   0  0  0  0  0  0  0  0  0  0  0  0
  1  4  1  0
  2  1  2  0
  2  6  1  0
  4 51  1  0
  4  3  2  0
  5  3  1  0
  5  7  1  0
  6  5  2  0
  7  9  1  0
  7  8  1  0
 10 12  1  0
 10  6  1  0
 11 22  2  0
 12 17  1  0
 13 21  1  0
 13 23  1  0
 14 20  1  0
 14 16  1  0
 15 21  1  0
 16 15  1  0
 17 16  2  0
 18 12  2  0
 19 18  1  0
 19 14  2  0
 20 13  1  0
 21 11  1  0
 23 25  2  0
 24 23  1  0
 26 24  1  0
 27 36  2  0
 27 32  1  0
 28 24  1  0
 28 32  1  0
 29 28  1  0
 30 31  1  0
 30 29  1  0
 31 27  1  0
 32 33  2  0
 33 34  1  0
 35 34  2  0
 36 35  1  0
 37 11  1  0
 37 42  1  0
 37 38  1  0
 38 41  1  1
 38 39  1  0
 40 38  1  0
 42 45  1  0
 43 47  1  0
 43 42  1  0
 44 43  2  0
 47 46  1  0
 49 50  1  0
 49 47  1  0
 49 48  1  0
 52 51  2  0
 52 61  1  0
 53 61  1  0
 54 59  1  0
 55 56  1  0
 55 54  1  0
 57 56  1  0
 57 66  1  0
 57 58  1  0
 59 53  1  0
 59 58  1  0
 60 53  2  0
 61 62  1  0
 63 64  2  0
 64 83  1  0
 65 64  1  0
 65 68  1  0
 66 67  1  0
 66 63  1  0
 67 65  2  0
 68 69  1  0
 69 70  2  0
 71 74  1  0
 71 70  1  0
 72 71  2  0
 73 72  1  0
 73 68  2  0
 74 75  1  0
 75 76  1  0
 76 77  2  0
 78 77  1  0
 78 82  1  0
 79 78  2  0
 80 75  2  0
 80 79  1  0
 81 80  1  0
 83 84  1  0
 84 87  1  0
 84 86  1  0
 85 83  2  0
 88 89  1  0
 88 63  1  0
 90 88  1  0
M  ISO  4   6 101  10 101  53 100  61 100
M  END
>  <TORSDO>  (62) 
F 19

>  <SCORE>  (62) 
-15.573

>  <name>  (62) 
61

>  <ligand_id>  (62) 
61

>  <original_smiles>  (62) 
[H]c1c([H])c([H])c2c(c1[H])C([H])([H])C([H])([H])C([H])([H])C2([H])N([H])C(=O)C1([H])N(C(=O)C([H])(N([H])C(=O)C([H])(N([H])C([H])([H])[H])C([H])([H])[H])C(C([H])([H])[H])(C([H])([H])[H])C([H])([H])[H])C([H])([H])c2c([H])c(Oc3c([H])c([H])c(C([H])([H])C([H])([H])N([H])C(=O)N4C([H])([H])C([H])([H])C([H])([H])C([H])(n5nc(-c6c([H])c([H])c(Oc7c([H])c([H])c(F)c([H])c7F)c([H])c6[H])c(C(=O)N([H])[H])c5N([H])[H])C4([H])[H])c([H])c3N([H])[H])c([H])c([H])c2C1([H])[H]

>  <smiles>  (62) 
[H]c1c([H])c([H])c2c(c1[H])C([H])([H])C([H])([H])C([H])([H])C2([H])N([H])C(=O)C1([H])N(C(=O)C([H])(N([H])C(=O)C([H])(N([H])C([H])([H])[H])C([H])([H])[H])C(C([H])([H])[H])(C([H])([H])[H])C([H])([H])[H])C([H])([H])c2c([H])c(Oc3c([H])c([H])c(C([H])([H])C([H])([H])N([H])C(=O)N4C([H])([H])C([H])([H])C([H])([H])C([H])(n5nc(-c6c([H])c([H])c(Oc7c([H])c([H])c(F)c([H])c7F)c([H])c6[H])c(C(=O)N([H])[H])c5N([H])[H])C4([H])[H])c([H])c3N([H])[H])c([H])c([H])c2C1([H])[H]

$$$$
62:0:0
     RDKit          3D

 91 98  0  0  1  0  0  0  0  0999 V2000
  -29.3620  -23.0730   21.0830 C   0  0  0  0  0  3  0  0  0  0  0  0
  -27.2520  -24.2310   19.5690 C   0  0  0  0  0  3  0  0  0  0  0  0
  -28.0720  -23.2080   21.6430 C   0  0  0  0  0  0  0  0  0  0  0  0
  -29.4480  -23.1200   19.6840 C   0  0  0  0  0  0  0  0  0  0  0  0
  -26.9890  -23.6520   20.8330 C   0  0  0  0  0  0  0  0  0  0  0  0
  -28.5910  -24.4610   19.2040 C   0  0  0  0  0  0  0  0  0  0  0  0
  -27.8630  -22.7450   23.0760 C   0  0  0  0  0  1  0  0  0  0  0  0
  -24.6950  -22.5750   20.6310 C   0  0  0  0  0  1  0  0  0  0  0  0
  -25.5500  -23.6310   21.3380 C   0  0  0  0  0  2  0  0  0  0  0  0
  -28.7240  -26.0820   19.0740 O   0  0  0  0  0  0  0  0  0  0  0  0
  -25.3120  -31.6470   23.4270 C   0  0  0  0  0  0  0  0  0  0  0  0
  -27.7790  -27.3050   19.3610 C   0  0  0  0  0  0  0  0  0  0  0  0
  -24.1130  -30.6620   21.5230 C   0  0  0  0  0  3  0  0  0  0  0  0
  -25.5440  -29.3550   19.7720 C   0  0  0  0  0  0  0  0  0  0  0  0
  -26.6950  -30.7870   21.4340 C   0  0  0  0  0  2  0  0  0  0  0  0
  -26.7430  -29.5320   20.4730 C   0  0  0  0  0  0  0  0  0  0  0  0
  -27.8420  -28.5400   20.2460 C   0  0  0  0  0  3  0  0  0  0  0  0
  -26.5550  -27.3710   18.6460 C   0  0  0  0  0  3  0  0  0  0  0  0
  -25.4910  -28.3060   18.8410 C   0  0  0  0  0  3  0  0  0  0  0  0
  -24.3480  -30.2880   20.0320 C   0  0  0  0  0  2  0  0  0  0  0  0
  -25.3980  -31.0530   22.1870 N   0  0  0  0  0  0  0  0  0  0  0  0
  -24.2210  -31.8380   23.9910 O   0  0  0  0  0  0  0  0  0  0  0  0
  -23.3830  -29.5000   22.2520 C   0  0  0  0  0  0  0  0  0  0  0  0
  -22.0600  -29.3550   22.0460 N   0  0  0  0  0  0  0  0  0  0  0  0
  -24.0220  -28.7320   22.9760 O   0  0  0  0  0  0  0  0  0  0  0  0
  -21.5940  -30.0260   21.4520 H   0  0  0  0  0  0  0  0  0  0  0  0
  -18.6600  -28.0960   22.3100 C   0  0  0  0  0  0  0  0  0  0  0  0
  -21.2270  -28.2710   22.5850 C   0  0  0  0  0  3  0  0  0  0  0  0
  -21.3010  -27.0170   21.6840 C   0  0  0  0  0  2  0  0  0  0  0  0
  -20.1830  -26.9590   20.6380 C   0  0  0  0  0  2  0  0  0  0  0  0
  -18.8110  -26.9530   21.3200 C   0  0  0  0  0  2  0  0  0  0  0  0
  -19.7940  -28.7250   22.8910 C   0  0  0  0  0  0  0  0  0  0  0  0
  -19.5930  -29.8010   23.7830 C   0  0  0  0  0  3  0  0  0  0  0  0
  -18.2950  -30.2510   24.0890 C   0  0  0  0  0  3  0  0  0  0  0  0
  -17.1770  -29.6160   23.5210 C   0  0  0  0  0  3  0  0  0  0  0  0
  -17.3610  -28.5380   22.6380 C   0  0  0  0  0  3  0  0  0  0  0  0
  -26.5800  -32.1260   24.1980 C   0  0  0  0  0  3  0  0  0  0  0  0
  -27.0610  -31.0950   25.2930 C   0  0  1  0  0  0  0  0  0  0  0  0
  -25.9500  -30.6680   26.2800 C   0  0  0  0  0  1  0  0  0  0  0  0
  -27.6200  -29.8100   24.6410 C   0  0  0  0  0  1  0  0  0  0  0  0
  -28.2210  -31.7040   26.1150 C   0  0  0  0  0  1  0  0  0  0  0  0
  -26.2730  -33.4230   24.8350 N   0  0  0  0  0  0  0  0  0  0  0  0
  -26.6150  -34.6230   24.3480 C   0  0  0  0  0  0  0  0  0  0  0  0
  -27.2780  -34.7540   23.3160 O   0  0  0  0  0  0  0  0  0  0  0  0
  -25.6830  -33.3930   25.6540 H   0  0  0  0  0  0  0  0  0  0  0  0
  -24.9130  -36.4790   24.4390 C   0  0  0  0  0  1  0  0  0  0  0  0
  -26.1520  -35.8760   25.1220 C   0  0  0  0  0  3  0  0  0  0  0  0
  -28.2940  -36.5270   26.1380 C   0  0  0  0  0  1  0  0  0  0  0  0
  -27.2000  -36.9130   25.2500 N   0  0  0  0  0  0  0  0  0  0  0  0
  -26.8070  -37.7840   25.5940 H   0  0  0  0  0  0  0  0  0  0  0  0
  -29.6340  -21.2790   19.3260 C   0  0  0  0  0  1  0  0  0  0  0  0
  -32.0580  -19.9960   19.7190 C   0  0  0  0  0  1  0  0  0  0  0  0
  -30.5870  -19.7000   20.0270 C   0  0  0  0  0  2  0  0  0  0  0  0
  -31.2820  -16.5490   20.2600 C   0  0  0  0  0  0  0  0  0  0  0  0
  -31.5500  -13.9250   19.7460 C   0  0  0  0  0  2  0  0  0  0  0  0
  -30.7680  -13.3060   18.5520 C   0  0  0  0  0  2  0  0  0  0  0  0
  -29.3340  -12.9340   18.9580 C   0  0  0  0  0  2  0  0  0  0  0  0
  -28.7050  -14.0290   19.8490 C   0  0  0  0  0  3  0  0  0  0  0  0
  -29.6400  -14.5440   20.9680 C   0  0  0  0  0  2  0  0  0  0  0  0
  -30.8140  -15.1560   20.2980 N   0  0  0  0  0  0  0  0  0  0  0  0
  -32.5280  -16.5060   20.2360 O   0  0  0  0  0  0  0  0  0  0  0  0
  -30.4820  -17.8970   20.0760 N   0  0  0  0  0  0  0  0  0  0  0  0
  -29.5070  -17.6380   20.0040 H   0  0  0  0  0  0  0  0  0  0  0  0
  -26.3330  -14.5580   20.5770 C   0  0  0  0  0  0  0  0  0  0  0  0
  -25.2550  -13.7760   20.8830 C   0  0  0  0  0  0  0  0  0  0  0  0
  -25.7130  -12.4230   20.8140 C   0  0  0  0  0  0  0  0  0  0  0  0
  -27.3750  -13.6850   20.3260 N   0  0  0  0  0  0  0  0  0  0  0  0
  -27.0150  -12.3910   20.5380 N   0  0  0  0  0  0  0  0  0  0  0  0
  -24.9660  -11.1630   20.9340 C   0  0  0  0  0  0  0  0  0  0  0  0
  -25.2740  -10.2120   21.9300 C   0  0  0  0  0  3  0  0  0  0  0  0
  -24.5240   -9.0210   22.0390 C   0  0  0  0  0  3  0  0  0  0  0  0
  -23.4520   -8.7720   21.1490 C   0  0  0  0  0  0  0  0  0  0  0  0
  -23.1650   -9.7120   20.1450 C   0  0  0  0  0  3  0  0  0  0  0  0
  -23.9150  -10.8950   20.0340 C   0  0  0  0  0  3  0  0  0  0  0  0
  -22.6870   -7.6310   21.1640 O   0  0  0  0  0  0  0  0  0  0  0  0
  -22.3710   -6.9900   22.3340 C   0  0  0  0  0  0  0  0  0  0  0  0
  -21.6410   -7.6290   23.3600 C   0  0  0  0  0  3  0  0  0  0  0  0
  -21.2780   -6.9120   24.5170 C   0  0  0  0  0  3  0  0  0  0  0  0
  -21.6340   -5.5560   24.6470 C   0  0  0  0  0  0  0  0  0  0  0  0
  -22.3570   -4.9170   23.6240 C   0  0  0  0  0  3  0  0  0  0  0  0
  -22.7220   -5.6320   22.4700 C   0  0  0  0  0  0  0  0  0  0  0  0
  -23.3980   -5.0040   21.4780 F   0  0  0  0  0  0  0  0  0  0  0  0
  -21.2790   -4.8650   25.7550 F   0  0  0  0  0  0  0  0  0  0  0  0
  -23.8570  -14.2600   21.1240 C   0  0  0  0  0  0  0  0  0  0  0  0
  -23.0940  -13.5460   21.9440 N   0  0  0  0  0  0  0  0  0  0  0  0
  -23.4480  -15.3050   20.6200 O   0  0  0  0  0  0  0  0  0  0  0  0
  -23.4380  -12.6990   22.3730 H   0  0  0  0  0  0  0  0  0  0  0  0
  -22.1530  -13.8530   22.1490 H   0  0  0  0  0  0  0  0  0  0  0  0
  -26.5110  -15.9330   20.4560 N   0  0  0  0  0  0  0  0  0  0  0  0
  -25.7440  -16.5850   20.5700 H   0  0  0  0  0  0  0  0  0  0  0  0
  -27.3640  -16.3740   20.1410 H   0  0  0  0  0  0  0  0  0  0  0  0
  1  3  1  0
  2  5  1  0
  3  7  1  0
  4  1  2  0
  5  9  1  0
  5  3  2  0
  6  2  2  0
  6  4  1  0
  8  9  1  0
 10  6  1  0
 10 12  1  0
 11 22  2  0
 12 17  1  0
 13 21  1  0
 13 23  1  0
 14 20  1  0
 14 16  1  0
 15 21  1  0
 16 15  1  0
 17 16  2  0
 18 19  1  0
 18 12  2  0
 19 14  2  0
 20 13  1  0
 21 11  1  0
 23 25  2  0
 24 23  1  0
 26 24  1  0
 27 36  2  0
 27 32  1  0
 28 24  1  0
 28 32  1  0
 29 28  1  0
 30 31  1  0
 30 29  1  0
 31 27  1  0
 32 33  2  0
 33 34  1  0
 35 34  2  0
 36 35  1  0
 37 11  1  0
 37 42  1  0
 37 38  1  0
 38 41  1  1
 38 39  1  0
 40 38  1  0
 42 45  1  0
 43 42  1  0
 43 47  1  0
 44 43  2  0
 47 46  1  0
 47 49  1  0
 49 50  1  0
 49 48  1  0
 51  4  1  0
 52 53  1  0
 53 62  1  0
 54 60  1  0
 55 60  1  0
 56 57  1  0
 56 55  1  0
 58 57  1  0
 58 67  1  0
 58 59  1  0
 60 59  1  0
 61 54  2  0
 62 54  1  0
 63 62  1  0
 64 65  2  0
 65 84  1  0
 66 65  1  0
 66 69  1  0
 67 68  1  0
 67 64  1  0
 68 66  2  0
 69 70  1  0
 70 71  2  0
 72 75  1  0
 72 71  1  0
 73 72  2  0
 74 73  1  0
 74 69  2  0
 75 76  1  0
 76 81  2  0
 76 77  1  0
 77 78  2  0
 78 79  1  0
 79 83  1  0
 80 79  2  0
 81 80  1  0
 82 81  1  0
 84 85  1  0
 85 88  1  0
 85 87  1  0
 86 84  2  0
 89 90  1  0
 89 64  1  0
 91 89  1  0
M  ISO  4   6 101  10 101  54 100  62 100
M  END
>  <TORSDO>  (63) 
F 19

>  <SCORE>  (63) 
-8.328

>  <name>  (63) 
62

>  <ligand_id>  (63) 
62

>  <original_smiles>  (63) 
[H]c1c([H])c([H])c2c(c1[H])C([H])([H])C([H])([H])C([H])([H])C2([H])N([H])C(=O)C1([H])N(C(=O)C([H])(N([H])C(=O)C([H])(N([H])C([H])([H])[H])C([H])([H])[H])C(C([H])([H])[H])(C([H])([H])[H])C([H])([H])[H])C([H])([H])c2c([H])c(Oc3c([H])c(C([H])([H])C([H])([H])[H])c(C([H])([H])[H])c([H])c3C([H])([H])C([H])(N([H])C(=O)N3C([H])([H])C([H])([H])C([H])([H])C([H])(n4nc(-c5c([H])c([H])c(Oc6c([H])c([H])c(F)c([H])c6F)c([H])c5[H])c(C(=O)N([H])[H])c4N([H])[H])C3([H])[H])C([H])([H])[H])c([H])c([H])c2C1([H])[H]

>  <smiles>  (63) 
[H]c1c([H])c([H])c2c(c1[H])C([H])([H])C([H])([H])C([H])([H])C2([H])N([H])C(=O)C1([H])N(C(=O)C([H])(N([H])C(=O)C([H])(N([H])C([H])([H])[H])C([H])([H])[H])C(C([H])([H])[H])(C([H])([H])[H])C([H])([H])[H])C([H])([H])c2c([H])c(Oc3c([H])c(C([H])([H])C([H])([H])[H])c(C([H])([H])[H])c([H])c3C([H])([H])C([H])(N([H])C(=O)N3C([H])([H])C([H])([H])C([H])([H])C([H])(n4nc(-c5c([H])c([H])c(Oc6c([H])c([H])c(F)c([H])c6F)c([H])c5[H])c(C(=O)N([H])[H])c4N([H])[H])C3([H])[H])C([H])([H])[H])c([H])c([H])c2C1([H])[H]

$$$$
63:0:0
     RDKit          3D

 92100  0  0  1  0  0  0  0  0999 V2000
  -27.1840  -25.0610   21.4770 C   0  0  0  0  0  3  0  0  0  0  0  0
  -26.9420  -23.7630   21.9620 C   0  0  0  0  0  3  0  0  0  0  0  0
  -29.1130  -24.2140   20.2640 C   0  0  0  0  0  3  0  0  0  0  0  0
  -28.8950  -22.8690   20.7740 C   0  0  0  0  0  0  0  0  0  0  0  0
  -28.2660  -25.3440   20.6060 C   0  0  0  0  0  0  0  0  0  0  0  0
  -27.7890  -22.6920   21.6360 C   0  0  0  0  0  0  0  0  0  0  0  0
  -27.5660  -21.4920   22.2190 F   0  0  0  0  0  0  0  0  0  0  0  0
  -28.4700  -26.6890   20.1730 O   0  0  0  0  0  0  0  0  0  0  0  0
  -24.6640  -31.9410   23.3590 C   0  0  0  0  0  0  0  0  0  0  0  0
  -27.3850  -27.5800   20.1280 C   0  0  0  0  0  0  0  0  0  0  0  0
  -23.5020  -30.5960   21.6460 C   0  0  0  0  0  3  0  0  0  0  0  0
  -24.9970  -29.1470   20.1570 C   0  0  0  0  0  0  0  0  0  0  0  0
  -26.0350  -30.9740   21.5000 C   0  0  0  0  0  2  0  0  0  0  0  0
  -26.1490  -29.6280   20.7940 C   0  0  0  0  0  0  0  0  0  0  0  0
  -27.3470  -28.8530   20.7790 C   0  0  0  0  0  3  0  0  0  0  0  0
  -26.2230  -27.1660   19.4430 C   0  0  0  0  0  3  0  0  0  0  0  0
  -25.0360  -27.9220   19.4730 C   0  0  0  0  0  3  0  0  0  0  0  0
  -23.7420  -29.9920   20.2370 C   0  0  0  0  0  2  0  0  0  0  0  0
  -24.7520  -31.1850   22.2250 N   0  0  0  0  0  0  0  0  0  0  0  0
  -23.5710  -32.1710   23.8970 O   0  0  0  0  0  0  0  0  0  0  0  0
  -22.8540  -29.5210   22.5520 C   0  0  0  0  0  0  0  0  0  0  0  0
  -21.5320  -29.3330   22.4150 N   0  0  0  0  0  0  0  0  0  0  0  0
  -23.5410  -28.8650   23.3390 O   0  0  0  0  0  0  0  0  0  0  0  0
  -21.0350  -29.9210   21.7590 H   0  0  0  0  0  0  0  0  0  0  0  0
  -18.1750  -28.0540   22.8350 C   0  0  0  0  0  0  0  0  0  0  0  0
  -20.7270  -28.3450   23.1340 C   0  0  0  0  0  3  0  0  0  0  0  0
  -20.8610  -26.9440   22.4960 C   0  0  0  0  0  2  0  0  0  0  0  0
  -19.7670  -26.6400   21.4650 C   0  0  0  0  0  2  0  0  0  0  0  0
  -18.3780  -26.7380   22.1040 C   0  0  0  0  0  2  0  0  0  0  0  0
  -19.2780  -28.8150   23.3070 C   0  0  0  0  0  0  0  0  0  0  0  0
  -19.0330  -30.0460   23.9530 C   0  0  0  0  0  3  0  0  0  0  0  0
  -17.7200  -30.5180   24.1320 C   0  0  0  0  0  3  0  0  0  0  0  0
  -16.6300  -29.7550   23.6760 C   0  0  0  0  0  3  0  0  0  0  0  0
  -16.8590  -28.5250   23.0340 C   0  0  0  0  0  3  0  0  0  0  0  0
  -25.9290  -32.5700   24.0190 C   0  0  0  0  0  3  0  0  0  0  0  0
  -25.6010  -33.9590   24.3780 N   0  0  0  0  0  0  0  0  0  0  0  0
  -25.9540  -35.0350   23.6630 C   0  0  0  0  0  0  0  0  0  0  0  0
  -26.6610  -34.9640   22.6540 O   0  0  0  0  0  0  0  0  0  0  0  0
  -24.9770  -34.0860   25.1610 H   0  0  0  0  0  0  0  0  0  0  0  0
  -24.2390  -36.8380   23.2890 C   0  0  0  0  0  1  0  0  0  0  0  0
  -25.4440  -36.4070   24.1420 C   0  0  0  0  0  3  0  0  0  0  0  0
  -27.5380  -37.2680   25.0940 C   0  0  0  0  0  1  0  0  0  0  0  0
  -26.4780  -37.4640   24.1090 N   0  0  0  0  0  0  0  0  0  0  0  0
  -26.0640  -38.3790   24.2660 H   0  0  0  0  0  0  0  0  0  0  0  0
  -26.4280  -31.7730   25.2870 C   0  0  1  0  0  0  0  0  0  0  0  0
  -25.3160  -31.5000   26.3260 C   0  0  0  0  0  1  0  0  0  0  0  0
  -27.0340  -30.4120   24.8740 C   0  0  0  0  0  1  0  0  0  0  0  0
  -27.5560  -32.5630   25.9930 C   0  0  0  0  0  1  0  0  0  0  0  0
  -29.9030  -21.6480   20.6450 C   0  0  0  0  0  2  0  0  0  0  0  0
  -28.0720  -20.0770   19.5460 C   0  0  0  0  0  1  0  0  0  0  0  0
  -29.5550  -20.2350   19.9330 C   0  0  0  0  0  3  0  0  0  0  0  0
  -30.0700  -18.9800   20.6500 N   0  0  0  0  0  4  0  0  0  0  0  0
  -30.9840  -19.1950   21.0150 H   0  0  0  0  0  0  0  0  0  0  0  0
  -29.4740  -18.8330   21.4500 H   0  0  0  0  0  0  0  0  0  0  0  0
  -30.2100  -17.6450   19.9070 C   0  0  0  0  0  2  0  0  0  0  0  0
  -30.1650  -16.2840   20.7680 C   0  0  0  0  0  2  0  0  0  0  0  0
  -30.8720  -14.9630   20.2170 C   0  0  0  0  0  0  0  0  0  0  0  0
  -30.6790  -12.6840   19.2100 C   0  0  0  0  0  2  0  0  0  0  0  0
  -29.7530  -12.7570   17.9730 C   0  0  0  0  0  2  0  0  0  0  0  0
  -28.2750  -12.6110   18.3830 C   0  0  0  0  0  2  0  0  0  0  0  0
  -27.8970  -13.5200   19.5830 C   0  0  0  0  0  3  0  0  0  0  0  0
  -28.9370  -13.3970   20.7190 C   0  0  0  0  0  2  0  0  0  0  0  0
  -30.2510  -13.7370   20.1580 N   0  0  0  0  0  0  0  0  0  0  0  0
  -32.0160  -15.0810   19.7690 O   0  0  0  0  0  0  0  0  0  0  0  0
  -25.4980  -14.1520   20.2500 C   0  0  0  0  0  0  0  0  0  0  0  0
  -24.4190  -13.3950   20.6210 C   0  0  0  0  0  0  0  0  0  0  0  0
  -24.8720  -12.0410   20.6320 C   0  0  0  0  0  0  0  0  0  0  0  0
  -26.5390  -13.2580   20.0540 N   0  0  0  0  0  0  0  0  0  0  0  0
  -26.1670  -11.9850   20.3450 N   0  0  0  0  0  0  0  0  0  0  0  0
  -24.1340  -10.7880   20.8440 C   0  0  0  0  0  0  0  0  0  0  0  0
  -24.5300   -9.8540   21.8270 C   0  0  0  0  0  3  0  0  0  0  0  0
  -23.7920   -8.6680   22.0250 C   0  0  0  0  0  3  0  0  0  0  0  0
  -22.6440   -8.4060   21.2400 C   0  0  0  0  0  0  0  0  0  0  0  0
  -22.2670   -9.3290   20.2480 C   0  0  0  0  0  3  0  0  0  0  0  0
  -23.0060  -10.5070   20.0490 C   0  0  0  0  0  3  0  0  0  0  0  0
  -21.8800   -7.2690   21.3450 O   0  0  0  0  0  0  0  0  0  0  0  0
  -21.7660   -6.5850   22.5290 C   0  0  0  0  0  0  0  0  0  0  0  0
  -21.2700   -7.2010   23.7000 C   0  0  0  0  0  3  0  0  0  0  0  0
  -21.1030   -6.4440   24.8760 C   0  0  0  0  0  3  0  0  0  0  0  0
  -21.4210   -5.0720   24.8830 C   0  0  0  0  0  0  0  0  0  0  0  0
  -21.9110   -4.4570   23.7170 C   0  0  0  0  0  3  0  0  0  0  0  0
  -22.0790   -5.2110   22.5430 C   0  0  0  0  0  0  0  0  0  0  0  0
  -22.5310   -4.6080   21.4160 F   0  0  0  0  0  0  0  0  0  0  0  0
  -21.2540   -4.3430   26.0100 F   0  0  0  0  0  0  0  0  0  0  0  0
  -23.0210  -13.8890   20.8580 C   0  0  0  0  0  0  0  0  0  0  0  0
  -22.2790  -13.2310   21.7410 N   0  0  0  0  0  0  0  0  0  0  0  0
  -22.5950  -14.8970   20.2940 O   0  0  0  0  0  0  0  0  0  0  0  0
  -22.6360  -12.4160   22.2200 H   0  0  0  0  0  0  0  0  0  0  0  0
  -21.3410  -13.5450   21.9430 H   0  0  0  0  0  0  0  0  0  0  0  0
  -25.6760  -15.5170   20.0440 N   0  0  0  0  0  0  0  0  0  0  0  0
  -24.9170  -16.1810   20.1440 H   0  0  0  0  0  0  0  0  0  0  0  0
  -26.5380  -15.9450   19.7310 H   0  0  0  0  0  0  0  0  0  0  0  0
  1  2  1  0
  3  5  1  0
  3  4  2  0
  4  6  1  0
  5  1  2  0
  6  2  2  0
  6  7  1  0
  8  5  1  0
  9 20  2  0
 10  8  1  0
 10 15  1  0
 11 19  1  0
 11 21  1  0
 12 18  1  0
 12 14  1  0
 13 19  1  0
 14 13  1  0
 15 14  2  0
 16 17  1  0
 16 10  2  0
 17 12  2  0
 18 11  1  0
 19  9  1  0
 21 23  2  0
 22 21  1  0
 24 22  1  0
 25 34  2  0
 25 30  1  0
 26 22  1  0
 26 30  1  0
 27 26  1  0
 28 29  1  0
 28 27  1  0
 29 25  1  0
 30 31  2  0
 31 32  1  0
 33 32  2  0
 34 33  1  0
 35  9  1  0
 35 36  1  0
 35 45  1  0
 36 39  1  0
 37 41  1  0
 37 36  1  0
 38 37  2  0
 41 40  1  0
 43 41  1  0
 43 44  1  0
 43 42  1  0
 45 48  1  1
 45 46  1  0
 47 45  1  0
 49  4  1  0
 51 50  1  0
 51 49  1  0
 51 52  1  0
 52 53  1  0
 52 54  1  0
 55 52  1  0
 55 56  1  0
 57 56  1  0
 58 63  1  0
 59 60  1  0
 59 58  1  0
 61 60  1  0
 61 68  1  0
 61 62  1  0
 63 57  1  0
 63 62  1  0
 64 57  2  0
 65 66  2  0
 66 67  1  0
 66 85  1  0
 67 70  1  0
 68 65  1  0
 68 69  1  0
 69 67  2  0
 70 71  1  0
 71 72  2  0
 73 76  1  0
 73 72  1  0
 74 73  2  0
 75 74  1  0
 75 70  2  0
 76 77  1  0
 77 82  2  0
 77 78  1  0
 78 79  2  0
 79 80  1  0
 80 84  1  0
 81 80  2  0
 82 81  1  0
 83 82  1  0
 85 86  1  0
 86 89  1  0
 86 88  1  0
 87 85  2  0
 90 91  1  0
 90 65  1  0
 92 90  1  0
M  ISO  4   5 101   8 101  56 100  57 100
M  END
>  <TORSDO>  (64) 
F 21

>  <SCORE>  (64) 
-12.726

>  <name>  (64) 
63

>  <ligand_id>  (64) 
63

>  <original_smiles>  (64) 
[H]c1c([H])c([H])c2c(c1[H])C([H])([H])C([H])([H])C([H])([H])C2([H])N([H])C(=O)C1([H])N(C(=O)C([H])(N([H])C(=O)C([H])(N([H])C([H])([H])[H])C([H])([H])[H])C(C([H])([H])[H])(C([H])([H])[H])C([H])([H])[H])C([H])([H])c2c([H])c(Oc3c([H])c([H])c(F)c(C([H])([H])C([H])(C([H])([H])[H])[N+]([H])([H])C([H])([H])C([H])([H])C(=O)N4C([H])([H])C([H])([H])C([H])([H])C([H])(n5nc(-c6c([H])c([H])c(Oc7c([H])c([H])c(F)c([H])c7F)c([H])c6[H])c(C(=O)N([H])[H])c5N([H])[H])C4([H])[H])c3[H])c([H])c([H])c2C1([H])[H]

>  <smiles>  (64) 
[H]c1c([H])c([H])c2c(c1[H])C([H])([H])C([H])([H])C([H])([H])C2([H])N([H])C(=O)C1([H])N(C(=O)C([H])(N([H])C(=O)C([H])(N([H])C([H])([H])[H])C([H])([H])[H])C(C([H])([H])[H])(C([H])([H])[H])C([H])([H])[H])C([H])([H])c2c([H])c(Oc3c([H])c([H])c(F)c(C([H])([H])C([H])(C([H])([H])[H])[N+]([H])([H])C([H])([H])C([H])([H])C(=O)N4C([H])([H])C([H])([H])C([H])([H])C([H])(n5nc(-c6c([H])c([H])c(Oc7c([H])c([H])c(F)c([H])c7F)c([H])c6[H])c(C(=O)N([H])[H])c5N([H])[H])C4([H])[H])c3[H])c([H])c([H])c2C1([H])[H]

$$$$
64:0:0
     RDKit          3D

 90 98  0  0  1  0  0  0  0  0999 V2000
  -29.5950  -22.8420   19.4380 C   0  0  0  0  0  3  0  0  0  0  0  0
  -28.2910  -22.6950   21.4060 C   0  0  0  0  0  3  0  0  0  0  0  0
  -29.2580  -24.2430   19.3260 C   0  0  0  0  0  3  0  0  0  0  0  0
  -27.9520  -24.1050   21.2910 C   0  0  0  0  0  3  0  0  0  0  0  0
  -29.1700  -21.9920   20.5080 C   0  0  0  0  0  0  0  0  0  0  0  0
  -28.4530  -24.9670   20.2620 C   0  0  0  0  0  0  0  0  0  0  0  0
  -30.4690  -20.6470   22.2610 C   0  0  0  0  0  1  0  0  0  0  0  0
  -29.9070  -20.5580   20.8270 C   0  0  0  0  0  3  0  0  0  0  0  0
  -29.3270  -19.1260   20.5850 N   0  0  0  0  0  4  0  0  0  0  0  0
  -28.5920  -18.9940   21.2600 H   0  0  0  0  0  0  0  0  0  0  0  0
  -28.8830  -19.1460   19.6820 H   0  0  0  0  0  0  0  0  0  0  0  0
  -30.2600  -17.8530   20.6110 C   0  0  0  0  0  3  0  0  0  0  0  0
  -29.6700  -16.3050   20.6790 C   0  0  0  0  0  3  0  0  0  0  0  0
  -30.5490  -14.9430   20.4160 C   0  0  0  0  0  0  0  0  0  0  0  0
  -30.4070  -12.6560   19.3630 C   0  0  0  0  0  2  0  0  0  0  0  0
  -29.4530  -12.7410   18.1450 C   0  0  0  0  0  2  0  0  0  0  0  0
  -27.9850  -12.5500   18.5780 C   0  0  0  0  0  2  0  0  0  0  0  0
  -27.6190  -13.4020   19.8210 C   0  0  0  0  0  3  0  0  0  0  0  0
  -28.6880  -13.2880   20.9260 C   0  0  0  0  0  2  0  0  0  0  0  0
  -29.9760  -13.6820   20.3460 N   0  0  0  0  0  0  0  0  0  0  0  0
  -31.7390  -15.0490   20.0960 O   0  0  0  0  0  0  0  0  0  0  0  0
  -25.2410  -13.9830   20.5800 C   0  0  0  0  0  0  0  0  0  0  0  0
  -24.1780  -13.2060   20.9470 C   0  0  0  0  0  0  0  0  0  0  0  0
  -24.6390  -11.8550   20.8960 C   0  0  0  0  0  0  0  0  0  0  0  0
  -26.2810  -13.1050   20.3210 N   0  0  0  0  0  0  0  0  0  0  0  0
  -25.9270  -11.8180   20.5770 N   0  0  0  0  0  0  0  0  0  0  0  0
  -23.9110  -10.5910   21.0730 C   0  0  0  0  0  0  0  0  0  0  0  0
  -24.3380   -9.6150   22.0020 C   0  0  0  0  0  3  0  0  0  0  0  0
  -23.6090   -8.4180   22.1660 C   0  0  0  0  0  3  0  0  0  0  0  0
  -22.4400   -8.1880   21.4030 C   0  0  0  0  0  0  0  0  0  0  0  0
  -22.0330   -9.1520   20.4630 C   0  0  0  0  0  3  0  0  0  0  0  0
  -22.7630  -10.3400   20.2970 C   0  0  0  0  0  3  0  0  0  0  0  0
  -21.6820   -7.0430   21.4780 O   0  0  0  0  0  0  0  0  0  0  0  0
  -21.6110   -6.3020   22.6310 C   0  0  0  0  0  0  0  0  0  0  0  0
  -21.1290   -6.8490   23.8400 C   0  0  0  0  0  3  0  0  0  0  0  0
  -21.0080   -6.0320   24.9820 C   0  0  0  0  0  3  0  0  0  0  0  0
  -21.3590   -4.6700   24.9160 C   0  0  0  0  0  0  0  0  0  0  0  0
  -21.8340   -4.1230   23.7110 C   0  0  0  0  0  3  0  0  0  0  0  0
  -21.9570   -4.9360   22.5710 C   0  0  0  0  0  0  0  0  0  0  0  0
  -22.3950   -4.3990   21.4070 F   0  0  0  0  0  0  0  0  0  0  0  0
  -21.2360   -3.8840   26.0110 F   0  0  0  0  0  0  0  0  0  0  0  0
  -22.7810  -13.6810   21.2320 C   0  0  0  0  0  0  0  0  0  0  0  0
  -22.0570  -12.9750   22.0930 N   0  0  0  0  0  0  0  0  0  0  0  0
  -22.3430  -14.7140   20.7270 O   0  0  0  0  0  0  0  0  0  0  0  0
  -22.4240  -12.1400   22.5230 H   0  0  0  0  0  0  0  0  0  0  0  0
  -21.1210  -13.2750   22.3250 H   0  0  0  0  0  0  0  0  0  0  0  0
  -25.4050  -15.3560   20.4210 N   0  0  0  0  0  0  0  0  0  0  0  0
  -24.6360  -16.0070   20.5410 H   0  0  0  0  0  0  0  0  0  0  0  0
  -26.2490  -15.8000   20.0840 H   0  0  0  0  0  0  0  0  0  0  0  0
  -28.3850  -26.4200   20.2240 O   0  0  0  0  0  0  0  0  0  0  0  0
  -24.6020  -31.9000   23.2470 C   0  0  0  0  0  0  0  0  0  0  0  0
  -27.2450  -27.2710   20.2260 C   0  0  0  0  0  0  0  0  0  0  0  0
  -23.4190  -30.5030   21.5890 C   0  0  0  0  0  3  0  0  0  0  0  0
  -24.8870  -28.9390   20.1780 C   0  0  0  0  0  0  0  0  0  0  0  0
  -25.9630  -30.8040   21.4400 C   0  0  0  0  0  2  0  0  0  0  0  0
  -26.0500  -29.4150   20.7960 C   0  0  0  0  0  0  0  0  0  0  0  0
  -27.2280  -28.5940   20.8060 C   0  0  0  0  0  3  0  0  0  0  0  0
  -26.0600  -26.8670   19.5810 C   0  0  0  0  0  3  0  0  0  0  0  0
  -24.8990  -27.6750   19.5590 C   0  0  0  0  0  3  0  0  0  0  0  0
  -23.6530  -29.8250   20.2110 C   0  0  0  0  0  2  0  0  0  0  0  0
  -24.6800  -31.0890   22.1480 N   0  0  0  0  0  0  0  0  0  0  0  0
  -23.5120  -32.1750   23.7710 O   0  0  0  0  0  0  0  0  0  0  0  0
  -22.7430  -29.4890   22.5440 C   0  0  0  0  0  0  0  0  0  0  0  0
  -21.4190  -29.3060   22.4010 N   0  0  0  0  0  0  0  0  0  0  0  0
  -23.4120  -28.8680   23.3740 O   0  0  0  0  0  0  0  0  0  0  0  0
  -20.9370  -29.8590   21.7060 H   0  0  0  0  0  0  0  0  0  0  0  0
  -18.0380  -28.1030   22.8800 C   0  0  0  0  0  0  0  0  0  0  0  0
  -20.5960  -28.3620   23.1610 C   0  0  0  0  0  3  0  0  0  0  0  0
  -20.6990  -26.9360   22.5730 C   0  0  0  0  0  2  0  0  0  0  0  0
  -19.6010  -26.6230   21.5510 C   0  0  0  0  0  2  0  0  0  0  0  0
  -18.2170  -26.7610   22.1910 C   0  0  0  0  0  2  0  0  0  0  0  0
  -19.1550  -28.8620   23.3210 C   0  0  0  0  0  0  0  0  0  0  0  0
  -18.9330  -30.1180   23.9260 C   0  0  0  0  0  3  0  0  0  0  0  0
  -17.6270  -30.6160   24.0920 C   0  0  0  0  0  3  0  0  0  0  0  0
  -16.5250  -29.8550   23.6660 C   0  0  0  0  0  3  0  0  0  0  0  0
  -16.7320  -28.6000   23.0670 C   0  0  0  0  0  3  0  0  0  0  0  0
  -25.8750  -32.5370   23.8850 C   0  0  0  0  0  3  0  0  0  0  0  0
  -26.3700  -31.7750   25.1770 C   0  0  1  0  0  0  0  0  0  0  0  0
  -25.2600  -31.5430   26.2290 C   0  0  0  0  0  1  0  0  0  0  0  0
  -26.9590  -30.3940   24.8060 C   0  0  0  0  0  1  0  0  0  0  0  0
  -27.5070  -32.5750   25.8550 C   0  0  0  0  0  1  0  0  0  0  0  0
  -25.5590  -33.9370   24.2060 N   0  0  0  0  0  0  0  0  0  0  0  0
  -25.8880  -34.9880   23.4430 C   0  0  0  0  0  0  0  0  0  0  0  0
  -26.5570  -34.8830   22.4120 O   0  0  0  0  0  0  0  0  0  0  0  0
  -24.9610  -34.0930   25.0040 H   0  0  0  0  0  0  0  0  0  0  0  0
  -24.1520  -36.7780   23.0890 C   0  0  0  0  0  1  0  0  0  0  0  0
  -25.3990  -36.3780   23.8960 C   0  0  0  0  0  3  0  0  0  0  0  0
  -27.5290  -37.2810   24.7200 C   0  0  0  0  0  1  0  0  0  0  0  0
  -26.4280  -37.4350   23.7730 N   0  0  0  0  0  0  0  0  0  0  0  0
  -26.0170  -38.3550   23.9130 H   0  0  0  0  0  0  0  0  0  0  0  0
  1  5  1  0
  3  1  2  0
  3  6  1  0
  4  2  1  0
  5  8  1  0
  5  2  2  0
  6  4  2  0
  8  7  1  0
  9 12  1  0
  9  8  1  0
  9 10  1  0
 11  9  1  0
 12 13  2  0
 14 13  1  0
 15 20  1  0
 16 17  1  0
 16 15  1  0
 18 17  1  0
 18 25  1  0
 18 19  1  0
 20 14  1  0
 20 19  1  0
 21 14  2  0
 22 23  2  0
 23 42  1  0
 24 23  1  0
 24 27  1  0
 25 26  1  0
 25 22  1  0
 26 24  2  0
 27 28  1  0
 28 29  2  0
 30 33  1  0
 30 29  1  0
 31 30  2  0
 32 31  1  0
 32 27  2  0
 33 34  1  0
 34 35  1  0
 35 36  2  0
 37 36  1  0
 37 41  1  0
 38 37  2  0
 39 34  2  0
 39 38  1  0
 40 39  1  0
 42 43  1  0
 43 46  1  0
 43 45  1  0
 44 42  2  0
 47 48  1  0
 47 22  1  0
 49 47  1  0
 50 52  1  0
 50  6  1  0
 51 62  2  0
 52 57  1  0
 53 61  1  0
 53 63  1  0
 54 60  1  0
 54 56  1  0
 55 61  1  0
 56 57  2  0
 56 55  1  0
 58 52  2  0
 59 58  1  0
 59 54  2  0
 60 53  1  0
 61 51  1  0
 63 65  2  0
 64 63  1  0
 66 64  1  0
 67 76  2  0
 67 72  1  0
 68 64  1  0
 68 72  1  0
 69 68  1  0
 70 71  1  0
 70 69  1  0
 71 67  1  0
 72 73  2  0
 73 74  1  0
 75 74  2  0
 76 75  1  0
 77 51  1  0
 77 82  1  0
 77 78  1  0
 78 81  1  1
 78 79  1  0
 80 78  1  0
 82 85  1  0
 83 87  1  0
 83 82  1  0
 84 83  2  0
 87 86  1  0
 89 87  1  0
 89 90  1  0
 89 88  1  0
M  ISO  4   6 101  13 100  14 100  50 101
M  END
>  <TORSDO>  (65) 
F 20

>  <SCORE>  (65) 
-13.921

>  <name>  (65) 
64

>  <ligand_id>  (65) 
64

>  <original_smiles>  (65) 
[H]c1c([H])c([H])c2c(c1[H])C([H])([H])C([H])([H])C([H])([H])C2([H])N([H])C(=O)C1([H])N(C(=O)C([H])(N([H])C(=O)C([H])(N([H])C([H])([H])[H])C([H])([H])[H])C(C([H])([H])[H])(C([H])([H])[H])C([H])([H])[H])C([H])([H])c2c([H])c(Oc3c([H])c([H])c(C([H])(C([H])([H])[H])[N+]([H])([H])C([H])([H])C([H])([H])C(=O)N4C([H])([H])C([H])([H])C([H])([H])C([H])(n5nc(-c6c([H])c([H])c(Oc7c([H])c([H])c(F)c([H])c7F)c([H])c6[H])c(C(=O)N([H])[H])c5N([H])[H])C4([H])[H])c([H])c3[H])c([H])c([H])c2C1([H])[H]

>  <smiles>  (65) 
[H]c1c([H])c([H])c2c(c1[H])C([H])([H])C([H])([H])C([H])([H])C2([H])N([H])C(=O)C1([H])N(C(=O)C([H])(N([H])C(=O)C([H])(N([H])C([H])([H])[H])C([H])([H])[H])C(C([H])([H])[H])(C([H])([H])[H])C([H])([H])[H])C([H])([H])c2c([H])c(Oc3c([H])c([H])c(C([H])(C([H])([H])[H])[N+]([H])([H])C([H])([H])C([H])([H])C(=O)N4C([H])([H])C([H])([H])C([H])([H])C([H])(n5nc(-c6c([H])c([H])c(Oc7c([H])c([H])c(F)c([H])c7F)c([H])c6[H])c(C(=O)N([H])[H])c5N([H])[H])C4([H])[H])c([H])c3[H])c([H])c([H])c2C1([H])[H]

$$$$
65:0:0
     RDKit          3D

 97106  0  0  1  0  0  0  0  0999 V2000
  -28.3460  -18.9320   20.9020 C   0  0  0  0  0  2  0  0  0  0  0  0
  -30.2440  -19.4000   19.5260 C   0  0  0  0  0  2  0  0  0  0  0  0
  -28.9180  -17.3950   21.1490 C   0  0  0  0  0  2  0  0  0  0  0  0
  -30.8120  -17.9080   19.9150 C   0  0  0  0  0  2  0  0  0  0  0  0
  -29.2990  -20.1860   20.5520 C   0  0  0  0  0  3  0  0  0  0  0  0
  -29.8170  -16.6300   20.0380 C   0  0  1  0  0  0  0  0  0  0  0  0
  -30.5220  -15.0850   20.3360 C   0  0  0  0  0  0  0  0  0  0  0  0
  -30.4400  -12.6690   19.5110 C   0  0  0  0  0  2  0  0  0  0  0  0
  -29.5270  -12.5160   18.2710 C   0  0  0  0  0  2  0  0  0  0  0  0
  -28.0640  -12.2880   18.6890 C   0  0  0  0  0  2  0  0  0  0  0  0
  -27.6160  -13.2490   19.8190 C   0  0  0  0  0  3  0  0  0  0  0  0
  -28.6580  -13.3830   20.9440 C   0  0  0  0  0  2  0  0  0  0  0  0
  -29.9220  -13.8100   20.3290 N   0  0  0  0  0  0  0  0  0  0  0  0
  -31.7550  -15.0410   20.2420 O   0  0  0  0  0  0  0  0  0  0  0  0
  -25.2420  -13.8140   20.5790 C   0  0  0  0  0  0  0  0  0  0  0  0
  -24.1750  -13.0370   20.9280 C   0  0  0  0  0  0  0  0  0  0  0  0
  -24.6380  -11.6870   20.8790 C   0  0  0  0  0  0  0  0  0  0  0  0
  -26.2830  -12.9390   20.3220 N   0  0  0  0  0  0  0  0  0  0  0  0
  -25.9310  -11.6520   20.5750 N   0  0  0  0  0  0  0  0  0  0  0  0
  -23.9070  -10.4250   21.0430 C   0  0  0  0  0  0  0  0  0  0  0  0
  -24.3610   -9.4160   21.9210 C   0  0  0  0  0  3  0  0  0  0  0  0
  -23.6280   -8.2200   22.0760 C   0  0  0  0  0  3  0  0  0  0  0  0
  -22.4260   -8.0250   21.3540 C   0  0  0  0  0  0  0  0  0  0  0  0
  -21.9910   -9.0230   20.4640 C   0  0  0  0  0  3  0  0  0  0  0  0
  -22.7240  -10.2110   20.3070 C   0  0  0  0  0  3  0  0  0  0  0  0
  -21.6610   -6.8860   21.4230 O   0  0  0  0  0  0  0  0  0  0  0  0
  -21.6830   -6.0720   22.5280 C   0  0  0  0  0  0  0  0  0  0  0  0
  -21.4000   -6.5640   23.8210 C   0  0  0  0  0  3  0  0  0  0  0  0
  -21.3660   -5.6790   24.9180 C   0  0  0  0  0  3  0  0  0  0  0  0
  -21.6050   -4.3060   24.7230 C   0  0  0  0  0  0  0  0  0  0  0  0
  -21.8820   -3.8140   23.4350 C   0  0  0  0  0  3  0  0  0  0  0  0
  -21.9180   -4.6950   22.3410 C   0  0  0  0  0  0  0  0  0  0  0  0
  -22.1650   -4.2140   21.0980 F   0  0  0  0  0  0  0  0  0  0  0  0
  -21.5640   -3.4540   25.7750 F   0  0  0  0  0  0  0  0  0  0  0  0
  -22.7770  -13.5160   21.1910 C   0  0  0  0  0  0  0  0  0  0  0  0
  -22.0420  -12.8160   22.0470 N   0  0  0  0  0  0  0  0  0  0  0  0
  -22.3470  -14.5460   20.6740 O   0  0  0  0  0  0  0  0  0  0  0  0
  -22.4040  -11.9820   22.4850 H   0  0  0  0  0  0  0  0  0  0  0  0
  -21.1030  -13.1180   22.2640 H   0  0  0  0  0  0  0  0  0  0  0  0
  -25.4060  -15.1850   20.4280 N   0  0  0  0  0  0  0  0  0  0  0  0
  -24.6360  -15.8370   20.5270 H   0  0  0  0  0  0  0  0  0  0  0  0
  -26.2410  -15.6000   20.0420 H   0  0  0  0  0  0  0  0  0  0  0  0
  -27.0220  -16.5710   17.3330 C   0  0  0  0  0  3  0  0  0  0  0  0
  -27.7300  -16.2520   16.1660 C   0  0  0  0  0  3  0  0  0  0  0  0
  -27.7050  -16.6920   18.5560 C   0  0  0  0  0  3  0  0  0  0  0  0
  -29.1180  -16.0590   16.2300 C   0  0  0  0  0  3  0  0  0  0  0  0
  -29.1050  -16.4930   18.6590 C   0  0  0  0  0  0  0  0  0  0  0  0
  -29.8090  -16.1720   17.4540 C   0  0  0  0  0  0  0  0  0  0  0  0
  -31.1850  -15.9460   17.4060 N   0  0  0  0  0  0  0  0  0  0  0  0
  -31.5920  -15.5150   16.5830 H   0  0  0  0  0  0  0  0  0  0  0  0
  -31.6820  -15.7190   18.2640 H   0  0  0  0  0  0  0  0  0  0  0  0
  -28.5760  -21.5700   20.1070 N   0  0  0  0  0  4  0  0  0  0  0  0
  -27.6520  -21.4830   20.5010 H   0  0  0  0  0  0  0  0  0  0  0  0
  -28.4380  -21.5110   19.1110 H   0  0  0  0  0  0  0  0  0  0  0  0
  -28.9720  -23.1030   20.4360 C   0  0  0  0  0  3  0  0  0  0  0  0
  -27.9980  -24.4830   20.0560 C   0  0  0  0  0  3  0  0  0  0  0  0
  -28.2560  -26.0430   20.2500 O   0  0  0  0  0  0  0  0  0  0  0  0
  -24.6490  -31.8370   23.1820 C   0  0  0  0  0  0  0  0  0  0  0  0
  -27.2200  -27.0670   20.1650 C   0  0  0  0  0  0  0  0  0  0  0  0
  -23.4570  -30.4530   21.5280 C   0  0  0  0  0  3  0  0  0  0  0  0
  -24.9090  -28.8670   20.1100 C   0  0  0  0  0  0  0  0  0  0  0  0
  -26.0170  -30.6890   21.3920 C   0  0  0  0  0  2  0  0  0  0  0  0
  -26.0880  -29.2930   20.7350 C   0  0  0  0  0  0  0  0  0  0  0  0
  -27.2420  -28.4110   20.7420 C   0  0  0  0  0  3  0  0  0  0  0  0
  -26.0140  -26.7600   19.4970 C   0  0  0  0  0  3  0  0  0  0  0  0
  -24.8900  -27.6170   19.4730 C   0  0  0  0  0  3  0  0  0  0  0  0
  -23.6880  -29.7760   20.1500 C   0  0  0  0  0  2  0  0  0  0  0  0
  -24.7280  -31.0160   22.0880 N   0  0  0  0  0  0  0  0  0  0  0  0
  -23.5600  -32.1270   23.7000 O   0  0  0  0  0  0  0  0  0  0  0  0
  -22.7600  -29.4510   22.4830 C   0  0  0  0  0  0  0  0  0  0  0  0
  -21.4280  -29.3050   22.3580 N   0  0  0  0  0  0  0  0  0  0  0  0
  -23.4210  -28.8060   23.3010 O   0  0  0  0  0  0  0  0  0  0  0  0
  -20.9510  -29.8740   21.6740 H   0  0  0  0  0  0  0  0  0  0  0  0
  -18.0310  -28.1400   22.8470 C   0  0  0  0  0  0  0  0  0  0  0  0
  -20.5930  -28.3730   23.1220 C   0  0  0  0  0  3  0  0  0  0  0  0
  -20.6790  -26.9430   22.5410 C   0  0  0  0  0  2  0  0  0  0  0  0
  -19.5770  -26.6380   21.5210 C   0  0  0  0  0  2  0  0  0  0  0  0
  -18.1950  -26.7940   22.1620 C   0  0  0  0  0  2  0  0  0  0  0  0
  -19.1570  -28.8890   23.2830 C   0  0  0  0  0  0  0  0  0  0  0  0
  -18.9480  -30.1480   23.8860 C   0  0  0  0  0  3  0  0  0  0  0  0
  -17.6480  -30.6590   24.0560 C   0  0  0  0  0  3  0  0  0  0  0  0
  -16.5370  -29.9090   23.6340 C   0  0  0  0  0  3  0  0  0  0  0  0
  -16.7290  -28.6510   23.0360 C   0  0  0  0  0  3  0  0  0  0  0  0
  -25.9240  -32.4650   23.8230 C   0  0  0  0  0  3  0  0  0  0  0  0
  -25.5960  -33.8460   24.2140 N   0  0  0  0  0  0  0  0  0  0  0  0
  -25.9080  -34.9380   23.5040 C   0  0  0  0  0  0  0  0  0  0  0  0
  -26.5680  -34.8900   22.4630 O   0  0  0  0  0  0  0  0  0  0  0  0
  -25.0070  -33.9560   25.0270 H   0  0  0  0  0  0  0  0  0  0  0  0
  -24.1490  -36.7240   23.2640 C   0  0  0  0  0  1  0  0  0  0  0  0
  -25.4130  -36.3000   24.0310 C   0  0  0  0  0  3  0  0  0  0  0  0
  -27.5570  -37.1780   24.8460 C   0  0  0  0  0  1  0  0  0  0  0  0
  -26.4290  -37.3730   23.9400 N   0  0  0  0  0  0  0  0  0  0  0  0
  -26.0140  -38.2790   24.1410 H   0  0  0  0  0  0  0  0  0  0  0  0
  -26.4530  -31.6550   25.0700 C   0  0  1  0  0  0  0  0  0  0  0  0
  -25.3690  -31.3770   26.1380 C   0  0  0  0  0  1  0  0  0  0  0  0
  -27.0420  -30.2930   24.6350 C   0  0  0  0  0  1  0  0  0  0  0  0
  -27.6040  -32.4330   25.7500 C   0  0  0  0  0  1  0  0  0  0  0  0
  1  3  1  0
  2  4  1  0
  2  5  1  0
  4  6  1  0
  5 52  1  0
  5  1  1  0
  6  7  1  1
  6  3  1  0
  8 13  1  0
  9 10  1  0
  9  8  1  0
 11 10  1  0
 11 18  1  0
 11 12  1  0
 13  7  1  0
 13 12  1  0
 14  7  2  0
 15 16  2  0
 16 35  1  0
 17 16  1  0
 17 20  1  0
 18 19  1  0
 18 15  1  0
 19 17  2  0
 20 21  1  0
 21 22  2  0
 23 26  1  0
 23 22  1  0
 24 23  2  0
 25 24  1  0
 25 20  2  0
 26 27  1  0
 27 28  1  0
 28 29  2  0
 30 29  1  0
 30 34  1  0
 31 30  2  0
 32 27  2  0
 32 31  1  0
 33 32  1  0
 35 36  1  0
 36 39  1  0
 36 38  1  0
 37 35  2  0
 40 41  1  0
 40 15  1  0
 42 40  1  0
 43 45  1  0
 44 46  1  0
 44 43  2  0
 45 47  2  0
 46 48  2  0
 47  6  1  0
 48 47  1  0
 49 48  1  0
 49 51  1  0
 50 49  1  0
 52 55  1  0
 52 53  1  0
 54 52  1  0
 56 57  1  0
 56 55  2  0
 58 69  2  0
 59 57  1  0
 59 64  1  0
 60 68  1  0
 60 70  1  0
 61 67  1  0
 61 63  1  0
 62 68  1  0
 63 64  2  0
 63 62  1  0
 65 59  2  0
 66 65  1  0
 66 61  2  0
 67 60  1  0
 68 58  1  0
 70 72  2  0
 71 70  1  0
 73 71  1  0
 74 83  2  0
 74 79  1  0
 75 71  1  0
 75 79  1  0
 76 75  1  0
 77 78  1  0
 77 76  1  0
 78 74  1  0
 79 80  2  0
 80 81  1  0
 82 81  2  0
 83 82  1  0
 84 58  1  0
 84 85  1  0
 84 94  1  0
 85 88  1  0
 86 90  1  0
 86 85  1  0
 87 86  2  0
 90 89  1  0
 92 90  1  0
 92 93  1  0
 92 91  1  0
 94 97  1  1
 94 95  1  0
 96 94  1  0
M  ISO  4   6 100   7 100  56 101  57 101
M  END
>  <TORSDO>  (66) 
F 21

>  <SCORE>  (66) 
7.903

>  <name>  (66) 
65

>  <ligand_id>  (66) 
65

>  <original_smiles>  (66) 
[H]c1c([H])c([H])c(C2(C(=O)N3C([H])([H])C([H])([H])C([H])([H])C([H])(n4nc(-c5c([H])c([H])c(Oc6c([H])c([H])c(F)c([H])c6F)c([H])c5[H])c(C(=O)N([H])[H])c4N([H])[H])C3([H])[H])C([H])([H])C([H])([H])C([H])([N+]([H])([H])C([H])([H])C([H])([H])Oc3c([H])c([H])c4c(c3[H])C([H])([H])N(C(=O)C([H])(N([H])C(=O)C([H])(N([H])C([H])([H])[H])C([H])([H])[H])C(C([H])([H])[H])(C([H])([H])[H])C([H])([H])[H])C([H])(C(=O)N([H])C3([H])c5c([H])c([H])c([H])c([H])c5C([H])([H])C([H])([H])C3([H])[H])C4([H])[H])C([H])([H])C2([H])[H])c(N([H])[H])c1[H]

>  <smiles>  (66) 
[H]c1c([H])c([H])c(C2(C(=O)N3C([H])([H])C([H])([H])C([H])([H])C([H])(n4nc(-c5c([H])c([H])c(Oc6c([H])c([H])c(F)c([H])c6F)c([H])c5[H])c(C(=O)N([H])[H])c4N([H])[H])C3([H])[H])C([H])([H])C([H])([H])C([H])([N+]([H])([H])C([H])([H])C([H])([H])Oc3c([H])c([H])c4c(c3[H])C([H])([H])N(C(=O)C([H])(N([H])C(=O)C([H])(N([H])C([H])([H])[H])C([H])([H])[H])C(C([H])([H])[H])(C([H])([H])[H])C([H])([H])[H])C([H])(C(=O)N([H])C3([H])c5c([H])c([H])c([H])c([H])c5C([H])([H])C([H])([H])C3([H])[H])C4([H])[H])C([H])([H])C2([H])[H])c(N([H])[H])c1[H]

$$$$
66:0:0
     RDKit          3D

 89 96  0  0  1  0  0  0  0  0999 V2000
  -28.9990  -23.4520   20.4440 C   0  0  0  0  0  3  0  0  0  0  0  0
  -30.2320  -23.7650   19.6930 N   0  0  0  0  0  4  0  0  0  0  0  0
  -30.0880  -23.6860   18.7020 H   0  0  0  0  0  0  0  0  0  0  0  0
  -30.9830  -23.1510   19.9490 H   0  0  0  0  0  0  0  0  0  0  0  0
  -30.5300  -24.7070   19.8870 H   0  0  0  0  0  0  0  0  0  0  0  0
  -28.5940  -21.8310   20.2030 C   0  0  0  0  0  3  0  0  0  0  0  0
  -29.5560  -20.4910   20.5250 C   0  0  0  0  0  3  0  0  0  0  0  0
  -29.1600  -18.8910   20.2200 C   0  0  0  0  0  3  0  0  0  0  0  0
  -30.1730  -17.5950   20.5330 C   0  0  0  0  0  3  0  0  0  0  0  0
  -30.5470  -14.9060   20.3440 C   0  0  0  0  0  0  0  0  0  0  0  0
  -30.3900  -12.5850   19.3710 C   0  0  0  0  0  2  0  0  0  0  0  0
  -29.4550  -12.6060   18.1420 C   0  0  0  0  0  2  0  0  0  0  0  0
  -27.9800  -12.4340   18.5630 C   0  0  0  0  0  2  0  0  0  0  0  0
  -27.6000  -13.3070   19.7890 C   0  0  0  0  0  3  0  0  0  0  0  0
  -28.6670  -13.2530   20.9020 C   0  0  0  0  0  2  0  0  0  0  0  0
  -29.9380  -13.6590   20.2890 N   0  0  0  0  0  0  0  0  0  0  0  0
  -31.7530  -14.9830   20.0940 O   0  0  0  0  0  0  0  0  0  0  0  0
  -29.7700  -16.0800   20.4640 N   0  0  0  0  0  0  0  0  0  0  0  0
  -28.7830  -15.8990   20.5590 H   0  0  0  0  0  0  0  0  0  0  0  0
  -25.2060  -13.8640   20.5080 C   0  0  0  0  0  0  0  0  0  0  0  0
  -24.1480  -13.0820   20.8780 C   0  0  0  0  0  0  0  0  0  0  0  0
  -24.6250  -11.7350   20.8510 C   0  0  0  0  0  0  0  0  0  0  0  0
  -26.2610  -12.9960   20.2800 N   0  0  0  0  0  0  0  0  0  0  0  0
  -25.9190  -11.7120   20.5500 N   0  0  0  0  0  0  0  0  0  0  0  0
  -23.9050  -10.4670   21.0380 C   0  0  0  0  0  0  0  0  0  0  0  0
  -24.3430   -9.4950   21.9620 C   0  0  0  0  0  3  0  0  0  0  0  0
  -23.6180   -8.2970   22.1370 C   0  0  0  0  0  3  0  0  0  0  0  0
  -22.4410   -8.0600   21.3880 C   0  0  0  0  0  0  0  0  0  0  0  0
  -22.0210   -9.0230   20.4520 C   0  0  0  0  0  3  0  0  0  0  0  0
  -22.7480  -10.2130   20.2760 C   0  0  0  0  0  3  0  0  0  0  0  0
  -21.6900   -6.9110   21.4720 O   0  0  0  0  0  0  0  0  0  0  0  0
  -21.6560   -6.1580   22.6180 C   0  0  0  0  0  0  0  0  0  0  0  0
  -21.2450   -6.6990   23.8570 C   0  0  0  0  0  3  0  0  0  0  0  0
  -21.1630   -5.8720   24.9940 C   0  0  0  0  0  3  0  0  0  0  0  0
  -21.4830   -4.5030   24.8960 C   0  0  0  0  0  0  0  0  0  0  0  0
  -21.8870   -3.9630   23.6620 C   0  0  0  0  0  3  0  0  0  0  0  0
  -21.9710   -4.7880   22.5270 C   0  0  0  0  0  0  0  0  0  0  0  0
  -22.3390   -4.2590   21.3350 F   0  0  0  0  0  0  0  0  0  0  0  0
  -21.3950   -3.7020   25.9830 F   0  0  0  0  0  0  0  0  0  0  0  0
  -22.7460  -13.5500   21.1440 C   0  0  0  0  0  0  0  0  0  0  0  0
  -22.0230  -12.8520   22.0140 N   0  0  0  0  0  0  0  0  0  0  0  0
  -22.3020  -14.5710   20.6170 O   0  0  0  0  0  0  0  0  0  0  0  0
  -22.3950  -12.0260   22.4620 H   0  0  0  0  0  0  0  0  0  0  0  0
  -21.0840  -13.1460   22.2390 H   0  0  0  0  0  0  0  0  0  0  0  0
  -25.3580  -15.2340   20.3190 N   0  0  0  0  0  0  0  0  0  0  0  0
  -24.5850  -15.8820   20.4110 H   0  0  0  0  0  0  0  0  0  0  0  0
  -26.1920  -15.6680   19.9420 H   0  0  0  0  0  0  0  0  0  0  0  0
  -27.9300  -24.7110   20.1840 C   0  0  0  0  0  2  0  0  0  0  0  0
  -28.2290  -26.2260   20.2980 O   0  0  0  0  0  0  0  0  0  0  0  0
  -24.6310  -31.9020   23.2610 C   0  0  0  0  0  0  0  0  0  0  0  0
  -27.1710  -27.1980   20.2260 C   0  0  0  0  0  0  0  0  0  0  0  0
  -23.4190  -30.5100   21.6300 C   0  0  0  0  0  3  0  0  0  0  0  0
  -24.8530  -28.9390   20.1980 C   0  0  0  0  0  0  0  0  0  0  0  0
  -25.9720  -30.7760   21.4490 C   0  0  0  0  0  2  0  0  0  0  0  0
  -26.0380  -29.3870   20.7970 C   0  0  0  0  0  0  0  0  0  0  0  0
  -27.2010  -28.5330   20.7910 C   0  0  0  0  0  3  0  0  0  0  0  0
  -25.9580  -26.8440   19.5930 C   0  0  0  0  0  3  0  0  0  0  0  0
  -24.8240  -27.6800   19.5850 C   0  0  0  0  0  3  0  0  0  0  0  0
  -23.6240  -29.8320   20.2530 C   0  0  0  0  0  2  0  0  0  0  0  0
  -24.6960  -31.0840   22.1690 N   0  0  0  0  0  0  0  0  0  0  0  0
  -23.5490  -32.1940   23.7950 O   0  0  0  0  0  0  0  0  0  0  0  0
  -22.7470  -29.5030   22.5960 C   0  0  0  0  0  0  0  0  0  0  0  0
  -21.4200  -29.3280   22.4660 N   0  0  0  0  0  0  0  0  0  0  0  0
  -23.4190  -28.8800   23.4220 O   0  0  0  0  0  0  0  0  0  0  0  0
  -20.9400  -29.8670   21.7580 H   0  0  0  0  0  0  0  0  0  0  0  0
  -18.0380  -28.1230   22.9530 C   0  0  0  0  0  0  0  0  0  0  0  0
  -20.5960  -28.3960   23.2360 C   0  0  0  0  0  3  0  0  0  0  0  0
  -20.7100  -26.9610   22.6720 C   0  0  0  0  0  2  0  0  0  0  0  0
  -19.6150  -26.6280   21.6530 C   0  0  0  0  0  2  0  0  0  0  0  0
  -18.2260  -26.7720   22.2860 C   0  0  0  0  0  2  0  0  0  0  0  0
  -19.1520  -28.8940   23.3830 C   0  0  0  0  0  0  0  0  0  0  0  0
  -18.9250  -30.1600   23.9670 C   0  0  0  0  0  3  0  0  0  0  0  0
  -17.6180  -30.6550   24.1230 C   0  0  0  0  0  3  0  0  0  0  0  0
  -16.5180  -29.8810   23.7100 C   0  0  0  0  0  3  0  0  0  0  0  0
  -16.7300  -28.6170   23.1300 C   0  0  0  0  0  3  0  0  0  0  0  0
  -25.9180  -32.5260   23.8850 C   0  0  0  0  0  3  0  0  0  0  0  0
  -26.4290  -31.7510   25.1600 C   0  0  1  0  0  0  0  0  0  0  0  0
  -25.3320  -31.5220   26.2270 C   0  0  0  0  0  1  0  0  0  0  0  0
  -27.0010  -30.3680   24.7740 C   0  0  0  0  0  1  0  0  0  0  0  0
  -27.5900  -32.5380   25.8190 C   0  0  0  0  0  1  0  0  0  0  0  0
  -25.6180  -33.9270   24.2190 N   0  0  0  0  0  0  0  0  0  0  0  0
  -25.9380  -34.9790   23.4520 C   0  0  0  0  0  0  0  0  0  0  0  0
  -26.5830  -34.8730   22.4060 O   0  0  0  0  0  0  0  0  0  0  0  0
  -25.0360  -34.0870   25.0290 H   0  0  0  0  0  0  0  0  0  0  0  0
  -24.1940  -36.7700   23.1530 C   0  0  0  0  0  1  0  0  0  0  0  0
  -25.4650  -36.3710   23.9190 C   0  0  0  0  0  3  0  0  0  0  0  0
  -27.6250  -37.2650   24.6700 C   0  0  0  0  0  1  0  0  0  0  0  0
  -26.4920  -37.4230   23.7600 N   0  0  0  0  0  0  0  0  0  0  0  0
  -26.0900  -38.3440   23.9150 H   0  0  0  0  0  0  0  0  0  0  0  0
  1 48  1  0
  2  5  1  0
  2  4  1  0
  2  1  1  0
  3  2  1  0
  6  1  1  0
  6  7  2  0
  8  7  1  0
  8  9  2  0
 10 18  1  0
 11 16  1  0
 12 13  1  0
 12 11  1  0
 14 13  1  0
 14 23  1  0
 14 15  1  0
 16 10  1  0
 16 15  1  0
 17 10  2  0
 18  9  1  0
 18 19  1  0
 20 21  2  0
 21 40  1  0
 22 21  1  0
 22 25  1  0
 23 20  1  0
 23 24  1  0
 24 22  2  0
 25 26  1  0
 26 27  2  0
 28 31  1  0
 28 27  1  0
 29 28  2  0
 30 29  1  0
 30 25  2  0
 31 32  1  0
 32 33  1  0
 33 34  2  0
 35 34  1  0
 35 39  1  0
 36 35  2  0
 37 32  2  0
 37 36  1  0
 38 37  1  0
 40 41  1  0
 41 44  1  0
 41 43  1  0
 42 40  2  0
 45 46  1  0
 45 20  1  0
 47 45  1  0
 48 49  1  0
 50 61  2  0
 51 49  1  0
 51 56  1  0
 52 60  1  0
 52 62  1  0
 53 59  1  0
 53 55  1  0
 54 60  1  0
 55 54  1  0
 56 55  2  0
 57 51  2  0
 58 57  1  0
 58 53  2  0
 59 52  1  0
 60 50  1  0
 62 64  2  0
 63 62  1  0
 65 63  1  0
 66 75  2  0
 66 71  1  0
 67 63  1  0
 67 71  1  0
 68 67  1  0
 69 70  1  0
 69 68  1  0
 70 66  1  0
 71 72  2  0
 72 73  1  0
 74 73  2  0
 75 74  1  0
 76 50  1  0
 76 81  1  0
 76 77  1  0
 77 80  1  1
 77 78  1  0
 79 77  1  0
 81 84  1  0
 82 86  1  0
 82 81  1  0
 83 82  2  0
 86 85  1  0
 88 89  1  0
 88 86  1  0
 88 87  1  0
M  ISO  4  10 100  18 100  48 101  49 101
M  END
>  <TORSDO>  (67) 
F 22

>  <SCORE>  (67) 
-13.048

>  <name>  (67) 
66

>  <ligand_id>  (67) 
66

>  <original_smiles>  (67) 
[H]c1c([H])c([H])c2c(c1[H])C([H])([H])C([H])([H])C([H])([H])C2([H])N([H])C(=O)C1([H])N(C(=O)C([H])(N([H])C(=O)C([H])(N([H])C([H])([H])[H])C([H])([H])[H])C(C([H])([H])[H])(C([H])([H])[H])C([H])([H])[H])C([H])([H])c2c([H])c(OC([H])([H])C([H])(C([H])([H])C([H])([H])C([H])([H])C([H])([H])N([H])C(=O)N3C([H])([H])C([H])([H])C([H])([H])C([H])(n4nc(-c5c([H])c([H])c(Oc6c([H])c([H])c(F)c([H])c6F)c([H])c5[H])c(C(=O)N([H])[H])c4N([H])[H])C3([H])[H])[N+]([H])([H])[H])c([H])c([H])c2C1([H])[H]

>  <smiles>  (67) 
[H]c1c([H])c([H])c2c(c1[H])C([H])([H])C([H])([H])C([H])([H])C2([H])N([H])C(=O)C1([H])N(C(=O)C([H])(N([H])C(=O)C([H])(N([H])C([H])([H])[H])C([H])([H])[H])C(C([H])([H])[H])(C([H])([H])[H])C([H])([H])[H])C([H])([H])c2c([H])c(OC([H])([H])C([H])(C([H])([H])C([H])([H])C([H])([H])C([H])([H])N([H])C(=O)N3C([H])([H])C([H])([H])C([H])([H])C([H])(n4nc(-c5c([H])c([H])c(Oc6c([H])c([H])c(F)c([H])c6F)c([H])c5[H])c(C(=O)N([H])[H])c4N([H])[H])C3([H])[H])[N+]([H])([H])[H])c([H])c([H])c2C1([H])[H]

$$$$
67:0:0
     RDKit          3D

 89 98  0  0  1  0  0  0  0  0999 V2000
  -28.9720  -22.1200   21.4340 C   0  0  0  0  0  3  0  0  0  0  0  0
  -29.3610  -20.6810   21.4400 C   0  0  0  0  0  3  0  0  0  0  0  0
  -28.9650  -20.5330   19.1620 C   0  0  0  0  0  3  0  0  0  0  0  0
  -28.5800  -22.8820   20.2630 C   0  0  0  0  0  0  0  0  0  0  0  0
  -28.5890  -21.9690   19.1630 C   0  0  0  0  0  0  0  0  0  0  0  0
  -29.3920  -19.7430   20.3140 C   0  0  0  0  0  0  0  0  0  0  0  0
  -28.0820  -22.7340   17.9570 C   0  0  0  0  0  2  0  0  0  0  0  0
  -27.9710  -24.2480   18.3590 C   0  0  0  0  0  2  0  0  0  0  0  0
  -27.8870  -24.4070   19.9060 C   0  0  0  0  0  3  0  0  0  0  0  0
  -28.1730  -25.9700   20.2790 O   0  0  0  0  0  0  0  0  0  0  0  0
  -24.6540  -31.9240   23.2550 C   0  0  0  0  0  0  0  0  0  0  0  0
  -27.1770  -27.0720   20.2000 C   0  0  0  0  0  0  0  0  0  0  0  0
  -23.4450  -30.5370   21.6220 C   0  0  0  0  0  3  0  0  0  0  0  0
  -24.8790  -28.9440   20.1820 C   0  0  0  0  0  0  0  0  0  0  0  0
  -26.0100  -30.7490   21.4560 C   0  0  0  0  0  2  0  0  0  0  0  0
  -26.0730  -29.3460   20.7930 C   0  0  0  0  0  0  0  0  0  0  0  0
  -27.2160  -28.4320   20.7800 C   0  0  0  0  0  3  0  0  0  0  0  0
  -25.9480  -26.8190   19.5480 C   0  0  0  0  0  3  0  0  0  0  0  0
  -24.8400  -27.7000   19.5390 C   0  0  0  0  0  3  0  0  0  0  0  0
  -23.6600  -29.8620   20.2420 C   0  0  0  0  0  2  0  0  0  0  0  0
  -24.7250  -31.0950   22.1650 N   0  0  0  0  0  0  0  0  0  0  0  0
  -23.5700  -32.2150   23.7850 O   0  0  0  0  0  0  0  0  0  0  0  0
  -22.7570  -29.5360   22.5880 C   0  0  0  0  0  0  0  0  0  0  0  0
  -21.4290  -29.3620   22.4600 N   0  0  0  0  0  0  0  0  0  0  0  0
  -23.4260  -28.9180   23.4210 O   0  0  0  0  0  0  0  0  0  0  0  0
  -20.9420  -29.9110   21.7660 H   0  0  0  0  0  0  0  0  0  0  0  0
  -18.0530  -28.1320   22.9630 C   0  0  0  0  0  0  0  0  0  0  0  0
  -20.6100  -28.4230   23.2340 C   0  0  0  0  0  3  0  0  0  0  0  0
  -20.7260  -26.9880   22.6710 C   0  0  0  0  0  2  0  0  0  0  0  0
  -19.6300  -26.6480   21.6540 C   0  0  0  0  0  2  0  0  0  0  0  0
  -18.2450  -26.7810   22.2930 C   0  0  0  0  0  2  0  0  0  0  0  0
  -19.1620  -28.9090   23.3910 C   0  0  0  0  0  0  0  0  0  0  0  0
  -18.9260  -30.1690   23.9810 C   0  0  0  0  0  3  0  0  0  0  0  0
  -17.6150  -30.6550   24.1450 C   0  0  0  0  0  3  0  0  0  0  0  0
  -16.5210  -29.8760   23.7310 C   0  0  0  0  0  3  0  0  0  0  0  0
  -16.7400  -28.6160   23.1460 C   0  0  0  0  0  3  0  0  0  0  0  0
  -25.9320  -32.5610   23.8800 C   0  0  0  0  0  3  0  0  0  0  0  0
  -25.6210  -33.9600   24.2210 N   0  0  0  0  0  0  0  0  0  0  0  0
  -25.9150  -35.0200   23.4580 C   0  0  0  0  0  0  0  0  0  0  0  0
  -26.5420  -34.9250   22.4000 O   0  0  0  0  0  0  0  0  0  0  0  0
  -25.0580  -34.1060   25.0460 H   0  0  0  0  0  0  0  0  0  0  0  0
  -24.1510  -36.8010   23.2060 C   0  0  0  0  0  1  0  0  0  0  0  0
  -25.4420  -36.4060   23.9430 C   0  0  0  0  0  3  0  0  0  0  0  0
  -27.6070  -37.3210   24.6540 C   0  0  0  0  0  1  0  0  0  0  0  0
  -26.4560  -37.4700   23.7690 N   0  0  0  0  0  0  0  0  0  0  0  0
  -26.0470  -38.3870   23.9320 H   0  0  0  0  0  0  0  0  0  0  0  0
  -26.4460  -31.7900   25.1590 C   0  0  1  0  0  0  0  0  0  0  0  0
  -25.3510  -31.5560   26.2260 C   0  0  0  0  0  1  0  0  0  0  0  0
  -27.0270  -30.4110   24.7760 C   0  0  0  0  0  1  0  0  0  0  0  0
  -27.5970  -32.5840   25.8210 C   0  0  0  0  0  1  0  0  0  0  0  0
  -30.1440  -18.1720   20.2940 C   0  0  0  0  0  2  0  0  0  0  0  0
  -30.4560  -15.3130   20.2730 C   0  0  0  0  0  0  0  0  0  0  0  0
  -30.3980  -12.8950   19.3690 C   0  0  0  0  0  2  0  0  0  0  0  0
  -29.4620  -12.7210   18.1480 C   0  0  0  0  0  2  0  0  0  0  0  0
  -28.0170  -12.4540   18.6030 C   0  0  0  0  0  2  0  0  0  0  0  0
  -27.5830  -13.3990   19.7520 C   0  0  0  0  0  3  0  0  0  0  0  0
  -28.6470  -13.5260   20.8630 C   0  0  0  0  0  2  0  0  0  0  0  0
  -29.8730  -14.0220   20.2190 N   0  0  0  0  0  0  0  0  0  0  0  0
  -31.6690  -15.3160   20.0280 O   0  0  0  0  0  0  0  0  0  0  0  0
  -29.7170  -16.5830   20.3960 N   0  0  0  0  0  0  0  0  0  0  0  0
  -28.7300  -16.4450   20.5510 H   0  0  0  0  0  0  0  0  0  0  0  0
  -25.2220  -13.9360   20.5520 C   0  0  0  0  0  0  0  0  0  0  0  0
  -24.1680  -13.1480   20.9200 C   0  0  0  0  0  0  0  0  0  0  0  0
  -24.6390  -11.8000   20.8540 C   0  0  0  0  0  0  0  0  0  0  0  0
  -26.2640  -13.0690   20.2740 N   0  0  0  0  0  0  0  0  0  0  0  0
  -25.9260  -11.7770   20.5250 N   0  0  0  0  0  0  0  0  0  0  0  0
  -23.9180  -10.5310   21.0260 C   0  0  0  0  0  0  0  0  0  0  0  0
  -24.3430   -9.5600   21.9590 C   0  0  0  0  0  3  0  0  0  0  0  0
  -23.6190   -8.3580   22.1210 C   0  0  0  0  0  3  0  0  0  0  0  0
  -22.4560   -8.1200   21.3510 C   0  0  0  0  0  0  0  0  0  0  0  0
  -22.0500   -9.0810   20.4090 C   0  0  0  0  0  3  0  0  0  0  0  0
  -22.7740  -10.2740   20.2440 C   0  0  0  0  0  3  0  0  0  0  0  0
  -21.7050   -6.9720   21.4230 O   0  0  0  0  0  0  0  0  0  0  0  0
  -21.6170   -6.2420   22.5810 C   0  0  0  0  0  0  0  0  0  0  0  0
  -21.1070   -6.7960   23.7750 C   0  0  0  0  0  3  0  0  0  0  0  0
  -20.9680   -5.9900   24.9240 C   0  0  0  0  0  3  0  0  0  0  0  0
  -21.3290   -4.6310   24.8780 C   0  0  0  0  0  0  0  0  0  0  0  0
  -21.8320   -4.0750   23.6880 C   0  0  0  0  0  3  0  0  0  0  0  0
  -21.9720   -4.8790   22.5420 C   0  0  0  0  0  0  0  0  0  0  0  0
  -22.4370   -4.3330   21.3920 F   0  0  0  0  0  0  0  0  0  0  0  0
  -21.1890   -3.8540   25.9770 F   0  0  0  0  0  0  0  0  0  0  0  0
  -22.7720  -13.6150   21.2160 C   0  0  0  0  0  0  0  0  0  0  0  0
  -22.0580  -12.9010   22.0780 N   0  0  0  0  0  0  0  0  0  0  0  0
  -22.3260  -14.6470   20.7170 O   0  0  0  0  0  0  0  0  0  0  0  0
  -22.4330  -12.0650   22.5020 H   0  0  0  0  0  0  0  0  0  0  0  0
  -21.1220  -13.1940   22.3180 H   0  0  0  0  0  0  0  0  0  0  0  0
  -25.3750  -15.3110   20.4000 N   0  0  0  0  0  0  0  0  0  0  0  0
  -24.6040  -15.9570   20.5350 H   0  0  0  0  0  0  0  0  0  0  0  0
  -26.2060  -15.7600   20.0380 H   0  0  0  0  0  0  0  0  0  0  0  0
  1  2  1  0
  3  5  2  0
  3  6  1  0
  4  1  2  0
  5  4  1  0
  6  2  2  0
  7  8  1  0
  7  5  1  0
  8  9  1  0
  9  4  1  0
  9 10  1  0
 11 22  2  0
 12 10  1  0
 12 17  1  0
 13 21  1  0
 13 23  1  0
 14 20  1  0
 14 16  1  0
 15 21  1  0
 16 15  1  0
 17 16  2  0
 18 12  2  0
 19 18  1  0
 19 14  2  0
 20 13  1  0
 21 11  1  0
 23 25  2  0
 24 23  1  0
 26 24  1  0
 27 36  2  0
 27 32  1  0
 28 24  1  0
 28 32  1  0
 29 28  1  0
 30 31  1  0
 30 29  1  0
 31 27  1  0
 32 33  2  0
 33 34  1  0
 35 34  2  0
 36 35  1  0
 37 11  1  0
 37 38  1  0
 37 47  1  0
 38 41  1  0
 39 43  1  0
 39 38  1  0
 40 39  2  0
 43 42  1  0
 45 46  1  0
 45 43  1  0
 45 44  1  0
 47 50  1  1
 47 48  1  0
 49 47  1  0
 51  6  1  0
 51 60  1  0
 52 60  1  0
 53 58  1  0
 54 55  1  0
 54 53  1  0
 56 55  1  0
 56 65  1  0
 56 57  1  0
 58 52  1  0
 58 57  1  0
 59 52  2  0
 60 61  1  0
 62 63  2  0
 63 82  1  0
 64 63  1  0
 64 67  1  0
 65 66  1  0
 65 62  1  0
 66 64  2  0
 67 68  1  0
 68 69  2  0
 70 73  1  0
 70 69  1  0
 71 70  2  0
 72 71  1  0
 72 67  2  0
 73 74  1  0
 74 75  1  0
 75 76  2  0
 77 76  1  0
 77 81  1  0
 78 77  2  0
 79 74  2  0
 79 78  1  0
 80 79  1  0
 82 83  1  0
 83 86  1  0
 83 85  1  0
 84 82  2  0
 87 88  1  0
 87 62  1  0
 89 87  1  0
M  ISO  4   9 101  10 101  52 100  60 100
M  END
>  <TORSDO>  (68) 
F 17

>  <SCORE>  (68) 
-15.714

>  <name>  (68) 
67

>  <ligand_id>  (68) 
67

>  <original_smiles>  (68) 
[H]c1c([H])c([H])c2c(c1[H])C([H])([H])C([H])([H])C([H])([H])C2([H])N([H])C(=O)C1([H])N(C(=O)C([H])(N([H])C(=O)C([H])(N([H])C([H])([H])[H])C([H])([H])[H])C(C([H])([H])[H])(C([H])([H])[H])C([H])([H])[H])C([H])([H])c2c([H])c(OC3([H])c4c([H])c([H])c(C([H])([H])N([H])C(=O)N5C([H])([H])C([H])([H])C([H])([H])C([H])(n6nc(-c7c([H])c([H])c(Oc8c([H])c([H])c(F)c([H])c8F)c([H])c7[H])c(C(=O)N([H])[H])c6N([H])[H])C5([H])[H])c([H])c4C([H])([H])C3([H])[H])c([H])c([H])c2C1([H])[H]

>  <smiles>  (68) 
[H]c1c([H])c([H])c2c(c1[H])C([H])([H])C([H])([H])C([H])([H])C2([H])N([H])C(=O)C1([H])N(C(=O)C([H])(N([H])C(=O)C([H])(N([H])C([H])([H])[H])C([H])([H])[H])C(C([H])([H])[H])(C([H])([H])[H])C([H])([H])[H])C([H])([H])c2c([H])c(OC3([H])c4c([H])c([H])c(C([H])([H])N([H])C(=O)N5C([H])([H])C([H])([H])C([H])([H])C([H])(n6nc(-c7c([H])c([H])c(Oc8c([H])c([H])c(F)c([H])c8F)c([H])c7[H])c(C(=O)N([H])[H])c6N([H])[H])C5([H])[H])c([H])c4C([H])([H])C3([H])[H])c([H])c([H])c2C1([H])[H]

$$$$
68:0:0
     RDKit          3D

 92100  0  0  1  0  0  0  0  0999 V2000
  -28.2160  -24.2130   23.8380 C   0  0  0  0  0  3  0  0  0  0  0  0
  -28.2280  -25.6050   23.8010 C   0  0  0  0  0  3  0  0  0  0  0  0
  -28.3530  -23.4900   22.6460 C   0  0  0  0  0  3  0  0  0  0  0  0
  -28.3200  -26.2570   22.5660 C   0  0  0  0  0  3  0  0  0  0  0  0
  -28.5120  -24.0980   21.3650 C   0  0  0  0  0  0  0  0  0  0  0  0
  -28.3990  -25.5800   21.3160 C   0  0  0  0  0  0  0  0  0  0  0  0
  -29.6260  -23.5940   19.0900 C   0  0  0  0  0  1  0  0  0  0  0  0
  -28.7680  -23.0130   20.2220 C   0  0  0  0  0  3  0  0  0  0  0  0
  -29.3510  -21.6690   20.7260 N   0  0  0  0  0  4  0  0  0  0  0  0
  -30.2930  -21.8460   21.0350 H   0  0  0  0  0  0  0  0  0  0  0  0
  -28.8190  -21.4620   21.5540 H   0  0  0  0  0  0  0  0  0  0  0  0
  -29.3620  -20.3650   19.9130 C   0  0  0  0  0  3  0  0  0  0  0  0
  -29.6780  -18.9850   20.7160 C   0  0  0  0  0  3  0  0  0  0  0  0
  -29.9720  -17.5810   19.9580 C   0  0  0  0  0  3  0  0  0  0  0  0
  -29.9280  -16.1810   20.7770 C   0  0  0  0  0  3  0  0  0  0  0  0
  -30.6500  -14.8560   20.2240 C   0  0  0  0  0  0  0  0  0  0  0  0
  -30.4460  -12.5890   19.1810 C   0  0  0  0  0  2  0  0  0  0  0  0
  -29.4910  -12.6930   17.9700 C   0  0  0  0  0  2  0  0  0  0  0  0
  -28.0230  -12.5300   18.4120 C   0  0  0  0  0  2  0  0  0  0  0  0
  -27.6750  -13.3990   19.6510 C   0  0  0  0  0  3  0  0  0  0  0  0
  -28.7440  -13.2640   20.7550 C   0  0  0  0  0  2  0  0  0  0  0  0
  -30.0400  -13.6220   20.1620 N   0  0  0  0  0  0  0  0  0  0  0  0
  -31.7920  -14.9800   19.7740 O   0  0  0  0  0  0  0  0  0  0  0  0
  -25.2890  -13.9980   20.3850 C   0  0  0  0  0  0  0  0  0  0  0  0
  -24.2250  -13.2270   20.7710 C   0  0  0  0  0  0  0  0  0  0  0  0
  -24.6890  -11.8750   20.7480 C   0  0  0  0  0  0  0  0  0  0  0  0
  -26.3310  -13.1160   20.1490 N   0  0  0  0  0  0  0  0  0  0  0  0
  -25.9760  -11.8340   20.4280 N   0  0  0  0  0  0  0  0  0  0  0  0
  -23.9640  -10.6150   20.9560 C   0  0  0  0  0  0  0  0  0  0  0  0
  -24.4090   -9.6530   21.8890 C   0  0  0  0  0  3  0  0  0  0  0  0
  -23.6850   -8.4570   22.0850 C   0  0  0  0  0  3  0  0  0  0  0  0
  -22.5020   -8.2140   21.3470 C   0  0  0  0  0  0  0  0  0  0  0  0
  -22.0760   -9.1650   20.4030 C   0  0  0  0  0  3  0  0  0  0  0  0
  -22.8000  -10.3530   20.2050 C   0  0  0  0  0  3  0  0  0  0  0  0
  -21.7480   -7.0700   21.4520 O   0  0  0  0  0  0  0  0  0  0  0  0
  -21.7180   -6.3300   22.6080 C   0  0  0  0  0  0  0  0  0  0  0  0
  -21.3300   -6.8930   23.8430 C   0  0  0  0  0  3  0  0  0  0  0  0
  -21.2460   -6.0820   24.9920 C   0  0  0  0  0  3  0  0  0  0  0  0
  -21.5410   -4.7080   24.9070 C   0  0  0  0  0  0  0  0  0  0  0  0
  -21.9230   -4.1440   23.6770 C   0  0  0  0  0  3  0  0  0  0  0  0
  -22.0080   -4.9540   22.5300 C   0  0  0  0  0  0  0  0  0  0  0  0
  -22.3560   -4.4010   21.3430 F   0  0  0  0  0  0  0  0  0  0  0  0
  -21.4540   -3.9260   26.0080 F   0  0  0  0  0  0  0  0  0  0  0  0
  -22.8300  -13.7060   21.0500 C   0  0  0  0  0  0  0  0  0  0  0  0
  -22.1110  -13.0200   21.9320 N   0  0  0  0  0  0  0  0  0  0  0  0
  -22.3870  -14.7240   20.5220 O   0  0  0  0  0  0  0  0  0  0  0  0
  -22.4820  -12.1960   22.3820 H   0  0  0  0  0  0  0  0  0  0  0  0
  -21.1760  -13.3240   22.1610 H   0  0  0  0  0  0  0  0  0  0  0  0
  -25.4510  -15.3680   20.1960 N   0  0  0  0  0  0  0  0  0  0  0  0
  -24.6860  -16.0230   20.3140 H   0  0  0  0  0  0  0  0  0  0  0  0
  -26.3010  -15.8040   19.8620 H   0  0  0  0  0  0  0  0  0  0  0  0
  -28.3690  -26.4930   20.2200 O   0  0  0  0  0  0  0  0  0  0  0  0
  -24.6330  -31.9430   23.1910 C   0  0  0  0  0  0  0  0  0  0  0  0
  -27.3020  -27.4180   20.1360 C   0  0  0  0  0  0  0  0  0  0  0  0
  -23.4520  -30.5440   21.5340 C   0  0  0  0  0  3  0  0  0  0  0  0
  -24.9260  -29.0190   20.0960 C   0  0  0  0  0  0  0  0  0  0  0  0
  -25.9840  -30.8950   21.3560 C   0  0  0  0  0  2  0  0  0  0  0  0
  -26.0870  -29.5220   20.6990 C   0  0  0  0  0  0  0  0  0  0  0  0
  -27.2830  -28.7400   20.6950 C   0  0  0  0  0  3  0  0  0  0  0  0
  -26.1270  -26.9790   19.4960 C   0  0  0  0  0  3  0  0  0  0  0  0
  -24.9520  -27.7590   19.4750 C   0  0  0  0  0  3  0  0  0  0  0  0
  -23.6780  -29.8780   20.1490 C   0  0  0  0  0  2  0  0  0  0  0  0
  -24.7090  -31.1440   22.0840 N   0  0  0  0  0  0  0  0  0  0  0  0
  -23.5450  -32.2040   23.7240 O   0  0  0  0  0  0  0  0  0  0  0  0
  -22.7950  -29.5150   22.4860 C   0  0  0  0  0  0  0  0  0  0  0  0
  -21.4720  -29.3220   22.3500 N   0  0  0  0  0  0  0  0  0  0  0  0
  -23.4750  -28.8960   23.3070 O   0  0  0  0  0  0  0  0  0  0  0  0
  -20.9820  -29.8750   21.6620 H   0  0  0  0  0  0  0  0  0  0  0  0
  -18.1100  -28.0650   22.8130 C   0  0  0  0  0  0  0  0  0  0  0  0
  -20.6600  -28.3700   23.1110 C   0  0  0  0  0  3  0  0  0  0  0  0
  -20.7950  -26.9420   22.5350 C   0  0  0  0  0  2  0  0  0  0  0  0
  -19.7110  -26.6020   21.5070 C   0  0  0  0  0  2  0  0  0  0  0  0
  -18.3190  -26.7210   22.1350 C   0  0  0  0  0  2  0  0  0  0  0  0
  -19.2100  -28.8460   23.2560 C   0  0  0  0  0  0  0  0  0  0  0  0
  -18.9620  -30.1040   23.8490 C   0  0  0  0  0  3  0  0  0  0  0  0
  -17.6460  -30.5800   24.0000 C   0  0  0  0  0  3  0  0  0  0  0  0
  -16.5600  -29.7970   23.5710 C   0  0  0  0  0  3  0  0  0  0  0  0
  -16.7940  -28.5400   22.9850 C   0  0  0  0  0  3  0  0  0  0  0  0
  -25.9070  -32.5860   23.8230 C   0  0  0  0  0  3  0  0  0  0  0  0
  -25.5820  -33.9790   24.1620 N   0  0  0  0  0  0  0  0  0  0  0  0
  -25.9070  -35.0410   23.4120 C   0  0  0  0  0  0  0  0  0  0  0  0
  -26.5810  -34.9510   22.3810 O   0  0  0  0  0  0  0  0  0  0  0  0
  -24.9830  -34.1210   24.9620 H   0  0  0  0  0  0  0  0  0  0  0  0
  -24.1600  -36.8190   23.0690 C   0  0  0  0  0  1  0  0  0  0  0  0
  -25.4070  -36.4230   23.8780 C   0  0  0  0  0  3  0  0  0  0  0  0
  -27.5340  -37.3210   24.7090 C   0  0  0  0  0  1  0  0  0  0  0  0
  -26.4290  -37.4870   23.7700 N   0  0  0  0  0  0  0  0  0  0  0  0
  -26.0160  -38.4030   23.9260 H   0  0  0  0  0  0  0  0  0  0  0  0
  -26.4230  -31.8120   25.0970 C   0  0  1  0  0  0  0  0  0  0  0  0
  -25.3280  -31.5610   26.1610 C   0  0  0  0  0  1  0  0  0  0  0  0
  -27.0160  -30.4400   24.7000 C   0  0  0  0  0  1  0  0  0  0  0  0
  -27.5660  -32.6090   25.7680 C   0  0  0  0  0  1  0  0  0  0  0  0
  2  1  1  0
  3  1  2  0
  4  2  2  0
  5  3  1  0
  6  5  2  0
  6  4  1  0
  8  7  1  0
  8  9  1  0
  8  5  1  0
  9 10  1  0
  9 11  1  0
 12 13  2  0
 12  9  1  0
 14 13  1  0
 14 15  2  0
 16 15  1  0
 17 22  1  0
 18 19  1  0
 18 17  1  0
 20 19  1  0
 20 27  1  0
 20 21  1  0
 22 16  1  0
 22 21  1  0
 23 16  2  0
 24 25  2  0
 25 44  1  0
 26 25  1  0
 26 29  1  0
 27 24  1  0
 27 28  1  0
 28 26  2  0
 29 30  1  0
 30 31  2  0
 32 35  1  0
 32 31  1  0
 33 32  2  0
 34 33  1  0
 34 29  2  0
 35 36  1  0
 36 37  1  0
 37 38  2  0
 39 38  1  0
 39 43  1  0
 40 39  2  0
 41 36  2  0
 41 40  1  0
 42 41  1  0
 44 45  1  0
 45 48  1  0
 45 47  1  0
 46 44  2  0
 49 50  1  0
 49 24  1  0
 51 49  1  0
 52  6  1  0
 53 64  2  0
 54 52  1  0
 54 59  1  0
 55 63  1  0
 55 65  1  0
 56 62  1  0
 56 58  1  0
 57 63  1  0
 58 57  1  0
 59 58  2  0
 60 54  2  0
 61 60  1  0
 61 56  2  0
 62 55  1  0
 63 53  1  0
 65 67  2  0
 66 65  1  0
 68 66  1  0
 69 78  2  0
 69 74  1  0
 70 66  1  0
 70 74  1  0
 71 70  1  0
 72 73  1  0
 72 71  1  0
 73 69  1  0
 74 75  2  0
 75 76  1  0
 77 76  2  0
 78 77  1  0
 79 53  1  0
 79 80  1  0
 79 89  1  0
 80 83  1  0
 81 85  1  0
 81 80  1  0
 82 81  2  0
 85 84  1  0
 87 85  1  0
 87 88  1  0
 87 86  1  0
 89 92  1  1
 89 90  1  0
 91 89  1  0
M  ISO  4   6 101  15 100  16 100  52 101
M  END
>  <TORSDO>  (69) 
F 22

>  <SCORE>  (69) 
-11.487

>  <name>  (69) 
68

>  <ligand_id>  (69) 
68

>  <original_smiles>  (69) 
[H]c1c([H])c([H])c(C([H])(C([H])([H])[H])[N+]([H])([H])C([H])([H])C([H])([H])C([H])([H])C([H])([H])C(=O)N2C([H])([H])C([H])([H])C([H])([H])C([H])(n3nc(-c4c([H])c([H])c(Oc5c([H])c([H])c(F)c([H])c5F)c([H])c4[H])c(C(=O)N([H])[H])c3N([H])[H])C2([H])[H])c(Oc2c([H])c([H])c3c(c2[H])C([H])([H])N(C(=O)C([H])(N([H])C(=O)C([H])(N([H])C([H])([H])[H])C([H])([H])[H])C(C([H])([H])[H])(C([H])([H])[H])C([H])([H])[H])C([H])(C(=O)N([H])C2([H])c4c([H])c([H])c([H])c([H])c4C([H])([H])C([H])([H])C2([H])[H])C3([H])[H])c1[H]

>  <smiles>  (69) 
[H]c1c([H])c([H])c(C([H])(C([H])([H])[H])[N+]([H])([H])C([H])([H])C([H])([H])C([H])([H])C([H])([H])C(=O)N2C([H])([H])C([H])([H])C([H])([H])C([H])(n3nc(-c4c([H])c([H])c(Oc5c([H])c([H])c(F)c([H])c5F)c([H])c4[H])c(C(=O)N([H])[H])c3N([H])[H])C2([H])[H])c(Oc2c([H])c([H])c3c(c2[H])C([H])([H])N(C(=O)C([H])(N([H])C(=O)C([H])(N([H])C([H])([H])[H])C([H])([H])[H])C(C([H])([H])[H])(C([H])([H])[H])C([H])([H])[H])C([H])(C(=O)N([H])C2([H])c4c([H])c([H])c([H])c([H])c4C([H])([H])C([H])([H])C2([H])[H])C3([H])[H])c1[H]

$$$$
69:0:0
     RDKit          3D

 91100  0  0  1  0  0  0  0  0999 V2000
  -30.4950  -15.2070   20.3630 C   0  0  0  0  0  0  0  0  0  0  0  0
  -30.3800  -12.8100   19.4440 C   0  0  0  0  0  2  0  0  0  0  0  0
  -29.4700  -12.6580   18.2050 C   0  0  0  0  0  2  0  0  0  0  0  0
  -28.0170  -12.4020   18.6370 C   0  0  0  0  0  2  0  0  0  0  0  0
  -27.5700  -13.3520   19.7770 C   0  0  0  0  0  3  0  0  0  0  0  0
  -28.6140  -13.4800   20.9070 C   0  0  0  0  0  2  0  0  0  0  0  0
  -29.8550  -13.9490   20.2760 N   0  0  0  0  0  0  0  0  0  0  0  0
  -31.7210  -15.1340   20.1910 O   0  0  0  0  0  0  0  0  0  0  0  0
  -28.5320  -21.5880   20.6320 C   0  0  0  0  0  3  0  0  0  0  0  0
  -28.7770  -22.9550   20.2170 C   0  0  0  0  0  0  0  0  0  0  0  0
  -30.1280  -20.4580   19.0140 C   0  0  0  0  0  2  0  0  0  0  0  0
  -30.8580  -21.8140   19.1890 C   0  0  0  0  0  2  0  0  0  0  0  0
  -28.3220  -18.8050   19.8760 C   0  0  0  0  0  2  0  0  0  0  0  0
  -30.0590  -19.2490   21.3260 C   0  0  0  0  0  2  0  0  0  0  0  0
  -28.9100  -17.2680   19.6000 C   0  0  0  0  0  2  0  0  0  0  0  0
  -30.6880  -17.7470   21.0220 C   0  0  0  0  0  2  0  0  0  0  0  0
  -29.2450  -20.0950   20.2250 C   0  0  2  0  0  0  0  0  0  0  0  0
  -29.9670  -23.1080   19.2500 C   0  0  2  0  0  0  0  0  0  0  0  0
  -30.8980  -24.2470   19.7080 C   0  0  0  0  0  1  0  0  0  0  0  0
  -29.4250  -23.4220   17.8420 C   0  0  0  0  0  1  0  0  0  0  0  0
  -29.8760  -16.5380   20.5360 N   0  0  0  0  0  0  0  0  0  0  0  0
  -25.1900  -13.8990   20.5110 C   0  0  0  0  0  0  0  0  0  0  0  0
  -24.1280  -13.1150   20.8670 C   0  0  0  0  0  0  0  0  0  0  0  0
  -24.6060  -11.7690   20.8440 C   0  0  0  0  0  0  0  0  0  0  0  0
  -26.2410  -13.0300   20.2790 N   0  0  0  0  0  0  0  0  0  0  0  0
  -25.9010  -11.7430   20.5490 N   0  0  0  0  0  0  0  0  0  0  0  0
  -23.8860  -10.5000   21.0270 C   0  0  0  0  0  0  0  0  0  0  0  0
  -24.3050   -9.5400   21.9740 C   0  0  0  0  0  3  0  0  0  0  0  0
  -23.5810   -8.3410   22.1460 C   0  0  0  0  0  3  0  0  0  0  0  0
  -22.4240   -8.0920   21.3710 C   0  0  0  0  0  0  0  0  0  0  0  0
  -22.0240   -9.0400   20.4120 C   0  0  0  0  0  3  0  0  0  0  0  0
  -22.7490  -10.2310   20.2380 C   0  0  0  0  0  3  0  0  0  0  0  0
  -21.6730   -6.9440   21.4500 O   0  0  0  0  0  0  0  0  0  0  0  0
  -21.5930   -6.2160   22.6110 C   0  0  0  0  0  0  0  0  0  0  0  0
  -21.1180   -6.7820   23.8150 C   0  0  0  0  0  3  0  0  0  0  0  0
  -20.9850   -5.9800   24.9650 C   0  0  0  0  0  3  0  0  0  0  0  0
  -21.3200   -4.6130   24.9140 C   0  0  0  0  0  0  0  0  0  0  0  0
  -21.7890   -4.0470   23.7150 C   0  0  0  0  0  3  0  0  0  0  0  0
  -21.9220   -4.8460   22.5660 C   0  0  0  0  0  0  0  0  0  0  0  0
  -22.3530   -4.2910   21.4080 F   0  0  0  0  0  0  0  0  0  0  0  0
  -21.1870   -3.8400   26.0180 F   0  0  0  0  0  0  0  0  0  0  0  0
  -22.7240  -13.5820   21.1150 C   0  0  0  0  0  0  0  0  0  0  0  0
  -21.9910  -12.8880   21.9780 N   0  0  0  0  0  0  0  0  0  0  0  0
  -22.2860  -14.6000   20.5790 O   0  0  0  0  0  0  0  0  0  0  0  0
  -22.3590  -12.0650   22.4320 H   0  0  0  0  0  0  0  0  0  0  0  0
  -21.0480  -13.1840   22.1870 H   0  0  0  0  0  0  0  0  0  0  0  0
  -25.3470  -15.2710   20.3380 N   0  0  0  0  0  0  0  0  0  0  0  0
  -24.5820  -15.9260   20.4600 H   0  0  0  0  0  0  0  0  0  0  0  0
  -26.2120  -15.7200   20.0670 H   0  0  0  0  0  0  0  0  0  0  0  0
  -27.8720  -24.3910   20.5170 C   0  0  0  0  0  2  0  0  0  0  0  0
  -28.2210  -25.9700   20.3690 O   0  0  0  0  0  0  0  0  0  0  0  0
  -24.6480  -31.9220   23.2610 C   0  0  0  0  0  0  0  0  0  0  0  0
  -27.2100  -27.0480   20.3150 C   0  0  0  0  0  0  0  0  0  0  0  0
  -23.4600  -30.5130   21.6280 C   0  0  0  0  0  3  0  0  0  0  0  0
  -24.9140  -28.9010   20.2350 C   0  0  0  0  0  0  0  0  0  0  0  0
  -26.0260  -30.7300   21.4940 C   0  0  0  0  0  2  0  0  0  0  0  0
  -26.0980  -29.3180   20.8570 C   0  0  0  0  0  0  0  0  0  0  0  0
  -27.2460  -28.4120   20.8740 C   0  0  0  0  0  3  0  0  0  0  0  0
  -26.0000  -26.7760   19.6400 C   0  0  0  0  0  3  0  0  0  0  0  0
  -24.8880  -27.6480   19.6060 C   0  0  0  0  0  3  0  0  0  0  0  0
  -23.6970  -29.8190   20.2600 C   0  0  0  0  0  2  0  0  0  0  0  0
  -24.7330  -31.0810   22.1810 N   0  0  0  0  0  0  0  0  0  0  0  0
  -23.5560  -32.2180   23.7710 O   0  0  0  0  0  0  0  0  0  0  0  0
  -22.7620  -29.5230   22.5980 C   0  0  0  0  0  0  0  0  0  0  0  0
  -21.4330  -29.3560   22.4640 N   0  0  0  0  0  0  0  0  0  0  0  0
  -23.4210  -28.9070   23.4390 O   0  0  0  0  0  0  0  0  0  0  0  0
  -20.9550  -29.9060   21.7630 H   0  0  0  0  0  0  0  0  0  0  0  0
  -18.0470  -28.1540   22.9500 C   0  0  0  0  0  0  0  0  0  0  0  0
  -20.6030  -28.4280   23.2380 C   0  0  0  0  0  3  0  0  0  0  0  0
  -20.7130  -26.9880   22.6860 C   0  0  0  0  0  2  0  0  0  0  0  0
  -19.6240  -26.6490   21.6640 C   0  0  0  0  0  2  0  0  0  0  0  0
  -18.2340  -26.7970   22.2900 C   0  0  0  0  0  2  0  0  0  0  0  0
  -19.1590  -28.9260   23.3810 C   0  0  0  0  0  0  0  0  0  0  0  0
  -18.9280  -30.1930   23.9590 C   0  0  0  0  0  3  0  0  0  0  0  0
  -17.6190  -30.6900   24.1090 C   0  0  0  0  0  3  0  0  0  0  0  0
  -16.5220  -29.9160   23.6930 C   0  0  0  0  0  3  0  0  0  0  0  0
  -16.7360  -28.6480   23.1200 C   0  0  0  0  0  3  0  0  0  0  0  0
  -25.9180  -32.5660   23.8950 C   0  0  0  0  0  3  0  0  0  0  0  0
  -25.6010  -33.9680   24.2160 N   0  0  0  0  0  0  0  0  0  0  0  0
  -25.9240  -35.0220   23.4540 C   0  0  0  0  0  0  0  0  0  0  0  0
  -26.5850  -34.9160   22.4180 O   0  0  0  0  0  0  0  0  0  0  0  0
  -25.0170  -34.1240   25.0240 H   0  0  0  0  0  0  0  0  0  0  0  0
  -24.1830  -36.8090   23.1220 C   0  0  0  0  0  1  0  0  0  0  0  0
  -25.4390  -36.4110   23.9130 C   0  0  0  0  0  3  0  0  0  0  0  0
  -27.5830  -37.3140   24.7020 C   0  0  0  0  0  1  0  0  0  0  0  0
  -26.4640  -37.4700   23.7770 N   0  0  0  0  0  0  0  0  0  0  0  0
  -26.0540  -38.3870   23.9290 H   0  0  0  0  0  0  0  0  0  0  0  0
  -26.4150  -31.8090   25.1890 C   0  0  1  0  0  0  0  0  0  0  0  0
  -25.3070  -31.5900   26.2460 C   0  0  0  0  0  1  0  0  0  0  0  0
  -27.0000  -30.4250   24.8290 C   0  0  0  0  0  1  0  0  0  0  0  0
  -27.5610  -32.6100   25.8550 C   0  0  0  0  0  1  0  0  0  0  0  0
  1 21  1  0
  2  7  1  0
  3  4  1  0
  3  2  1  0
  5  4  1  0
  5 25  1  0
  5  6  1  0
  7  1  1  0
  7  6  1  0
  8  1  2  0
 10 50  1  0
 10  9  2  0
 11 12  1  0
 12 18  1  0
 17 13  1  6
 15 13  1  0
 15 21  1  0
 16 14  1  0
 17 11  1  0
 17  9  1  0
 17 14  1  0
 18 19  1  1
 18 10  1  0
 20 18  1  0
 21 16  1  0
 22 23  2  0
 23 42  1  0
 24 23  1  0
 24 27  1  0
 25 22  1  0
 25 26  1  0
 26 24  2  0
 27 28  1  0
 28 29  2  0
 30 33  1  0
 30 29  1  0
 31 30  2  0
 32 31  1  0
 32 27  2  0
 33 34  1  0
 34 35  1  0
 35 36  2  0
 37 36  1  0
 37 41  1  0
 38 37  2  0
 39 34  2  0
 39 38  1  0
 40 39  1  0
 42 43  1  0
 43 46  1  0
 43 45  1  0
 44 42  2  0
 47 48  1  0
 47 22  1  0
 49 47  1  0
 51 50  1  0
 52 63  2  0
 53 51  1  0
 53 58  1  0
 54 62  1  0
 54 64  1  0
 55 61  1  0
 55 57  1  0
 56 62  1  0
 57 58  2  0
 57 56  1  0
 59 53  2  0
 60 59  1  0
 60 55  2  0
 61 54  1  0
 62 52  1  0
 64 66  2  0
 65 64  1  0
 67 65  1  0
 68 77  2  0
 68 73  1  0
 69 65  1  0
 69 73  1  0
 70 69  1  0
 71 72  1  0
 71 70  1  0
 72 68  1  0
 73 74  2  0
 74 75  1  0
 76 75  2  0
 77 76  1  0
 78 52  1  0
 78 79  1  0
 78 88  1  0
 79 82  1  0
 80 84  1  0
 80 79  1  0
 81 80  2  0
 84 83  1  0
 86 84  1  0
 86 87  1  0
 86 85  1  0
 88 91  1  1
 88 89  1  0
 90 88  1  0
M  ISO  4   1 100  21 100  50 101  51 101
M  END
>  <TORSDO>  (70) 
F 16

>  <SCORE>  (70) 
-16.366

>  <name>  (70) 
69

>  <ligand_id>  (70) 
69

>  <original_smiles>  (70) 
[H]C1=C(C([H])([H])Oc2c([H])c([H])c3c(c2[H])C([H])([H])N(C(=O)C([H])(N([H])C(=O)C([H])(N([H])C([H])([H])[H])C([H])([H])[H])C(C([H])([H])[H])(C([H])([H])[H])C([H])([H])[H])C([H])(C(=O)N([H])C2([H])c4c([H])c([H])c([H])c([H])c4C([H])([H])C([H])([H])C2([H])[H])C3([H])[H])C(C([H])([H])[H])(C([H])([H])[H])C([H])([H])C([H])([H])C12C([H])([H])C([H])([H])N(C(=O)N1C([H])([H])C([H])([H])C([H])([H])C([H])(n3nc(-c4c([H])c([H])c(Oc5c([H])c([H])c(F)c([H])c5F)c([H])c4[H])c(C(=O)N([H])[H])c3N([H])[H])C1([H])[H])C([H])([H])C2([H])[H]

>  <smiles>  (70) 
[H]C1=C(C([H])([H])Oc2c([H])c([H])c3c(c2[H])C([H])([H])N(C(=O)C([H])(N([H])C(=O)C([H])(N([H])C([H])([H])[H])C([H])([H])[H])C(C([H])([H])[H])(C([H])([H])[H])C([H])([H])[H])C([H])(C(=O)N([H])C2([H])c4c([H])c([H])c([H])c([H])c4C([H])([H])C([H])([H])C2([H])[H])C3([H])[H])C(C([H])([H])[H])(C([H])([H])[H])C([H])([H])C([H])([H])C12C([H])([H])C([H])([H])N(C(=O)N1C([H])([H])C([H])([H])C([H])([H])C([H])(n3nc(-c4c([H])c([H])c(Oc5c([H])c([H])c(F)c([H])c5F)c([H])c4[H])c(C(=O)N([H])[H])c3N([H])[H])C1([H])[H])C([H])([H])C2([H])[H]

$$$$
70:0:0
     RDKit          3D

 89 97  0  0  1  0  0  0  0  0999 V2000
  -29.4810  -20.2360   21.2810 C   0  0  0  0  0  3  0  0  0  0  0  0
  -29.2760  -21.4000   19.1790 C   0  0  0  0  0  3  0  0  0  0  0  0
  -28.8480  -22.6890   21.1630 C   0  0  0  0  0  3  0  0  0  0  0  0
  -29.6110  -20.0380   19.8880 C   0  0  0  0  0  0  0  0  0  0  0  0
  -29.1280  -21.4860   21.8820 C   0  0  0  0  0  0  0  0  0  0  0  0
  -28.8660  -22.8020   19.7550 C   0  0  0  0  0  0  0  0  0  0  0  0
  -29.0490  -21.5400   23.3980 C   0  0  0  0  0  1  0  0  0  0  0  0
  -30.6610  -15.7510   19.4670 C   0  0  0  0  0  0  0  0  0  0  0  0
  -30.5190  -13.2490   18.6860 C   0  0  0  0  0  2  0  0  0  0  0  0
  -29.4920  -13.0030   17.5490 C   0  0  0  0  0  2  0  0  0  0  0  0
  -28.0940  -12.7470   18.1340 C   0  0  0  0  0  2  0  0  0  0  0  0
  -27.7590  -13.7480   19.2650 C   0  0  0  0  0  3  0  0  0  0  0  0
  -28.9090  -13.9380   20.2810 C   0  0  0  0  0  2  0  0  0  0  0  0
  -30.0760  -14.4350   19.5310 N   0  0  0  0  0  0  0  0  0  0  0  0
  -31.8300  -15.6680   19.0560 O   0  0  0  0  0  0  0  0  0  0  0  0
  -30.2400  -18.5320   19.3550 C   0  0  0  0  0  0  0  0  0  0  0  0
  -29.9880  -17.0870   19.7140 N   0  0  0  0  0  0  0  0  0  0  0  0
  -31.0930  -18.7050   18.4790 O   0  0  0  0  0  0  0  0  0  0  0  0
  -29.1420  -16.9880   20.2490 H   0  0  0  0  0  0  0  0  0  0  0  0
  -25.5250  -14.3730   20.3100 C   0  0  0  0  0  0  0  0  0  0  0  0
  -24.4690  -13.6310   20.7600 C   0  0  0  0  0  0  0  0  0  0  0  0
  -24.8540  -12.2630   20.6100 C   0  0  0  0  0  0  0  0  0  0  0  0
  -26.4820  -13.4620   19.9050 N   0  0  0  0  0  0  0  0  0  0  0  0
  -26.0990  -12.1820   20.1500 N   0  0  0  0  0  0  0  0  0  0  0  0
  -24.0800  -11.0310   20.8210 C   0  0  0  0  0  0  0  0  0  0  0  0
  -24.5360  -10.0090   21.6810 C   0  0  0  0  0  3  0  0  0  0  0  0
  -23.7600   -8.8470   21.8860 C   0  0  0  0  0  3  0  0  0  0  0  0
  -22.5140   -8.7010   21.2290 C   0  0  0  0  0  0  0  0  0  0  0  0
  -22.0760   -9.7110   20.3550 C   0  0  0  0  0  3  0  0  0  0  0  0
  -22.8530  -10.8640   20.1490 C   0  0  0  0  0  3  0  0  0  0  0  0
  -21.7070   -7.5950   21.3460 O   0  0  0  0  0  0  0  0  0  0  0  0
  -21.7170   -6.8100   22.4720 C   0  0  0  0  0  0  0  0  0  0  0  0
  -21.3950   -7.3290   23.7450 C   0  0  0  0  0  3  0  0  0  0  0  0
  -21.3480   -6.4720   24.8630 C   0  0  0  0  0  3  0  0  0  0  0  0
  -21.6150   -5.0980   24.7110 C   0  0  0  0  0  0  0  0  0  0  0  0
  -21.9300   -4.5790   23.4430 C   0  0  0  0  0  3  0  0  0  0  0  0
  -21.9770   -5.4310   22.3260 C   0  0  0  0  0  0  0  0  0  0  0  0
  -22.2610   -4.9220   21.1030 F   0  0  0  0  0  0  0  0  0  0  0  0
  -21.5640   -4.2740   25.7830 F   0  0  0  0  0  0  0  0  0  0  0  0
  -23.1410  -14.1650   21.2070 C   0  0  0  0  0  0  0  0  0  0  0  0
  -22.4760  -13.4690   22.1200 N   0  0  0  0  0  0  0  0  0  0  0  0
  -22.7100  -15.2360   20.7820 O   0  0  0  0  0  0  0  0  0  0  0  0
  -22.8420  -12.6040   22.4890 H   0  0  0  0  0  0  0  0  0  0  0  0
  -21.5860  -13.8100   22.4570 H   0  0  0  0  0  0  0  0  0  0  0  0
  -25.7420  -15.7420   20.1830 N   0  0  0  0  0  0  0  0  0  0  0  0
  -25.0240  -16.4220   20.4060 H   0  0  0  0  0  0  0  0  0  0  0  0
  -26.5570  -16.1570   19.7500 H   0  0  0  0  0  0  0  0  0  0  0  0
  -28.2340  -24.3450   19.0820 C   0  0  0  0  0  2  0  0  0  0  0  0
  -28.2870  -25.9920   19.4700 O   0  0  0  0  0  0  0  0  0  0  0  0
  -24.5780  -31.6670   22.9310 C   0  0  0  0  0  0  0  0  0  0  0  0
  -27.2350  -27.0880   19.4620 C   0  0  0  0  0  0  0  0  0  0  0  0
  -23.3760  -30.2990   21.2750 C   0  0  0  0  0  3  0  0  0  0  0  0
  -24.8330  -28.8750   19.6630 C   0  0  0  0  0  0  0  0  0  0  0  0
  -25.9160  -30.6630   21.0040 C   0  0  0  0  0  2  0  0  0  0  0  0
  -26.0300  -29.2960   20.2510 C   0  0  0  0  0  0  0  0  0  0  0  0
  -27.2150  -28.4230   20.1340 C   0  0  0  0  0  3  0  0  0  0  0  0
  -25.9970  -26.8510   18.8190 C   0  0  0  0  0  3  0  0  0  0  0  0
  -24.8440  -27.6790   18.9240 C   0  0  0  0  0  3  0  0  0  0  0  0
  -23.5640  -29.7150   19.8470 C   0  0  0  0  0  2  0  0  0  0  0  0
  -24.6470  -30.9050   21.7900 N   0  0  0  0  0  0  0  0  0  0  0  0
  -23.5060  -31.8530   23.5310 O   0  0  0  0  0  0  0  0  0  0  0  0
  -22.7990  -29.2080   22.2150 C   0  0  0  0  0  0  0  0  0  0  0  0
  -21.4900  -28.9140   22.1050 N   0  0  0  0  0  0  0  0  0  0  0  0
  -23.5390  -28.6270   23.0130 O   0  0  0  0  0  0  0  0  0  0  0  0
  -20.9410  -29.4400   21.4400 H   0  0  0  0  0  0  0  0  0  0  0  0
  -18.2800  -27.2770   22.5540 C   0  0  0  0  0  0  0  0  0  0  0  0
  -20.7820  -27.8680   22.8520 C   0  0  0  0  0  3  0  0  0  0  0  0
  -21.0720  -26.4680   22.2610 C   0  0  0  0  0  2  0  0  0  0  0  0
  -20.0320  -26.0230   21.2270 C   0  0  0  0  0  2  0  0  0  0  0  0
  -18.6370  -25.9750   21.8580 C   0  0  0  0  0  2  0  0  0  0  0  0
  -19.2860  -28.1730   23.0080 C   0  0  0  0  0  0  0  0  0  0  0  0
  -18.8960  -29.3820   23.6230 C   0  0  0  0  0  3  0  0  0  0  0  0
  -17.5350  -29.7000   23.7890 C   0  0  0  0  0  3  0  0  0  0  0  0
  -16.5450  -28.8050   23.3490 C   0  0  0  0  0  3  0  0  0  0  0  0
  -16.9180  -27.5950   22.7380 C   0  0  0  0  0  3  0  0  0  0  0  0
  -25.8400  -32.3550   23.5350 C   0  0  0  0  0  3  0  0  0  0  0  0
  -25.4610  -33.7190   23.9510 N   0  0  0  0  0  0  0  0  0  0  0  0
  -25.7540  -34.8390   23.2770 C   0  0  0  0  0  0  0  0  0  0  0  0
  -26.4290  -34.8350   22.2450 O   0  0  0  0  0  0  0  0  0  0  0  0
  -24.8530  -33.7890   24.7540 H   0  0  0  0  0  0  0  0  0  0  0  0
  -23.9570  -36.5920   23.0510 C   0  0  0  0  0  1  0  0  0  0  0  0
  -25.2140  -36.1740   23.8320 C   0  0  0  0  0  3  0  0  0  0  0  0
  -27.3080  -37.0920   24.7320 C   0  0  0  0  0  1  0  0  0  0  0  0
  -26.2050  -37.2740   23.7930 N   0  0  0  0  0  0  0  0  0  0  0  0
  -25.7600  -38.1660   23.9910 H   0  0  0  0  0  0  0  0  0  0  0  0
  -26.4480  -31.5660   24.7600 C   0  0  1  0  0  0  0  0  0  0  0  0
  -25.4190  -31.2370   25.8660 C   0  0  0  0  0  1  0  0  0  0  0  0
  -27.0780  -30.2300   24.3040 C   0  0  0  0  0  1  0  0  0  0  0  0
  -27.5910  -32.3910   25.3980 C   0  0  0  0  0  1  0  0  0  0  0  0
  1  5  1  0
  2  6  2  0
  2  4  1  0
  3  5  2  0
  4  1  2  0
  5  7  1  0
  6  3  1  0
  8 14  1  0
  8 17  1  0
  9 14  1  0
 10 11  1  0
 10  9  1  0
 12 11  1  0
 12 23  1  0
 12 13  1  0
 14 13  1  0
 15  8  2  0
 16 17  1  0
 16  4  1  0
 17 19  1  0
 18 16  2  0
 20 21  2  0
 21 40  1  0
 22 21  1  0
 22 25  1  0
 23 24  1  0
 23 20  1  0
 24 22  2  0
 25 26  1  0
 26 27  2  0
 28 31  1  0
 28 27  1  0
 29 28  2  0
 30 29  1  0
 30 25  2  0
 31 32  1  0
 32 33  1  0
 33 34  2  0
 35 34  1  0
 35 39  1  0
 36 35  2  0
 37 32  2  0
 37 36  1  0
 38 37  1  0
 40 41  1  0
 41 44  1  0
 41 43  1  0
 42 40  2  0
 45 20  1  0
 45 46  1  0
 47 45  1  0
 48 49  1  0
 48  6  1  0
 50 61  2  0
 51 49  1  0
 51 56  1  0
 52 60  1  0
 52 62  1  0
 53 59  1  0
 53 55  1  0
 54 60  1  0
 55 54  1  0
 56 55  2  0
 57 58  1  0
 57 51  2  0
 58 53  2  0
 59 52  1  0
 60 50  1  0
 62 64  2  0
 63 62  1  0
 65 63  1  0
 66 75  2  0
 66 71  1  0
 67 63  1  0
 67 71  1  0
 68 67  1  0
 69 70  1  0
 69 68  1  0
 70 66  1  0
 71 72  2  0
 72 73  1  0
 74 73  2  0
 75 74  1  0
 76 50  1  0
 76 77  1  0
 76 86  1  0
 77 80  1  0
 78 82  1  0
 78 77  1  0
 79 78  2  0
 82 81  1  0
 84 82  1  0
 84 85  1  0
 84 83  1  0
 86 89  1  1
 86 87  1  0
 88 86  1  0
M  ISO  4   8 100  17 100  48 101  49 101
M  END
>  <TORSDO>  (71) 
F 17

>  <SCORE>  (71) 
-13.415

>  <name>  (71) 
70

>  <ligand_id>  (71) 
70

>  <original_smiles>  (71) 
[H]c1c([H])c([H])c2c(c1[H])C([H])([H])C([H])([H])C([H])([H])C2([H])N([H])C(=O)C1([H])N(C(=O)C([H])(N([H])C(=O)C([H])(N([H])C([H])([H])[H])C([H])([H])[H])C(C([H])([H])[H])(C([H])([H])[H])C([H])([H])[H])C([H])([H])c2c([H])c(OC([H])([H])c3c([H])c(C(=O)N([H])C(=O)N4C([H])([H])C([H])([H])C([H])([H])C([H])(n5nc(-c6c([H])c([H])c(Oc7c([H])c([H])c(F)c([H])c7F)c([H])c6[H])c(C(=O)N([H])[H])c5N([H])[H])C4([H])[H])c([H])c(C([H])([H])[H])c3[H])c([H])c([H])c2C1([H])[H]

>  <smiles>  (71) 
[H]c1c([H])c([H])c2c(c1[H])C([H])([H])C([H])([H])C([H])([H])C2([H])N([H])C(=O)C1([H])N(C(=O)C([H])(N([H])C(=O)C([H])(N([H])C([H])([H])[H])C([H])([H])[H])C(C([H])([H])[H])(C([H])([H])[H])C([H])([H])[H])C([H])([H])c2c([H])c(OC([H])([H])c3c([H])c(C(=O)N([H])C(=O)N4C([H])([H])C([H])([H])C([H])([H])C([H])(n5nc(-c6c([H])c([H])c(Oc7c([H])c([H])c(F)c([H])c7F)c([H])c6[H])c(C(=O)N([H])[H])c5N([H])[H])C4([H])[H])c([H])c(C([H])([H])[H])c3[H])c([H])c([H])c2C1([H])[H]

$$$$
71:0:0
     RDKit          3D

 90 98  0  0  1  0  0  0  0  0999 V2000
  -28.6910  -21.5250   19.1540 C   0  0  0  0  0  3  0  0  0  0  0  0
  -28.3400  -23.0170   19.1230 C   0  0  0  0  0  3  0  0  0  0  0  0
  -28.8280  -23.1650   21.2710 C   0  0  0  0  0  3  0  0  0  0  0  0
  -29.1770  -20.6220   20.2440 C   0  0  0  0  0  0  0  0  0  0  0  0
  -29.1890  -21.6690   21.3160 C   0  0  0  0  0  0  0  0  0  0  0  0
  -28.3520  -24.0700   20.1790 C   0  0  0  0  0  0  0  0  0  0  0  0
  -29.6550  -21.2230   22.5530 N   0  0  0  0  0  0  0  0  0  0  0  0
  -29.9400  -21.8930   23.2600 H   0  0  0  0  0  0  0  0  0  0  0  0
  -30.1270  -20.3280   22.6280 H   0  0  0  0  0  0  0  0  0  0  0  0
  -30.7540  -18.9940   18.8160 C   0  0  0  0  0  1  0  0  0  0  0  0
  -29.9580  -18.9130   20.1280 C   0  0  0  0  0  0  0  0  0  0  0  0
  -30.4400  -15.7960   20.2250 C   0  0  0  0  0  0  0  0  0  0  0  0
  -30.5410  -13.2580   19.4000 C   0  0  0  0  0  2  0  0  0  0  0  0
  -29.6490  -12.8630   18.1900 C   0  0  0  0  0  2  0  0  0  0  0  0
  -28.2290  -12.5020   18.6500 C   0  0  0  0  0  2  0  0  0  0  0  0
  -27.7200  -13.4920   19.7220 C   0  0  0  0  0  3  0  0  0  0  0  0
  -28.7520  -13.8050   20.8300 C   0  0  0  0  0  2  0  0  0  0  0  0
  -29.9180  -14.4310   20.1670 N   0  0  0  0  0  0  0  0  0  0  0  0
  -31.6690  -15.7320   20.0300 O   0  0  0  0  0  0  0  0  0  0  0  0
  -29.6920  -17.1650   20.3020 N   0  0  0  0  0  4  0  0  0  0  0  0
  -28.7100  -16.9850   20.4560 H   0  0  0  0  0  0  0  0  0  0  0  0
  -25.3620  -13.9930   20.5170 C   0  0  0  0  0  0  0  0  0  0  0  0
  -24.3120  -13.1990   20.8830 C   0  0  0  0  0  0  0  0  0  0  0  0
  -24.7960  -11.8560   20.8290 C   0  0  0  0  0  0  0  0  0  0  0  0
  -26.4110  -13.1360   20.2490 N   0  0  0  0  0  0  0  0  0  0  0  0
  -26.0860  -11.8420   20.5060 N   0  0  0  0  0  0  0  0  0  0  0  0
  -24.0810  -10.5830   21.0060 C   0  0  0  0  0  0  0  0  0  0  0  0
  -24.5010   -9.6230   21.9520 C   0  0  0  0  0  3  0  0  0  0  0  0
  -23.7800   -8.4200   22.1200 C   0  0  0  0  0  3  0  0  0  0  0  0
  -22.6270   -8.1690   21.3400 C   0  0  0  0  0  0  0  0  0  0  0  0
  -22.2260   -9.1170   20.3830 C   0  0  0  0  0  3  0  0  0  0  0  0
  -22.9470  -10.3110   20.2150 C   0  0  0  0  0  3  0  0  0  0  0  0
  -21.8810   -7.0170   21.4160 O   0  0  0  0  0  0  0  0  0  0  0  0
  -21.7720   -6.3050   22.5840 C   0  0  0  0  0  0  0  0  0  0  0  0
  -21.2380   -6.8780   23.7600 C   0  0  0  0  0  3  0  0  0  0  0  0
  -21.0800   -6.0910   24.9180 C   0  0  0  0  0  3  0  0  0  0  0  0
  -21.4440   -4.7310   24.9000 C   0  0  0  0  0  0  0  0  0  0  0  0
  -21.9700   -4.1580   23.7300 C   0  0  0  0  0  3  0  0  0  0  0  0
  -22.1300   -4.9420   22.5740 C   0  0  0  0  0  0  0  0  0  0  0  0
  -22.6170   -4.3780   21.4430 F   0  0  0  0  0  0  0  0  0  0  0  0
  -21.2850   -3.9730   26.0100 F   0  0  0  0  0  0  0  0  0  0  0  0
  -22.9130  -13.6590   21.1630 C   0  0  0  0  0  0  0  0  0  0  0  0
  -22.1970  -12.9530   22.0310 N   0  0  0  0  0  0  0  0  0  0  0  0
  -22.4630  -14.6820   20.6480 O   0  0  0  0  0  0  0  0  0  0  0  0
  -22.5750  -12.1280   22.4700 H   0  0  0  0  0  0  0  0  0  0  0  0
  -21.2570  -13.2450   22.2610 H   0  0  0  0  0  0  0  0  0  0  0  0
  -25.5050  -15.3690   20.3540 N   0  0  0  0  0  0  0  0  0  0  0  0
  -24.7270  -16.0090   20.4790 H   0  0  0  0  0  0  0  0  0  0  0  0
  -26.3350  -15.8200   19.9930 H   0  0  0  0  0  0  0  0  0  0  0  0
  -28.2700  -25.6910   20.1110 O   0  0  0  0  0  0  0  0  0  0  0  0
  -24.7280  -31.9050   23.1500 C   0  0  0  0  0  0  0  0  0  0  0  0
  -27.2420  -26.8530   20.1150 C   0  0  0  0  0  0  0  0  0  0  0  0
  -23.5210  -30.4970   21.5350 C   0  0  0  0  0  3  0  0  0  0  0  0
  -24.9540  -28.8590   20.0980 C   0  0  0  0  0  0  0  0  0  0  0  0
  -26.0940  -30.6620   21.3660 C   0  0  0  0  0  2  0  0  0  0  0  0
  -26.1550  -29.2290   20.7140 C   0  0  0  0  0  0  0  0  0  0  0  0
  -27.2800  -28.2520   20.6920 C   0  0  0  0  0  3  0  0  0  0  0  0
  -26.0050  -26.6920   19.4400 C   0  0  0  0  0  3  0  0  0  0  0  0
  -24.9160  -27.6170   19.4380 C   0  0  0  0  0  3  0  0  0  0  0  0
  -23.7400  -29.8010   20.1610 C   0  0  0  0  0  2  0  0  0  0  0  0
  -24.8050  -31.0560   22.0690 N   0  0  0  0  0  0  0  0  0  0  0  0
  -23.6420  -32.1960   23.6820 O   0  0  0  0  0  0  0  0  0  0  0  0
  -22.8320  -29.5140   22.5190 C   0  0  0  0  0  0  0  0  0  0  0  0
  -21.5030  -29.3320   22.4060 N   0  0  0  0  0  0  0  0  0  0  0  0
  -23.5060  -28.9120   23.3590 O   0  0  0  0  0  0  0  0  0  0  0  0
  -21.0070  -29.8690   21.7070 H   0  0  0  0  0  0  0  0  0  0  0  0
  -18.1460  -28.0490   22.9450 C   0  0  0  0  0  0  0  0  0  0  0  0
  -20.7000  -28.3860   23.1920 C   0  0  0  0  0  3  0  0  0  0  0  0
  -20.8340  -26.9490   22.6360 C   0  0  0  0  0  2  0  0  0  0  0  0
  -19.7380  -26.5860   21.6300 C   0  0  0  0  0  2  0  0  0  0  0  0
  -18.3550  -26.7000   22.2780 C   0  0  0  0  0  2  0  0  0  0  0  0
  -19.2450  -28.8470   23.3590 C   0  0  0  0  0  0  0  0  0  0  0  0
  -18.9920  -30.1050   23.9490 C   0  0  0  0  0  3  0  0  0  0  0  0
  -17.6740  -30.5660   24.1240 C   0  0  0  0  0  3  0  0  0  0  0  0
  -16.5900  -29.7670   23.7220 C   0  0  0  0  0  3  0  0  0  0  0  0
  -16.8270  -28.5100   23.1390 C   0  0  0  0  0  3  0  0  0  0  0  0
  -25.9970  -32.5660   23.7680 C   0  0  0  0  0  3  0  0  0  0  0  0
  -25.6620  -33.9580   24.1300 N   0  0  0  0  0  0  0  0  0  0  0  0
  -25.9500  -35.0390   23.3930 C   0  0  0  0  0  0  0  0  0  0  0  0
  -26.5820  -34.9730   22.3360 O   0  0  0  0  0  0  0  0  0  0  0  0
  -25.0920  -34.0810   24.9540 H   0  0  0  0  0  0  0  0  0  0  0  0
  -24.1800  -36.8200   23.1630 C   0  0  0  0  0  1  0  0  0  0  0  0
  -25.4620  -36.4120   23.9060 C   0  0  0  0  0  3  0  0  0  0  0  0
  -27.6160  -37.3210   24.6640 C   0  0  0  0  0  1  0  0  0  0  0  0
  -26.4700  -37.4880   23.7740 N   0  0  0  0  0  0  0  0  0  0  0  0
  -26.0540  -38.3960   23.9620 H   0  0  0  0  0  0  0  0  0  0  0  0
  -26.5370  -31.7990   25.0390 C   0  0  1  0  0  0  0  0  0  0  0  0
  -25.4610  -31.5480   26.1220 C   0  0  0  0  0  1  0  0  0  0  0  0
  -27.1320  -30.4280   24.6490 C   0  0  0  0  0  1  0  0  0  0  0  0
  -27.6880  -32.6050   25.6870 C   0  0  0  0  0  1  0  0  0  0  0  0
  1  4  1  0
  2  1  2  0
  2  6  1  0
  3  5  1  0
  4  5  2  0
  5  7  1  0
  6  3  2  0
  7  9  1  0
  7  8  1  0
 10 11  1  0
 11  4  1  0
 11 20  2  0
 12 20  1  0
 13 18  1  0
 14 15  1  0
 14 13  1  0
 16 15  1  0
 16 25  1  0
 16 17  1  0
 18 12  1  0
 18 17  1  0
 19 12  2  0
 20 21  1  0
 22 23  2  0
 23 42  1  0
 24 23  1  0
 24 27  1  0
 25 26  1  0
 25 22  1  0
 26 24  2  0
 27 28  1  0
 28 29  2  0
 30 33  1  0
 30 29  1  0
 31 30  2  0
 32 31  1  0
 32 27  2  0
 33 34  1  0
 34 35  1  0
 35 36  2  0
 37 36  1  0
 37 41  1  0
 38 37  2  0
 39 34  2  0
 39 38  1  0
 40 39  1  0
 42 43  1  0
 43 46  1  0
 43 45  1  0
 44 42  2  0
 47 48  1  0
 47 22  1  0
 49 47  1  0
 50 52  1  0
 50  6  1  0
 51 62  2  0
 52 57  1  0
 53 61  1  0
 53 63  1  0
 54 60  1  0
 54 56  1  0
 55 61  1  0
 56 55  1  0
 57 56  2  0
 58 52  2  0
 59 58  1  0
 59 54  2  0
 60 53  1  0
 61 51  1  0
 63 65  2  0
 64 63  1  0
 66 64  1  0
 67 76  2  0
 67 72  1  0
 68 64  1  0
 68 72  1  0
 69 68  1  0
 70 71  1  0
 70 69  1  0
 71 67  1  0
 72 73  2  0
 73 74  1  0
 75 74  2  0
 76 75  1  0
 77 51  1  0
 77 78  1  0
 77 87  1  0
 78 81  1  0
 79 83  1  0
 79 78  1  0
 80 79  2  0
 83 82  1  0
 85 83  1  0
 85 86  1  0
 85 84  1  0
 87 90  1  1
 87 88  1  0
 89 87  1  0
M  ISO  4   6 101  12 100  20 100  50 101
M  END
>  <TORSDO>  (72) 
F 18

>  <SCORE>  (72) 
-15.824

>  <name>  (72) 
71

>  <ligand_id>  (72) 
71

>  <original_smiles>  (72) 
[H]c1c([H])c([H])c2c(c1[H])C([H])([H])C([H])([H])C([H])([H])C2([H])N([H])C(=O)C1([H])N(C(=O)C([H])(N([H])C(=O)C([H])(N([H])C([H])([H])[H])C([H])([H])[H])C(C([H])([H])[H])(C([H])([H])[H])C([H])([H])[H])C([H])([H])c2c([H])c(Oc3c([H])c([H])c(C([H])(N([H])C(=O)N4C([H])([H])C([H])([H])C([H])([H])C([H])(n5nc(-c6c([H])c([H])c(Oc7c([H])c([H])c(F)c([H])c7F)c([H])c6[H])c(C(=O)N([H])[H])c5N([H])[H])C4([H])[H])C([H])([H])[H])c(N([H])[H])c3[H])c([H])c([H])c2C1([H])[H]

>  <smiles>  (72) 
[H]c1c([H])c([H])c2c(c1[H])C([H])([H])C([H])([H])C([H])([H])C2([H])N([H])C(=O)C1([H])N(C(=O)C([H])(N([H])C(=O)C([H])(N([H])C([H])([H])[H])C([H])([H])[H])C(C([H])([H])[H])(C([H])([H])[H])C([H])([H])[H])C([H])([H])c2c([H])c(Oc3c([H])c([H])c(C([H])(N([H])C(=O)N4C([H])([H])C([H])([H])C([H])([H])C([H])(n5nc(-c6c([H])c([H])c(Oc7c([H])c([H])c(F)c([H])c7F)c([H])c6[H])c(C(=O)N([H])[H])c5N([H])[H])C4([H])[H])C([H])([H])[H])c(N([H])[H])c3[H])c([H])c([H])c2C1([H])[H]

$$$$
72:0:0
     RDKit          3D

 93101  0  0  1  0  0  0  0  0999 V2000
  -28.4880  -22.8280   22.2620 C   0  0  0  0  0  3  0  0  0  0  0  0
  -28.1660  -24.0280   22.9210 C   0  0  0  0  0  3  0  0  0  0  0  0
  -28.7200  -24.0860   20.1960 C   0  0  0  0  0  3  0  0  0  0  0  0
  -28.7890  -22.8130   20.8850 C   0  0  0  0  0  0  0  0  0  0  0  0
  -28.1220  -25.2670   22.2430 C   0  0  0  0  0  0  0  0  0  0  0  0
  -28.3790  -25.3350   20.8460 C   0  0  0  0  0  0  0  0  0  0  0  0
  -27.8160  -26.5080   23.0660 C   0  0  0  0  0  1  0  0  0  0  0  0
  -28.3880  -26.5860   20.1760 O   0  0  0  0  0  0  0  0  0  0  0  0
  -24.6140  -31.9390   23.1920 C   0  0  0  0  0  0  0  0  0  0  0  0
  -27.2610  -27.4180   20.1470 C   0  0  0  0  0  0  0  0  0  0  0  0
  -23.4160  -30.5290   21.5530 C   0  0  0  0  0  3  0  0  0  0  0  0
  -24.8750  -28.9880   20.1250 C   0  0  0  0  0  0  0  0  0  0  0  0
  -25.9480  -30.8780   21.3570 C   0  0  0  0  0  2  0  0  0  0  0  0
  -26.0380  -29.5020   20.7130 C   0  0  0  0  0  0  0  0  0  0  0  0
  -27.2370  -28.7320   20.7040 C   0  0  0  0  0  3  0  0  0  0  0  0
  -26.0820  -26.9500   19.5330 C   0  0  0  0  0  3  0  0  0  0  0  0
  -24.8990  -27.7170   19.5200 C   0  0  0  0  0  3  0  0  0  0  0  0
  -23.6290  -29.8480   20.1740 C   0  0  0  0  0  2  0  0  0  0  0  0
  -24.6780  -31.1330   22.0900 N   0  0  0  0  0  0  0  0  0  0  0  0
  -23.5310  -32.2050   23.7320 O   0  0  0  0  0  0  0  0  0  0  0  0
  -22.7640  -29.5090   22.5160 C   0  0  0  0  0  0  0  0  0  0  0  0
  -21.4430  -29.3120   22.3830 N   0  0  0  0  0  0  0  0  0  0  0  0
  -23.4480  -28.8970   23.3420 O   0  0  0  0  0  0  0  0  0  0  0  0
  -20.9500  -29.8600   21.6920 H   0  0  0  0  0  0  0  0  0  0  0  0
  -18.0850  -28.0480   22.8460 C   0  0  0  0  0  0  0  0  0  0  0  0
  -20.6320  -28.3660   23.1520 C   0  0  0  0  0  3  0  0  0  0  0  0
  -20.7740  -26.9300   22.5970 C   0  0  0  0  0  2  0  0  0  0  0  0
  -19.6950  -26.5710   21.5690 C   0  0  0  0  0  2  0  0  0  0  0  0
  -18.3000  -26.6950   22.1900 C   0  0  0  0  0  2  0  0  0  0  0  0
  -19.1800  -28.8400   23.2820 C   0  0  0  0  0  0  0  0  0  0  0  0
  -18.9260  -30.1050   23.8540 C   0  0  0  0  0  3  0  0  0  0  0  0
  -17.6070  -30.5790   23.9960 C   0  0  0  0  0  3  0  0  0  0  0  0
  -16.5260  -29.7840   23.5760 C   0  0  0  0  0  3  0  0  0  0  0  0
  -16.7660  -28.5220   23.0050 C   0  0  0  0  0  3  0  0  0  0  0  0
  -25.8950  -32.5790   23.8120 C   0  0  0  0  0  3  0  0  0  0  0  0
  -25.5760  -33.9740   24.1490 N   0  0  0  0  0  0  0  0  0  0  0  0
  -25.9020  -35.0330   23.3960 C   0  0  0  0  0  0  0  0  0  0  0  0
  -26.5730  -34.9400   22.3640 O   0  0  0  0  0  0  0  0  0  0  0  0
  -24.9840  -34.1210   24.9540 H   0  0  0  0  0  0  0  0  0  0  0  0
  -24.1730  -36.8250   23.0380 C   0  0  0  0  0  1  0  0  0  0  0  0
  -25.4060  -36.4160   23.8600 C   0  0  0  0  0  3  0  0  0  0  0  0
  -27.5290  -37.3040   24.7180 C   0  0  0  0  0  1  0  0  0  0  0  0
  -26.4370  -37.4740   23.7630 N   0  0  0  0  0  0  0  0  0  0  0  0
  -26.0260  -38.3910   23.9110 H   0  0  0  0  0  0  0  0  0  0  0  0
  -26.4210  -31.8070   25.0840 C   0  0  1  0  0  0  0  0  0  0  0  0
  -25.3350  -31.5610   26.1570 C   0  0  0  0  0  1  0  0  0  0  0  0
  -27.0120  -30.4350   24.6870 C   0  0  0  0  0  1  0  0  0  0  0  0
  -27.5690  -32.6080   25.7430 C   0  0  0  0  0  1  0  0  0  0  0  0
  -29.0950  -21.4320   20.1720 C   0  0  0  0  0  2  0  0  0  0  0  0
  -31.0280  -20.4280   21.5950 C   0  0  0  0  0  1  0  0  0  0  0  0
  -29.6370  -20.1470   20.9910 C   0  0  0  0  0  3  0  0  0  0  0  0
  -29.6250  -18.8280   20.2160 N   0  0  0  0  0  4  0  0  0  0  0  0
  -28.6530  -18.6470   20.0140 H   0  0  0  0  0  0  0  0  0  0  0  0
  -30.0730  -18.9890   19.3280 H   0  0  0  0  0  0  0  0  0  0  0  0
  -30.2140  -17.5320   20.7980 C   0  0  0  0  0  2  0  0  0  0  0  0
  -29.4850  -16.3850   18.6260 C   0  0  0  0  0  1  0  0  0  0  0  0
  -29.7250  -16.1450   20.1360 C   0  0  0  0  0  3  0  0  0  0  0  0
  -30.6070  -14.8060   20.2360 C   0  0  0  0  0  0  0  0  0  0  0  0
  -30.4310  -12.5240   19.2610 C   0  0  0  0  0  2  0  0  0  0  0  0
  -29.4900  -12.5820   18.0350 C   0  0  0  0  0  2  0  0  0  0  0  0
  -28.0080  -12.4650   18.4520 C   0  0  0  0  0  2  0  0  0  0  0  0
  -27.6400  -13.3450   19.6760 C   0  0  0  0  0  3  0  0  0  0  0  0
  -28.7010  -13.2350   20.7930 C   0  0  0  0  0  2  0  0  0  0  0  0
  -30.0110  -13.5680   20.2200 N   0  0  0  0  0  0  0  0  0  0  0  0
  -31.8150  -14.9040   20.0010 O   0  0  0  0  0  0  0  0  0  0  0  0
  -25.2520  -13.9430   20.4060 C   0  0  0  0  0  0  0  0  0  0  0  0
  -24.1890  -13.1700   20.7870 C   0  0  0  0  0  0  0  0  0  0  0  0
  -24.6570  -11.8200   20.7730 C   0  0  0  0  0  0  0  0  0  0  0  0
  -26.2970  -13.0630   20.1750 N   0  0  0  0  0  0  0  0  0  0  0  0
  -25.9470  -11.7840   20.4630 N   0  0  0  0  0  0  0  0  0  0  0  0
  -23.9370  -10.5570   20.9750 C   0  0  0  0  0  0  0  0  0  0  0  0
  -24.3780   -9.6000   21.9160 C   0  0  0  0  0  3  0  0  0  0  0  0
  -23.6590   -8.4010   22.1080 C   0  0  0  0  0  3  0  0  0  0  0  0
  -22.4860   -8.1480   21.3570 C   0  0  0  0  0  0  0  0  0  0  0  0
  -22.0650   -9.0940   20.4050 C   0  0  0  0  0  3  0  0  0  0  0  0
  -22.7840  -10.2850   20.2110 C   0  0  0  0  0  3  0  0  0  0  0  0
  -21.7380   -6.9990   21.4560 O   0  0  0  0  0  0  0  0  0  0  0  0
  -21.6990   -6.2640   22.6140 C   0  0  0  0  0  0  0  0  0  0  0  0
  -21.2680   -6.8210   23.8370 C   0  0  0  0  0  3  0  0  0  0  0  0
  -21.1780   -6.0120   24.9870 C   0  0  0  0  0  3  0  0  0  0  0  0
  -21.5060   -4.6440   24.9140 C   0  0  0  0  0  0  0  0  0  0  0  0
  -21.9290   -4.0850   23.6950 C   0  0  0  0  0  3  0  0  0  0  0  0
  -22.0230   -4.8930   22.5480 C   0  0  0  0  0  0  0  0  0  0  0  0
  -22.4090   -4.3460   21.3710 F   0  0  0  0  0  0  0  0  0  0  0  0
  -21.4110   -3.8640   26.0150 F   0  0  0  0  0  0  0  0  0  0  0  0
  -22.7880  -13.6420   21.0500 C   0  0  0  0  0  0  0  0  0  0  0  0
  -22.0600  -12.9530   21.9220 N   0  0  0  0  0  0  0  0  0  0  0  0
  -22.3460  -14.6590   20.5160 O   0  0  0  0  0  0  0  0  0  0  0  0
  -22.4310  -12.1310   22.3750 H   0  0  0  0  0  0  0  0  0  0  0  0
  -21.1190  -13.2490   22.1360 H   0  0  0  0  0  0  0  0  0  0  0  0
  -25.4100  -15.3120   20.2140 N   0  0  0  0  0  0  0  0  0  0  0  0
  -24.6340  -15.9590   20.3110 H   0  0  0  0  0  0  0  0  0  0  0  0
  -26.2460  -15.7470   19.8480 H   0  0  0  0  0  0  0  0  0  0  0  0
  1  2  1  0
  3  6  2  0
  3  4  1  0
  4  1  2  0
  5  2  2  0
  5  7  1  0
  6  5  1  0
  8  6  1  0
  9 20  2  0
 10  8  1  0
 10 15  1  0
 11 19  1  0
 11 21  1  0
 12 18  1  0
 12 14  1  0
 13 19  1  0
 14 13  1  0
 15 14  2  0
 16 10  2  0
 17 16  1  0
 17 12  2  0
 18 11  1  0
 19  9  1  0
 21 23  2  0
 22 21  1  0
 24 22  1  0
 25 34  2  0
 25 30  1  0
 26 22  1  0
 26 30  1  0
 27 26  1  0
 28 29  1  0
 28 27  1  0
 29 25  1  0
 30 31  2  0
 31 32  1  0
 33 32  2  0
 34 33  1  0
 35  9  1  0
 35 36  1  0
 35 45  1  0
 36 39  1  0
 37 41  1  0
 37 36  1  0
 38 37  2  0
 41 40  1  0
 43 41  1  0
 43 44  1  0
 43 42  1  0
 45 48  1  1
 45 46  1  0
 47 45  1  0
 49  4  1  0
 49 51  1  0
 51 50  1  0
 52 55  1  0
 52 51  1  0
 53 52  1  0
 54 52  1  0
 57 56  1  0
 57 58  1  0
 57 55  1  0
 59 64  1  0
 60 61  1  0
 60 59  1  0
 62 61  1  0
 62 69  1  0
 62 63  1  0
 64 58  1  0
 64 63  1  0
 65 58  2  0
 66 67  2  0
 67 86  1  0
 68 67  1  0
 68 71  1  0
 69 66  1  0
 69 70  1  0
 70 68  2  0
 71 72  1  0
 72 73  2  0
 74 77  1  0
 74 73  1  0
 75 74  2  0
 76 75  1  0
 76 71  2  0
 77 78  1  0
 78 79  1  0
 79 80  2  0
 81 80  1  0
 81 85  1  0
 82 81  2  0
 83 78  2  0
 83 82  1  0
 84 83  1  0
 86 87  1  0
 87 90  1  0
 87 89  1  0
 88 86  2  0
 91 92  1  0
 91 66  1  0
 93 91  1  0
M  ISO  4   6 101   8 101  57 100  58 100
M  END
>  <TORSDO>  (73) 
F 21

>  <SCORE>  (73) 
-12.777

>  <name>  (73) 
72

>  <ligand_id>  (73) 
72

>  <original_smiles>  (73) 
[H]c1c([H])c([H])c2c(c1[H])C([H])([H])C([H])([H])C([H])([H])C2([H])N([H])C(=O)C1([H])N(C(=O)C([H])(N([H])C(=O)C([H])(N([H])C([H])([H])[H])C([H])([H])[H])C(C([H])([H])[H])(C([H])([H])[H])C([H])([H])[H])C([H])([H])c2c([H])c(Oc3c([H])c(C([H])([H])C([H])(C([H])([H])[H])[N+]([H])([H])C([H])([H])C([H])(C(=O)N4C([H])([H])C([H])([H])C([H])([H])C([H])(n5nc(-c6c([H])c([H])c(Oc7c([H])c([H])c(F)c([H])c7F)c([H])c6[H])c(C(=O)N([H])[H])c5N([H])[H])C4([H])[H])C([H])([H])[H])c([H])c([H])c3C([H])([H])[H])c([H])c([H])c2C1([H])[H]

>  <smiles>  (73) 
[H]c1c([H])c([H])c2c(c1[H])C([H])([H])C([H])([H])C([H])([H])C2([H])N([H])C(=O)C1([H])N(C(=O)C([H])(N([H])C(=O)C([H])(N([H])C([H])([H])[H])C([H])([H])[H])C(C([H])([H])[H])(C([H])([H])[H])C([H])([H])[H])C([H])([H])c2c([H])c(Oc3c([H])c(C([H])([H])C([H])(C([H])([H])[H])[N+]([H])([H])C([H])([H])C([H])(C(=O)N4C([H])([H])C([H])([H])C([H])([H])C([H])(n5nc(-c6c([H])c([H])c(Oc7c([H])c([H])c(F)c([H])c7F)c([H])c6[H])c(C(=O)N([H])[H])c5N([H])[H])C4([H])[H])C([H])([H])[H])c([H])c([H])c3C([H])([H])[H])c([H])c([H])c2C1([H])[H]

$$$$
73:0:0
     RDKit          3D

 93102  0  0  1  0  0  0  0  0999 V2000
  -29.7850  -21.8970   20.0940 C   0  0  0  0  0  0  0  0  0  0  0  0
  -29.0270  -22.9010   20.5890 N   0  0  0  0  0  0  0  0  0  0  0  0
  -30.9400  -22.0950   19.7100 O   0  0  0  0  0  0  0  0  0  0  0  0
  -28.1190  -22.6520   20.9560 H   0  0  0  0  0  0  0  0  0  0  0  0
  -27.1940  -19.0590   19.9580 C   0  0  0  0  0  3  0  0  0  0  0  0
  -27.7690  -20.3370   20.0910 C   0  0  0  0  0  3  0  0  0  0  0  0
  -28.0010  -17.9350   19.7160 C   0  0  0  0  0  3  0  0  0  0  0  0
  -29.9740  -19.3610   19.7390 C   0  0  0  0  0  3  0  0  0  0  0  0
  -29.1710  -20.5120   19.9950 C   0  0  0  0  0  0  0  0  0  0  0  0
  -29.3990  -18.0640   19.6100 C   0  0  0  0  0  0  0  0  0  0  0  0
  -30.2530  -16.8210   19.2770 C   0  0  0  0  0  2  0  0  0  0  0  0
  -31.5160  -16.4560   21.5070 C   0  0  0  0  0  2  0  0  0  0  0  0
  -30.1600  -15.9610   21.8920 C   0  0  0  0  0  2  0  0  0  0  0  0
  -30.6040  -15.8530   20.4340 C   0  0  1  0  0  0  0  0  0  0  0  0
  -31.1190  -14.5330   19.8960 C   0  0  0  0  0  0  0  0  0  0  0  0
  -30.6360  -12.3210   18.9240 C   0  0  0  0  0  2  0  0  0  0  0  0
  -29.6920  -12.4730   17.7140 C   0  0  0  0  0  2  0  0  0  0  0  0
  -28.2320  -12.3750   18.1870 C   0  0  0  0  0  2  0  0  0  0  0  0
  -27.9320  -13.3360   19.3690 C   0  0  0  0  0  3  0  0  0  0  0  0
  -29.0060  -13.2440   20.4730 C   0  0  0  0  0  2  0  0  0  0  0  0
  -30.3330  -13.4170   19.8640 N   0  0  0  0  0  0  0  0  0  0  0  0
  -32.2290  -14.5470   19.3640 O   0  0  0  0  0  0  0  0  0  0  0  0
  -25.5950  -14.0560   20.1650 C   0  0  0  0  0  0  0  0  0  0  0  0
  -24.5080  -13.3350   20.5740 C   0  0  0  0  0  0  0  0  0  0  0  0
  -24.9080  -11.9650   20.5500 C   0  0  0  0  0  0  0  0  0  0  0  0
  -26.5910  -13.1260   19.9040 N   0  0  0  0  0  0  0  0  0  0  0  0
  -26.1820  -11.8640   20.1920 N   0  0  0  0  0  0  0  0  0  0  0  0
  -24.1360  -10.7370   20.7820 C   0  0  0  0  0  0  0  0  0  0  0  0
  -24.5350   -9.7740   21.7340 C   0  0  0  0  0  3  0  0  0  0  0  0
  -23.7590   -8.6140   21.9460 C   0  0  0  0  0  3  0  0  0  0  0  0
  -22.5710   -8.4080   21.2030 C   0  0  0  0  0  0  0  0  0  0  0  0
  -22.1900   -9.3610   20.2410 C   0  0  0  0  0  3  0  0  0  0  0  0
  -22.9660  -10.5130   20.0280 C   0  0  0  0  0  3  0  0  0  0  0  0
  -21.7620   -7.3050   21.3280 O   0  0  0  0  0  0  0  0  0  0  0  0
  -21.6710   -6.6090   22.5060 C   0  0  0  0  0  0  0  0  0  0  0  0
  -21.2750   -7.2310   23.7110 C   0  0  0  0  0  3  0  0  0  0  0  0
  -21.1230   -6.4610   24.8820 C   0  0  0  0  0  3  0  0  0  0  0  0
  -21.3600   -5.0740   24.8510 C   0  0  0  0  0  0  0  0  0  0  0  0
  -21.7530   -4.4550   23.6530 C   0  0  0  0  0  3  0  0  0  0  0  0
  -21.9060   -5.2200   22.4820 C   0  0  0  0  0  0  0  0  0  0  0  0
  -22.2590   -4.6130   21.3270 F   0  0  0  0  0  0  0  0  0  0  0  0
  -21.2060   -4.3320   25.9730 F   0  0  0  0  0  0  0  0  0  0  0  0
  -23.1430  -13.8830   20.8910 C   0  0  0  0  0  0  0  0  0  0  0  0
  -22.4230  -13.2370   21.7990 N   0  0  0  0  0  0  0  0  0  0  0  0
  -22.7370  -14.9180   20.3710 O   0  0  0  0  0  0  0  0  0  0  0  0
  -22.7710  -12.3970   22.2300 H   0  0  0  0  0  0  0  0  0  0  0  0
  -21.5140  -13.5910   22.0620 H   0  0  0  0  0  0  0  0  0  0  0  0
  -25.8150  -15.4160   19.9720 N   0  0  0  0  0  0  0  0  0  0  0  0
  -26.6950  -15.8280   19.6930 H   0  0  0  0  0  0  0  0  0  0  0  0
  -25.0560  -16.0890   19.9930 H   0  0  0  0  0  0  0  0  0  0  0  0
  -29.3720  -24.3330   20.5220 C   0  0  0  0  0  2  0  0  0  0  0  0
  -28.1940  -25.2790   20.8790 C   0  0  0  0  0  2  0  0  0  0  0  0
  -28.3500  -26.5950   20.3050 O   0  0  0  0  0  0  0  0  0  0  0  0
  -24.5240  -31.8380   23.2530 C   0  0  0  0  0  0  0  0  0  0  0  0
  -27.1970  -27.3540   20.2650 C   0  0  0  0  0  0  0  0  0  0  0  0
  -23.3330  -30.4240   21.6090 C   0  0  0  0  0  3  0  0  0  0  0  0
  -24.8030  -28.8690   20.2140 C   0  0  0  0  0  0  0  0  0  0  0  0
  -25.8600  -30.7800   21.4270 C   0  0  0  0  0  2  0  0  0  0  0  0
  -25.9560  -29.3990   20.8100 C   0  0  0  0  0  0  0  0  0  0  0  0
  -27.1580  -28.6520   20.8280 C   0  0  0  0  0  3  0  0  0  0  0  0
  -26.0320  -26.8480   19.6450 C   0  0  0  0  0  3  0  0  0  0  0  0
  -24.8390  -27.5960   19.6210 C   0  0  0  0  0  3  0  0  0  0  0  0
  -23.5580  -29.7320   20.2370 C   0  0  0  0  0  2  0  0  0  0  0  0
  -24.5890  -31.0290   22.1560 N   0  0  0  0  0  0  0  0  0  0  0  0
  -23.4380  -32.1150   23.7830 O   0  0  0  0  0  0  0  0  0  0  0  0
  -22.6710  -29.4130   22.5710 C   0  0  0  0  0  0  0  0  0  0  0  0
  -21.3440  -29.2520   22.4450 N   0  0  0  0  0  0  0  0  0  0  0  0
  -23.3440  -28.7840   23.3900 O   0  0  0  0  0  0  0  0  0  0  0  0
  -20.8650  -29.8100   21.7510 H   0  0  0  0  0  0  0  0  0  0  0  0
  -17.9540  -28.1070   22.9440 C   0  0  0  0  0  0  0  0  0  0  0  0
  -20.5140  -28.3250   23.2150 C   0  0  0  0  0  3  0  0  0  0  0  0
  -20.5950  -26.8950   22.6320 C   0  0  0  0  0  2  0  0  0  0  0  0
  -19.4860  -26.5910   21.6200 C   0  0  0  0  0  2  0  0  0  0  0  0
  -18.1070  -26.7570   22.2640 C   0  0  0  0  0  2  0  0  0  0  0  0
  -19.0840  -28.8510   23.3760 C   0  0  0  0  0  0  0  0  0  0  0  0
  -18.8850  -30.1160   23.9700 C   0  0  0  0  0  3  0  0  0  0  0  0
  -17.5870  -30.6360   24.1390 C   0  0  0  0  0  3  0  0  0  0  0  0
  -16.4710  -29.8890   23.7210 C   0  0  0  0  0  3  0  0  0  0  0  0
  -16.6550  -28.6280   23.1290 C   0  0  0  0  0  3  0  0  0  0  0  0
  -25.8020  -32.4700   23.8840 C   0  0  0  0  0  3  0  0  0  0  0  0
  -25.4990  -33.8760   24.1870 N   0  0  0  0  0  0  0  0  0  0  0  0
  -25.8590  -34.9130   23.4190 C   0  0  0  0  0  0  0  0  0  0  0  0
  -26.5490  -34.7840   22.4020 O   0  0  0  0  0  0  0  0  0  0  0  0
  -24.8810  -34.0440   24.9660 H   0  0  0  0  0  0  0  0  0  0  0  0
  -24.1520  -36.7160   23.0060 C   0  0  0  0  0  1  0  0  0  0  0  0
  -25.3770  -36.3160   23.8430 C   0  0  0  0  0  3  0  0  0  0  0  0
  -27.5090  -37.1960   24.6850 C   0  0  0  0  0  1  0  0  0  0  0  0
  -26.4220  -37.3560   23.7220 N   0  0  0  0  0  0  0  0  0  0  0  0
  -26.0260  -38.2850   23.8360 H   0  0  0  0  0  0  0  0  0  0  0  0
  -26.2940  -31.7130   25.1790 C   0  0  1  0  0  0  0  0  0  0  0  0
  -25.1850  -31.4900   26.2340 C   0  0  0  0  0  1  0  0  0  0  0  0
  -26.8760  -30.3300   24.8070 C   0  0  0  0  0  1  0  0  0  0  0  0
  -27.4440  -32.5070   25.8430 C   0  0  0  0  0  1  0  0  0  0  0  0
  1  2  1  0
  2  4  1  0
  3  1  2  0
  5  6  1  0
  7  5  2  0
  8  9  1  0
  9  6  2  0
  9  1  1  0
 10  7  1  0
 10  8  2  0
 11 10  1  0
 14 11  1  6
 12 13  1  0
 14 12  1  0
 14 13  1  0
 15 14  1  0
 16 21  1  0
 17 18  1  0
 17 16  1  0
 19 18  1  0
 19 26  1  0
 19 20  1  0
 21 15  1  0
 21 20  1  0
 22 15  2  0
 23 24  2  0
 24 43  1  0
 25 24  1  0
 25 28  1  0
 26 23  1  0
 26 27  1  0
 27 25  2  0
 28 29  1  0
 29 30  2  0
 31 34  1  0
 31 30  1  0
 32 31  2  0
 33 32  1  0
 33 28  2  0
 34 35  1  0
 35 36  1  0
 36 37  2  0
 38 37  1  0
 38 42  1  0
 39 38  2  0
 40 35  2  0
 40 39  1  0
 41 40  1  0
 43 44  1  0
 44 47  1  0
 44 46  1  0
 45 43  2  0
 48 50  1  0
 48 23  1  0
 49 48  1  0
 51  2  1  0
 51 52  1  0
 53 52  1  0
 54 65  2  0
 55 53  1  0
 55 60  1  0
 56 64  1  0
 56 66  1  0
 57 63  1  0
 57 59  1  0
 58 64  1  0
 59 60  2  0
 59 58  1  0
 61 55  2  0
 62 61  1  0
 62 57  2  0
 63 56  1  0
 64 54  1  0
 66 68  2  0
 67 66  1  0
 69 67  1  0
 70 79  2  0
 70 75  1  0
 71 67  1  0
 71 75  1  0
 72 71  1  0
 73 74  1  0
 73 72  1  0
 74 70  1  0
 75 76  2  0
 76 77  1  0
 78 77  2  0
 79 78  1  0
 80 54  1  0
 80 81  1  0
 80 90  1  0
 81 84  1  0
 82 86  1  0
 82 81  1  0
 83 82  2  0
 86 85  1  0
 88 89  1  0
 88 86  1  0
 88 87  1  0
 90 93  1  1
 90 91  1  0
 92 90  1  0
M  ISO  4  14 100  15 100  52 101  53 101
M  END
>  <TORSDO>  (74) 
F 21

>  <SCORE>  (74) 
-12.892

>  <name>  (74) 
73

>  <ligand_id>  (74) 
73

>  <original_smiles>  (74) 
[H]c1c([H])c([H])c2c(c1[H])C([H])([H])C([H])([H])C([H])([H])C2([H])N([H])C(=O)C1([H])N(C(=O)C([H])(N([H])C(=O)C([H])(N([H])C([H])([H])[H])C([H])([H])[H])C(C([H])([H])[H])(C([H])([H])[H])C([H])([H])[H])C([H])([H])c2c([H])c(OC([H])([H])C([H])([H])N([H])C(=O)c3c([H])c([H])c([H])c(C([H])([H])C4(C(=O)N5C([H])([H])C([H])([H])C([H])([H])C([H])(n6nc(-c7c([H])c([H])c(Oc8c([H])c([H])c(F)c([H])c8F)c([H])c7[H])c(C(=O)N([H])[H])c6N([H])[H])C5([H])[H])C([H])([H])C4([H])[H])c3[H])c([H])c([H])c2C1([H])[H]

>  <smiles>  (74) 
[H]c1c([H])c([H])c2c(c1[H])C([H])([H])C([H])([H])C([H])([H])C2([H])N([H])C(=O)C1([H])N(C(=O)C([H])(N([H])C(=O)C([H])(N([H])C([H])([H])[H])C([H])([H])[H])C(C([H])([H])[H])(C([H])([H])[H])C([H])([H])[H])C([H])([H])c2c([H])c(OC([H])([H])C([H])([H])N([H])C(=O)c3c([H])c([H])c([H])c(C([H])([H])C4(C(=O)N5C([H])([H])C([H])([H])C([H])([H])C([H])(n6nc(-c7c([H])c([H])c(Oc8c([H])c([H])c(F)c([H])c8F)c([H])c7[H])c(C(=O)N([H])[H])c6N([H])[H])C5([H])[H])C([H])([H])C4([H])[H])c3[H])c([H])c([H])c2C1([H])[H]

$$$$
74:0:0
     RDKit          3D

 99109  0  0  1  0  0  0  0  0999 V2000
  -27.1240  -21.0010   19.1920 C   0  0  0  0  0  3  0  0  0  0  0  0
  -26.5260  -22.1280   18.6220 C   0  0  0  0  0  3  0  0  0  0  0  0
  -28.8220  -22.4420   20.1390 C   0  0  0  0  0  3  0  0  0  0  0  0
  -28.3590  -21.0660   19.8590 C   0  0  0  0  0  0  0  0  0  0  0  0
  -27.0810  -23.4230   18.7300 C   0  0  0  0  0  0  0  0  0  0  0  0
  -28.1530  -23.6790   19.6490 C   0  0  0  0  0  0  0  0  0  0  0  0
  -28.2590  -18.4090   20.7450 C   0  0  0  0  0  2  0  0  0  0  0  0
  -28.9650  -16.9720   20.9640 C   0  0  0  0  0  2  0  0  0  0  0  0
  -29.6610  -16.6810   18.4510 C   0  0  0  0  0  2  0  0  0  0  0  0
  -30.8840  -17.5550   18.2000 C   0  0  0  0  0  2  0  0  0  0  0  0
  -30.5410  -19.2900   20.1600 C   0  0  0  0  0  2  0  0  0  0  0  0
  -29.0280  -19.5810   20.0000 C   0  0  0  0  0  3  0  0  0  0  0  0
  -30.0580  -16.5270   19.9360 C   0  0  1  0  0  0  0  0  0  0  0  0
  -31.0230  -17.8210   19.7110 C   0  0  1  0  0  0  0  0  0  0  0  0
  -32.4650  -17.7730   20.2460 C   0  0  0  0  0  1  0  0  0  0  0  0
  -30.7420  -15.0040   20.0730 C   0  0  0  0  0  0  0  0  0  0  0  0
  -30.5110  -12.6810   19.1460 C   0  0  0  0  0  2  0  0  0  0  0  0
  -29.5450  -12.6730   17.9400 C   0  0  0  0  0  2  0  0  0  0  0  0
  -28.0860  -12.5150   18.4110 C   0  0  0  0  0  2  0  0  0  0  0  0
  -27.7340  -13.4210   19.6220 C   0  0  0  0  0  3  0  0  0  0  0  0
  -28.8280  -13.4020   20.7040 C   0  0  0  0  0  2  0  0  0  0  0  0
  -30.0910  -13.7770   20.0610 N   0  0  0  0  0  0  0  0  0  0  0  0
  -31.9570  -14.9390   19.8820 O   0  0  0  0  0  0  0  0  0  0  0  0
  -25.3850  -13.9820   20.4680 C   0  0  0  0  0  0  0  0  0  0  0  0
  -24.3330  -13.1980   20.8570 C   0  0  0  0  0  0  0  0  0  0  0  0
  -24.7950  -11.8490   20.7800 C   0  0  0  0  0  0  0  0  0  0  0  0
  -26.4170  -13.1100   20.1690 N   0  0  0  0  0  0  0  0  0  0  0  0
  -26.0750  -11.8200   20.4260 N   0  0  0  0  0  0  0  0  0  0  0  0
  -24.0740  -10.5810   20.9650 C   0  0  0  0  0  0  0  0  0  0  0  0
  -24.4940   -9.6240   21.9130 C   0  0  0  0  0  3  0  0  0  0  0  0
  -23.7740   -8.4230   22.0870 C   0  0  0  0  0  3  0  0  0  0  0  0
  -22.6170   -8.1710   21.3110 C   0  0  0  0  0  0  0  0  0  0  0  0
  -22.2160   -9.1170   20.3500 C   0  0  0  0  0  3  0  0  0  0  0  0
  -22.9380  -10.3090   20.1770 C   0  0  0  0  0  3  0  0  0  0  0  0
  -21.8690   -7.0210   21.3920 O   0  0  0  0  0  0  0  0  0  0  0  0
  -21.7420   -6.3250   22.5680 C   0  0  0  0  0  0  0  0  0  0  0  0
  -21.2000   -6.9170   23.7290 C   0  0  0  0  0  3  0  0  0  0  0  0
  -21.0240   -6.1460   24.8950 C   0  0  0  0  0  3  0  0  0  0  0  0
  -21.3800   -4.7840   24.9000 C   0  0  0  0  0  0  0  0  0  0  0  0
  -21.9160   -4.1920   23.7430 C   0  0  0  0  0  3  0  0  0  0  0  0
  -22.0930   -4.9610   22.5790 C   0  0  0  0  0  0  0  0  0  0  0  0
  -22.5890   -4.3790   21.4600 F   0  0  0  0  0  0  0  0  0  0  0  0
  -21.2040   -4.0410   26.0190 F   0  0  0  0  0  0  0  0  0  0  0  0
  -22.9460  -13.6680   21.1850 C   0  0  0  0  0  0  0  0  0  0  0  0
  -22.2500  -12.9540   22.0610 N   0  0  0  0  0  0  0  0  0  0  0  0
  -22.4920  -14.7020   20.6980 O   0  0  0  0  0  0  0  0  0  0  0  0
  -22.6330  -12.1170   22.4760 H   0  0  0  0  0  0  0  0  0  0  0  0
  -21.3200  -13.2490   22.3220 H   0  0  0  0  0  0  0  0  0  0  0  0
  -25.5420  -15.3570   20.3150 N   0  0  0  0  0  0  0  0  0  0  0  0
  -24.7810  -16.0070   20.4630 H   0  0  0  0  0  0  0  0  0  0  0  0
  -26.3780  -15.7980   19.9530 H   0  0  0  0  0  0  0  0  0  0  0  0
  -27.4230  -24.1560   16.3380 C   0  0  0  0  0  1  0  0  0  0  0  0
  -26.6360  -24.4150   17.6360 C   0  0  0  0  0  3  0  0  0  0  0  0
  -25.1800  -24.3630   17.3910 N   0  0  0  0  0  4  0  0  0  0  0  0
  -24.9230  -23.5010   16.9450 H   0  0  0  0  0  0  0  0  0  0  0  0
  -24.8940  -25.1170   16.7920 H   0  0  0  0  0  0  0  0  0  0  0  0
  -24.6690  -24.4290   18.2530 H   0  0  0  0  0  0  0  0  0  0  0  0
  -28.7620  -25.1940   19.7490 C   0  0  0  0  0  2  0  0  0  0  0  0
  -28.3120  -26.4120   20.5650 O   0  0  0  0  0  0  0  0  0  0  0  0
  -24.5300  -32.0180   23.2820 C   0  0  0  0  0  0  0  0  0  0  0  0
  -27.2200  -27.3140   20.3990 C   0  0  0  0  0  0  0  0  0  0  0  0
  -23.3690  -30.5620   21.6680 C   0  0  0  0  0  3  0  0  0  0  0  0
  -24.8540  -28.9760   20.3070 C   0  0  0  0  0  0  0  0  0  0  0  0
  -25.9170  -30.8770   21.5170 C   0  0  0  0  0  2  0  0  0  0  0  0
  -26.0190  -29.4760   20.9000 C   0  0  0  0  0  0  0  0  0  0  0  0
  -27.2020  -28.6580   20.9300 C   0  0  0  0  0  3  0  0  0  0  0  0
  -26.0100  -26.8760   19.8430 C   0  0  0  0  0  3  0  0  0  0  0  0
  -24.8550  -27.6820   19.7670 C   0  0  0  0  0  3  0  0  0  0  0  0
  -23.6130  -29.8510   20.3120 C   0  0  0  0  0  2  0  0  0  0  0  0
  -24.6250  -31.1740   22.2110 N   0  0  0  0  0  0  0  0  0  0  0  0
  -23.4340  -32.3020   23.7880 O   0  0  0  0  0  0  0  0  0  0  0  0
  -22.6950  -29.5700   22.6480 C   0  0  0  0  0  0  0  0  0  0  0  0
  -21.3790  -29.3490   22.4840 N   0  0  0  0  0  0  0  0  0  0  0  0
  -23.3570  -29.0010   23.5210 O   0  0  0  0  0  0  0  0  0  0  0  0
  -20.9010  -29.8620   21.7560 H   0  0  0  0  0  0  0  0  0  0  0  0
  -18.0260  -28.0490   22.9030 C   0  0  0  0  0  0  0  0  0  0  0  0
  -20.5590  -28.4200   23.2660 C   0  0  0  0  0  3  0  0  0  0  0  0
  -20.7370  -26.9670   22.7690 C   0  0  0  0  0  2  0  0  0  0  0  0
  -19.6940  -26.5530   21.7260 C   0  0  0  0  0  2  0  0  0  0  0  0
  -18.2810  -26.6770   22.3040 C   0  0  0  0  0  2  0  0  0  0  0  0
  -19.0970  -28.8740   23.3400 C   0  0  0  0  0  0  0  0  0  0  0  0
  -18.8060  -30.1540   23.8600 C   0  0  0  0  0  3  0  0  0  0  0  0
  -17.4780  -30.6100   23.9500 C   0  0  0  0  0  3  0  0  0  0  0  0
  -16.4210  -29.7850   23.5290 C   0  0  0  0  0  3  0  0  0  0  0  0
  -16.6960  -28.5060   23.0100 C   0  0  0  0  0  3  0  0  0  0  0  0
  -25.7910  -32.6870   23.9090 C   0  0  0  0  0  3  0  0  0  0  0  0
  -26.2990  -31.9550   25.2120 C   0  0  1  0  0  0  0  0  0  0  0  0
  -25.1880  -31.7030   26.2570 C   0  0  0  0  0  1  0  0  0  0  0  0
  -26.9340  -30.5900   24.8630 C   0  0  0  0  0  1  0  0  0  0  0  0
  -27.4080  -32.7960   25.8880 C   0  0  0  0  0  1  0  0  0  0  0  0
  -25.4540  -34.0880   24.2050 N   0  0  0  0  0  0  0  0  0  0  0  0
  -25.7810  -35.1320   23.4320 C   0  0  0  0  0  0  0  0  0  0  0  0
  -26.4650  -35.0200   22.4120 O   0  0  0  0  0  0  0  0  0  0  0  0
  -24.8450  -34.2490   24.9930 H   0  0  0  0  0  0  0  0  0  0  0  0
  -24.0350  -36.8990   23.0210 C   0  0  0  0  0  1  0  0  0  0  0  0
  -25.2680  -36.5230   23.8580 C   0  0  0  0  0  3  0  0  0  0  0  0
  -27.3750  -37.4550   24.7090 C   0  0  0  0  0  1  0  0  0  0  0  0
  -26.2880  -37.5880   23.7420 N   0  0  0  0  0  0  0  0  0  0  0  0
  -25.8670  -38.5050   23.8630 H   0  0  0  0  0  0  0  0  0  0  0  0
  1  4  1  0
  2  5  1  0
  2  1  2  0
  4  3  2  0
  5  6  2  0
  6 58  1  0
  6  3  1  0
  7  8  1  0
  9 13  1  0
 10  9  1  0
 10 14  1  0
 12  4  1  0
 12 11  1  0
 12  7  1  0
 13 16  1  1
 13  8  1  0
 14 13  1  0
 14 11  1  0
 14 15  1  1
 17 22  1  0
 18 19  1  0
 18 17  1  0
 20 19  1  0
 20 27  1  0
 20 21  1  0
 22 16  1  0
 22 21  1  0
 23 16  2  0
 24 25  2  0
 25 44  1  0
 26 25  1  0
 26 29  1  0
 27 28  1  0
 27 24  1  0
 28 26  2  0
 29 30  1  0
 30 31  2  0
 32 35  1  0
 32 31  1  0
 33 32  2  0
 34 33  1  0
 34 29  2  0
 35 36  1  0
 36 41  2  0
 36 37  1  0
 37 38  2  0
 38 39  1  0
 39 43  1  0
 40 39  2  0
 41 40  1  0
 42 41  1  0
 44 45  1  0
 45 48  1  0
 45 47  1  0
 46 44  2  0
 49 50  1  0
 49 24  1  0
 51 49  1  0
 53 52  1  0
 53  5  1  0
 54 53  1  0
 54 57  1  0
 55 54  1  0
 56 54  1  0
 58 59  1  0
 60 71  2  0
 61 59  1  0
 61 66  1  0
 62 70  1  0
 62 72  1  0
 63 69  1  0
 63 65  1  0
 64 70  1  0
 65 66  2  0
 65 64  1  0
 67 61  2  0
 68 67  1  0
 68 63  2  0
 69 62  1  0
 70 60  1  0
 72 74  2  0
 73 72  1  0
 75 73  1  0
 76 85  2  0
 76 81  1  0
 77 73  1  0
 77 81  1  0
 78 77  1  0
 79 80  1  0
 79 78  1  0
 80 76  1  0
 81 82  2  0
 82 83  1  0
 84 83  2  0
 85 84  1  0
 86 60  1  0
 86 91  1  0
 86 87  1  0
 87 90  1  1
 87 88  1  0
 89 87  1  0
 91 94  1  0
 92 96  1  0
 92 91  1  0
 93 92  2  0
 96 95  1  0
 98 96  1  0
 98 99  1  0
 98 97  1  0
M  ISO  4  13 100  16 100  58 101  59 101
M  END
>  <TORSDO>  (75) 
F 20

>  <SCORE>  (75) 
-13.278

>  <name>  (75) 
74

>  <ligand_id>  (75) 
74

>  <original_smiles>  (75) 
[H]c1c([H])c([H])c2c(c1[H])C([H])([H])C([H])([H])C([H])([H])C2([H])N([H])C(=O)C1([H])N(C(=O)C([H])(N([H])C(=O)C([H])(N([H])C([H])([H])[H])C([H])([H])[H])C(C([H])([H])[H])(C([H])([H])[H])C([H])([H])[H])C([H])([H])c2c([H])c(OC([H])([H])c3c([H])c(C4([H])C([H])([H])C([H])([H])C5(C(=O)N6C([H])([H])C([H])([H])C([H])([H])C([H])(n7nc(-c8c([H])c([H])c(Oc9c([H])c([H])c(F)c([H])c9F)c([H])c8[H])c(C(=O)N([H])[H])c7N([H])[H])C6([H])[H])C([H])([H])C([H])([H])C5(C([H])([H])[H])C4([H])[H])c([H])c([H])c3C([H])(C([H])([H])[H])[N+]([H])([H])[H])c([H])c([H])c2C1([H])[H]

>  <smiles>  (75) 
[H]c1c([H])c([H])c2c(c1[H])C([H])([H])C([H])([H])C([H])([H])C2([H])N([H])C(=O)C1([H])N(C(=O)C([H])(N([H])C(=O)C([H])(N([H])C([H])([H])[H])C([H])([H])[H])C(C([H])([H])[H])(C([H])([H])[H])C([H])([H])[H])C([H])([H])c2c([H])c(OC([H])([H])c3c([H])c(C4([H])C([H])([H])C([H])([H])C5(C(=O)N6C([H])([H])C([H])([H])C([H])([H])C([H])(n7nc(-c8c([H])c([H])c(Oc9c([H])c([H])c(F)c([H])c9F)c([H])c8[H])c(C(=O)N([H])[H])c7N([H])[H])C6([H])[H])C([H])([H])C([H])([H])C5(C([H])([H])[H])C4([H])[H])c([H])c([H])c3C([H])(C([H])([H])[H])[N+]([H])([H])[H])c([H])c([H])c2C1([H])[H]

$$$$
75:0:0
     RDKit          3D

 93102  0  0  1  0  0  0  0  0999 V2000
  -30.3260  -21.0880   22.2880 C   0  0  0  0  0  3  0  0  0  0  0  0
  -29.1600  -20.8220   19.9020 C   0  0  0  0  0  3  0  0  0  0  0  0
  -30.2870  -19.7710   21.7270 C   0  0  0  0  0  0  0  0  0  0  0  0
  -29.7590  -19.4300   20.4630 C   0  0  0  0  0  0  0  0  0  0  0  0
  -29.7990  -22.2980   21.7210 C   0  0  0  0  0  0  0  0  0  0  0  0
  -29.1430  -22.3510   20.4470 C   0  0  0  0  0  0  0  0  0  0  0  0
  -29.9150  -17.3820   21.8830 C   0  0  0  0  0  0  0  0  0  0  0  0
  -30.6390  -18.5610   22.5650 C   0  0  0  0  0  2  0  0  0  0  0  0
  -29.6770  -17.5430   20.3560 C   0  0  2  0  0  0  0  0  0  0  0  0
  -29.8960  -23.5180   22.6400 C   0  0  0  0  0  1  0  0  0  0  0  0
  -29.3950  -16.4660   22.5400 O   0  0  0  0  0  0  0  0  0  0  0  0
  -30.5470  -15.9310   19.7950 C   0  0  0  0  0  0  0  0  0  0  0  0
  -30.6940  -13.3800   18.8610 C   0  0  0  0  0  2  0  0  0  0  0  0
  -29.7190  -12.9790   17.7030 C   0  0  0  0  0  2  0  0  0  0  0  0
  -28.3450  -12.5550   18.2470 C   0  0  0  0  0  2  0  0  0  0  0  0
  -27.9130  -13.5110   19.3750 C   0  0  0  0  0  3  0  0  0  0  0  0
  -29.0130  -13.8040   20.4250 C   0  0  0  0  0  2  0  0  0  0  0  0
  -30.1190  -14.5140   19.7380 N   0  0  0  0  0  0  0  0  0  0  0  0
  -31.7130  -15.9330   19.3450 O   0  0  0  0  0  0  0  0  0  0  0  0
  -25.6570  -13.9880   20.4300 C   0  0  0  0  0  0  0  0  0  0  0  0
  -24.6420  -13.1860   20.8590 C   0  0  0  0  0  0  0  0  0  0  0  0
  -25.0850  -11.8420   20.6460 C   0  0  0  0  0  0  0  0  0  0  0  0
  -26.6500  -13.1380   19.9800 N   0  0  0  0  0  0  0  0  0  0  0  0
  -26.3260  -11.8340   20.1680 N   0  0  0  0  0  0  0  0  0  0  0  0
  -24.3660  -10.5750   20.8190 C   0  0  0  0  0  0  0  0  0  0  0  0
  -24.7840   -9.6040   21.7580 C   0  0  0  0  0  3  0  0  0  0  0  0
  -24.0600   -8.4040   21.9200 C   0  0  0  0  0  3  0  0  0  0  0  0
  -22.8980   -8.1690   21.1460 C   0  0  0  0  0  0  0  0  0  0  0  0
  -22.4990   -9.1240   20.1970 C   0  0  0  0  0  3  0  0  0  0  0  0
  -23.2220  -10.3190   20.0360 C   0  0  0  0  0  3  0  0  0  0  0  0
  -22.1430   -7.0220   21.2150 O   0  0  0  0  0  0  0  0  0  0  0  0
  -21.8930   -6.4050   22.4080 C   0  0  0  0  0  0  0  0  0  0  0  0
  -21.2600   -7.0760   23.4790 C   0  0  0  0  0  3  0  0  0  0  0  0
  -20.9660   -6.3850   24.6700 C   0  0  0  0  0  3  0  0  0  0  0  0
  -21.2830   -5.0180   24.7910 C   0  0  0  0  0  0  0  0  0  0  0  0
  -21.9080   -4.3470   23.7220 C   0  0  0  0  0  3  0  0  0  0  0  0
  -22.2110   -5.0360   22.5380 C   0  0  0  0  0  0  0  0  0  0  0  0
  -22.7970   -4.3810   21.5070 F   0  0  0  0  0  0  0  0  0  0  0  0
  -20.9920   -4.3520   25.9310 F   0  0  0  0  0  0  0  0  0  0  0  0
  -23.2940  -13.6520   21.3250 C   0  0  0  0  0  0  0  0  0  0  0  0
  -22.6720  -12.9190   22.2350 N   0  0  0  0  0  0  0  0  0  0  0  0
  -22.8130  -14.7100   20.9110 O   0  0  0  0  0  0  0  0  0  0  0  0
  -23.0800  -12.0670   22.5920 H   0  0  0  0  0  0  0  0  0  0  0  0
  -21.7760  -13.2100   22.5990 H   0  0  0  0  0  0  0  0  0  0  0  0
  -25.8080  -15.3750   20.3590 N   0  0  0  0  0  0  0  0  0  0  0  0
  -24.9730  -15.7780   20.7790 H   0  0  0  0  0  0  0  0  0  0  0  0
  -25.8200  -15.6620   19.3890 H   0  0  0  0  0  0  0  0  0  0  0  0
  -28.2450  -17.2500   20.3000 N   0  0  0  0  0  4  0  0  0  0  0  0
  -27.7260  -18.0990   20.4240 H   0  0  0  0  0  0  0  0  0  0  0  0
  -28.0600  -16.6450   21.0930 H   0  0  0  0  0  0  0  0  0  0  0  0
  -27.9910  -16.8080   19.4420 H   0  0  0  0  0  0  0  0  0  0  0  0
  -28.3860  -23.9830   19.9150 C   0  0  0  0  0  2  0  0  0  0  0  0
  -28.4540  -25.6950   20.3270 O   0  0  0  0  0  0  0  0  0  0  0  0
  -24.8200  -31.8020   23.2970 C   0  0  0  0  0  0  0  0  0  0  0  0
  -27.4800  -26.8980   20.1980 C   0  0  0  0  0  0  0  0  0  0  0  0
  -23.6780  -30.4370   21.5990 C   0  0  0  0  0  3  0  0  0  0  0  0
  -25.1720  -28.8860   20.1300 C   0  0  0  0  0  0  0  0  0  0  0  0
  -26.2450  -30.6600   21.4920 C   0  0  0  0  0  2  0  0  0  0  0  0
  -26.3490  -29.2500   20.7970 C   0  0  0  0  0  0  0  0  0  0  0  0
  -27.4830  -28.2890   20.7990 C   0  0  0  0  0  3  0  0  0  0  0  0
  -26.2800  -26.7480   19.4570 C   0  0  0  0  0  3  0  0  0  0  0  0
  -25.1820  -27.6640   19.4270 C   0  0  0  0  0  3  0  0  0  0  0  0
  -23.9360  -29.7920   20.2050 C   0  0  0  0  0  2  0  0  0  0  0  0
  -24.9360  -30.9990   22.1830 N   0  0  0  0  0  0  0  0  0  0  0  0
  -23.7190  -32.0530   23.8210 O   0  0  0  0  0  0  0  0  0  0  0  0
  -22.9800  -29.4090   22.5280 C   0  0  0  0  0  0  0  0  0  0  0  0
  -21.6630  -29.1890   22.3550 N   0  0  0  0  0  0  0  0  0  0  0  0
  -23.6360  -28.8100   23.3840 O   0  0  0  0  0  0  0  0  0  0  0  0
  -21.1700  -29.7240   21.6520 H   0  0  0  0  0  0  0  0  0  0  0  0
  -18.3520  -27.7340   22.6670 C   0  0  0  0  0  0  0  0  0  0  0  0
  -20.8640  -28.1930   23.0820 C   0  0  0  0  0  3  0  0  0  0  0  0
  -21.1080  -26.7720   22.5180 C   0  0  0  0  0  2  0  0  0  0  0  0
  -20.1000  -26.3730   21.4350 C   0  0  0  0  0  2  0  0  0  0  0  0
  -18.6740  -26.4080   21.9990 C   0  0  0  0  0  2  0  0  0  0  0  0
  -19.3780  -28.5780   23.1620 C   0  0  0  0  0  0  0  0  0  0  0  0
  -19.0250  -29.8170   23.7420 C   0  0  0  0  0  3  0  0  0  0  0  0
  -17.6770  -30.2050   23.8410 C   0  0  0  0  0  3  0  0  0  0  0  0
  -16.6650  -29.3570   23.3630 C   0  0  0  0  0  3  0  0  0  0  0  0
  -17.0030  -28.1230   22.7800 C   0  0  0  0  0  3  0  0  0  0  0  0
  -26.0650  -32.4550   23.9700 C   0  0  0  0  0  3  0  0  0  0  0  0
  -26.5060  -31.7220   25.2950 C   0  0  1  0  0  0  0  0  0  0  0  0
  -25.3500  -31.5140   26.3030 C   0  0  0  0  0  1  0  0  0  0  0  0
  -27.0970  -30.3320   24.9780 C   0  0  0  0  0  1  0  0  0  0  0  0
  -27.6240  -32.5310   25.9970 C   0  0  0  0  0  1  0  0  0  0  0  0
  -25.7430  -33.8640   24.2650 N   0  0  0  0  0  0  0  0  0  0  0  0
  -26.0860  -34.9130   23.4990 C   0  0  0  0  0  0  0  0  0  0  0  0
  -26.7650  -34.7970   22.4780 O   0  0  0  0  0  0  0  0  0  0  0  0
  -25.1240  -34.0270   25.0450 H   0  0  0  0  0  0  0  0  0  0  0  0
  -24.3530  -36.7120   23.1470 C   0  0  0  0  0  1  0  0  0  0  0  0
  -25.6050  -36.3110   23.9420 C   0  0  0  0  0  3  0  0  0  0  0  0
  -27.7450  -37.2270   24.7410 C   0  0  0  0  0  1  0  0  0  0  0  0
  -26.6370  -37.3640   23.7970 N   0  0  0  0  0  0  0  0  0  0  0  0
  -26.2250  -38.2850   23.9250 H   0  0  0  0  0  0  0  0  0  0  0  0
  2  6  2  0
  2  4  1  0
  3  1  1  0
  3  8  1  0
  4  3  2  0
  5  1  2  0
  5 10  1  0
  6  5  1  0
  7 11  2  0
  7  8  1  0
  9 12  1  0
  9  4  1  0
  9  7  1  0
 13 18  1  0
 14 15  1  0
 14 13  1  0
 16 15  1  0
 16 23  1  0
 16 17  1  0
 18 12  1  0
 18 17  1  0
 19 12  2  0
 20 21  2  0
 21 40  1  0
 22 25  1  0
 22 21  1  0
 23 24  1  0
 23 20  1  0
 24 22  2  0
 25 26  1  0
 26 27  2  0
 28 31  1  0
 28 27  1  0
 29 28  2  0
 30 29  1  0
 30 25  2  0
 31 32  1  0
 32 37  2  0
 32 33  1  0
 33 34  2  0
 34 35  1  0
 35 39  1  0
 36 35  2  0
 37 36  1  0
 38 37  1  0
 40 41  1  0
 41 43  1  0
 41 44  1  0
 42 40  2  0
 45 20  1  0
 45 46  1  0
 47 45  1  0
  9 48  1  1
 48 49  1  0
 48 50  1  0
 51 48  1  0
 52 53  1  0
 52  6  1  0
 54 65  2  0
 55 53  1  0
 55 60  1  0
 56 64  1  0
 56 66  1  0
 57 63  1  0
 57 59  1  0
 58 64  1  0
 59 60  2  0
 59 58  1  0
 61 55  2  0
 62 61  1  0
 62 57  2  0
 63 56  1  0
 64 54  1  0
 66 68  2  0
 67 66  1  0
 69 67  1  0
 70 79  2  0
 70 75  1  0
 71 67  1  0
 71 75  1  0
 72 71  1  0
 73 74  1  0
 73 72  1  0
 74 70  1  0
 75 76  2  0
 76 77  1  0
 78 77  2  0
 79 78  1  0
 80 54  1  0
 80 85  1  0
 80 81  1  0
 81 84  1  1
 81 82  1  0
 83 81  1  0
 85 88  1  0
 86 90  1  0
 86 85  1  0
 87 86  2  0
 90 89  1  0
 92 93  1  0
 92 90  1  0
 92 91  1  0
M  ISO  4   9 100  12 100  52 101  53 101
M  END
>  <TORSDO>  (76) 
F 18

>  <SCORE>  (76) 
-14.170

>  <name>  (76) 
75

>  <ligand_id>  (76) 
75

>  <original_smiles>  (76) 
[H]c1c([H])c([H])c2c(c1[H])C([H])([H])C([H])([H])C([H])([H])C2([H])N([H])C(=O)C1([H])N(C(=O)C([H])(N([H])C(=O)C([H])(N([H])C([H])([H])[H])C([H])([H])[H])C(C([H])([H])[H])(C([H])([H])[H])C([H])([H])[H])C([H])([H])c2c([H])c(OC([H])([H])c3c([H])c4c(c([H])c3C([H])([H])[H])C([H])([H])C(=O)C4(C(=O)N3C([H])([H])C([H])([H])C([H])([H])C([H])(n4nc(-c5c([H])c([H])c(Oc6c([H])c([H])c(F)c([H])c6F)c([H])c5[H])c(C(=O)N([H])[H])c4N([H])[H])C3([H])[H])[N+]([H])([H])[H])c([H])c([H])c2C1([H])[H]

>  <smiles>  (76) 
[H]c1c([H])c([H])c2c(c1[H])C([H])([H])C([H])([H])C([H])([H])C2([H])N([H])C(=O)C1([H])N(C(=O)C([H])(N([H])C(=O)C([H])(N([H])C([H])([H])[H])C([H])([H])[H])C(C([H])([H])[H])(C([H])([H])[H])C([H])([H])[H])C([H])([H])c2c([H])c(OC([H])([H])c3c([H])c4c(c([H])c3C([H])([H])[H])C([H])([H])C(=O)C4(C(=O)N3C([H])([H])C([H])([H])C([H])([H])C([H])(n4nc(-c5c([H])c([H])c(Oc6c([H])c([H])c(F)c([H])c6F)c([H])c5[H])c(C(=O)N([H])[H])c4N([H])[H])C3([H])[H])[N+]([H])([H])[H])c([H])c([H])c2C1([H])[H]

$$$$
76:0:0
     RDKit          3D

 91 99  0  0  1  0  0  0  0  0999 V2000
  -29.0170  -22.3510   20.5730 C   0  0  0  0  0  2  0  0  0  0  0  0
  -28.0470  -19.9690   20.7010 C   0  0  0  0  0  3  0  0  0  0  0  0
  -30.3620  -20.2050   20.0260 C   0  0  0  0  0  3  0  0  0  0  0  0
  -28.1630  -18.5630   20.5910 C   0  0  0  0  0  3  0  0  0  0  0  0
  -30.4760  -18.7950   19.9120 C   0  0  0  0  0  3  0  0  0  0  0  0
  -29.1420  -20.8160   20.4120 C   0  0  0  0  0  0  0  0  0  0  0  0
  -29.3750  -17.9510   20.1940 C   0  0  0  0  0  0  0  0  0  0  0  0
  -29.4270  -16.4180   19.9790 C   0  0  0  0  0  2  0  0  0  0  0  0
  -31.0360  -14.5290   19.9670 C   0  0  0  0  0  0  0  0  0  0  0  0
  -30.6220  -12.3030   18.9600 C   0  0  0  0  0  2  0  0  0  0  0  0
  -29.6520  -12.4240   17.7690 C   0  0  0  0  0  2  0  0  0  0  0  0
  -28.1900  -12.3410   18.2500 C   0  0  0  0  0  2  0  0  0  0  0  0
  -27.9040  -13.2840   19.4480 C   0  0  0  0  0  3  0  0  0  0  0  0
  -28.9880  -13.1470   20.5420 C   0  0  0  0  0  2  0  0  0  0  0  0
  -30.2960  -13.3790   19.9130 N   0  0  0  0  0  0  0  0  0  0  0  0
  -32.1610  -14.6020   19.4650 O   0  0  0  0  0  0  0  0  0  0  0  0
  -31.3110  -16.2920   21.6170 C   0  0  0  0  0  1  0  0  0  0  0  0
  -30.5000  -15.6050   20.6090 N   0  0  0  0  0  0  0  0  0  0  0  0
  -25.5750  -14.0260   20.2470 C   0  0  0  0  0  0  0  0  0  0  0  0
  -24.4820  -13.3150   20.6610 C   0  0  0  0  0  0  0  0  0  0  0  0
  -24.8690  -11.9400   20.6220 C   0  0  0  0  0  0  0  0  0  0  0  0
  -26.5610  -13.0870   19.9820 N   0  0  0  0  0  0  0  0  0  0  0  0
  -26.1420  -11.8290   20.2680 N   0  0  0  0  0  0  0  0  0  0  0  0
  -24.0820  -10.7200   20.8440 C   0  0  0  0  0  0  0  0  0  0  0  0
  -24.4860   -9.7410   21.7800 C   0  0  0  0  0  3  0  0  0  0  0  0
  -23.7040   -8.5860   21.9880 C   0  0  0  0  0  3  0  0  0  0  0  0
  -22.5030   -8.4010   21.2620 C   0  0  0  0  0  0  0  0  0  0  0  0
  -22.1180   -9.3670   20.3160 C   0  0  0  0  0  3  0  0  0  0  0  0
  -22.9000  -10.5150   20.1050 C   0  0  0  0  0  3  0  0  0  0  0  0
  -21.6930   -7.2980   21.3810 O   0  0  0  0  0  0  0  0  0  0  0  0
  -21.6190   -6.5820   22.5490 C   0  0  0  0  0  0  0  0  0  0  0  0
  -21.2370   -7.1830   23.7680 C   0  0  0  0  0  3  0  0  0  0  0  0
  -21.1070   -6.3970   24.9310 C   0  0  0  0  0  3  0  0  0  0  0  0
  -21.3470   -5.0120   24.8740 C   0  0  0  0  0  0  0  0  0  0  0  0
  -21.7220   -4.4100   23.6590 C   0  0  0  0  0  3  0  0  0  0  0  0
  -21.8550   -5.1940   22.4990 C   0  0  0  0  0  0  0  0  0  0  0  0
  -22.1960   -4.6070   21.3270 F   0  0  0  0  0  0  0  0  0  0  0  0
  -21.2140   -4.2540   25.9880 F   0  0  0  0  0  0  0  0  0  0  0  0
  -23.1230  -13.8690   20.9800 C   0  0  0  0  0  0  0  0  0  0  0  0
  -22.3950  -13.2240   21.8830 N   0  0  0  0  0  0  0  0  0  0  0  0
  -22.7190  -14.9090   20.4610 O   0  0  0  0  0  0  0  0  0  0  0  0
  -22.7360  -12.3830   22.3250 H   0  0  0  0  0  0  0  0  0  0  0  0
  -21.4840  -13.5780   22.1400 H   0  0  0  0  0  0  0  0  0  0  0  0
  -25.8010  -15.3850   20.0480 N   0  0  0  0  0  0  0  0  0  0  0  0
  -25.0620  -16.0690   20.1640 H   0  0  0  0  0  0  0  0  0  0  0  0
  -26.6340  -15.7730   19.6260 H   0  0  0  0  0  0  0  0  0  0  0  0
  -28.5160  -23.1840   19.3640 C   0  0  0  0  0  0  0  0  0  0  0  0
  -28.3080  -22.3930   18.0870 C   0  0  0  0  0  1  0  0  0  0  0  0
  -28.2750  -24.4510   19.3370 N   0  0  0  0  0  0  0  0  0  0  0  0
  -28.3960  -25.3040   20.5180 C   0  0  0  0  0  2  0  0  0  0  0  0
  -28.4650  -26.7140   20.1930 O   0  0  0  0  0  0  0  0  0  0  0  0
  -24.6210  -31.9060   23.2490 C   0  0  0  0  0  0  0  0  0  0  0  0
  -27.2900  -27.4450   20.1970 C   0  0  0  0  0  0  0  0  0  0  0  0
  -23.4250  -30.4920   21.6110 C   0  0  0  0  0  3  0  0  0  0  0  0
  -24.8880  -28.9540   20.1930 C   0  0  0  0  0  0  0  0  0  0  0  0
  -25.9500  -30.8600   21.4130 C   0  0  0  0  0  2  0  0  0  0  0  0
  -26.0460  -29.4860   20.7760 C   0  0  0  0  0  0  0  0  0  0  0  0
  -27.2500  -28.7420   20.7650 C   0  0  0  0  0  3  0  0  0  0  0  0
  -26.1120  -26.9300   19.6110 C   0  0  0  0  0  3  0  0  0  0  0  0
  -24.9190  -27.6780   19.6040 C   0  0  0  0  0  3  0  0  0  0  0  0
  -23.6400  -29.8080   20.2330 C   0  0  0  0  0  2  0  0  0  0  0  0
  -24.6840  -31.1010   22.1490 N   0  0  0  0  0  0  0  0  0  0  0  0
  -23.5370  -32.1730   23.7880 O   0  0  0  0  0  0  0  0  0  0  0  0
  -22.7780  -29.4710   22.5740 C   0  0  0  0  0  0  0  0  0  0  0  0
  -21.4550  -29.2780   22.4440 N   0  0  0  0  0  0  0  0  0  0  0  0
  -23.4630  -28.8550   23.3940 O   0  0  0  0  0  0  0  0  0  0  0  0
  -20.9630  -29.8280   21.7540 H   0  0  0  0  0  0  0  0  0  0  0  0
  -18.0900  -28.0530   22.9300 C   0  0  0  0  0  0  0  0  0  0  0  0
  -20.6430  -28.3360   23.2150 C   0  0  0  0  0  3  0  0  0  0  0  0
  -20.7620  -26.9030   22.6470 C   0  0  0  0  0  2  0  0  0  0  0  0
  -19.6690  -26.5650   21.6280 C   0  0  0  0  0  2  0  0  0  0  0  0
  -18.2830  -26.7010   22.2640 C   0  0  0  0  0  2  0  0  0  0  0  0
  -19.1990  -28.8280   23.3630 C   0  0  0  0  0  0  0  0  0  0  0  0
  -18.9660  -30.0920   23.9460 C   0  0  0  0  0  3  0  0  0  0  0  0
  -17.6560  -30.5840   24.0990 C   0  0  0  0  0  3  0  0  0  0  0  0
  -16.5610  -29.8060   23.6840 C   0  0  0  0  0  3  0  0  0  0  0  0
  -16.7780  -28.5430   23.1060 C   0  0  0  0  0  3  0  0  0  0  0  0
  -25.9030  -32.5460   23.8680 C   0  0  0  0  0  3  0  0  0  0  0  0
  -26.4210  -31.7870   25.1510 C   0  0  1  0  0  0  0  0  0  0  0  0
  -25.3270  -31.5490   26.2170 C   0  0  0  0  0  1  0  0  0  0  0  0
  -27.0140  -30.4110   24.7670 C   0  0  0  0  0  1  0  0  0  0  0  0
  -27.5660  -32.5930   25.8110 C   0  0  0  0  0  1  0  0  0  0  0  0
  -25.5870  -33.9450   24.1860 N   0  0  0  0  0  0  0  0  0  0  0  0
  -25.9190  -34.9940   23.4210 C   0  0  0  0  0  0  0  0  0  0  0  0
  -26.5940  -34.8850   22.3920 O   0  0  0  0  0  0  0  0  0  0  0  0
  -24.9900  -34.1040   24.9840 H   0  0  0  0  0  0  0  0  0  0  0  0
  -24.1860  -36.7770   23.0430 C   0  0  0  0  0  1  0  0  0  0  0  0
  -25.4240  -36.3830   23.8660 C   0  0  0  0  0  3  0  0  0  0  0  0
  -27.5510  -37.2810   24.7020 C   0  0  0  0  0  1  0  0  0  0  0  0
  -26.4540  -37.4390   23.7520 N   0  0  0  0  0  0  0  0  0  0  0  0
  -26.0430  -38.3590   23.8910 H   0  0  0  0  0  0  0  0  0  0  0  0
  3  6  1  0
  4  2  1  0
  5  3  2  0
  5  7  1  0
  6  1  1  0
  6  2  2  0
  7  4  2  0
  8  7  1  0
  8 18  1  0
  9 18  1  0
 10 15  1  0
 11 12  1  0
 11 10  1  0
 13 12  1  0
 13 22  1  0
 13 14  1  0
 15  9  1  0
 15 14  1  0
 16  9  2  0
 18 17  1  0
 19 20  2  0
 20 39  1  0
 21 20  1  0
 21 24  1  0
 22 19  1  0
 22 23  1  0
 23 21  2  0
 24 25  1  0
 25 26  2  0
 27 30  1  0
 27 26  1  0
 28 27  2  0
 29 28  1  0
 29 24  2  0
 30 31  1  0
 31 32  1  0
 32 33  2  0
 34 33  1  0
 34 38  1  0
 35 34  2  0
 36 31  2  0
 36 35  1  0
 37 36  1  0
 39 40  1  0
 40 43  1  0
 40 42  1  0
 41 39  2  0
 44 45  1  0
 44 19  1  0
 46 44  1  0
 47  1  1  0
 48 47  1  0
 49 47  2  0
 49 50  1  0
 51 53  1  0
 51 50  1  0
 52 63  2  0
 53 58  1  0
 54 62  1  0
 54 64  1  0
 55 61  1  0
 55 57  1  0
 56 62  1  0
 57 56  1  0
 58 57  2  0
 59 53  2  0
 60 59  1  0
 60 55  2  0
 61 54  1  0
 62 52  1  0
 64 66  2  0
 65 64  1  0
 67 65  1  0
 68 77  2  0
 68 73  1  0
 69 65  1  0
 69 73  1  0
 70 69  1  0
 71 72  1  0
 71 70  1  0
 72 68  1  0
 73 74  2  0
 74 75  1  0
 76 75  2  0
 77 76  1  0
 78 52  1  0
 78 83  1  0
 78 79  1  0
 79 82  1  1
 79 80  1  0
 81 79  1  0
 83 86  1  0
 84 88  1  0
 84 83  1  0
 85 84  2  0
 88 87  1  0
 90 88  1  0
 90 91  1  0
 90 89  1  0
M  ISO  4   9 100  18 100  50 101  51 101
M  END
>  <TORSDO>  (77) 
F 20

>  <SCORE>  (77) 
-13.518

>  <name>  (77) 
76

>  <ligand_id>  (77) 
76

>  <original_smiles>  (77) 
[H]c1c([H])c([H])c2c(c1[H])C([H])([H])C([H])([H])C([H])([H])C2([H])N([H])C(=O)C1([H])N(C(=O)C([H])(N([H])C(=O)C([H])(N([H])C([H])([H])[H])C([H])([H])[H])C(C([H])([H])[H])(C([H])([H])[H])C([H])([H])[H])C([H])([H])c2c([H])c(OC([H])([H])N=C(C([H])([H])[H])C([H])([H])c3c([H])c([H])c(C([H])([H])N(C(=O)N4C([H])([H])C([H])([H])C([H])([H])C([H])(n5nc(-c6c([H])c([H])c(Oc7c([H])c([H])c(F)c([H])c7F)c([H])c6[H])c(C(=O)N([H])[H])c5N([H])[H])C4([H])[H])C([H])([H])[H])c([H])c3[H])c([H])c([H])c2C1([H])[H]

>  <smiles>  (77) 
[H]c1c([H])c([H])c2c(c1[H])C([H])([H])C([H])([H])C([H])([H])C2([H])N([H])C(=O)C1([H])N(C(=O)C([H])(N([H])C(=O)C([H])(N([H])C([H])([H])[H])C([H])([H])[H])C(C([H])([H])[H])(C([H])([H])[H])C([H])([H])[H])C([H])([H])c2c([H])c(OC([H])([H])N=C(C([H])([H])[H])C([H])([H])c3c([H])c([H])c(C([H])([H])N(C(=O)N4C([H])([H])C([H])([H])C([H])([H])C([H])(n5nc(-c6c([H])c([H])c(Oc7c([H])c([H])c(F)c([H])c7F)c([H])c6[H])c(C(=O)N([H])[H])c5N([H])[H])C4([H])[H])C([H])([H])[H])c([H])c3[H])c([H])c([H])c2C1([H])[H]

$$$$
77:0:0
     RDKit          3D

 92100  0  0  1  0  0  0  0  0999 V2000
  -28.4240  -22.9980   19.0620 C   0  0  0  0  0  3  0  0  0  0  0  0
  -28.5960  -22.3030   20.2850 C   0  0  0  0  0  0  0  0  0  0  0  0
  -28.3820  -24.4160   18.9830 C   0  0  0  0  0  0  0  0  0  0  0  0
  -28.7630  -23.1050   21.4540 C   0  0  0  0  0  0  0  0  0  0  0  0
  -28.7170  -24.5410   21.3780 C   0  0  0  0  0  0  0  0  0  0  0  0
  -28.4890  -25.2220   20.1470 C   0  0  0  0  0  0  0  0  0  0  0  0
  -28.2160  -25.0530   17.6150 C   0  0  0  0  0  1  0  0  0  0  0  0
  -28.9890  -22.4390   22.8080 C   0  0  0  0  0  1  0  0  0  0  0  0
  -28.9180  -25.3730   22.6390 C   0  0  0  0  0  1  0  0  0  0  0  0
  -28.4930  -26.6280   20.0670 O   0  0  0  0  0  0  0  0  0  0  0  0
  -24.6830  -31.8550   23.2280 C   0  0  0  0  0  0  0  0  0  0  0  0
  -27.3270  -27.3930   20.1000 C   0  0  0  0  0  0  0  0  0  0  0  0
  -23.4870  -30.4860   21.5530 C   0  0  0  0  0  3  0  0  0  0  0  0
  -24.9460  -28.9590   20.1140 C   0  0  0  0  0  0  0  0  0  0  0  0
  -26.0220  -30.8200   21.3880 C   0  0  0  0  0  2  0  0  0  0  0  0
  -26.1060  -29.4540   20.7230 C   0  0  0  0  0  0  0  0  0  0  0  0
  -27.2990  -28.6800   20.7090 C   0  0  0  0  0  3  0  0  0  0  0  0
  -26.1430  -26.9300   19.4870 C   0  0  0  0  0  3  0  0  0  0  0  0
  -24.9630  -27.7000   19.4920 C   0  0  0  0  0  3  0  0  0  0  0  0
  -23.7080  -29.8300   20.1640 C   0  0  0  0  0  2  0  0  0  0  0  0
  -24.7490  -31.0690   22.1140 N   0  0  0  0  0  0  0  0  0  0  0  0
  -23.5970  -32.1220   23.7640 O   0  0  0  0  0  0  0  0  0  0  0  0
  -22.8210  -29.4520   22.4910 C   0  0  0  0  0  0  0  0  0  0  0  0
  -21.4960  -29.2810   22.3540 N   0  0  0  0  0  0  0  0  0  0  0  0
  -23.4960  -28.8090   23.2990 O   0  0  0  0  0  0  0  0  0  0  0  0
  -21.0110  -29.8510   21.6740 H   0  0  0  0  0  0  0  0  0  0  0  0
  -18.1110  -28.0980   22.8250 C   0  0  0  0  0  0  0  0  0  0  0  0
  -20.6720  -28.3310   23.1030 C   0  0  0  0  0  3  0  0  0  0  0  0
  -20.7640  -26.9130   22.4930 C   0  0  0  0  0  2  0  0  0  0  0  0
  -19.6600  -26.6230   21.4720 C   0  0  0  0  0  2  0  0  0  0  0  0
  -18.2790  -26.7630   22.1170 C   0  0  0  0  0  2  0  0  0  0  0  0
  -19.2360  -28.8400   23.2740 C   0  0  0  0  0  0  0  0  0  0  0  0
  -19.0270  -30.0920   23.8950 C   0  0  0  0  0  3  0  0  0  0  0  0
  -17.7260  -30.5980   24.0720 C   0  0  0  0  0  3  0  0  0  0  0  0
  -16.6160  -29.8530   23.6410 C   0  0  0  0  0  3  0  0  0  0  0  0
  -16.8100  -28.6030   23.0230 C   0  0  0  0  0  3  0  0  0  0  0  0
  -25.9640  -32.4730   23.8690 C   0  0  0  0  0  3  0  0  0  0  0  0
  -26.4820  -31.6690   25.1250 C   0  0  1  0  0  0  0  0  0  0  0  0
  -25.3890  -31.4020   26.1860 C   0  0  0  0  0  1  0  0  0  0  0  0
  -27.0670  -30.3030   24.6980 C   0  0  0  0  0  1  0  0  0  0  0  0
  -27.6310  -32.4470   25.8080 C   0  0  0  0  0  1  0  0  0  0  0  0
  -25.6500  -33.8610   24.2370 N   0  0  0  0  0  0  0  0  0  0  0  0
  -25.9380  -34.9310   23.4850 C   0  0  0  0  0  0  0  0  0  0  0  0
  -26.5660  -34.8550   22.4250 O   0  0  0  0  0  0  0  0  0  0  0  0
  -25.0870  -33.9930   25.0640 H   0  0  0  0  0  0  0  0  0  0  0  0
  -24.1540  -36.6900   23.2580 C   0  0  0  0  0  1  0  0  0  0  0  0
  -25.4520  -36.3040   23.9870 C   0  0  0  0  0  3  0  0  0  0  0  0
  -27.6120  -37.2320   24.6970 C   0  0  0  0  0  1  0  0  0  0  0  0
  -26.4540  -37.3800   23.8200 N   0  0  0  0  0  0  0  0  0  0  0  0
  -26.0380  -38.2920   23.9930 H   0  0  0  0  0  0  0  0  0  0  0  0
  -28.4200  -20.7440   20.3020 C   0  0  0  0  0  2  0  0  0  0  0  0
  -29.6540  -19.7680   20.4430 C   0  0  0  0  0  2  0  0  0  0  0  0
  -29.2800  -18.2240   20.5060 C   0  0  0  0  0  3  0  0  0  0  0  0
  -30.4520  -17.1670   20.5960 C   0  0  0  0  0  3  0  0  0  0  0  0
  -30.7990  -14.6380   20.3550 C   0  0  0  0  0  0  0  0  0  0  0  0
  -30.5600  -12.3970   19.3230 C   0  0  0  0  0  2  0  0  0  0  0  0
  -29.6200  -12.5080   18.1040 C   0  0  0  0  0  2  0  0  0  0  0  0
  -28.1460  -12.3610   18.5330 C   0  0  0  0  0  2  0  0  0  0  0  0
  -27.7870  -13.2490   19.7540 C   0  0  0  0  0  3  0  0  0  0  0  0
  -28.8430  -13.1220   20.8750 C   0  0  0  0  0  2  0  0  0  0  0  0
  -30.1540  -13.4340   20.2890 N   0  0  0  0  0  0  0  0  0  0  0  0
  -31.9640  -14.7700   19.9690 O   0  0  0  0  0  0  0  0  0  0  0  0
  -30.0410  -15.7260   20.6660 N   0  0  0  0  0  0  0  0  0  0  0  0
  -29.0880  -15.5360   20.9410 H   0  0  0  0  0  0  0  0  0  0  0  0
  -25.3990  -13.8560   20.4830 C   0  0  0  0  0  0  0  0  0  0  0  0
  -24.3290  -13.0870   20.8500 C   0  0  0  0  0  0  0  0  0  0  0  0
  -24.7830  -11.7330   20.8090 C   0  0  0  0  0  0  0  0  0  0  0  0
  -26.4390  -12.9720   20.2420 N   0  0  0  0  0  0  0  0  0  0  0  0
  -26.0730  -11.6890   20.4970 N   0  0  0  0  0  0  0  0  0  0  0  0
  -24.0500  -10.4740   20.9910 C   0  0  0  0  0  0  0  0  0  0  0  0
  -24.4600   -9.5120   21.9410 C   0  0  0  0  0  3  0  0  0  0  0  0
  -23.7270   -8.3170   22.1100 C   0  0  0  0  0  3  0  0  0  0  0  0
  -22.5720   -8.0740   21.3300 C   0  0  0  0  0  0  0  0  0  0  0  0
  -22.1830   -9.0250   20.3690 C   0  0  0  0  0  3  0  0  0  0  0  0
  -22.9160  -10.2110   20.1970 C   0  0  0  0  0  3  0  0  0  0  0  0
  -21.8120   -6.9330   21.4100 O   0  0  0  0  0  0  0  0  0  0  0  0
  -21.6990   -6.2240   22.5790 C   0  0  0  0  0  0  0  0  0  0  0  0
  -21.1740   -6.8050   23.7540 C   0  0  0  0  0  3  0  0  0  0  0  0
  -21.0080   -6.0210   24.9140 C   0  0  0  0  0  3  0  0  0  0  0  0
  -21.3580   -4.6580   24.8990 C   0  0  0  0  0  0  0  0  0  0  0  0
  -21.8750   -4.0760   23.7280 C   0  0  0  0  0  3  0  0  0  0  0  0
  -22.0430   -4.8570   22.5710 C   0  0  0  0  0  0  0  0  0  0  0  0
  -22.5210   -4.2860   21.4400 F   0  0  0  0  0  0  0  0  0  0  0  0
  -21.1920   -3.9040   26.0110 F   0  0  0  0  0  0  0  0  0  0  0  0
  -22.9340  -13.5690   21.1290 C   0  0  0  0  0  0  0  0  0  0  0  0
  -22.2090  -12.8760   21.9980 N   0  0  0  0  0  0  0  0  0  0  0  0
  -22.4980  -14.5960   20.6110 O   0  0  0  0  0  0  0  0  0  0  0  0
  -22.5750  -12.0450   22.4410 H   0  0  0  0  0  0  0  0  0  0  0  0
  -21.2730  -13.1800   22.2290 H   0  0  0  0  0  0  0  0  0  0  0  0
  -25.5710  -15.2280   20.3120 N   0  0  0  0  0  0  0  0  0  0  0  0
  -24.8090  -15.8880   20.4240 H   0  0  0  0  0  0  0  0  0  0  0  0
  -26.4170  -15.6600   19.9640 H   0  0  0  0  0  0  0  0  0  0  0  0
  1  2  1  0
  2 51  1  0
  2  4  2  0
  3  1  2  0
  3  6  1  0
  4  8  1  0
  5  4  1  0
  5  9  1  0
  6  5  2  0
  7  3  1  0
 10 12  1  0
 10  6  1  0
 11 22  2  0
 12 17  1  0
 13 21  1  0
 13 23  1  0
 14 20  1  0
 14 16  1  0
 15 21  1  0
 16 15  1  0
 17 16  2  0
 18 19  1  0
 18 12  2  0
 19 14  2  0
 20 13  1  0
 21 11  1  0
 23 25  2  0
 24 23  1  0
 26 24  1  0
 27 36  2  0
 27 32  1  0
 28 24  1  0
 28 32  1  0
 29 28  1  0
 30 31  1  0
 30 29  1  0
 31 27  1  0
 32 33  2  0
 33 34  1  0
 35 34  2  0
 36 35  1  0
 37 11  1  0
 37 42  1  0
 37 38  1  0
 38 41  1  1
 38 39  1  0
 40 38  1  0
 42 45  1  0
 43 47  1  0
 43 42  1  0
 44 43  2  0
 47 46  1  0
 49 47  1  0
 49 50  1  0
 49 48  1  0
 51 52  1  0
 52 53  1  0
 53 54  2  0
 54 63  1  0
 55 63  1  0
 56 61  1  0
 57 58  1  0
 57 56  1  0
 59 58  1  0
 59 68  1  0
 59 60  1  0
 61 55  1  0
 61 60  1  0
 62 55  2  0
 63 64  1  0
 65 66  2  0
 66 85  1  0
 67 66  1  0
 67 70  1  0
 68 65  1  0
 68 69  1  0
 69 67  2  0
 70 71  1  0
 71 72  2  0
 73 76  1  0
 73 72  1  0
 74 73  2  0
 75 74  1  0
 75 70  2  0
 76 77  1  0
 77 78  1  0
 78 79  2  0
 80 79  1  0
 80 84  1  0
 81 80  2  0
 82 77  2  0
 82 81  1  0
 83 82  1  0
 85 86  1  0
 86 89  1  0
 86 88  1  0
 87 85  2  0
 90 91  1  0
 90 65  1  0
 92 90  1  0
M  ISO  4   6 101  10 101  55 100  63 100
M  END
>  <TORSDO>  (78) 
F 20

>  <SCORE>  (78) 
-13.803

>  <name>  (78) 
77

>  <ligand_id>  (78) 
77

>  <original_smiles>  (78) 
[H]c1c([H])c([H])c2c(c1[H])C([H])([H])C([H])([H])C([H])([H])C2([H])N([H])C(=O)C1([H])N(C(=O)C([H])(N([H])C(=O)C([H])(N([H])C([H])([H])[H])C([H])([H])[H])C(C([H])([H])[H])(C([H])([H])[H])C([H])([H])[H])C([H])([H])c2c([H])c(Oc3c(C([H])([H])[H])c([H])c(C([H])([H])C([H])([H])C([H])([H])C([H])([H])N([H])C(=O)N4C([H])([H])C([H])([H])C([H])([H])C([H])(n5nc(-c6c([H])c([H])c(Oc7c([H])c([H])c(F)c([H])c7F)c([H])c6[H])c(C(=O)N([H])[H])c5N([H])[H])C4([H])[H])c(C([H])([H])[H])c3C([H])([H])[H])c([H])c([H])c2C1([H])[H]

>  <smiles>  (78) 
[H]c1c([H])c([H])c2c(c1[H])C([H])([H])C([H])([H])C([H])([H])C2([H])N([H])C(=O)C1([H])N(C(=O)C([H])(N([H])C(=O)C([H])(N([H])C([H])([H])[H])C([H])([H])[H])C(C([H])([H])[H])(C([H])([H])[H])C([H])([H])[H])C([H])([H])c2c([H])c(Oc3c(C([H])([H])[H])c([H])c(C([H])([H])C([H])([H])C([H])([H])C([H])([H])N([H])C(=O)N4C([H])([H])C([H])([H])C([H])([H])C([H])(n5nc(-c6c([H])c([H])c(Oc7c([H])c([H])c(F)c([H])c7F)c([H])c6[H])c(C(=O)N([H])[H])c5N([H])[H])C4([H])[H])c(C([H])([H])[H])c3C([H])([H])[H])c([H])c([H])c2C1([H])[H]

$$$$
78:0:0
     RDKit          3D

 90 98  0  0  1  0  0  0  0  0999 V2000
  -27.5790  -20.7390   20.4210 C   0  0  0  0  0  3  0  0  0  0  0  0
  -26.6870  -21.8520   20.5890 C   0  0  0  0  0  3  0  0  0  0  0  0
  -28.9520  -20.8310   20.1090 C   0  0  0  0  0  0  0  0  0  0  0  0
  -29.1790  -22.4780   19.9900 C   0  0  0  0  0  0  0  0  0  0  0  0
  -26.9490  -23.2750   20.4840 C   0  0  0  0  0  0  0  0  0  0  0  0
  -28.2230  -23.8330   20.1520 C   0  0  0  0  0  0  0  0  0  0  0  0
  -30.6100  -22.8370   19.6500 C   0  0  0  0  0  1  0  0  0  0  0  0
  -30.4700  -16.2300   19.9790 C   0  0  0  0  0  0  0  0  0  0  0  0
  -30.6560  -13.6180   19.2010 C   0  0  0  0  0  2  0  0  0  0  0  0
  -29.7620  -13.0580   18.0500 C   0  0  0  0  0  2  0  0  0  0  0  0
  -28.3870  -12.6250   18.5760 C   0  0  0  0  0  2  0  0  0  0  0  0
  -27.8560  -13.6430   19.6040 C   0  0  0  0  0  3  0  0  0  0  0  0
  -28.9000  -14.0970   20.6590 C   0  0  0  0  0  2  0  0  0  0  0  0
  -29.9900  -14.8140   19.9350 N   0  0  0  0  0  0  0  0  0  0  0  0
  -31.7010  -16.1260   19.7840 O   0  0  0  0  0  0  0  0  0  0  0  0
  -29.9040  -19.2520   19.9900 C   0  0  0  0  0  0  0  0  0  0  0  0
  -29.6990  -17.6540   20.0600 N   0  0  0  0  0  0  0  0  0  0  0  0
  -31.0860  -19.5350   19.7880 O   0  0  0  0  0  0  0  0  0  0  0  0
  -28.7170  -17.4760   20.1970 H   0  0  0  0  0  0  0  0  0  0  0  0
  -25.5400  -14.1150   20.5110 C   0  0  0  0  0  0  0  0  0  0  0  0
  -24.5050  -13.3150   20.9000 C   0  0  0  0  0  0  0  0  0  0  0  0
  -24.9810  -11.9710   20.7950 C   0  0  0  0  0  0  0  0  0  0  0  0
  -26.5760  -13.2630   20.1830 N   0  0  0  0  0  0  0  0  0  0  0  0
  -26.2580  -11.9620   20.4190 N   0  0  0  0  0  0  0  0  0  0  0  0
  -24.2670  -10.6980   20.9720 C   0  0  0  0  0  0  0  0  0  0  0  0
  -24.6930   -9.7360   21.9150 C   0  0  0  0  0  3  0  0  0  0  0  0
  -23.9730   -8.5320   22.0850 C   0  0  0  0  0  3  0  0  0  0  0  0
  -22.8130   -8.2830   21.3130 C   0  0  0  0  0  0  0  0  0  0  0  0
  -22.4070   -9.2330   20.3610 C   0  0  0  0  0  3  0  0  0  0  0  0
  -23.1270  -10.4280   20.1890 C   0  0  0  0  0  3  0  0  0  0  0  0
  -22.0680   -7.1310   21.3920 O   0  0  0  0  0  0  0  0  0  0  0  0
  -21.9340   -6.4380   22.5690 C   0  0  0  0  0  0  0  0  0  0  0  0
  -21.3510   -7.0200   23.7150 C   0  0  0  0  0  3  0  0  0  0  0  0
  -21.1710   -6.2510   24.8810 C   0  0  0  0  0  3  0  0  0  0  0  0
  -21.5620   -4.8990   24.9010 C   0  0  0  0  0  0  0  0  0  0  0  0
  -22.1380   -4.3150   23.7590 C   0  0  0  0  0  3  0  0  0  0  0  0
  -22.3190   -5.0820   22.5950 C   0  0  0  0  0  0  0  0  0  0  0  0
  -22.8550   -4.5100   21.4900 F   0  0  0  0  0  0  0  0  0  0  0  0
  -21.3830   -4.1570   26.0190 F   0  0  0  0  0  0  0  0  0  0  0  0
  -23.1190  -13.7730   21.2450 C   0  0  0  0  0  0  0  0  0  0  0  0
  -22.4390  -13.0530   22.1280 N   0  0  0  0  0  0  0  0  0  0  0  0
  -22.6520  -14.8080   20.7680 O   0  0  0  0  0  0  0  0  0  0  0  0
  -22.8320  -12.2180   22.5360 H   0  0  0  0  0  0  0  0  0  0  0  0
  -21.5110  -13.3420   22.4030 H   0  0  0  0  0  0  0  0  0  0  0  0
  -25.6830  -15.4940   20.3740 N   0  0  0  0  0  0  0  0  0  0  0  0
  -24.9170  -16.1360   20.5440 H   0  0  0  0  0  0  0  0  0  0  0  0
  -26.5030  -15.9440   19.9910 H   0  0  0  0  0  0  0  0  0  0  0  0
  -24.6110  -23.7650   20.8990 C   0  0  0  0  0  1  0  0  0  0  0  0
  -25.9550  -24.2000   20.7300 O   0  0  0  0  0  0  0  0  0  0  0  0
  -28.3180  -25.5180   20.0980 O   0  0  0  0  0  0  0  0  0  0  0  0
  -24.8250  -31.9330   23.2860 C   0  0  0  0  0  0  0  0  0  0  0  0
  -27.3660  -26.8180   20.1370 C   0  0  0  0  0  0  0  0  0  0  0  0
  -23.6560  -30.5860   21.5990 C   0  0  0  0  0  3  0  0  0  0  0  0
  -25.1160  -28.9670   20.1380 C   0  0  0  0  0  0  0  0  0  0  0  0
  -26.2410  -30.6870   21.5140 C   0  0  0  0  0  2  0  0  0  0  0  0
  -26.3080  -29.2590   20.8120 C   0  0  0  0  0  0  0  0  0  0  0  0
  -27.4040  -28.2170   20.7830 C   0  0  0  0  0  3  0  0  0  0  0  0
  -26.1550  -26.8100   19.3840 C   0  0  0  0  0  3  0  0  0  0  0  0
  -25.0900  -27.7720   19.4000 C   0  0  0  0  0  3  0  0  0  0  0  0
  -23.9120  -29.9310   20.2100 C   0  0  0  0  0  2  0  0  0  0  0  0
  -24.9330  -31.1040   22.1860 N   0  0  0  0  0  0  0  0  0  0  0  0
  -23.7270  -32.2180   23.7940 O   0  0  0  0  0  0  0  0  0  0  0  0
  -22.9260  -29.5840   22.5350 C   0  0  0  0  0  0  0  0  0  0  0  0
  -21.5960  -29.4190   22.3850 N   0  0  0  0  0  0  0  0  0  0  0  0
  -23.5720  -28.9520   23.3740 O   0  0  0  0  0  0  0  0  0  0  0  0
  -21.1210  -29.9800   21.6910 H   0  0  0  0  0  0  0  0  0  0  0  0
  -18.2110  -28.1730   22.8550 C   0  0  0  0  0  0  0  0  0  0  0  0
  -20.7710  -28.4510   23.1210 C   0  0  0  0  0  3  0  0  0  0  0  0
  -20.8790  -27.0400   22.4940 C   0  0  0  0  0  2  0  0  0  0  0  0
  -19.7780  -26.7520   21.4680 C   0  0  0  0  0  2  0  0  0  0  0  0
  -18.3970  -26.8570   22.1190 C   0  0  0  0  0  2  0  0  0  0  0  0
  -19.3250  -28.9290   23.3120 C   0  0  0  0  0  0  0  0  0  0  0  0
  -19.0920  -30.1580   23.9680 C   0  0  0  0  0  3  0  0  0  0  0  0
  -17.7820  -30.6320   24.1670 C   0  0  0  0  0  3  0  0  0  0  0  0
  -16.6850  -29.8750   23.7220 C   0  0  0  0  0  3  0  0  0  0  0  0
  -16.9000  -28.6470   23.0720 C   0  0  0  0  0  3  0  0  0  0  0  0
  -26.0770  -32.5750   23.9590 C   0  0  0  0  0  3  0  0  0  0  0  0
  -25.7490  -33.9700   24.3200 N   0  0  0  0  0  0  0  0  0  0  0  0
  -26.0570  -35.0530   23.5900 C   0  0  0  0  0  0  0  0  0  0  0  0
  -26.6980  -34.9820   22.5400 O   0  0  0  0  0  0  0  0  0  0  0  0
  -25.1730  -34.0980   25.1380 H   0  0  0  0  0  0  0  0  0  0  0  0
  -24.2930  -36.8430   23.3730 C   0  0  0  0  0  1  0  0  0  0  0  0
  -25.5820  -36.4310   24.1030 C   0  0  0  0  0  3  0  0  0  0  0  0
  -27.7400  -37.3450   24.8450 C   0  0  0  0  0  1  0  0  0  0  0  0
  -26.5960  -37.5000   23.9510 N   0  0  0  0  0  0  0  0  0  0  0  0
  -26.1830  -38.4140   24.1200 H   0  0  0  0  0  0  0  0  0  0  0  0
  -26.5510  -31.7950   25.2500 C   0  0  1  0  0  0  0  0  0  0  0  0
  -25.4250  -31.5540   26.2840 C   0  0  0  0  0  1  0  0  0  0  0  0
  -27.1420  -30.4150   24.8820 C   0  0  0  0  0  1  0  0  0  0  0  0
  -27.6830  -32.5800   25.9520 C   0  0  0  0  0  1  0  0  0  0  0  0
  1  2  1  0
  3  1  2  0
  4  3  1  0
  4  6  2  0
  5  2  2  0
  5 49  1  0
  6  5  1  0
  7  4  1  0
  8 17  1  0
  9 14  1  0
 10 11  1  0
 10  9  1  0
 12 11  1  0
 12 23  1  0
 12 13  1  0
 14  8  1  0
 14 13  1  0
 15  8  2  0
 16 17  1  0
 16  3  1  0
 17 19  1  0
 18 16  2  0
 20 21  2  0
 21 40  1  0
 22 21  1  0
 22 25  1  0
 23 24  1  0
 23 20  1  0
 24 22  2  0
 25 26  1  0
 26 27  2  0
 28 31  1  0
 28 27  1  0
 29 28  2  0
 30 29  1  0
 30 25  2  0
 31 32  1  0
 32 37  2  0
 32 33  1  0
 33 34  2  0
 34 35  1  0
 35 39  1  0
 36 35  2  0
 37 36  1  0
 38 37  1  0
 40 41  1  0
 41 44  1  0
 41 43  1  0
 42 40  2  0
 45 20  1  0
 45 46  1  0
 47 45  1  0
 49 48  1  0
 50 52  1  0
 50  6  1  0
 51 62  2  0
 52 57  1  0
 53 61  1  0
 53 63  1  0
 54 60  1  0
 54 56  1  0
 55 61  1  0
 56 55  1  0
 57 56  2  0
 58 59  1  0
 58 52  2  0
 59 54  2  0
 60 53  1  0
 61 51  1  0
 63 65  2  0
 64 63  1  0
 66 64  1  0
 67 76  2  0
 67 72  1  0
 68 64  1  0
 68 72  1  0
 69 68  1  0
 70 71  1  0
 70 69  1  0
 71 67  1  0
 72 73  2  0
 73 74  1  0
 75 74  2  0
 76 75  1  0
 77 51  1  0
 77 78  1  0
 77 87  1  0
 78 81  1  0
 79 83  1  0
 79 78  1  0
 80 79  2  0
 83 82  1  0
 85 83  1  0
 85 86  1  0
 85 84  1  0
 87 90  1  1
 87 88  1  0
 89 87  1  0
M  ISO  4   6 101   8 100  17 100  50 101
M  END
>  <TORSDO>  (79) 
F 17

>  <SCORE>  (79) 
-14.924

>  <name>  (79) 
78

>  <ligand_id>  (79) 
78

>  <original_smiles>  (79) 
[H]c1c([H])c([H])c2c(c1[H])C([H])([H])C([H])([H])C([H])([H])C2([H])N([H])C(=O)C1([H])N(C(=O)C([H])(N([H])C(=O)C([H])(N([H])C([H])([H])[H])C([H])([H])[H])C(C([H])([H])[H])(C([H])([H])[H])C([H])([H])[H])C([H])([H])c2c([H])c(Oc3c(OC([H])([H])[H])c([H])c([H])c(C(=O)N([H])C(=O)N4C([H])([H])C([H])([H])C([H])([H])C([H])(n5nc(-c6c([H])c([H])c(Oc7c([H])c([H])c(F)c([H])c7F)c([H])c6[H])c(C(=O)N([H])[H])c5N([H])[H])C4([H])[H])c3C([H])([H])[H])c([H])c([H])c2C1([H])[H]

>  <smiles>  (79) 
[H]c1c([H])c([H])c2c(c1[H])C([H])([H])C([H])([H])C([H])([H])C2([H])N([H])C(=O)C1([H])N(C(=O)C([H])(N([H])C(=O)C([H])(N([H])C([H])([H])[H])C([H])([H])[H])C(C([H])([H])[H])(C([H])([H])[H])C([H])([H])[H])C([H])([H])c2c([H])c(Oc3c(OC([H])([H])[H])c([H])c([H])c(C(=O)N([H])C(=O)N4C([H])([H])C([H])([H])C([H])([H])C([H])(n5nc(-c6c([H])c([H])c(Oc7c([H])c([H])c(F)c([H])c7F)c([H])c6[H])c(C(=O)N([H])[H])c5N([H])[H])C4([H])[H])c3C([H])([H])[H])c([H])c([H])c2C1([H])[H]

$$$$
79:0:0
     RDKit          3D

 90 99  0  0  1  0  0  0  0  0999 V2000
  -30.9170  -21.1540   22.0060 C   0  0  0  0  0  3  0  0  0  0  0  0
  -30.6470  -19.8020   21.5930 C   0  0  0  0  0  0  0  0  0  0  0  0
  -29.8280  -19.4260   20.5120 C   0  0  0  0  0  0  0  0  0  0  0  0
  -29.2830  -22.3420   20.4700 C   0  0  0  0  0  0  0  0  0  0  0  0
  -30.2890  -22.3450   21.4910 C   0  0  0  0  0  0  0  0  0  0  0  0
  -29.1170  -20.7920   20.0310 C   0  0  0  0  0  0  0  0  0  0  0  0
  -31.0450  -18.6080   22.4290 C   0  0  0  0  0  2  0  0  0  0  0  0
  -30.0740  -17.4580   22.0440 C   0  0  0  0  0  2  0  0  0  0  0  0
  -29.6450  -17.5520   20.5220 C   0  0  1  0  0  0  0  0  0  0  0  0
  -28.1220  -17.4190   20.3660 C   0  0  0  0  0  1  0  0  0  0  0  0
  -30.6630  -23.5280   22.0510 F   0  0  0  0  0  0  0  0  0  0  0  0
  -28.1490  -20.5950   19.1010 F   0  0  0  0  0  0  0  0  0  0  0  0
  -30.4160  -15.8800   19.9710 C   0  0  0  0  0  0  0  0  0  0  0  0
  -30.5490  -13.3350   19.0300 C   0  0  0  0  0  2  0  0  0  0  0  0
  -29.5820  -12.9000   17.8830 C   0  0  0  0  0  2  0  0  0  0  0  0
  -28.1880  -12.5160   18.3990 C   0  0  0  0  0  2  0  0  0  0  0  0
  -27.7470  -13.4680   19.5400 C   0  0  0  0  0  3  0  0  0  0  0  0
  -28.8630  -13.7250   20.5890 C   0  0  0  0  0  2  0  0  0  0  0  0
  -29.9640  -14.4630   19.9070 N   0  0  0  0  0  0  0  0  0  0  0  0
  -31.6000  -15.8530   19.5760 O   0  0  0  0  0  0  0  0  0  0  0  0
  -25.4450  -13.9310   20.5090 C   0  0  0  0  0  0  0  0  0  0  0  0
  -24.4250  -13.1270   20.9250 C   0  0  0  0  0  0  0  0  0  0  0  0
  -24.8900  -11.7820   20.7710 C   0  0  0  0  0  0  0  0  0  0  0  0
  -26.4720  -13.0850   20.1330 N   0  0  0  0  0  0  0  0  0  0  0  0
  -26.1540  -11.7790   20.3480 N   0  0  0  0  0  0  0  0  0  0  0  0
  -24.1760  -10.5070   20.9450 C   0  0  0  0  0  0  0  0  0  0  0  0
  -24.6190   -9.5400   21.8730 C   0  0  0  0  0  3  0  0  0  0  0  0
  -23.9010   -8.3350   22.0480 C   0  0  0  0  0  3  0  0  0  0  0  0
  -22.7300   -8.0940   21.2920 C   0  0  0  0  0  0  0  0  0  0  0  0
  -22.3060   -9.0490   20.3530 C   0  0  0  0  0  3  0  0  0  0  0  0
  -23.0240  -10.2450   20.1770 C   0  0  0  0  0  3  0  0  0  0  0  0
  -21.9880   -6.9390   21.3680 O   0  0  0  0  0  0  0  0  0  0  0  0
  -21.8200   -6.2630   22.5480 C   0  0  0  0  0  0  0  0  0  0  0  0
  -21.2200   -6.8670   23.6750 C   0  0  0  0  0  3  0  0  0  0  0  0
  -21.0160   -6.1200   24.8500 C   0  0  0  0  0  3  0  0  0  0  0  0
  -21.3930   -4.7630   24.9000 C   0  0  0  0  0  0  0  0  0  0  0  0
  -21.9860   -4.1580   23.7750 C   0  0  0  0  0  3  0  0  0  0  0  0
  -22.1960   -4.9040   22.6060 C   0  0  0  0  0  0  0  0  0  0  0  0
  -22.7500   -4.3110   21.5190 F   0  0  0  0  0  0  0  0  0  0  0  0
  -21.1880   -4.0420   26.0240 F   0  0  0  0  0  0  0  0  0  0  0  0
  -23.0560  -13.5820   21.3390 C   0  0  0  0  0  0  0  0  0  0  0  0
  -22.4150  -12.8460   22.2370 N   0  0  0  0  0  0  0  0  0  0  0  0
  -22.5710  -14.6290   20.9050 O   0  0  0  0  0  0  0  0  0  0  0  0
  -22.8300  -12.0050   22.6110 H   0  0  0  0  0  0  0  0  0  0  0  0
  -21.4980  -13.1270   22.5540 H   0  0  0  0  0  0  0  0  0  0  0  0
  -25.5770  -15.3110   20.3870 N   0  0  0  0  0  0  0  0  0  0  0  0
  -24.8390  -15.9540   20.6400 H   0  0  0  0  0  0  0  0  0  0  0  0
  -26.3910  -15.7710   20.0030 H   0  0  0  0  0  0  0  0  0  0  0  0
  -28.4640  -23.9670   20.0000 C   0  0  0  0  0  2  0  0  0  0  0  0
  -28.4680  -25.7030   20.3810 O   0  0  0  0  0  0  0  0  0  0  0  0
  -24.7670  -31.8610   23.2870 C   0  0  0  0  0  0  0  0  0  0  0  0
  -27.4580  -26.8960   20.2480 C   0  0  0  0  0  0  0  0  0  0  0  0
  -23.6320  -30.5020   21.5770 C   0  0  0  0  0  3  0  0  0  0  0  0
  -25.1390  -28.9030   20.1500 C   0  0  0  0  0  0  0  0  0  0  0  0
  -26.2100  -30.6730   21.5200 C   0  0  0  0  0  2  0  0  0  0  0  0
  -26.3070  -29.2610   20.8320 C   0  0  0  0  0  0  0  0  0  0  0  0
  -27.4380  -28.2850   20.8490 C   0  0  0  0  0  3  0  0  0  0  0  0
  -26.2530  -26.7570   19.4870 C   0  0  0  0  0  3  0  0  0  0  0  0
  -25.1520  -27.6790   19.4510 C   0  0  0  0  0  3  0  0  0  0  0  0
  -23.9130  -29.8320   20.1950 C   0  0  0  0  0  2  0  0  0  0  0  0
  -24.8920  -31.0460   22.1800 N   0  0  0  0  0  0  0  0  0  0  0  0
  -23.6600  -32.1350   23.7790 O   0  0  0  0  0  0  0  0  0  0  0  0
  -22.9010  -29.4920   22.5040 C   0  0  0  0  0  0  0  0  0  0  0  0
  -21.5710  -29.3420   22.3450 N   0  0  0  0  0  0  0  0  0  0  0  0
  -23.5390  -28.8420   23.3330 O   0  0  0  0  0  0  0  0  0  0  0  0
  -21.1050  -29.9160   21.6570 H   0  0  0  0  0  0  0  0  0  0  0  0
  -18.1660  -28.1520   22.8120 C   0  0  0  0  0  0  0  0  0  0  0  0
  -20.7320  -28.3790   23.0700 C   0  0  0  0  0  3  0  0  0  0  0  0
  -20.8120  -26.9770   22.4220 C   0  0  0  0  0  2  0  0  0  0  0  0
  -19.7010  -26.7200   21.3960 C   0  0  0  0  0  2  0  0  0  0  0  0
  -18.3240  -26.8420   22.0570 C   0  0  0  0  0  2  0  0  0  0  0  0
  -19.2960  -28.8800   23.2720 C   0  0  0  0  0  0  0  0  0  0  0  0
  -19.0910  -30.1030   23.9430 C   0  0  0  0  0  3  0  0  0  0  0  0
  -17.7910  -30.6020   24.1550 C   0  0  0  0  0  3  0  0  0  0  0  0
  -16.6770  -29.8680   23.7110 C   0  0  0  0  0  3  0  0  0  0  0  0
  -16.8650  -28.6450   23.0450 C   0  0  0  0  0  3  0  0  0  0  0  0
  -26.0110  -32.4970   23.9790 C   0  0  0  0  0  3  0  0  0  0  0  0
  -25.6960  -33.9070   24.2790 N   0  0  0  0  0  0  0  0  0  0  0  0
  -26.0410  -34.9560   23.5210 C   0  0  0  0  0  0  0  0  0  0  0  0
  -26.7110  -34.8390   22.4920 O   0  0  0  0  0  0  0  0  0  0  0  0
  -25.0980  -34.0700   25.0760 H   0  0  0  0  0  0  0  0  0  0  0  0
  -24.3050  -36.7560   23.1950 C   0  0  0  0  0  1  0  0  0  0  0  0
  -25.5720  -36.3580   23.9710 C   0  0  0  0  0  3  0  0  0  0  0  0
  -27.7220  -37.2720   24.7300 C   0  0  0  0  0  1  0  0  0  0  0  0
  -26.6020  -37.4100   23.8030 N   0  0  0  0  0  0  0  0  0  0  0  0
  -26.1960  -38.3340   23.9290 H   0  0  0  0  0  0  0  0  0  0  0  0
  -26.4360  -31.7500   25.3030 C   0  0  1  0  0  0  0  0  0  0  0  0
  -25.2790  -31.5470   26.3110 C   0  0  0  0  0  1  0  0  0  0  0  0
  -27.0270  -30.3580   24.9910 C   0  0  0  0  0  1  0  0  0  0  0  0
  -27.5540  -32.5490   26.0190 C   0  0  0  0  0  1  0  0  0  0  0  0
  2  1  1  0
  2  7  1  0
  3  9  1  0
  3  2  2  0
  4  5  1  0
  5  1  2  0
  5 11  1  0
  6  4  2  0
  6  3  1  0
  8  7  1  0
  9 10  1  1
  9  8  1  0
 12  6  1  0
 13  9  1  0
 14 19  1  0
 15 16  1  0
 15 14  1  0
 17 16  1  0
 17 24  1  0
 17 18  1  0
 19 13  1  0
 19 18  1  0
 20 13  2  0
 21 22  2  0
 22 41  1  0
 23 22  1  0
 23 26  1  0
 24 25  1  0
 24 21  1  0
 25 23  2  0
 26 27  1  0
 27 28  2  0
 29 32  1  0
 29 28  1  0
 30 29  2  0
 31 30  1  0
 31 26  2  0
 32 33  1  0
 33 38  2  0
 33 34  1  0
 34 35  2  0
 35 36  1  0
 36 40  1  0
 37 36  2  0
 38 37  1  0
 39 38  1  0
 41 42  1  0
 42 45  1  0
 42 44  1  0
 43 41  2  0
 46 21  1  0
 46 47  1  0
 48 46  1  0
 49 50  1  0
 49  4  1  0
 51 62  2  0
 52 50  1  0
 52 57  1  0
 53 61  1  0
 53 63  1  0
 54 60  1  0
 54 56  1  0
 55 61  1  0
 56 57  2  0
 56 55  1  0
 58 52  2  0
 59 58  1  0
 59 54  2  0
 60 53  1  0
 61 51  1  0
 63 65  2  0
 64 63  1  0
 66 64  1  0
 67 76  2  0
 67 72  1  0
 68 64  1  0
 68 72  1  0
 69 68  1  0
 70 71  1  0
 70 69  1  0
 71 67  1  0
 72 73  2  0
 73 74  1  0
 75 74  2  0
 76 75  1  0
 77 51  1  0
 77 78  1  0
 77 87  1  0
 78 81  1  0
 79 83  1  0
 79 78  1  0
 80 79  2  0
 83 82  1  0
 85 86  1  0
 85 83  1  0
 85 84  1  0
 87 90  1  1
 87 88  1  0
 89 87  1  0
M  ISO  4   9 100  13 100  49 101  50 101
M  END
>  <TORSDO>  (80) 
F 17

>  <SCORE>  (80) 
-16.545

>  <name>  (80) 
79

>  <ligand_id>  (80) 
79

>  <original_smiles>  (80) 
[H]c1c([H])c([H])c2c(c1[H])C([H])([H])C([H])([H])C([H])([H])C2([H])N([H])C(=O)C1([H])N(C(=O)C([H])(N([H])C(=O)C([H])(N([H])C([H])([H])[H])C([H])([H])[H])C(C([H])([H])[H])(C([H])([H])[H])C([H])([H])[H])C([H])([H])c2c([H])c(OC([H])([H])c3c(F)c([H])c4c(c3F)C(C(=O)N3C([H])([H])C([H])([H])C([H])([H])C([H])(n5nc(-c6c([H])c([H])c(Oc7c([H])c([H])c(F)c([H])c7F)c([H])c6[H])c(C(=O)N([H])[H])c5N([H])[H])C3([H])[H])(C([H])([H])[H])C([H])([H])C4([H])[H])c([H])c([H])c2C1([H])[H]

>  <smiles>  (80) 
[H]c1c([H])c([H])c2c(c1[H])C([H])([H])C([H])([H])C([H])([H])C2([H])N([H])C(=O)C1([H])N(C(=O)C([H])(N([H])C(=O)C([H])(N([H])C([H])([H])[H])C([H])([H])[H])C(C([H])([H])[H])(C([H])([H])[H])C([H])([H])[H])C([H])([H])c2c([H])c(OC([H])([H])c3c(F)c([H])c4c(c3F)C(C(=O)N3C([H])([H])C([H])([H])C([H])([H])C([H])(n5nc(-c6c([H])c([H])c(Oc7c([H])c([H])c(F)c([H])c7F)c([H])c6[H])c(C(=O)N([H])[H])c5N([H])[H])C3([H])[H])(C([H])([H])[H])C([H])([H])C4([H])[H])c([H])c([H])c2C1([H])[H]

$$$$
80:0:0
     RDKit          3D

 95105  0  0  1  0  0  0  0  0999 V2000
  -29.4010  -21.5690   17.9200 C   0  0  0  0  0  3  0  0  0  0  0  0
  -30.3660  -23.5620   19.4730 C   0  0  0  0  0  3  0  0  0  0  0  0
  -30.4590  -20.9470   18.7600 C   0  0  0  0  0  0  0  0  0  0  0  0
  -30.8620  -22.1040   19.5290 C   0  0  0  0  0  0  0  0  0  0  0  0
  -28.8940  -23.0230   17.8640 C   0  0  0  0  0  0  0  0  0  0  0  0
  -29.2960  -24.2370   18.6500 C   0  0  0  0  0  0  0  0  0  0  0  0
  -30.7490  -19.6130   22.4440 C   0  0  0  0  0  0  0  0  0  0  0  0
  -30.4600  -21.1080   22.5380 C   0  0  0  0  0  2  0  0  0  0  0  0
  -32.0000  -19.1940   21.6700 C   0  0  0  0  0  2  0  0  0  0  0  0
  -31.6120  -21.9400   21.9460 C   0  0  0  0  0  2  0  0  0  0  0  0
  -31.1690  -19.3320   19.2350 C   0  0  0  0  0  3  0  0  0  0  0  0
  -32.1190  -19.9440   20.3200 C   0  0  0  0  0  3  0  0  0  0  0  0
  -31.9540  -21.5580   20.4760 C   0  0  1  0  0  0  0  0  0  0  0  0
  -27.8130  -23.2750   16.8250 C   0  0  0  0  0  1  0  0  0  0  0  0
  -33.2880  -22.2170   20.0920 C   0  0  0  0  0  1  0  0  0  0  0  0
  -30.0040  -18.7820   22.9640 O   0  0  0  0  0  0  0  0  0  0  0  0
  -32.2610  -16.2930   18.9340 C   0  0  0  0  0  0  0  0  0  0  0  0
  -32.0650  -13.7190   18.2360 C   0  0  0  0  0  2  0  0  0  0  0  0
  -30.9410  -13.2400   17.2790 C   0  0  0  0  0  2  0  0  0  0  0  0
  -29.6430  -12.9650   18.0480 C   0  0  0  0  0  2  0  0  0  0  0  0
  -29.3850  -14.0440   19.1240 C   0  0  0  0  0  3  0  0  0  0  0  0
  -30.6330  -14.4220   19.9560 C   0  0  0  0  0  2  0  0  0  0  0  0
  -31.6170  -14.9800   18.9930 N   0  0  0  0  0  0  0  0  0  0  0  0
  -33.4570  -16.0590   18.6590 O   0  0  0  0  0  0  0  0  0  0  0  0
  -32.0620  -18.0740   17.2400 C   0  0  0  0  0  1  0  0  0  0  0  0
  -31.6940  -17.7390   18.6260 N   0  0  0  0  0  0  0  0  0  0  0  0
  -27.5600  -14.6600   20.7670 C   0  0  0  0  0  0  0  0  0  0  0  0
  -26.4420  -14.0110   21.2070 C   0  0  0  0  0  0  0  0  0  0  0  0
  -26.4800  -12.7110   20.6120 C   0  0  0  0  0  0  0  0  0  0  0  0
  -28.2090  -13.7730   19.9330 N   0  0  0  0  0  0  0  0  0  0  0  0
  -27.5910  -12.5630   19.8920 N   0  0  0  0  0  0  0  0  0  0  0  0
  -25.4880  -11.6270   20.6400 C   0  0  0  0  0  0  0  0  0  0  0  0
  -25.7500  -10.4010   21.2910 C   0  0  0  0  0  3  0  0  0  0  0  0
  -24.7690   -9.3850   21.3220 C   0  0  0  0  0  3  0  0  0  0  0  0
  -23.5120   -9.5910   20.7030 C   0  0  0  0  0  0  0  0  0  0  0  0
  -23.2670  -10.8040   20.0350 C   0  0  0  0  0  3  0  0  0  0  0  0
  -24.2460  -11.8120   20.0000 C   0  0  0  0  0  3  0  0  0  0  0  0
  -22.5110   -8.6510   20.6600 O   0  0  0  0  0  0  0  0  0  0  0  0
  -22.1950   -7.8860   21.7530 C   0  0  0  0  0  0  0  0  0  0  0  0
  -21.8700   -8.4640   23.0000 C   0  0  0  0  0  3  0  0  0  0  0  0
  -21.4820   -7.6430   24.0780 C   0  0  0  0  0  3  0  0  0  0  0  0
  -21.4100   -6.2480   23.9110 C   0  0  0  0  0  0  0  0  0  0  0  0
  -21.7260   -5.6700   22.6690 C   0  0  0  0  0  3  0  0  0  0  0  0
  -22.1150   -6.4870   21.5930 C   0  0  0  0  0  0  0  0  0  0  0  0
  -22.3990   -5.9260   20.3920 F   0  0  0  0  0  0  0  0  0  0  0  0
  -21.0290   -5.4580   24.9430 F   0  0  0  0  0  0  0  0  0  0  0  0
  -25.3520  -14.6010   22.0510 C   0  0  0  0  0  0  0  0  0  0  0  0
  -24.7150  -13.7860   22.8840 N   0  0  0  0  0  0  0  0  0  0  0  0
  -25.0940  -15.8030   22.0110 O   0  0  0  0  0  0  0  0  0  0  0  0
  -24.9480  -12.8050   22.9270 H   0  0  0  0  0  0  0  0  0  0  0  0
  -23.9900  -14.1460   23.4880 H   0  0  0  0  0  0  0  0  0  0  0  0
  -28.0710  -15.9360   20.9760 N   0  0  0  0  0  0  0  0  0  0  0  0
  -27.6420  -16.5990   21.6120 H   0  0  0  0  0  0  0  0  0  0  0  0
  -28.9600  -16.2580   20.6180 H   0  0  0  0  0  0  0  0  0  0  0  0
  -28.9400  -25.8150   18.4370 O   0  0  0  0  0  0  0  0  0  0  0  0
  -25.1600  -31.1910   22.6420 C   0  0  0  0  0  0  0  0  0  0  0  0
  -27.8180  -26.8690   18.6990 C   0  0  0  0  0  0  0  0  0  0  0  0
  -23.9340  -29.8870   20.9590 C   0  0  0  0  0  3  0  0  0  0  0  0
  -25.3620  -28.6180   19.1780 C   0  0  0  0  0  0  0  0  0  0  0  0
  -26.4540  -30.3430   20.5890 C   0  0  0  0  0  2  0  0  0  0  0  0
  -26.5810  -29.0240   19.7300 C   0  0  0  0  0  0  0  0  0  0  0  0
  -27.7850  -28.1760   19.4650 C   0  0  0  0  0  3  0  0  0  0  0  0
  -26.5360  -26.6780   18.1240 C   0  0  0  0  0  3  0  0  0  0  0  0
  -25.3730  -27.4790   18.3540 C   0  0  0  0  0  3  0  0  0  0  0  0
  -24.0770  -29.4110   19.4830 C   0  0  0  0  0  2  0  0  0  0  0  0
  -25.2090  -30.5050   21.4490 N   0  0  0  0  0  0  0  0  0  0  0  0
  -24.1110  -31.2880   23.3040 O   0  0  0  0  0  0  0  0  0  0  0  0
  -23.4460  -28.7110   21.8490 C   0  0  0  0  0  0  0  0  0  0  0  0
  -22.1630  -28.3140   21.7290 N   0  0  0  0  0  0  0  0  0  0  0  0
  -24.2320  -28.1590   22.6210 O   0  0  0  0  0  0  0  0  0  0  0  0
  -21.5660  -28.8150   21.0850 H   0  0  0  0  0  0  0  0  0  0  0  0
  -19.1260  -26.3510   22.0770 C   0  0  0  0  0  0  0  0  0  0  0  0
  -21.5540  -27.1770   22.4300 C   0  0  0  0  0  3  0  0  0  0  0  0
  -21.9900  -25.8370   21.7930 C   0  0  0  0  0  2  0  0  0  0  0  0
  -21.0120  -25.3290   20.7300 C   0  0  0  0  0  2  0  0  0  0  0  0
  -19.6200  -25.1190   21.3360 C   0  0  0  0  0  2  0  0  0  0  0  0
  -20.0330  -27.3240   22.5780 C   0  0  0  0  0  0  0  0  0  0  0  0
  -19.5180  -28.4620   23.2350 C   0  0  0  0  0  3  0  0  0  0  0  0
  -18.1300  -28.6370   23.3930 C   0  0  0  0  0  3  0  0  0  0  0  0
  -17.2390  -27.6650   22.9080 C   0  0  0  0  0  3  0  0  0  0  0  0
  -17.7360  -26.5230   22.2560 C   0  0  0  0  0  3  0  0  0  0  0  0
  -26.4150  -31.9000   23.2320 C   0  0  0  0  0  3  0  0  0  0  0  0
  -25.9710  -33.1310   23.9180 N   0  0  0  0  0  0  0  0  0  0  0  0
  -26.0350  -34.3670   23.4090 C   0  0  0  0  0  0  0  0  0  0  0  0
  -26.5310  -34.6030   22.3030 O   0  0  0  0  0  0  0  0  0  0  0  0
  -25.5020  -33.0050   24.8030 H   0  0  0  0  0  0  0  0  0  0  0  0
  -24.0530  -35.8860   23.7530 C   0  0  0  0  0  1  0  0  0  0  0  0
  -25.4620  -35.5270   24.2520 C   0  0  0  0  0  3  0  0  0  0  0  0
  -27.5730  -36.5690   24.9570 C   0  0  0  0  0  1  0  0  0  0  0  0
  -26.3110  -36.7400   24.2440 N   0  0  0  0  0  0  0  0  0  0  0  0
  -25.8180  -37.5300   24.6540 H   0  0  0  0  0  0  0  0  0  0  0  0
  -27.2220  -30.9900   24.2410 C   0  0  1  0  0  0  0  0  0  0  0  0
  -26.3540  -30.3950   25.3750 C   0  0  0  0  0  1  0  0  0  0  0  0
  -27.9010  -29.8120   23.5100 C   0  0  0  0  0  1  0  0  0  0  0  0
  -28.3600  -31.8120   24.8940 C   0  0  0  0  0  1  0  0  0  0  0  0
  1  3  1  0
  2  4  1  0
  3 11  1  0
  3  4  2  0
  4 13  1  0
  5  1  2  0
  5  6  1  0
  6  2  2  0
  7  8  1  0
  7 16  2  0
  9  7  1  0
 10  8  1  0
 11 26  1  0
 11 12  1  0
 12 13  1  0
 12  9  1  0
 13 15  1  6
 13 10  1  0
 14  5  1  0
 17 23  1  0
 18 23  1  0
 19 20  1  0
 19 18  1  0
 21 20  1  0
 21 30  1  0
 21 22  1  0
 23 22  1  0
 24 17  2  0
 25 26  1  0
 26 17  1  0
 27 52  1  0
 27 28  2  0
 28 47  1  0
 29 32  1  0
 29 28  1  0
 30 27  1  0
 31 30  1  0
 31 29  2  0
 32 33  1  0
 33 34  2  0
 35 34  1  0
 36 35  2  0
 37 36  1  0
 37 32  2  0
 38 35  1  0
 38 39  1  0
 39 40  1  0
 40 41  2  0
 42 41  1  0
 42 46  1  0
 43 42  2  0
 44 39  2  0
 44 43  1  0
 45 44  1  0
 47 48  1  0
 48 50  1  0
 48 51  1  0
 49 47  2  0
 52 53  1  0
 54 52  1  0
 55  6  1  0
 55 57  1  0
 56 67  2  0
 57 62  1  0
 58 66  1  0
 58 68  1  0
 59 65  1  0
 59 61  1  0
 60 66  1  0
 61 60  1  0
 62 61  2  0
 63 64  1  0
 63 57  2  0
 64 59  2  0
 65 58  1  0
 66 56  1  0
 68 70  2  0
 69 68  1  0
 71 69  1  0
 72 81  2  0
 72 77  1  0
 73 69  1  0
 73 77  1  0
 74 73  1  0
 75 76  1  0
 75 74  1  0
 76 72  1  0
 77 78  2  0
 78 79  1  0
 80 79  2  0
 81 80  1  0
 82 56  1  0
 82 83  1  0
 82 92  1  0
 83 86  1  0
 84 83  1  0
 84 88  1  0
 85 84  2  0
 88 87  1  0
 90 88  1  0
 90 91  1  0
 90 89  1  0
 92 95  1  1
 92 93  1  0
 94 92  1  0
M  ISO  4   6 101  17 100  26 100  55 101
M  END
>  <TORSDO>  (81) 
F 16

>  <SCORE>  (81) 
-4.592

>  <name>  (81) 
80

>  <ligand_id>  (81) 
80

>  <original_smiles>  (81) 
[H]c1c([H])c([H])c2c(c1[H])C([H])([H])C([H])([H])C([H])([H])C2([H])N([H])C(=O)C1([H])N(C(=O)C([H])(N([H])C(=O)C([H])(N([H])C([H])([H])[H])C([H])([H])[H])C(C([H])([H])[H])(C([H])([H])[H])C([H])([H])[H])C([H])([H])c2c([H])c(Oc3c([H])c4c(c([H])c3C([H])([H])[H])C([H])(N(C(=O)N3C([H])([H])C([H])([H])C([H])([H])C([H])(n5nc(-c6c([H])c([H])c(Oc7c([H])c([H])c(F)c([H])c7F)c([H])c6[H])c(C(=O)N([H])[H])c5N([H])[H])C3([H])[H])C([H])([H])[H])C3([H])C([H])([H])C(=O)C([H])([H])C([H])([H])C43C([H])([H])[H])c([H])c([H])c2C1([H])[H]

>  <smiles>  (81) 
[H]c1c([H])c([H])c2c(c1[H])C([H])([H])C([H])([H])C([H])([H])C2([H])N([H])C(=O)C1([H])N(C(=O)C([H])(N([H])C(=O)C([H])(N([H])C([H])([H])[H])C([H])([H])[H])C(C([H])([H])[H])(C([H])([H])[H])C([H])([H])[H])C([H])([H])c2c([H])c(Oc3c([H])c4c(c([H])c3C([H])([H])[H])C([H])(N(C(=O)N3C([H])([H])C([H])([H])C([H])([H])C([H])(n5nc(-c6c([H])c([H])c(Oc7c([H])c([H])c(F)c([H])c7F)c([H])c6[H])c(C(=O)N([H])[H])c5N([H])[H])C3([H])[H])C([H])([H])[H])C3([H])C([H])([H])C(=O)C([H])([H])C([H])([H])C43C([H])([H])[H])c([H])c([H])c2C1([H])[H]

$$$$
81:0:0
     RDKit          3D

 87 93  0  0  1  0  0  0  0  0999 V2000
  -29.3340  -19.7360   20.6360 C   0  0  0  0  0  3  0  0  0  0  0  0
  -29.4110  -18.1240   20.0430 C   0  0  0  0  0  0  0  0  0  0  0  0
  -28.7370  -21.2800   20.1550 C   0  0  0  0  0  3  0  0  0  0  0  0
  -28.7440  -18.3350   18.7810 C   0  0  0  0  0  0  0  0  0  0  0  0
  -28.2030  -20.9300   18.8780 C   0  0  0  0  0  0  0  0  0  0  0  0
  -28.1360  -19.5850   18.3050 C   0  0  0  0  0  0  0  0  0  0  0  0
  -28.7150  -17.1350   17.8160 C   0  0  0  0  0  1  0  0  0  0  0  0
  -27.6420  -22.1040   18.0700 C   0  0  0  0  0  1  0  0  0  0  0  0
  -27.2680  -19.4640   17.0410 C   0  0  0  0  0  1  0  0  0  0  0  0
  -30.1460  -16.3470   20.2950 C   0  0  0  0  0  0  0  0  0  0  0  0
  -30.4190  -13.6680   19.5280 C   0  0  0  0  0  2  0  0  0  0  0  0
  -29.6040  -13.0020   18.3620 C   0  0  0  0  0  2  0  0  0  0  0  0
  -28.2190  -12.5340   18.8250 C   0  0  0  0  0  2  0  0  0  0  0  0
  -27.6150  -13.5640   19.7950 C   0  0  0  0  0  3  0  0  0  0  0  0
  -28.5950  -14.1050   20.8750 C   0  0  0  0  0  2  0  0  0  0  0  0
  -29.6900  -14.8870   20.1990 N   0  0  0  0  0  0  0  0  0  0  0  0
  -31.3930  -16.1760   20.2940 O   0  0  0  0  0  0  0  0  0  0  0  0
  -25.2560  -14.0360   20.5610 C   0  0  0  0  0  0  0  0  0  0  0  0
  -24.2010  -13.2440   20.9120 C   0  0  0  0  0  0  0  0  0  0  0  0
  -24.6870  -11.8980   20.8790 C   0  0  0  0  0  0  0  0  0  0  0  0
  -26.3120  -13.1810   20.3230 N   0  0  0  0  0  0  0  0  0  0  0  0
  -25.9860  -11.8830   20.5770 N   0  0  0  0  0  0  0  0  0  0  0  0
  -23.9620  -10.6290   21.0580 C   0  0  0  0  0  0  0  0  0  0  0  0
  -24.3880   -9.6560   21.9880 C   0  0  0  0  0  3  0  0  0  0  0  0
  -23.6570   -8.4600   22.1610 C   0  0  0  0  0  3  0  0  0  0  0  0
  -22.4840   -8.2270   21.4020 C   0  0  0  0  0  0  0  0  0  0  0  0
  -22.0750   -9.1900   20.4620 C   0  0  0  0  0  3  0  0  0  0  0  0
  -22.8060  -10.3780   20.2880 C   0  0  0  0  0  3  0  0  0  0  0  0
  -21.7270   -7.0830   21.4820 O   0  0  0  0  0  0  0  0  0  0  0  0
  -21.6840   -6.3270   22.6250 C   0  0  0  0  0  0  0  0  0  0  0  0
  -21.2560   -6.8640   23.8590 C   0  0  0  0  0  3  0  0  0  0  0  0
  -21.1600   -6.0340   24.9940 C   0  0  0  0  0  3  0  0  0  0  0  0
  -21.4810   -4.6680   24.8970 C   0  0  0  0  0  0  0  0  0  0  0  0
  -21.9020   -4.1280   23.6680 C   0  0  0  0  0  3  0  0  0  0  0  0
  -22.0000   -4.9550   22.5350 C   0  0  0  0  0  0  0  0  0  0  0  0
  -22.3850   -4.4250   21.3490 F   0  0  0  0  0  0  0  0  0  0  0  0
  -21.3820   -3.8690   25.9850 F   0  0  0  0  0  0  0  0  0  0  0  0
  -22.7980  -13.7090   21.1580 C   0  0  0  0  0  0  0  0  0  0  0  0
  -22.0650  -13.0170   22.0230 N   0  0  0  0  0  0  0  0  0  0  0  0
  -22.3610  -14.7260   20.6220 O   0  0  0  0  0  0  0  0  0  0  0  0
  -22.4300  -12.1940   22.4770 H   0  0  0  0  0  0  0  0  0  0  0  0
  -21.1240  -13.3170   22.2340 H   0  0  0  0  0  0  0  0  0  0  0  0
  -25.4020  -15.4090   20.3870 N   0  0  0  0  0  0  0  0  0  0  0  0
  -24.6240  -16.0510   20.4980 H   0  0  0  0  0  0  0  0  0  0  0  0
  -26.2540  -15.8680   20.0930 H   0  0  0  0  0  0  0  0  0  0  0  0
  -28.3000  -23.2090   20.7480 C   0  0  0  0  0 15  0  0  0  0  0  0
  -28.2210  -25.1240   20.3650 O   0  0  0  0  0  1  0  0  0  0  0  0
  -24.6320  -31.9030   23.2010 C   0  0  0  0  0  0  0  0  0  0  0  0
  -27.2560  -26.4800   20.4120 C   0  0  0  0  0  0  0  0  0  0  0  0
  -23.5020  -30.4430   21.5860 C   0  0  0  0  0  3  0  0  0  0  0  0
  -24.9930  -28.7110   20.2630 C   0  0  0  0  0  0  0  0  0  0  0  0
  -26.0970  -30.5150   21.5400 C   0  0  0  0  0  2  0  0  0  0  0  0
  -26.1850  -29.0280   20.9240 C   0  0  0  0  0  0  0  0  0  0  0  0
  -27.2860  -27.9560   20.9470 C   0  0  0  0  0  3  0  0  0  0  0  0
  -26.0180  -26.4680   19.6880 C   0  0  0  0  0  3  0  0  0  0  0  0
  -24.9690  -27.4590   19.6200 C   0  0  0  0  0  3  0  0  0  0  0  0
  -23.7890  -29.6910   20.2500 C   0  0  0  0  0  2  0  0  0  0  0  0
  -24.7720  -30.9970   22.1600 N   0  0  0  0  0  0  0  0  0  0  0  0
  -23.5200  -32.2120   23.6680 O   0  0  0  0  0  0  0  0  0  0  0  0
  -22.7510  -29.5080   22.5760 C   0  0  0  0  0  0  0  0  0  0  0  0
  -21.4170  -29.3560   22.4400 N   0  0  0  0  0  0  0  0  0  0  0  0
  -23.3870  -28.9110   23.4480 O   0  0  0  0  0  0  0  0  0  0  0  0
  -20.9470  -29.8860   21.7190 H   0  0  0  0  0  0  0  0  0  0  0  0
  -18.0260  -28.1260   22.9560 C   0  0  0  0  0  0  0  0  0  0  0  0
  -20.5850  -28.4290   23.2230 C   0  0  0  0  0  3  0  0  0  0  0  0
  -20.7010  -26.9860   22.6790 C   0  0  0  0  0  2  0  0  0  0  0  0
  -19.6090  -26.6350   21.6620 C   0  0  0  0  0  2  0  0  0  0  0  0
  -18.2220  -26.7720   22.2950 C   0  0  0  0  0  2  0  0  0  0  0  0
  -19.1350  -28.9110   23.3770 C   0  0  0  0  0  0  0  0  0  0  0  0
  -18.8920  -30.1730   23.9630 C   0  0  0  0  0  3  0  0  0  0  0  0
  -17.5790  -30.6520   24.1270 C   0  0  0  0  0  3  0  0  0  0  0  0
  -16.4880  -29.8660   23.7190 C   0  0  0  0  0  3  0  0  0  0  0  0
  -16.7130  -28.6040   23.1400 C   0  0  0  0  0  3  0  0  0  0  0  0
  -25.8590  -32.6040   23.8600 C   0  0  0  0  0  3  0  0  0  0  0  0
  -25.4980  -34.0080   24.1620 N   0  0  0  0  0  0  0  0  0  0  0  0
  -25.8330  -35.0760   23.4250 C   0  0  0  0  0  0  0  0  0  0  0  0
  -26.5270  -34.9850   22.4110 O   0  0  0  0  0  0  0  0  0  0  0  0
  -24.8830  -34.1510   24.9490 H   0  0  0  0  0  0  0  0  0  0  0  0
  -24.0900  -36.8630   23.0530 C   0  0  0  0  0  1  0  0  0  0  0  0
  -25.3230  -36.4630   23.8790 C   0  0  0  0  0  3  0  0  0  0  0  0
  -27.4320  -37.3870   24.7430 C   0  0  0  0  0  1  0  0  0  0  0  0
  -26.3440  -37.5320   23.7800 N   0  0  0  0  0  0  0  0  0  0  0  0
  -25.9220  -38.4470   23.9140 H   0  0  0  0  0  0  0  0  0  0  0  0
  -26.3340  -31.8930   25.1890 C   0  0  1  0  0  0  0  0  0  0  0  0
  -25.1990  -31.6680   26.2180 C   0  0  0  0  0  1  0  0  0  0  0  0
  -26.9620  -30.5160   24.8910 C   0  0  0  0  0  1  0  0  0  0  0  0
  -27.4380  -32.7380   25.8690 C   0  0  0  0  0  1  0  0  0  0  0  0
  2 10  1  0
  2  1  2  0
  3  1  1  0
  4  2  1  0
  5  3  2  0
  6  4  2  0
  6  5  1  0
  7  4  1  0
  8  5  1  0
  9  6  1  0
 11 16  1  0
 12 13  1  0
 12 11  1  0
 14 13  1  0
 14 21  1  0
 14 15  1  0
 16 10  1  0
 16 15  1  0
 17 10  2  0
 18 19  2  0
 19 38  1  0
 20 19  1  0
 20 23  1  0
 21 18  1  0
 21 22  1  0
 22 20  2  0
 23 24  1  0
 24 25  2  0
 26 29  1  0
 26 25  1  0
 27 26  2  0
 28 27  1  0
 28 23  2  0
 29 30  1  0
 30 31  1  0
 31 32  2  0
 33 32  1  0
 33 37  1  0
 34 33  2  0
 35 30  2  0
 35 34  1  0
 36 35  1  0
 38 39  1  0
 39 42  1  0
 39 41  1  0
 40 38  2  0
 43 44  1  0
 43 18  1  0
 45 43  1  0
 47 49  1  0
 48 59  2  0
 49 54  1  0
 50 58  1  0
 50 60  1  0
 51 53  1  0
 52 58  1  0
 53 54  2  0
 53 52  1  0
 55 49  2  0
 56 55  1  0
 56 51  2  0
 57 51  1  0
 57 50  1  0
 58 48  1  0
 60 62  2  0
 61 60  1  0
 63 61  1  0
 64 73  2  0
 64 69  1  0
 65 61  1  0
 65 69  1  0
 66 65  1  0
 67 68  1  0
 67 66  1  0
 68 64  1  0
 69 70  2  0
 70 71  1  0
 72 71  2  0
 73 72  1  0
 74 48  1  0
 74 75  1  0
 74 84  1  0
 75 78  1  0
 76 80  1  0
 76 75  1  0
 77 76  2  0
 80 79  1  0
 82 80  1  0
 82 83  1  0
 82 81  1  0
 84 87  1  1
 84 85  1  0
 86 84  1  0
M  ISO  4   2 100  10 100  46 101  47 101
M  END
>  <TORSDO>  (82) 
F 17

>  <SCORE>  (82) 
-16.077

>  <name>  (82) 
81

>  <ligand_id>  (82) 
81

>  <original_smiles>  (82) 
[H]c1c([H])c([H])c2c(c1[H])C([H])([H])C([H])([H])C([H])([H])C2([H])N([H])C(=O)C1([H])N(C(=O)C([H])(N([H])C(=O)C([H])(N([H])C([H])([H])[H])C([H])([H])[H])C(C([H])([H])[H])(C([H])([H])[H])C([H])([H])[H])C([H])([H])c2c([H])c(OC([H])([H])c3c([H])c(C(=O)N4C([H])([H])C([H])([H])C([H])([H])C([H])(n5nc(-c6c([H])c([H])c(Oc7c([H])c([H])c(F)c([H])c7F)c([H])c6[H])c(C(=O)N([H])[H])c5N([H])[H])C4([H])[H])c(C([H])([H])[H])c(C([H])([H])[H])c3C([H])([H])[H])c([H])c([H])c2C1([H])[H]

>  <smiles>  (82) 
[H]c1c([H])c([H])c2c(c1[H])C([H])([H])C([H])([H])C([H])([H])C2([H])N([H])C(=O)C1([H])N(C(=O)C([H])(N([H])C(=O)C([H])(N([H])C([H])([H])[H])C([H])([H])[H])C(C([H])([H])[H])(C([H])([H])[H])C([H])([H])[H])C([H])([H])c2c([H])c(OC([H])([H])c3c([H])c(C(=O)N4C([H])([H])C([H])([H])C([H])([H])C([H])(n5nc(-c6c([H])c([H])c(Oc7c([H])c([H])c(F)c([H])c7F)c([H])c6[H])c(C(=O)N([H])[H])c5N([H])[H])C4([H])[H])c(C([H])([H])[H])c(C([H])([H])[H])c3C([H])([H])[H])c([H])c([H])c2C1([H])[H]

$$$$
82:0:0
     RDKit          3D

 97107  0  0  1  0  0  0  0  0999 V2000
  -28.5950  -25.5410   23.5310 C   0  0  0  0  0  3  0  0  0  0  0  0
  -28.7910  -24.1610   23.4940 C   0  0  0  0  0  3  0  0  0  0  0  0
  -29.6410  -20.9050   18.8260 C   0  0  0  0  0  3  0  0  0  0  0  0
  -30.0110  -19.5210   18.9670 C   0  0  0  0  0  3  0  0  0  0  0  0
  -28.5570  -26.2620   22.3410 C   0  0  0  0  0  3  0  0  0  0  0  0
  -29.9220  -19.7790   21.3400 C   0  0  0  0  0  3  0  0  0  0  0  0
  -28.9600  -23.4710   22.2700 C   0  0  0  0  0  0  0  0  0  0  0  0
  -29.4090  -21.7820   19.9350 C   0  0  0  0  0  0  0  0  0  0  0  0
  -29.5190  -21.1650   21.2080 C   0  0  0  0  0  0  0  0  0  0  0  0
  -28.8930  -24.1900   21.0170 C   0  0  0  0  0  0  0  0  0  0  0  0
  -30.1960  -18.9050   20.2380 C   0  0  0  0  0  0  0  0  0  0  0  0
  -28.6640  -25.6600   21.0610 C   0  0  0  0  0  0  0  0  0  0  0  0
  -29.2190  -21.9810   22.4240 C   0  0  0  0  0  0  0  0  0  0  0  0
  -29.0780  -23.3020   19.7690 C   0  0  0  0  0  0  0  0  0  0  0  0
  -29.1900  -21.4380   23.5340 O   0  0  0  0  0  0  0  0  0  0  0  0
  -28.9710  -23.7900   18.6400 O   0  0  0  0  0  0  0  0  0  0  0  0
  -31.1320  -15.0940   19.9060 C   0  0  0  0  0  0  0  0  0  0  0  0
  -30.8550  -12.8040   18.9170 C   0  0  0  0  0  2  0  0  0  0  0  0
  -29.8370  -12.8100   17.7560 C   0  0  0  0  0  2  0  0  0  0  0  0
  -28.4050  -12.6280   18.2960 C   0  0  0  0  0  2  0  0  0  0  0  0
  -28.0930  -13.5390   19.5150 C   0  0  0  0  0  3  0  0  0  0  0  0
  -29.2320  -13.5220   20.5560 C   0  0  0  0  0  2  0  0  0  0  0  0
  -30.4640  -13.8890   19.8470 N   0  0  0  0  0  0  0  0  0  0  0  0
  -32.3170  -15.1190   19.5550 O   0  0  0  0  0  0  0  0  0  0  0  0
  -30.9240  -17.5290   20.4360 C   0  0  0  0  0  0  0  0  0  0  0  0
  -30.4190  -16.2790   20.0990 N   0  0  0  0  0  0  0  0  0  0  0  0
  -32.0320  -17.6230   20.9760 O   0  0  0  0  0  0  0  0  0  0  0  0
  -29.4230  -16.2350   19.9690 H   0  0  0  0  0  0  0  0  0  0  0  0
  -25.8140  -14.1050   20.5380 C   0  0  0  0  0  0  0  0  0  0  0  0
  -24.7640  -13.3230   20.9330 C   0  0  0  0  0  0  0  0  0  0  0  0
  -25.1770  -11.9710   20.7240 C   0  0  0  0  0  0  0  0  0  0  0  0
  -26.7990  -13.2310   20.1110 N   0  0  0  0  0  0  0  0  0  0  0  0
  -26.4300  -11.9360   20.2890 N   0  0  0  0  0  0  0  0  0  0  0  0
  -24.4300  -10.7150   20.8580 C   0  0  0  0  0  0  0  0  0  0  0  0
  -24.8200   -9.7170   21.7790 C   0  0  0  0  0  3  0  0  0  0  0  0
  -24.0720   -8.5260   21.9030 C   0  0  0  0  0  3  0  0  0  0  0  0
  -22.9190   -8.3250   21.1090 C   0  0  0  0  0  0  0  0  0  0  0  0
  -22.5470   -9.3120   20.1790 C   0  0  0  0  0  3  0  0  0  0  0  0
  -23.2960  -10.4940   20.0510 C   0  0  0  0  0  3  0  0  0  0  0  0
  -22.1470   -7.1880   21.1440 O   0  0  0  0  0  0  0  0  0  0  0  0
  -21.9050   -6.5200   22.3170 C   0  0  0  0  0  0  0  0  0  0  0  0
  -21.2960   -7.1520   23.4220 C   0  0  0  0  0  3  0  0  0  0  0  0
  -21.0010   -6.4090   24.5830 C   0  0  0  0  0  3  0  0  0  0  0  0
  -21.3050   -5.0350   24.6360 C   0  0  0  0  0  0  0  0  0  0  0  0
  -21.9080   -4.4040   23.5340 C   0  0  0  0  0  3  0  0  0  0  0  0
  -22.2030   -5.1440   22.3760 C   0  0  0  0  0  0  0  0  0  0  0  0
  -22.7660   -4.5260   21.3090 F   0  0  0  0  0  0  0  0  0  0  0  0
  -21.0150   -4.3180   25.7460 F   0  0  0  0  0  0  0  0  0  0  0  0
  -23.4150  -13.8060   21.3800 C   0  0  0  0  0  0  0  0  0  0  0  0
  -22.7640  -13.0690   22.2720 N   0  0  0  0  0  0  0  0  0  0  0  0
  -22.9520  -14.8700   20.9700 O   0  0  0  0  0  0  0  0  0  0  0  0
  -23.1550  -12.2090   22.6280 H   0  0  0  0  0  0  0  0  0  0  0  0
  -21.8640  -13.3780   22.6110 H   0  0  0  0  0  0  0  0  0  0  0  0
  -26.0000  -15.4830   20.4820 N   0  0  0  0  0  0  0  0  0  0  0  0
  -25.2530  -16.1250   20.7260 H   0  0  0  0  0  0  0  0  0  0  0  0
  -26.7980  -15.9480   20.0690 H   0  0  0  0  0  0  0  0  0  0  0  0
  -28.5800  -26.6290   20.0200 O   0  0  0  0  0  0  0  0  0  0  0  0
  -24.6620  -31.8540   23.1980 C   0  0  0  0  0  0  0  0  0  0  0  0
  -27.4890  -27.5290   19.9850 C   0  0  0  0  0  0  0  0  0  0  0  0
  -23.5390  -30.4950   21.4670 C   0  0  0  0  0  3  0  0  0  0  0  0
  -25.0740  -29.0710   19.9890 C   0  0  0  0  0  0  0  0  0  0  0  0
  -26.0660  -30.9190   21.3420 C   0  0  0  0  0  2  0  0  0  0  0  0
  -26.2150  -29.5760   20.6270 C   0  0  0  0  0  0  0  0  0  0  0  0
  -27.4310  -28.8240   20.6040 C   0  0  0  0  0  3  0  0  0  0  0  0
  -26.3320  -27.0890   19.3170 C   0  0  0  0  0  3  0  0  0  0  0  0
  -25.1380  -27.8390   19.3170 C   0  0  0  0  0  3  0  0  0  0  0  0
  -23.8030  -29.8970   20.0600 C   0  0  0  0  0  2  0  0  0  0  0  0
  -24.7730  -31.1050   22.0610 N   0  0  0  0  0  0  0  0  0  0  0  0
  -23.5610  -32.0640   23.7280 O   0  0  0  0  0  0  0  0  0  0  0  0
  -22.8990  -29.4100   22.3650 C   0  0  0  0  0  0  0  0  0  0  0  0
  -21.5770  -29.2140   22.2340 N   0  0  0  0  0  0  0  0  0  0  0  0
  -23.5920  -28.7510   23.1450 O   0  0  0  0  0  0  0  0  0  0  0  0
  -21.0740  -29.8020   21.5840 H   0  0  0  0  0  0  0  0  0  0  0  0
  -18.2200  -27.9500   22.7050 C   0  0  0  0  0  0  0  0  0  0  0  0
  -20.7820  -28.2140   22.9480 C   0  0  0  0  0  3  0  0  0  0  0  0
  -20.8830  -26.8300   22.2660 C   0  0  0  0  0  2  0  0  0  0  0  0
  -19.7670  -26.5730   21.2490 C   0  0  0  0  0  2  0  0  0  0  0  0
  -18.3970  -26.6560   21.9270 C   0  0  0  0  0  2  0  0  0  0  0  0
  -19.3410  -28.6890   23.1710 C   0  0  0  0  0  0  0  0  0  0  0  0
  -19.1220  -29.9010   23.8610 C   0  0  0  0  0  3  0  0  0  0  0  0
  -17.8170  -30.3750   24.0890 C   0  0  0  0  0  3  0  0  0  0  0  0
  -16.7110  -29.6330   23.6390 C   0  0  0  0  0  3  0  0  0  0  0  0
  -16.9140  -28.4220   22.9540 C   0  0  0  0  0  3  0  0  0  0  0  0
  -25.9090  -32.5030   23.8740 C   0  0  0  0  0  3  0  0  0  0  0  0
  -25.5590  -33.8890   24.2200 N   0  0  0  0  0  0  0  0  0  0  0  0
  -25.8820  -34.9630   23.4860 C   0  0  0  0  0  0  0  0  0  0  0  0
  -26.5760  -34.8910   22.4670 O   0  0  0  0  0  0  0  0  0  0  0  0
  -24.9430  -34.0160   25.0090 H   0  0  0  0  0  0  0  0  0  0  0  0
  -24.1120  -36.7180   23.1360 C   0  0  0  0  0  1  0  0  0  0  0  0
  -25.3530  -36.3320   23.9570 C   0  0  0  0  0  3  0  0  0  0  0  0
  -27.4530  -37.2620   24.8300 C   0  0  0  0  0  1  0  0  0  0  0  0
  -26.3580  -37.4130   23.8730 N   0  0  0  0  0  0  0  0  0  0  0  0
  -25.9260  -38.3190   24.0280 H   0  0  0  0  0  0  0  0  0  0  0  0
  -26.4020  -31.7210   25.1530 C   0  0  1  0  0  0  0  0  0  0  0  0
  -25.2770  -31.4250   26.1730 C   0  0  0  0  0  1  0  0  0  0  0  0
  -27.0450  -30.3710   24.7570 C   0  0  0  0  0  1  0  0  0  0  0  0
  -27.4960  -32.5380   25.8780 C   0  0  0  0  0  1  0  0  0  0  0  0
  2  1  1  0
  3  4  2  0
  3  8  1  0
  4 11  1  0
  5  1  2  0
  7 13  1  0
  7  2  2  0
  8  9  2  0
  9  6  1  0
  9 13  1  0
 10 12  2  0
 10  7  1  0
 11 25  1  0
 11  6  2  0
 12  5  1  0
 13 15  2  0
 14  8  1  0
 14 10  1  0
 16 14  2  0
 17 26  1  0
 18 23  1  0
 19 20  1  0
 19 18  1  0
 21 20  1  0
 21 32  1  0
 21 22  1  0
 23 17  1  0
 23 22  1  0
 24 17  2  0
 25 27  2  0
 26 25  1  0
 28 26  1  0
 29 30  2  0
 30 49  1  0
 31 34  1  0
 31 30  1  0
 32 33  1  0
 32 29  1  0
 33 31  2  0
 34 35  1  0
 35 36  2  0
 37 40  1  0
 37 36  1  0
 38 37  2  0
 39 38  1  0
 39 34  2  0
 40 41  1  0
 41 46  2  0
 41 42  1  0
 42 43  2  0
 43 44  1  0
 44 48  1  0
 45 44  2  0
 46 45  1  0
 47 46  1  0
 49 50  1  0
 50 53  1  0
 50 52  1  0
 51 49  2  0
 54 29  1  0
 54 55  1  0
 56 54  1  0
 57 12  1  0
 58 69  2  0
 59 57  1  0
 59 64  1  0
 60 68  1  0
 60 70  1  0
 61 67  1  0
 61 63  1  0
 62 68  1  0
 63 62  1  0
 64 63  2  0
 65 66  1  0
 65 59  2  0
 66 61  2  0
 67 60  1  0
 68 58  1  0
 70 72  2  0
 71 70  1  0
 73 71  1  0
 74 83  2  0
 74 79  1  0
 75 71  1  0
 75 79  1  0
 76 75  1  0
 77 78  1  0
 77 76  1  0
 78 74  1  0
 79 80  2  0
 80 81  1  0
 82 81  2  0
 83 82  1  0
 84 58  1  0
 84 85  1  0
 84 94  1  0
 85 88  1  0
 86 90  1  0
 86 85  1  0
 87 86  2  0
 90 89  1  0
 92 90  1  0
 92 93  1  0
 92 91  1  0
 94 97  1  1
 94 95  1  0
 96 94  1  0
M  ISO  4  12 101  17 100  26 100  57 101
M  END
>  <TORSDO>  (83) 
F 16

>  <SCORE>  (83) 
-13.960

>  <name>  (83) 
82

>  <ligand_id>  (83) 
82

>  <original_smiles>  (83) 
[H]c1c([H])c(Oc2c([H])c([H])c3c(c2[H])C([H])([H])N(C(=O)C([H])(N([H])C(=O)C([H])(N([H])C([H])([H])[H])C([H])([H])[H])C(C([H])([H])[H])(C([H])([H])[H])C([H])([H])[H])C([H])(C(=O)N([H])C2([H])c4c([H])c([H])c([H])c([H])c4C([H])([H])C([H])([H])C2([H])[H])C3([H])[H])c2c(c1[H])C(=O)c1c([H])c(C(=O)N([H])C(=O)N3C([H])([H])C([H])([H])C([H])([H])C([H])(n4nc(-c5c([H])c([H])c(Oc6c([H])c([H])c(F)c([H])c6F)c([H])c5[H])c(C(=O)N([H])[H])c4N([H])[H])C3([H])[H])c([H])c([H])c1C2=O

>  <smiles>  (83) 
[H]c1c([H])c(Oc2c([H])c([H])c3c(c2[H])C([H])([H])N(C(=O)C([H])(N([H])C(=O)C([H])(N([H])C([H])([H])[H])C([H])([H])[H])C(C([H])([H])[H])(C([H])([H])[H])C([H])([H])[H])C([H])(C(=O)N([H])C2([H])c4c([H])c([H])c([H])c([H])c4C([H])([H])C([H])([H])C2([H])[H])C3([H])[H])c2c(c1[H])C(=O)c1c([H])c(C(=O)N([H])C(=O)N3C([H])([H])C([H])([H])C([H])([H])C([H])(n4nc(-c5c([H])c([H])c(Oc6c([H])c([H])c(F)c([H])c6F)c([H])c5[H])c(C(=O)N([H])[H])c4N([H])[H])C3([H])[H])c([H])c([H])c1C2=O

$$$$
83:0:0
     RDKit          3D

 92100  0  0  1  0  0  0  0  0999 V2000
  -29.5050  -20.5750   19.5710 C   0  0  0  0  0  0  0  0  0  0  0  0
  -28.7630  -21.7150   19.9950 N   0  0  0  0  0  0  0  0  0  0  0  0
  -30.5610  -20.7640   18.9580 O   0  0  0  0  0  0  0  0  0  0  0  0
  -27.9910  -21.4520   20.5920 H   0  0  0  0  0  0  0  0  0  0  0  0
  -29.9600  -17.8610   20.1540 C   0  0  0  0  0  3  0  0  0  0  0  0
  -28.1990  -16.2560   20.0700 C   0  0  0  0  0  3  0  0  0  0  0  0
  -29.5900  -16.4000   20.2430 C   0  0  0  0  0  0  0  0  0  0  0  0
  -29.0650  -19.0220   19.7640 C   0  0  0  0  0  0  0  0  0  0  0  0
  -27.3100  -17.2750   19.6290 C   0  0  0  0  0  0  0  0  0  0  0  0
  -27.7630  -18.6000   19.3480 C   0  0  0  0  0  0  0  0  0  0  0  0
  -26.9190  -19.4930   18.4310 C   0  0  0  0  0  1  0  0  0  0  0  0
  -30.5200  -15.0740   20.5560 C   0  0  0  0  0  0  0  0  0  0  0  0
  -30.7820  -12.5420   20.3330 C   0  0  0  0  0  2  0  0  0  0  0  0
  -30.0090  -12.0160   19.0910 C   0  0  0  0  0  2  0  0  0  0  0  0
  -28.5080  -11.7830   19.3670 C   0  0  0  0  0  2  0  0  0  0  0  0
  -27.8980  -12.9100   20.2390 C   0  0  0  0  0  3  0  0  0  0  0  0
  -28.8160  -13.2680   21.4310 C   0  0  0  0  0  2  0  0  0  0  0  0
  -30.0800  -13.7630   20.8480 N   0  0  0  0  0  0  0  0  0  0  0  0
  -31.7390  -15.1590   20.3690 O   0  0  0  0  0  0  0  0  0  0  0  0
  -25.4560  -13.5110   20.7140 C   0  0  0  0  0  0  0  0  0  0  0  0
  -24.3650  -12.7690   21.0800 C   0  0  0  0  0  0  0  0  0  0  0  0
  -24.8150  -11.4180   21.1260 C   0  0  0  0  0  0  0  0  0  0  0  0
  -26.5180  -12.6260   20.6310 N   0  0  0  0  0  0  0  0  0  0  0  0
  -26.1310  -11.3530   20.9210 N   0  0  0  0  0  0  0  0  0  0  0  0
  -24.0480  -10.1750   21.2830 C   0  0  0  0  0  0  0  0  0  0  0  0
  -24.4490   -9.1750   22.1940 C   0  0  0  0  0  3  0  0  0  0  0  0
  -23.6840   -7.9970   22.3480 C   0  0  0  0  0  3  0  0  0  0  0  0
  -22.5030   -7.8140   21.5880 C   0  0  0  0  0  0  0  0  0  0  0  0
  -22.1200   -8.8050   20.6660 C   0  0  0  0  0  3  0  0  0  0  0  0
  -22.8850   -9.9720   20.5100 C   0  0  0  0  0  3  0  0  0  0  0  0
  -21.7130   -6.6890   21.6520 O   0  0  0  0  0  0  0  0  0  0  0  0
  -21.6880   -5.8870   22.7670 C   0  0  0  0  0  0  0  0  0  0  0  0
  -21.3500   -6.3930   24.0400 C   0  0  0  0  0  3  0  0  0  0  0  0
  -21.2670   -5.5200   25.1460 C   0  0  0  0  0  3  0  0  0  0  0  0
  -21.5180   -4.1450   24.9770 C   0  0  0  0  0  0  0  0  0  0  0  0
  -21.8500   -3.6400   23.7080 C   0  0  0  0  0  3  0  0  0  0  0  0
  -21.9350   -4.5080   22.6060 C   0  0  0  0  0  0  0  0  0  0  0  0
  -22.2310   -4.0110   21.3800 F   0  0  0  0  0  0  0  0  0  0  0  0
  -21.4360   -3.3070   26.0360 F   0  0  0  0  0  0  0  0  0  0  0  0
  -22.9640  -13.2830   21.2300 C   0  0  0  0  0  0  0  0  0  0  0  0
  -22.1670  -12.6390   22.0730 N   0  0  0  0  0  0  0  0  0  0  0  0
  -22.5770  -14.2880   20.6360 O   0  0  0  0  0  0  0  0  0  0  0  0
  -22.5060  -11.8390   22.5840 H   0  0  0  0  0  0  0  0  0  0  0  0
  -21.2200  -12.9640   22.2210 H   0  0  0  0  0  0  0  0  0  0  0  0
  -25.6200  -14.8400   20.3850 N   0  0  0  0  0  0  0  0  0  0  0  0
  -24.7990  -15.3780   20.1410 H   0  0  0  0  0  0  0  0  0  0  0  0
  -26.4580  -15.1500   19.9040 H   0  0  0  0  0  0  0  0  0  0  0  0
  -24.7570  -17.6620   20.0230 C   0  0  0  0  0  1  0  0  0  0  0  0
  -25.8690  -16.8310   19.3460 C   0  0  0  0  0  2  0  0  0  0  0  0
  -28.7660  -23.2610   19.5650 C   0  0  0  0  0  3  0  0  0  0  0  0
  -28.3530  -24.5880   20.5520 C   0  0  0  0  0  3  0  0  0  0  0  0
  -28.3540  -26.1190   20.2550 O   0  0  0  0  0  0  0  0  0  0  0  0
  -24.5860  -31.7550   23.2590 C   0  0  0  0  0  0  0  0  0  0  0  0
  -27.2310  -27.0290   20.3050 C   0  0  0  0  0  0  0  0  0  0  0  0
  -23.4030  -30.3320   21.6240 C   0  0  0  0  0  3  0  0  0  0  0  0
  -24.8860  -28.7340   20.2270 C   0  0  0  0  0  0  0  0  0  0  0  0
  -25.9460  -30.6090   21.4700 C   0  0  0  0  0  2  0  0  0  0  0  0
  -26.0420  -29.2020   20.8510 C   0  0  0  0  0  0  0  0  0  0  0  0
  -27.2200  -28.3720   20.8710 C   0  0  0  0  0  3  0  0  0  0  0  0
  -26.0400  -26.6480   19.6500 C   0  0  0  0  0  3  0  0  0  0  0  0
  -24.8950  -27.4730   19.6000 C   0  0  0  0  0  3  0  0  0  0  0  0
  -23.6420  -29.6230   20.2650 C   0  0  0  0  0  2  0  0  0  0  0  0
  -24.6710  -30.9250   22.1830 N   0  0  0  0  0  0  0  0  0  0  0  0
  -23.4910  -32.0550   23.7730 O   0  0  0  0  0  0  0  0  0  0  0  0
  -22.7060  -29.3400   22.5780 C   0  0  0  0  0  0  0  0  0  0  0  0
  -21.3890  -29.1630   22.4070 N   0  0  0  0  0  0  0  0  0  0  0  0
  -23.3510  -28.7330   23.4360 O   0  0  0  0  0  0  0  0  0  0  0  0
  -20.9190  -29.6860   21.6910 H   0  0  0  0  0  0  0  0  0  0  0  0
  -17.9920  -28.1130   22.9250 C   0  0  0  0  0  0  0  0  0  0  0  0
  -20.5470  -28.2540   23.1830 C   0  0  0  0  0  3  0  0  0  0  0  0
  -20.5870  -26.8070   22.6300 C   0  0  0  0  0  2  0  0  0  0  0  0
  -19.4630  -26.5250   21.6180 C   0  0  0  0  0  2  0  0  0  0  0  0
  -18.0830  -26.7620   22.2400 C   0  0  0  0  0  2  0  0  0  0  0  0
  -19.1410  -28.8270   23.3410 C   0  0  0  0  0  0  0  0  0  0  0  0
  -18.9880  -30.1000   23.9380 C   0  0  0  0  0  3  0  0  0  0  0  0
  -17.7010  -30.6490   24.1350 C   0  0  0  0  0  3  0  0  0  0  0  0
  -16.5640  -29.9110   23.7780 C   0  0  0  0  0  3  0  0  0  0  0  0
  -16.7160  -28.6570   23.1590 C   0  0  0  0  0  3  0  0  0  0  0  0
  -25.8690  -32.3900   23.8930 C   0  0  0  0  0  3  0  0  0  0  0  0
  -26.3490  -31.6340   25.1880 C   0  0  1  0  0  0  0  0  0  0  0  0
  -25.2200  -31.4220   26.2250 C   0  0  0  0  0  1  0  0  0  0  0  0
  -26.9190  -30.2460   24.8210 C   0  0  0  0  0  1  0  0  0  0  0  0
  -27.4760  -32.4230   25.8920 C   0  0  0  0  0  1  0  0  0  0  0  0
  -25.5670  -33.7890   24.1940 N   0  0  0  0  0  0  0  0  0  0  0  0
  -25.9280  -34.8450   23.4470 C   0  0  0  0  0  0  0  0  0  0  0  0
  -26.6200  -34.7350   22.4290 O   0  0  0  0  0  0  0  0  0  0  0  0
  -24.8950  -33.9270   24.9330 H   0  0  0  0  0  0  0  0  0  0  0  0
  -24.1990  -36.6350   23.0770 C   0  0  0  0  0  1  0  0  0  0  0  0
  -25.4460  -36.2400   23.8830 C   0  0  0  0  0  3  0  0  0  0  0  0
  -27.5900  -37.1160   24.7000 C   0  0  0  0  0  1  0  0  0  0  0  0
  -26.4840  -37.2840   23.7610 N   0  0  0  0  0  0  0  0  0  0  0  0
  -26.0960  -38.2080   23.9110 H   0  0  0  0  0  0  0  0  0  0  0  0
  1  8  1  0
  1  2  1  0
  2  4  1  0
  3  1  2  0
  5  7  1  0
  6  7  2  0
  7 12  1  0
  8  5  2  0
  9  6  1  0
 10  9  2  0
 10  8  1  0
 11 10  1  0
 12 18  1  0
 13 18  1  0
 14 15  1  0
 14 13  1  0
 16 15  1  0
 16 23  1  0
 16 17  1  0
 18 17  1  0
 19 12  2  0
 20 21  2  0
 21 22  1  0
 21 40  1  0
 22 25  1  0
 23 20  1  0
 23 24  1  0
 24 22  2  0
 25 26  1  0
 26 27  2  0
 28 31  1  0
 28 27  1  0
 29 28  2  0
 30 29  1  0
 30 25  2  0
 31 32  1  0
 32 33  1  0
 33 34  2  0
 35 34  1  0
 35 39  1  0
 36 35  2  0
 37 32  2  0
 37 36  1  0
 38 37  1  0
 40 41  1  0
 41 44  1  0
 41 43  1  0
 42 40  2  0
 45 20  1  0
 46 45  1  0
 47 45  1  0
 49  9  1  0
 49 48  1  0
 50  2  1  0
 50 51  2  0
 52 54  1  0
 52 51  1  0
 53 64  2  0
 54 59  1  0
 55 63  1  0
 55 65  1  0
 56 62  1  0
 56 58  1  0
 57 63  1  0
 58 59  2  0
 58 57  1  0
 60 54  2  0
 61 60  1  0
 61 56  2  0
 62 55  1  0
 63 53  1  0
 65 67  2  0
 66 65  1  0
 68 66  1  0
 69 78  2  0
 69 74  1  0
 70 66  1  0
 70 74  1  0
 71 70  1  0
 72 73  1  0
 72 71  1  0
 73 69  1  0
 74 75  2  0
 75 76  1  0
 77 76  2  0
 78 77  1  0
 79 53  1  0
 79 84  1  0
 79 80  1  0
 80 83  1  1
 80 81  1  0
 82 80  1  0
 84 87  1  0
 85 89  1  0
 85 84  1  0
 86 85  2  0
 89 88  1  0
 91 89  1  0
 91 92  1  0
 91 90  1  0
M  ISO  4   7 100  12 100  51 101  52 101
M  END
>  <TORSDO>  (84) 
F 20

>  <SCORE>  (84) 
-13.132

>  <name>  (84) 
83

>  <ligand_id>  (84) 
83

>  <original_smiles>  (84) 
[H]c1c([H])c([H])c2c(c1[H])C([H])([H])C([H])([H])C([H])([H])C2([H])N([H])C(=O)C1([H])N(C(=O)C([H])(N([H])C(=O)C([H])(N([H])C([H])([H])[H])C([H])([H])[H])C(C([H])([H])[H])(C([H])([H])[H])C([H])([H])[H])C([H])([H])c2c([H])c(OC([H])([H])C([H])([H])N([H])C(=O)c3c([H])c(C(=O)N4C([H])([H])C([H])([H])C([H])([H])C([H])(n5nc(-c6c([H])c([H])c(Oc7c([H])c([H])c(F)c([H])c7F)c([H])c6[H])c(C(=O)N([H])[H])c5N([H])[H])C4([H])[H])c([H])c(C([H])([H])C([H])([H])[H])c3C([H])([H])[H])c([H])c([H])c2C1([H])[H]

>  <smiles>  (84) 
[H]c1c([H])c([H])c2c(c1[H])C([H])([H])C([H])([H])C([H])([H])C2([H])N([H])C(=O)C1([H])N(C(=O)C([H])(N([H])C(=O)C([H])(N([H])C([H])([H])[H])C([H])([H])[H])C(C([H])([H])[H])(C([H])([H])[H])C([H])([H])[H])C([H])([H])c2c([H])c(OC([H])([H])C([H])([H])N([H])C(=O)c3c([H])c(C(=O)N4C([H])([H])C([H])([H])C([H])([H])C([H])(n5nc(-c6c([H])c([H])c(Oc7c([H])c([H])c(F)c([H])c7F)c([H])c6[H])c(C(=O)N([H])[H])c5N([H])[H])C4([H])[H])c([H])c(C([H])([H])C([H])([H])[H])c3C([H])([H])[H])c([H])c([H])c2C1([H])[H]

$$$$
84:0:0
     RDKit          3D

 89 97  0  0  1  0  0  0  0  0999 V2000
  -29.7570  -22.5250   19.1120 C   0  0  0  0  0  3  0  0  0  0  0  0
  -29.0400  -22.8130   17.9290 C   0  0  0  0  0  3  0  0  0  0  0  0
  -27.1280  -23.5770   19.2590 C   0  0  0  0  0  3  0  0  0  0  0  0
  -28.9820  -22.4830   20.2840 C   0  0  0  0  0  0  0  0  0  0  0  0
  -27.6740  -23.1800   18.0130 C   0  0  0  0  0  0  0  0  0  0  0  0
  -28.0520  -23.8560   20.2840 C   0  0  0  0  0  0  0  0  0  0  0  0
  -26.9090  -23.1850   16.8810 O   0  0  0  0  0  0  0  0  0  0  0  0
  -25.9960  -23.4080   17.0390 H   0  0  0  0  0  0  0  0  0  0  0  0
  -28.1850  -25.4880   20.4420 O   0  0  0  0  0  0  0  0  0  0  0  0
  -24.6980  -31.9130   23.2930 C   0  0  0  0  0  0  0  0  0  0  0  0
  -27.2340  -26.7480   20.3660 C   0  0  0  0  0  0  0  0  0  0  0  0
  -23.5250  -30.5020   21.6640 C   0  0  0  0  0  3  0  0  0  0  0  0
  -24.9830  -28.8410   20.2790 C   0  0  0  0  0  0  0  0  0  0  0  0
  -26.1080  -30.6130   21.5790 C   0  0  0  0  0  2  0  0  0  0  0  0
  -26.1710  -29.1690   20.9400 C   0  0  0  0  0  0  0  0  0  0  0  0
  -27.2700  -28.1490   20.9670 C   0  0  0  0  0  3  0  0  0  0  0  0
  -26.0350  -26.6910   19.5980 C   0  0  0  0  0  3  0  0  0  0  0  0
  -24.9600  -27.6270   19.5820 C   0  0  0  0  0  3  0  0  0  0  0  0
  -23.7780  -29.7950   20.3030 C   0  0  0  0  0  2  0  0  0  0  0  0
  -24.8020  -31.0450   22.2290 N   0  0  0  0  0  0  0  0  0  0  0  0
  -23.6000  -32.2230   23.7880 O   0  0  0  0  0  0  0  0  0  0  0  0
  -22.7960  -29.5340   22.6370 C   0  0  0  0  0  0  0  0  0  0  0  0
  -21.4650  -29.3720   22.4940 N   0  0  0  0  0  0  0  0  0  0  0  0
  -23.4410  -28.9250   23.4940 O   0  0  0  0  0  0  0  0  0  0  0  0
  -20.9940  -29.9100   21.7810 H   0  0  0  0  0  0  0  0  0  0  0  0
  -18.0770  -28.1480   22.9790 C   0  0  0  0  0  0  0  0  0  0  0  0
  -20.6330  -28.4440   23.2710 C   0  0  0  0  0  3  0  0  0  0  0  0
  -20.7520  -27.0020   22.7240 C   0  0  0  0  0  2  0  0  0  0  0  0
  -19.6670  -26.6540   21.6990 C   0  0  0  0  0  2  0  0  0  0  0  0
  -18.2760  -26.7930   22.3220 C   0  0  0  0  0  2  0  0  0  0  0  0
  -19.1820  -28.9310   23.4100 C   0  0  0  0  0  0  0  0  0  0  0  0
  -18.9390  -30.1940   23.9890 C   0  0  0  0  0  3  0  0  0  0  0  0
  -17.6240  -30.6780   24.1380 C   0  0  0  0  0  3  0  0  0  0  0  0
  -16.5350  -29.8940   23.7210 C   0  0  0  0  0  3  0  0  0  0  0  0
  -16.7630  -28.6310   23.1470 C   0  0  0  0  0  3  0  0  0  0  0  0
  -25.9550  -32.5730   23.9390 C   0  0  0  0  0  3  0  0  0  0  0  0
  -26.4350  -31.8290   25.2480 C   0  0  1  0  0  0  0  0  0  0  0  0
  -25.3150  -31.6150   26.2930 C   0  0  0  0  0  1  0  0  0  0  0  0
  -27.0310  -30.4430   24.9170 C   0  0  0  0  0  1  0  0  0  0  0  0
  -27.5710  -32.6380   25.9190 C   0  0  0  0  0  1  0  0  0  0  0  0
  -25.6280  -33.9770   24.2540 N   0  0  0  0  0  0  0  0  0  0  0  0
  -25.9360  -35.0330   23.4890 C   0  0  0  0  0  0  0  0  0  0  0  0
  -26.5830  -34.9270   22.4430 O   0  0  0  0  0  0  0  0  0  0  0  0
  -25.0470  -34.1320   25.0650 H   0  0  0  0  0  0  0  0  0  0  0  0
  -24.1750  -36.8120   23.1960 C   0  0  0  0  0  1  0  0  0  0  0  0
  -25.4580  -36.4270   23.9510 C   0  0  0  0  0  3  0  0  0  0  0  0
  -27.6160  -37.3570   24.6720 C   0  0  0  0  0  1  0  0  0  0  0  0
  -26.4730  -37.4900   23.7730 N   0  0  0  0  0  0  0  0  0  0  0  0
  -26.0630  -38.4090   23.9140 H   0  0  0  0  0  0  0  0  0  0  0  0
  -28.8370  -20.6360   20.6180 C   0  0  0  0  0  3  0  0  0  0  0  0
  -29.8030  -18.9580   20.2760 C   0  0  0  0  0  3  0  0  0  0  0  0
  -30.3310  -15.7840   20.2050 C   0  0  0  0  0  0  0  0  0  0  0  0
  -30.3830  -13.2570   19.3030 C   0  0  0  0  0  2  0  0  0  0  0  0
  -29.4600  -12.8910   18.1040 C   0  0  0  0  0  2  0  0  0  0  0  0
  -28.0460  -12.5290   18.5840 C   0  0  0  0  0  2  0  0  0  0  0  0
  -27.5730  -13.4900   19.6990 C   0  0  0  0  0  3  0  0  0  0  0  0
  -28.6370  -13.7740   20.7870 C   0  0  0  0  0  2  0  0  0  0  0  0
  -29.7920  -14.4200   20.1160 N   0  0  0  0  0  0  0  0  0  0  0  0
  -31.5530  -15.7070   19.9610 O   0  0  0  0  0  0  0  0  0  0  0  0
  -29.6070  -17.1690   20.3710 N   0  0  0  0  0  0  0  0  0  0  0  0
  -28.6360  -16.9660   20.5560 H   0  0  0  0  0  0  0  0  0  0  0  0
  -25.2330  -13.9900   20.5440 C   0  0  0  0  0  0  0  0  0  0  0  0
  -24.1890  -13.1980   20.9270 C   0  0  0  0  0  0  0  0  0  0  0  0
  -24.6640  -11.8520   20.8540 C   0  0  0  0  0  0  0  0  0  0  0  0
  -26.2730  -13.1300   20.2490 N   0  0  0  0  0  0  0  0  0  0  0  0
  -25.9480  -11.8350   20.5030 N   0  0  0  0  0  0  0  0  0  0  0  0
  -23.9490  -10.5820   21.0400 C   0  0  0  0  0  0  0  0  0  0  0  0
  -24.3930   -9.6070   21.9600 C   0  0  0  0  0  3  0  0  0  0  0  0
  -23.6730   -8.4060   22.1370 C   0  0  0  0  0  3  0  0  0  0  0  0
  -22.4920   -8.1700   21.3940 C   0  0  0  0  0  0  0  0  0  0  0  0
  -22.0650   -9.1330   20.4620 C   0  0  0  0  0  3  0  0  0  0  0  0
  -22.7870  -10.3250   20.2830 C   0  0  0  0  0  3  0  0  0  0  0  0
  -21.7410   -7.0230   21.4810 O   0  0  0  0  0  0  0  0  0  0  0  0
  -21.6920   -6.2790   22.6330 C   0  0  0  0  0  0  0  0  0  0  0  0
  -21.2320   -6.8220   23.8530 C   0  0  0  0  0  3  0  0  0  0  0  0
  -21.1330   -6.0030   24.9960 C   0  0  0  0  0  3  0  0  0  0  0  0
  -21.4840   -4.6420   24.9210 C   0  0  0  0  0  0  0  0  0  0  0  0
  -21.9370   -4.0980   23.7060 C   0  0  0  0  0  3  0  0  0  0  0  0
  -22.0380   -4.9130   22.5650 C   0  0  0  0  0  0  0  0  0  0  0  0
  -22.4550   -4.3790   21.3930 F   0  0  0  0  0  0  0  0  0  0  0  0
  -21.3820   -3.8540   26.0160 F   0  0  0  0  0  0  0  0  0  0  0  0
  -22.7970  -13.6620   21.2360 C   0  0  0  0  0  0  0  0  0  0  0  0
  -22.0920  -12.9530   22.1100 N   0  0  0  0  0  0  0  0  0  0  0  0
  -22.3440  -14.6920   20.7380 O   0  0  0  0  0  0  0  0  0  0  0  0
  -22.4710  -12.1210   22.5360 H   0  0  0  0  0  0  0  0  0  0  0  0
  -21.1570  -13.2460   22.3550 H   0  0  0  0  0  0  0  0  0  0  0  0
  -25.3810  -15.3650   20.3880 N   0  0  0  0  0  0  0  0  0  0  0  0
  -24.6140  -16.0130   20.5410 H   0  0  0  0  0  0  0  0  0  0  0  0
  -26.2050  -15.8110   20.0060 H   0  0  0  0  0  0  0  0  0  0  0  0
  1  4  1  0
  2  5  1  0
  2  1  2  0
  3  6  1  0
  4  6  2  3
  4 50  1  0
  5  3  2  0
  6  9  1  0
  7  8  1  0
  7  5  1  0
 10 21  2  0
 11  9  1  0
 11 16  1  0
 12 20  1  0
 12 22  1  0
 13 19  1  0
 13 15  1  0
 14 20  1  0
 15 16  2  0
 15 14  1  0
 17 11  2  0
 18 17  1  0
 18 13  2  0
 19 12  1  0
 20 10  1  0
 22 24  2  0
 23 22  1  0
 25 23  1  0
 26 35  2  0
 26 31  1  0
 27 23  1  0
 27 31  1  0
 28 27  1  0
 29 30  1  0
 29 28  1  0
 30 26  1  0
 31 32  2  0
 32 33  1  0
 34 33  2  0
 35 34  1  0
 36 10  1  0
 36 41  1  0
 36 37  1  0
 37 40  1  1
 37 38  1  0
 39 37  1  0
 41 44  1  0
 42 46  1  0
 42 41  1  0
 43 42  2  0
 46 45  1  0
 48 49  1  0
 48 46  1  0
 48 47  1  0
 51 60  1  0
 51 50  2  0
 52 60  1  0
 53 58  1  0
 54 55  1  0
 54 53  1  0
 56 55  1  0
 56 65  1  0
 56 57  1  0
 58 52  1  0
 58 57  1  0
 59 52  2  0
 60 61  1  0
 62 63  2  0
 63 82  1  0
 64 63  1  0
 64 67  1  0
 65 66  1  0
 65 62  1  0
 66 64  2  0
 67 68  1  0
 68 69  2  0
 70 73  1  0
 70 69  1  0
 71 70  2  0
 72 71  1  0
 72 67  2  0
 73 74  1  0
 74 75  1  0
 75 76  2  0
 77 76  1  0
 77 81  1  0
 78 77  2  0
 79 74  2  0
 79 78  1  0
 80 79  1  0
 82 83  1  0
 83 86  1  0
 83 85  1  0
 84 82  2  0
 87 88  1  0
 87 62  1  0
 89 87  1  0
M  ISO  4   6 101   9 101  52 100  60 100
M  END
>  <TORSDO>  (85) 
F 19

>  <SCORE>  (85) 
-15.178

>  <name>  (85) 
84

>  <ligand_id>  (85) 
84

>  <original_smiles>  (85) 
[H]Oc1c([H])c([H])c(C([H])([H])C([H])([H])N([H])C(=O)N2C([H])([H])C([H])([H])C([H])([H])C([H])(n3nc(-c4c([H])c([H])c(Oc5c([H])c([H])c(F)c([H])c5F)c([H])c4[H])c(C(=O)N([H])[H])c3N([H])[H])C2([H])[H])c(Oc2c([H])c([H])c3c(c2[H])C([H])([H])N(C(=O)C([H])(N([H])C(=O)C([H])(N([H])C([H])([H])[H])C([H])([H])[H])C(C([H])([H])[H])(C([H])([H])[H])C([H])([H])[H])C([H])(C(=O)N([H])C2([H])c4c([H])c([H])c([H])c([H])c4C([H])([H])C([H])([H])C2([H])[H])C3([H])[H])c1[H]

>  <smiles>  (85) 
[H]Oc1c([H])c([H])c(C([H])([H])C([H])([H])N([H])C(=O)N2C([H])([H])C([H])([H])C([H])([H])C([H])(n3nc(-c4c([H])c([H])c(Oc5c([H])c([H])c(F)c([H])c5F)c([H])c4[H])c(C(=O)N([H])[H])c3N([H])[H])C2([H])[H])c(Oc2c([H])c([H])c3c(c2[H])C([H])([H])N(C(=O)C([H])(N([H])C(=O)C([H])(N([H])C([H])([H])[H])C([H])([H])[H])C(C([H])([H])[H])(C([H])([H])[H])C([H])([H])[H])C([H])(C(=O)N([H])C2([H])c4c([H])c([H])c([H])c([H])c4C([H])([H])C([H])([H])C2([H])[H])C3([H])[H])c1[H]

$$$$
85:0:0
     RDKit          3D

 95104  0  0  1  0  0  0  0  0999 V2000
  -30.1210  -17.3460   19.1800 C   0  0  0  0  0  3  0  0  0  0  0  0
  -30.1760  -18.5230   21.6730 C   0  0  0  0  0  3  0  0  0  0  0  0
  -30.4800  -16.4550   20.2560 C   0  0  0  0  0  0  0  0  0  0  0  0
  -29.8550  -19.4070   20.5930 C   0  0  0  0  0  0  0  0  0  0  0  0
  -30.4790  -17.1170   21.5320 C   0  0  0  0  0  0  0  0  0  0  0  0
  -29.8140  -18.7530   19.3390 C   0  0  0  0  0  0  0  0  0  0  0  0
  -29.6500  -20.9890   20.8150 C   0  0  0  0  0  2  0  0  0  0  0  0
  -29.4430  -21.5520   18.3650 C   0  0  0  0  0  2  0  0  0  0  0  0
  -28.9250  -22.0080   19.7650 C   0  0  1  0  0  0  0  0  0  0  0  0
  -30.8620  -16.3620   22.7970 C   0  0  0  0  0  1  0  0  0  0  0  0
  -27.8530  -19.4250   17.7160 O   0  0  0  0  0  0  0  0  0  0  0  0
  -30.2060  -19.4680   16.8150 O   0  0  0  0  0  0  0  0  0  0  0  0
  -29.2760  -19.7350   17.9260 S   0  0  2  0  0  0  0  0  0  0  0  0
  -31.0720  -15.0110   19.9660 C   0  0  0  0  0  0  0  0  0  0  0  0
  -30.7500  -12.7210   19.0000 C   0  0  0  0  0  2  0  0  0  0  0  0
  -29.7950  -12.8110   17.7890 C   0  0  0  0  0  2  0  0  0  0  0  0
  -28.3330  -12.6650   18.2520 C   0  0  0  0  0  2  0  0  0  0  0  0
  -28.0090  -13.5610   19.4770 C   0  0  0  0  0  3  0  0  0  0  0  0
  -29.0950  -13.4870   20.5690 C   0  0  0  0  0  2  0  0  0  0  0  0
  -30.3820  -13.8070   19.9490 N   0  0  0  0  0  0  0  0  0  0  0  0
  -32.2370  -15.0010   19.5600 O   0  0  0  0  0  0  0  0  0  0  0  0
  -25.6790  -14.1930   20.3290 C   0  0  0  0  0  0  0  0  0  0  0  0
  -24.6040  -13.4410   20.7150 C   0  0  0  0  0  0  0  0  0  0  0  0
  -25.0210  -12.0780   20.6220 C   0  0  0  0  0  0  0  0  0  0  0  0
  -26.6810  -13.2910   20.0160 N   0  0  0  0  0  0  0  0  0  0  0  0
  -26.2970  -12.0100   20.2600 N   0  0  0  0  0  0  0  0  0  0  0  0
  -24.2590  -10.8330   20.8020 C   0  0  0  0  0  0  0  0  0  0  0  0
  -24.6760   -9.8360   21.7100 C   0  0  0  0  0  3  0  0  0  0  0  0
  -23.9150   -8.6580   21.8790 C   0  0  0  0  0  3  0  0  0  0  0  0
  -22.7240   -8.4700   21.1390 C   0  0  0  0  0  0  0  0  0  0  0  0
  -22.3260   -9.4560   20.2190 C   0  0  0  0  0  3  0  0  0  0  0  0
  -23.0860  -10.6250   20.0480 C   0  0  0  0  0  3  0  0  0  0  0  0
  -21.9350   -7.3470   21.2170 O   0  0  0  0  0  0  0  0  0  0  0  0
  -21.8410   -6.6120   22.3710 C   0  0  0  0  0  0  0  0  0  0  0  0
  -21.4030   -7.1850   23.5860 C   0  0  0  0  0  3  0  0  0  0  0  0
  -21.2550   -6.3770   24.7310 C   0  0  0  0  0  3  0  0  0  0  0  0
  -21.5370   -4.9990   24.6630 C   0  0  0  0  0  0  0  0  0  0  0  0
  -21.9690   -4.4270   23.4530 C   0  0  0  0  0  3  0  0  0  0  0  0
  -22.1180   -5.2320   22.3100 C   0  0  0  0  0  0  0  0  0  0  0  0
  -22.5140   -4.6720   21.1420 F   0  0  0  0  0  0  0  0  0  0  0  0
  -21.3880   -4.2210   25.7600 F   0  0  0  0  0  0  0  0  0  0  0  0
  -23.2360  -13.9540   21.0550 C   0  0  0  0  0  0  0  0  0  0  0  0
  -22.5200  -13.2600   21.9330 N   0  0  0  0  0  0  0  0  0  0  0  0
  -22.8120  -15.0060   20.5780 O   0  0  0  0  0  0  0  0  0  0  0  0
  -22.8760  -12.4090   22.3420 H   0  0  0  0  0  0  0  0  0  0  0  0
  -21.6010  -13.5840   22.1980 H   0  0  0  0  0  0  0  0  0  0  0  0
  -25.8840  -15.5640   20.1950 N   0  0  0  0  0  0  0  0  0  0  0  0
  -25.1490  -16.2400   20.3760 H   0  0  0  0  0  0  0  0  0  0  0  0
  -26.7480  -15.9900   19.8850 H   0  0  0  0  0  0  0  0  0  0  0  0
  -27.3980  -21.7650   19.9480 C   0  0  0  0  0  2  0  0  0  0  0  0
  -25.0010  -22.3290   19.2500 C   0  0  0  0  0  1  0  0  0  0  0  0
  -26.4580  -22.1900   18.7960 C   0  0  0  0  0  2  0  0  0  0  0  0
  -29.2340  -23.6400   20.0110 C   0  0  0  0  0  3  0  0  0  0  0  0
  -28.2940  -24.9040   19.5000 C   0  0  0  0  0  3  0  0  0  0  0  0
  -28.4790  -26.3950   19.8090 O   0  0  0  0  0  0  0  0  0  0  0  0
  -24.6590  -31.6870   23.0840 C   0  0  0  0  0  0  0  0  0  0  0  0
  -27.3740  -27.3030   19.7700 C   0  0  0  0  0  0  0  0  0  0  0  0
  -23.4850  -30.3280   21.3950 C   0  0  0  0  0  3  0  0  0  0  0  0
  -24.9710  -28.9070   19.8620 C   0  0  0  0  0  0  0  0  0  0  0  0
  -26.0180  -30.7260   21.2000 C   0  0  0  0  0  2  0  0  0  0  0  0
  -26.1370  -29.3800   20.4770 C   0  0  0  0  0  0  0  0  0  0  0  0
  -27.3380  -28.5910   20.4220 C   0  0  0  0  0  3  0  0  0  0  0  0
  -26.1870  -26.9300   19.0990 C   0  0  0  0  0  3  0  0  0  0  0  0
  -25.0050  -27.6930   19.1600 C   0  0  0  0  0  3  0  0  0  0  0  0
  -23.7060  -29.7370   19.9770 C   0  0  0  0  0  2  0  0  0  0  0  0
  -24.7410  -30.9330   21.9480 N   0  0  0  0  0  0  0  0  0  0  0  0
  -23.5730  -31.8960   23.6460 O   0  0  0  0  0  0  0  0  0  0  0  0
  -22.8760  -29.2390   22.3120 C   0  0  0  0  0  0  0  0  0  0  0  0
  -21.5590  -28.9980   22.1830 N   0  0  0  0  0  0  0  0  0  0  0  0
  -23.5880  -28.6150   23.1030 O   0  0  0  0  0  0  0  0  0  0  0  0
  -21.0380  -29.5580   21.5200 H   0  0  0  0  0  0  0  0  0  0  0  0
  -18.2600  -27.5680   22.6090 C   0  0  0  0  0  0  0  0  0  0  0  0
  -20.7940  -27.9870   22.9160 C   0  0  0  0  0  3  0  0  0  0  0  0
  -20.9950  -26.5820   22.3020 C   0  0  0  0  0  2  0  0  0  0  0  0
  -19.9280  -26.2190   21.2650 C   0  0  0  0  0  2  0  0  0  0  0  0
  -18.5330  -26.2540   21.8960 C   0  0  0  0  0  2  0  0  0  0  0  0
  -19.3220  -28.3880   23.0740 C   0  0  0  0  0  0  0  0  0  0  0  0
  -19.0140  -29.6150   23.7020 C   0  0  0  0  0  3  0  0  0  0  0  0
  -17.6770  -30.0240   23.8680 C   0  0  0  0  0  3  0  0  0  0  0  0
  -16.6300  -29.2000   23.4190 C   0  0  0  0  0  3  0  0  0  0  0  0
  -16.9220  -27.9740   22.7960 C   0  0  0  0  0  3  0  0  0  0  0  0
  -25.9230  -32.3430   23.7190 C   0  0  0  0  0  3  0  0  0  0  0  0
  -26.4670  -31.5550   24.9740 C   0  0  1  0  0  0  0  0  0  0  0  0
  -25.3880  -31.2700   26.0440 C   0  0  0  0  0  1  0  0  0  0  0  0
  -27.0770  -30.1990   24.5520 C   0  0  0  0  0  1  0  0  0  0  0  0
  -27.6060  -32.3610   25.6450 C   0  0  0  0  0  1  0  0  0  0  0  0
  -25.5720  -33.7230   24.0890 N   0  0  0  0  0  0  0  0  0  0  0  0
  -25.8610  -34.8070   23.3560 C   0  0  0  0  0  0  0  0  0  0  0  0
  -26.5180  -34.7520   22.3130 O   0  0  0  0  0  0  0  0  0  0  0  0
  -24.9840  -33.8360   24.9010 H   0  0  0  0  0  0  0  0  0  0  0  0
  -24.0670  -36.5520   23.0830 C   0  0  0  0  0  1  0  0  0  0  0  0
  -25.3370  -36.1670   23.8590 C   0  0  0  0  0  3  0  0  0  0  0  0
  -27.4560  -37.1050   24.6730 C   0  0  0  0  0  1  0  0  0  0  0  0
  -26.3320  -37.2560   23.7520 N   0  0  0  0  0  0  0  0  0  0  0  0
  -25.8990  -38.1580   23.9270 H   0  0  0  0  0  0  0  0  0  0  0  0
  1  6  2  0
  1  3  1  0
  3  5  2  0
  4  7  1  0
  4  2  2  0
  5  2  1  0
  5 10  1  0
  6  4  1  0
  8  9  1  0
  9 50  1  6
  9 53  1  0
  9  7  1  0
 11 13  2  0
 12 13  2  0
 13  8  1  1
 13  6  1  0
 14  3  1  0
 15 20  1  0
 16 17  1  0
 16 15  1  0
 18 17  1  0
 18 25  1  0
 18 19  1  0
 20 14  1  0
 20 19  1  0
 21 14  2  0
 22 23  2  0
 23 42  1  0
 24 23  1  0
 24 27  1  0
 25 26  1  0
 25 22  1  0
 26 24  2  0
 27 28  1  0
 28 29  2  0
 30 33  1  0
 30 29  1  0
 31 30  2  0
 32 31  1  0
 32 27  2  0
 33 34  1  0
 34 35  1  0
 35 36  2  0
 37 36  1  0
 37 41  1  0
 38 37  2  0
 39 34  2  0
 39 38  1  0
 40 39  1  0
 42 43  1  0
 43 46  1  0
 43 45  1  0
 44 42  2  0
 47 22  1  0
 47 48  1  0
 49 47  1  0
 52 51  1  0
 52 50  1  0
 54 55  1  0
 54 53  2  0
 56 67  2  0
 57 55  1  0
 57 62  1  0
 58 66  1  0
 58 68  1  0
 59 65  1  0
 59 61  1  0
 60 66  1  0
 61 60  1  0
 62 61  2  0
 63 64  1  0
 63 57  2  0
 64 59  2  0
 65 58  1  0
 66 56  1  0
 68 70  2  0
 69 68  1  0
 71 69  1  0
 72 81  2  0
 72 77  1  0
 73 69  1  0
 73 77  1  0
 74 73  1  0
 75 76  1  0
 75 74  1  0
 76 72  1  0
 77 78  2  0
 78 79  1  0
 80 79  2  0
 81 80  1  0
 82 56  1  0
 82 87  1  0
 82 83  1  0
 83 86  1  1
 83 84  1  0
 85 83  1  0
 87 90  1  0
 88 92  1  0
 88 87  1  0
 89 88  2  0
 92 91  1  0
 94 92  1  0
 94 95  1  0
 94 93  1  0
M  ISO  4   3 100  14 100  54 101  55 101
M  END
>  <TORSDO>  (86) 
F 20

>  <SCORE>  (86) 
-12.770

>  <name>  (86) 
85

>  <ligand_id>  (86) 
85

>  <original_smiles>  (86) 
[H]c1c([H])c([H])c2c(c1[H])C([H])([H])C([H])([H])C([H])([H])C2([H])N([H])C(=O)C1([H])N(C(=O)C([H])(N([H])C(=O)C([H])(N([H])C([H])([H])[H])C([H])([H])[H])C(C([H])([H])[H])(C([H])([H])[H])C([H])([H])[H])C([H])([H])c2c([H])c(OC([H])([H])C([H])([H])C3(C([H])([H])C([H])([H])C([H])([H])[H])C([H])([H])c4c([H])c(C([H])([H])[H])c(C(=O)N5C([H])([H])C([H])([H])C([H])([H])C([H])(n6nc(-c7c([H])c([H])c(Oc8c([H])c([H])c(F)c([H])c8F)c([H])c7[H])c(C(=O)N([H])[H])c6N([H])[H])C5([H])[H])c([H])c4S(=O)(=O)C3([H])[H])c([H])c([H])c2C1([H])[H]

>  <smiles>  (86) 
[H]c1c([H])c([H])c2c(c1[H])C([H])([H])C([H])([H])C([H])([H])C2([H])N([H])C(=O)C1([H])N(C(=O)C([H])(N([H])C(=O)C([H])(N([H])C([H])([H])[H])C([H])([H])[H])C(C([H])([H])[H])(C([H])([H])[H])C([H])([H])[H])C([H])([H])c2c([H])c(OC([H])([H])C([H])([H])C3(C([H])([H])C([H])([H])C([H])([H])[H])C([H])([H])c4c([H])c(C([H])([H])[H])c(C(=O)N5C([H])([H])C([H])([H])C([H])([H])C([H])(n6nc(-c7c([H])c([H])c(Oc8c([H])c([H])c(F)c([H])c8F)c([H])c7[H])c(C(=O)N([H])[H])c6N([H])[H])C5([H])[H])c([H])c4S(=O)(=O)C3([H])[H])c([H])c([H])c2C1([H])[H]

$$$$
86:0:0
     RDKit          3D

 93102  0  0  1  0  0  0  0  0999 V2000
  -28.5700  -23.7110   17.7180 C   0  0  0  0  0  3  0  0  0  0  0  0
  -29.1000  -22.6350   18.4640 C   0  0  0  0  0  3  0  0  0  0  0  0
  -28.3470  -24.9740   18.3070 C   0  0  0  0  0  3  0  0  0  0  0  0
  -29.2120  -24.1050   20.3940 C   0  0  0  0  0  3  0  0  0  0  0  0
  -29.4380  -22.7970   19.8290 C   0  0  0  0  0  0  0  0  0  0  0  0
  -28.6500  -25.2020   19.6630 C   0  0  0  0  0  0  0  0  0  0  0  0
  -30.1230  -21.6970   20.6520 C   0  0  0  0  0  0  0  0  0  0  0  0
  -30.9200  -22.0370   21.5310 O   0  0  0  0  0  0  0  0  0  0  0  0
  -30.4300  -19.3960   19.2780 C   0  0  0  0  0  2  0  0  0  0  0  0
  -30.4040  -19.3330   21.7600 C   0  0  0  0  0  2  0  0  0  0  0  0
  -30.1100  -17.8610   19.2510 C   0  0  0  0  0  2  0  0  0  0  0  0
  -30.1960  -17.7800   21.7540 C   0  0  0  0  0  2  0  0  0  0  0  0
  -29.8380  -20.1310   20.5220 C   0  0  0  0  0  3  0  0  0  0  0  0
  -30.6810  -17.0600   20.4640 C   0  0  0  0  0  3  0  0  0  0  0  0
  -30.9880  -14.5290   20.0000 C   0  0  0  0  0  0  0  0  0  0  0  0
  -30.6620  -12.2860   18.9970 C   0  0  0  0  0  2  0  0  0  0  0  0
  -29.6710  -12.3870   17.8190 C   0  0  0  0  0  2  0  0  0  0  0  0
  -28.2160  -12.2710   18.3160 C   0  0  0  0  0  2  0  0  0  0  0  0
  -27.9270  -13.1910   19.5350 C   0  0  0  0  0  3  0  0  0  0  0  0
  -29.0230  -13.0550   20.6100 C   0  0  0  0  0  2  0  0  0  0  0  0
  -30.3150  -13.3390   19.9680 N   0  0  0  0  0  0  0  0  0  0  0  0
  -32.1100  -14.6510   19.5070 O   0  0  0  0  0  0  0  0  0  0  0  0
  -30.2900  -15.6130   20.4590 N   0  0  0  0  0  0  0  0  0  0  0  0
  -29.3720  -15.4020   20.8250 H   0  0  0  0  0  0  0  0  0  0  0  0
  -25.6130  -13.8740   20.4230 C   0  0  0  0  0  0  0  0  0  0  0  0
  -24.5350  -13.1420   20.8370 C   0  0  0  0  0  0  0  0  0  0  0  0
  -24.9300  -11.7720   20.7350 C   0  0  0  0  0  0  0  0  0  0  0  0
  -26.5950  -12.9560   20.0900 N   0  0  0  0  0  0  0  0  0  0  0  0
  -26.1950  -11.6840   20.3410 N   0  0  0  0  0  0  0  0  0  0  0  0
  -24.1620  -10.5370   20.9300 C   0  0  0  0  0  0  0  0  0  0  0  0
  -24.5660   -9.5530   21.8570 C   0  0  0  0  0  3  0  0  0  0  0  0
  -23.7940   -8.3840   22.0440 C   0  0  0  0  0  3  0  0  0  0  0  0
  -22.6030   -8.1910   21.3030 C   0  0  0  0  0  0  0  0  0  0  0  0
  -22.2200   -9.1660   20.3650 C   0  0  0  0  0  3  0  0  0  0  0  0
  -22.9920  -10.3250   20.1750 C   0  0  0  0  0  3  0  0  0  0  0  0
  -21.8070   -7.0760   21.3950 O   0  0  0  0  0  0  0  0  0  0  0  0
  -21.6750   -6.3820   22.5700 C   0  0  0  0  0  0  0  0  0  0  0  0
  -21.1900   -6.9920   23.7480 C   0  0  0  0  0  3  0  0  0  0  0  0
  -21.0000   -6.2230   24.9120 C   0  0  0  0  0  3  0  0  0  0  0  0
  -21.2890   -4.8440   24.9010 C   0  0  0  0  0  0  0  0  0  0  0  0
  -21.7700   -4.2360   23.7270 C   0  0  0  0  0  3  0  0  0  0  0  0
  -21.9570   -5.0020   22.5660 C   0  0  0  0  0  0  0  0  0  0  0  0
  -22.3970   -4.4050   21.4320 F   0  0  0  0  0  0  0  0  0  0  0  0
  -21.1010   -4.1030   26.0190 F   0  0  0  0  0  0  0  0  0  0  0  0
  -23.1820  -13.6730   21.2060 C   0  0  0  0  0  0  0  0  0  0  0  0
  -22.4770  -12.9890   22.1020 N   0  0  0  0  0  0  0  0  0  0  0  0
  -22.7630  -14.7300   20.7370 O   0  0  0  0  0  0  0  0  0  0  0  0
  -22.8380  -12.1420   22.5130 H   0  0  0  0  0  0  0  0  0  0  0  0
  -21.5670  -13.3270   22.3820 H   0  0  0  0  0  0  0  0  0  0  0  0
  -25.8350  -15.2410   20.2810 N   0  0  0  0  0  0  0  0  0  0  0  0
  -25.1130  -15.9270   20.4700 H   0  0  0  0  0  0  0  0  0  0  0  0
  -26.6770  -15.6510   19.8950 H   0  0  0  0  0  0  0  0  0  0  0  0
  -28.5160  -26.4940   20.1990 O   0  0  0  0  0  0  0  0  0  0  0  0
  -24.6400  -31.7040   23.2700 C   0  0  0  0  0  0  0  0  0  0  0  0
  -27.3390  -27.2550   20.1510 C   0  0  0  0  0  0  0  0  0  0  0  0
  -23.4670  -30.3290   21.5840 C   0  0  0  0  0  3  0  0  0  0  0  0
  -24.9460  -28.8130   20.1550 C   0  0  0  0  0  0  0  0  0  0  0  0
  -26.0050  -30.6760   21.4410 C   0  0  0  0  0  2  0  0  0  0  0  0
  -26.1010  -29.3160   20.7660 C   0  0  0  0  0  0  0  0  0  0  0  0
  -27.2980  -28.5460   20.7520 C   0  0  0  0  0  3  0  0  0  0  0  0
  -26.1510  -26.7850   19.5440 C   0  0  0  0  0  3  0  0  0  0  0  0
  -24.9700  -27.5510   19.5400 C   0  0  0  0  0  3  0  0  0  0  0  0
  -23.7030  -29.6760   20.1990 C   0  0  0  0  0  2  0  0  0  0  0  0
  -24.7220  -30.9190   22.1550 N   0  0  0  0  0  0  0  0  0  0  0  0
  -23.5480  -31.9640   23.7940 O   0  0  0  0  0  0  0  0  0  0  0  0
  -22.7970  -29.2920   22.5160 C   0  0  0  0  0  0  0  0  0  0  0  0
  -21.4780  -29.0980   22.3510 N   0  0  0  0  0  0  0  0  0  0  0  0
  -23.4630  -28.6640   23.3430 O   0  0  0  0  0  0  0  0  0  0  0  0
  -20.9970  -29.6630   21.6650 H   0  0  0  0  0  0  0  0  0  0  0  0
  -18.1080  -27.8380   22.7180 C   0  0  0  0  0  0  0  0  0  0  0  0
  -20.6490  -28.1420   23.0870 C   0  0  0  0  0  3  0  0  0  0  0  0
  -20.7970  -26.7140   22.5120 C   0  0  0  0  0  2  0  0  0  0  0  0
  -19.7430  -26.3770   21.4540 C   0  0  0  0  0  2  0  0  0  0  0  0
  -18.3350  -26.4950   22.0450 C   0  0  0  0  0  2  0  0  0  0  0  0
  -19.1960  -28.6190   23.1920 C   0  0  0  0  0  0  0  0  0  0  0  0
  -18.9310  -29.8760   23.7780 C   0  0  0  0  0  3  0  0  0  0  0  0
  -17.6120  -30.3550   23.8940 C   0  0  0  0  0  3  0  0  0  0  0  0
  -16.5390  -29.5700   23.4410 C   0  0  0  0  0  3  0  0  0  0  0  0
  -16.7860  -28.3130   22.8600 C   0  0  0  0  0  3  0  0  0  0  0  0
  -25.9140  -32.3260   23.9250 C   0  0  0  0  0  3  0  0  0  0  0  0
  -25.6090  -33.7250   24.2460 N   0  0  0  0  0  0  0  0  0  0  0  0
  -25.9380  -34.7720   23.4750 C   0  0  0  0  0  0  0  0  0  0  0  0
  -26.6000  -34.6580   22.4390 O   0  0  0  0  0  0  0  0  0  0  0  0
  -25.0180  -33.8880   25.0480 H   0  0  0  0  0  0  0  0  0  0  0  0
  -24.1930  -36.5500   23.1390 C   0  0  0  0  0  1  0  0  0  0  0  0
  -25.4560  -36.1630   23.9260 C   0  0  0  0  0  3  0  0  0  0  0  0
  -27.6010  -37.0700   24.6940 C   0  0  0  0  0  1  0  0  0  0  0  0
  -26.4780  -37.2190   23.7730 N   0  0  0  0  0  0  0  0  0  0  0  0
  -26.0710  -38.1380   23.9200 H   0  0  0  0  0  0  0  0  0  0  0  0
  -26.3950  -31.5520   25.2140 C   0  0  1  0  0  0  0  0  0  0  0  0
  -25.2780  -31.3220   26.2590 C   0  0  0  0  0  1  0  0  0  0  0  0
  -26.9770  -30.1690   24.8370 C   0  0  0  0  0  1  0  0  0  0  0  0
  -27.5380  -32.3390   25.8990 C   0  0  0  0  0  1  0  0  0  0  0  0
  1  3  2  0
  1  2  1  0
  2  5  2  0
  3  6  1  0
  5  4  1  0
  5  7  1  0
  6 53  1  0
  6  4  2  0
  7  8  2  0
  9 13  1  0
 11  9  1  0
 11 14  1  0
 12 10  1  0
 13  7  1  0
 13 10  1  0
 14 23  1  0
 14 12  1  0
 15 23  1  0
 16 21  1  0
 17 18  1  0
 17 16  1  0
 19 18  1  0
 19 28  1  0
 19 20  1  0
 21 15  1  0
 21 20  1  0
 22 15  2  0
 23 24  1  0
 25 26  2  0
 26 45  1  0
 27 26  1  0
 27 30  1  0
 28 29  1  0
 28 25  1  0
 29 27  2  0
 30 31  1  0
 31 32  2  0
 33 36  1  0
 33 32  1  0
 34 33  2  0
 35 34  1  0
 35 30  2  0
 36 37  1  0
 37 38  1  0
 38 39  2  0
 40 39  1  0
 40 44  1  0
 41 40  2  0
 42 37  2  0
 42 41  1  0
 43 42  1  0
 45 46  1  0
 46 49  1  0
 46 48  1  0
 47 45  2  0
 50 25  1  0
 50 51  1  0
 52 50  1  0
 54 65  2  0
 55 53  1  0
 55 60  1  0
 56 64  1  0
 56 66  1  0
 57 63  1  0
 57 59  1  0
 58 64  1  0
 59 58  1  0
 60 59  2  0
 61 55  2  0
 62 61  1  0
 62 57  2  0
 63 56  1  0
 64 54  1  0
 66 68  2  0
 67 66  1  0
 69 67  1  0
 70 79  2  0
 70 75  1  0
 71 67  1  0
 71 75  1  0
 72 71  1  0
 73 74  1  0
 73 72  1  0
 74 70  1  0
 75 76  2  0
 76 77  1  0
 78 77  2  0
 79 78  1  0
 80 54  1  0
 80 81  1  0
 80 90  1  0
 81 84  1  0
 82 86  1  0
 82 81  1  0
 83 82  2  0
 86 85  1  0
 88 89  1  0
 88 86  1  0
 88 87  1  0
 90 93  1  1
 90 91  1  0
 92 90  1  0
M  ISO  4   6 101  15 100  23 100  53 101
M  END
>  <TORSDO>  (87) 
F 18

>  <SCORE>  (87) 
-14.148

>  <name>  (87) 
86

>  <ligand_id>  (87) 
86

>  <original_smiles>  (87) 
[H]c1c([H])c(Oc2c([H])c([H])c3c(c2[H])C([H])([H])N(C(=O)C([H])(N([H])C(=O)C([H])(N([H])C([H])([H])[H])C([H])([H])[H])C(C([H])([H])[H])(C([H])([H])[H])C([H])([H])[H])C([H])(C(=O)N([H])C2([H])c4c([H])c([H])c([H])c([H])c4C([H])([H])C([H])([H])C2([H])[H])C3([H])[H])c([H])c(C(=O)C2([H])C([H])([H])C([H])([H])C([H])(N([H])C(=O)N3C([H])([H])C([H])([H])C([H])([H])C([H])(n4nc(-c5c([H])c([H])c(Oc6c([H])c([H])c(F)c([H])c6F)c([H])c5[H])c(C(=O)N([H])[H])c4N([H])[H])C3([H])[H])C([H])([H])C2([H])[H])c1[H]

>  <smiles>  (87) 
[H]c1c([H])c(Oc2c([H])c([H])c3c(c2[H])C([H])([H])N(C(=O)C([H])(N([H])C(=O)C([H])(N([H])C([H])([H])[H])C([H])([H])[H])C(C([H])([H])[H])(C([H])([H])[H])C([H])([H])[H])C([H])(C(=O)N([H])C2([H])c4c([H])c([H])c([H])c([H])c4C([H])([H])C([H])([H])C2([H])[H])C3([H])[H])c([H])c(C(=O)C2([H])C([H])([H])C([H])([H])C([H])(N([H])C(=O)N3C([H])([H])C([H])([H])C([H])([H])C([H])(n4nc(-c5c([H])c([H])c(Oc6c([H])c([H])c(F)c([H])c6F)c([H])c5[H])c(C(=O)N([H])[H])c4N([H])[H])C3([H])[H])C([H])([H])C2([H])[H])c1[H]

$$$$
87:0:0
     RDKit          3D

 93103  0  0  1  0  0  0  0  0999 V2000
  -30.7890  -14.7900   20.2360 C   0  0  0  0  0  0  0  0  0  0  0  0
  -30.4890  -12.5370   19.2030 C   0  0  0  0  0  2  0  0  0  0  0  0
  -29.5240  -12.6110   18.0020 C   0  0  0  0  0  2  0  0  0  0  0  0
  -28.0660  -12.4470   18.4720 C   0  0  0  0  0  2  0  0  0  0  0  0
  -27.7290  -13.3320   19.7030 C   0  0  0  0  0  3  0  0  0  0  0  0
  -28.8190  -13.2430   20.7900 C   0  0  0  0  0  2  0  0  0  0  0  0
  -30.0870  -13.6060   20.1490 N   0  0  0  0  0  0  0  0  0  0  0  0
  -31.9910  -14.7670   19.9450 O   0  0  0  0  0  0  0  0  0  0  0  0
  -29.9540  -23.8240   22.2450 C   0  0  0  0  0  3  0  0  0  0  0  0
  -29.6030  -25.0970   21.7330 C   0  0  0  0  0  3  0  0  0  0  0  0
  -28.3350  -24.0130   19.9850 C   0  0  0  0  0  3  0  0  0  0  0  0
  -29.5010  -22.6230   21.6480 C   0  0  0  0  0  0  0  0  0  0  0  0
  -28.6940  -22.6990   20.4940 C   0  0  0  0  0  0  0  0  0  0  0  0
  -28.7730  -25.2480   20.6020 C   0  0  0  0  0  0  0  0  0  0  0  0
  -29.8070  -21.2660   22.3050 C   0  0  0  0  0  2  0  0  0  0  0  0
  -28.1370  -21.3520   19.9250 C   0  0  0  0  0  2  0  0  0  0  0  0
  -30.6590  -20.2610   21.4740 C   0  0  0  0  0  2  0  0  0  0  0  0
  -29.1040  -20.1500   19.5100 C   0  0  0  0  0  2  0  0  0  0  0  0
  -31.0210  -18.4090   19.8050 C   0  0  0  0  0  2  0  0  0  0  0  0
  -29.1280  -18.1470   21.3720 C   0  0  0  0  0  2  0  0  0  0  0  0
  -30.5770  -17.0580   19.1600 C   0  0  0  0  0  2  0  0  0  0  0  0
  -28.9980  -16.6240   20.8900 C   0  0  0  0  0  2  0  0  0  0  0  0
  -29.9170  -19.2450   20.5410 C   0  0  1  0  0  0  0  0  0  0  0  0
  -30.1320  -16.0250   20.1280 N   0  0  0  0  0  0  0  0  0  0  0  0
  -25.3710  -13.9260   20.5130 C   0  0  0  0  0  0  0  0  0  0  0  0
  -24.3100  -13.1540   20.8980 C   0  0  0  0  0  0  0  0  0  0  0  0
  -24.7600  -11.8000   20.8260 C   0  0  0  0  0  0  0  0  0  0  0  0
  -26.4000  -13.0440   20.2300 N   0  0  0  0  0  0  0  0  0  0  0  0
  -26.0420  -11.7590   20.4820 N   0  0  0  0  0  0  0  0  0  0  0  0
  -24.0280  -10.5410   21.0090 C   0  0  0  0  0  0  0  0  0  0  0  0
  -24.4460   -9.5730   21.9490 C   0  0  0  0  0  3  0  0  0  0  0  0
  -23.7120   -8.3790   22.1210 C   0  0  0  0  0  3  0  0  0  0  0  0
  -22.5470   -8.1450   21.3540 C   0  0  0  0  0  0  0  0  0  0  0  0
  -22.1490   -9.1010   20.4020 C   0  0  0  0  0  3  0  0  0  0  0  0
  -22.8830  -10.2860   20.2280 C   0  0  0  0  0  3  0  0  0  0  0  0
  -21.7870   -7.0020   21.4340 O   0  0  0  0  0  0  0  0  0  0  0  0
  -21.6770   -6.2930   22.6030 C   0  0  0  0  0  0  0  0  0  0  0  0
  -21.1330   -6.8640   23.7730 C   0  0  0  0  0  3  0  0  0  0  0  0
  -20.9730   -6.0780   24.9320 C   0  0  0  0  0  3  0  0  0  0  0  0
  -21.3470   -4.7210   24.9200 C   0  0  0  0  0  0  0  0  0  0  0  0
  -21.8850   -4.1490   23.7540 C   0  0  0  0  0  3  0  0  0  0  0  0
  -22.0470   -4.9320   22.5980 C   0  0  0  0  0  0  0  0  0  0  0  0
  -22.5440   -4.3700   21.4700 F   0  0  0  0  0  0  0  0  0  0  0  0
  -21.1870   -3.9640   26.0310 F   0  0  0  0  0  0  0  0  0  0  0  0
  -22.9240  -13.6380   21.2150 C   0  0  0  0  0  0  0  0  0  0  0  0
  -22.2140  -12.9320   22.0860 N   0  0  0  0  0  0  0  0  0  0  0  0
  -22.4830  -14.6770   20.7240 O   0  0  0  0  0  0  0  0  0  0  0  0
  -22.5850  -12.0930   22.5050 H   0  0  0  0  0  0  0  0  0  0  0  0
  -21.2850  -13.2370   22.3410 H   0  0  0  0  0  0  0  0  0  0  0  0
  -25.5380  -15.2980   20.3580 N   0  0  0  0  0  0  0  0  0  0  0  0
  -24.7770  -15.9530   20.5050 H   0  0  0  0  0  0  0  0  0  0  0  0
  -26.3770  -15.7390   20.0060 H   0  0  0  0  0  0  0  0  0  0  0  0
  -28.6080  -26.5670   20.0940 O   0  0  0  0  0  0  0  0  0  0  0  0
  -24.6590  -31.8210   23.2120 C   0  0  0  0  0  0  0  0  0  0  0  0
  -27.4410  -27.3450   20.1690 C   0  0  0  0  0  0  0  0  0  0  0  0
  -23.5310  -30.4410   21.5030 C   0  0  0  0  0  3  0  0  0  0  0  0
  -25.0520  -28.9250   20.1070 C   0  0  0  0  0  0  0  0  0  0  0  0
  -26.0690  -30.7930   21.4120 C   0  0  0  0  0  2  0  0  0  0  0  0
  -26.1910  -29.4210   20.7540 C   0  0  0  0  0  0  0  0  0  0  0  0
  -27.3890  -28.6440   20.7740 C   0  0  0  0  0  3  0  0  0  0  0  0
  -26.2820  -26.9000   19.5080 C   0  0  0  0  0  3  0  0  0  0  0  0
  -25.1000  -27.6690   19.4780 C   0  0  0  0  0  3  0  0  0  0  0  0
  -23.8040  -29.7860   20.1220 C   0  0  0  0  0  2  0  0  0  0  0  0
  -24.7700  -31.0370   22.1000 N   0  0  0  0  0  0  0  0  0  0  0  0
  -23.5550  -32.0740   23.7170 O   0  0  0  0  0  0  0  0  0  0  0  0
  -22.8490  -29.3990   22.4210 C   0  0  0  0  0  0  0  0  0  0  0  0
  -21.5240  -29.2340   22.2690 N   0  0  0  0  0  0  0  0  0  0  0  0
  -23.5120  -28.7430   23.2280 O   0  0  0  0  0  0  0  0  0  0  0  0
  -21.0480  -29.8170   21.5940 H   0  0  0  0  0  0  0  0  0  0  0  0
  -18.1220  -28.1120   22.7690 C   0  0  0  0  0  0  0  0  0  0  0  0
  -20.6920  -28.2760   22.9980 C   0  0  0  0  0  3  0  0  0  0  0  0
  -20.7350  -26.8810   22.3300 C   0  0  0  0  0  2  0  0  0  0  0  0
  -19.6040  -26.6580   21.3210 C   0  0  0  0  0  2  0  0  0  0  0  0
  -18.2420  -26.8040   22.0030 C   0  0  0  0  0  2  0  0  0  0  0  0
  -19.2720  -28.8090   23.2220 C   0  0  0  0  0  0  0  0  0  0  0  0
  -19.1060  -30.0360   23.9000 C   0  0  0  0  0  3  0  0  0  0  0  0
  -17.8220  -30.5660   24.1250 C   0  0  0  0  0  3  0  0  0  0  0  0
  -16.6850  -29.8670   23.6830 C   0  0  0  0  0  3  0  0  0  0  0  0
  -16.8370  -28.6390   23.0140 C   0  0  0  0  0  3  0  0  0  0  0  0
  -25.9130  -32.4570   23.8920 C   0  0  0  0  0  3  0  0  0  0  0  0
  -25.5760  -33.8470   24.2340 N   0  0  0  0  0  0  0  0  0  0  0  0
  -25.8920  -34.9130   23.4860 C   0  0  0  0  0  0  0  0  0  0  0  0
  -26.5630  -34.8300   22.4540 O   0  0  0  0  0  0  0  0  0  0  0  0
  -24.9760  -33.9830   25.0340 H   0  0  0  0  0  0  0  0  0  0  0  0
  -24.1170  -36.6660   23.1620 C   0  0  0  0  0  1  0  0  0  0  0  0
  -25.3790  -36.2880   23.9540 C   0  0  0  0  0  3  0  0  0  0  0  0
  -27.4980  -37.2250   24.7680 C   0  0  0  0  0  1  0  0  0  0  0  0
  -26.3870  -37.3650   23.8300 N   0  0  0  0  0  0  0  0  0  0  0  0
  -25.9620  -38.2750   23.9770 H   0  0  0  0  0  0  0  0  0  0  0  0
  -26.3890  -31.6700   25.1760 C   0  0  1  0  0  0  0  0  0  0  0  0
  -25.2580  -31.4060   26.1990 C   0  0  0  0  0  1  0  0  0  0  0  0
  -27.0000  -30.3030   24.7860 C   0  0  0  0  0  1  0  0  0  0  0  0
  -27.5060  -32.4650   25.8930 C   0  0  0  0  0  1  0  0  0  0  0  0
  2  7  1  0
  3  4  1  0
  3  2  1  0
  5  4  1  0
  5 28  1  0
  5  6  1  0
  7  1  1  0
  7  6  1  0
  8  1  2  0
 10  9  1  0
 11 13  2  0
 11 14  1  0
 12  9  2  0
 12 15  1  0
 13 12  1  0
 14 10  2  0
 16 13  1  0
 17 15  1  0
 18 16  1  0
 23 19  1  6
 21 19  1  0
 21 24  1  0
 22 20  1  0
 23 18  1  0
 23 20  1  0
 23 17  1  0
 24  1  1  0
 24 22  1  0
 25 26  2  0
 26 45  1  0
 27 26  1  0
 27 30  1  0
 28 29  1  0
 28 25  1  0
 29 27  2  0
 30 31  1  0
 31 32  2  0
 33 36  1  0
 33 32  1  0
 34 33  2  0
 35 34  1  0
 35 30  2  0
 36 37  1  0
 37 38  1  0
 38 39  2  0
 40 39  1  0
 40 44  1  0
 41 40  2  0
 42 37  2  0
 42 41  1  0
 43 42  1  0
 45 46  1  0
 46 49  1  0
 46 48  1  0
 47 45  2  0
 50 51  1  0
 50 25  1  0
 52 50  1  0
 53 55  1  0
 53 14  1  0
 54 65  2  0
 55 60  1  0
 56 64  1  0
 56 66  1  0
 57 63  1  0
 57 59  1  0
 58 64  1  0
 59 60  2  0
 59 58  1  0
 61 55  2  0
 62 61  1  0
 62 57  2  0
 63 56  1  0
 64 54  1  0
 66 68  2  0
 67 66  1  0
 69 67  1  0
 70 79  2  0
 70 75  1  0
 71 67  1  0
 71 75  1  0
 72 71  1  0
 73 74  1  0
 73 72  1  0
 74 70  1  0
 75 76  2  0
 76 77  1  0
 78 77  2  0
 79 78  1  0
 80 54  1  0
 80 81  1  0
 80 90  1  0
 81 84  1  0
 82 86  1  0
 82 81  1  0
 83 82  2  0
 86 85  1  0
 88 86  1  0
 88 89  1  0
 88 87  1  0
 90 93  1  1
 90 91  1  0
 92 90  1  0
M  ISO  4   1 100  14 101  24 100  53 101
M  END
>  <TORSDO>  (88) 
F 15

>  <SCORE>  (88) 
-15.974

>  <name>  (88) 
87

>  <ligand_id>  (88) 
87

>  <original_smiles>  (88) 
[H]c1c([H])c([H])c2c(c1[H])C([H])([H])C([H])([H])C([H])([H])C2([H])N([H])C(=O)C1([H])N(C(=O)C([H])(N([H])C(=O)C([H])(N([H])C([H])([H])[H])C([H])([H])[H])C(C([H])([H])[H])(C([H])([H])[H])C([H])([H])[H])C([H])([H])c2c([H])c(Oc3c([H])c([H])c4c(c3[H])C([H])([H])C([H])([H])C3(C([H])([H])C4([H])[H])C([H])([H])C([H])([H])N(C(=O)N4C([H])([H])C([H])([H])C([H])([H])C([H])(n5nc(-c6c([H])c([H])c(Oc7c([H])c([H])c(F)c([H])c7F)c([H])c6[H])c(C(=O)N([H])[H])c5N([H])[H])C4([H])[H])C([H])([H])C3([H])[H])c([H])c([H])c2C1([H])[H]

>  <smiles>  (88) 
[H]c1c([H])c([H])c2c(c1[H])C([H])([H])C([H])([H])C([H])([H])C2([H])N([H])C(=O)C1([H])N(C(=O)C([H])(N([H])C(=O)C([H])(N([H])C([H])([H])[H])C([H])([H])[H])C(C([H])([H])[H])(C([H])([H])[H])C([H])([H])[H])C([H])([H])c2c([H])c(Oc3c([H])c([H])c4c(c3[H])C([H])([H])C([H])([H])C3(C([H])([H])C4([H])[H])C([H])([H])C([H])([H])N(C(=O)N4C([H])([H])C([H])([H])C([H])([H])C([H])(n5nc(-c6c([H])c([H])c(Oc7c([H])c([H])c(F)c([H])c7F)c([H])c6[H])c(C(=O)N([H])[H])c5N([H])[H])C4([H])[H])C([H])([H])C3([H])[H])c([H])c([H])c2C1([H])[H]

$$$$
88:0:0
     RDKit          3D

 99108  0  0  1  0  0  0  0  0999 V2000
  -29.8360  -18.6290   17.4280 C   0  0  0  0  0  2  0  0  0  0  0  0
  -30.1280  -17.4780   18.4190 C   0  0  0  0  0  2  0  0  0  0  0  0
  -27.4430  -17.5960   17.2510 C   0  0  0  0  0  2  0  0  0  0  0  0
  -27.9660  -17.0990   19.7590 C   0  0  0  0  0  2  0  0  0  0  0  0
  -28.4630  -18.6260   16.7090 C   0  0  0  0  0  3  0  0  0  0  0  0
  -27.0560  -17.8370   18.7320 C   0  0  0  0  0  3  0  0  0  0  0  0
  -29.4850  -17.4170   19.8500 C   0  0  1  0  0  0  0  0  0  0  0  0
  -30.2670  -15.7060   20.2590 C   0  0  0  0  0  0  0  0  0  0  0  0
  -30.4270  -13.1220   19.5310 C   0  0  0  0  0  2  0  0  0  0  0  0
  -29.5560  -12.6500   18.3290 C   0  0  0  0  0  2  0  0  0  0  0  0
  -28.1450  -12.2490   18.7880 C   0  0  0  0  0  2  0  0  0  0  0  0
  -27.5870  -13.2750   19.7930 C   0  0  0  0  0  3  0  0  0  0  0  0
  -28.5970  -13.6880   20.8930 C   0  0  0  0  0  2  0  0  0  0  0  0
  -29.7730  -14.3180   20.2370 N   0  0  0  0  0  0  0  0  0  0  0  0
  -31.5120  -15.6020   20.2510 O   0  0  0  0  0  0  0  0  0  0  0  0
  -25.2350  -13.8030   20.5910 C   0  0  0  0  0  0  0  0  0  0  0  0
  -24.1670  -13.0250   20.9200 C   0  0  0  0  0  0  0  0  0  0  0  0
  -24.6370  -11.6780   20.8690 C   0  0  0  0  0  0  0  0  0  0  0  0
  -26.2760  -12.9350   20.3220 N   0  0  0  0  0  0  0  0  0  0  0  0
  -25.9300  -11.6460   20.5620 N   0  0  0  0  0  0  0  0  0  0  0  0
  -23.9070  -10.4180   21.0370 C   0  0  0  0  0  0  0  0  0  0  0  0
  -24.3630   -9.4130   21.9170 C   0  0  0  0  0  3  0  0  0  0  0  0
  -23.6280   -8.2190   22.0770 C   0  0  0  0  0  3  0  0  0  0  0  0
  -22.4270   -8.0240   21.3550 C   0  0  0  0  0  0  0  0  0  0  0  0
  -21.9900   -9.0190   20.4640 C   0  0  0  0  0  3  0  0  0  0  0  0
  -22.7250  -10.2050   20.3020 C   0  0  0  0  0  3  0  0  0  0  0  0
  -21.6620   -6.8860   21.4250 O   0  0  0  0  0  0  0  0  0  0  0  0
  -21.6830   -6.0730   22.5290 C   0  0  0  0  0  0  0  0  0  0  0  0
  -21.4000   -6.5640   23.8220 C   0  0  0  0  0  3  0  0  0  0  0  0
  -21.3660   -5.6790   24.9180 C   0  0  0  0  0  3  0  0  0  0  0  0
  -21.6040   -4.3060   24.7230 C   0  0  0  0  0  0  0  0  0  0  0  0
  -21.8820   -3.8150   23.4350 C   0  0  0  0  0  3  0  0  0  0  0  0
  -21.9190   -4.6960   22.3410 C   0  0  0  0  0  0  0  0  0  0  0  0
  -22.1660   -4.2150   21.0980 F   0  0  0  0  0  0  0  0  0  0  0  0
  -21.5630   -3.4540   25.7740 F   0  0  0  0  0  0  0  0  0  0  0  0
  -22.7720  -13.5070   21.1880 C   0  0  0  0  0  0  0  0  0  0  0  0
  -22.0360  -12.8080   22.0430 N   0  0  0  0  0  0  0  0  0  0  0  0
  -22.3520  -14.5470   20.6820 O   0  0  0  0  0  0  0  0  0  0  0  0
  -22.3960  -11.9710   22.4770 H   0  0  0  0  0  0  0  0  0  0  0  0
  -21.0990  -13.1110   22.2650 H   0  0  0  0  0  0  0  0  0  0  0  0
  -25.4010  -15.1780   20.4930 N   0  0  0  0  0  0  0  0  0  0  0  0
  -24.5700  -15.5800   20.9190 H   0  0  0  0  0  0  0  0  0  0  0  0
  -26.2020  -15.4080   21.0690 H   0  0  0  0  0  0  0  0  0  0  0  0
  -30.3300  -20.8960   22.0860 C   0  0  0  0  0  3  0  0  0  0  0  0
  -30.2380  -19.5660   21.5480 C   0  0  0  0  0  3  0  0  0  0  0  0
  -29.7000  -22.0890   21.5880 C   0  0  0  0  0  3  0  0  0  0  0  0
  -28.8260  -20.6200   19.9250 C   0  0  0  0  0  3  0  0  0  0  0  0
  -29.4860  -19.2190   20.3990 C   0  0  0  0  0  0  0  0  0  0  0  0
  -28.8610  -22.1380   20.4480 C   0  0  0  0  0  0  0  0  0  0  0  0
  -28.0430  -23.7620   20.0170 C   0  0  0  0  0  2  0  0  0  0  0  0
  -28.2100  -25.4870   20.3240 O   0  0  0  0  0  0  0  0  0  0  0  0
  -24.6850  -31.7990   23.1500 C   0  0  0  0  0  0  0  0  0  0  0  0
  -27.2460  -26.7050   20.2140 C   0  0  0  0  0  0  0  0  0  0  0  0
  -23.5120  -30.3980   21.5040 C   0  0  0  0  0  3  0  0  0  0  0  0
  -24.9750  -28.7380   20.1150 C   0  0  0  0  0  0  0  0  0  0  0  0
  -26.0930  -30.5320   21.4160 C   0  0  0  0  0  2  0  0  0  0  0  0
  -26.1620  -29.0970   20.7650 C   0  0  0  0  0  0  0  0  0  0  0  0
  -27.2790  -28.1080   20.7840 C   0  0  0  0  0  3  0  0  0  0  0  0
  -26.0270  -26.5560   19.5030 C   0  0  0  0  0  3  0  0  0  0  0  0
  -24.9470  -27.4930   19.4610 C   0  0  0  0  0  3  0  0  0  0  0  0
  -23.7670  -29.6910   20.1400 C   0  0  0  0  0  2  0  0  0  0  0  0
  -24.7870  -30.9420   22.0760 N   0  0  0  0  0  0  0  0  0  0  0  0
  -23.5870  -32.1060   23.6450 O   0  0  0  0  0  0  0  0  0  0  0  0
  -22.7780  -29.4300   22.4710 C   0  0  0  0  0  0  0  0  0  0  0  0
  -21.4420  -29.3020   22.3460 N   0  0  0  0  0  0  0  0  0  0  0  0
  -23.4210  -28.7920   23.3070 O   0  0  0  0  0  0  0  0  0  0  0  0
  -20.9750  -29.8670   21.6510 H   0  0  0  0  0  0  0  0  0  0  0  0
  -18.0340  -28.1430   22.8460 C   0  0  0  0  0  0  0  0  0  0  0  0
  -20.5970  -28.3790   23.1140 C   0  0  0  0  0  3  0  0  0  0  0  0
  -20.6800  -26.9440   22.5410 C   0  0  0  0  0  2  0  0  0  0  0  0
  -19.5780  -26.6380   21.5220 C   0  0  0  0  0  2  0  0  0  0  0  0
  -18.1960  -26.7960   22.1620 C   0  0  0  0  0  2  0  0  0  0  0  0
  -19.1600  -28.8930   23.2780 C   0  0  0  0  0  0  0  0  0  0  0  0
  -18.9510  -30.1520   23.8830 C   0  0  0  0  0  3  0  0  0  0  0  0
  -17.6500  -30.6610   24.0550 C   0  0  0  0  0  3  0  0  0  0  0  0
  -16.5390  -29.9090   23.6360 C   0  0  0  0  0  3  0  0  0  0  0  0
  -16.7320  -28.6510   23.0370 C   0  0  0  0  0  3  0  0  0  0  0  0
  -25.9430  -32.4460   23.8060 C   0  0  0  0  0  3  0  0  0  0  0  0
  -26.4600  -31.6500   25.0690 C   0  0  1  0  0  0  0  0  0  0  0  0
  -25.3660  -31.3820   26.1310 C   0  0  0  0  0  1  0  0  0  0  0  0
  -27.0520  -30.2830   24.6590 C   0  0  0  0  0  1  0  0  0  0  0  0
  -27.6040  -32.4360   25.7500 C   0  0  0  0  0  1  0  0  0  0  0  0
  -25.6000  -33.8290   24.1950 N   0  0  0  0  0  0  0  0  0  0  0  0
  -25.9130  -34.9280   23.4960 C   0  0  0  0  0  0  0  0  0  0  0  0
  -26.5770  -34.8860   22.4570 O   0  0  0  0  0  0  0  0  0  0  0  0
  -25.0060  -33.9330   25.0040 H   0  0  0  0  0  0  0  0  0  0  0  0
  -24.1490  -36.7150   23.2650 C   0  0  0  0  0  1  0  0  0  0  0  0
  -25.4140  -36.2890   24.0290 C   0  0  0  0  0  3  0  0  0  0  0  0
  -27.5570  -37.1730   24.8460 C   0  0  0  0  0  1  0  0  0  0  0  0
  -26.4260  -37.3660   23.9420 N   0  0  0  0  0  0  0  0  0  0  0  0
  -26.0090  -38.2710   24.1450 H   0  0  0  0  0  0  0  0  0  0  0  0
  -25.6370  -17.5030   18.9570 N   0  0  0  0  0  4  0  0  0  0  0  0
  -25.5120  -16.5170   19.1730 H   0  0  0  0  0  0  0  0  0  0  0  0
  -25.0640  -17.7450   18.1680 H   0  0  0  0  0  0  0  0  0  0  0  0
  -25.2900  -18.0160   19.7480 H   0  0  0  0  0  0  0  0  0  0  0  0
  -28.6300  -18.5130   15.2440 N   0  0  0  0  0  4  0  0  0  0  0  0
  -29.0740  -17.6510   14.9780 H   0  0  0  0  0  0  0  0  0  0  0  0
  -29.1940  -19.2720   14.9010 H   0  0  0  0  0  0  0  0  0  0  0  0
  -27.7440  -18.5690   14.7720 H   0  0  0  0  0  0  0  0  0  0  0  0
  1  2  1  0
  2  7  1  0
  3  6  1  0
  4  7  1  0
  5 96  1  0
  5  3  1  0
  5  1  1  0
  6 92  1  0
  6  4  1  0
  7  8  1  1
  7 48  1  0
  9 14  1  0
 10 11  1  0
 10  9  1  0
 12 11  1  0
 12 19  1  0
 12 13  1  0
 14  8  1  0
 14 13  1  0
 15  8  2  0
 16 17  2  0
 17 36  1  0
 18 17  1  0
 18 21  1  0
 19 20  1  0
 19 16  1  0
 20 18  2  0
 21 22  1  0
 22 23  2  0
 24 27  1  0
 24 23  1  0
 25 24  2  0
 26 25  1  0
 26 21  2  0
 27 28  1  0
 28 29  1  0
 29 30  2  0
 31 30  1  0
 31 35  1  0
 32 31  2  0
 33 28  2  0
 33 32  1  0
 34 33  1  0
 36 37  1  0
 37 40  1  0
 37 39  1  0
 38 36  2  0
 41 16  1  0
 41 42  1  0
 41 43  1  0
 45 44  2  0
 46 44  1  0
 47 48  2  0
 47 49  1  0
 48 45  1  0
 49 46  2  0
 50 51  1  0
 50 49  1  0
 52 63  2  0
 53 51  1  0
 53 58  1  0
 54 62  1  0
 54 64  1  0
 55 61  1  0
 55 57  1  0
 56 62  1  0
 57 58  2  0
 57 56  1  0
 59 53  2  0
 60 59  1  0
 60 55  2  0
 61 54  1  0
 62 52  1  0
 64 66  2  0
 65 64  1  0
 67 65  1  0
 68 77  2  0
 68 73  1  0
 69 65  1  0
 69 73  1  0
 70 69  1  0
 71 72  1  0
 71 70  1  0
 72 68  1  0
 73 74  2  0
 74 75  1  0
 76 75  2  0
 77 76  1  0
 78 52  1  0
 78 83  1  0
 78 79  1  0
 79 82  1  1
 79 80  1  0
 81 79  1  0
 83 86  1  0
 84 88  1  0
 84 83  1  0
 85 84  2  0
 88 87  1  0
 90 88  1  0
 90 91  1  0
 90 89  1  0
 92 93  1  0
 92 95  1  0
 94 92  1  0
 97 96  1  0
 98 96  1  0
 99 96  1  0
M  ISO  4   7 100   8 100  50 101  51 101
M  END
>  <TORSDO>  (89) 
F 20

>  <SCORE>  (89) 
-13.460

>  <name>  (89) 
88

>  <ligand_id>  (89) 
88

>  <original_smiles>  (89) 
[H]c1c([H])c([H])c2c(c1[H])C([H])([H])C([H])([H])C([H])([H])C2([H])N([H])C(=O)C1([H])N(C(=O)C([H])(N([H])C(=O)C([H])(N([H])C([H])([H])[H])C([H])([H])[H])C(C([H])([H])[H])(C([H])([H])[H])C([H])([H])[H])C([H])([H])c2c([H])c(OC([H])([H])c3c([H])c([H])c([H])c(C4(C(=O)N5C([H])([H])C([H])([H])C([H])([H])C([H])(n6nc(-c7c([H])c([H])c(Oc8c([H])c([H])c(F)c([H])c8F)c([H])c7[H])c(C(=O)N([H])[H])c6N([H])[H])C5([H])[H])C([H])([H])C([H])([H])C([H])([N+]([H])([H])[H])C([H])([H])C([H])([N+]([H])([H])[H])C4([H])[H])c3[H])c([H])c([H])c2C1([H])[H]

>  <smiles>  (89) 
[H]c1c([H])c([H])c2c(c1[H])C([H])([H])C([H])([H])C([H])([H])C2([H])N([H])C(=O)C1([H])N(C(=O)C([H])(N([H])C(=O)C([H])(N([H])C([H])([H])[H])C([H])([H])[H])C(C([H])([H])[H])(C([H])([H])[H])C([H])([H])[H])C([H])([H])c2c([H])c(OC([H])([H])c3c([H])c([H])c([H])c(C4(C(=O)N5C([H])([H])C([H])([H])C([H])([H])C([H])(n6nc(-c7c([H])c([H])c(Oc8c([H])c([H])c(F)c([H])c8F)c([H])c7[H])c(C(=O)N([H])[H])c6N([H])[H])C5([H])[H])C([H])([H])C([H])([H])C([H])([N+]([H])([H])[H])C([H])([H])C([H])([N+]([H])([H])[H])C4([H])[H])c3[H])c([H])c([H])c2C1([H])[H]

$$$$
89:0:0
     RDKit          3D

 92101  0  0  1  0  0  0  0  0999 V2000
  -29.5990  -21.6150   19.2390 C   0  0  0  0  0  3  0  0  0  0  0  0
  -29.0720  -22.9160   19.0080 C   0  0  0  0  0  3  0  0  0  0  0  0
  -29.3320  -23.5000   21.3500 C   0  0  0  0  0  3  0  0  0  0  0  0
  -29.9720  -21.2410   20.5450 C   0  0  0  0  0  0  0  0  0  0  0  0
  -29.8630  -22.1940   21.5630 C   0  0  0  0  0  0  0  0  0  0  0  0
  -28.9070  -23.8790   20.0480 C   0  0  0  0  0  0  0  0  0  0  0  0
  -30.3960  -21.6430   22.8590 C   0  0  0  0  0  3  0  0  0  0  0  0
  -30.9550  -20.2350   22.5060 C   0  0  0  0  0  3  0  0  0  0  0  0
  -30.6440  -19.9250   21.0100 C   0  0  0  0  0  3  0  0  0  0  0  0
  -29.8850  -18.6310   20.8480 N   0  0  0  0  0  4  0  0  0  0  0  0
  -29.4310  -18.6600   19.9500 H   0  0  0  0  0  0  0  0  0  0  0  0
  -29.1610  -18.6110   21.5450 H   0  0  0  0  0  0  0  0  0  0  0  0
  -30.7090  -17.3580   20.9110 C   0  0  0  0  0  2  0  0  0  0  0  0
  -29.9260  -15.9790   21.0230 C   0  0  0  0  0  2  0  0  0  0  0  0
  -30.6710  -14.6820   20.5280 C   0  0  0  0  0  0  0  0  0  0  0  0
  -30.3930  -12.5050   19.3620 C   0  0  0  0  0  2  0  0  0  0  0  0
  -29.4610  -12.7110   18.1460 C   0  0  0  0  0  2  0  0  0  0  0  0
  -27.9840  -12.5590   18.5590 C   0  0  0  0  0  2  0  0  0  0  0  0
  -27.6320  -13.3820   19.8250 C   0  0  0  0  0  3  0  0  0  0  0  0
  -28.6820  -13.1800   20.9410 C   0  0  0  0  0  2  0  0  0  0  0  0
  -30.0080  -13.4910   20.3900 N   0  0  0  0  0  0  0  0  0  0  0  0
  -31.8290  -14.8030   20.1220 O   0  0  0  0  0  0  0  0  0  0  0  0
  -25.2290  -13.9820   20.5110 C   0  0  0  0  0  0  0  0  0  0  0  0
  -24.1580  -13.2090   20.8680 C   0  0  0  0  0  0  0  0  0  0  0  0
  -24.6210  -11.8580   20.8490 C   0  0  0  0  0  0  0  0  0  0  0  0
  -26.2770  -13.1010   20.2950 N   0  0  0  0  0  0  0  0  0  0  0  0
  -25.9160  -11.8190   20.5580 N   0  0  0  0  0  0  0  0  0  0  0  0
  -23.8940  -10.5950   21.0330 C   0  0  0  0  0  0  0  0  0  0  0  0
  -24.3110   -9.6320   21.9780 C   0  0  0  0  0  3  0  0  0  0  0  0
  -23.5830   -8.4350   22.1490 C   0  0  0  0  0  3  0  0  0  0  0  0
  -22.4240   -8.1910   21.3750 C   0  0  0  0  0  0  0  0  0  0  0  0
  -22.0260   -9.1440   20.4200 C   0  0  0  0  0  3  0  0  0  0  0  0
  -22.7540  -10.3320   20.2470 C   0  0  0  0  0  3  0  0  0  0  0  0
  -21.6690   -7.0460   21.4540 O   0  0  0  0  0  0  0  0  0  0  0  0
  -21.5950   -6.3130   22.6110 C   0  0  0  0  0  0  0  0  0  0  0  0
  -21.1160   -6.8690   23.8160 C   0  0  0  0  0  3  0  0  0  0  0  0
  -20.9900   -6.0620   24.9650 C   0  0  0  0  0  3  0  0  0  0  0  0
  -21.3330   -4.6980   24.9070 C   0  0  0  0  0  0  0  0  0  0  0  0
  -21.8050   -4.1400   23.7060 C   0  0  0  0  0  3  0  0  0  0  0  0
  -21.9320   -4.9450   22.5600 C   0  0  0  0  0  0  0  0  0  0  0  0
  -22.3670   -4.3980   21.3990 F   0  0  0  0  0  0  0  0  0  0  0  0
  -21.2050   -3.9190   26.0070 F   0  0  0  0  0  0  0  0  0  0  0  0
  -22.7560  -13.6850   21.1200 C   0  0  0  0  0  0  0  0  0  0  0  0
  -22.0160  -12.9900   21.9760 N   0  0  0  0  0  0  0  0  0  0  0  0
  -22.3250  -14.7090   20.5920 O   0  0  0  0  0  0  0  0  0  0  0  0
  -22.3760  -12.1600   22.4240 H   0  0  0  0  0  0  0  0  0  0  0  0
  -21.0760  -13.2930   22.1880 H   0  0  0  0  0  0  0  0  0  0  0  0
  -25.3960  -15.3520   20.3320 N   0  0  0  0  0  0  0  0  0  0  0  0
  -24.6280  -16.0080   20.4260 H   0  0  0  0  0  0  0  0  0  0  0  0
  -26.2500  -15.7860   20.0050 H   0  0  0  0  0  0  0  0  0  0  0  0
  -28.0130  -25.1220   19.7580 C   0  0  0  0  0  2  0  0  0  0  0  0
  -28.3080  -26.5060   20.1710 O   0  0  0  0  0  0  0  0  0  0  0  0
  -24.6070  -31.8930   23.2490 C   0  0  0  0  0  0  0  0  0  0  0  0
  -27.2050  -27.3820   20.1170 C   0  0  0  0  0  0  0  0  0  0  0  0
  -23.3960  -30.5130   21.6040 C   0  0  0  0  0  3  0  0  0  0  0  0
  -24.8390  -28.9970   20.1480 C   0  0  0  0  0  0  0  0  0  0  0  0
  -25.9370  -30.8360   21.4130 C   0  0  0  0  0  2  0  0  0  0  0  0
  -26.0130  -29.4690   20.7490 C   0  0  0  0  0  0  0  0  0  0  0  0
  -27.1970  -28.6710   20.7340 C   0  0  0  0  0  3  0  0  0  0  0  0
  -26.0010  -26.9850   19.4730 C   0  0  0  0  0  3  0  0  0  0  0  0
  -24.8350  -27.7580   19.5040 C   0  0  0  0  0  3  0  0  0  0  0  0
  -23.6020  -29.8640   20.2130 C   0  0  0  0  0  2  0  0  0  0  0  0
  -24.6660  -31.0960   22.1450 N   0  0  0  0  0  0  0  0  0  0  0  0
  -23.5270  -32.1640   23.7910 O   0  0  0  0  0  0  0  0  0  0  0  0
  -22.7420  -29.4780   22.5520 C   0  0  0  0  0  0  0  0  0  0  0  0
  -21.4180  -29.2940   22.4250 N   0  0  0  0  0  0  0  0  0  0  0  0
  -23.4250  -28.8480   23.3630 O   0  0  0  0  0  0  0  0  0  0  0  0
  -20.9260  -29.8560   21.7430 H   0  0  0  0  0  0  0  0  0  0  0  0
  -18.0440  -28.0920   22.9280 C   0  0  0  0  0  0  0  0  0  0  0  0
  -20.6030  -28.3490   23.1890 C   0  0  0  0  0  3  0  0  0  0  0  0
  -20.7030  -26.9230   22.5990 C   0  0  0  0  0  2  0  0  0  0  0  0
  -19.5960  -26.6100   21.5880 C   0  0  0  0  0  2  0  0  0  0  0  0
  -18.2170  -26.7490   22.2390 C   0  0  0  0  0  2  0  0  0  0  0  0
  -19.1640  -28.8510   23.3600 C   0  0  0  0  0  0  0  0  0  0  0  0
  -18.9470  -30.1080   23.9640 C   0  0  0  0  0  3  0  0  0  0  0  0
  -17.6430  -30.6090   24.1400 C   0  0  0  0  0  3  0  0  0  0  0  0
  -16.5370  -29.8460   23.7250 C   0  0  0  0  0  3  0  0  0  0  0  0
  -16.7380  -28.5910   23.1260 C   0  0  0  0  0  3  0  0  0  0  0  0
  -25.8940  -32.5200   23.8690 C   0  0  0  0  0  3  0  0  0  0  0  0
  -26.4050  -31.7500   25.1480 C   0  0  1  0  0  0  0  0  0  0  0  0
  -25.3080  -31.5190   26.2140 C   0  0  0  0  0  1  0  0  0  0  0  0
  -26.9850  -30.3700   24.7610 C   0  0  0  0  0  1  0  0  0  0  0  0
  -27.5570  -32.5430   25.8080 C   0  0  0  0  0  1  0  0  0  0  0  0
  -25.5910  -33.9210   24.1930 N   0  0  0  0  0  0  0  0  0  0  0  0
  -25.9120  -34.9670   23.4210 C   0  0  0  0  0  0  0  0  0  0  0  0
  -26.5680  -34.8560   22.3820 O   0  0  0  0  0  0  0  0  0  0  0  0
  -25.0100  -34.0820   25.0030 H   0  0  0  0  0  0  0  0  0  0  0  0
  -24.1790  -36.7580   23.0800 C   0  0  0  0  0  1  0  0  0  0  0  0
  -25.4320  -36.3590   23.8760 C   0  0  0  0  0  3  0  0  0  0  0  0
  -27.5780  -37.2490   24.6720 C   0  0  0  0  0  1  0  0  0  0  0  0
  -26.4620  -37.4120   23.7430 N   0  0  0  0  0  0  0  0  0  0  0  0
  -26.0570  -38.3320   23.8920 H   0  0  0  0  0  0  0  0  0  0  0  0
  1  4  1  0
  2  1  2  0
  2  6  1  0
  3  5  1  0
  4  9  1  0
  4  5  2  0
  5  7  1  0
  6  3  2  0
  8  7  2  0
  9 10  1  0
  9  8  1  0
 10 13  1  0
 10 12  1  0
 11 10  1  0
 13 14  1  0
 15 14  1  0
 16 21  1  0
 17 18  1  0
 17 16  1  0
 19 18  1  0
 19 26  1  0
 19 20  1  0
 21 15  1  0
 21 20  1  0
 22 15  2  0
 23 24  2  0
 24 43  1  0
 25 24  1  0
 25 28  1  0
 26 23  1  0
 26 27  1  0
 27 25  2  0
 28 29  1  0
 29 30  2  0
 31 34  1  0
 31 30  1  0
 32 31  2  0
 33 32  1  0
 33 28  2  0
 34 35  1  0
 35 36  1  0
 36 37  2  0
 38 37  1  0
 38 42  1  0
 39 38  2  0
 40 35  2  0
 40 39  1  0
 41 40  1  0
 43 44  1  0
 44 47  1  0
 44 46  1  0
 45 43  2  0
 48 49  1  0
 48 23  1  0
 50 48  1  0
 51  6  1  0
 51 52  1  0
 53 64  2  0
 54 52  1  0
 54 59  1  0
 55 63  1  0
 55 65  1  0
 56 62  1  0
 56 58  1  0
 57 63  1  0
 58 57  1  0
 59 58  2  0
 60 61  1  0
 60 54  2  0
 61 56  2  0
 62 55  1  0
 63 53  1  0
 65 67  2  0
 66 65  1  0
 68 66  1  0
 69 78  2  0
 69 74  1  0
 70 66  1  0
 70 74  1  0
 71 70  1  0
 72 73  1  0
 72 71  1  0
 73 69  1  0
 74 75  2  0
 75 76  1  0
 77 76  2  0
 78 77  1  0
 79 53  1  0
 79 84  1  0
 79 80  1  0
 80 83  1  1
 80 81  1  0
 82 80  1  0
 84 87  1  0
 85 89  1  0
 85 84  1  0
 86 85  2  0
 89 88  1  0
 91 89  1  0
 91 92  1  0
 91 90  1  0
M  ISO  4  14 100  15 100  51 101  52 101
M  END
>  <TORSDO>  (90) 
F 20

>  <SCORE>  (90) 
-14.143

>  <name>  (90) 
89

>  <ligand_id>  (90) 
89

>  <original_smiles>  (90) 
[H]c1c([H])c([H])c2c(c1[H])C([H])([H])C([H])([H])C([H])([H])C2([H])N([H])C(=O)C1([H])N(C(=O)C([H])(N([H])C(=O)C([H])(N([H])C([H])([H])[H])C([H])([H])[H])C(C([H])([H])[H])(C([H])([H])[H])C([H])([H])[H])C([H])([H])c2c([H])c(OC([H])([H])c3c([H])c([H])c4c(c3[H])C([H])([H])C([H])([H])C4([H])[N+]([H])([H])C([H])([H])C([H])([H])C(=O)N3C([H])([H])C([H])([H])C([H])([H])C([H])(n4nc(-c5c([H])c([H])c(Oc6c([H])c([H])c(F)c([H])c6F)c([H])c5[H])c(C(=O)N([H])[H])c4N([H])[H])C3([H])[H])c([H])c([H])c2C1([H])[H]

>  <smiles>  (90) 
[H]c1c([H])c([H])c2c(c1[H])C([H])([H])C([H])([H])C([H])([H])C2([H])N([H])C(=O)C1([H])N(C(=O)C([H])(N([H])C(=O)C([H])(N([H])C([H])([H])[H])C([H])([H])[H])C(C([H])([H])[H])(C([H])([H])[H])C([H])([H])[H])C([H])([H])c2c([H])c(OC([H])([H])c3c([H])c([H])c4c(c3[H])C([H])([H])C([H])([H])C4([H])[N+]([H])([H])C([H])([H])C([H])([H])C(=O)N3C([H])([H])C([H])([H])C([H])([H])C([H])(n4nc(-c5c([H])c([H])c(Oc6c([H])c([H])c(F)c([H])c6F)c([H])c5[H])c(C(=O)N([H])[H])c4N([H])[H])C3([H])[H])c([H])c([H])c2C1([H])[H]

$$$$
90:0:0
     RDKit          3D

 90 98  0  0  1  0  0  0  0  0999 V2000
  -27.6350  -20.9120   19.9730 C   0  0  0  0  0  3  0  0  0  0  0  0
  -29.2480  -22.6530   20.3350 C   0  0  0  0  0  3  0  0  0  0  0  0
  -27.0370  -23.4370   19.9010 C   0  0  0  0  0  3  0  0  0  0  0  0
  -29.0190  -21.0100   20.2570 C   0  0  0  0  0  0  0  0  0  0  0  0
  -26.7320  -22.0260   19.8140 C   0  0  0  0  0  0  0  0  0  0  0  0
  -28.3100  -24.0120   20.1630 C   0  0  0  0  0  0  0  0  0  0  0  0
  -30.5490  -16.3870   20.7090 C   0  0  0  0  0  0  0  0  0  0  0  0
  -30.8190  -13.7370   20.1270 C   0  0  0  0  0  2  0  0  0  0  0  0
  -30.1200  -13.0980   18.8870 C   0  0  0  0  0  2  0  0  0  0  0  0
  -28.6770  -12.6930   19.2130 C   0  0  0  0  0  2  0  0  0  0  0  0
  -27.9940  -13.7730   20.0790 C   0  0  0  0  0  3  0  0  0  0  0  0
  -28.8590  -14.3050   21.2530 C   0  0  0  0  0  2  0  0  0  0  0  0
  -30.0510  -14.9780   20.6600 N   0  0  0  0  0  0  0  0  0  0  0  0
  -31.7920  -16.2510   20.7470 O   0  0  0  0  0  0  0  0  0  0  0  0
  -29.9840  -19.4560   20.4450 C   0  0  0  0  0  0  0  0  0  0  0  0
  -29.8670  -17.8510   20.5610 N   0  0  0  0  0  0  0  0  0  0  0  0
  -31.1730  -19.7730   20.5040 O   0  0  0  0  0  0  0  0  0  0  0  0
  -30.8550  -18.0550   20.6490 H   0  0  0  0  0  0  0  0  0  0  0  0
  -25.5750  -14.2900   20.6120 C   0  0  0  0  0  0  0  0  0  0  0  0
  -24.4820  -13.5100   20.8600 C   0  0  0  0  0  0  0  0  0  0  0  0
  -24.9510  -12.1600   20.8680 C   0  0  0  0  0  0  0  0  0  0  0  0
  -26.6370  -13.4200   20.4710 N   0  0  0  0  0  0  0  0  0  0  0  0
  -26.2710  -12.1290   20.6920 N   0  0  0  0  0  0  0  0  0  0  0  0
  -24.2010  -10.8990   20.9720 C   0  0  0  0  0  0  0  0  0  0  0  0
  -24.5120   -9.9310   21.9530 C   0  0  0  0  0  3  0  0  0  0  0  0
  -23.7590   -8.7410   22.0490 C   0  0  0  0  0  3  0  0  0  0  0  0
  -22.6800   -8.5090   21.1630 C   0  0  0  0  0  0  0  0  0  0  0  0
  -22.3890   -9.4650   20.1740 C   0  0  0  0  0  3  0  0  0  0  0  0
  -23.1430  -10.6460   20.0770 C   0  0  0  0  0  3  0  0  0  0  0  0
  -21.9110   -7.3700   21.1650 O   0  0  0  0  0  0  0  0  0  0  0  0
  -21.7030   -6.6420   22.3090 C   0  0  0  0  0  0  0  0  0  0  0  0
  -21.0790   -7.2030   23.4460 C   0  0  0  0  0  3  0  0  0  0  0  0
  -20.8220   -6.4010   24.5760 C   0  0  0  0  0  3  0  0  0  0  0  0
  -21.1810   -5.0400   24.5700 C   0  0  0  0  0  0  0  0  0  0  0  0
  -21.7970   -4.4780   23.4370 C   0  0  0  0  0  3  0  0  0  0  0  0
  -22.0550   -5.2780   22.3100 C   0  0  0  0  0  0  0  0  0  0  0  0
  -22.6290   -4.7260   21.2140 F   0  0  0  0  0  0  0  0  0  0  0  0
  -20.9280   -4.2670   25.6520 F   0  0  0  0  0  0  0  0  0  0  0  0
  -23.0670  -13.9910   20.9780 C   0  0  0  0  0  0  0  0  0  0  0  0
  -22.2510  -13.3030   21.7680 N   0  0  0  0  0  0  0  0  0  0  0  0
  -22.6920  -15.0160   20.4090 O   0  0  0  0  0  0  0  0  0  0  0  0
  -22.5660  -12.4760   22.2520 H   0  0  0  0  0  0  0  0  0  0  0  0
  -21.2950  -13.6080   21.8900 H   0  0  0  0  0  0  0  0  0  0  0  0
  -25.7560  -15.6620   20.4620 N   0  0  0  0  0  0  0  0  0  0  0  0
  -24.9850  -16.3200   20.5050 H   0  0  0  0  0  0  0  0  0  0  0  0
  -26.6420  -16.1030   20.2470 H   0  0  0  0  0  0  0  0  0  0  0  0
  -25.4030  -21.7000   19.5540 N   0  0  0  0  0  0  0  0  0  0  0  0
  -24.6860  -22.4000   19.7190 H   0  0  0  0  0  0  0  0  0  0  0  0
  -25.0820  -20.7560   19.7470 H   0  0  0  0  0  0  0  0  0  0  0  0
  -28.3770  -25.6900   20.2290 O   0  0  0  0  0  0  0  0  0  0  0  0
  -24.7210  -32.0280   23.3550 C   0  0  0  0  0  0  0  0  0  0  0  0
  -27.3920  -26.9590   20.2510 C   0  0  0  0  0  0  0  0  0  0  0  0
  -23.5970  -30.6650   21.6500 C   0  0  0  0  0  3  0  0  0  0  0  0
  -25.1040  -29.0630   20.2180 C   0  0  0  0  0  0  0  0  0  0  0  0
  -26.1830  -30.8080   21.6030 C   0  0  0  0  0  2  0  0  0  0  0  0
  -26.2820  -29.3810   20.9020 C   0  0  0  0  0  0  0  0  0  0  0  0
  -27.4000  -28.3620   20.8870 C   0  0  0  0  0  3  0  0  0  0  0  0
  -26.1790  -26.9070   19.5030 C   0  0  0  0  0  3  0  0  0  0  0  0
  -25.1020  -27.8560   19.4940 C   0  0  0  0  0  3  0  0  0  0  0  0
  -23.8860  -30.0100   20.2650 C   0  0  0  0  0  2  0  0  0  0  0  0
  -24.8580  -31.2040   22.2560 N   0  0  0  0  0  0  0  0  0  0  0  0
  -23.6100  -32.2970   23.8460 O   0  0  0  0  0  0  0  0  0  0  0  0
  -22.8660  -29.6540   22.5760 C   0  0  0  0  0  0  0  0  0  0  0  0
  -21.5430  -29.4670   22.4010 N   0  0  0  0  0  0  0  0  0  0  0  0
  -23.5070  -29.0330   23.4270 O   0  0  0  0  0  0  0  0  0  0  0  0
  -21.0720  -30.0190   21.6970 H   0  0  0  0  0  0  0  0  0  0  0  0
  -18.1650  -28.1860   22.8310 C   0  0  0  0  0  0  0  0  0  0  0  0
  -20.7190  -28.4870   23.1230 C   0  0  0  0  0  3  0  0  0  0  0  0
  -20.8470  -27.0810   22.4900 C   0  0  0  0  0  2  0  0  0  0  0  0
  -19.7600  -26.7870   21.4510 C   0  0  0  0  0  2  0  0  0  0  0  0
  -18.3710  -26.8750   22.0890 C   0  0  0  0  0  2  0  0  0  0  0  0
  -19.2670  -28.9500   23.3020 C   0  0  0  0  0  0  0  0  0  0  0  0
  -19.0160  -30.1720   23.9620 C   0  0  0  0  0  3  0  0  0  0  0  0
  -17.6990  -30.6340   24.1510 C   0  0  0  0  0  3  0  0  0  0  0  0
  -16.6140  -29.8690   23.6920 C   0  0  0  0  0  3  0  0  0  0  0  0
  -16.8470  -28.6450   23.0380 C   0  0  0  0  0  3  0  0  0  0  0  0
  -25.9520  -32.6870   24.0500 C   0  0  0  0  0  3  0  0  0  0  0  0
  -25.6090  -34.0860   24.3790 N   0  0  0  0  0  0  0  0  0  0  0  0
  -25.9470  -35.1600   23.6500 C   0  0  0  0  0  0  0  0  0  0  0  0
  -26.6340  -35.0780   22.6290 O   0  0  0  0  0  0  0  0  0  0  0  0
  -24.9990  -34.2230   25.1700 H   0  0  0  0  0  0  0  0  0  0  0  0
  -24.2010  -36.9510   23.3290 C   0  0  0  0  0  1  0  0  0  0  0  0
  -25.4510  -36.5440   24.1260 C   0  0  0  0  0  3  0  0  0  0  0  0
  -27.5750  -37.4610   24.9590 C   0  0  0  0  0  1  0  0  0  0  0  0
  -26.4730  -37.6100   24.0120 N   0  0  0  0  0  0  0  0  0  0  0  0
  -26.0550  -38.5260   24.1540 H   0  0  0  0  0  0  0  0  0  0  0  0
  -26.3960  -31.9300   25.3640 C   0  0  1  0  0  0  0  0  0  0  0  0
  -25.2430  -31.6930   26.3690 C   0  0  0  0  0  1  0  0  0  0  0  0
  -27.0120  -30.5530   25.0340 C   0  0  0  0  0  1  0  0  0  0  0  0
  -27.5000  -32.7390   26.0860 C   0  0  0  0  0  1  0  0  0  0  0  0
  1  4  1  0
  3  6  2  0
  4  2  2  0
  4 15  1  0
  5  3  1  0
  5  1  2  0
  6 50  1  0
  6  2  1  0
  7 14  2  0
  8 13  1  0
  9 10  1  0
  9  8  1  0
 11 10  1  0
 11 22  1  0
 11 12  1  0
 13  7  1  0
 13 12  1  0
 15 17  2  0
 15 16  1  0
 16 18  1  0
 16  7  1  0
 19 20  2  0
 20 21  1  0
 20 39  1  0
 21 24  1  0
 22 19  1  0
 22 23  1  0
 23 21  2  0
 24 25  1  0
 25 26  2  0
 27 30  1  0
 27 26  1  0
 28 27  2  0
 29 28  1  0
 29 24  2  0
 30 31  1  0
 31 36  2  0
 31 32  1  0
 32 33  2  0
 34 33  1  0
 34 38  1  0
 35 34  2  0
 36 35  1  0
 37 36  1  0
 39 40  1  0
 40 43  1  0
 40 42  1  0
 41 39  2  0
 44 45  1  0
 44 19  1  0
 46 44  1  0
 47 48  1  0
 47 49  1  0
 47  5  1  0
 50 52  1  0
 51 62  2  0
 52 57  1  0
 53 61  1  0
 53 63  1  0
 54 60  1  0
 54 56  1  0
 55 61  1  0
 56 55  1  0
 57 56  2  0
 58 52  2  0
 59 58  1  0
 59 54  2  0
 60 53  1  0
 61 51  1  0
 63 65  2  0
 64 63  1  0
 66 64  1  0
 67 76  2  0
 67 72  1  0
 68 64  1  0
 68 72  1  0
 69 68  1  0
 70 71  1  0
 70 69  1  0
 71 67  1  0
 72 73  2  0
 73 74  1  0
 75 74  2  0
 76 75  1  0
 77 51  1  0
 77 78  1  0
 77 87  1  0
 78 81  1  0
 79 83  1  0
 79 78  1  0
 80 79  2  0
 83 82  1  0
 85 83  1  0
 85 86  1  0
 85 84  1  0
 87 90  1  1
 87 88  1  0
 89 87  1  0
M  ISO  4   6 101   7 100  16 100  50 101
M  END
>  <TORSDO>  (91) 
F 17

>  <SCORE>  (91) 
-14.754

>  <name>  (91) 
90

>  <ligand_id>  (91) 
90

>  <original_smiles>  (91) 
[H]c1c([H])c([H])c2c(c1[H])C([H])([H])C([H])([H])C([H])([H])C2([H])N([H])C(=O)C1([H])N(C(=O)C([H])(N([H])C(=O)C([H])(N([H])C([H])([H])[H])C([H])([H])[H])C(C([H])([H])[H])(C([H])([H])[H])C([H])([H])[H])C([H])([H])c2c([H])c(Oc3c([H])c(C(=O)N([H])C(=O)N4C([H])([H])C([H])([H])C([H])([H])C([H])(n5nc(-c6c([H])c([H])c(Oc7c([H])c([H])c(F)c([H])c7F)c([H])c6[H])c(C(=O)N([H])[H])c5N([H])[H])C4([H])[H])c([H])c(N([H])[H])c3[H])c([H])c([H])c2C1([H])[H]

>  <smiles>  (91) 
[H]c1c([H])c([H])c2c(c1[H])C([H])([H])C([H])([H])C([H])([H])C2([H])N([H])C(=O)C1([H])N(C(=O)C([H])(N([H])C(=O)C([H])(N([H])C([H])([H])[H])C([H])([H])[H])C(C([H])([H])[H])(C([H])([H])[H])C([H])([H])[H])C([H])([H])c2c([H])c(Oc3c([H])c(C(=O)N([H])C(=O)N4C([H])([H])C([H])([H])C([H])([H])C([H])(n5nc(-c6c([H])c([H])c(Oc7c([H])c([H])c(F)c([H])c7F)c([H])c6[H])c(C(=O)N([H])[H])c5N([H])[H])C4([H])[H])c([H])c(N([H])[H])c3[H])c([H])c([H])c2C1([H])[H]

$$$$
91:0:0
     RDKit          3D

 92101  0  0  1  0  0  0  0  0999 V2000
  -29.4540  -24.0080   22.6860 C   0  0  0  0  0  3  0  0  0  0  0  0
  -29.4330  -22.7350   22.0810 C   0  0  0  0  0  3  0  0  0  0  0  0
  -29.0330  -25.1680   22.0040 C   0  0  0  0  0  3  0  0  0  0  0  0
  -28.9630  -22.5210   20.7670 C   0  0  0  0  0  0  0  0  0  0  0  0
  -28.5150  -23.7660   20.0750 C   0  0  0  0  0  0  0  0  0  0  0  0
  -28.5630  -25.1250   20.6760 C   0  0  0  0  0  0  0  0  0  0  0  0
  -27.9660  -23.6540   18.6640 C   0  0  0  0  0  1  0  0  0  0  0  0
  -28.2590  -19.8900   21.1890 C   0  0  0  0  0  2  0  0  0  0  0  0
  -30.3850  -20.2300   20.0670 C   0  0  0  0  0  2  0  0  0  0  0  0
  -28.3400  -18.3230   20.8300 C   0  0  0  0  0  2  0  0  0  0  0  0
  -30.4260  -18.6690   19.6320 C   0  0  0  0  0  2  0  0  0  0  0  0
  -28.9790  -20.9540   20.2520 C   0  0  0  0  0  3  0  0  0  0  0  0
  -29.7540  -17.6310   20.6220 C   0  0  0  0  0  3  0  0  0  0  0  0
  -30.4990  -15.0030   19.9570 C   0  0  0  0  0  0  0  0  0  0  0  0
  -30.3310  -12.7260   18.8530 C   0  0  0  0  0  2  0  0  0  0  0  0
  -29.2940  -12.7660   17.7050 C   0  0  0  0  0  2  0  0  0  0  0  0
  -27.8600  -12.5530   18.2350 C   0  0  0  0  0  2  0  0  0  0  0  0
  -27.5620  -13.3900   19.5080 C   0  0  0  0  0  3  0  0  0  0  0  0
  -28.7060  -13.2840   20.5380 C   0  0  0  0  0  2  0  0  0  0  0  0
  -29.9300  -13.7380   19.8660 N   0  0  0  0  0  0  0  0  0  0  0  0
  -31.6620  -15.1530   19.5680 O   0  0  0  0  0  0  0  0  0  0  0  0
  -29.6670  -16.0880   20.3100 N   0  0  0  0  0  0  0  0  0  0  0  0
  -28.7490  -15.7270   20.5220 H   0  0  0  0  0  0  0  0  0  0  0  0
  -25.2330  -13.9150   20.4410 C   0  0  0  0  0  0  0  0  0  0  0  0
  -24.2120  -13.1140   20.8690 C   0  0  0  0  0  0  0  0  0  0  0  0
  -24.6860  -11.7720   20.7570 C   0  0  0  0  0  0  0  0  0  0  0  0
  -26.2640  -13.0590   20.0910 N   0  0  0  0  0  0  0  0  0  0  0  0
  -25.9500  -11.7620   20.3450 N   0  0  0  0  0  0  0  0  0  0  0  0
  -23.9920  -10.4930   20.9620 C   0  0  0  0  0  0  0  0  0  0  0  0
  -24.4630   -9.5340   21.8830 C   0  0  0  0  0  3  0  0  0  0  0  0
  -23.7660   -8.3210   22.0750 C   0  0  0  0  0  3  0  0  0  0  0  0
  -22.5800   -8.0590   21.3480 C   0  0  0  0  0  0  0  0  0  0  0  0
  -22.1290   -9.0090   20.4140 C   0  0  0  0  0  3  0  0  0  0  0  0
  -22.8280  -10.2120   20.2190 C   0  0  0  0  0  3  0  0  0  0  0  0
  -21.8510   -6.9020   21.4520 O   0  0  0  0  0  0  0  0  0  0  0  0
  -21.7820   -6.1960   22.6290 C   0  0  0  0  0  0  0  0  0  0  0  0
  -21.2980   -6.7820   23.8200 C   0  0  0  0  0  3  0  0  0  0  0  0
  -21.1760   -6.0010   24.9870 C   0  0  0  0  0  3  0  0  0  0  0  0
  -21.5310   -4.6400   24.9650 C   0  0  0  0  0  0  0  0  0  0  0  0
  -22.0080   -4.0540   23.7790 C   0  0  0  0  0  3  0  0  0  0  0  0
  -22.1300   -4.8320   22.6130 C   0  0  0  0  0  0  0  0  0  0  0  0
  -22.5700   -4.2570   21.4690 F   0  0  0  0  0  0  0  0  0  0  0  0
  -21.4070   -3.8890   26.0850 F   0  0  0  0  0  0  0  0  0  0  0  0
  -22.8320  -13.5620   21.2630 C   0  0  0  0  0  0  0  0  0  0  0  0
  -22.1850  -12.8330   22.1650 N   0  0  0  0  0  0  0  0  0  0  0  0
  -22.3400  -14.5910   20.8030 O   0  0  0  0  0  0  0  0  0  0  0  0
  -22.5950  -12.0010   22.5630 H   0  0  0  0  0  0  0  0  0  0  0  0
  -21.2600  -13.1110   22.4650 H   0  0  0  0  0  0  0  0  0  0  0  0
  -25.3630  -15.2930   20.2920 N   0  0  0  0  0  0  0  0  0  0  0  0
  -24.5940  -15.9260   20.4870 H   0  0  0  0  0  0  0  0  0  0  0  0
  -26.1470  -15.7520   19.8500 H   0  0  0  0  0  0  0  0  0  0  0  0
  -28.3950  -26.4250   20.0490 O   0  0  0  0  0  0  0  0  0  0  0  0
  -24.5820  -31.8910   23.1900 C   0  0  0  0  0  0  0  0  0  0  0  0
  -27.2770  -27.3060   20.1460 C   0  0  0  0  0  0  0  0  0  0  0  0
  -23.4160  -30.4950   21.5210 C   0  0  0  0  0  3  0  0  0  0  0  0
  -24.9030  -28.9550   20.1050 C   0  0  0  0  0  0  0  0  0  0  0  0
  -25.9550  -30.8250   21.3670 C   0  0  0  0  0  2  0  0  0  0  0  0
  -26.0620  -29.4350   20.7310 C   0  0  0  0  0  0  0  0  0  0  0  0
  -27.2510  -28.6240   20.7440 C   0  0  0  0  0  3  0  0  0  0  0  0
  -26.0990  -26.9140   19.4830 C   0  0  0  0  0  3  0  0  0  0  0  0
  -24.9290  -27.7020   19.4660 C   0  0  0  0  0  3  0  0  0  0  0  0
  -23.6570  -29.8280   20.1390 C   0  0  0  0  0  2  0  0  0  0  0  0
  -24.6720  -31.0910   22.0840 N   0  0  0  0  0  0  0  0  0  0  0  0
  -23.4880  -32.1430   23.7180 O   0  0  0  0  0  0  0  0  0  0  0  0
  -22.7520  -29.4630   22.4670 C   0  0  0  0  0  0  0  0  0  0  0  0
  -21.4280  -29.2700   22.3330 N   0  0  0  0  0  0  0  0  0  0  0  0
  -23.4320  -28.8320   23.2830 O   0  0  0  0  0  0  0  0  0  0  0  0
  -20.9270  -29.8360   21.6620 H   0  0  0  0  0  0  0  0  0  0  0  0
  -18.0630  -28.0460   22.8470 C   0  0  0  0  0  0  0  0  0  0  0  0
  -20.6240  -28.3100   23.0910 C   0  0  0  0  0  3  0  0  0  0  0  0
  -20.7230  -26.8940   22.4790 C   0  0  0  0  0  2  0  0  0  0  0  0
  -19.6110  -26.5970   21.4660 C   0  0  0  0  0  2  0  0  0  0  0  0
  -18.2360  -26.7180   22.1310 C   0  0  0  0  0  2  0  0  0  0  0  0
  -19.1830  -28.8010   23.2840 C   0  0  0  0  0  0  0  0  0  0  0  0
  -18.9690  -30.0460   23.9150 C   0  0  0  0  0  3  0  0  0  0  0  0
  -17.6640  -30.5380   24.1090 C   0  0  0  0  0  3  0  0  0  0  0  0
  -16.5580  -29.7830   23.6840 C   0  0  0  0  0  3  0  0  0  0  0  0
  -16.7590  -28.5380   23.0630 C   0  0  0  0  0  3  0  0  0  0  0  0
  -25.8460  -32.5390   23.8340 C   0  0  0  0  0  3  0  0  0  0  0  0
  -25.5100  -33.9290   24.1800 N   0  0  0  0  0  0  0  0  0  0  0  0
  -25.8330  -34.9950   23.4360 C   0  0  0  0  0  0  0  0  0  0  0  0
  -26.5060  -34.9120   22.4050 O   0  0  0  0  0  0  0  0  0  0  0  0
  -24.9130  -34.0610   24.9830 H   0  0  0  0  0  0  0  0  0  0  0  0
  -24.0710  -36.7620   23.1000 C   0  0  0  0  0  1  0  0  0  0  0  0
  -25.3220  -36.3740   23.9060 C   0  0  0  0  0  3  0  0  0  0  0  0
  -27.4440  -37.2870   24.7400 C   0  0  0  0  0  1  0  0  0  0  0  0
  -26.3360  -37.4470   23.8020 N   0  0  0  0  0  0  0  0  0  0  0  0
  -25.9140  -38.3580   23.9660 H   0  0  0  0  0  0  0  0  0  0  0  0
  -26.3570  -31.7620   25.1090 C   0  0  1  0  0  0  0  0  0  0  0  0
  -25.2560  -31.4980   26.1630 C   0  0  0  0  0  1  0  0  0  0  0  0
  -26.9680  -30.4000   24.7070 C   0  0  0  0  0  1  0  0  0  0  0  0
  -27.4850  -32.5660   25.7950 C   0  0  0  0  0  1  0  0  0  0  0  0
  2  1  1  0
  3  1  2  0
  4  2  2  0
  5  6  2  0
  5  4  1  0
  6  3  1  0
  7  5  1  0
  9 12  1  0
 10  8  1  0
 11  9  1  0
 11 13  1  0
 12  4  1  0
 12  8  1  0
 13 22  1  0
 13 10  1  0
 14 22  1  0
 15 20  1  0
 16 17  1  0
 16 15  1  0
 18 17  1  0
 18 27  1  0
 18 19  1  0
 20 14  1  0
 20 19  1  0
 21 14  2  0
 22 23  1  0
 24 25  2  0
 25 44  1  0
 26 25  1  0
 26 29  1  0
 27 28  1  0
 27 24  1  0
 28 26  2  0
 29 30  1  0
 30 31  2  0
 32 35  1  0
 32 31  1  0
 33 32  2  0
 34 33  1  0
 34 29  2  0
 35 36  1  0
 36 37  1  0
 37 38  2  0
 39 38  1  0
 39 43  1  0
 40 39  2  0
 41 36  2  0
 41 40  1  0
 42 41  1  0
 44 45  1  0
 45 48  1  0
 45 47  1  0
 46 44  2  0
 49 24  1  0
 49 50  1  0
 51 49  1  0
 52 54  1  0
 52  6  1  0
 53 64  2  0
 54 59  1  0
 55 63  1  0
 55 65  1  0
 56 62  1  0
 56 58  1  0
 57 63  1  0
 58 59  2  0
 58 57  1  0
 60 54  2  0
 61 60  1  0
 61 56  2  0
 62 55  1  0
 63 53  1  0
 65 67  2  0
 66 65  1  0
 68 66  1  0
 69 78  2  0
 69 74  1  0
 70 66  1  0
 70 74  1  0
 71 70  1  0
 72 73  1  0
 72 71  1  0
 73 69  1  0
 74 75  2  0
 75 76  1  0
 77 76  2  0
 78 77  1  0
 79 53  1  0
 79 80  1  0
 79 89  1  0
 80 83  1  0
 81 85  1  0
 81 80  1  0
 82 81  2  0
 85 84  1  0
 87 85  1  0
 87 88  1  0
 87 86  1  0
 89 92  1  1
 89 90  1  0
 91 89  1  0
M  ISO  4   6 101  14 100  22 100  52 101
M  END
>  <TORSDO>  (92) 
F 17

>  <SCORE>  (92) 
-14.181

>  <name>  (92) 
91

>  <ligand_id>  (92) 
91

>  <original_smiles>  (92) 
[H]c1c([H])c([H])c2c(c1[H])C([H])([H])C([H])([H])C([H])([H])C2([H])N([H])C(=O)C1([H])N(C(=O)C([H])(N([H])C(=O)C([H])(N([H])C([H])([H])[H])C([H])([H])[H])C(C([H])([H])[H])(C([H])([H])[H])C([H])([H])[H])C([H])([H])c2c([H])c(Oc3c([H])c([H])c([H])c(C4([H])C([H])([H])C([H])([H])C([H])(N([H])C(=O)N5C([H])([H])C([H])([H])C([H])([H])C([H])(n6nc(-c7c([H])c([H])c(Oc8c([H])c([H])c(F)c([H])c8F)c([H])c7[H])c(C(=O)N([H])[H])c6N([H])[H])C5([H])[H])C([H])([H])C4([H])[H])c3C([H])([H])[H])c([H])c([H])c2C1([H])[H]

>  <smiles>  (92) 
[H]c1c([H])c([H])c2c(c1[H])C([H])([H])C([H])([H])C([H])([H])C2([H])N([H])C(=O)C1([H])N(C(=O)C([H])(N([H])C(=O)C([H])(N([H])C([H])([H])[H])C([H])([H])[H])C(C([H])([H])[H])(C([H])([H])[H])C([H])([H])[H])C([H])([H])c2c([H])c(Oc3c([H])c([H])c([H])c(C4([H])C([H])([H])C([H])([H])C([H])(N([H])C(=O)N5C([H])([H])C([H])([H])C([H])([H])C([H])(n6nc(-c7c([H])c([H])c(Oc8c([H])c([H])c(F)c([H])c8F)c([H])c7[H])c(C(=O)N([H])[H])c6N([H])[H])C5([H])[H])C([H])([H])C4([H])[H])c3C([H])([H])[H])c([H])c([H])c2C1([H])[H]

$$$$
92:0:0
     RDKit          3D

 91 99  0  0  1  0  0  0  0  0999 V2000
  -29.0060  -21.2240   19.9460 C   0  0  0  0  0  0  0  0  0  0  0  0
  -29.0200  -22.4980   20.4830 N   0  0  0  0  0  0  0  0  0  0  0  0
  -28.3150  -20.9960   18.9520 O   0  0  0  0  0  0  0  0  0  0  0  0
  -29.5700  -22.6130   21.3240 H   0  0  0  0  0  0  0  0  0  0  0  0
  -31.3770  -17.7540   21.4450 C   0  0  0  0  0  3  0  0  0  0  0  0
  -31.8260  -19.0760   21.6270 C   0  0  0  0  0  3  0  0  0  0  0  0
  -29.4100  -18.6500   20.3490 C   0  0  0  0  0  3  0  0  0  0  0  0
  -29.8250  -20.0310   20.5370 C   0  0  0  0  0  0  0  0  0  0  0  0
  -30.1610  -17.4890   20.7890 C   0  0  0  0  0  0  0  0  0  0  0  0
  -31.0870  -20.2010   21.1840 C   0  0  0  0  0  0  0  0  0  0  0  0
  -31.7180  -21.5650   21.4200 C   0  0  0  0  0  1  0  0  0  0  0  0
  -29.6120  -16.0020   20.7010 C   0  0  0  0  0  2  0  0  0  0  0  0
  -30.5160  -14.7090   20.3980 C   0  0  0  0  0  0  0  0  0  0  0  0
  -30.3470  -12.4460   19.3500 C   0  0  0  0  0  2  0  0  0  0  0  0
  -29.3980  -12.5710   18.1370 C   0  0  0  0  0  2  0  0  0  0  0  0
  -27.9260  -12.3910   18.5650 C   0  0  0  0  0  2  0  0  0  0  0  0
  -27.5630  -13.2470   19.8060 C   0  0  0  0  0  3  0  0  0  0  0  0
  -28.6280  -13.1050   20.9140 C   0  0  0  0  0  2  0  0  0  0  0  0
  -29.9340  -13.4640   20.3420 N   0  0  0  0  0  0  0  0  0  0  0  0
  -31.6910  -14.8520   20.0380 O   0  0  0  0  0  0  0  0  0  0  0  0
  -25.1770  -13.8500   20.5420 C   0  0  0  0  0  0  0  0  0  0  0  0
  -24.1110  -13.0780   20.9140 C   0  0  0  0  0  0  0  0  0  0  0  0
  -24.5720  -11.7260   20.8820 C   0  0  0  0  0  0  0  0  0  0  0  0
  -26.2180  -12.9660   20.2990 N   0  0  0  0  0  0  0  0  0  0  0  0
  -25.8590  -11.6850   20.5660 N   0  0  0  0  0  0  0  0  0  0  0  0
  -23.8460  -10.4640   21.0770 C   0  0  0  0  0  0  0  0  0  0  0  0
  -24.2910   -9.4910   21.9980 C   0  0  0  0  0  3  0  0  0  0  0  0
  -23.5680   -8.2930   22.1790 C   0  0  0  0  0  3  0  0  0  0  0  0
  -22.3830   -8.0610   21.4410 C   0  0  0  0  0  0  0  0  0  0  0  0
  -21.9570   -9.0220   20.5060 C   0  0  0  0  0  3  0  0  0  0  0  0
  -22.6820  -10.2110   20.3240 C   0  0  0  0  0  3  0  0  0  0  0  0
  -21.6260   -6.9170   21.5320 O   0  0  0  0  0  0  0  0  0  0  0  0
  -21.6040   -6.1590   22.6760 C   0  0  0  0  0  0  0  0  0  0  0  0
  -21.2150   -6.7010   23.9210 C   0  0  0  0  0  3  0  0  0  0  0  0
  -21.1400   -5.8710   25.0580 C   0  0  0  0  0  3  0  0  0  0  0  0
  -21.4450   -4.5010   24.9500 C   0  0  0  0  0  0  0  0  0  0  0  0
  -21.8270   -3.9580   23.7100 C   0  0  0  0  0  3  0  0  0  0  0  0
  -21.9050   -4.7860   22.5770 C   0  0  0  0  0  0  0  0  0  0  0  0
  -22.2520   -4.2550   21.3780 F   0  0  0  0  0  0  0  0  0  0  0  0
  -21.3620   -3.7020   26.0390 F   0  0  0  0  0  0  0  0  0  0  0  0
  -22.7140  -13.5540   21.1920 C   0  0  0  0  0  0  0  0  0  0  0  0
  -21.9920  -12.8580   22.0610 N   0  0  0  0  0  0  0  0  0  0  0  0
  -22.2730  -14.5780   20.6720 O   0  0  0  0  0  0  0  0  0  0  0  0
  -22.3610  -12.0300   22.5050 H   0  0  0  0  0  0  0  0  0  0  0  0
  -21.0530  -13.1560   22.2850 H   0  0  0  0  0  0  0  0  0  0  0  0
  -25.3440  -15.2210   20.3650 N   0  0  0  0  0  0  0  0  0  0  0  0
  -24.5820  -15.8780   20.4850 H   0  0  0  0  0  0  0  0  0  0  0  0
  -26.1950  -15.6590   20.0380 H   0  0  0  0  0  0  0  0  0  0  0  0
  -28.4320  -23.7730   19.8800 C   0  0  0  0  0  2  0  0  0  0  0  0
  -28.3680  -25.1180   20.7620 C   0  0  0  0  0  2  0  0  0  0  0  0
  -28.3670  -26.4850   20.1600 O   0  0  0  0  0  0  0  0  0  0  0  0
  -24.6040  -31.8780   23.2290 C   0  0  0  0  0  0  0  0  0  0  0  0
  -27.2240  -27.3020   20.1980 C   0  0  0  0  0  0  0  0  0  0  0  0
  -23.3990  -30.4720   21.5920 C   0  0  0  0  0  3  0  0  0  0  0  0
  -24.8520  -28.9070   20.1760 C   0  0  0  0  0  0  0  0  0  0  0  0
  -25.9370  -30.7940   21.4010 C   0  0  0  0  0  2  0  0  0  0  0  0
  -26.0200  -29.4070   20.7680 C   0  0  0  0  0  0  0  0  0  0  0  0
  -27.2120  -28.6190   20.7600 C   0  0  0  0  0  3  0  0  0  0  0  0
  -26.0360  -26.8480   19.5930 C   0  0  0  0  0  3  0  0  0  0  0  0
  -24.8640  -27.6340   19.5790 C   0  0  0  0  0  3  0  0  0  0  0  0
  -23.6130  -29.7840   20.2170 C   0  0  0  0  0  2  0  0  0  0  0  0
  -24.6660  -31.0660   22.1320 N   0  0  0  0  0  0  0  0  0  0  0  0
  -23.5210  -32.1550   23.7640 O   0  0  0  0  0  0  0  0  0  0  0  0
  -22.7370  -29.4620   22.5590 C   0  0  0  0  0  0  0  0  0  0  0  0
  -21.4100  -29.2830   22.4320 N   0  0  0  0  0  0  0  0  0  0  0  0
  -23.4150  -28.8380   23.3790 O   0  0  0  0  0  0  0  0  0  0  0  0
  -20.9210  -29.8370   21.7420 H   0  0  0  0  0  0  0  0  0  0  0  0
  -18.0350  -28.0830   22.9340 C   0  0  0  0  0  0  0  0  0  0  0  0
  -20.5930  -28.3470   23.2050 C   0  0  0  0  0  3  0  0  0  0  0  0
  -20.6970  -26.9140   22.6320 C   0  0  0  0  0  2  0  0  0  0  0  0
  -19.5950  -26.5880   21.6180 C   0  0  0  0  0  2  0  0  0  0  0  0
  -18.2130  -26.7330   22.2600 C   0  0  0  0  0  2  0  0  0  0  0  0
  -19.1520  -28.8480   23.3620 C   0  0  0  0  0  0  0  0  0  0  0  0
  -18.9310  -30.1130   23.9510 C   0  0  0  0  0  3  0  0  0  0  0  0
  -17.6260  -30.6110   24.1170 C   0  0  0  0  0  3  0  0  0  0  0  0
  -16.5230  -29.8450   23.7040 C   0  0  0  0  0  3  0  0  0  0  0  0
  -16.7290  -28.5830   23.1180 C   0  0  0  0  0  3  0  0  0  0  0  0
  -25.8850  -32.5110   23.8510 C   0  0  0  0  0  3  0  0  0  0  0  0
  -26.4030  -31.7400   25.1260 C   0  0  1  0  0  0  0  0  0  0  0  0
  -25.3100  -31.5000   26.1950 C   0  0  0  0  0  1  0  0  0  0  0  0
  -26.9850  -30.3620   24.7340 C   0  0  0  0  0  1  0  0  0  0  0  0
  -27.5550  -32.5330   25.7870 C   0  0  0  0  0  1  0  0  0  0  0  0
  -25.5750  -33.9090   24.1830 N   0  0  0  0  0  0  0  0  0  0  0  0
  -25.9070  -34.9640   23.4270 C   0  0  0  0  0  0  0  0  0  0  0  0
  -26.5770  -34.8610   22.3940 O   0  0  0  0  0  0  0  0  0  0  0  0
  -24.9810  -34.0620   24.9850 H   0  0  0  0  0  0  0  0  0  0  0  0
  -24.1830  -36.7620   23.0680 C   0  0  0  0  0  1  0  0  0  0  0  0
  -25.4190  -36.3530   23.8840 C   0  0  0  0  0  3  0  0  0  0  0  0
  -27.5520  -37.2330   24.7230 C   0  0  0  0  0  1  0  0  0  0  0  0
  -26.4530  -37.4040   23.7770 N   0  0  0  0  0  0  0  0  0  0  0  0
  -26.0480  -38.3250   23.9240 H   0  0  0  0  0  0  0  0  0  0  0  0
  1  2  1  0
  1  8  1  0
  2  4  1  0
  3  1  2  0
  5  6  1  0
  7  8  2  0
  7  9  1  0
  8 10  1  0
  9  5  2  0
 10 11  1  0
 10  6  2  0
 12  9  1  0
 13 12  1  0
 14 19  1  0
 15 16  1  0
 15 14  1  0
 17 16  1  0
 17 24  1  0
 17 18  1  0
 19 13  1  0
 19 18  1  0
 20 13  2  0
 21 22  2  0
 22 41  1  0
 23 22  1  0
 23 26  1  0
 24 21  1  0
 24 25  1  0
 25 23  2  0
 26 27  1  0
 27 28  2  0
 29 32  1  0
 29 28  1  0
 30 29  2  0
 31 30  1  0
 31 26  2  0
 32 33  1  0
 33 34  1  0
 34 35  2  0
 36 35  1  0
 36 40  1  0
 37 36  2  0
 38 33  2  0
 38 37  1  0
 39 38  1  0
 41 42  1  0
 42 45  1  0
 42 44  1  0
 43 41  2  0
 46 47  1  0
 46 21  1  0
 48 46  1  0
 49  2  1  0
 49 50  1  0
 51 53  1  0
 51 50  1  0
 52 63  2  0
 53 58  1  0
 54 62  1  0
 54 64  1  0
 55 61  1  0
 55 57  1  0
 56 62  1  0
 57 56  1  0
 58 57  2  0
 59 53  2  0
 60 59  1  0
 60 55  2  0
 61 54  1  0
 62 52  1  0
 64 66  2  0
 65 64  1  0
 67 65  1  0
 68 77  2  0
 68 73  1  0
 69 65  1  0
 69 73  1  0
 70 69  1  0
 71 72  1  0
 71 70  1  0
 72 68  1  0
 73 74  2  0
 74 75  1  0
 76 75  2  0
 77 76  1  0
 78 52  1  0
 78 83  1  0
 78 79  1  0
 79 82  1  1
 79 80  1  0
 81 79  1  0
 83 86  1  0
 84 88  1  0
 84 83  1  0
 85 84  2  0
 88 87  1  0
 90 88  1  0
 90 91  1  0
 90 89  1  0
M  ISO  4  12 100  13 100  50 101  51 101
M  END
>  <TORSDO>  (93) 
F 20

>  <SCORE>  (93) 
-14.117

>  <name>  (93) 
92

>  <ligand_id>  (93) 
92

>  <original_smiles>  (93) 
[H]c1c([H])c([H])c2c(c1[H])C([H])([H])C([H])([H])C([H])([H])C2([H])N([H])C(=O)C1([H])N(C(=O)C([H])(N([H])C(=O)C([H])(N([H])C([H])([H])[H])C([H])([H])[H])C(C([H])([H])[H])(C([H])([H])[H])C([H])([H])[H])C([H])([H])c2c([H])c(OC([H])([H])C([H])([H])N([H])C(=O)c3c([H])c(C([H])([H])C(=O)N4C([H])([H])C([H])([H])C([H])([H])C([H])(n5nc(-c6c([H])c([H])c(Oc7c([H])c([H])c(F)c([H])c7F)c([H])c6[H])c(C(=O)N([H])[H])c5N([H])[H])C4([H])[H])c([H])c([H])c3C([H])([H])[H])c([H])c([H])c2C1([H])[H]

>  <smiles>  (93) 
[H]c1c([H])c([H])c2c(c1[H])C([H])([H])C([H])([H])C([H])([H])C2([H])N([H])C(=O)C1([H])N(C(=O)C([H])(N([H])C(=O)C([H])(N([H])C([H])([H])[H])C([H])([H])[H])C(C([H])([H])[H])(C([H])([H])[H])C([H])([H])[H])C([H])([H])c2c([H])c(OC([H])([H])C([H])([H])N([H])C(=O)c3c([H])c(C([H])([H])C(=O)N4C([H])([H])C([H])([H])C([H])([H])C([H])(n5nc(-c6c([H])c([H])c(Oc7c([H])c([H])c(F)c([H])c7F)c([H])c6[H])c(C(=O)N([H])[H])c5N([H])[H])C4([H])[H])c([H])c([H])c3C([H])([H])[H])c([H])c([H])c2C1([H])[H]

$$$$
93:0:0
     RDKit          3D

 92101  0  0  1  0  0  0  0  0999 V2000
  -30.0460  -20.9280   22.1170 C   0  0  0  0  0  3  0  0  0  0  0  0
  -29.6520  -22.1700   21.5140 C   0  0  0  0  0  3  0  0  0  0  0  0
  -29.2520  -20.8200   19.5630 C   0  0  0  0  0  3  0  0  0  0  0  0
  -30.0330  -19.6420   21.4860 C   0  0  0  0  0  0  0  0  0  0  0  0
  -29.7680  -19.4030   20.1330 C   0  0  0  0  0  0  0  0  0  0  0  0
  -29.1420  -22.3000   20.1990 C   0  0  0  0  0  0  0  0  0  0  0  0
  -30.0240  -18.3460   22.2610 C   0  0  0  0  0  2  0  0  0  0  0  0
  -29.2210  -17.3420   21.3830 C   0  0  0  0  0  2  0  0  0  0  0  0
  -29.6350  -17.5500   19.8890 C   0  0  2  0  0  0  0  0  0  0  0  0
  -30.5930  -15.9000   19.6830 C   0  0  0  0  0  0  0  0  0  0  0  0
  -30.7680  -13.3200   18.9020 C   0  0  0  0  0  2  0  0  0  0  0  0
  -29.7950  -12.8530   17.7740 C   0  0  0  0  0  2  0  0  0  0  0  0
  -28.4140  -12.4570   18.3280 C   0  0  0  0  0  2  0  0  0  0  0  0
  -27.9570  -13.4460   19.4190 C   0  0  0  0  0  3  0  0  0  0  0  0
  -29.0620  -13.8100   20.4370 C   0  0  0  0  0  2  0  0  0  0  0  0
  -30.1680  -14.4850   19.7040 N   0  0  0  0  0  0  0  0  0  0  0  0
  -31.8060  -15.8810   19.3840 O   0  0  0  0  0  0  0  0  0  0  0  0
  -25.6910  -13.9570   20.4560 C   0  0  0  0  0  0  0  0  0  0  0  0
  -24.6560  -13.1670   20.8670 C   0  0  0  0  0  0  0  0  0  0  0  0
  -25.1050  -11.8200   20.7070 C   0  0  0  0  0  0  0  0  0  0  0  0
  -26.6930  -13.0930   20.0510 N   0  0  0  0  0  0  0  0  0  0  0  0
  -26.3620  -11.7970   20.2710 N   0  0  0  0  0  0  0  0  0  0  0  0
  -24.3850  -10.5540   20.8900 C   0  0  0  0  0  0  0  0  0  0  0  0
  -24.8130   -9.5890   21.8280 C   0  0  0  0  0  3  0  0  0  0  0  0
  -24.0880   -8.3900   22.0010 C   0  0  0  0  0  3  0  0  0  0  0  0
  -22.9250   -8.1460   21.2360 C   0  0  0  0  0  0  0  0  0  0  0  0
  -22.5140   -9.1010   20.2890 C   0  0  0  0  0  3  0  0  0  0  0  0
  -23.2380  -10.2900   20.1140 C   0  0  0  0  0  3  0  0  0  0  0  0
  -22.1720   -6.9990   21.3200 O   0  0  0  0  0  0  0  0  0  0  0  0
  -21.9780   -6.3480   22.5120 C   0  0  0  0  0  0  0  0  0  0  0  0
  -21.3770   -6.9840   23.6170 C   0  0  0  0  0  3  0  0  0  0  0  0
  -21.1340   -6.2580   24.8000 C   0  0  0  0  0  3  0  0  0  0  0  0
  -21.4820   -4.8970   24.8760 C   0  0  0  0  0  0  0  0  0  0  0  0
  -22.0780   -4.2600   23.7730 C   0  0  0  0  0  3  0  0  0  0  0  0
  -22.3230   -4.9820   22.5940 C   0  0  0  0  0  0  0  0  0  0  0  0
  -22.8760   -4.3620   21.5240 F   0  0  0  0  0  0  0  0  0  0  0  0
  -21.2430   -4.1950   26.0080 F   0  0  0  0  0  0  0  0  0  0  0  0
  -23.3000  -13.6380   21.2980 C   0  0  0  0  0  0  0  0  0  0  0  0
  -22.6550  -12.9080   22.2000 N   0  0  0  0  0  0  0  0  0  0  0  0
  -22.8250  -14.6900   20.8690 O   0  0  0  0  0  0  0  0  0  0  0  0
  -23.0560  -12.0620   22.5760 H   0  0  0  0  0  0  0  0  0  0  0  0
  -21.7470  -13.2040   22.5230 H   0  0  0  0  0  0  0  0  0  0  0  0
  -25.8730  -15.3330   20.3760 N   0  0  0  0  0  0  0  0  0  0  0  0
  -25.1890  -15.9100   20.8530 H   0  0  0  0  0  0  0  0  0  0  0  0
  -26.8200  -15.6370   20.5310 H   0  0  0  0  0  0  0  0  0  0  0  0
  -28.4000  -23.9590   19.7540 C   0  0  0  0  0  2  0  0  0  0  0  0
  -28.4450  -25.6440   20.2750 O   0  0  0  0  0  0  0  0  0  0  0  0
  -24.7880  -31.8070   23.2700 C   0  0  0  0  0  0  0  0  0  0  0  0
  -27.4590  -26.8490   20.1880 C   0  0  0  0  0  0  0  0  0  0  0  0
  -23.6510  -30.4370   21.5740 C   0  0  0  0  0  3  0  0  0  0  0  0
  -25.1530  -28.8460   20.1410 C   0  0  0  0  0  0  0  0  0  0  0  0
  -26.2290  -30.6140   21.5080 C   0  0  0  0  0  2  0  0  0  0  0  0
  -26.3290  -29.2030   20.8130 C   0  0  0  0  0  0  0  0  0  0  0  0
  -27.4600  -28.2310   20.8100 C   0  0  0  0  0  3  0  0  0  0  0  0
  -26.2500  -26.7050   19.4600 C   0  0  0  0  0  3  0  0  0  0  0  0
  -25.1530  -27.6250   19.4430 C   0  0  0  0  0  3  0  0  0  0  0  0
  -23.9260  -29.7770   20.1900 C   0  0  0  0  0  2  0  0  0  0  0  0
  -24.9110  -30.9840   22.1710 N   0  0  0  0  0  0  0  0  0  0  0  0
  -23.6820  -32.0770   23.7670 O   0  0  0  0  0  0  0  0  0  0  0  0
  -22.9290  -29.4260   22.5050 C   0  0  0  0  0  0  0  0  0  0  0  0
  -21.6090  -29.2290   22.3230 N   0  0  0  0  0  0  0  0  0  0  0  0
  -23.5690  -28.8150   23.3630 O   0  0  0  0  0  0  0  0  0  0  0  0
  -21.1420  -29.7710   21.6110 H   0  0  0  0  0  0  0  0  0  0  0  0
  -18.2470  -27.8890   22.6710 C   0  0  0  0  0  0  0  0  0  0  0  0
  -20.7810  -28.2580   23.0500 C   0  0  0  0  0  3  0  0  0  0  0  0
  -20.9640  -26.8330   22.4770 C   0  0  0  0  0  2  0  0  0  0  0  0
  -19.9250  -26.4750   21.4100 C   0  0  0  0  0  2  0  0  0  0  0  0
  -18.5100  -26.5560   21.9910 C   0  0  0  0  0  2  0  0  0  0  0  0
  -19.3130  -28.6950   23.1530 C   0  0  0  0  0  0  0  0  0  0  0  0
  -19.0120  -29.9380   23.7520 C   0  0  0  0  0  3  0  0  0  0  0  0
  -17.6800  -30.3760   23.8730 C   0  0  0  0  0  3  0  0  0  0  0  0
  -16.6290  -29.5690   23.4030 C   0  0  0  0  0  3  0  0  0  0  0  0
  -16.9130  -28.3270   22.8080 C   0  0  0  0  0  3  0  0  0  0  0  0
  -26.0300  -32.4540   23.9540 C   0  0  0  0  0  3  0  0  0  0  0  0
  -26.4670  -31.7090   25.2770 C   0  0  1  0  0  0  0  0  0  0  0  0
  -25.3120  -31.4940   26.2850 C   0  0  0  0  0  1  0  0  0  0  0  0
  -27.0710  -30.3230   24.9600 C   0  0  0  0  0  1  0  0  0  0  0  0
  -27.5780  -32.5130   25.9910 C   0  0  0  0  0  1  0  0  0  0  0  0
  -25.7030  -33.8610   24.2600 N   0  0  0  0  0  0  0  0  0  0  0  0
  -26.0460  -34.9150   23.5080 C   0  0  0  0  0  0  0  0  0  0  0  0
  -26.7300  -34.8080   22.4870 O   0  0  0  0  0  0  0  0  0  0  0  0
  -25.0940  -34.0180   25.0490 H   0  0  0  0  0  0  0  0  0  0  0  0
  -24.3130  -36.7120   23.1500 C   0  0  0  0  0  1  0  0  0  0  0  0
  -25.5590  -36.3130   23.9560 C   0  0  0  0  0  3  0  0  0  0  0  0
  -27.6910  -37.2190   24.7740 C   0  0  0  0  0  1  0  0  0  0  0  0
  -26.5880  -37.3680   23.8290 N   0  0  0  0  0  0  0  0  0  0  0  0
  -26.1790  -38.2880   23.9610 H   0  0  0  0  0  0  0  0  0  0  0  0
  -28.4960  -17.4670   18.8400 C   0  0  0  0  0  2  0  0  0  0  0  0
  -27.2770  -18.2280   19.2020 N   0  0  0  0  0  4  0  0  0  0  0  0
  -26.8420  -17.8810   20.0370 H   0  0  0  0  0  0  0  0  0  0  0  0
  -26.6100  -18.2000   18.4510 H   0  0  0  0  0  0  0  0  0  0  0  0
  -27.5290  -19.1890   19.3640 H   0  0  0  0  0  0  0  0  0  0  0  0
  2  1  1  0
  3  5  2  0
  3  6  1  0
  4  1  2  0
  4  7  1  0
  5  4  1  0
  6  2  2  0
  8  7  1  0
  9 88  1  6
  9  5  1  0
  9  8  1  0
 10 16  1  0
 10  9  1  0
 11 16  1  0
 12 13  1  0
 12 11  1  0
 14 13  1  0
 14 21  1  0
 14 15  1  0
 16 15  1  0
 17 10  2  0
 18 19  2  0
 19 38  1  0
 20 19  1  0
 20 23  1  0
 21 22  1  0
 21 18  1  0
 22 20  2  0
 23 24  1  0
 24 25  2  0
 26 29  1  0
 26 25  1  0
 27 26  2  0
 28 27  1  0
 28 23  2  0
 29 30  1  0
 30 35  2  0
 30 31  1  0
 31 32  2  0
 32 33  1  0
 33 37  1  0
 34 33  2  0
 35 34  1  0
 36 35  1  0
 38 39  1  0
 39 42  1  0
 39 41  1  0
 40 38  2  0
 43 18  1  0
 43 45  1  0
 43 44  1  0
 46  6  1  0
 46 47  1  0
 48 59  2  0
 49 47  1  0
 49 54  1  0
 50 58  1  0
 50 60  1  0
 51 57  1  0
 51 53  1  0
 52 58  1  0
 53 52  1  0
 54 53  2  0
 55 49  2  0
 56 55  1  0
 56 51  2  0
 57 50  1  0
 58 48  1  0
 60 62  2  0
 61 60  1  0
 63 61  1  0
 64 73  2  0
 64 69  1  0
 65 61  1  0
 65 69  1  0
 66 65  1  0
 67 68  1  0
 67 66  1  0
 68 64  1  0
 69 70  2  0
 70 71  1  0
 72 71  2  0
 73 72  1  0
 74 48  1  0
 74 79  1  0
 74 75  1  0
 75 78  1  1
 75 76  1  0
 77 75  1  0
 79 82  1  0
 80 84  1  0
 80 79  1  0
 81 80  2  0
 84 83  1  0
 86 84  1  0
 86 87  1  0
 86 85  1  0
 88 89  1  0
 89 92  1  0
 89 90  1  0
 91 89  1  0
M  ISO  4   9 100  10 100  46 101  47 101
M  END
>  <TORSDO>  (94) 
F 19

>  <SCORE>  (94) 
-14.252

>  <name>  (94) 
93

>  <ligand_id>  (94) 
93

>  <original_smiles>  (94) 
[H]c1c([H])c([H])c2c(c1[H])C([H])([H])C([H])([H])C([H])([H])C2([H])N([H])C(=O)C1([H])N(C(=O)C([H])(N([H])C(=O)C([H])(N([H])C([H])([H])[H])C([H])([H])[H])C(C([H])([H])[H])(C([H])([H])[H])C([H])([H])[H])C([H])([H])c2c([H])c(OC([H])([H])c3c([H])c([H])c4c(c3[H])C(C(=O)N3C([H])([H])C([H])([H])C([H])([H])C([H])(n5nc(-c6c([H])c([H])c(Oc7c([H])c([H])c(F)c([H])c7F)c([H])c6[H])c(C(=O)N([H])[H])c5N([H])[H])C3([H])[H])(C([H])([H])[N+]([H])([H])[H])C([H])([H])C4([H])[H])c([H])c([H])c2C1([H])[H]

>  <smiles>  (94) 
[H]c1c([H])c([H])c2c(c1[H])C([H])([H])C([H])([H])C([H])([H])C2([H])N([H])C(=O)C1([H])N(C(=O)C([H])(N([H])C(=O)C([H])(N([H])C([H])([H])[H])C([H])([H])[H])C(C([H])([H])[H])(C([H])([H])[H])C([H])([H])[H])C([H])([H])c2c([H])c(OC([H])([H])c3c([H])c([H])c4c(c3[H])C(C(=O)N3C([H])([H])C([H])([H])C([H])([H])C([H])(n5nc(-c6c([H])c([H])c(Oc7c([H])c([H])c(F)c([H])c7F)c([H])c6[H])c(C(=O)N([H])[H])c5N([H])[H])C3([H])[H])(C([H])([H])[N+]([H])([H])[H])C([H])([H])C4([H])[H])c([H])c([H])c2C1([H])[H]

$$$$
94:0:0
     RDKit          3D

 91 99  0  0  1  0  0  0  0  0999 V2000
  -26.6360  -22.9900   21.3460 C   0  0  0  0  0  3  0  0  0  0  0  0
  -27.5510  -21.9530   21.0500 C   0  0  0  0  0  3  0  0  0  0  0  0
  -26.9040  -24.3580   21.0930 C   0  0  0  0  0  3  0  0  0  0  0  0
  -29.0480  -23.6790   20.2170 C   0  0  0  0  0  3  0  0  0  0  0  0
  -28.8190  -22.2200   20.4840 C   0  0  0  0  0  0  0  0  0  0  0  0
  -28.1060  -24.8070   20.4880 C   0  0  0  0  0  0  0  0  0  0  0  0
  -29.8340  -20.9880   20.2420 C   0  0  0  0  0  0  0  0  0  0  0  0
  -29.5240  -19.6000   20.3360 N   0  0  0  0  0  0  0  0  0  0  0  0
  -30.9860  -21.2950   19.9350 O   0  0  0  0  0  0  0  0  0  0  0  0
  -28.5520  -19.4450   20.5650 H   0  0  0  0  0  0  0  0  0  0  0  0
  -30.3300  -18.2530   20.0050 C   0  0  0  0  0  2  0  0  0  0  0  0
  -28.4570  -16.6880   20.6700 C   0  0  0  0  0  1  0  0  0  0  0  0
  -30.4920  -16.8870   22.1190 C   0  0  0  0  0  1  0  0  0  0  0  0
  -29.9990  -16.7170   20.6690 C   0  0  2  0  0  0  0  0  0  0  0  0
  -30.6880  -15.2310   20.1600 C   0  0  0  0  0  0  0  0  0  0  0  0
  -30.6110  -12.8710   19.1580 C   0  0  0  0  0  2  0  0  0  0  0  0
  -29.6510  -12.8100   17.9450 C   0  0  0  0  0  2  0  0  0  0  0  0
  -28.2100  -12.5220   18.4260 C   0  0  0  0  0  2  0  0  0  0  0  0
  -27.7980  -13.4260   19.6150 C   0  0  0  0  0  3  0  0  0  0  0  0
  -28.8910  -13.4180   20.7100 C   0  0  0  0  0  2  0  0  0  0  0  0
  -30.1250  -13.9390   20.0960 N   0  0  0  0  0  0  0  0  0  0  0  0
  -31.8540  -15.2840   19.7490 O   0  0  0  0  0  0  0  0  0  0  0  0
  -25.4190  -13.9620   20.4070 C   0  0  0  0  0  0  0  0  0  0  0  0
  -24.3780  -13.1690   20.8030 C   0  0  0  0  0  0  0  0  0  0  0  0
  -24.8610  -11.8250   20.7440 C   0  0  0  0  0  0  0  0  0  0  0  0
  -26.4740  -13.1040   20.1390 N   0  0  0  0  0  0  0  0  0  0  0  0
  -26.1450  -11.8100   20.4030 N   0  0  0  0  0  0  0  0  0  0  0  0
  -24.1530  -10.5530   20.9390 C   0  0  0  0  0  0  0  0  0  0  0  0
  -24.5840   -9.6090   21.8960 C   0  0  0  0  0  3  0  0  0  0  0  0
  -23.8800   -8.3990   22.0780 C   0  0  0  0  0  3  0  0  0  0  0  0
  -22.7280   -8.1250   21.3040 C   0  0  0  0  0  0  0  0  0  0  0  0
  -22.3130   -9.0600   20.3390 C   0  0  0  0  0  3  0  0  0  0  0  0
  -23.0190  -10.2610   20.1540 C   0  0  0  0  0  3  0  0  0  0  0  0
  -21.9960   -6.9670   21.3920 O   0  0  0  0  0  0  0  0  0  0  0  0
  -21.8910   -6.2700   22.5710 C   0  0  0  0  0  0  0  0  0  0  0  0
  -21.3680   -6.8600   23.7410 C   0  0  0  0  0  3  0  0  0  0  0  0
  -21.2200   -6.0890   24.9110 C   0  0  0  0  0  3  0  0  0  0  0  0
  -21.5760   -4.7270   24.9070 C   0  0  0  0  0  0  0  0  0  0  0  0
  -22.0890   -4.1360   23.7390 C   0  0  0  0  0  3  0  0  0  0  0  0
  -22.2440   -4.9060   22.5720 C   0  0  0  0  0  0  0  0  0  0  0  0
  -22.7200   -4.3280   21.4430 F   0  0  0  0  0  0  0  0  0  0  0  0
  -21.4240   -3.9820   26.0270 F   0  0  0  0  0  0  0  0  0  0  0  0
  -22.9780  -13.6190   21.1120 C   0  0  0  0  0  0  0  0  0  0  0  0
  -22.2760  -12.9120   21.9900 N   0  0  0  0  0  0  0  0  0  0  0  0
  -22.5120  -14.6390   20.6020 O   0  0  0  0  0  0  0  0  0  0  0  0
  -22.6560  -12.0840   22.4260 H   0  0  0  0  0  0  0  0  0  0  0  0
  -21.3400  -13.2050   22.2290 H   0  0  0  0  0  0  0  0  0  0  0  0
  -25.5460  -15.3360   20.2210 N   0  0  0  0  0  0  0  0  0  0  0  0
  -24.7600  -15.9730   20.2900 H   0  0  0  0  0  0  0  0  0  0  0  0
  -26.3810  -15.7790   19.8620 H   0  0  0  0  0  0  0  0  0  0  0  0
  -28.2920  -26.2600   20.2600 O   0  0  0  0  0  0  0  0  0  0  0  0
  -24.6030  -31.9250   23.2640 C   0  0  0  0  0  0  0  0  0  0  0  0
  -27.2390  -27.2530   20.2170 C   0  0  0  0  0  0  0  0  0  0  0  0
  -23.4260  -30.5290   21.6080 C   0  0  0  0  0  3  0  0  0  0  0  0
  -24.8980  -28.9860   20.1680 C   0  0  0  0  0  0  0  0  0  0  0  0
  -25.9750  -30.8190   21.4600 C   0  0  0  0  0  2  0  0  0  0  0  0
  -26.0650  -29.4310   20.8020 C   0  0  0  0  0  0  0  0  0  0  0  0
  -27.2320  -28.5760   20.8240 C   0  0  0  0  0  3  0  0  0  0  0  0
  -26.0620  -26.9330   19.5060 C   0  0  0  0  0  3  0  0  0  0  0  0
  -24.9120  -27.7540   19.4990 C   0  0  0  0  0  3  0  0  0  0  0  0
  -23.6580  -29.8670   20.2220 C   0  0  0  0  0  2  0  0  0  0  0  0
  -24.6870  -31.1150   22.1650 N   0  0  0  0  0  0  0  0  0  0  0  0
  -23.5120  -32.1950   23.7900 O   0  0  0  0  0  0  0  0  0  0  0  0
  -22.7540  -29.5060   22.5570 C   0  0  0  0  0  0  0  0  0  0  0  0
  -21.4280  -29.3250   22.4290 N   0  0  0  0  0  0  0  0  0  0  0  0
  -23.4310  -28.8790   23.3750 O   0  0  0  0  0  0  0  0  0  0  0  0
  -20.9410  -29.8770   21.7360 H   0  0  0  0  0  0  0  0  0  0  0  0
  -18.0580  -28.0960   22.9180 C   0  0  0  0  0  0  0  0  0  0  0  0
  -20.6150  -28.3740   23.1910 C   0  0  0  0  0  3  0  0  0  0  0  0
  -20.7300  -26.9500   22.6010 C   0  0  0  0  0  2  0  0  0  0  0  0
  -19.6310  -26.6310   21.5820 C   0  0  0  0  0  2  0  0  0  0  0  0
  -18.2460  -26.7580   22.2250 C   0  0  0  0  0  2  0  0  0  0  0  0
  -19.1720  -28.8620   23.3570 C   0  0  0  0  0  0  0  0  0  0  0  0
  -18.9410  -30.1140   23.9660 C   0  0  0  0  0  3  0  0  0  0  0  0
  -17.6330  -30.6030   24.1400 C   0  0  0  0  0  3  0  0  0  0  0  0
  -16.5340  -29.8330   23.7180 C   0  0  0  0  0  3  0  0  0  0  0  0
  -16.7480  -28.5820   23.1120 C   0  0  0  0  0  3  0  0  0  0  0  0
  -25.8720  -32.5680   23.9000 C   0  0  0  0  0  3  0  0  0  0  0  0
  -26.3710  -31.8050   25.1890 C   0  0  1  0  0  0  0  0  0  0  0  0
  -25.2620  -31.5710   26.2400 C   0  0  0  0  0  1  0  0  0  0  0  0
  -26.9630  -30.4260   24.8190 C   0  0  0  0  0  1  0  0  0  0  0  0
  -27.5140  -32.6060   25.8600 C   0  0  0  0  0  1  0  0  0  0  0  0
  -25.5540  -33.9670   24.2240 N   0  0  0  0  0  0  0  0  0  0  0  0
  -25.8970  -35.0230   23.4740 C   0  0  0  0  0  0  0  0  0  0  0  0
  -26.5820  -34.9210   22.4530 O   0  0  0  0  0  0  0  0  0  0  0  0
  -24.9390  -34.1220   25.0110 H   0  0  0  0  0  0  0  0  0  0  0  0
  -24.1760  -36.8210   23.0940 C   0  0  0  0  0  1  0  0  0  0  0  0
  -25.4010  -36.4110   23.9260 C   0  0  0  0  0  3  0  0  0  0  0  0
  -27.5190  -37.2960   24.7970 C   0  0  0  0  0  1  0  0  0  0  0  0
  -26.4350  -37.4650   23.8340 N   0  0  0  0  0  0  0  0  0  0  0  0
  -26.0280  -38.3860   23.9770 H   0  0  0  0  0  0  0  0  0  0  0  0
  2  1  2  0
  3  1  1  0
  4  5  2  0
  4  6  1  0
  5  2  1  0
  6  3  2  0
  7  8  1  0
  7  5  1  0
  8 10  1  0
  9  7  2  0
 11  8  1  0
 11 14  1  0
 14 12  1  1
 14 13  1  0
 15 14  1  0
 16 21  1  0
 17 18  1  0
 17 16  1  0
 19 18  1  0
 19 26  1  0
 19 20  1  0
 21 15  1  0
 21 20  1  0
 22 15  2  0
 23 24  2  0
 24 43  1  0
 25 24  1  0
 25 28  1  0
 26 27  1  0
 26 23  1  0
 27 25  2  0
 28 29  1  0
 29 30  2  0
 31 34  1  0
 31 30  1  0
 32 31  2  0
 33 32  1  0
 33 28  2  0
 34 35  1  0
 35 40  2  0
 35 36  1  0
 36 37  2  0
 38 37  1  0
 38 42  1  0
 39 38  2  0
 40 39  1  0
 41 40  1  0
 43 44  1  0
 44 47  1  0
 44 46  1  0
 45 43  2  0
 48 49  1  0
 48 23  1  0
 50 48  1  0
 51  6  1  0
 52 63  2  0
 53 51  1  0
 53 58  1  0
 54 62  1  0
 54 64  1  0
 55 61  1  0
 55 57  1  0
 56 62  1  0
 57 58  2  0
 57 56  1  0
 59 53  2  0
 60 59  1  0
 60 55  2  0
 61 54  1  0
 62 52  1  0
 64 66  2  0
 65 64  1  0
 67 65  1  0
 68 77  2  0
 68 73  1  0
 69 65  1  0
 69 73  1  0
 70 69  1  0
 71 72  1  0
 71 70  1  0
 72 68  1  0
 73 74  2  0
 74 75  1  0
 76 75  2  0
 77 76  1  0
 78 52  1  0
 78 83  1  0
 78 79  1  0
 79 82  1  1
 79 80  1  0
 81 79  1  0
 83 86  1  0
 84 88  1  0
 84 83  1  0
 85 84  2  0
 88 87  1  0
 90 88  1  0
 90 91  1  0
 90 89  1  0
M  ISO  4   6 101  14 100  15 100  51 101
M  END
>  <TORSDO>  (95) 
F 19

>  <SCORE>  (95) 
-15.251

>  <name>  (95) 
94

>  <ligand_id>  (95) 
94

>  <original_smiles>  (95) 
[H]c1c([H])c(Oc2c([H])c([H])c3c(c2[H])C([H])([H])N(C(=O)C([H])(N([H])C(=O)C([H])(N([H])C([H])([H])[H])C([H])([H])[H])C(C([H])([H])[H])(C([H])([H])[H])C([H])([H])[H])C([H])(C(=O)N([H])C2([H])c4c([H])c([H])c([H])c([H])c4C([H])([H])C([H])([H])C2([H])[H])C3([H])[H])c([H])c(C(=O)N([H])C([H])([H])C(C(=O)N2C([H])([H])C([H])([H])C([H])([H])C([H])(n3nc(-c4c([H])c([H])c(Oc5c([H])c([H])c(F)c([H])c5F)c([H])c4[H])c(C(=O)N([H])[H])c3N([H])[H])C2([H])[H])(C([H])([H])[H])C([H])([H])[H])c1[H]

>  <smiles>  (95) 
[H]c1c([H])c(Oc2c([H])c([H])c3c(c2[H])C([H])([H])N(C(=O)C([H])(N([H])C(=O)C([H])(N([H])C([H])([H])[H])C([H])([H])[H])C(C([H])([H])[H])(C([H])([H])[H])C([H])([H])[H])C([H])(C(=O)N([H])C2([H])c4c([H])c([H])c([H])c([H])c4C([H])([H])C([H])([H])C2([H])[H])C3([H])[H])c([H])c(C(=O)N([H])C([H])([H])C(C(=O)N2C([H])([H])C([H])([H])C([H])([H])C([H])(n3nc(-c4c([H])c([H])c(Oc5c([H])c([H])c(F)c([H])c5F)c([H])c4[H])c(C(=O)N([H])[H])c3N([H])[H])C2([H])[H])(C([H])([H])[H])C([H])([H])[H])c1[H]

$$$$
95:0:0
     RDKit          3D

 87 95  0  0  1  0  0  0  0  0999 V2000
  -27.0400  -22.1120   18.5910 C   0  0  0  0  0  3  0  0  0  0  0  0
  -27.7270  -20.9690   19.0960 C   0  0  0  0  0  3  0  0  0  0  0  0
  -27.2230  -23.4720   18.9820 C   0  0  0  0  0  3  0  0  0  0  0  0
  -28.7460  -21.0140   20.0720 C   0  0  0  0  0  0  0  0  0  0  0  0
  -28.8630  -22.5820   20.4810 C   0  0  0  0  0  0  0  0  0  0  0  0
  -28.0930  -23.9320   20.0020 C   0  0  0  0  0  0  0  0  0  0  0  0
  -29.9330  -22.8410   21.5160 C   0  0  0  0  0  1  0  0  0  0  0  0
  -28.1360  -25.5460   20.2590 O   0  0  0  0  0  0  0  0  0  0  0  0
  -24.6050  -31.8800   23.1910 C   0  0  0  0  0  0  0  0  0  0  0  0
  -27.1550  -26.7730   20.1990 C   0  0  0  0  0  0  0  0  0  0  0  0
  -23.4270  -30.4740   21.5580 C   0  0  0  0  0  3  0  0  0  0  0  0
  -24.8810  -28.8320   20.1550 C   0  0  0  0  0  0  0  0  0  0  0  0
  -26.0110  -30.6150   21.4430 C   0  0  0  0  0  2  0  0  0  0  0  0
  -26.0820  -29.1780   20.7840 C   0  0  0  0  0  0  0  0  0  0  0  0
  -27.1980  -28.1790   20.7760 C   0  0  0  0  0  3  0  0  0  0  0  0
  -25.9070  -26.6530   19.5280 C   0  0  0  0  0  3  0  0  0  0  0  0
  -24.8340  -27.5920   19.5060 C   0  0  0  0  0  3  0  0  0  0  0  0
  -23.6740  -29.7810   20.1910 C   0  0  0  0  0  2  0  0  0  0  0  0
  -24.7050  -31.0240   22.1150 N   0  0  0  0  0  0  0  0  0  0  0  0
  -23.5080  -32.1780   23.6970 O   0  0  0  0  0  0  0  0  0  0  0  0
  -22.7110  -29.4960   22.5300 C   0  0  0  0  0  0  0  0  0  0  0  0
  -21.3810  -29.3220   22.3930 N   0  0  0  0  0  0  0  0  0  0  0  0
  -23.3650  -28.8910   23.3840 O   0  0  0  0  0  0  0  0  0  0  0  0
  -20.9020  -29.8600   21.6830 H   0  0  0  0  0  0  0  0  0  0  0  0
  -18.0080  -28.0500   22.8700 C   0  0  0  0  0  0  0  0  0  0  0  0
  -20.5590  -28.3810   23.1650 C   0  0  0  0  0  3  0  0  0  0  0  0
  -20.6970  -26.9380   22.6210 C   0  0  0  0  0  2  0  0  0  0  0  0
  -19.6210  -26.5750   21.5940 C   0  0  0  0  0  2  0  0  0  0  0  0
  -18.2250  -26.6980   22.2130 C   0  0  0  0  0  2  0  0  0  0  0  0
  -19.1030  -28.8480   23.3030 C   0  0  0  0  0  0  0  0  0  0  0  0
  -18.8430  -30.1090   23.8810 C   0  0  0  0  0  3  0  0  0  0  0  0
  -17.5230  -30.5770   24.0260 C   0  0  0  0  0  3  0  0  0  0  0  0
  -16.4430  -29.7800   23.6060 C   0  0  0  0  0  3  0  0  0  0  0  0
  -16.6860  -28.5180   23.0350 C   0  0  0  0  0  3  0  0  0  0  0  0
  -25.8630  -32.5390   23.8330 C   0  0  0  0  0  3  0  0  0  0  0  0
  -25.5390  -33.9450   24.1470 N   0  0  0  0  0  0  0  0  0  0  0  0
  -25.8870  -35.0030   23.4010 C   0  0  0  0  0  0  0  0  0  0  0  0
  -26.5720  -34.8990   22.3810 O   0  0  0  0  0  0  0  0  0  0  0  0
  -24.9310  -34.1010   24.9380 H   0  0  0  0  0  0  0  0  0  0  0  0
  -24.1840  -36.8250   23.0240 C   0  0  0  0  0  1  0  0  0  0  0  0
  -25.4040  -36.3970   23.8580 C   0  0  0  0  0  3  0  0  0  0  0  0
  -27.5210  -37.2710   24.7470 C   0  0  0  0  0  1  0  0  0  0  0  0
  -26.4490  -37.4430   23.7710 N   0  0  0  0  0  0  0  0  0  0  0  0
  -26.0440  -38.3670   23.9030 H   0  0  0  0  0  0  0  0  0  0  0  0
  -26.3470  -31.8000   25.1410 C   0  0  1  0  0  0  0  0  0  0  0  0
  -25.2290  -31.5900   26.1890 C   0  0  0  0  0  1  0  0  0  0  0  0
  -26.9380  -30.4110   24.8110 C   0  0  0  0  0  1  0  0  0  0  0  0
  -27.4840  -32.6110   25.8080 C   0  0  0  0  0  1  0  0  0  0  0  0
  -29.5740  -19.3640   20.4560 C   0  0  0  0  0  2  0  0  0  0  0  0
  -28.7260  -17.3230   18.7920 C   0  0  0  0  0  1  0  0  0  0  0  0
  -29.3480  -17.4310   20.1950 C   0  0  0  0  0  3  0  0  0  0  0  0
  -30.2540  -15.7720   20.3020 C   0  0  0  0  0  0  0  0  0  0  0  0
  -30.4370  -13.2080   19.5280 C   0  0  0  0  0  2  0  0  0  0  0  0
  -29.5590  -12.8140   18.3010 C   0  0  0  0  0  2  0  0  0  0  0  0
  -28.1250  -12.4540   18.7220 C   0  0  0  0  0  2  0  0  0  0  0  0
  -27.5970  -13.4330   19.7920 C   0  0  0  0  0  3  0  0  0  0  0  0
  -28.6110  -13.7490   20.9140 C   0  0  0  0  0  2  0  0  0  0  0  0
  -29.7980  -14.3770   20.2880 N   0  0  0  0  0  0  0  0  0  0  0  0
  -31.4920  -15.7330   20.1620 O   0  0  0  0  0  0  0  0  0  0  0  0
  -25.2250  -13.9170   20.5480 C   0  0  0  0  0  0  0  0  0  0  0  0
  -24.1750  -13.1160   20.9030 C   0  0  0  0  0  0  0  0  0  0  0  0
  -24.6690  -11.7750   20.8640 C   0  0  0  0  0  0  0  0  0  0  0  0
  -26.2840  -13.0660   20.3030 N   0  0  0  0  0  0  0  0  0  0  0  0
  -25.9650  -11.7690   20.5610 N   0  0  0  0  0  0  0  0  0  0  0  0
  -23.9620  -10.4980   21.0430 C   0  0  0  0  0  0  0  0  0  0  0  0
  -24.3830   -9.5430   21.9940 C   0  0  0  0  0  3  0  0  0  0  0  0
  -23.6700   -8.3350   22.1620 C   0  0  0  0  0  3  0  0  0  0  0  0
  -22.5200   -8.0730   21.3800 C   0  0  0  0  0  0  0  0  0  0  0  0
  -22.1160   -9.0180   20.4200 C   0  0  0  0  0  3  0  0  0  0  0  0
  -22.8290  -10.2170   20.2490 C   0  0  0  0  0  3  0  0  0  0  0  0
  -21.7800   -6.9170   21.4540 O   0  0  0  0  0  0  0  0  0  0  0  0
  -21.6870   -6.1960   22.6180 C   0  0  0  0  0  0  0  0  0  0  0  0
  -21.1500   -6.7530   23.7990 C   0  0  0  0  0  3  0  0  0  0  0  0
  -21.0120   -5.9550   24.9540 C   0  0  0  0  0  3  0  0  0  0  0  0
  -21.3960   -4.6010   24.9240 C   0  0  0  0  0  0  0  0  0  0  0  0
  -21.9260   -4.0440   23.7460 C   0  0  0  0  0  3  0  0  0  0  0  0
  -22.0680   -4.8400   22.5970 C   0  0  0  0  0  0  0  0  0  0  0  0
  -22.5580   -4.2930   21.4570 F   0  0  0  0  0  0  0  0  0  0  0  0
  -21.2560   -3.8320   26.0290 F   0  0  0  0  0  0  0  0  0  0  0  0
  -22.7670  -13.5650   21.1540 C   0  0  0  0  0  0  0  0  0  0  0  0
  -22.0420  -12.8510   22.0080 N   0  0  0  0  0  0  0  0  0  0  0  0
  -22.3210  -14.5860   20.6340 O   0  0  0  0  0  0  0  0  0  0  0  0
  -22.4170  -12.0240   22.4480 H   0  0  0  0  0  0  0  0  0  0  0  0
  -21.0980  -13.1350   22.2240 H   0  0  0  0  0  0  0  0  0  0  0  0
  -25.3670  -15.2900   20.3790 N   0  0  0  0  0  0  0  0  0  0  0  0
  -24.5930  -15.9360   20.4840 H   0  0  0  0  0  0  0  0  0  0  0  0
  -26.2160  -15.7370   20.0540 H   0  0  0  0  0  0  0  0  0  0  0  0
  1  3  2  0
  1  2  1  0
  2  4  2  0
  3  6  1  0
  4 49  1  0
  4  5  1  0
  5  7  1  0
  6  8  1  0
  6  5  2  0
  9 20  2  0
 10  8  1  0
 10 15  1  0
 11 19  1  0
 11 21  1  0
 12 18  1  0
 12 14  1  0
 13 19  1  0
 14 13  1  0
 15 14  2  0
 16 10  2  0
 17 16  1  0
 17 12  2  0
 18 11  1  0
 19  9  1  0
 21 23  2  0
 22 21  1  0
 24 22  1  0
 25 34  2  0
 25 30  1  0
 26 22  1  0
 26 30  1  0
 27 26  1  0
 28 29  1  0
 28 27  1  0
 29 25  1  0
 30 31  2  0
 31 32  1  0
 33 32  2  0
 34 33  1  0
 35  9  1  0
 35 36  1  0
 35 45  1  0
 36 39  1  0
 37 41  1  0
 37 36  1  0
 38 37  2  0
 41 40  1  0
 43 41  1  0
 43 44  1  0
 43 42  1  0
 45 48  1  1
 45 46  1  0
 47 45  1  0
 51 50  1  0
 51 52  1  0
 51 49  1  0
 53 58  1  0
 54 55  1  0
 54 53  1  0
 56 55  1  0
 56 63  1  0
 56 57  1  0
 58 52  1  0
 58 57  1  0
 59 52  2  0
 60 61  2  0
 61 80  1  0
 62 61  1  0
 62 65  1  0
 63 60  1  0
 63 64  1  0
 64 62  2  0
 65 66  1  0
 66 67  2  0
 68 71  1  0
 68 67  1  0
 69 68  2  0
 70 69  1  0
 70 65  2  0
 71 72  1  0
 72 73  1  0
 73 74  2  0
 75 74  1  0
 75 79  1  0
 76 75  2  0
 77 72  2  0
 77 76  1  0
 78 77  1  0
 80 81  1  0
 81 84  1  0
 81 83  1  0
 82 80  2  0
 85 86  1  0
 85 60  1  0
 87 85  1  0
M  ISO  4   6 101   8 101  51 100  52 100
M  END
>  <TORSDO>  (96) 
F 18

>  <SCORE>  (96) 
-15.971

>  <name>  (96) 
95

>  <ligand_id>  (96) 
95

>  <original_smiles>  (96) 
[H]c1c([H])c([H])c2c(c1[H])C([H])([H])C([H])([H])C([H])([H])C2([H])N([H])C(=O)C1([H])N(C(=O)C([H])(N([H])C(=O)C([H])(N([H])C([H])([H])[H])C([H])([H])[H])C(C([H])([H])[H])(C([H])([H])[H])C([H])([H])[H])C([H])([H])c2c([H])c(Oc3c([H])c([H])c([H])c(C([H])([H])C([H])(C(=O)N4C([H])([H])C([H])([H])C([H])([H])C([H])(n5nc(-c6c([H])c([H])c(Oc7c([H])c([H])c(F)c([H])c7F)c([H])c6[H])c(C(=O)N([H])[H])c5N([H])[H])C4([H])[H])C([H])([H])[H])c3C([H])([H])[H])c([H])c([H])c2C1([H])[H]

>  <smiles>  (96) 
[H]c1c([H])c([H])c2c(c1[H])C([H])([H])C([H])([H])C([H])([H])C2([H])N([H])C(=O)C1([H])N(C(=O)C([H])(N([H])C(=O)C([H])(N([H])C([H])([H])[H])C([H])([H])[H])C(C([H])([H])[H])(C([H])([H])[H])C([H])([H])[H])C([H])([H])c2c([H])c(Oc3c([H])c([H])c([H])c(C([H])([H])C([H])(C(=O)N4C([H])([H])C([H])([H])C([H])([H])C([H])(n5nc(-c6c([H])c([H])c(Oc7c([H])c([H])c(F)c([H])c7F)c([H])c6[H])c(C(=O)N([H])[H])c5N([H])[H])C4([H])[H])C([H])([H])[H])c3C([H])([H])[H])c([H])c([H])c2C1([H])[H]

$$$$
96:0:0
     RDKit          3D

 99109  0  0  1  0  0  0  0  0999 V2000
  -28.8780  -22.6250   21.6970 C   0  0  0  0  0  3  0  0  0  0  0  0
  -29.1610  -21.2030   21.7140 C   0  0  0  0  0  3  0  0  0  0  0  0
  -29.1330  -21.1460   19.3340 C   0  0  0  0  0  3  0  0  0  0  0  0
  -28.6420  -23.3560   20.4860 C   0  0  0  0  0  0  0  0  0  0  0  0
  -28.8490  -22.5680   19.3340 C   0  0  0  0  0  0  0  0  0  0  0  0
  -29.2350  -20.3760   20.5420 C   0  0  0  0  0  0  0  0  0  0  0  0
  -24.9040  -23.6390   19.6420 C   0  0  0  0  0  2  0  0  0  0  0  0
  -25.5490  -23.3910   21.0010 C   0  0  0  0  0  2  0  0  0  0  0  0
  -25.9590  -23.5260   18.5310 C   0  0  0  0  0  2  0  0  0  0  0  0
  -26.5420  -24.5190   21.2950 C   0  0  0  0  0  2  0  0  0  0  0  0
  -28.4310  -23.3680   18.1330 C   0  0  0  0  0  3  0  0  0  0  0  0
  -27.3160  -24.2910   18.7260 C   0  0  0  0  0  3  0  0  0  0  0  0
  -27.6930  -24.6590   20.2330 C   0  0  2  0  0  0  0  0  0  0  0  0
  -29.5890  -24.1270   17.6080 N   0  0  0  0  0  4  0  0  0  0  0  0
  -30.3480  -23.4740   17.4980 H   0  0  0  0  0  0  0  0  0  0  0  0
  -29.8700  -24.8020   18.3010 H   0  0  0  0  0  0  0  0  0  0  0  0
  -30.5800  -25.6640   15.9020 C   0  0  0  0  0  1  0  0  0  0  0  0
  -29.3760  -24.8020   16.3080 C   0  0  0  0  0  2  0  0  0  0  0  0
  -28.1220  -26.1730   20.2720 O   0  0  0  0  0  0  0  0  0  0  0  0
  -24.6300  -31.9300   23.2780 C   0  0  0  0  0  0  0  0  0  0  0  0
  -27.1360  -27.2370   20.1630 C   0  0  0  0  0  0  0  0  0  0  0  0
  -23.4080  -30.5590   21.6430 C   0  0  0  0  0  3  0  0  0  0  0  0
  -24.8350  -29.0220   20.1790 C   0  0  0  0  0  0  0  0  0  0  0  0
  -25.9680  -30.8070   21.4640 C   0  0  0  0  0  2  0  0  0  0  0  0
  -26.0250  -29.4290   20.7930 C   0  0  0  0  0  0  0  0  0  0  0  0
  -27.1780  -28.5520   20.7810 C   0  0  0  0  0  3  0  0  0  0  0  0
  -25.9320  -26.9890   19.4620 C   0  0  0  0  0  3  0  0  0  0  0  0
  -24.8000  -27.8100   19.4980 C   0  0  0  0  0  3  0  0  0  0  0  0
  -23.6100  -29.9130   20.2530 C   0  0  0  0  0  2  0  0  0  0  0  0
  -24.6900  -31.1170   22.1820 N   0  0  0  0  0  0  0  0  0  0  0  0
  -23.5510  -32.2160   23.8150 O   0  0  0  0  0  0  0  0  0  0  0  0
  -22.7330  -29.5380   22.5940 C   0  0  0  0  0  0  0  0  0  0  0  0
  -21.4070  -29.3590   22.4610 N   0  0  0  0  0  0  0  0  0  0  0  0
  -23.4070  -28.9110   23.4160 O   0  0  0  0  0  0  0  0  0  0  0  0
  -20.9210  -29.9140   21.7720 H   0  0  0  0  0  0  0  0  0  0  0  0
  -18.0300  -28.1390   22.9460 C   0  0  0  0  0  0  0  0  0  0  0  0
  -20.5860  -28.4200   23.2300 C   0  0  0  0  0  3  0  0  0  0  0  0
  -20.7020  -26.9860   22.6630 C   0  0  0  0  0  2  0  0  0  0  0  0
  -19.6080  -26.6510   21.6430 C   0  0  0  0  0  2  0  0  0  0  0  0
  -18.2210  -26.7890   22.2760 C   0  0  0  0  0  2  0  0  0  0  0  0
  -19.1400  -28.9120   23.3780 C   0  0  0  0  0  0  0  0  0  0  0  0
  -18.9060  -30.1750   23.9650 C   0  0  0  0  0  3  0  0  0  0  0  0
  -17.5970  -30.6660   24.1220 C   0  0  0  0  0  3  0  0  0  0  0  0
  -16.5010  -29.8910   23.7050 C   0  0  0  0  0  3  0  0  0  0  0  0
  -16.7190  -28.6280   23.1230 C   0  0  0  0  0  3  0  0  0  0  0  0
  -25.9180  -32.5520   23.8970 C   0  0  0  0  0  3  0  0  0  0  0  0
  -26.4300  -31.7730   25.1710 C   0  0  1  0  0  0  0  0  0  0  0  0
  -25.3350  -31.5410   26.2400 C   0  0  0  0  0  1  0  0  0  0  0  0
  -27.0030  -30.3930   24.7810 C   0  0  0  0  0  1  0  0  0  0  0  0
  -27.5880  -32.5580   25.8310 C   0  0  0  0  0  1  0  0  0  0  0  0
  -25.6190  -33.9520   24.2330 N   0  0  0  0  0  0  0  0  0  0  0  0
  -25.9260  -35.0040   23.4630 C   0  0  0  0  0  0  0  0  0  0  0  0
  -26.5600  -34.8980   22.4090 O   0  0  0  0  0  0  0  0  0  0  0  0
  -25.0520  -34.1090   25.0540 H   0  0  0  0  0  0  0  0  0  0  0  0
  -24.1790  -36.7920   23.1850 C   0  0  0  0  0  1  0  0  0  0  0  0
  -25.4590  -36.3940   23.9370 C   0  0  0  0  0  3  0  0  0  0  0  0
  -27.6260  -37.2900   24.6640 C   0  0  0  0  0  1  0  0  0  0  0  0
  -26.4830  -37.4490   23.7700 N   0  0  0  0  0  0  0  0  0  0  0  0
  -26.0810  -38.3680   23.9320 H   0  0  0  0  0  0  0  0  0  0  0  0
  -29.0710  -18.7520   20.6110 C   0  0  0  0  0  3  0  0  0  0  0  0
  -30.2140  -17.5750   20.4730 C   0  0  0  0  0  3  0  0  0  0  0  0
  -30.5680  -14.9090   20.3470 C   0  0  0  0  0  0  0  0  0  0  0  0
  -30.3860  -12.6020   19.3630 C   0  0  0  0  0  2  0  0  0  0  0  0
  -29.4490  -12.6240   18.1340 C   0  0  0  0  0  2  0  0  0  0  0  0
  -27.9830  -12.4270   18.5670 C   0  0  0  0  0  2  0  0  0  0  0  0
  -27.5930  -13.3300   19.7700 C   0  0  0  0  0  3  0  0  0  0  0  0
  -28.6570  -13.2950   20.8920 C   0  0  0  0  0  2  0  0  0  0  0  0
  -29.9410  -13.6740   20.2890 N   0  0  0  0  0  0  0  0  0  0  0  0
  -31.7500  -14.9940   20.0080 O   0  0  0  0  0  0  0  0  0  0  0  0
  -29.8210  -16.0710   20.5830 N   0  0  0  0  0  0  0  0  0  0  0  0
  -28.8600  -15.8970   20.8390 H   0  0  0  0  0  0  0  0  0  0  0  0
  -25.2100  -13.9000   20.5140 C   0  0  0  0  0  0  0  0  0  0  0  0
  -24.1480  -13.1190   20.8840 C   0  0  0  0  0  0  0  0  0  0  0  0
  -24.6150  -11.7690   20.8420 C   0  0  0  0  0  0  0  0  0  0  0  0
  -26.2540  -13.0270   20.2670 N   0  0  0  0  0  0  0  0  0  0  0  0
  -25.9070  -11.7390   20.5290 N   0  0  0  0  0  0  0  0  0  0  0  0
  -23.8940  -10.5020   21.0260 C   0  0  0  0  0  0  0  0  0  0  0  0
  -24.3140   -9.5410   21.9700 C   0  0  0  0  0  3  0  0  0  0  0  0
  -23.5900   -8.3410   22.1430 C   0  0  0  0  0  3  0  0  0  0  0  0
  -22.4300   -8.0940   21.3690 C   0  0  0  0  0  0  0  0  0  0  0  0
  -22.0290   -9.0450   20.4150 C   0  0  0  0  0  3  0  0  0  0  0  0
  -22.7530  -10.2350   20.2410 C   0  0  0  0  0  3  0  0  0  0  0  0
  -21.6810   -6.9450   21.4490 O   0  0  0  0  0  0  0  0  0  0  0  0
  -21.5960   -6.2210   22.6110 C   0  0  0  0  0  0  0  0  0  0  0  0
  -21.1060   -6.7860   23.8080 C   0  0  0  0  0  3  0  0  0  0  0  0
  -20.9680   -5.9870   24.9610 C   0  0  0  0  0  3  0  0  0  0  0  0
  -21.3140   -4.6220   24.9180 C   0  0  0  0  0  0  0  0  0  0  0  0
  -21.7980   -4.0570   23.7250 C   0  0  0  0  0  3  0  0  0  0  0  0
  -21.9360   -4.8530   22.5750 C   0  0  0  0  0  0  0  0  0  0  0  0
  -22.3810   -4.2960   21.4220 F   0  0  0  0  0  0  0  0  0  0  0  0
  -21.1770   -3.8520   26.0220 F   0  0  0  0  0  0  0  0  0  0  0  0
  -22.7490  -13.5890   21.1640 C   0  0  0  0  0  0  0  0  0  0  0  0
  -22.0270  -12.8840   22.0280 N   0  0  0  0  0  0  0  0  0  0  0  0
  -22.3050  -14.6150   20.6500 O   0  0  0  0  0  0  0  0  0  0  0  0
  -22.3990  -12.0510   22.4590 H   0  0  0  0  0  0  0  0  0  0  0  0
  -21.0890  -13.1780   22.2580 H   0  0  0  0  0  0  0  0  0  0  0  0
  -25.3710  -15.2720   20.3430 N   0  0  0  0  0  0  0  0  0  0  0  0
  -24.6050  -15.9260   20.4540 H   0  0  0  0  0  0  0  0  0  0  0  0
  -26.2140  -15.7090   19.9950 H   0  0  0  0  0  0  0  0  0  0  0  0
  1  2  1  0
  3  5  2  0
  3  6  1  0
  4  1  2  0
  5  4  1  0
  6 60  1  0
  6  2  2  0
  7  8  1  0
  8 10  1  0
  9  7  1  0
 11 14  1  0
 11 12  1  0
 11  5  1  0
 12  9  1  0
 12 13  1  0
 13 19  1  6
 13  4  1  0
 13 10  1  0
 14 16  1  0
 15 14  1  0
 17 18  1  0
 18 14  1  0
 20 31  2  0
 21 19  1  0
 21 26  1  0
 22 30  1  0
 22 32  1  0
 23 29  1  0
 23 25  1  0
 24 30  1  0
 25 24  1  0
 26 25  2  0
 27 28  1  0
 27 21  2  0
 28 23  2  0
 29 22  1  0
 30 20  1  0
 32 34  2  0
 33 32  1  0
 35 33  1  0
 36 45  2  0
 36 41  1  0
 37 33  1  0
 37 41  1  0
 38 37  1  0
 39 40  1  0
 39 38  1  0
 40 36  1  0
 41 42  2  0
 42 43  1  0
 44 43  2  0
 45 44  1  0
 46 20  1  0
 46 51  1  0
 46 47  1  0
 47 50  1  1
 47 48  1  0
 49 47  1  0
 51 54  1  0
 52 56  1  0
 52 51  1  0
 53 52  2  0
 56 55  1  0
 58 59  1  0
 58 56  1  0
 58 57  1  0
 61 70  1  0
 61 60  2  0
 62 70  1  0
 63 68  1  0
 64 65  1  0
 64 63  1  0
 66 65  1  0
 66 75  1  0
 66 67  1  0
 68 62  1  0
 68 67  1  0
 69 62  2  0
 70 71  1  0
 72 73  2  0
 73 92  1  0
 74 73  1  0
 74 77  1  0
 75 72  1  0
 75 76  1  0
 76 74  2  0
 77 78  1  0
 78 79  2  0
 80 83  1  0
 80 79  1  0
 81 80  2  0
 82 81  1  0
 82 77  2  0
 83 84  1  0
 84 85  1  0
 85 86  2  0
 87 86  1  0
 87 91  1  0
 88 87  2  0
 89 84  2  0
 89 88  1  0
 90 89  1  0
 92 93  1  0
 93 96  1  0
 93 95  1  0
 94 92  2  0
 97 98  1  0
 97 72  1  0
 99 97  1  0
M  ISO  4  13 101  19 101  62 100  70 100
M  END
>  <TORSDO>  (97) 
F 20

>  <SCORE>  (97) 
-14.219

>  <name>  (97) 
96

>  <ligand_id>  (97) 
96

>  <original_smiles>  (97) 
[H]c1c([H])c([H])c2c(c1[H])C([H])([H])C([H])([H])C([H])([H])C2([H])N([H])C(=O)C1([H])N(C(=O)C([H])(N([H])C(=O)C([H])(N([H])C([H])([H])[H])C([H])([H])[H])C(C([H])([H])[H])(C([H])([H])[H])C([H])([H])[H])C([H])([H])c2c([H])c(OC34c5c([H])c([H])c(C([H])([H])C([H])([H])N([H])C(=O)N6C([H])([H])C([H])([H])C([H])([H])C([H])(n7nc(-c8c([H])c([H])c(Oc9c([H])c([H])c(F)c([H])c9F)c([H])c8[H])c(C(=O)N([H])[H])c7N([H])[H])C6([H])[H])c([H])c5C([H])([N+]([H])([H])C([H])([H])C([H])([H])[H])C3([H])C([H])([H])C([H])([H])C([H])([H])C4([H])[H])c([H])c([H])c2C1([H])[H]

>  <smiles>  (97) 
[H]c1c([H])c([H])c2c(c1[H])C([H])([H])C([H])([H])C([H])([H])C2([H])N([H])C(=O)C1([H])N(C(=O)C([H])(N([H])C(=O)C([H])(N([H])C([H])([H])[H])C([H])([H])[H])C(C([H])([H])[H])(C([H])([H])[H])C([H])([H])[H])C([H])([H])c2c([H])c(OC34c5c([H])c([H])c(C([H])([H])C([H])([H])N([H])C(=O)N6C([H])([H])C([H])([H])C([H])([H])C([H])(n7nc(-c8c([H])c([H])c(Oc9c([H])c([H])c(F)c([H])c9F)c([H])c8[H])c(C(=O)N([H])[H])c7N([H])[H])C6([H])[H])c([H])c5C([H])([N+]([H])([H])C([H])([H])C([H])([H])[H])C3([H])C([H])([H])C([H])([H])C([H])([H])C4([H])[H])c([H])c([H])c2C1([H])[H]

$$$$
97:0:0
     RDKit          3D

 90 98  0  0  1  0  0  0  0  0999 V2000
  -29.8460  -19.6120   22.0760 C   0  0  0  0  0  3  0  0  0  0  0  0
  -29.9460  -20.8870   22.6560 C   0  0  0  0  0  3  0  0  0  0  0  0
  -29.2380  -20.6990   20.0000 C   0  0  0  0  0  3  0  0  0  0  0  0
  -29.5200  -19.4210   20.7220 C   0  0  0  0  0  0  0  0  0  0  0  0
  -29.7220  -22.0860   21.9440 C   0  0  0  0  0  0  0  0  0  0  0  0
  -29.3080  -22.0800   20.5800 C   0  0  0  0  0  0  0  0  0  0  0  0
  -29.9980  -23.3670   22.7120 C   0  0  0  0  0  1  0  0  0  0  0  0
  -29.4130  -17.8230   20.2810 C   0  0  0  0  0  2  0  0  0  0  0  0
  -31.9130  -17.5180   20.6220 C   0  0  0  0  0  1  0  0  0  0  0  0
  -30.8820  -17.1870   18.3730 C   0  0  0  0  0  1  0  0  0  0  0  0
  -30.7140  -16.8560   19.8800 C   0  0  2  0  0  0  0  0  0  0  0  0
  -31.0170  -15.1860   19.9180 C   0  0  0  0  0  0  0  0  0  0  0  0
  -30.6650  -12.8310   19.0840 C   0  0  0  0  0  2  0  0  0  0  0  0
  -29.7370  -12.7900   17.8530 C   0  0  0  0  0  2  0  0  0  0  0  0
  -28.2860  -12.6140   18.3190 C   0  0  0  0  0  2  0  0  0  0  0  0
  -27.9120  -13.5700   19.4820 C   0  0  0  0  0  3  0  0  0  0  0  0
  -28.9950  -13.6760   20.5770 C   0  0  0  0  0  2  0  0  0  0  0  0
  -30.2630  -14.0100   19.9200 N   0  0  0  0  0  0  0  0  0  0  0  0
  -32.2100  -14.9630   19.6950 O   0  0  0  0  0  0  0  0  0  0  0  0
  -25.5730  -14.1400   20.3300 C   0  0  0  0  0  0  0  0  0  0  0  0
  -24.5180  -13.3680   20.7260 C   0  0  0  0  0  0  0  0  0  0  0  0
  -24.9710  -12.0130   20.6650 C   0  0  0  0  0  0  0  0  0  0  0  0
  -26.5990  -13.2620   20.0380 N   0  0  0  0  0  0  0  0  0  0  0  0
  -26.2510  -11.9750   20.3070 N   0  0  0  0  0  0  0  0  0  0  0  0
  -24.2390  -10.7570   20.8680 C   0  0  0  0  0  0  0  0  0  0  0  0
  -24.6210   -9.8290   21.8620 C   0  0  0  0  0  3  0  0  0  0  0  0
  -23.8880   -8.6370   22.0530 C   0  0  0  0  0  3  0  0  0  0  0  0
  -22.7540   -8.3650   21.2490 C   0  0  0  0  0  0  0  0  0  0  0  0
  -22.3910   -9.2790   20.2450 C   0  0  0  0  0  3  0  0  0  0  0  0
  -23.1250  -10.4620   20.0540 C   0  0  0  0  0  3  0  0  0  0  0  0
  -21.9980   -7.2210   21.3430 O   0  0  0  0  0  0  0  0  0  0  0  0
  -21.8150   -6.5760   22.5400 C   0  0  0  0  0  0  0  0  0  0  0  0
  -21.2050   -7.2090   23.6440 C   0  0  0  0  0  3  0  0  0  0  0  0
  -20.9770   -6.4890   24.8330 C   0  0  0  0  0  3  0  0  0  0  0  0
  -21.3470   -5.1340   24.9170 C   0  0  0  0  0  0  0  0  0  0  0  0
  -21.9480   -4.4970   23.8160 C   0  0  0  0  0  3  0  0  0  0  0  0
  -22.1810   -5.2170   22.6310 C   0  0  0  0  0  0  0  0  0  0  0  0
  -22.7430   -4.5940   21.5680 F   0  0  0  0  0  0  0  0  0  0  0  0
  -21.1200   -4.4390   26.0570 F   0  0  0  0  0  0  0  0  0  0  0  0
  -23.1360  -13.8530   21.0490 C   0  0  0  0  0  0  0  0  0  0  0  0
  -22.4310  -13.1580   21.9340 N   0  0  0  0  0  0  0  0  0  0  0  0
  -22.6890  -14.8860   20.5510 O   0  0  0  0  0  0  0  0  0  0  0  0
  -22.8090  -12.3260   22.3620 H   0  0  0  0  0  0  0  0  0  0  0  0
  -21.5020  -13.4630   22.1870 H   0  0  0  0  0  0  0  0  0  0  0  0
  -25.7440  -15.5130   20.1660 N   0  0  0  0  0  0  0  0  0  0  0  0
  -24.9910  -16.1710   20.3280 H   0  0  0  0  0  0  0  0  0  0  0  0
  -26.5850  -15.9510   19.8160 H   0  0  0  0  0  0  0  0  0  0  0  0
  -29.1420  -23.5380   19.7930 C   0  0  0  0  0  2  0  0  0  0  0  0
  -28.2600  -24.9080   20.2650 C   0  0  0  0  0  2  0  0  0  0  0  0
  -28.4500  -26.3990   19.8490 O   0  0  0  0  0  0  0  0  0  0  0  0
  -24.6480  -31.8010   23.1500 C   0  0  0  0  0  0  0  0  0  0  0  0
  -27.3590  -27.3370   19.8870 C   0  0  0  0  0  0  0  0  0  0  0  0
  -23.4860  -30.4340   21.4610 C   0  0  0  0  0  3  0  0  0  0  0  0
  -24.9720  -28.9840   19.9560 C   0  0  0  0  0  0  0  0  0  0  0  0
  -26.0270  -30.8100   21.2890 C   0  0  0  0  0  2  0  0  0  0  0  0
  -26.1430  -29.4550   20.5670 C   0  0  0  0  0  0  0  0  0  0  0  0
  -27.3420  -28.6510   20.5080 C   0  0  0  0  0  3  0  0  0  0  0  0
  -26.1610  -26.9670   19.2420 C   0  0  0  0  0  3  0  0  0  0  0  0
  -24.9910  -27.7520   19.2810 C   0  0  0  0  0  3  0  0  0  0  0  0
  -23.7120  -29.8260   20.0540 C   0  0  0  0  0  2  0  0  0  0  0  0
  -24.7390  -31.0380   22.0180 N   0  0  0  0  0  0  0  0  0  0  0  0
  -23.5580  -32.0170   23.7010 O   0  0  0  0  0  0  0  0  0  0  0  0
  -22.8600  -29.3580   22.3840 C   0  0  0  0  0  0  0  0  0  0  0  0
  -21.5450  -29.1180   22.2380 N   0  0  0  0  0  0  0  0  0  0  0  0
  -23.5600  -28.7420   23.1920 O   0  0  0  0  0  0  0  0  0  0  0  0
  -21.0370  -29.6660   21.5580 H   0  0  0  0  0  0  0  0  0  0  0  0
  -18.2340  -27.7120   22.6670 C   0  0  0  0  0  0  0  0  0  0  0  0
  -20.7710  -28.1120   22.9690 C   0  0  0  0  0  3  0  0  0  0  0  0
  -20.9590  -26.7080   22.3500 C   0  0  0  0  0  2  0  0  0  0  0  0
  -19.8900  -26.3570   21.3110 C   0  0  0  0  0  2  0  0  0  0  0  0
  -18.4960  -26.3990   21.9440 C   0  0  0  0  0  2  0  0  0  0  0  0
  -19.3030  -28.5240   23.1310 C   0  0  0  0  0  0  0  0  0  0  0  0
  -19.0070  -29.7500   23.7680 C   0  0  0  0  0  3  0  0  0  0  0  0
  -17.6740  -30.1670   23.9380 C   0  0  0  0  0  3  0  0  0  0  0  0
  -16.6190  -29.3530   23.4890 C   0  0  0  0  0  3  0  0  0  0  0  0
  -16.9000  -28.1240   22.8630 C   0  0  0  0  0  3  0  0  0  0  0  0
  -25.9090  -32.4550   23.7930 C   0  0  0  0  0  3  0  0  0  0  0  0
  -26.4370  -31.6740   25.0600 C   0  0  1  0  0  0  0  0  0  0  0  0
  -25.3380  -31.3800   26.1100 C   0  0  0  0  0  1  0  0  0  0  0  0
  -27.0680  -30.3220   24.6560 C   0  0  0  0  0  1  0  0  0  0  0  0
  -27.5600  -32.4930   25.7450 C   0  0  0  0  0  1  0  0  0  0  0  0
  -25.5550  -33.8380   24.1520 N   0  0  0  0  0  0  0  0  0  0  0  0
  -25.8710  -34.9220   23.4300 C   0  0  0  0  0  0  0  0  0  0  0  0
  -26.5560  -34.8630   22.4060 O   0  0  0  0  0  0  0  0  0  0  0  0
  -24.9350  -33.9500   24.9410 H   0  0  0  0  0  0  0  0  0  0  0  0
  -24.1030  -36.6850   23.1150 C   0  0  0  0  0  1  0  0  0  0  0  0
  -25.3480  -36.2860   23.9230 C   0  0  0  0  0  3  0  0  0  0  0  0
  -27.4480  -37.2030   24.8090 C   0  0  0  0  0  1  0  0  0  0  0  0
  -26.3570  -37.3640   23.8480 N   0  0  0  0  0  0  0  0  0  0  0  0
  -25.9300  -38.2730   24.0050 H   0  0  0  0  0  0  0  0  0  0  0  0
  1  2  1  0
  3  6  2  0
  3  4  1  0
  4  1  2  0
  5  2  2  0
  5  7  1  0
  6  5  1  0
  8  4  1  0
 11 10  1  6
 11 12  1  0
 11  8  1  0
 11  9  1  0
 12 18  1  0
 13 18  1  0
 14 15  1  0
 14 13  1  0
 16 15  1  0
 16 23  1  0
 16 17  1  0
 18 17  1  0
 19 12  2  0
 20 21  2  0
 21 40  1  0
 22 21  1  0
 22 25  1  0
 23 24  1  0
 23 20  1  0
 24 22  2  0
 25 26  1  0
 26 27  2  0
 28 31  1  0
 28 27  1  0
 29 28  2  0
 30 29  1  0
 30 25  2  0
 31 32  1  0
 32 37  2  0
 32 33  1  0
 33 34  2  0
 34 35  1  0
 35 39  1  0
 36 35  2  0
 37 36  1  0
 38 37  1  0
 40 41  1  0
 41 44  1  0
 41 43  1  0
 42 40  2  0
 45 46  1  0
 45 20  1  0
 47 45  1  0
 48 49  1  0
 48  6  1  0
 50 52  1  0
 50 49  1  0
 51 62  2  0
 52 57  1  0
 53 61  1  0
 53 63  1  0
 54 60  1  0
 54 56  1  0
 55 61  1  0
 56 55  1  0
 57 56  2  0
 58 59  1  0
 58 52  2  0
 59 54  2  0
 60 53  1  0
 61 51  1  0
 63 65  2  0
 64 63  1  0
 66 64  1  0
 67 76  2  0
 67 72  1  0
 68 64  1  0
 68 72  1  0
 69 68  1  0
 70 71  1  0
 70 69  1  0
 71 67  1  0
 72 73  2  0
 73 74  1  0
 75 74  2  0
 76 75  1  0
 77 51  1  0
 77 82  1  0
 77 78  1  0
 78 81  1  1
 78 79  1  0
 80 78  1  0
 82 85  1  0
 83 87  1  0
 83 82  1  0
 84 83  2  0
 87 86  1  0
 89 87  1  0
 89 90  1  0
 89 88  1  0
M  ISO  4  11 100  12 100  49 101  50 101
M  END
>  <TORSDO>  (98) 
F 20

>  <SCORE>  (98) 
-13.896

>  <name>  (98) 
97

>  <ligand_id>  (98) 
97

>  <original_smiles>  (98) 
[H]c1c([H])c([H])c2c(c1[H])C([H])([H])C([H])([H])C([H])([H])C2([H])N([H])C(=O)C1([H])N(C(=O)C([H])(N([H])C(=O)C([H])(N([H])C([H])([H])[H])C([H])([H])[H])C(C([H])([H])[H])(C([H])([H])[H])C([H])([H])[H])C([H])([H])c2c([H])c(OC([H])([H])C([H])([H])c3c([H])c(C([H])([H])C(C(=O)N4C([H])([H])C([H])([H])C([H])([H])C([H])(n5nc(-c6c([H])c([H])c(Oc7c([H])c([H])c(F)c([H])c7F)c([H])c6[H])c(C(=O)N([H])[H])c5N([H])[H])C4([H])[H])(C([H])([H])[H])C([H])([H])[H])c([H])c([H])c3C([H])([H])[H])c([H])c([H])c2C1([H])[H]

>  <smiles>  (98) 
[H]c1c([H])c([H])c2c(c1[H])C([H])([H])C([H])([H])C([H])([H])C2([H])N([H])C(=O)C1([H])N(C(=O)C([H])(N([H])C(=O)C([H])(N([H])C([H])([H])[H])C([H])([H])[H])C(C([H])([H])[H])(C([H])([H])[H])C([H])([H])[H])C([H])([H])c2c([H])c(OC([H])([H])C([H])([H])c3c([H])c(C([H])([H])C(C(=O)N4C([H])([H])C([H])([H])C([H])([H])C([H])(n5nc(-c6c([H])c([H])c(Oc7c([H])c([H])c(F)c([H])c7F)c([H])c6[H])c(C(=O)N([H])[H])c5N([H])[H])C4([H])[H])(C([H])([H])[H])C([H])([H])[H])c([H])c([H])c3C([H])([H])[H])c([H])c([H])c2C1([H])[H]

$$$$
98:0:0
     RDKit          3D

 96105  0  0  1  0  0  0  0  0999 V2000
  -30.1810  -20.6070   21.9540 C   0  0  0  0  0  3  0  0  0  0  0  0
  -30.7080  -19.3210   21.7000 C   0  0  0  0  0  3  0  0  0  0  0  0
  -28.4130  -20.1860   20.3510 C   0  0  0  0  0  3  0  0  0  0  0  0
  -29.0680  -21.0790   21.2250 C   0  0  0  0  0  0  0  0  0  0  0  0
  -30.1220  -18.4660   20.7340 C   0  0  0  0  0  0  0  0  0  0  0  0
  -28.9210  -18.8900   20.1040 C   0  0  0  0  0  0  0  0  0  0  0  0
  -28.1960  -18.0190   19.0960 C   0  0  0  0  0  2  0  0  0  0  0  0
  -28.9300  -17.9170   17.7570 C   0  0  0  0  0  2  0  0  0  0  0  0
  -30.0850  -16.9100   17.7880 C   0  0  0  0  0  2  0  0  0  0  0  0
  -31.2230  -17.2870   18.7560 C   0  0  0  0  0  2  0  0  0  0  0  0
  -30.9030  -17.2190   20.2780 C   0  0  0  0  0  3  0  0  0  0  0  0
  -31.0770  -14.7610   20.5330 C   0  0  0  0  0  0  0  0  0  0  0  0
  -30.7250  -12.6220   19.3890 C   0  0  0  0  0  2  0  0  0  0  0  0
  -29.8320  -12.8870   18.1610 C   0  0  0  0  0  2  0  0  0  0  0  0
  -28.3430  -12.7900   18.5490 C   0  0  0  0  0  2  0  0  0  0  0  0
  -27.9910  -13.5940   19.8300 C   0  0  0  0  0  3  0  0  0  0  0  0
  -29.0210  -13.3580   20.9600 C   0  0  0  0  0  2  0  0  0  0  0  0
  -30.3580  -13.6150   20.4100 N   0  0  0  0  0  0  0  0  0  0  0  0
  -32.2730  -14.8210   20.2430 O   0  0  0  0  0  0  0  0  0  0  0  0
  -30.3660  -15.8990   20.6780 N   0  0  0  0  0  0  0  0  0  0  0  0
  -29.3830  -15.8340   20.8780 H   0  0  0  0  0  0  0  0  0  0  0  0
  -25.5820  -14.2090   20.4830 C   0  0  0  0  0  0  0  0  0  0  0  0
  -24.4970  -13.4440   20.8130 C   0  0  0  0  0  0  0  0  0  0  0  0
  -24.9480  -12.0890   20.7840 C   0  0  0  0  0  0  0  0  0  0  0  0
  -26.6260  -13.3220   20.2740 N   0  0  0  0  0  0  0  0  0  0  0  0
  -26.2460  -12.0410   20.5140 N   0  0  0  0  0  0  0  0  0  0  0  0
  -24.2040  -10.8330   20.9420 C   0  0  0  0  0  0  0  0  0  0  0  0
  -24.5850   -9.8630   21.8930 C   0  0  0  0  0  3  0  0  0  0  0  0
  -23.8420   -8.6720   22.0390 C   0  0  0  0  0  3  0  0  0  0  0  0
  -22.7030   -8.4430   21.2310 C   0  0  0  0  0  0  0  0  0  0  0  0
  -22.3390   -9.4020   20.2710 C   0  0  0  0  0  3  0  0  0  0  0  0
  -23.0830  -10.5850   20.1240 C   0  0  0  0  0  3  0  0  0  0  0  0
  -21.9360   -7.3040   21.2850 O   0  0  0  0  0  0  0  0  0  0  0  0
  -21.8020   -6.5820   22.4430 C   0  0  0  0  0  0  0  0  0  0  0  0
  -21.2590   -7.1480   23.6150 C   0  0  0  0  0  3  0  0  0  0  0  0
  -21.0730   -6.3500   24.7630 C   0  0  0  0  0  3  0  0  0  0  0  0
  -21.4220   -4.9870   24.7360 C   0  0  0  0  0  0  0  0  0  0  0  0
  -21.9590   -4.4190   23.5660 C   0  0  0  0  0  3  0  0  0  0  0  0
  -22.1450   -5.2150   22.4220 C   0  0  0  0  0  0  0  0  0  0  0  0
  -22.6420   -4.6580   21.2920 F   0  0  0  0  0  0  0  0  0  0  0  0
  -21.2370   -4.2170   25.8340 F   0  0  0  0  0  0  0  0  0  0  0  0
  -23.0990  -13.9350   21.0480 C   0  0  0  0  0  0  0  0  0  0  0  0
  -22.3470  -13.2530   21.9050 N   0  0  0  0  0  0  0  0  0  0  0  0
  -22.6800  -14.9570   20.5080 O   0  0  0  0  0  0  0  0  0  0  0  0
  -22.7000  -12.4270   22.3640 H   0  0  0  0  0  0  0  0  0  0  0  0
  -21.4080  -13.5660   22.1050 H   0  0  0  0  0  0  0  0  0  0  0  0
  -25.7590  -15.5780   20.3270 N   0  0  0  0  0  0  0  0  0  0  0  0
  -24.9890  -16.2320   20.4190 H   0  0  0  0  0  0  0  0  0  0  0  0
  -26.6170  -16.0140   20.0210 H   0  0  0  0  0  0  0  0  0  0  0  0
  -28.6140  -22.5130   21.3470 C   0  0  0  0  0  0  0  0  0  0  0  0
  -28.3600  -23.1090   20.1720 N   0  0  0  0  0  0  0  0  0  0  0  0
  -28.5500  -23.0840   22.4350 O   0  0  0  0  0  0  0  0  0  0  0  0
  -28.4650  -22.5050   19.3680 H   0  0  0  0  0  0  0  0  0  0  0  0
  -27.9060  -24.4800   19.8880 C   0  0  0  0  0  3  0  0  0  0  0  0
  -28.7180  -25.6240   20.5610 C   0  0  0  0  0  3  0  0  0  0  0  0
  -28.5970  -26.9520   19.9980 O   0  0  0  0  0  0  0  0  0  0  0  0
  -24.6410  -31.9520   23.2490 C   0  0  0  0  0  0  0  0  0  0  0  0
  -27.3980  -27.6330   20.0810 C   0  0  0  0  0  0  0  0  0  0  0  0
  -23.4790  -30.5700   21.5590 C   0  0  0  0  0  3  0  0  0  0  0  0
  -24.9760  -29.1050   20.1110 C   0  0  0  0  0  0  0  0  0  0  0  0
  -25.9990  -30.9870   21.3920 C   0  0  0  0  0  2  0  0  0  0  0  0
  -26.1190  -29.6330   20.7200 C   0  0  0  0  0  0  0  0  0  0  0  0
  -27.3360  -28.9060   20.6990 C   0  0  0  0  0  3  0  0  0  0  0  0
  -26.2350  -27.1290   19.4610 C   0  0  0  0  0  3  0  0  0  0  0  0
  -25.0290  -27.8520   19.4800 C   0  0  0  0  0  3  0  0  0  0  0  0
  -23.7160  -29.9380   20.1640 C   0  0  0  0  0  2  0  0  0  0  0  0
  -24.7230  -31.1840   22.1260 N   0  0  0  0  0  0  0  0  0  0  0  0
  -23.5500  -32.1830   23.7890 O   0  0  0  0  0  0  0  0  0  0  0  0
  -22.8460  -29.5060   22.4860 C   0  0  0  0  0  0  0  0  0  0  0  0
  -21.5280  -29.2950   22.3480 N   0  0  0  0  0  0  0  0  0  0  0  0
  -23.5400  -28.8730   23.2870 O   0  0  0  0  0  0  0  0  0  0  0  0
  -21.0270  -29.8610   21.6770 H   0  0  0  0  0  0  0  0  0  0  0  0
  -18.1760  -28.0230   22.8060 C   0  0  0  0  0  0  0  0  0  0  0  0
  -20.7290  -28.3180   23.0880 C   0  0  0  0  0  3  0  0  0  0  0  0
  -20.8590  -26.9100   22.4630 C   0  0  0  0  0  2  0  0  0  0  0  0
  -19.7620  -26.6010   21.4390 C   0  0  0  0  0  2  0  0  0  0  0  0
  -18.3770  -26.6990   22.0860 C   0  0  0  0  0  2  0  0  0  0  0  0
  -19.2810  -28.7900   23.2620 C   0  0  0  0  0  0  0  0  0  0  0  0
  -19.0410  -30.0280   23.8940 C   0  0  0  0  0  3  0  0  0  0  0  0
  -17.7290  -30.5010   24.0770 C   0  0  0  0  0  3  0  0  0  0  0  0
  -16.6380  -29.7310   23.6380 C   0  0  0  0  0  3  0  0  0  0  0  0
  -16.8620  -28.4940   23.0070 C   0  0  0  0  0  3  0  0  0  0  0  0
  -25.9080  -32.5960   23.8930 C   0  0  0  0  0  3  0  0  0  0  0  0
  -26.4020  -31.8370   25.1850 C   0  0  1  0  0  0  0  0  0  0  0  0
  -25.2860  -31.5950   26.2280 C   0  0  0  0  0  1  0  0  0  0  0  0
  -27.0080  -30.4630   24.8130 C   0  0  0  0  0  1  0  0  0  0  0  0
  -27.5290  -32.6460   25.8720 C   0  0  0  0  0  1  0  0  0  0  0  0
  -25.5850  -33.9940   24.2070 N   0  0  0  0  0  0  0  0  0  0  0  0
  -25.9220  -35.0420   23.4430 C   0  0  0  0  0  0  0  0  0  0  0  0
  -26.6120  -34.9350   22.4240 O   0  0  0  0  0  0  0  0  0  0  0  0
  -24.9770  -34.1490   24.9980 H   0  0  0  0  0  0  0  0  0  0  0  0
  -24.1930  -36.8210   23.0280 C   0  0  0  0  0  1  0  0  0  0  0  0
  -25.4140  -36.4310   23.8760 C   0  0  0  0  0  3  0  0  0  0  0  0
  -27.5150  -37.3420   24.7630 C   0  0  0  0  0  1  0  0  0  0  0  0
  -26.4430  -37.4900   23.7820 N   0  0  0  0  0  0  0  0  0  0  0  0
  -26.0250  -38.4080   23.9040 H   0  0  0  0  0  0  0  0  0  0  0  0
  2  1  1  0
  3  4  1  0
  4 50  1  0
  4  1  2  0
  5  2  2  0
  6  3  2  0
  6  5  1  0
  7  6  1  0
  8  9  1  0
  8  7  1  0
  9 10  1  0
 10 11  1  0
 11 20  1  0
 11  5  1  0
 12 20  1  0
 13 18  1  0
 14 15  1  0
 14 13  1  0
 16 15  1  0
 16 25  1  0
 16 17  1  0
 18 12  1  0
 18 17  1  0
 19 12  2  0
 20 21  1  0
 22 23  2  0
 23 42  1  0
 24 23  1  0
 24 27  1  0
 25 22  1  0
 25 26  1  0
 26 24  2  0
 27 28  1  0
 28 29  2  0
 30 33  1  0
 30 29  1  0
 31 30  2  0
 32 31  1  0
 32 27  2  0
 33 34  1  0
 34 35  1  0
 35 36  2  0
 37 36  1  0
 37 41  1  0
 38 37  2  0
 39 34  2  0
 39 38  1  0
 40 39  1  0
 42 43  1  0
 43 46  1  0
 43 45  1  0
 44 42  2  0
 47 48  1  0
 47 22  1  0
 49 47  1  0
 50 52  2  0
 51 50  1  0
 53 51  1  0
 54 51  1  0
 54 55  2  0
 56 58  1  0
 56 55  1  0
 57 68  2  0
 58 63  1  0
 59 67  1  0
 59 69  1  0
 60 66  1  0
 60 62  1  0
 61 67  1  0
 62 61  1  0
 63 62  2  0
 64 65  1  0
 64 58  2  0
 65 60  2  0
 66 59  1  0
 67 57  1  0
 69 71  2  0
 70 69  1  0
 72 70  1  0
 73 82  2  0
 73 78  1  0
 74 70  1  0
 74 78  1  0
 75 74  1  0
 76 77  1  0
 76 75  1  0
 77 73  1  0
 78 79  2  0
 79 80  1  0
 81 80  2  0
 82 81  1  0
 83 57  1  0
 83 88  1  0
 83 84  1  0
 84 87  1  1
 84 85  1  0
 86 84  1  0
 88 91  1  0
 89 93  1  0
 89 88  1  0
 90 89  2  0
 93 92  1  0
 95 93  1  0
 95 96  1  0
 95 94  1  0
M  ISO  4  12 100  20 100  55 101  56 101
M  END
>  <TORSDO>  (99) 
F 19

>  <SCORE>  (99) 
-13.750

>  <name>  (99) 
98

>  <ligand_id>  (99) 
98

>  <original_smiles>  (99) 
[H]c1c([H])c([H])c2c(c1[H])C([H])([H])C([H])([H])C([H])([H])C2([H])N([H])C(=O)C1([H])N(C(=O)C([H])(N([H])C(=O)C([H])(N([H])C([H])([H])[H])C([H])([H])[H])C(C([H])([H])[H])(C([H])([H])[H])C([H])([H])[H])C([H])([H])c2c([H])c(OC([H])([H])C([H])([H])N([H])C(=O)c3c([H])c([H])c4c(c3[H])C([H])([H])C([H])([H])C([H])([H])C([H])([H])C4([H])N([H])C(=O)N3C([H])([H])C([H])([H])C([H])([H])C([H])(n4nc(-c5c([H])c([H])c(Oc6c([H])c([H])c(F)c([H])c6F)c([H])c5[H])c(C(=O)N([H])[H])c4N([H])[H])C3([H])[H])c([H])c([H])c2C1([H])[H]

>  <smiles>  (99) 
[H]c1c([H])c([H])c2c(c1[H])C([H])([H])C([H])([H])C([H])([H])C2([H])N([H])C(=O)C1([H])N(C(=O)C([H])(N([H])C(=O)C([H])(N([H])C([H])([H])[H])C([H])([H])[H])C(C([H])([H])[H])(C([H])([H])[H])C([H])([H])[H])C([H])([H])c2c([H])c(OC([H])([H])C([H])([H])N([H])C(=O)c3c([H])c([H])c4c(c3[H])C([H])([H])C([H])([H])C([H])([H])C([H])([H])C4([H])N([H])C(=O)N3C([H])([H])C([H])([H])C([H])([H])C([H])(n4nc(-c5c([H])c([H])c(Oc6c([H])c([H])c(F)c([H])c6F)c([H])c5[H])c(C(=O)N([H])[H])c4N([H])[H])C3([H])[H])c([H])c([H])c2C1([H])[H]

$$$$
