0:0:0
     RDKit          3D

102112  0  0  1  0  0  0  0  0999 V2000
  -29.1480  -19.1130   18.1350 C   0  0  0  0  0  3  0  0  0  0  0  0
  -29.2770  -19.8660   19.3200 C   0  0  0  0  0  0  0  0  0  0  0  0
  -28.9640  -21.3840   19.2210 C   0  0  0  0  0  0  0  0  0  0  0  0
  -28.7840  -19.6590   16.8970 C   0  0  0  0  0  0  0  0  0  0  0  0
  -28.6760  -21.8910   17.9090 C   0  0  0  0  0  0  0  0  0  0  0  0
  -28.5790  -21.0470   16.7660 C   0  0  0  0  0  0  0  0  0  0  0  0
  -29.3860  -19.8440   21.7640 C   0  0  0  0  0  3  0  0  0  0  0  0
  -28.7000  -22.5070   20.4190 C   0  0  0  0  0  0  0  0  0  0  0  0
  -29.7990  -18.8630   20.5390 C   0  0  0  0  0  0  0  0  0  0  0  0
  -28.9600  -21.4860   21.7170 C   0  0  0  0  0  0  0  0  0  0  0  0
  -28.6090  -18.7140   15.7140 C   0  0  0  0  0  1  0  0  0  0  0  0
  -28.4120  -23.3900   17.7290 C   0  0  0  0  0  1  0  0  0  0  0  0
  -28.2020  -21.6200   15.3960 C   0  0  0  0  0  1  0  0  0  0  0  0
  -30.4770  -15.8050   20.7540 C   0  0  0  0  0  0  0  0  0  0  0  0
  -30.6260  -13.2490   20.1030 C   0  0  0  0  0  2  0  0  0  0  0  0
  -29.8590  -12.8190   18.8230 C   0  0  0  0  0  2  0  0  0  0  0  0
  -28.3840  -12.5220   19.1380 C   0  0  0  0  0  2  0  0  0  0  0  0
  -27.7790  -13.5850   20.0840 C   0  0  0  0  0  3  0  0  0  0  0  0
  -28.6880  -13.9290   21.2870 C   0  0  0  0  0  2  0  0  0  0  0  0
  -29.9470  -14.4600   20.7300 N   0  0  0  0  0  0  0  0  0  0  0  0
  -31.7190  -15.7650   20.7140 O   0  0  0  0  0  0  0  0  0  0  0  0
  -29.6980  -17.1190   20.6490 N   0  0  0  0  0  0  0  0  0  0  0  0
  -28.7200  -16.8680   20.6370 H   0  0  0  0  0  0  0  0  0  0  0  0
  -25.3610  -14.1690   20.6190 C   0  0  0  0  0  0  0  0  0  0  0  0
  -24.2580  -13.4090   20.8850 C   0  0  0  0  0  0  0  0  0  0  0  0
  -24.7050  -12.0520   20.8960 C   0  0  0  0  0  0  0  0  0  0  0  0
  -26.4100  -13.2800   20.4750 N   0  0  0  0  0  0  0  0  0  0  0  0
  -26.0220  -11.9980   20.7120 N   0  0  0  0  0  0  0  0  0  0  0  0
  -23.9410  -10.8000   21.0110 C   0  0  0  0  0  0  0  0  0  0  0  0
  -24.2580   -9.8250   21.9810 C   0  0  0  0  0  3  0  0  0  0  0  0
  -23.4920   -8.6430   22.0870 C   0  0  0  0  0  3  0  0  0  0  0  0
  -22.3940   -8.4280   21.2200 C   0  0  0  0  0  0  0  0  0  0  0  0
  -22.0950   -9.3940   20.2430 C   0  0  0  0  0  3  0  0  0  0  0  0
  -22.8610  -10.5670   20.1360 C   0  0  0  0  0  3  0  0  0  0  0  0
  -21.6090   -7.3000   21.2320 O   0  0  0  0  0  0  0  0  0  0  0  0
  -21.4320   -6.5590   22.3740 C   0  0  0  0  0  0  0  0  0  0  0  0
  -20.8470   -7.1090   23.5340 C   0  0  0  0  0  3  0  0  0  0  0  0
  -20.6190   -6.2940   24.6600 C   0  0  0  0  0  3  0  0  0  0  0  0
  -20.9670   -4.9300   24.6260 C   0  0  0  0  0  0  0  0  0  0  0  0
  -21.5460   -4.3810   23.4690 C   0  0  0  0  0  3  0  0  0  0  0  0
  -21.7740   -5.1920   22.3440 C   0  0  0  0  0  0  0  0  0  0  0  0
  -22.3130   -4.6530   21.2250 F   0  0  0  0  0  0  0  0  0  0  0  0
  -20.7430   -4.1460   25.7060 F   0  0  0  0  0  0  0  0  0  0  0  0
  -22.8490  -13.9090   21.0130 C   0  0  0  0  0  0  0  0  0  0  0  0
  -22.0320  -13.2400   21.8160 N   0  0  0  0  0  0  0  0  0  0  0  0
  -22.4810  -14.9310   20.4350 O   0  0  0  0  0  0  0  0  0  0  0  0
  -22.3390  -12.4100   22.3030 H   0  0  0  0  0  0  0  0  0  0  0  0
  -21.0840  -13.5610   21.9470 H   0  0  0  0  0  0  0  0  0  0  0  0
  -25.5550  -15.5360   20.4540 N   0  0  0  0  0  0  0  0  0  0  0  0
  -24.7790  -16.1870   20.4740 H   0  0  0  0  0  0  0  0  0  0  0  0
  -26.4160  -15.9610   20.1380 H   0  0  0  0  0  0  0  0  0  0  0  0
  -29.9790  -26.3830   22.3710 C   0  0  0  0  0  2  0  0  0  0  0  0
  -28.9000  -25.5040   23.0010 C   0  0  0  0  0  2  0  0  0  0  0  0
  -30.9190  -25.5100   21.5500 C   0  0  0  0  0  2  0  0  0  0  0  0
  -28.0660  -24.6950   21.9810 C   0  0  0  0  0  2  0  0  0  0  0  0
  -30.2080  -24.7220   20.4300 C   0  0  0  0  0  2  0  0  0  0  0  0
  -28.6700  -24.4360   20.5570 C   0  0  1  0  0  0  0  0  0  0  0  0
  -28.2540  -25.9560   19.8550 O   0  0  0  0  0  0  0  0  0  0  0  0
  -24.4980  -31.8910   23.0460 C   0  0  0  0  0  0  0  0  0  0  0  0
  -27.1830  -27.0390   19.9810 C   0  0  0  0  0  0  0  0  0  0  0  0
  -23.3380  -30.4760   21.4070 C   0  0  0  0  0  3  0  0  0  0  0  0
  -24.8250  -28.9130   19.9610 C   0  0  0  0  0  0  0  0  0  0  0  0
  -25.9000  -30.7500   21.2350 C   0  0  0  0  0  2  0  0  0  0  0  0
  -26.0100  -29.3340   20.5740 C   0  0  0  0  0  0  0  0  0  0  0  0
  -27.1810  -28.4280   20.5420 C   0  0  0  0  0  3  0  0  0  0  0  0
  -25.9560  -26.8000   19.3160 C   0  0  0  0  0  3  0  0  0  0  0  0
  -24.8290  -27.6700   19.3090 C   0  0  0  0  0  3  0  0  0  0  0  0
  -23.5800  -29.8080   20.0240 C   0  0  0  0  0  2  0  0  0  0  0  0
  -24.6010  -31.0670   21.9510 N   0  0  0  0  0  0  0  0  0  0  0  0
  -23.4040  -32.1390   23.5800 O   0  0  0  0  0  0  0  0  0  0  0  0
  -22.6780  -29.4540   22.3700 C   0  0  0  0  0  0  0  0  0  0  0  0
  -21.3510  -29.2580   22.2650 N   0  0  0  0  0  0  0  0  0  0  0  0
  -23.3710  -28.8350   23.1800 O   0  0  0  0  0  0  0  0  0  0  0  0
  -20.8390  -29.8160   21.5930 H   0  0  0  0  0  0  0  0  0  0  0  0
  -18.0040  -27.9760   22.8470 C   0  0  0  0  0  0  0  0  0  0  0  0
  -20.5670  -28.2820   23.0350 C   0  0  0  0  0  3  0  0  0  0  0  0
  -20.6720  -26.8710   22.4090 C   0  0  0  0  0  2  0  0  0  0  0  0
  -19.5410  -26.5600   21.4260 C   0  0  0  0  0  2  0  0  0  0  0  0
  -18.1800  -26.6550   22.1190 C   0  0  0  0  0  2  0  0  0  0  0  0
  -19.1220  -28.7470   23.2630 C   0  0  0  0  0  0  0  0  0  0  0  0
  -18.8990  -29.9810   23.9100 C   0  0  0  0  0  3  0  0  0  0  0  0
  -17.5910  -30.4440   24.1480 C   0  0  0  0  0  3  0  0  0  0  0  0
  -16.4880  -29.6700   23.7490 C   0  0  0  0  0  3  0  0  0  0  0  0
  -16.6950  -28.4390   23.1010 C   0  0  0  0  0  3  0  0  0  0  0  0
  -25.7480  -32.5740   23.6770 C   0  0  0  0  0  3  0  0  0  0  0  0
  -26.2770  -31.8250   24.9640 C   0  0  1  0  0  0  0  0  0  0  0  0
  -25.1820  -31.5620   26.0250 C   0  0  0  0  0  1  0  0  0  0  0  0
  -26.9040  -30.4630   24.5890 C   0  0  0  0  0  1  0  0  0  0  0  0
  -27.3990  -32.6570   25.6280 C   0  0  0  0  0  1  0  0  0  0  0  0
  -25.3900  -33.9630   24.0180 N   0  0  0  0  0  0  0  0  0  0  0  0
  -25.7340  -35.0440   23.3050 C   0  0  0  0  0  0  0  0  0  0  0  0
  -26.4450  -34.9770   22.3010 O   0  0  0  0  0  0  0  0  0  0  0  0
  -24.7600  -34.0890   24.7970 H   0  0  0  0  0  0  0  0  0  0  0  0
  -24.0260  -36.8550   22.9020 C   0  0  0  0  0  1  0  0  0  0  0  0
  -25.2080  -36.4160   23.7790 C   0  0  0  0  0  3  0  0  0  0  0  0
  -27.2680  -37.2870   24.7990 C   0  0  0  0  0  1  0  0  0  0  0  0
  -26.2390  -37.4770   23.7800 N   0  0  0  0  0  0  0  0  0  0  0  0
  -25.8150  -38.3890   23.9250 H   0  0  0  0  0  0  0  0  0  0  0  0
  -29.5620  -22.1760   22.8770 N   0  0  0  0  0  4  0  0  0  0  0  0
  -30.5400  -22.3440   22.7360 H   0  0  0  0  0  0  0  0  0  0  0  0
  -29.4750  -21.5970   23.6940 H   0  0  0  0  0  0  0  0  0  0  0  0
  -29.0940  -23.0440   23.0750 H   0  0  0  0  0  0  0  0  0  0  0  0
  1  2  1  0
  2  9  1  0
  3  2  2  0
  3  8  1  0
  4  1  2  0
  5  3  1  0
  6  4  1  0
  6  5  2  0
  8 57  1  0
  8 10  2  0
  9 22  1  0
  9  7  2  0
 10  7  1  0
 10 99  1  0
 11  4  1  0
 12  5  1  0
 13  6  1  0
 15 20  1  0
 16 17  1  0
 16 15  1  0
 18 17  1  0
 18 27  1  0
 18 19  1  0
 20 14  1  0
 20 19  1  0
 21 14  2  0
 22 14  1  0
 23 22  1  0
 24 25  2  0
 25 26  1  0
 25 44  1  0
 26 29  1  0
 27 24  1  0
 27 28  1  0
 28 26  2  0
 29 30  1  0
 30 31  2  0
 32 35  1  0
 32 31  1  0
 33 32  2  0
 34 33  1  0
 34 29  2  0
 35 36  1  0
 36 37  1  0
 37 38  2  0
 39 38  1  0
 39 43  1  0
 40 39  2  0
 41 36  2  0
 41 40  1  0
 42 41  1  0
 44 45  1  0
 45 48  1  0
 45 47  1  0
 46 44  2  0
 49 50  1  0
 49 24  1  0
 51 49  1  0
 52 53  1  0
 54 52  1  0
 55 53  1  0
 56 57  1  0
 56 54  1  0
 57 55  1  0
 58 60  1  0
 57 58  1  6
 59 70  2  0
 60 65  1  0
 61 69  1  0
 61 71  1  0
 62 68  1  0
 62 64  1  0
 63 69  1  0
 64 63  1  0
 65 64  2  0
 66 60  2  0
 67 66  1  0
 67 62  2  0
 68 61  1  0
 69 59  1  0
 71 73  2  0
 72 71  1  0
 74 72  1  0
 75 84  2  0
 75 80  1  0
 76 72  1  0
 76 80  1  0
 77 76  1  0
 78 79  1  0
 78 77  1  0
 79 75  1  0
 80 81  2  0
 81 82  1  0
 83 82  2  0
 84 83  1  0
 85 59  1  0
 85 90  1  0
 85 86  1  0
 86 89  1  1
 86 87  1  0
 88 86  1  0
 90 93  1  0
 91 95  1  0
 91 90  1  0
 92 91  2  0
 95 94  1  0
 95 97  1  0
 97 98  1  0
 97 96  1  0
 99102  1  0
 99101  1  0
100 99  1  0
M  ISO  4  14 100  22 100  57 101  58 101
M  END
>  <TORSDO>  (1) 
F 18

>  <SCORE>  (1) 
-13.034

>  <name>  (1) 
0

>  <ligand_id>  (1) 
0

>  <original_smiles>  (1) 
[H]c1c([H])c([H])c2c(c1[H])C([H])([H])C([H])([H])C([H])([H])C2([H])N([H])C(=O)C1([H])N(C(=O)C([H])(N([H])C(=O)C([H])(N([H])C([H])([H])[H])C([H])([H])[H])C(C([H])([H])[H])(C([H])([H])[H])C([H])([H])[H])C([H])([H])c2c([H])c(OC3(C4([H])c5c(C([H])([H])[H])c(C([H])([H])[H])c(C([H])([H])[H])c([H])c5C([H])(N([H])C(=O)N5C([H])([H])C([H])([H])C([H])([H])C([H])(n6nc(-c7c([H])c([H])c(Oc8c([H])c([H])c(F)c([H])c8F)c([H])c7[H])c(C(=O)N([H])[H])c6N([H])[H])C5([H])[H])C([H])([H])C4([H])[N+]([H])([H])[H])C([H])([H])C([H])([H])C([H])([H])C([H])([H])C3([H])[H])c([H])c([H])c2C1([H])[H]

>  <smiles>  (1) 
[H]c1c([H])c([H])c2c(c1[H])C([H])([H])C([H])([H])C([H])([H])C2([H])N([H])C(=O)C1([H])N(C(=O)C([H])(N([H])C(=O)C([H])(N([H])C([H])([H])[H])C([H])([H])[H])C(C([H])([H])[H])(C([H])([H])[H])C([H])([H])[H])C([H])([H])c2c([H])c(OC3(C4([H])c5c(C([H])([H])[H])c(C([H])([H])[H])c(C([H])([H])[H])c([H])c5C([H])(N([H])C(=O)N5C([H])([H])C([H])([H])C([H])([H])C([H])(n6nc(-c7c([H])c([H])c(Oc8c([H])c([H])c(F)c([H])c8F)c([H])c7[H])c(C(=O)N([H])[H])c6N([H])[H])C5([H])[H])C([H])([H])C4([H])[N+]([H])([H])[H])C([H])([H])C([H])([H])C([H])([H])C([H])([H])C3([H])[H])c([H])c([H])c2C1([H])[H]

$$$$
1:0:0
     RDKit          3D

 97106  0  0  1  0  0  0  0  0999 V2000
  -27.3110  -19.8280   18.0140 C   0  0  0  0  0  2  0  0  0  0  0  0
  -28.8160  -19.8720   18.3000 C   0  0  0  0  0  2  0  0  0  0  0  0
  -27.6080  -19.3470   20.3440 C   0  0  0  0  0  2  0  0  0  0  0  0
  -26.7800  -18.9280   19.1250 C   0  0  0  0  0  3  0  0  0  0  0  0
  -29.0010  -19.8260   19.8420 C   0  0  2  0  0  0  0  0  0  0  0  0
  -29.2830  -21.7090   21.7490 C   0  0  0  0  0  3  0  0  0  0  0  0
  -29.2280  -22.9670   22.4050 C   0  0  0  0  0  3  0  0  0  0  0  0
  -28.6820  -22.9240   19.7580 C   0  0  0  0  0  3  0  0  0  0  0  0
  -29.0460  -21.5310   20.3700 C   0  0  0  0  0  0  0  0  0  0  0  0
  -28.9140  -24.2140   21.7920 C   0  0  0  0  0  0  0  0  0  0  0  0
  -28.5720  -24.3390   20.4160 C   0  0  0  0  0  0  0  0  0  0  0  0
  -29.0270  -25.4500   22.6670 C   0  0  0  0  0  1  0  0  0  0  0  0
  -28.4230  -25.8040   19.9110 O   0  0  0  0  0  0  0  0  0  0  0  0
  -24.6030  -31.6370   23.0420 C   0  0  0  0  0  0  0  0  0  0  0  0
  -27.3520  -26.8590   19.9970 C   0  0  0  0  0  0  0  0  0  0  0  0
  -23.4740  -30.2240   21.3730 C   0  0  0  0  0  3  0  0  0  0  0  0
  -24.9900  -28.6820   19.9500 C   0  0  0  0  0  0  0  0  0  0  0  0
  -26.0360  -30.5170   21.2560 C   0  0  0  0  0  2  0  0  0  0  0  0
  -26.1610  -29.1110   20.5900 C   0  0  0  0  0  0  0  0  0  0  0  0
  -27.3360  -28.2240   20.5830 C   0  0  0  0  0  3  0  0  0  0  0  0
  -26.1450  -26.5900   19.3110 C   0  0  0  0  0  3  0  0  0  0  0  0
  -25.0100  -27.4410   19.2930 C   0  0  0  0  0  3  0  0  0  0  0  0
  -23.7410  -29.5650   19.9920 C   0  0  0  0  0  2  0  0  0  0  0  0
  -24.7260  -30.8220   21.9450 N   0  0  0  0  0  0  0  0  0  0  0  0
  -23.4990  -31.8820   23.5580 O   0  0  0  0  0  0  0  0  0  0  0  0
  -22.8040  -29.1930   22.3180 C   0  0  0  0  0  0  0  0  0  0  0  0
  -21.4760  -29.0040   22.1980 N   0  0  0  0  0  0  0  0  0  0  0  0
  -23.4860  -28.5650   23.1320 O   0  0  0  0  0  0  0  0  0  0  0  0
  -20.9750  -29.5650   21.5210 H   0  0  0  0  0  0  0  0  0  0  0  0
  -18.1240  -27.7010   22.6920 C   0  0  0  0  0  0  0  0  0  0  0  0
  -20.6790  -28.0280   22.9500 C   0  0  0  0  0  3  0  0  0  0  0  0
  -20.8120  -26.6120   22.3420 C   0  0  0  0  0  2  0  0  0  0  0  0
  -19.7150  -26.2840   21.3240 C   0  0  0  0  0  2  0  0  0  0  0  0
  -18.3330  -26.3760   21.9790 C   0  0  0  0  0  2  0  0  0  0  0  0
  -19.2260  -28.4830   23.1330 C   0  0  0  0  0  0  0  0  0  0  0  0
  -18.9720  -29.7200   23.7660 C   0  0  0  0  0  3  0  0  0  0  0  0
  -17.6550  -30.1790   23.9550 C   0  0  0  0  0  3  0  0  0  0  0  0
  -16.5690  -29.3940   23.5270 C   0  0  0  0  0  3  0  0  0  0  0  0
  -16.8060  -28.1560   22.9030 C   0  0  0  0  0  3  0  0  0  0  0  0
  -25.8430  -32.3180   23.6970 C   0  0  0  0  0  3  0  0  0  0  0  0
  -26.3730  -31.5440   24.9680 C   0  0  1  0  0  0  0  0  0  0  0  0
  -25.2780  -31.2540   26.0240 C   0  0  0  0  0  1  0  0  0  0  0  0
  -27.0010  -30.1910   24.5670 C   0  0  0  0  0  1  0  0  0  0  0  0
  -27.4950  -32.3650   25.6500 C   0  0  0  0  0  1  0  0  0  0  0  0
  -25.4670  -33.6950   24.0650 N   0  0  0  0  0  0  0  0  0  0  0  0
  -25.7610  -34.7900   23.3500 C   0  0  0  0  0  0  0  0  0  0  0  0
  -26.4390  -34.7470   22.3210 O   0  0  0  0  0  0  0  0  0  0  0  0
  -24.8580  -33.7980   24.8640 H   0  0  0  0  0  0  0  0  0  0  0  0
  -23.9610  -36.5290   23.0650 C   0  0  0  0  0  1  0  0  0  0  0  0
  -25.2230  -36.1450   23.8540 C   0  0  0  0  0  3  0  0  0  0  0  0
  -27.3270  -37.0910   24.7050 C   0  0  0  0  0  1  0  0  0  0  0  0
  -26.2140  -37.2410   23.7700 N   0  0  0  0  0  0  0  0  0  0  0  0
  -25.7720  -38.1400   23.9460 H   0  0  0  0  0  0  0  0  0  0  0  0
  -25.3230  -19.0460   19.3320 N   0  0  0  0  0  4  0  0  0  0  0  0
  -25.0510  -19.9930   19.5320 H   0  0  0  0  0  0  0  0  0  0  0  0
  -25.0300  -18.4680   20.0990 H   0  0  0  0  0  0  0  0  0  0  0  0
  -24.8280  -18.7420   18.5110 H   0  0  0  0  0  0  0  0  0  0  0  0
  -30.8390  -18.6340   21.4710 C   0  0  0  0  0  1  0  0  0  0  0  0
  -30.0730  -18.3570   20.1710 C   0  0  0  0  0  0  0  0  0  0  0  0
  -30.5910  -15.3800   20.0730 C   0  0  0  0  0  0  0  0  0  0  0  0
  -30.5920  -12.8880   19.2880 C   0  0  0  0  0  2  0  0  0  0  0  0
  -29.6590  -12.5830   18.0880 C   0  0  0  0  0  2  0  0  0  0  0  0
  -28.2250  -12.3070   18.5730 C   0  0  0  0  0  2  0  0  0  0  0  0
  -27.7740  -13.3160   19.6560 C   0  0  0  0  0  3  0  0  0  0  0  0
  -28.8380  -13.5460   20.7480 C   0  0  0  0  0  2  0  0  0  0  0  0
  -30.0330  -14.0610   20.0610 N   0  0  0  0  0  0  0  0  0  0  0  0
  -31.8150  -15.3550   19.8720 O   0  0  0  0  0  0  0  0  0  0  0  0
  -29.8210  -16.6730   20.1190 N   0  0  0  0  0  4  0  0  0  0  0  0
  -28.8400  -16.4580   20.2010 H   0  0  0  0  0  0  0  0  0  0  0  0
  -25.4440  -13.8990   20.4970 C   0  0  0  0  0  0  0  0  0  0  0  0
  -24.3800  -13.1390   20.8900 C   0  0  0  0  0  0  0  0  0  0  0  0
  -24.8180  -11.7830   20.8210 C   0  0  0  0  0  0  0  0  0  0  0  0
  -26.4590  -13.0080   20.2050 N   0  0  0  0  0  0  0  0  0  0  0  0
  -26.0990  -11.7270   20.4670 N   0  0  0  0  0  0  0  0  0  0  0  0
  -24.0700  -10.5320   21.0110 C   0  0  0  0  0  0  0  0  0  0  0  0
  -24.5030   -9.5410   21.9160 C   0  0  0  0  0  3  0  0  0  0  0  0
  -23.7540   -8.3580   22.0970 C   0  0  0  0  0  3  0  0  0  0  0  0
  -22.5580   -8.1560   21.3690 C   0  0  0  0  0  0  0  0  0  0  0  0
  -22.1430   -9.1370   20.4510 C   0  0  0  0  0  3  0  0  0  0  0  0
  -22.8910  -10.3120   20.2690 C   0  0  0  0  0  3  0  0  0  0  0  0
  -21.7790   -7.0290   21.4600 O   0  0  0  0  0  0  0  0  0  0  0  0
  -21.7290   -6.2790   22.6080 C   0  0  0  0  0  0  0  0  0  0  0  0
  -21.3290   -6.8330   23.8430 C   0  0  0  0  0  3  0  0  0  0  0  0
  -21.2280   -6.0100   24.9820 C   0  0  0  0  0  3  0  0  0  0  0  0
  -21.5130   -4.6360   24.8870 C   0  0  0  0  0  0  0  0  0  0  0  0
  -21.9040   -4.0810   23.6560 C   0  0  0  0  0  3  0  0  0  0  0  0
  -22.0090   -4.9010   22.5200 C   0  0  0  0  0  0  0  0  0  0  0  0
  -22.3660   -4.3560   21.3300 F   0  0  0  0  0  0  0  0  0  0  0  0
  -21.4060   -3.8440   25.9790 F   0  0  0  0  0  0  0  0  0  0  0  0
  -23.0010  -13.6430   21.2040 C   0  0  0  0  0  0  0  0  0  0  0  0
  -22.2800  -12.9550   22.0820 N   0  0  0  0  0  0  0  0  0  0  0  0
  -22.5760  -14.6840   20.7030 O   0  0  0  0  0  0  0  0  0  0  0  0
  -22.6390  -12.1170   22.5130 H   0  0  0  0  0  0  0  0  0  0  0  0
  -21.3540  -13.2740   22.3300 H   0  0  0  0  0  0  0  0  0  0  0  0
  -25.6280  -15.2670   20.3310 N   0  0  0  0  0  0  0  0  0  0  0  0
  -24.8660  -15.9170   20.4740 H   0  0  0  0  0  0  0  0  0  0  0  0
  -26.4510  -15.6730   19.9130 H   0  0  0  0  0  0  0  0  0  0  0  0
  1  2  1  0
  1  4  1  0
  2  5  1  0
  4 54  1  0
  4  3  1  0
  5 59  1  6
  5  3  1  0
  5  9  1  0
  6  7  1  0
  8  9  1  0
  8 11  2  0
  9  6  2  0
 10  7  2  0
 10 12  1  0
 11 10  1  0
 13 15  1  0
 13 11  1  0
 14 25  2  0
 15 20  1  0
 16 24  1  0
 16 26  1  0
 17 23  1  0
 17 19  1  0
 18 24  1  0
 19 18  1  0
 20 19  2  0
 21 15  2  0
 22 21  1  0
 22 17  2  0
 23 16  1  0
 24 14  1  0
 26 28  2  0
 27 26  1  0
 29 27  1  0
 30 39  2  0
 30 35  1  0
 31 27  1  0
 31 35  1  0
 32 31  1  0
 33 34  1  0
 33 32  1  0
 34 30  1  0
 35 36  2  0
 36 37  1  0
 38 37  2  0
 39 38  1  0
 40 14  1  0
 40 45  1  0
 40 41  1  0
 41 44  1  1
 41 42  1  0
 43 41  1  0
 45 48  1  0
 46 50  1  0
 46 45  1  0
 47 46  2  0
 50 49  1  0
 52 50  1  0
 52 53  1  0
 52 51  1  0
 54 55  1  0
 54 56  1  0
 57 54  1  0
 59 58  1  0
 60 68  1  0
 61 66  1  0
 62 63  1  0
 62 61  1  0
 64 63  1  0
 64 73  1  0
 64 65  1  0
 66 60  1  0
 66 65  1  0
 67 60  2  0
 68 59  2  0
 68 69  1  0
 70 71  2  0
 71 90  1  0
 72 71  1  0
 72 75  1  0
 73 74  1  0
 73 70  1  0
 74 72  2  0
 75 76  1  0
 76 77  2  0
 78 81  1  0
 78 77  1  0
 79 78  2  0
 80 79  1  0
 80 75  2  0
 81 82  1  0
 82 83  1  0
 83 84  2  0
 85 84  1  0
 85 89  1  0
 86 85  2  0
 87 82  2  0
 87 86  1  0
 88 87  1  0
 90 91  1  0
 91 94  1  0
 91 93  1  0
 92 90  2  0
 95 96  1  0
 95 70  1  0
 97 95  1  0
M  ISO  4  11 101  13 101  60 100  68 100
M  END
>  <TORSDO>  (2) 
F 19

>  <SCORE>  (2) 
-15.096

>  <name>  (2) 
1

>  <ligand_id>  (2) 
1

>  <original_smiles>  (2) 
[H]c1c([H])c([H])c2c(c1[H])C([H])([H])C([H])([H])C([H])([H])C2([H])N([H])C(=O)C1([H])N(C(=O)C([H])(N([H])C(=O)C([H])(N([H])C([H])([H])[H])C([H])([H])[H])C(C([H])([H])[H])(C([H])([H])[H])C([H])([H])[H])C([H])([H])c2c([H])c(Oc3c([H])c(C4(C([H])(N([H])C(=O)N5C([H])([H])C([H])([H])C([H])([H])C([H])(n6nc(-c7c([H])c([H])c(Oc8c([H])c([H])c(F)c([H])c8F)c([H])c7[H])c(C(=O)N([H])[H])c6N([H])[H])C5([H])[H])C([H])([H])[H])C([H])([H])C([H])([H])C([H])([N+]([H])([H])[H])C4([H])[H])c([H])c([H])c3C([H])([H])[H])c([H])c([H])c2C1([H])[H]

>  <smiles>  (2) 
[H]c1c([H])c([H])c2c(c1[H])C([H])([H])C([H])([H])C([H])([H])C2([H])N([H])C(=O)C1([H])N(C(=O)C([H])(N([H])C(=O)C([H])(N([H])C([H])([H])[H])C([H])([H])[H])C(C([H])([H])[H])(C([H])([H])[H])C([H])([H])[H])C([H])([H])c2c([H])c(Oc3c([H])c(C4(C([H])(N([H])C(=O)N5C([H])([H])C([H])([H])C([H])([H])C([H])(n6nc(-c7c([H])c([H])c(Oc8c([H])c([H])c(F)c([H])c8F)c([H])c7[H])c(C(=O)N([H])[H])c6N([H])[H])C5([H])[H])C([H])([H])[H])C([H])([H])C([H])([H])C([H])([N+]([H])([H])[H])C4([H])[H])c([H])c([H])c3C([H])([H])[H])c([H])c([H])c2C1([H])[H]

$$$$
2:0:0
     RDKit          3D

 92101  0  0  1  0  0  0  0  0999 V2000
  -28.6790  -20.4330   19.0270 C   0  0  0  0  0  2  0  0  0  0  0  0
  -29.5870  -20.5610   21.0190 C   0  0  0  0  0  2  0  0  0  0  0  0
  -30.8140  -22.6090   19.9180 C   0  0  0  0  0  2  0  0  0  0  0  0
  -29.7290  -19.2910   19.8330 C   0  0  0  0  0  3  0  0  0  0  0  0
  -28.7860  -22.2350   18.9170 C   0  0  0  0  0  3  0  0  0  0  0  0
  -28.4900  -23.4930   20.1030 C   0  0  0  0  0  3  0  0  0  0  0  0
  -29.6150  -22.3700   20.8580 C   0  0  1  0  0  0  0  0  0  0  0  0
  -30.2040  -22.4790   18.5970 N   0  0  0  0  0  4  0  0  0  0  0  0
  -30.6160  -21.7290   18.0640 H   0  0  0  0  0  0  0  0  0  0  0  0
  -30.3170  -23.3440   18.0890 H   0  0  0  0  0  0  0  0  0  0  0  0
  -30.4810  -15.9940   19.9260 C   0  0  0  0  0  0  0  0  0  0  0  0
  -30.6690  -13.3610   19.2150 C   0  0  0  0  0  2  0  0  0  0  0  0
  -29.7770  -12.7810   18.0730 C   0  0  0  0  0  2  0  0  0  0  0  0
  -28.3880  -12.3810   18.5890 C   0  0  0  0  0  2  0  0  0  0  0  0
  -27.8640  -13.4210   19.6020 C   0  0  0  0  0  3  0  0  0  0  0  0
  -28.9040  -13.8900   20.6520 C   0  0  0  0  0  2  0  0  0  0  0  0
  -30.0020  -14.5780   19.9140 N   0  0  0  0  0  0  0  0  0  0  0  0
  -31.7150  -15.8980   19.7420 O   0  0  0  0  0  0  0  0  0  0  0  0
  -29.7080  -17.4180   19.9620 N   0  0  0  0  0  0  0  0  0  0  0  0
  -28.7390  -17.1560   20.0950 H   0  0  0  0  0  0  0  0  0  0  0  0
  -25.5590  -13.9330   20.5160 C   0  0  0  0  0  0  0  0  0  0  0  0
  -24.5120  -13.1490   20.9070 C   0  0  0  0  0  0  0  0  0  0  0  0
  -24.9660  -11.7990   20.8060 C   0  0  0  0  0  0  0  0  0  0  0  0
  -26.5800  -13.0630   20.1870 N   0  0  0  0  0  0  0  0  0  0  0  0
  -26.2440  -11.7670   20.4300 N   0  0  0  0  0  0  0  0  0  0  0  0
  -24.2330  -10.5370   20.9890 C   0  0  0  0  0  0  0  0  0  0  0  0
  -24.6600   -9.5570   21.9120 C   0  0  0  0  0  3  0  0  0  0  0  0
  -23.9210   -8.3660   22.0870 C   0  0  0  0  0  3  0  0  0  0  0  0
  -22.7400   -8.1470   21.3390 C   0  0  0  0  0  0  0  0  0  0  0  0
  -22.3320   -9.1140   20.4040 C   0  0  0  0  0  3  0  0  0  0  0  0
  -23.0710  -10.2950   20.2270 C   0  0  0  0  0  3  0  0  0  0  0  0
  -21.9730   -7.0090   21.4210 O   0  0  0  0  0  0  0  0  0  0  0  0
  -21.8720   -6.2930   22.5870 C   0  0  0  0  0  0  0  0  0  0  0  0
  -21.3750   -6.8720   23.7750 C   0  0  0  0  0  3  0  0  0  0  0  0
  -21.2190   -6.0840   24.9330 C   0  0  0  0  0  3  0  0  0  0  0  0
  -21.5540   -4.7160   24.9040 C   0  0  0  0  0  0  0  0  0  0  0  0
  -22.0400   -4.1350   23.7200 C   0  0  0  0  0  3  0  0  0  0  0  0
  -22.1960   -4.9220   22.5640 C   0  0  0  0  0  0  0  0  0  0  0  0
  -22.6480   -4.3520   21.4200 F   0  0  0  0  0  0  0  0  0  0  0  0
  -21.3980   -3.9540   26.0130 F   0  0  0  0  0  0  0  0  0  0  0  0
  -23.1330  -13.6310   21.2500 C   0  0  0  0  0  0  0  0  0  0  0  0
  -22.4410  -12.9230   22.1320 N   0  0  0  0  0  0  0  0  0  0  0  0
  -22.6850  -14.6740   20.7740 O   0  0  0  0  0  0  0  0  0  0  0  0
  -22.8200  -12.0800   22.5390 H   0  0  0  0  0  0  0  0  0  0  0  0
  -21.5170  -13.2260   22.4090 H   0  0  0  0  0  0  0  0  0  0  0  0
  -25.7180  -15.3060   20.3730 N   0  0  0  0  0  0  0  0  0  0  0  0
  -24.9600  -15.9570   20.5440 H   0  0  0  0  0  0  0  0  0  0  0  0
  -26.5380  -15.7500   19.9810 H   0  0  0  0  0  0  0  0  0  0  0  0
  -28.5220  -25.3560   20.0300 O   0  0  0  0  0  0  0  0  0  0  0  0
  -25.0280  -31.7230   23.2520 C   0  0  0  0  0  0  0  0  0  0  0  0
  -27.5540  -26.6390   20.0540 C   0  0  0  0  0  0  0  0  0  0  0  0
  -23.8540  -30.4140   21.5370 C   0  0  0  0  0  3  0  0  0  0  0  0
  -25.3110  -28.7930   20.0700 C   0  0  0  0  0  0  0  0  0  0  0  0
  -26.4430  -30.4970   21.4670 C   0  0  0  0  0  2  0  0  0  0  0  0
  -26.5050  -29.0780   20.7420 C   0  0  0  0  0  0  0  0  0  0  0  0
  -27.6020  -28.0390   20.6930 C   0  0  0  0  0  3  0  0  0  0  0  0
  -26.3210  -26.6100   19.3380 C   0  0  0  0  0  3  0  0  0  0  0  0
  -25.2670  -27.5870   19.3440 C   0  0  0  0  0  3  0  0  0  0  0  0
  -24.1160  -29.7700   20.1410 C   0  0  0  0  0  2  0  0  0  0  0  0
  -25.1340  -30.9130   22.1380 N   0  0  0  0  0  0  0  0  0  0  0  0
  -23.9260  -32.0130   23.7570 O   0  0  0  0  0  0  0  0  0  0  0  0
  -23.1100  -29.4060   22.4570 C   0  0  0  0  0  0  0  0  0  0  0  0
  -21.7780  -29.2610   22.2960 N   0  0  0  0  0  0  0  0  0  0  0  0
  -23.7430  -28.7540   23.2890 O   0  0  0  0  0  0  0  0  0  0  0  0
  -21.3120  -29.8370   21.6080 H   0  0  0  0  0  0  0  0  0  0  0  0
  -18.3860  -27.9990   22.6770 C   0  0  0  0  0  0  0  0  0  0  0  0
  -20.9370  -28.2910   23.0120 C   0  0  0  0  0  3  0  0  0  0  0  0
  -21.0690  -26.8780   22.3940 C   0  0  0  0  0  2  0  0  0  0  0  0
  -19.9990  -26.5800   21.3390 C   0  0  0  0  0  2  0  0  0  0  0  0
  -18.5990  -26.6810   21.9500 C   0  0  0  0  0  2  0  0  0  0  0  0
  -19.4840  -28.7630   23.1610 C   0  0  0  0  0  0  0  0  0  0  0  0
  -19.2280  -29.9910   23.8060 C   0  0  0  0  0  3  0  0  0  0  0  0
  -17.9100  -30.4600   23.9680 C   0  0  0  0  0  3  0  0  0  0  0  0
  -16.8290  -29.6970   23.4950 C   0  0  0  0  0  3  0  0  0  0  0  0
  -17.0680  -28.4660   22.8560 C   0  0  0  0  0  3  0  0  0  0  0  0
  -26.2790  -32.3430   23.9450 C   0  0  0  0  0  3  0  0  0  0  0  0
  -25.9450  -33.7190   24.3700 N   0  0  0  0  0  0  0  0  0  0  0  0
  -26.2540  -34.8350   23.6990 C   0  0  0  0  0  0  0  0  0  0  0  0
  -26.9020  -34.8170   22.6490 O   0  0  0  0  0  0  0  0  0  0  0  0
  -25.3630  -33.8030   25.1910 H   0  0  0  0  0  0  0  0  0  0  0  0
  -24.4880  -36.6320   23.5570 C   0  0  0  0  0  1  0  0  0  0  0  0
  -25.7730  -36.1850   24.2750 C   0  0  0  0  0  3  0  0  0  0  0  0
  -27.9300  -37.0580   25.0690 C   0  0  0  0  0  1  0  0  0  0  0  0
  -26.7830  -37.2630   24.1870 N   0  0  0  0  0  0  0  0  0  0  0  0
  -26.3690  -38.1630   24.4110 H   0  0  0  0  0  0  0  0  0  0  0  0
  -26.7670  -31.5070   25.1950 C   0  0  1  0  0  0  0  0  0  0  0  0
  -25.6530  -31.2230   26.2320 C   0  0  0  0  0  1  0  0  0  0  0  0
  -27.3540  -30.1450   24.7630 C   0  0  0  0  0  1  0  0  0  0  0  0
  -27.9080  -32.2630   25.9180 C   0  0  0  0  0  1  0  0  0  0  0  0
  -29.9470  -22.9120   22.2640 C   0  0  0  0  0  2  0  0  0  0  0  0
  -28.9980  -22.4710   23.2240 O   0  0  0  0  0  0  0  0  0  0  0  0
  -29.4570  -22.3230   24.0490 H   0  0  0  0  0  0  0  0  0  0  0  0
  1  4  1  0
  3  7  1  0
  4 19  1  0
  4  2  1  0
  5  1  1  0
  5  6  1  0
  6 49  1  0
  6  7  1  0
  7  2  1  0
  7 90  1  1
  8  5  1  0
  8  3  1  0
  9  8  1  0
 10  8  1  0
 11 19  1  0
 12 17  1  0
 13 14  1  0
 13 12  1  0
 15 14  1  0
 15 24  1  0
 15 16  1  0
 17 11  1  0
 17 16  1  0
 18 11  2  0
 19 20  1  0
 21 22  2  0
 22 41  1  0
 23 22  1  0
 23 26  1  0
 24 25  1  0
 24 21  1  0
 25 23  2  0
 26 27  1  0
 27 28  2  0
 29 32  1  0
 29 28  1  0
 30 29  2  0
 31 30  1  0
 31 26  2  0
 32 33  1  0
 33 34  1  0
 34 35  2  0
 36 35  1  0
 36 40  1  0
 37 36  2  0
 38 33  2  0
 38 37  1  0
 39 38  1  0
 41 42  1  0
 42 45  1  0
 42 44  1  0
 43 41  2  0
 46 21  1  0
 46 47  1  0
 48 46  1  0
 49 51  1  0
 50 61  2  0
 51 56  1  0
 52 60  1  0
 52 62  1  0
 53 59  1  0
 53 55  1  0
 54 60  1  0
 55 54  1  0
 56 55  2  0
 57 58  1  0
 57 51  2  0
 58 53  2  0
 59 52  1  0
 60 50  1  0
 62 64  2  0
 63 62  1  0
 65 63  1  0
 66 75  2  0
 66 71  1  0
 67 63  1  0
 67 71  1  0
 68 67  1  0
 69 70  1  0
 69 68  1  0
 70 66  1  0
 71 72  2  0
 72 73  1  0
 74 73  2  0
 75 74  1  0
 76 50  1  0
 76 77  1  0
 76 86  1  0
 77 80  1  0
 78 82  1  0
 78 77  1  0
 79 78  2  0
 82 81  1  0
 84 82  1  0
 84 85  1  0
 84 83  1  0
 86 89  1  1
 86 87  1  0
 88 86  1  0
 90 91  1  0
 91 92  1  0
M  ISO  4   6 101  11 100  19 100  49 101
M  END
>  <TORSDO>  (3) 
F 18

>  <SCORE>  (3) 
-15.173

>  <name>  (3) 
2

>  <ligand_id>  (3) 
2

>  <original_smiles>  (3) 
[H]OC([H])([H])C12C([H])([H])C([H])(N([H])C(=O)N3C([H])([H])C([H])([H])C([H])([H])C([H])(n4nc(-c5c([H])c([H])c(Oc6c([H])c([H])c(F)c([H])c6F)c([H])c5[H])c(C(=O)N([H])[H])c4N([H])[H])C3([H])[H])C([H])([H])C([H])(C1([H])Oc1c([H])c([H])c3c(c1[H])C([H])([H])N(C(=O)C([H])(N([H])C(=O)C([H])(N([H])C([H])([H])[H])C([H])([H])[H])C(C([H])([H])[H])(C([H])([H])[H])C([H])([H])[H])C([H])(C(=O)N([H])C1([H])c4c([H])c([H])c([H])c([H])c4C([H])([H])C([H])([H])C1([H])[H])C3([H])[H])[N+]([H])([H])C2([H])[H]

>  <smiles>  (3) 
[H]OC([H])([H])C12C([H])([H])C([H])(N([H])C(=O)N3C([H])([H])C([H])([H])C([H])([H])C([H])(n4nc(-c5c([H])c([H])c(Oc6c([H])c([H])c(F)c([H])c6F)c([H])c5[H])c(C(=O)N([H])[H])c4N([H])[H])C3([H])[H])C([H])([H])C([H])(C1([H])Oc1c([H])c([H])c3c(c1[H])C([H])([H])N(C(=O)C([H])(N([H])C(=O)C([H])(N([H])C([H])([H])[H])C([H])([H])[H])C(C([H])([H])[H])(C([H])([H])[H])C([H])([H])[H])C([H])(C(=O)N([H])C1([H])c4c([H])c([H])c([H])c([H])c4C([H])([H])C([H])([H])C1([H])[H])C3([H])[H])[N+]([H])([H])C2([H])[H]

$$$$
3:0:0
     RDKit          3D

102104  0  0  1  0  0  0  0  0999 V2000
  -19.8940  -26.2240   23.1100 C   0  0  0  0  0  2  0  0  0  0  0  0
  -20.2500  -25.0130   22.1970 C   0  0  0  0  0  3  0  0  0  0  0  0
  -19.8870  -25.5420   24.3830 C   0  0  0  0  0  3  0  0  0  0  0  0
  -21.5570  -24.6600   22.3900 C   0  0  0  0  0  3  0  0  0  0  0  0
  -19.5160  -28.8180   22.6160 C   0  0  0  0  0  3  0  0  0  0  0  0
  -19.5960  -30.4810   23.9330 C   0  0  0  0  0 15  0  0  0  0  0  0
  -18.5640  -29.4830   25.2960 C   0  0  0  0  0  2  0  0  0  0  0  0
  -20.6260  -30.1400   22.2570 C   0  0  0  0  0  1  0  0  0  0  0  0
  -19.1000  -26.2370   25.8060 C   0  0  0  0  0  3  0  0  0  0  0  0
  -20.0650  -25.6410   26.9540 C   0  0  0  0  0  1  0  0  0  0  0  0
  -17.9690  -25.1140   25.9980 C   0  0  0  0  0  1  0  0  0  0  0  0
  -21.4450  -24.5620   24.2080 S   0  0  0  0  0  0  0  0  0  0  0  0
  -22.7410  -24.2940   21.2650 C   0  0  0  0  0  2  0  0  0  0  0  0
  -22.8820  -24.8280   19.6340 C   0  0  0  0  0  3  0  0  0  0  0  0
  -24.2760  -25.0820   18.6640 C   0  0  0  0  0  3  0  0  0  0  0  0
  -24.3560  -25.6430   17.0430 C   0  0  0  0  0  3  0  0  0  0  0  0
  -25.7200  -26.1670   16.1270 C   0  0  0  0  0  3  0  0  0  0  0  0
  -25.7950  -26.5920   14.4600 C   0  0  0  0  0  2  0  0  0  0  0  0
  -27.0340  -27.3470   13.5110 C   0  0  0  0  0  3  0  0  0  0  0  0
  -27.2940  -27.1300   11.8260 C   0  0  0  0  0  3  0  0  0  0  0  0
  -28.0900  -27.9280   10.5260 C   0  0  0  0  0  0  0  0  0  0  0  0
  -27.9400  -28.3160    7.9640 C   0  0  0  0  0  2  0  0  0  0  0  0
  -26.5590  -28.9240    7.5860 C   0  0  0  0  0  2  0  0  0  0  0  0
  -25.4250  -27.8720    7.6090 C   0  0  0  0  0  2  0  0  0  0  0  0
  -25.5320  -26.9660    8.8540 C   0  0  0  0  0  3  0  0  0  0  0  0
  -26.9480  -26.3840    8.9720 C   0  0  0  0  0  2  0  0  0  0  0  0
  -27.8080  -27.5240    9.2280 N   0  0  0  0  0  0  0  0  0  0  0  0
  -28.8830  -28.8900   10.6160 O   0  0  0  0  0  0  0  0  0  0  0  0
  -23.6220  -25.6150    9.8770 C   0  0  0  0  0  0  0  0  0  0  0  0
  -22.9310  -24.5290    9.4130 C   0  0  0  0  0  0  0  0  0  0  0  0
  -23.5080  -24.2060    8.1480 C   0  0  0  0  0  0  0  0  0  0  0  0
  -24.5550  -25.9000    8.8930 N   0  0  0  0  0  0  0  0  0  0  0  0
  -24.5280  -25.0060    7.8800 N   0  0  0  0  0  0  0  0  0  0  0  0
  -23.1090  -23.2240    7.1380 C   0  0  0  0  0  0  0  0  0  0  0  0
  -24.0390  -22.3230    6.5750 C   0  0  0  0  0  3  0  0  0  0  0  0
  -23.6210  -21.3790    5.6140 C   0  0  0  0  0  3  0  0  0  0  0  0
  -22.2660  -21.3310    5.2110 C   0  0  0  0  0  0  0  0  0  0  0  0
  -21.3520  -22.2480    5.7570 C   0  0  0  0  0  3  0  0  0  0  0  0
  -21.7680  -23.1910    6.7090 C   0  0  0  0  0  3  0  0  0  0  0  0
  -21.7750  -20.4650    4.2650 O   0  0  0  0  0  0  0  0  0  0  0  0
  -22.3930  -19.2710    3.9950 C   0  0  0  0  0  0  0  0  0  0  0  0
  -22.7750  -18.3800    5.0220 C   0  0  0  0  0  3  0  0  0  0  0  0
  -23.3450  -17.1340    4.6960 C   0  0  0  0  0  3  0  0  0  0  0  0
  -23.5250  -16.7710    3.3480 C   0  0  0  0  0  0  0  0  0  0  0  0
  -23.1410  -17.6550    2.3240 C   0  0  0  0  0  3  0  0  0  0  0  0
  -22.5740  -18.9000    2.6480 C   0  0  0  0  0  0  0  0  0  0  0  0
  -22.1860  -19.7400    1.6580 F   0  0  0  0  0  0  0  0  0  0  0  0
  -24.0650  -15.5700    3.0340 F   0  0  0  0  0  0  0  0  0  0  0  0
  -21.7390  -23.8920   10.0620 C   0  0  0  0  0  0  0  0  0  0  0  0
  -21.5650  -22.5900    9.8650 N   0  0  0  0  0  0  0  0  0  0  0  0
  -20.9820  -24.5370   10.7850 O   0  0  0  0  0  0  0  0  0  0  0  0
  -22.2030  -22.0650    9.2860 H   0  0  0  0  0  0  0  0  0  0  0  0
  -20.7890  -22.1110   10.3010 H   0  0  0  0  0  0  0  0  0  0  0  0
  -23.5220  -26.3910   11.0260 N   0  0  0  0  0  0  0  0  0  0  0  0
  -22.8070  -26.2360   11.7270 H   0  0  0  0  0  0  0  0  0  0  0  0
  -24.0580  -27.2340   11.1840 H   0  0  0  0  0  0  0  0  0  0  0  0
  -19.7300  -24.3200   20.9260 C   0  0  0  0  0  2  0  0  0  0  0  0
  -18.2260  -24.0450   20.6980 C   0  0  0  0  0  2  0  0  0  0  0  0
  -17.9050  -23.8790   19.1900 C   0  0  0  0  0  2  0  0  0  0  0  0
  -16.7530  -24.9800   17.1760 C   0  0  0  0  0  1  0  0  0  0  0  0
  -16.7570  -24.7850   18.6990 C   0  0  0  0  0  2  0  0  0  0  0  0
  -22.4300  -30.2050   21.3510 O   0  0  0  0  0  1  0  0  0  0  0  0
  -25.1030  -29.6000   25.5670 C   0  0  0  0  0  0  0  0  0  0  0  0
  -23.5350  -30.9570   20.5830 C   0  0  0  0  0  3  0  0  0  0  0  0
  -23.1240  -30.3840   24.4750 C   0  0  0  0  0  3  0  0  0  0  0  0
  -23.3140  -32.2520   22.6300 C   0  0  0  0  0  3  0  0  0  0  0  0
  -25.3470  -31.3170   23.7500 C   0  0  0  0  0  2  0  0  0  0  0  0
  -24.5820  -31.6800   22.4920 C   0  0  0  0  0  3  0  0  0  0  0  0
  -24.8160  -31.1220   21.2330 C   0  0  0  0  0  2  0  0  0  0  0  0
  -23.0710  -32.1900   20.2010 C   0  0  0  0  0  2  0  0  0  0  0  0
  -22.6160  -32.6690   21.4380 C   0  0  0  0  0  2  0  0  0  0  0  0
  -22.6350  -31.8040   23.8920 C   0  0  0  0  0  2  0  0  0  0  0  0
  -24.5700  -30.4470   24.6600 N   0  0  0  0  0  0  0  0  0  0  0  0
  -24.3980  -28.8840   26.2990 O   0  0  0  0  0  0  0  0  0  0  0  0
  -22.9030  -28.9860   23.7460 C   0  0  0  0  0  0  0  0  0  0  0  0
  -21.7240  -28.4770   23.6100 N   0  0  0  0  0  0  0  0  0  0  0  0
  -23.7870  -28.3100   23.2570 O   0  0  0  0  0  0  0  0  0  0  0  0
  -20.9820  -28.9070   24.1490 H   0  0  0  0  0  0  0  0  0  0  0  0
  -18.3510  -29.1070   21.6770 C   0  0  0  0  0  0  0  0  0  0  0  0
  -21.2110  -27.7000   22.4830 C   0  0  0  0  0  2  0  0  0  0  0  0
  -21.7610  -27.7830   20.4710 C   0  0  0  0  0 15  0  0  0  0  0  0
  -20.3530  -28.6460   19.1310 C   0  0  0  0  0 15  0  0  0  0  0  0
  -18.6060  -29.2120   19.9040 C   0  0  0  0  0  1  0  0  0  0  0  0
  -19.6870  -28.3390   22.9530 C   0  0  0  0  0  2  0  0  0  0  0  0
  -19.1550  -28.2990   24.5320 C   0  0  0  0  0  1  0  0  0  0  0  0
  -17.6890  -28.8200   24.8970 C   0  0  0  0  0  2  0  0  0  0  0  0
  -16.6750  -29.4030   23.8670 C   0  0  0  0  0  2  0  0  0  0  0  0
  -16.9540  -29.5670   22.3350 C   0  0  0  0  0  3  0  0  0  0  0  0
  -26.6300  -29.5170   25.7210 C   0  0  0  0  0  3  0  0  0  0  0  0
  -27.2610  -28.3720   24.8510 C   0  0  1  0  0  0  0  0  0  0  0  0
  -26.5790  -26.9930   25.0150 C   0  0  0  0  0  1  0  0  0  0  0  0
  -27.2400  -28.7290   23.3480 C   0  0  0  0  0  1  0  0  0  0  0  0
  -28.7490  -28.2220   25.2360 C   0  0  0  0  0  1  0  0  0  0  0  0
  -26.8620  -29.3040   27.1470 N   0  0  0  0  0  0  0  0  0  0  0  0
  -27.1290  -30.2860   28.0150 C   0  0  0  0  0  0  0  0  0  0  0  0
  -27.3050  -31.4570   27.6650 O   0  0  0  0  0  0  0  0  0  0  0  0
  -26.6840  -28.3760   27.5060 H   0  0  0  0  0  0  0  0  0  0  0  0
  -25.9680  -30.3490   30.2440 C   0  0  0  0  0  1  0  0  0  0  0  0
  -27.2370  -29.9030   29.5000 C   0  0  0  0  0  3  0  0  0  0  0  0
  -29.6850  -29.9080   29.6580 C   0  0  0  0  0  1  0  0  0  0  0  0
  -28.4330  -30.4700   30.1590 N   0  0  0  0  0  0  0  0  0  0  0  0
  -28.3990  -30.3120   31.1630 H   0  0  0  0  0  0  0  0  0  0  0  0
  1  3  1  0
  2 57  1  0
  2  4  1  0
  2  1  1  0
  3  9  1  0
  4 13  1  0
  4 12  1  0
  5  8  1  0
  5 84  1  0
  9 11  1  0
  9 10  1  0
 12  3  1  0
 14 13  1  0
 15 14  2  0
 16 15  1  0
 17 16  2  0
 18 17  1  0
 19 18  1  0
 20 19  2  0
 21 28  2  0
 21 20  1  0
 22 27  1  0
 23 24  1  0
 23 22  1  0
 25 24  1  0
 25 32  1  0
 25 26  1  0
 26 27  1  0
 27 21  1  0
 29 54  1  0
 30 29  2  0
 30 49  1  0
 31 30  1  0
 32 29  1  0
 33 31  2  0
 33 32  1  0
 34 31  1  0
 35 34  2  0
 36 35  1  0
 37 36  2  0
 37 38  1  0
 38 39  2  0
 39 34  1  0
 40 37  1  0
 41 40  1  0
 41 42  1  0
 43 42  2  0
 44 43  1  0
 45 46  1  0
 45 44  2  0
 46 41  2  0
 47 46  1  0
 48 44  1  0
 49 51  2  0
 50 49  1  0
 50 53  1  0
 52 50  1  0
 54 56  1  0
 54 55  1  0
 58 57  1  0
 59 58  1  0
 60 61  1  0
 61 59  1  0
 63 74  2  0
 64 69  1  0
 64 62  1  0
 65 75  1  0
 65 73  1  0
 66 71  1  0
 66 72  1  0
 67 73  1  0
 68 69  1  0
 68 66  1  0
 68 67  1  0
 70 64  1  0
 70 71  1  0
 72 65  1  0
 73 63  1  0
 76 75  1  0
 76 78  1  0
 77 75  2  0
 79 88  2  0
 79  5  1  0
 80 84  1  0
 80 76  1  0
 83 79  1  0
 85  7  1  0
 86  7  1  0
 87 86  1  0
 88 87  1  0
 89 63  1  0
 89 94  1  0
 90 91  1  6
 90 93  1  0
 90 89  1  0
 92 90  1  0
 94 97  1  0
 94 95  1  0
 95 99  1  0
 96 95  2  0
 99101  1  0
 99 98  1  0
100101  1  0
101102  1  0
M  ISO  4   8 101  20 100  21 100  62 101
M  END
>  <TORSDO>  (4) 
F 28

>  <SCORE>  (4) 
44.283

>  <name>  (4) 
3

>  <ligand_id>  (4) 
3

>  <original_smiles>  (4) 
[H]c1c([H])c([H])c2c(c1[H])C([H])([H])C([H])([H])C([H])([H])C2([H])N([H])C(=O)C1([H])N(C(=O)C([H])(N([H])C(=O)C([H])(N([H])C([H])([H])[H])C([H])([H])[H])C(C([H])([H])[H])(C([H])([H])[H])C([H])([H])[H])C([H])([H])c2c([H])c(OC3([H])C([H])([H])c4c(sc(C([H])([H])C([H])([H])C([H])([H])C([H])([H])C([H])([H])C([H])([H])C([H])([H])C([H])([H])C(=O)N5C([H])([H])C([H])([H])C([H])([H])C([H])(n6nc(-c7c([H])c([H])c(Oc8c([H])c([H])c(F)c([H])c8F)c([H])c7[H])c(C(=O)N([H])[H])c6N([H])[H])C5([H])[H])c4C([H])([H])C([H])([H])C([H])([H])C([H])([H])C([H])([H])[H])C(C([H])([H])[H])(C([H])([H])[H])C([H])([H])C3([H])[H])c([H])c([H])c2C1([H])[H]

>  <smiles>  (4) 
[H]c1c([H])c([H])c2c(c1[H])C([H])([H])C([H])([H])C([H])([H])C2([H])N([H])C(=O)C1([H])N(C(=O)C([H])(N([H])C(=O)C([H])(N([H])C([H])([H])[H])C([H])([H])[H])C(C([H])([H])[H])(C([H])([H])[H])C([H])([H])[H])C([H])([H])c2c([H])c(OC3([H])C([H])([H])c4c(sc(C([H])([H])C([H])([H])C([H])([H])C([H])([H])C([H])([H])C([H])([H])C([H])([H])C([H])([H])C(=O)N5C([H])([H])C([H])([H])C([H])([H])C([H])(n6nc(-c7c([H])c([H])c(Oc8c([H])c([H])c(F)c([H])c8F)c([H])c7[H])c(C(=O)N([H])[H])c6N([H])[H])C5([H])[H])c4C([H])([H])C([H])([H])C([H])([H])C([H])([H])C([H])([H])[H])C(C([H])([H])[H])(C([H])([H])[H])C([H])([H])C3([H])[H])c([H])c([H])c2C1([H])[H]

$$$$
4:0:0
     RDKit          3D

 95104  0  0  1  0  0  0  0  0999 V2000
  -28.4740  -20.9190   19.4530 C   0  0  0  0  0  3  0  0  0  0  0  0
  -30.1480  -21.3770   21.0310 C   0  0  0  0  0  3  0  0  0  0  0  0
  -27.9770  -22.2700   19.5010 C   0  0  0  0  0  0  0  0  0  0  0  0
  -28.5730  -23.2960   20.3600 C   0  0  0  0  0  0  0  0  0  0  0  0
  -29.5280  -20.3820   20.2220 C   0  0  0  0  0  0  0  0  0  0  0  0
  -29.7070  -22.7610   21.0920 C   0  0  0  0  0  0  0  0  0  0  0  0
  -25.5110  -24.0010   20.1520 C   0  0  0  0  0  0  0  0  0  0  0  0
  -26.4470  -24.5490   21.2220 C   0  0  0  0  0  2  0  0  0  0  0  0
  -26.0880  -23.8050   18.7490 C   0  0  0  0  0  2  0  0  0  0  0  0
  -27.9050  -24.7700   20.7480 C   0  0  0  0  0  3  0  0  0  0  0  0
  -26.7840  -22.4790   18.5370 C   0  0  1  0  0  0  0  0  0  0  0  0
  -30.5080  -23.6750   22.0070 C   0  0  0  0  0  1  0  0  0  0  0  0
  -27.3230  -22.4980   17.0890 C   0  0  0  0  0  1  0  0  0  0  0  0
  -25.7140  -21.3540   18.6400 C   0  0  0  0  0  1  0  0  0  0  0  0
  -24.3290  -23.7500   20.4030 O   0  0  0  0  0  0  0  0  0  0  0  0
  -28.1910  -26.1650   20.1200 O   0  0  0  0  0  0  0  0  0  0  0  0
  -24.6370  -31.8570   23.2080 C   0  0  0  0  0  0  0  0  0  0  0  0
  -27.1910  -27.2000   20.1150 C   0  0  0  0  0  0  0  0  0  0  0  0
  -23.4370  -30.4880   21.5540 C   0  0  0  0  0  3  0  0  0  0  0  0
  -24.8840  -28.9530   20.1160 C   0  0  0  0  0  0  0  0  0  0  0  0
  -25.9960  -30.7380   21.4200 C   0  0  0  0  0  2  0  0  0  0  0  0
  -26.0600  -29.3590   20.7620 C   0  0  0  0  0  0  0  0  0  0  0  0
  -27.2110  -28.4860   20.7800 C   0  0  0  0  0  3  0  0  0  0  0  0
  -26.0350  -26.9800   19.3380 C   0  0  0  0  0  3  0  0  0  0  0  0
  -24.8790  -27.7640   19.3940 C   0  0  0  0  0  3  0  0  0  0  0  0
  -23.6600  -29.8430   20.1670 C   0  0  0  0  0  2  0  0  0  0  0  0
  -24.7090  -31.0460   22.1140 N   0  0  0  0  0  0  0  0  0  0  0  0
  -23.5500  -32.1450   23.7300 O   0  0  0  0  0  0  0  0  0  0  0  0
  -22.7540  -29.4620   22.4920 C   0  0  0  0  0  0  0  0  0  0  0  0
  -21.4240  -29.3060   22.3640 N   0  0  0  0  0  0  0  0  0  0  0  0
  -23.4200  -28.8110   23.3010 O   0  0  0  0  0  0  0  0  0  0  0  0
  -20.9440  -29.8800   21.6860 H   0  0  0  0  0  0  0  0  0  0  0  0
  -18.0300  -28.1400   22.8480 C   0  0  0  0  0  0  0  0  0  0  0  0
  -20.5910  -28.3720   23.1240 C   0  0  0  0  0  3  0  0  0  0  0  0
  -20.6790  -26.9430   22.5390 C   0  0  0  0  0  2  0  0  0  0  0  0
  -19.5750  -26.6390   21.5210 C   0  0  0  0  0  2  0  0  0  0  0  0
  -18.1940  -26.7940   22.1630 C   0  0  0  0  0  2  0  0  0  0  0  0
  -19.1550  -28.8880   23.2860 C   0  0  0  0  0  0  0  0  0  0  0  0
  -18.9470  -30.1470   23.8880 C   0  0  0  0  0  3  0  0  0  0  0  0
  -17.6460  -30.6600   24.0560 C   0  0  0  0  0  3  0  0  0  0  0  0
  -16.5350  -29.9090   23.6340 C   0  0  0  0  0  3  0  0  0  0  0  0
  -16.7280  -28.6510   23.0360 C   0  0  0  0  0  3  0  0  0  0  0  0
  -25.9190  -32.4770   23.8420 C   0  0  0  0  0  3  0  0  0  0  0  0
  -26.4520  -31.6600   25.0820 C   0  0  1  0  0  0  0  0  0  0  0  0
  -25.3720  -31.3760   26.1510 C   0  0  0  0  0  1  0  0  0  0  0  0
  -27.0390  -30.3000   24.6400 C   0  0  0  0  0  1  0  0  0  0  0  0
  -27.6070  -32.4350   25.7590 C   0  0  0  0  0  1  0  0  0  0  0  0
  -25.5980  -33.8580   24.2310 N   0  0  0  0  0  0  0  0  0  0  0  0
  -25.9070  -34.9440   23.5110 C   0  0  0  0  0  0  0  0  0  0  0  0
  -26.5620  -34.8890   22.4670 O   0  0  0  0  0  0  0  0  0  0  0  0
  -25.0120  -33.9750   25.0450 H   0  0  0  0  0  0  0  0  0  0  0  0
  -24.1490  -36.7270   23.2640 C   0  0  0  0  0  1  0  0  0  0  0  0
  -25.4120  -36.3070   24.0330 C   0  0  0  0  0  3  0  0  0  0  0  0
  -27.5590  -37.1780   24.8460 C   0  0  0  0  0  1  0  0  0  0  0  0
  -26.4290  -37.3780   23.9420 N   0  0  0  0  0  0  0  0  0  0  0  0
  -26.0160  -38.2840   24.1460 H   0  0  0  0  0  0  0  0  0  0  0  0
  -30.0140  -18.8660   19.9330 C   0  0  0  0  0  2  0  0  0  0  0  0
  -30.1400  -17.6400   20.9910 C   0  0  0  0  0  2  0  0  0  0  0  0
  -29.6480  -16.1150   20.6320 C   0  0  0  0  0  2  0  0  0  0  0  0
  -30.5640  -14.7870   20.4680 C   0  0  0  0  0  0  0  0  0  0  0  0
  -30.4520  -12.4770   19.4840 C   0  0  0  0  0  2  0  0  0  0  0  0
  -29.5240  -12.5280   18.2450 C   0  0  0  0  0  2  0  0  0  0  0  0
  -28.0460  -12.3460   18.6460 C   0  0  0  0  0  2  0  0  0  0  0  0
  -27.6480  -13.2320   19.8550 C   0  0  0  0  0  3  0  0  0  0  0  0
  -28.6910  -13.1470   20.9880 C   0  0  0  0  0  2  0  0  0  0  0  0
  -29.9980  -13.5240   20.4310 N   0  0  0  0  0  0  0  0  0  0  0  0
  -31.7530  -14.9150   20.1640 O   0  0  0  0  0  0  0  0  0  0  0  0
  -25.2540  -13.8190   20.5700 C   0  0  0  0  0  0  0  0  0  0  0  0
  -24.1830  -13.0440   20.9200 C   0  0  0  0  0  0  0  0  0  0  0  0
  -24.6420  -11.6920   20.8750 C   0  0  0  0  0  0  0  0  0  0  0  0
  -26.2970  -12.9400   20.3270 N   0  0  0  0  0  0  0  0  0  0  0  0
  -25.9340  -11.6550   20.5720 N   0  0  0  0  0  0  0  0  0  0  0  0
  -23.9100  -10.4300   21.0440 C   0  0  0  0  0  0  0  0  0  0  0  0
  -24.3640   -9.4210   21.9210 C   0  0  0  0  0  3  0  0  0  0  0  0
  -23.6310   -8.2250   22.0780 C   0  0  0  0  0  3  0  0  0  0  0  0
  -22.4290   -8.0290   21.3560 C   0  0  0  0  0  0  0  0  0  0  0  0
  -21.9940   -9.0260   20.4650 C   0  0  0  0  0  3  0  0  0  0  0  0
  -22.7280  -10.2150   20.3080 C   0  0  0  0  0  3  0  0  0  0  0  0
  -21.6650   -6.8890   21.4250 O   0  0  0  0  0  0  0  0  0  0  0  0
  -21.6840   -6.0740   22.5280 C   0  0  0  0  0  0  0  0  0  0  0  0
  -21.4010   -6.5650   23.8210 C   0  0  0  0  0  3  0  0  0  0  0  0
  -21.3670   -5.6810   24.9180 C   0  0  0  0  0  3  0  0  0  0  0  0
  -21.6050   -4.3070   24.7230 C   0  0  0  0  0  0  0  0  0  0  0  0
  -21.8830   -3.8160   23.4350 C   0  0  0  0  0  3  0  0  0  0  0  0
  -21.9190   -4.6970   22.3400 C   0  0  0  0  0  0  0  0  0  0  0  0
  -22.1670   -4.2150   21.0980 F   0  0  0  0  0  0  0  0  0  0  0  0
  -21.5630   -3.4560   25.7740 F   0  0  0  0  0  0  0  0  0  0  0  0
  -22.7840  -13.5200   21.1870 C   0  0  0  0  0  0  0  0  0  0  0  0
  -22.0500  -12.8170   22.0420 N   0  0  0  0  0  0  0  0  0  0  0  0
  -22.3510  -14.5510   20.6740 O   0  0  0  0  0  0  0  0  0  0  0  0
  -22.4110  -11.9800   22.4730 H   0  0  0  0  0  0  0  0  0  0  0  0
  -21.1110  -13.1160   22.2670 H   0  0  0  0  0  0  0  0  0  0  0  0
  -25.4270  -15.1910   20.4150 N   0  0  0  0  0  0  0  0  0  0  0  0
  -24.6720  -15.8550   20.5420 H   0  0  0  0  0  0  0  0  0  0  0  0
  -26.2850  -15.6270   20.1040 H   0  0  0  0  0  0  0  0  0  0  0  0
  1  3  2  0
  1  5  1  0
  2  6  1  0
  3  4  1  0
  4 10  1  0
  4  6  2  0
  5  2  2  0
  6 12  1  0
  7 15  2  0
  7  8  1  0
  9  7  1  0
 10 16  1  0
 10  8  1  0
 11 14  1  6
 11  9  1  0
 11  3  1  0
 13 11  1  0
 17 28  2  0
 18 16  1  0
 18 23  1  0
 19 27  1  0
 19 29  1  0
 20 26  1  0
 20 22  1  0
 21 27  1  0
 22 23  2  0
 22 21  1  0
 24 25  1  0
 24 18  2  0
 25 20  2  0
 26 19  1  0
 27 17  1  0
 29 31  2  0
 30 29  1  0
 32 30  1  0
 33 42  2  0
 33 38  1  0
 34 30  1  0
 34 38  1  0
 35 34  1  0
 36 37  1  0
 36 35  1  0
 37 33  1  0
 38 39  2  0
 39 40  1  0
 41 40  2  0
 42 41  1  0
 43 17  1  0
 43 48  1  0
 43 44  1  0
 44 47  1  1
 44 45  1  0
 46 44  1  0
 48 51  1  0
 49 53  1  0
 49 48  1  0
 50 49  2  0
 53 52  1  0
 55 53  1  0
 55 56  1  0
 55 54  1  0
 57  5  1  0
 57 58  1  0
 59 58  1  0
 60 59  1  0
 61 66  1  0
 62 63  1  0
 62 61  1  0
 64 63  1  0
 64 71  1  0
 64 65  1  0
 66 60  1  0
 66 65  1  0
 67 60  2  0
 68 69  2  0
 69 88  1  0
 70 69  1  0
 70 73  1  0
 71 68  1  0
 71 72  1  0
 72 70  2  0
 73 74  1  0
 74 75  2  0
 76 79  1  0
 76 75  1  0
 77 76  2  0
 78 77  1  0
 78 73  2  0
 79 80  1  0
 80 81  1  0
 81 82  2  0
 83 82  1  0
 83 87  1  0
 84 83  2  0
 85 80  2  0
 85 84  1  0
 86 85  1  0
 88 89  1  0
 89 92  1  0
 89 91  1  0
 90 88  2  0
 93 94  1  0
 93 68  1  0
 95 93  1  0
M  ISO  4  10 101  16 101  59 100  60 100
M  END
>  <TORSDO>  (5) 
F 19

>  <SCORE>  (5) 
-13.822

>  <name>  (5) 
4

>  <ligand_id>  (5) 
4

>  <original_smiles>  (5) 
[H]c1c([H])c([H])c2c(c1[H])C([H])([H])C([H])([H])C([H])([H])C2([H])N([H])C(=O)C1([H])N(C(=O)C([H])(N([H])C(=O)C([H])(N([H])C([H])([H])[H])C([H])([H])[H])C(C([H])([H])[H])(C([H])([H])[H])C([H])([H])[H])C([H])([H])c2c([H])c(OC3([H])c4c(C([H])([H])[H])c([H])c(C([H])([H])C([H])([H])C([H])([H])C(=O)N5C([H])([H])C([H])([H])C([H])([H])C([H])(n6nc(-c7c([H])c([H])c(Oc8c([H])c([H])c(F)c([H])c8F)c([H])c7[H])c(C(=O)N([H])[H])c6N([H])[H])C5([H])[H])c([H])c4C(C([H])([H])[H])(C([H])([H])[H])C([H])([H])C(=O)C3([H])[H])c([H])c([H])c2C1([H])[H]

>  <smiles>  (5) 
[H]c1c([H])c([H])c2c(c1[H])C([H])([H])C([H])([H])C([H])([H])C2([H])N([H])C(=O)C1([H])N(C(=O)C([H])(N([H])C(=O)C([H])(N([H])C([H])([H])[H])C([H])([H])[H])C(C([H])([H])[H])(C([H])([H])[H])C([H])([H])[H])C([H])([H])c2c([H])c(OC3([H])c4c(C([H])([H])[H])c([H])c(C([H])([H])C([H])([H])C([H])([H])C(=O)N5C([H])([H])C([H])([H])C([H])([H])C([H])(n6nc(-c7c([H])c([H])c(Oc8c([H])c([H])c(F)c([H])c8F)c([H])c7[H])c(C(=O)N([H])[H])c6N([H])[H])C5([H])[H])c([H])c4C(C([H])([H])[H])(C([H])([H])[H])C([H])([H])C(=O)C3([H])[H])c([H])c([H])c2C1([H])[H]

$$$$
5:0:0
     RDKit          3D

 99108  0  0  1  0  0  0  0  0999 V2000
  -30.4810  -18.9040   17.8710 C   0  0  0  0  0  0  0  0  0  0  0  0
  -30.3700  -20.3450   18.4130 C   0  0  0  0  0  2  0  0  0  0  0  0
  -31.1050  -17.7840   18.7420 C   0  0  0  0  0  2  0  0  0  0  0  0
  -29.3960  -18.8740   20.4060 C   0  0  0  0  0  2  0  0  0  0  0  0
  -29.3060  -20.4380   19.5210 C   0  0  0  0  0  3  0  0  0  0  0  0
  -30.6430  -17.6040   20.2460 C   0  0  1  0  0  0  0  0  0  0  0  0
  -30.0570  -18.6410   16.7420 O   0  0  0  0  0  0  0  0  0  0  0  0
  -30.9480  -15.8330   20.4610 C   0  0  0  0  0  0  0  0  0  0  0  0
  -30.9240  -13.2740   20.0080 C   0  0  0  0  0  2  0  0  0  0  0  0
  -30.1710  -12.8700   18.7200 C   0  0  0  0  0  2  0  0  0  0  0  0
  -28.7020  -12.5960   19.0560 C   0  0  0  0  0  2  0  0  0  0  0  0
  -28.1050  -13.7040   19.9570 C   0  0  0  0  0  3  0  0  0  0  0  0
  -29.0170  -14.1240   21.1350 C   0  0  0  0  0  2  0  0  0  0  0  0
  -30.3080  -14.5550   20.5670 N   0  0  0  0  0  0  0  0  0  0  0  0
  -32.1680  -15.6100   20.3920 O   0  0  0  0  0  0  0  0  0  0  0  0
  -25.7030  -14.2780   20.5590 C   0  0  0  0  0  0  0  0  0  0  0  0
  -24.6110  -13.5100   20.8460 C   0  0  0  0  0  0  0  0  0  0  0  0
  -25.0620  -12.1530   20.8400 C   0  0  0  0  0  0  0  0  0  0  0  0
  -26.7490  -13.3920   20.3810 N   0  0  0  0  0  0  0  0  0  0  0  0
  -26.3730  -12.1100   20.6270 N   0  0  0  0  0  0  0  0  0  0  0  0
  -24.3070  -10.8980   20.9690 C   0  0  0  0  0  0  0  0  0  0  0  0
  -24.6640   -9.9120   21.9160 C   0  0  0  0  0  3  0  0  0  0  0  0
  -23.9070   -8.7270   22.0350 C   0  0  0  0  0  3  0  0  0  0  0  0
  -22.7790   -8.5170   21.2070 C   0  0  0  0  0  0  0  0  0  0  0  0
  -22.4410   -9.4920   20.2520 C   0  0  0  0  0  3  0  0  0  0  0  0
  -23.1990  -10.6680   20.1300 C   0  0  0  0  0  3  0  0  0  0  0  0
  -21.9970   -7.3860   21.2360 O   0  0  0  0  0  0  0  0  0  0  0  0
  -21.8630   -6.6350   22.3760 C   0  0  0  0  0  0  0  0  0  0  0  0
  -21.3630   -7.1860   23.5770 C   0  0  0  0  0  3  0  0  0  0  0  0
  -21.1730   -6.3610   24.7030 C   0  0  0  0  0  3  0  0  0  0  0  0
  -21.4740   -4.9860   24.6300 C   0  0  0  0  0  0  0  0  0  0  0  0
  -21.9650   -4.4370   23.4340 C   0  0  0  0  0  3  0  0  0  0  0  0
  -22.1570   -5.2590   22.3090 C   0  0  0  0  0  0  0  0  0  0  0  0
  -22.6100   -4.7210   21.1520 F   0  0  0  0  0  0  0  0  0  0  0  0
  -21.2870   -4.1900   25.7090 F   0  0  0  0  0  0  0  0  0  0  0  0
  -23.2040  -14.0010   21.0100 C   0  0  0  0  0  0  0  0  0  0  0  0
  -22.4060  -13.3160   21.8210 N   0  0  0  0  0  0  0  0  0  0  0  0
  -22.8180  -15.0290   20.4530 O   0  0  0  0  0  0  0  0  0  0  0  0
  -22.7310  -12.4860   22.2960 H   0  0  0  0  0  0  0  0  0  0  0  0
  -21.4580  -13.6290   21.9740 H   0  0  0  0  0  0  0  0  0  0  0  0
  -25.8990  -15.6460   20.4020 N   0  0  0  0  0  0  0  0  0  0  0  0
  -25.1390  -16.3140   20.4690 H   0  0  0  0  0  0  0  0  0  0  0  0
  -26.7800  -16.0730   20.1440 H   0  0  0  0  0  0  0  0  0  0  0  0
  -28.8070  -22.3880   21.3050 C   0  0  0  0  0  3  0  0  0  0  0  0
  -28.4810  -23.3370   19.1160 C   0  0  0  0  0  3  0  0  0  0  0  0
  -28.8780  -22.0870   19.9340 C   0  0  0  0  0  0  0  0  0  0  0  0
  -28.4310  -23.6610   21.8260 C   0  0  0  0  0  0  0  0  0  0  0  0
  -28.0910  -24.7980   21.0100 C   0  0  0  0  0  0  0  0  0  0  0  0
  -28.0460  -24.7440   19.5840 C   0  0  0  0  0  0  0  0  0  0  0  0
  -28.4200  -23.7720   23.3470 C   0  0  0  0  0  1  0  0  0  0  0  0
  -27.7950  -26.1360   21.6900 C   0  0  0  0  0  1  0  0  0  0  0  0
  -27.7580  -26.0630   18.8370 O   0  0  0  0  0  0  0  0  0  0  0  0
  -24.6050  -31.7100   22.7790 C   0  0  0  0  0  0  0  0  0  0  0  0
  -26.7500  -27.1370   19.0700 C   0  0  0  0  0  0  0  0  0  0  0  0
  -23.2110  -30.4390   21.1940 C   0  0  0  0  0  3  0  0  0  0  0  0
  -24.4660  -28.9810   19.4700 C   0  0  0  0  0  0  0  0  0  0  0  0
  -25.7370  -30.7040   20.7310 C   0  0  0  0  0  2  0  0  0  0  0  0
  -25.7230  -29.3520   19.9620 C   0  0  0  0  0  0  0  0  0  0  0  0
  -26.8600  -28.4520   19.7410 C   0  0  0  0  0  3  0  0  0  0  0  0
  -25.4590  -26.9180   18.5470 C   0  0  0  0  0  3  0  0  0  0  0  0
  -24.3540  -27.7830   18.7470 C   0  0  0  0  0  3  0  0  0  0  0  0
  -23.2630  -29.8820   19.7470 C   0  0  0  0  0  2  0  0  0  0  0  0
  -24.5470  -30.9750   21.6190 N   0  0  0  0  0  0  0  0  0  0  0  0
  -23.5910  -31.9380   23.4560 O   0  0  0  0  0  0  0  0  0  0  0  0
  -22.6540  -29.3530   22.1510 C   0  0  0  0  0  0  0  0  0  0  0  0
  -21.3270  -29.1230   22.1270 N   0  0  0  0  0  0  0  0  0  0  0  0
  -23.4200  -28.7210   22.8830 O   0  0  0  0  0  0  0  0  0  0  0  0
  -20.7600  -29.6890   21.5090 H   0  0  0  0  0  0  0  0  0  0  0  0
  -18.0770  -27.6390   22.7620 C   0  0  0  0  0  0  0  0  0  0  0  0
  -20.6200  -28.1020   22.9080 C   0  0  0  0  0  3  0  0  0  0  0  0
  -20.8030  -26.7000   22.2810 C   0  0  0  0  0  2  0  0  0  0  0  0
  -19.6790  -26.3190   21.3150 C   0  0  0  0  0  2  0  0  0  0  0  0
  -18.3260  -26.3310   22.0300 C   0  0  0  0  0  2  0  0  0  0  0  0
  -19.1530  -28.4770   23.1610 C   0  0  0  0  0  0  0  0  0  0  0  0
  -18.8660  -29.6930   23.8170 C   0  0  0  0  0  3  0  0  0  0  0  0
  -17.5350  -30.0790   24.0740 C   0  0  0  0  0  3  0  0  0  0  0  0
  -16.4740  -29.2390   23.6910 C   0  0  0  0  0  3  0  0  0  0  0  0
  -16.7480  -28.0190   23.0440 C   0  0  0  0  0  3  0  0  0  0  0  0
  -25.9470  -32.3140   23.2960 C   0  0  0  0  0  3  0  0  0  0  0  0
  -25.6470  -33.6130   23.9270 N   0  0  0  0  0  0  0  0  0  0  0  0
  -25.8730  -34.8080   23.3710 C   0  0  0  0  0  0  0  0  0  0  0  0
  -26.4220  -34.9360   22.2720 O   0  0  0  0  0  0  0  0  0  0  0  0
  -25.1510  -33.5870   24.8060 H   0  0  0  0  0  0  0  0  0  0  0  0
  -24.1110  -36.5950   23.5610 C   0  0  0  0  0  1  0  0  0  0  0  0
  -25.4240  -36.0590   24.1510 C   0  0  0  0  0  3  0  0  0  0  0  0
  -27.6220  -36.8090   24.9520 C   0  0  0  0  0  1  0  0  0  0  0  0
  -26.4350  -37.1400   24.1690 N   0  0  0  0  0  0  0  0  0  0  0  0
  -26.0370  -37.9990   24.5410 H   0  0  0  0  0  0  0  0  0  0  0  0
  -26.6950  -31.3740   24.3190 C   0  0  1  0  0  0  0  0  0  0  0  0
  -25.8100  -30.9040   25.4980 C   0  0  0  0  0  1  0  0  0  0  0  0
  -27.2400  -30.1130   23.6130 C   0  0  0  0  0  1  0  0  0  0  0  0
  -27.9220  -32.1120   24.9060 C   0  0  0  0  0  1  0  0  0  0  0  0
  -31.7260  -18.2120   21.2240 C   0  0  0  0  0  2  0  0  0  0  0  0
  -32.4050  -19.5630   20.8730 C   0  0  0  0  0  2  0  0  0  0  0  0
  -33.6550  -19.8500   21.7330 C   0  0  0  0  0  2  0  0  0  0  0  0
  -34.4060  -21.0290   21.2620 N   0  0  0  0  0  4  0  0  0  0  0  0
  -34.7530  -20.8900   20.3270 H   0  0  0  0  0  0  0  0  0  0  0  0
  -35.2010  -21.1770   21.8590 H   0  0  0  0  0  0  0  0  0  0  0  0
  -33.8390  -21.8590   21.2820 H   0  0  0  0  0  0  0  0  0  0  0  0
  1  2  1  0
  1  3  1  0
  2  5  1  0
  3  6  1  0
  5 46  1  0
  5  4  1  0
  6  4  1  0
  6  8  1  0
  6 93  1  1
  7  1  2  0
  8 14  1  0
  9 14  1  0
 10 11  1  0
 10  9  1  0
 12 11  1  0
 12 19  1  0
 12 13  1  0
 14 13  1  0
 15  8  2  0
 16 17  2  0
 17 36  1  0
 18 17  1  0
 18 21  1  0
 19 16  1  0
 19 20  1  0
 20 18  2  0
 21 22  1  0
 22 23  2  0
 24 27  1  0
 24 23  1  0
 25 24  2  0
 26 25  1  0
 26 21  2  0
 27 28  1  0
 28 29  1  0
 29 30  2  0
 31 30  1  0
 31 35  1  0
 32 31  2  0
 33 28  2  0
 33 32  1  0
 34 33  1  0
 36 37  1  0
 37 40  1  0
 37 39  1  0
 38 36  2  0
 41 42  1  0
 41 16  1  0
 43 41  1  0
 44 47  1  0
 45 49  2  0
 45 46  1  0
 46 44  2  0
 47 50  1  0
 48 51  1  0
 48 47  2  0
 49 48  1  0
 52 54  1  0
 52 49  1  0
 53 64  2  0
 54 59  1  0
 55 63  1  0
 55 65  1  0
 56 62  1  0
 56 58  1  0
 57 63  1  0
 58 57  1  0
 59 58  2  0
 60 61  1  0
 60 54  2  0
 61 56  2  0
 62 55  1  0
 63 53  1  0
 65 67  2  0
 66 65  1  0
 68 66  1  0
 69 78  2  0
 69 74  1  0
 70 66  1  0
 70 74  1  0
 71 70  1  0
 72 73  1  0
 72 71  1  0
 73 69  1  0
 74 75  2  0
 75 76  1  0
 77 76  2  0
 78 77  1  0
 79 53  1  0
 79 80  1  0
 79 89  1  0
 80 83  1  0
 81 80  1  0
 81 85  1  0
 82 81  2  0
 85 84  1  0
 85 87  1  0
 87 88  1  0
 87 86  1  0
 89 92  1  1
 89 90  1  0
 91 89  1  0
 94 93  1  0
 94 95  1  0
 96 99  1  0
 96 95  1  0
 96 98  1  0
 97 96  1  0
M  ISO  4   6 100   8 100  49 101  52 101
M  END
>  <TORSDO>  (6) 
F 21

>  <SCORE>  (6) 
-12.470

>  <name>  (6) 
5

>  <ligand_id>  (6) 
5

>  <original_smiles>  (6) 
[H]c1c([H])c([H])c2c(c1[H])C([H])([H])C([H])([H])C([H])([H])C2([H])N([H])C(=O)C1([H])N(C(=O)C([H])(N([H])C(=O)C([H])(N([H])C([H])([H])[H])C([H])([H])[H])C(C([H])([H])[H])(C([H])([H])[H])C([H])([H])[H])C([H])([H])c2c([H])c(Oc3c([H])c(C4([H])C([H])([H])C(=O)C([H])([H])C(C(=O)N5C([H])([H])C([H])([H])C([H])([H])C([H])(n6nc(-c7c([H])c([H])c(Oc8c([H])c([H])c(F)c([H])c8F)c([H])c7[H])c(C(=O)N([H])[H])c6N([H])[H])C5([H])[H])(C([H])([H])C([H])([H])C([H])([H])[N+]([H])([H])[H])C4([H])[H])c([H])c(C([H])([H])[H])c3C([H])([H])[H])c([H])c([H])c2C1([H])[H]

>  <smiles>  (6) 
[H]c1c([H])c([H])c2c(c1[H])C([H])([H])C([H])([H])C([H])([H])C2([H])N([H])C(=O)C1([H])N(C(=O)C([H])(N([H])C(=O)C([H])(N([H])C([H])([H])[H])C([H])([H])[H])C(C([H])([H])[H])(C([H])([H])[H])C([H])([H])[H])C([H])([H])c2c([H])c(Oc3c([H])c(C4([H])C([H])([H])C(=O)C([H])([H])C(C(=O)N5C([H])([H])C([H])([H])C([H])([H])C([H])(n6nc(-c7c([H])c([H])c(Oc8c([H])c([H])c(F)c([H])c8F)c([H])c7[H])c(C(=O)N([H])[H])c6N([H])[H])C5([H])[H])(C([H])([H])C([H])([H])C([H])([H])[N+]([H])([H])[H])C4([H])[H])c([H])c(C([H])([H])[H])c3C([H])([H])[H])c([H])c([H])c2C1([H])[H]

$$$$
6:0:0
     RDKit          3D

 93103  0  0  1  0  0  0  0  0999 V2000
  -30.2330  -19.4060   20.8860 C   0  0  0  0  0  0  0  0  0  0  0  0
  -30.6890  -17.9840   21.0110 C   0  0  0  0  0  0  0  0  0  0  0  0
  -30.1740  -17.0140   20.1280 C   0  0  0  0  0  0  0  0  0  0  0  0
  -29.3180  -19.7100   19.9020 C   0  0  0  0  0  0  0  0  0  0  0  0
  -30.6780  -20.5830   21.7310 C   0  0  0  0  0  2  0  0  0  0  0  0
  -29.5200  -21.5400   22.1470 C   0  0  0  0  0  2  0  0  0  0  0  0
  -28.2410  -23.7790   18.5560 C   0  0  0  0  0  2  0  0  0  0  0  0
  -28.9710  -22.2900   18.6180 C   0  0  0  0  0  2  0  0  0  0  0  0
  -28.9000  -23.8270   20.8770 C   0  0  0  0  0  2  0  0  0  0  0  0
  -28.6510  -22.1930   21.0200 C   0  0  0  0  0  3  0  0  0  0  0  0
  -28.0450  -24.7270   19.8490 C   0  0  0  0  0  3  0  0  0  0  0  0
  -28.5730  -21.2080   19.7370 C   0  0  2  0  0  0  0  0  0  0  0  0
  -27.0900  -20.8770   19.4810 C   0  0  0  0  0  1  0  0  0  0  0  0
  -29.0620  -18.0600   19.0860 S   0  0  0  0  0  0  0  0  0  0  0  0
  -30.7080  -15.4710   19.8180 C   0  0  0  0  0  0  0  0  0  0  0  0
  -30.5310  -13.0640   18.9670 C   0  0  0  0  0  2  0  0  0  0  0  0
  -29.5610  -12.9300   17.7720 C   0  0  0  0  0  2  0  0  0  0  0  0
  -28.1320  -12.6800   18.2800 C   0  0  0  0  0  2  0  0  0  0  0  0
  -27.7450  -13.6420   19.4320 C   0  0  0  0  0  3  0  0  0  0  0  0
  -28.8460  -13.7840   20.5050 C   0  0  0  0  0  2  0  0  0  0  0  0
  -30.0730  -14.2110   19.8240 N   0  0  0  0  0  0  0  0  0  0  0  0
  -31.8910  -15.4050   19.4620 O   0  0  0  0  0  0  0  0  0  0  0  0
  -25.4330  -14.1840   20.3630 C   0  0  0  0  0  0  0  0  0  0  0  0
  -24.3840  -13.3990   20.7540 C   0  0  0  0  0  0  0  0  0  0  0  0
  -24.8310  -12.0480   20.6260 C   0  0  0  0  0  0  0  0  0  0  0  0
  -26.4470  -13.3150   20.0090 N   0  0  0  0  0  0  0  0  0  0  0  0
  -26.1010  -12.0190   20.2340 N   0  0  0  0  0  0  0  0  0  0  0  0
  -24.1010  -10.7840   20.7920 C   0  0  0  0  0  0  0  0  0  0  0  0
  -24.5310   -9.7950   21.7040 C   0  0  0  0  0  3  0  0  0  0  0  0
  -23.7990   -8.5980   21.8620 C   0  0  0  0  0  3  0  0  0  0  0  0
  -22.6210   -8.3820   21.1080 C   0  0  0  0  0  0  0  0  0  0  0  0
  -22.2100   -9.3590   20.1840 C   0  0  0  0  0  3  0  0  0  0  0  0
  -22.9440  -10.5460   20.0240 C   0  0  0  0  0  3  0  0  0  0  0  0
  -21.8600   -7.2400   21.1780 O   0  0  0  0  0  0  0  0  0  0  0  0
  -21.7550   -6.5120   22.3360 C   0  0  0  0  0  0  0  0  0  0  0  0
  -21.2210   -7.0670   23.5210 C   0  0  0  0  0  3  0  0  0  0  0  0
  -21.0680   -6.2660   24.6680 C   0  0  0  0  0  3  0  0  0  0  0  0
  -21.4370   -4.9070   24.6340 C   0  0  0  0  0  0  0  0  0  0  0  0
  -21.9640   -4.3510   23.4570 C   0  0  0  0  0  3  0  0  0  0  0  0
  -22.1190   -5.1510   22.3100 C   0  0  0  0  0  0  0  0  0  0  0  0
  -22.6070   -4.6040   21.1700 F   0  0  0  0  0  0  0  0  0  0  0  0
  -21.2830   -4.1340   25.7340 F   0  0  0  0  0  0  0  0  0  0  0  0
  -23.0130  -13.8740   21.1320 C   0  0  0  0  0  0  0  0  0  0  0  0
  -22.3370  -13.1560   22.0200 N   0  0  0  0  0  0  0  0  0  0  0  0
  -22.5520  -14.9180   20.6720 O   0  0  0  0  0  0  0  0  0  0  0  0
  -22.7230  -12.3100   22.4130 H   0  0  0  0  0  0  0  0  0  0  0  0
  -21.4180  -13.4560   22.3140 H   0  0  0  0  0  0  0  0  0  0  0  0
  -25.6030  -15.5620   20.2500 N   0  0  0  0  0  0  0  0  0  0  0  0
  -24.8570  -16.2180   20.4540 H   0  0  0  0  0  0  0  0  0  0  0  0
  -26.4480  -16.0120   19.9210 H   0  0  0  0  0  0  0  0  0  0  0  0
  -31.0330  -17.4010   23.4280 C   0  0  0  0  0  1  0  0  0  0  0  0
  -31.6940  -17.5810   22.0580 C   0  0  0  0  0  2  0  0  0  0  0  0
  -28.2010  -26.3280   19.7810 O   0  0  0  0  0  0  0  0  0  0  0  0
  -24.6050  -31.9390   23.1440 C   0  0  0  0  0  0  0  0  0  0  0  0
  -27.1390  -27.3360   19.8150 C   0  0  0  0  0  0  0  0  0  0  0  0
  -23.3780  -30.6090   21.4730 C   0  0  0  0  0  3  0  0  0  0  0  0
  -24.8020  -29.1110   19.9280 C   0  0  0  0  0  0  0  0  0  0  0  0
  -25.9280  -30.8900   21.2540 C   0  0  0  0  0  2  0  0  0  0  0  0
  -25.9980  -29.5260   20.5270 C   0  0  0  0  0  0  0  0  0  0  0  0
  -27.1640  -28.6590   20.4480 C   0  0  0  0  0  3  0  0  0  0  0  0
  -25.9130  -27.0450   19.1790 C   0  0  0  0  0  3  0  0  0  0  0  0
  -24.7780  -27.8900   19.2370 C   0  0  0  0  0  3  0  0  0  0  0  0
  -23.5710  -30.0000   20.0580 C   0  0  0  0  0  2  0  0  0  0  0  0
  -24.6600  -31.1690   22.0110 N   0  0  0  0  0  0  0  0  0  0  0  0
  -23.5300  -32.1830   23.7140 O   0  0  0  0  0  0  0  0  0  0  0  0
  -22.7330  -29.5530   22.4060 C   0  0  0  0  0  0  0  0  0  0  0  0
  -21.4120  -29.3330   22.2690 N   0  0  0  0  0  0  0  0  0  0  0  0
  -23.4250  -28.9320   23.2170 O   0  0  0  0  0  0  0  0  0  0  0  0
  -20.9090  -29.8890   21.5920 H   0  0  0  0  0  0  0  0  0  0  0  0
  -18.0900  -27.9420   22.6980 C   0  0  0  0  0  0  0  0  0  0  0  0
  -20.6280  -28.3400   23.0100 C   0  0  0  0  0  3  0  0  0  0  0  0
  -20.8150  -26.9250   22.4130 C   0  0  0  0  0  2  0  0  0  0  0  0
  -19.7490  -26.5640   21.3760 C   0  0  0  0  0  2  0  0  0  0  0  0
  -18.3500  -26.6190   21.9980 C   0  0  0  0  0  2  0  0  0  0  0  0
  -19.1590  -28.7580   23.1580 C   0  0  0  0  0  0  0  0  0  0  0  0
  -18.8620  -29.9920   23.7750 C   0  0  0  0  0  3  0  0  0  0  0  0
  -17.5290  -30.4150   23.9350 C   0  0  0  0  0  3  0  0  0  0  0  0
  -16.4740  -29.6000   23.4880 C   0  0  0  0  0  3  0  0  0  0  0  0
  -16.7560  -28.3660   22.8770 C   0  0  0  0  0  3  0  0  0  0  0  0
  -25.8890  -32.5630   23.7680 C   0  0  0  0  0  3  0  0  0  0  0  0
  -25.5850  -33.9590   24.1240 N   0  0  0  0  0  0  0  0  0  0  0  0
  -25.9080  -35.0270   23.3820 C   0  0  0  0  0  0  0  0  0  0  0  0
  -26.5600  -34.9390   22.3380 O   0  0  0  0  0  0  0  0  0  0  0  0
  -25.0010  -34.0960   24.9370 H   0  0  0  0  0  0  0  0  0  0  0  0
  -24.1760  -36.8360   23.1050 C   0  0  0  0  0  1  0  0  0  0  0  0
  -25.4350  -36.4100   23.8760 C   0  0  0  0  0  3  0  0  0  0  0  0
  -27.5870  -37.2830   24.6800 C   0  0  0  0  0  1  0  0  0  0  0  0
  -26.4670  -37.4640   23.7600 N   0  0  0  0  0  0  0  0  0  0  0  0
  -26.0630  -38.3810   23.9340 H   0  0  0  0  0  0  0  0  0  0  0  0
  -26.4040  -31.7770   25.0390 C   0  0  1  0  0  0  0  0  0  0  0  0
  -25.3110  -31.5260   26.1050 C   0  0  0  0  0  1  0  0  0  0  0  0
  -26.9910  -30.4030   24.6410 C   0  0  0  0  0  1  0  0  0  0  0  0
  -27.5550  -32.5650   25.7070 C   0  0  0  0  0  1  0  0  0  0  0  0
  1  2  1  0
  1  5  1  0
  2 52  1  0
  3  2  2  0
  4  1  2  0
  5  6  1  0
  7  8  1  0
  7 11  1  0
  8 12  1  0
 10  9  1  0
 10  6  1  0
 11 53  1  0
 11  9  1  0
 12 13  1  6
 12  4  1  0
 12 10  1  0
 14  4  1  0
 14  3  1  0
 15 21  1  0
 15  3  1  0
 16 21  1  0
 17 18  1  0
 17 16  1  0
 19 18  1  0
 19 26  1  0
 19 20  1  0
 21 20  1  0
 22 15  2  0
 23 24  2  0
 24 43  1  0
 25 24  1  0
 25 28  1  0
 26 27  1  0
 26 23  1  0
 27 25  2  0
 28 29  1  0
 29 30  2  0
 31 34  1  0
 31 30  1  0
 32 31  2  0
 33 32  1  0
 33 28  2  0
 34 35  1  0
 35 36  1  0
 36 37  2  0
 38 37  1  0
 38 42  1  0
 39 38  2  0
 40 35  2  0
 40 39  1  0
 41 40  1  0
 43 44  1  0
 44 47  1  0
 44 46  1  0
 45 43  2  0
 48 23  1  0
 48 49  1  0
 50 48  1  0
 52 51  1  0
 53 55  1  0
 54 65  2  0
 55 60  1  0
 56 64  1  0
 56 66  1  0
 57 63  1  0
 57 59  1  0
 58 64  1  0
 59 58  1  0
 60 59  2  0
 61 62  1  0
 61 55  2  0
 62 57  2  0
 63 56  1  0
 64 54  1  0
 66 68  2  0
 67 66  1  0
 69 67  1  0
 70 79  2  0
 70 75  1  0
 71 67  1  0
 71 75  1  0
 72 71  1  0
 73 74  1  0
 73 72  1  0
 74 70  1  0
 75 76  2  0
 76 77  1  0
 78 77  2  0
 79 78  1  0
 80 54  1  0
 80 81  1  0
 80 90  1  0
 81 84  1  0
 82 86  1  0
 82 81  1  0
 83 82  2  0
 86 85  1  0
 88 86  1  0
 88 89  1  0
 88 87  1  0
 90 93  1  1
 90 91  1  0
 92 90  1  0
M  ISO  4   3 100  11 101  15 100  53 101
M  END
>  <TORSDO>  (7) 
F 17

>  <SCORE>  (7) 
-13.729

>  <name>  (7) 
6

>  <ligand_id>  (7) 
6

>  <original_smiles>  (7) 
[H]c1c([H])c([H])c2c(c1[H])C([H])([H])C([H])([H])C([H])([H])C2([H])N([H])C(=O)C1([H])N(C(=O)C([H])(N([H])C(=O)C([H])(N([H])C([H])([H])[H])C([H])([H])[H])C(C([H])([H])[H])(C([H])([H])[H])C([H])([H])[H])C([H])([H])c2c([H])c(OC3([H])C([H])([H])C([H])([H])C4(C([H])([H])[H])c5sc(C(=O)N6C([H])([H])C([H])([H])C([H])([H])C([H])(n7nc(-c8c([H])c([H])c(Oc9c([H])c([H])c(F)c([H])c9F)c([H])c8[H])c(C(=O)N([H])[H])c7N([H])[H])C6([H])[H])c(C([H])([H])C([H])([H])[H])c5C([H])([H])C([H])([H])C4([H])C3([H])[H])c([H])c([H])c2C1([H])[H]

>  <smiles>  (7) 
[H]c1c([H])c([H])c2c(c1[H])C([H])([H])C([H])([H])C([H])([H])C2([H])N([H])C(=O)C1([H])N(C(=O)C([H])(N([H])C(=O)C([H])(N([H])C([H])([H])[H])C([H])([H])[H])C(C([H])([H])[H])(C([H])([H])[H])C([H])([H])[H])C([H])([H])c2c([H])c(OC3([H])C([H])([H])C([H])([H])C4(C([H])([H])[H])c5sc(C(=O)N6C([H])([H])C([H])([H])C([H])([H])C([H])(n7nc(-c8c([H])c([H])c(Oc9c([H])c([H])c(F)c([H])c9F)c([H])c8[H])c(C(=O)N([H])[H])c7N([H])[H])C6([H])[H])c(C([H])([H])C([H])([H])[H])c5C([H])([H])C([H])([H])C4([H])C3([H])[H])c([H])c([H])c2C1([H])[H]

$$$$
7:0:0
     RDKit          3D

 98107  0  0  1  0  0  0  0  0999 V2000
  -29.0570  -19.3220   18.3180 C   0  0  0  0  0  3  0  0  0  0  0  0
  -28.7600  -20.7780   18.2700 C   0  0  0  0  0  0  0  0  0  0  0  0
  -28.9290  -21.6800   19.3830 C   0  0  0  0  0  0  0  0  0  0  0  0
  -29.5690  -18.5320   19.4380 C   0  0  0  0  0  0  0  0  0  0  0  0
  -29.4880  -20.9270   20.5080 C   0  0  0  0  0  0  0  0  0  0  0  0
  -29.7600  -19.4570   20.5440 C   0  0  0  0  0  0  0  0  0  0  0  0
  -28.1290  -21.3460   17.0290 C   0  0  0  0  0  0  0  0  0  0  0  0
  -28.3810  -23.3000   19.5050 C   0  0  0  0  0  2  0  0  0  0  0  0
  -28.5340  -22.7630   16.5500 C   0  0  0  0  0  2  0  0  0  0  0  0
  -27.7140  -23.9900   17.0770 C   0  0  0  0  0  2  0  0  0  0  0  0
  -28.2670  -24.5910   18.3910 C   0  0  0  0  0  3  0  0  0  0  0  0
  -27.3590  -20.6880   16.3240 O   0  0  0  0  0  0  0  0  0  0  0  0
  -28.0740  -26.1900   18.6070 O   0  0  0  0  0  0  0  0  0  0  0  0
  -24.4230  -31.3850   22.5260 C   0  0  0  0  0  0  0  0  0  0  0  0
  -26.9280  -27.1020   18.7410 C   0  0  0  0  0  0  0  0  0  0  0  0
  -23.1360  -30.0610   20.8930 C   0  0  0  0  0  3  0  0  0  0  0  0
  -24.5040  -28.7260   19.1550 C   0  0  0  0  0  0  0  0  0  0  0  0
  -25.6390  -30.5050   20.4820 C   0  0  0  0  0  2  0  0  0  0  0  0
  -25.7210  -29.1830   19.6760 C   0  0  0  0  0  0  0  0  0  0  0  0
  -26.9200  -28.3900   19.4490 C   0  0  0  0  0  3  0  0  0  0  0  0
  -25.6690  -26.7670   18.1990 C   0  0  0  0  0  3  0  0  0  0  0  0
  -24.4960  -27.5400   18.3990 C   0  0  0  0  0  3  0  0  0  0  0  0
  -23.2370  -29.5280   19.4360 C   0  0  0  0  0  2  0  0  0  0  0  0
  -24.4250  -30.6740   21.3530 N   0  0  0  0  0  0  0  0  0  0  0  0
  -23.3890  -31.5360   23.1940 O   0  0  0  0  0  0  0  0  0  0  0  0
  -22.6350  -28.9260   21.8210 C   0  0  0  0  0  0  0  0  0  0  0  0
  -21.3160  -28.6610   21.8200 N   0  0  0  0  0  0  0  0  0  0  0  0
  -23.4350  -28.2880   22.5110 O   0  0  0  0  0  0  0  0  0  0  0  0
  -20.7190  -29.2320   21.2380 H   0  0  0  0  0  0  0  0  0  0  0  0
  -18.1210  -27.0880   22.4950 C   0  0  0  0  0  0  0  0  0  0  0  0
  -20.6560  -27.5920   22.5750 C   0  0  0  0  0  3  0  0  0  0  0  0
  -20.8420  -26.2220   21.8800 C   0  0  0  0  0  2  0  0  0  0  0  0
  -19.6920  -25.8650   20.9340 C   0  0  0  0  0  2  0  0  0  0  0  0
  -18.3640  -25.8180   21.6960 C   0  0  0  0  0  2  0  0  0  0  0  0
  -19.1940  -27.9280   22.8940 C   0  0  0  0  0  0  0  0  0  0  0  0
  -18.9060  -29.1110   23.6090 C   0  0  0  0  0  3  0  0  0  0  0  0
  -17.5780  -29.4560   23.9250 C   0  0  0  0  0  3  0  0  0  0  0  0
  -16.5210  -28.6140   23.5400 C   0  0  0  0  0  3  0  0  0  0  0  0
  -16.7940  -27.4300   22.8310 C   0  0  0  0  0  3  0  0  0  0  0  0
  -25.7180  -32.0600   23.0750 C   0  0  0  0  0  3  0  0  0  0  0  0
  -25.3240  -33.3080   23.7510 N   0  0  0  0  0  0  0  0  0  0  0  0
  -25.5830  -34.5410   23.2960 C   0  0  0  0  0  0  0  0  0  0  0  0
  -26.2410  -34.7490   22.2740 O   0  0  0  0  0  0  0  0  0  0  0  0
  -24.7310  -33.2140   24.5630 H   0  0  0  0  0  0  0  0  0  0  0  0
  -23.7710  -36.2870   23.4070 C   0  0  0  0  0  1  0  0  0  0  0  0
  -25.0250  -35.7330   24.1020 C   0  0  0  0  0  3  0  0  0  0  0  0
  -27.1070  -36.4590   25.1840 C   0  0  0  0  0  1  0  0  0  0  0  0
  -26.0050  -36.8240   24.2980 N   0  0  0  0  0  0  0  0  0  0  0  0
  -25.5520  -37.6510   24.6790 H   0  0  0  0  0  0  0  0  0  0  0  0
  -26.5250  -31.1360   24.0690 C   0  0  1  0  0  0  0  0  0  0  0  0
  -25.6680  -30.5540   25.2180 C   0  0  0  0  0  1  0  0  0  0  0  0
  -27.1700  -29.9480   23.3220 C   0  0  0  0  0  1  0  0  0  0  0  0
  -27.6880  -31.9380   24.7010 C   0  0  0  0  0  1  0  0  0  0  0  0
  -29.5170  -16.8060   19.5300 C   0  0  0  0  0  2  0  0  0  0  0  0
  -30.5860  -15.4590   19.6920 C   0  0  0  0  0  0  0  0  0  0  0  0
  -30.7190  -12.9310   19.2020 C   0  0  0  0  0  2  0  0  0  0  0  0
  -29.7950  -12.5970   18.0020 C   0  0  0  0  0  2  0  0  0  0  0  0
  -28.3420  -12.3570   18.4590 C   0  0  0  0  0  2  0  0  0  0  0  0
  -27.8700  -13.4360   19.4650 C   0  0  0  0  0  3  0  0  0  0  0  0
  -28.9160  -13.6960   20.5660 C   0  0  0  0  0  2  0  0  0  0  0  0
  -30.1550  -14.1300   19.9030 N   0  0  0  0  0  0  0  0  0  0  0  0
  -31.7910  -15.5620   19.4260 O   0  0  0  0  0  0  0  0  0  0  0  0
  -25.5340  -14.0540   20.2910 C   0  0  0  0  0  0  0  0  0  0  0  0
  -24.4690  -13.2980   20.7010 C   0  0  0  0  0  0  0  0  0  0  0  0
  -24.9070  -11.9390   20.6570 C   0  0  0  0  0  0  0  0  0  0  0  0
  -26.5480  -13.1550   20.0130 N   0  0  0  0  0  0  0  0  0  0  0  0
  -26.1850  -11.8780   20.2990 N   0  0  0  0  0  0  0  0  0  0  0  0
  -24.1630  -10.6910   20.8750 C   0  0  0  0  0  0  0  0  0  0  0  0
  -24.5530   -9.7590   21.8620 C   0  0  0  0  0  3  0  0  0  0  0  0
  -23.8080   -8.5770   22.0650 C   0  0  0  0  0  3  0  0  0  0  0  0
  -22.6580   -8.3190   21.2810 C   0  0  0  0  0  0  0  0  0  0  0  0
  -22.2880   -9.2380   20.2840 C   0  0  0  0  0  3  0  0  0  0  0  0
  -23.0320  -10.4120   20.0800 C   0  0  0  0  0  3  0  0  0  0  0  0
  -21.8870   -7.1870   21.3920 O   0  0  0  0  0  0  0  0  0  0  0  0
  -21.7900   -6.4950   22.5730 C   0  0  0  0  0  0  0  0  0  0  0  0
  -21.2770   -7.0900   23.7440 C   0  0  0  0  0  3  0  0  0  0  0  0
  -21.1300   -6.3220   24.9170 C   0  0  0  0  0  3  0  0  0  0  0  0
  -21.4850   -4.9600   24.9180 C   0  0  0  0  0  0  0  0  0  0  0  0
  -21.9910   -4.3650   23.7490 C   0  0  0  0  0  3  0  0  0  0  0  0
  -22.1400   -5.1300   22.5790 C   0  0  0  0  0  0  0  0  0  0  0  0
  -22.6080   -4.5450   21.4490 F   0  0  0  0  0  0  0  0  0  0  0  0
  -21.3360   -4.2210   26.0410 F   0  0  0  0  0  0  0  0  0  0  0  0
  -23.0920  -13.8030   21.0170 C   0  0  0  0  0  0  0  0  0  0  0  0
  -22.3990  -13.1500   21.9420 N   0  0  0  0  0  0  0  0  0  0  0  0
  -22.6390  -14.8100   20.4740 O   0  0  0  0  0  0  0  0  0  0  0  0
  -22.7790  -12.3360   22.4010 H   0  0  0  0  0  0  0  0  0  0  0  0
  -21.4740  -13.4690   22.1960 H   0  0  0  0  0  0  0  0  0  0  0  0
  -25.7220  -15.4220   20.1080 N   0  0  0  0  0  0  0  0  0  0  0  0
  -24.9890  -16.1040   20.2650 H   0  0  0  0  0  0  0  0  0  0  0  0
  -26.5670  -15.8320   19.7310 H   0  0  0  0  0  0  0  0  0  0  0  0
  -29.7100  -21.7660   21.7800 C   0  0  0  0  0  2  0  0  0  0  0  0
  -30.3880  -23.1360   21.5400 C   0  0  0  0  0  2  0  0  0  0  0  0
  -30.2120  -25.6270   22.1550 C   0  0  0  0  0  1  0  0  0  0  0  0
  -29.9120  -24.1810   22.5640 C   0  0  0  0  0  2  0  0  0  0  0  0
  -30.2050  -18.8090   21.8590 C   0  0  0  0  0  2  0  0  0  0  0  0
  -31.4740  -19.4550   22.4360 C   0  0  0  0  0  2  0  0  0  0  0  0
  -32.1230  -21.2160   24.1540 C   0  0  0  0  0  1  0  0  0  0  0  0
  -31.2880  -19.9630   23.8720 C   0  0  0  0  0  2  0  0  0  0  0  0
  1  4  1  0
  2  1  2  0
  2  3  1  0
  3  8  1  0
  3  5  2  0
  4 54  1  0
  4  6  2  0
  5  6  1  0
  5 91  1  0
  6 95  1  0
  7  2  1  0
  9  7  1  0
  9 10  1  0
 10 11  1  0
 11 13  1  0
 11  8  1  0
 12  7  2  0
 13 15  1  0
 14 25  2  0
 15 20  1  0
 16 24  1  0
 16 26  1  0
 17 23  1  0
 17 19  1  0
 18 24  1  0
 19 18  1  0
 20 19  2  0
 21 22  1  0
 21 15  2  0
 22 17  2  0
 23 16  1  0
 24 14  1  0
 26 28  2  0
 27 26  1  0
 29 27  1  0
 30 39  2  0
 30 35  1  0
 31 27  1  0
 31 35  1  0
 32 31  1  0
 33 34  1  0
 33 32  1  0
 34 30  1  0
 35 36  2  0
 36 37  1  0
 38 37  2  0
 39 38  1  0
 40 14  1  0
 40 41  1  0
 40 50  1  0
 41 44  1  0
 42 41  1  0
 42 46  1  0
 43 42  2  0
 46 45  1  0
 46 48  1  0
 48 49  1  0
 48 47  1  0
 50 53  1  1
 50 51  1  0
 52 50  1  0
 54 55  1  0
 55 61  1  0
 56 61  1  0
 57 58  1  0
 57 56  1  0
 59 58  1  0
 59 66  1  0
 59 60  1  0
 61 60  1  0
 62 55  2  0
 63 64  2  0
 64 83  1  0
 65 64  1  0
 65 68  1  0
 66 63  1  0
 66 67  1  0
 67 65  2  0
 68 69  1  0
 69 70  2  0
 71 74  1  0
 71 70  1  0
 72 71  2  0
 73 72  1  0
 73 68  2  0
 74 75  1  0
 75 80  2  0
 75 76  1  0
 76 77  2  0
 77 78  1  0
 78 82  1  0
 79 78  2  0
 80 79  1  0
 81 80  1  0
 83 84  1  0
 84 87  1  0
 84 86  1  0
 85 83  2  0
 88 89  1  0
 88 63  1  0
 90 88  1  0
 92 91  1  0
 92 94  1  0
 93 94  1  0
 95 96  1  0
 96 98  1  0
 98 97  1  0
M  ISO  4  11 101  13 101  54 100  55 100
M  END
>  <TORSDO>  (8) 
F 23

>  <SCORE>  (8) 
-10.548

>  <name>  (8) 
7

>  <ligand_id>  (8) 
7

>  <original_smiles>  (8) 
[H]c1c([H])c([H])c2c(c1[H])C([H])([H])C([H])([H])C([H])([H])C2([H])N([H])C(=O)C1([H])N(C(=O)C([H])(N([H])C(=O)C([H])(N([H])C([H])([H])[H])C([H])([H])[H])C(C([H])([H])[H])(C([H])([H])[H])C([H])([H])[H])C([H])([H])c2c([H])c(OC3([H])C([H])([H])c4c(c([H])c(C([H])([H])C(=O)N5C([H])([H])C([H])([H])C([H])([H])C([H])(n6nc(-c7c([H])c([H])c(Oc8c([H])c([H])c(F)c([H])c8F)c([H])c7[H])c(C(=O)N([H])[H])c6N([H])[H])C5([H])[H])c(C([H])([H])C([H])([H])C([H])([H])C([H])([H])[H])c4C([H])([H])C([H])([H])C([H])([H])C([H])([H])[H])C(=O)C([H])([H])C3([H])[H])c([H])c([H])c2C1([H])[H]

>  <smiles>  (8) 
[H]c1c([H])c([H])c2c(c1[H])C([H])([H])C([H])([H])C([H])([H])C2([H])N([H])C(=O)C1([H])N(C(=O)C([H])(N([H])C(=O)C([H])(N([H])C([H])([H])[H])C([H])([H])[H])C(C([H])([H])[H])(C([H])([H])[H])C([H])([H])[H])C([H])([H])c2c([H])c(OC3([H])C([H])([H])c4c(c([H])c(C([H])([H])C(=O)N5C([H])([H])C([H])([H])C([H])([H])C([H])(n6nc(-c7c([H])c([H])c(Oc8c([H])c([H])c(F)c([H])c8F)c([H])c7[H])c(C(=O)N([H])[H])c6N([H])[H])C5([H])[H])c(C([H])([H])C([H])([H])C([H])([H])C([H])([H])[H])c4C([H])([H])C([H])([H])C([H])([H])C([H])([H])[H])C(=O)C([H])([H])C3([H])[H])c([H])c([H])c2C1([H])[H]

$$$$
8:0:0
     RDKit          3D

 97106  0  0  1  0  0  0  0  0999 V2000
  -28.4360  -22.0980   18.4820 C   0  0  0  0  0  3  0  0  0  0  0  0
  -27.8270  -24.5030   18.5750 C   0  0  0  0  0  3  0  0  0  0  0  0
  -29.0710  -22.1040   19.7420 C   0  0  0  0  0  0  0  0  0  0  0  0
  -27.8440  -23.2500   17.9170 C   0  0  0  0  0  0  0  0  0  0  0  0
  -28.3350  -24.7020   19.8790 C   0  0  0  0  0  0  0  0  0  0  0  0
  -28.9630  -23.4460   20.4340 C   0  0  0  0  0  0  0  0  0  0  0  0
  -29.5040  -23.5490   21.6710 F   0  0  0  0  0  0  0  0  0  0  0  0
  -30.3900  -18.6180   21.6000 C   0  0  0  0  0  2  0  0  0  0  0  0
  -29.8240  -20.1090   21.5340 C   0  0  0  0  0  2  0  0  0  0  0  0
  -29.6230  -19.1850   19.4470 C   0  0  0  0  0  2  0  0  0  0  0  0
  -30.4360  -17.9390   20.1920 C   0  0  0  0  0  3  0  0  0  0  0  0
  -29.9470  -20.6990   20.0960 C   0  0  1  0  0  0  0  0  0  0  0  0
  -30.9020  -15.1520   20.1380 C   0  0  0  0  0  0  0  0  0  0  0  0
  -30.8220  -12.7210   19.3670 C   0  0  0  0  0  2  0  0  0  0  0  0
  -29.8830  -12.5410   18.1500 C   0  0  0  0  0  2  0  0  0  0  0  0
  -28.4280  -12.3310   18.6110 C   0  0  0  0  0  2  0  0  0  0  0  0
  -28.0080  -13.3400   19.7120 C   0  0  0  0  0  3  0  0  0  0  0  0
  -29.0690  -13.4740   20.8230 C   0  0  0  0  0  2  0  0  0  0  0  0
  -30.3170  -13.8790   20.1650 N   0  0  0  0  0  0  0  0  0  0  0  0
  -32.1150  -15.1860   19.9010 O   0  0  0  0  0  0  0  0  0  0  0  0
  -30.1180  -16.3610   20.1740 N   0  0  0  0  0  0  0  0  0  0  0  0
  -29.1340  -16.1590   20.2750 H   0  0  0  0  0  0  0  0  0  0  0  0
  -25.6660  -13.9530   20.5340 C   0  0  0  0  0  0  0  0  0  0  0  0
  -24.5920  -13.1960   20.9100 C   0  0  0  0  0  0  0  0  0  0  0  0
  -25.0200  -11.8340   20.8310 C   0  0  0  0  0  0  0  0  0  0  0  0
  -26.6790  -13.0570   20.2420 N   0  0  0  0  0  0  0  0  0  0  0  0
  -26.3030  -11.7750   20.4870 N   0  0  0  0  0  0  0  0  0  0  0  0
  -24.2650  -10.5870   21.0040 C   0  0  0  0  0  0  0  0  0  0  0  0
  -24.6480   -9.6170   21.9570 C   0  0  0  0  0  3  0  0  0  0  0  0
  -23.8920   -8.4350   22.1170 C   0  0  0  0  0  3  0  0  0  0  0  0
  -22.7400   -8.2160   21.3250 C   0  0  0  0  0  0  0  0  0  0  0  0
  -22.3770   -9.1730   20.3630 C   0  0  0  0  0  3  0  0  0  0  0  0
  -23.1330  -10.3460   20.1990 C   0  0  0  0  0  3  0  0  0  0  0  0
  -21.9590   -7.0870   21.3950 O   0  0  0  0  0  0  0  0  0  0  0  0
  -21.7870   -6.4020   22.5710 C   0  0  0  0  0  0  0  0  0  0  0  0
  -21.1980   -7.0040   23.7040 C   0  0  0  0  0  3  0  0  0  0  0  0
  -20.9770   -6.2440   24.8700 C   0  0  0  0  0  3  0  0  0  0  0  0
  -21.3350   -4.8830   24.9030 C   0  0  0  0  0  0  0  0  0  0  0  0
  -21.9160   -4.2810   23.7730 C   0  0  0  0  0  3  0  0  0  0  0  0
  -22.1380   -5.0370   22.6100 C   0  0  0  0  0  0  0  0  0  0  0  0
  -22.6800   -4.4470   21.5180 F   0  0  0  0  0  0  0  0  0  0  0  0
  -21.1150   -4.1510   26.0190 F   0  0  0  0  0  0  0  0  0  0  0  0
  -23.2150  -13.7010   21.2250 C   0  0  0  0  0  0  0  0  0  0  0  0
  -22.4900  -13.0050   22.0930 N   0  0  0  0  0  0  0  0  0  0  0  0
  -22.7920  -14.7490   20.7360 O   0  0  0  0  0  0  0  0  0  0  0  0
  -22.8460  -12.1580   22.5100 H   0  0  0  0  0  0  0  0  0  0  0  0
  -21.5660  -13.3250   22.3460 H   0  0  0  0  0  0  0  0  0  0  0  0
  -25.8580  -15.3240   20.3880 N   0  0  0  0  0  0  0  0  0  0  0  0
  -25.1050  -15.9870   20.5320 H   0  0  0  0  0  0  0  0  0  0  0  0
  -26.6930  -15.7520   20.0110 H   0  0  0  0  0  0  0  0  0  0  0  0
  -31.6710  -21.3870   18.2730 C   0  0  0  0  0  1  0  0  0  0  0  0
  -32.1520  -22.0510   20.6360 C   0  0  0  0  0  1  0  0  0  0  0  0
  -31.4530  -21.0010   19.7510 C   0  0  0  0  0  3  0  0  0  0  0  0
  -27.2910  -23.1560   16.6420 N   0  0  0  0  0  0  0  0  0  0  0  0
  -27.0890  -22.2400   16.2500 H   0  0  0  0  0  0  0  0  0  0  0  0
  -26.6600  -23.8810   16.3130 H   0  0  0  0  0  0  0  0  0  0  0  0
  -28.3120  -26.1010   20.4030 O   0  0  0  0  0  0  0  0  0  0  0  0
  -24.7000  -31.8730   23.3640 C   0  0  0  0  0  0  0  0  0  0  0  0
  -27.2660  -27.1180   20.3110 C   0  0  0  0  0  0  0  0  0  0  0  0
  -23.5120  -30.5130   21.6890 C   0  0  0  0  0  3  0  0  0  0  0  0
  -24.9620  -28.9330   20.2670 C   0  0  0  0  0  0  0  0  0  0  0  0
  -26.0750  -30.7340   21.5730 C   0  0  0  0  0  2  0  0  0  0  0  0
  -26.1410  -29.3450   20.9000 C   0  0  0  0  0  0  0  0  0  0  0  0
  -27.2890  -28.4550   20.9020 C   0  0  0  0  0  3  0  0  0  0  0  0
  -26.0450  -26.8150   19.6620 C   0  0  0  0  0  3  0  0  0  0  0  0
  -24.9310  -27.6830   19.6340 C   0  0  0  0  0  3  0  0  0  0  0  0
  -23.7480  -29.8510   20.3060 C   0  0  0  0  0  2  0  0  0  0  0  0
  -24.7820  -31.0620   22.2640 N   0  0  0  0  0  0  0  0  0  0  0  0
  -23.6080  -32.1660   23.8750 O   0  0  0  0  0  0  0  0  0  0  0  0
  -22.8000  -29.5060   22.6270 C   0  0  0  0  0  0  0  0  0  0  0  0
  -21.4820  -29.3140   22.4400 N   0  0  0  0  0  0  0  0  0  0  0  0
  -23.4400  -28.8980   23.4890 O   0  0  0  0  0  0  0  0  0  0  0  0
  -21.0220  -29.8570   21.7230 H   0  0  0  0  0  0  0  0  0  0  0  0
  -18.1090  -28.0260   22.7630 C   0  0  0  0  0  0  0  0  0  0  0  0
  -20.6390  -28.3700   23.1810 C   0  0  0  0  0  3  0  0  0  0  0  0
  -20.8150  -26.9300   22.6480 C   0  0  0  0  0  2  0  0  0  0  0  0
  -19.7880  -26.5520   21.5750 C   0  0  0  0  0  2  0  0  0  0  0  0
  -18.3660  -26.6700   22.1290 C   0  0  0  0  0  2  0  0  0  0  0  0
  -19.1770  -28.8320   23.2420 C   0  0  0  0  0  0  0  0  0  0  0  0
  -18.8830  -30.0980   23.7940 C   0  0  0  0  0  3  0  0  0  0  0  0
  -17.5560  -30.5600   23.8700 C   0  0  0  0  0  3  0  0  0  0  0  0
  -16.5030  -29.7540   23.4060 C   0  0  0  0  0  3  0  0  0  0  0  0
  -16.7790  -28.4880   22.8590 C   0  0  0  0  0  3  0  0  0  0  0  0
  -25.9720  -32.4870   24.0220 C   0  0  0  0  0  3  0  0  0  0  0  0
  -26.4200  -31.7270   25.3320 C   0  0  1  0  0  0  0  0  0  0  0  0
  -25.2810  -31.5290   26.3580 C   0  0  0  0  0  1  0  0  0  0  0  0
  -26.9920  -30.3320   24.9900 C   0  0  0  0  0  1  0  0  0  0  0  0
  -27.5590  -32.5100   26.0270 C   0  0  0  0  0  1  0  0  0  0  0  0
  -25.6860  -33.8990   24.3240 N   0  0  0  0  0  0  0  0  0  0  0  0
  -26.0140  -34.9330   23.5380 C   0  0  0  0  0  0  0  0  0  0  0  0
  -26.6560  -34.7980   22.4930 O   0  0  0  0  0  0  0  0  0  0  0  0
  -25.1130  -34.0780   25.1360 H   0  0  0  0  0  0  0  0  0  0  0  0
  -24.2820  -36.7320   23.2210 C   0  0  0  0  0  1  0  0  0  0  0  0
  -25.5610  -36.3390   23.9790 C   0  0  0  0  0  3  0  0  0  0  0  0
  -27.7320  -37.2440   24.6850 C   0  0  0  0  0  1  0  0  0  0  0  0
  -26.5920  -37.3810   23.7820 N   0  0  0  0  0  0  0  0  0  0  0  0
  -26.1970  -38.3080   23.9080 H   0  0  0  0  0  0  0  0  0  0  0  0
  1  3  1  0
  2  5  2  0
  3 12  1  0
  3  6  2  0
  4  1  2  0
  4  2  1  0
  5 57  1  0
  5  6  1  0
  6  7  1  0
  9  8  1  0
 10 12  1  0
 10 11  1  0
 11 21  1  0
 11  8  1  0
 12 53  1  6
 12  9  1  0
 13 19  1  0
 13 21  1  0
 14 19  1  0
 15 16  1  0
 15 14  1  0
 17 16  1  0
 17 26  1  0
 17 18  1  0
 19 18  1  0
 20 13  2  0
 21 22  1  0
 23 24  2  0
 24 43  1  0
 25 24  1  0
 25 28  1  0
 26 27  1  0
 26 23  1  0
 27 25  2  0
 28 29  1  0
 29 30  2  0
 31 34  1  0
 31 30  1  0
 32 31  2  0
 33 32  1  0
 33 28  2  0
 34 35  1  0
 35 40  2  0
 35 36  1  0
 36 37  2  0
 37 38  1  0
 38 42  1  0
 39 38  2  0
 40 39  1  0
 41 40  1  0
 43 44  1  0
 44 47  1  0
 44 46  1  0
 45 43  2  0
 48 49  1  0
 48 23  1  0
 50 48  1  0
 51 53  1  0
 53 52  1  0
 54  4  1  0
 55 54  1  0
 56 54  1  0
 58 69  2  0
 59 57  1  0
 59 64  1  0
 60 68  1  0
 60 70  1  0
 61 67  1  0
 61 63  1  0
 62 68  1  0
 63 64  2  0
 63 62  1  0
 65 59  2  0
 66 65  1  0
 66 61  2  0
 67 60  1  0
 68 58  1  0
 70 72  2  0
 71 70  1  0
 73 71  1  0
 74 83  2  0
 74 79  1  0
 75 71  1  0
 75 79  1  0
 76 75  1  0
 77 78  1  0
 77 76  1  0
 78 74  1  0
 79 80  2  0
 80 81  1  0
 82 81  2  0
 83 82  1  0
 84 58  1  0
 84 89  1  0
 84 85  1  0
 85 88  1  1
 85 86  1  0
 87 85  1  0
 89 92  1  0
 90 94  1  0
 90 89  1  0
 91 90  2  0
 94 93  1  0
 96 97  1  0
 96 94  1  0
 96 95  1  0
M  ISO  4   5 101  13 100  21 100  57 101
M  END
>  <TORSDO>  (9) 
F 19

>  <SCORE>  (9) 
-13.066

>  <name>  (9) 
8

>  <ligand_id>  (9) 
8

>  <original_smiles>  (9) 
[H]c1c([H])c([H])c2c(c1[H])C([H])([H])C([H])([H])C([H])([H])C2([H])N([H])C(=O)C1([H])N(C(=O)C([H])(N([H])C(=O)C([H])(N([H])C([H])([H])[H])C([H])([H])[H])C(C([H])([H])[H])(C([H])([H])[H])C([H])([H])[H])C([H])([H])c2c([H])c(Oc3c([H])c(N([H])[H])c([H])c(C4(C([H])(C([H])([H])[H])C([H])([H])[H])C([H])([H])C([H])([H])C([H])(N([H])C(=O)N5C([H])([H])C([H])([H])C([H])([H])C([H])(n6nc(-c7c([H])c([H])c(Oc8c([H])c([H])c(F)c([H])c8F)c([H])c7[H])c(C(=O)N([H])[H])c6N([H])[H])C5([H])[H])C4([H])[H])c3F)c([H])c([H])c2C1([H])[H]

>  <smiles>  (9) 
[H]c1c([H])c([H])c2c(c1[H])C([H])([H])C([H])([H])C([H])([H])C2([H])N([H])C(=O)C1([H])N(C(=O)C([H])(N([H])C(=O)C([H])(N([H])C([H])([H])[H])C([H])([H])[H])C(C([H])([H])[H])(C([H])([H])[H])C([H])([H])[H])C([H])([H])c2c([H])c(Oc3c([H])c(N([H])[H])c([H])c(C4(C([H])(C([H])([H])[H])C([H])([H])[H])C([H])([H])C([H])([H])C([H])(N([H])C(=O)N5C([H])([H])C([H])([H])C([H])([H])C([H])(n6nc(-c7c([H])c([H])c(Oc8c([H])c([H])c(F)c([H])c8F)c([H])c7[H])c(C(=O)N([H])[H])c6N([H])[H])C5([H])[H])C4([H])[H])c3F)c([H])c([H])c2C1([H])[H]

$$$$
9:0:0
     RDKit          3D

 97107  0  0  1  0  0  0  0  0999 V2000
  -28.1530  -18.8190   20.7670 C   0  0  0  0  0  3  0  0  0  0  0  0
  -27.5570  -20.0950   20.7090 C   0  0  0  0  0  3  0  0  0  0  0  0
  -29.9040  -19.5840   19.2840 C   0  0  0  0  0  3  0  0  0  0  0  0
  -29.3510  -18.5170   20.0790 C   0  0  0  0  0  0  0  0  0  0  0  0
  -28.1210  -21.1710   19.9770 C   0  0  0  0  0  0  0  0  0  0  0  0
  -29.3030  -20.8970   19.2450 C   0  0  0  0  0  0  0  0  0  0  0  0
  -28.3510  -25.2300   21.3980 C   0  0  0  0  0  0  0  0  0  0  0  0
  -29.9180  -22.0640   18.4810 C   0  0  0  0  0  2  0  0  0  0  0  0
  -27.4300  -24.3380   22.2010 C   0  0  0  0  0  2  0  0  0  0  0  0
  -29.7710  -23.3890   19.2770 C   0  0  0  0  0  2  0  0  0  0  0  0
  -27.3520  -22.8970   21.6280 C   0  0  0  0  0  2  0  0  0  0  0  0
  -27.9570  -25.2570   19.9330 C   0  0  0  0  0  3  0  0  0  0  0  0
  -28.2810  -23.8020   19.3480 C   0  0  0  0  0  3  0  0  0  0  0  0
  -27.4870  -22.6190   20.0850 C   0  0  1  0  0  0  0  0  0  0  0  0
  -26.0820  -22.5270   19.4370 C   0  0  0  0  0  1  0  0  0  0  0  0
  -29.3330  -25.8140   21.8680 O   0  0  0  0  0  0  0  0  0  0  0  0
  -30.1620  -16.1060   19.5070 C   0  0  0  0  0  3  0  0  0  0  0  0
  -30.0300  -17.1810   20.3520 C   0  0  0  0  0  0  0  0  0  0  0  0
  -30.9780  -14.8820   19.7470 C   0  0  0  0  0  0  0  0  0  0  0  0
  -30.6780  -12.5670   18.9370 C   0  0  0  0  0  2  0  0  0  0  0  0
  -29.6690  -12.6040   17.7710 C   0  0  0  0  0  2  0  0  0  0  0  0
  -28.2340  -12.4430   18.3090 C   0  0  0  0  0  2  0  0  0  0  0  0
  -27.9250  -13.3960   19.4980 C   0  0  0  0  0  3  0  0  0  0  0  0
  -29.0680  -13.4150   20.5360 C   0  0  0  0  0  2  0  0  0  0  0  0
  -30.3260  -13.6810   19.8330 N   0  0  0  0  0  0  0  0  0  0  0  0
  -32.1820  -14.9130   19.4920 O   0  0  0  0  0  0  0  0  0  0  0  0
  -25.6400  -13.9760   20.5120 C   0  0  0  0  0  0  0  0  0  0  0  0
  -24.6000  -13.2030   20.9340 C   0  0  0  0  0  0  0  0  0  0  0  0
  -25.0240  -11.8430   20.7780 C   0  0  0  0  0  0  0  0  0  0  0  0
  -26.6340  -13.0970   20.1140 N   0  0  0  0  0  0  0  0  0  0  0  0
  -26.2780  -11.8030   20.3400 N   0  0  0  0  0  0  0  0  0  0  0  0
  -24.2890  -10.5860   20.9610 C   0  0  0  0  0  0  0  0  0  0  0  0
  -24.7350   -9.5890   21.8520 C   0  0  0  0  0  3  0  0  0  0  0  0
  -23.9990   -8.3970   22.0230 C   0  0  0  0  0  3  0  0  0  0  0  0
  -22.8010   -8.1940   21.2970 C   0  0  0  0  0  0  0  0  0  0  0  0
  -22.3780   -9.1780   20.3890 C   0  0  0  0  0  3  0  0  0  0  0  0
  -23.1160  -10.3590   20.2170 C   0  0  0  0  0  3  0  0  0  0  0  0
  -22.0340   -7.0560   21.3810 O   0  0  0  0  0  0  0  0  0  0  0  0
  -21.9280   -6.3430   22.5470 C   0  0  0  0  0  0  0  0  0  0  0  0
  -21.4150   -6.9200   23.7300 C   0  0  0  0  0  3  0  0  0  0  0  0
  -21.2570   -6.1330   24.8880 C   0  0  0  0  0  3  0  0  0  0  0  0
  -21.6050   -4.7690   24.8650 C   0  0  0  0  0  0  0  0  0  0  0  0
  -22.1040   -4.1890   23.6870 C   0  0  0  0  0  3  0  0  0  0  0  0
  -22.2660   -4.9730   22.5320 C   0  0  0  0  0  0  0  0  0  0  0  0
  -22.7330   -4.4070   21.3940 F   0  0  0  0  0  0  0  0  0  0  0  0
  -21.4430   -4.0110   25.9740 F   0  0  0  0  0  0  0  0  0  0  0  0
  -23.2440  -13.6830   21.3630 C   0  0  0  0  0  0  0  0  0  0  0  0
  -22.5940  -12.9550   22.2680 N   0  0  0  0  0  0  0  0  0  0  0  0
  -22.7790  -14.7420   20.9440 O   0  0  0  0  0  0  0  0  0  0  0  0
  -22.9820  -12.0950   22.6280 H   0  0  0  0  0  0  0  0  0  0  0  0
  -21.6840  -13.2550   22.5950 H   0  0  0  0  0  0  0  0  0  0  0  0
  -25.8210  -15.3540   20.3990 N   0  0  0  0  0  0  0  0  0  0  0  0
  -25.0950  -16.0170   20.6370 H   0  0  0  0  0  0  0  0  0  0  0  0
  -26.6470  -15.7900   20.0150 H   0  0  0  0  0  0  0  0  0  0  0  0
  -30.5200  -17.1290   21.6020 O   0  0  0  0  0  0  0  0  0  0  0  0
  -30.1820  -17.8800   22.0690 H   0  0  0  0  0  0  0  0  0  0  0  0
  -28.2610  -26.5860   19.3320 O   0  0  0  0  0  0  0  0  0  0  0  0
  -24.7200  -31.6690   23.0950 C   0  0  0  0  0  0  0  0  0  0  0  0
  -27.2000  -27.4980   19.4280 C   0  0  0  0  0  0  0  0  0  0  0  0
  -23.4620  -30.5170   21.3130 C   0  0  0  0  0  3  0  0  0  0  0  0
  -24.8720  -29.1300   19.6770 C   0  0  0  0  0  0  0  0  0  0  0  0
  -26.0060  -30.7930   21.1390 C   0  0  0  0  0  2  0  0  0  0  0  0
  -26.0540  -29.5050   20.3260 C   0  0  0  0  0  0  0  0  0  0  0  0
  -27.2300  -28.7030   20.1960 C   0  0  0  0  0  3  0  0  0  0  0  0
  -26.0070  -27.1970   18.7370 C   0  0  0  0  0  3  0  0  0  0  0  0
  -24.8500  -27.9860   18.8690 C   0  0  0  0  0  3  0  0  0  0  0  0
  -23.6440  -30.0060   19.8580 C   0  0  0  0  0  2  0  0  0  0  0  0
  -24.7510  -30.9980   21.9070 N   0  0  0  0  0  0  0  0  0  0  0  0
  -23.6550  -31.9020   23.6830 O   0  0  0  0  0  0  0  0  0  0  0  0
  -22.8040  -29.3810   22.1400 C   0  0  0  0  0  0  0  0  0  0  0  0
  -21.4810  -29.2120   21.9780 N   0  0  0  0  0  0  0  0  0  0  0  0
  -23.4840  -28.6640   22.8780 O   0  0  0  0  0  0  0  0  0  0  0  0
  -20.9850  -29.8340   21.3530 H   0  0  0  0  0  0  0  0  0  0  0  0
  -18.0750  -28.1750   22.5930 C   0  0  0  0  0  0  0  0  0  0  0  0
  -20.6530  -28.2350   22.6710 C   0  0  0  0  0  3  0  0  0  0  0  0
  -20.6410  -26.8780   21.9380 C   0  0  0  0  0  2  0  0  0  0  0  0
  -19.4490  -26.6960   20.9860 C   0  0  0  0  0  2  0  0  0  0  0  0
  -18.0950  -26.9590   21.6880 C   0  0  0  0  0  2  0  0  0  0  0  0
  -19.2700  -28.7910   23.0230 C   0  0  0  0  0  0  0  0  0  0  0  0
  -19.2000  -29.9570   23.8100 C   0  0  0  0  0  3  0  0  0  0  0  0
  -17.9570  -30.5150   24.1520 C   0  0  0  0  0  3  0  0  0  0  0  0
  -16.7640  -29.8910   23.7410 C   0  0  0  0  0  3  0  0  0  0  0  0
  -16.8240  -28.7100   22.9760 C   0  0  0  0  0  3  0  0  0  0  0  0
  -26.0230  -32.2000   23.7640 C   0  0  0  0  0  3  0  0  0  0  0  0
  -25.7400  -33.5550   24.2600 N   0  0  0  0  0  0  0  0  0  0  0  0
  -26.0610  -34.6850   23.6150 C   0  0  0  0  0  0  0  0  0  0  0  0
  -26.6980  -34.6860   22.5570 O   0  0  0  0  0  0  0  0  0  0  0  0
  -25.1560  -33.6210   25.0830 H   0  0  0  0  0  0  0  0  0  0  0  0
  -24.3360  -36.5200   23.5290 C   0  0  0  0  0  1  0  0  0  0  0  0
  -25.6030  -36.0140   24.2410 C   0  0  0  0  0  3  0  0  0  0  0  0
  -27.7730  -36.7950   25.0890 C   0  0  0  0  0  1  0  0  0  0  0  0
  -26.6400  -37.0680   24.2100 N   0  0  0  0  0  0  0  0  0  0  0  0
  -26.2490  -37.9750   24.4600 H   0  0  0  0  0  0  0  0  0  0  0  0
  -26.5380  -31.2680   24.9310 C   0  0  1  0  0  0  0  0  0  0  0  0
  -25.4550  -30.9240   25.9830 C   0  0  0  0  0  1  0  0  0  0  0  0
  -27.0770  -29.9360   24.3590 C   0  0  0  0  0  1  0  0  0  0  0  0
  -27.7110  -31.9600   25.6610 C   0  0  0  0  0  1  0  0  0  0  0  0
  2  1  1  0
  3  4  1  0
  4 18  1  0
  4  1  2  0
  5 14  1  0
  5  2  2  0
  6  3  2  0
  6  5  1  0
  7 16  2  0
  7  9  1  0
  8  6  1  0
  8 10  1  0
 11  9  1  0
 12 57  1  0
 12  7  1  0
 13 10  1  0
 13 12  1  0
 13 14  1  0
 14 15  1  6
 14 11  1  0
 17 19  1  0
 17 18  2  0
 18 55  1  0
 19 25  1  0
 20 25  1  0
 21 22  1  0
 21 20  1  0
 23 22  1  0
 23 30  1  0
 23 24  1  0
 25 24  1  0
 26 19  2  0
 27 28  2  0
 28 47  1  0
 29 28  1  0
 29 32  1  0
 30 31  1  0
 30 27  1  0
 31 29  2  0
 32 33  1  0
 33 34  2  0
 35 38  1  0
 35 34  1  0
 36 35  2  0
 37 36  1  0
 37 32  2  0
 38 39  1  0
 39 40  1  0
 40 41  2  0
 42 41  1  0
 42 46  1  0
 43 42  2  0
 44 39  2  0
 44 43  1  0
 45 44  1  0
 47 48  1  0
 48 51  1  0
 48 50  1  0
 49 47  2  0
 52 27  1  0
 52 53  1  0
 54 52  1  0
 55 56  1  0
 57 59  1  0
 58 69  2  0
 59 64  1  0
 60 68  1  0
 60 70  1  0
 61 67  1  0
 61 63  1  0
 62 68  1  0
 63 62  1  0
 64 63  2  0
 65 66  1  0
 65 59  2  0
 66 61  2  0
 67 60  1  0
 68 58  1  0
 70 72  2  0
 71 70  1  0
 73 71  1  0
 74 83  2  0
 74 79  1  0
 75 71  1  0
 75 79  1  0
 76 75  1  0
 77 78  1  0
 77 76  1  0
 78 74  1  0
 79 80  2  0
 80 81  1  0
 82 81  2  0
 83 82  1  0
 84 58  1  0
 84 85  1  0
 84 94  1  0
 85 88  1  0
 86 90  1  0
 86 85  1  0
 87 86  2  0
 90 89  1  0
 92 90  1  0
 92 93  1  0
 92 91  1  0
 94 97  1  1
 94 95  1  0
 96 94  1  0
M  ISO  4  12 101  17 100  19 100  57 101
M  END
>  <TORSDO>  (10) 
F 18

>  <SCORE>  (10) 
-13.020

>  <name>  (10) 
9

>  <ligand_id>  (10) 
9

>  <original_smiles>  (10) 
[H]OC(=C([H])C(=O)N1C([H])([H])C([H])([H])C([H])([H])C([H])(n2nc(-c3c([H])c([H])c(Oc4c([H])c([H])c(F)c([H])c4F)c([H])c3[H])c(C(=O)N([H])[H])c2N([H])[H])C1([H])[H])c1c([H])c([H])c2c(c1[H])C([H])([H])C([H])([H])C1([H])C([H])(Oc3c([H])c([H])c4c(c3[H])C([H])([H])N(C(=O)C([H])(N([H])C(=O)C([H])(N([H])C([H])([H])[H])C([H])([H])[H])C(C([H])([H])[H])(C([H])([H])[H])C([H])([H])[H])C([H])(C(=O)N([H])C3([H])c5c([H])c([H])c([H])c([H])c5C([H])([H])C([H])([H])C3([H])[H])C4([H])[H])C(=O)C([H])([H])C([H])([H])C21C([H])([H])[H]

>  <smiles>  (10) 
[H]OC(=C([H])C(=O)N1C([H])([H])C([H])([H])C([H])([H])C([H])(n2nc(-c3c([H])c([H])c(Oc4c([H])c([H])c(F)c([H])c4F)c([H])c3[H])c(C(=O)N([H])[H])c2N([H])[H])C1([H])[H])c1c([H])c([H])c2c(c1[H])C([H])([H])C([H])([H])C1([H])C([H])(Oc3c([H])c([H])c4c(c3[H])C([H])([H])N(C(=O)C([H])(N([H])C(=O)C([H])(N([H])C([H])([H])[H])C([H])([H])[H])C(C([H])([H])[H])(C([H])([H])[H])C([H])([H])[H])C([H])(C(=O)N([H])C3([H])c5c([H])c([H])c([H])c([H])c5C([H])([H])C([H])([H])C3([H])[H])C4([H])[H])C(=O)C([H])([H])C([H])([H])C21C([H])([H])[H]

$$$$
10:0:0
     RDKit          3D

 87 90  0  0  1  0  0  0  0  0999 V2000
  -29.4700  -19.6330   19.9200 C   0  0  0  0  0  1  0  0  0  0  0  0
  -30.9030  -19.8110   19.6440 N   0  0  0  0  0  4  0  0  0  0  0  0
  -31.2240  -19.1220   18.9840 H   0  0  0  0  0  0  0  0  0  0  0  0
  -31.4300  -19.6980   20.4920 H   0  0  0  0  0  0  0  0  0  0  0  0
  -31.0900  -20.7170   19.2620 H   0  0  0  0  0  0  0  0  0  0  0  0
  -29.4570  -17.5530   21.8460 C   0  0  0  0  0  1  0  0  0  0  0  0
  -27.9620  -17.3660   19.8620 C   0  0  0  0  0  1  0  0  0  0  0  0
  -29.4110  -17.6220   20.3030 C   0  0  0  0  0  2  0  0  0  0  0  0
  -30.2200  -15.8740   19.8840 C   0  0  0  0  0  2  0  0  0  0  0  0
  -30.3140  -13.2890   18.9560 C   0  0  0  0  0  2  0  0  0  0  0  0
  -29.3490  -12.8990   17.7930 C   0  0  0  0  0  2  0  0  0  0  0  0
  -27.9540  -12.5180   18.3180 C   0  0  0  0  0  2  0  0  0  0  0  0
  -27.5170  -13.4680   19.4510 C   0  0  0  0  0  3  0  0  0  0  0  0
  -28.6220  -13.7730   20.4950 C   0  0  0  0  0  2  0  0  0  0  0  0
  -29.7480  -14.4570   19.8060 N   0  0  0  0  0  0  0  0  0  0  0  0
  -31.4240  -15.7950   19.5520 O   0  0  0  0  0  1  0  0  0  0  0  0
  -25.2260  -13.9550   20.4240 C   0  0  0  0  0  0  0  0  0  0  0  0
  -24.2050  -13.1700   20.8550 C   0  0  0  0  0  0  0  0  0  0  0  0
  -24.6720  -11.8230   20.7540 C   0  0  0  0  0  0  0  0  0  0  0  0
  -26.2510  -13.0990   20.0680 N   0  0  0  0  0  0  0  0  0  0  0  0
  -25.9380  -11.8020   20.3370 N   0  0  0  0  0  0  0  0  0  0  0  0
  -23.9550  -10.5600   20.9670 C   0  0  0  0  0  0  0  0  0  0  0  0
  -24.4280   -9.5780   21.8660 C   0  0  0  0  0  3  0  0  0  0  0  0
  -23.7010   -8.3820   22.0610 C   0  0  0  0  0  3  0  0  0  0  0  0
  -22.4870   -8.1670   21.3620 C   0  0  0  0  0  0  0  0  0  0  0  0
  -22.0370   -9.1380   20.4480 C   0  0  0  0  0  3  0  0  0  0  0  0
  -22.7660  -10.3230   20.2480 C   0  0  0  0  0  3  0  0  0  0  0  0
  -21.7260   -7.0280   21.4730 O   0  0  0  0  0  0  0  0  0  0  0  0
  -21.7080   -6.2840   22.6250 C   0  0  0  0  0  0  0  0  0  0  0  0
  -21.2990   -6.8300   23.8610 C   0  0  0  0  0  3  0  0  0  0  0  0
  -21.2230   -6.0090   25.0040 C   0  0  0  0  0  3  0  0  0  0  0  0
  -21.5500   -4.6430   24.9140 C   0  0  0  0  0  0  0  0  0  0  0  0
  -21.9490   -4.0950   23.6810 C   0  0  0  0  0  3  0  0  0  0  0  0
  -22.0230   -4.9120   22.5400 C   0  0  0  0  0  0  0  0  0  0  0  0
  -22.3870   -4.3720   21.3520 F   0  0  0  0  0  0  0  0  0  0  0  0
  -21.4780   -3.8540   26.0120 F   0  0  0  0  0  0  0  0  0  0  0  0
  -22.8280  -13.6430   21.2390 C   0  0  0  0  0  0  0  0  0  0  0  0
  -22.1550  -12.9360   22.1360 N   0  0  0  0  0  0  0  0  0  0  0  0
  -22.3630  -14.6830   20.7750 O   0  0  0  0  0  0  0  0  0  0  0  0
  -22.5550  -12.1060   22.5480 H   0  0  0  0  0  0  0  0  0  0  0  0
  -21.2290  -13.2290   22.4210 H   0  0  0  0  0  0  0  0  0  0  0  0
  -25.3510  -15.3330   20.2860 N   0  0  0  0  0  0  0  0  0  0  0  0
  -24.5610  -15.9400   20.4750 H   0  0  0  0  0  0  0  0  0  0  0  0
  -26.1580  -15.8330   19.9410 H   0  0  0  0  0  0  0  0  0  0  0  0
  -28.8380  -21.5060   20.5110 C   0  0  0  0  0 15  0  0  0  0  0  0
  -28.2370  -23.4130   19.9960 C   0  0  0  0  0  1  0  0  0  0  0  0
  -28.1640  -25.2240   20.4080 O   0  0  0  0  0  0  0  0  0  0  0  0
  -24.6370  -31.7470   23.1670 C   0  0  0  0  0  0  0  0  0  0  0  0
  -27.2230  -26.5180   20.2660 C   0  0  0  0  0  0  0  0  0  0  0  0
  -23.4940  -30.3400   21.5100 C   0  0  0  0  0  3  0  0  0  0  0  0
  -24.9800  -28.6620   20.1390 C   0  0  0  0  0  0  0  0  0  0  0  0
  -26.0830  -30.4360   21.4690 C   0  0  0  0  0  2  0  0  0  0  0  0
  -26.1620  -28.9880   20.8140 C   0  0  0  0  0  0  0  0  0  0  0  0
  -27.2530  -27.9420   20.8450 C   0  0  0  0  0  3  0  0  0  0  0  0
  -26.0090  -26.4520   19.5170 C   0  0  0  0  0  3  0  0  0  0  0  0
  -24.9540  -27.4270   19.4680 C   0  0  0  0  0  3  0  0  0  0  0  0
  -23.7790  -29.6280   20.1530 C   0  0  0  0  0  2  0  0  0  0  0  0
  -24.7620  -30.8780   22.1000 N   0  0  0  0  0  0  0  0  0  0  0  0
  -23.5310  -32.0540   23.6450 O   0  0  0  0  0  0  0  0  0  0  0  0
  -22.7440  -29.3740   22.4730 C   0  0  0  0  0  0  0  0  0  0  0  0
  -21.4120  -29.2240   22.3200 N   0  0  0  0  0  0  0  0  0  0  0  0
  -23.3750  -28.7570   23.3320 O   0  0  0  0  0  0  0  0  0  0  0  0
  -20.9490  -29.7600   21.6010 H   0  0  0  0  0  0  0  0  0  0  0  0
  -18.0180  -27.9910   22.7540 C   0  0  0  0  0  0  0  0  0  0  0  0
  -20.5690  -28.2940   23.0850 C   0  0  0  0  0  3  0  0  0  0  0  0
  -20.7030  -26.8530   22.5350 C   0  0  0  0  0  2  0  0  0  0  0  0
  -19.6330  -26.5080   21.4940 C   0  0  0  0  0  2  0  0  0  0  0  0
  -18.2300  -26.6400   22.0930 C   0  0  0  0  0  2  0  0  0  0  0  0
  -19.1140  -28.7760   23.2050 C   0  0  0  0  0  0  0  0  0  0  0  0
  -18.8550  -30.0380   23.7840 C   0  0  0  0  0  3  0  0  0  0  0  0
  -17.5350  -30.5130   23.9140 C   0  0  0  0  0  3  0  0  0  0  0  0
  -16.4560  -29.7250   23.4760 C   0  0  0  0  0  3  0  0  0  0  0  0
  -16.6990  -28.4660   22.9020 C   0  0  0  0  0  3  0  0  0  0  0  0
  -25.8780  -32.4110   23.8370 C   0  0  0  0  0  3  0  0  0  0  0  0
  -26.3430  -31.6670   25.1520 C   0  0  1  0  0  0  0  0  0  0  0  0
  -25.2100  -31.4530   26.1860 C   0  0  0  0  0  1  0  0  0  0  0  0
  -26.9350  -30.2770   24.8280 C   0  0  0  0  0  1  0  0  0  0  0  0
  -27.4650  -32.4740   25.8430 C   0  0  0  0  0  1  0  0  0  0  0  0
  -25.5440  -33.8150   24.1530 N   0  0  0  0  0  0  0  0  0  0  0  0
  -25.8890  -34.8800   23.4180 C   0  0  0  0  0  0  0  0  0  0  0  0
  -26.5700  -34.7830   22.3930 O   0  0  0  0  0  0  0  0  0  0  0  0
  -24.9340  -33.9630   24.9430 H   0  0  0  0  0  0  0  0  0  0  0  0
  -24.1590  -36.6810   23.0890 C   0  0  0  0  0  1  0  0  0  0  0  0
  -25.4060  -36.2680   23.8870 C   0  0  0  0  0  3  0  0  0  0  0  0
  -27.5370  -37.1750   24.7010 C   0  0  0  0  0  1  0  0  0  0  0  0
  -26.4300  -37.3270   23.7620 N   0  0  0  0  0  0  0  0  0  0  0  0
  -26.0190  -38.2460   23.9050 H   0  0  0  0  0  0  0  0  0  0  0  0
  2  1  1  0
  2  4  1  0
  3  2  1  0
  5  2  1  0
  7  8  1  0
  8  6  1  0
 10 15  1  0
 11 12  1  0
 11 10  1  0
 13 12  1  0
 13 20  1  0
 13 14  1  0
 15  9  1  0
 15 14  1  0
 16  9  1  0
 17 18  2  0
 18 37  1  0
 19 18  1  0
 19 22  1  0
 20 21  1  0
 20 17  1  0
 21 19  2  0
 22 23  1  0
 23 24  2  0
 25 28  1  0
 25 24  1  0
 26 25  2  0
 27 26  1  0
 27 22  2  0
 28 29  1  0
 29 30  1  0
 30 31  2  0
 32 31  1  0
 32 36  1  0
 33 32  2  0
 34 29  2  0
 34 33  1  0
 35 34  1  0
 37 38  1  0
 38 41  1  0
 38 40  1  0
 39 37  2  0
 42 17  1  0
 42 43  1  0
 44 42  1  0
 46 47  1  0
 48 59  2  0
 49 47  1  0
 49 54  1  0
 50 58  1  0
 50 60  1  0
 51 57  1  0
 51 53  1  0
 52 58  1  0
 53 54  2  0
 53 52  1  0
 55 49  2  0
 56 55  1  0
 56 51  2  0
 57 50  1  0
 58 48  1  0
 60 62  2  0
 61 60  1  0
 63 61  1  0
 64 73  2  0
 64 69  1  0
 65 61  1  0
 65 69  1  0
 66 65  1  0
 67 68  1  0
 67 66  1  0
 68 64  1  0
 69 70  2  0
 70 71  1  0
 72 71  2  0
 73 72  1  0
 74 48  1  0
 74 79  1  0
 74 75  1  0
 75 78  1  1
 75 76  1  0
 77 75  1  0
 79 82  1  0
 80 84  1  0
 80 79  1  0
 81 80  2  0
 84 83  1  0
 86 84  1  0
 86 87  1  0
 86 85  1  0
M  ISO  4   8 100   9 100  46 101  47 101
M  END
>  <TORSDO>  (11) 
F 20

>  <SCORE>  (11) 
-15.719

>  <name>  (11) 
10

>  <ligand_id>  (11) 
10

>  <original_smiles>  (11) 
[H]c1c([H])c([H])c2c(c1[H])C([H])([H])C([H])([H])C([H])([H])C2([H])N([H])C(=O)C1([H])N(C(=O)C([H])(N([H])C(=O)C([H])(N([H])C([H])([H])[H])C([H])([H])[H])C(C([H])([H])[H])(C([H])([H])[H])C([H])([H])[H])C([H])([H])c2c([H])c(OC([H])([H])C([H])([H])C([H])(C(C(=O)N3C([H])([H])C([H])([H])C([H])([H])C([H])(n4nc(-c5c([H])c([H])c(Oc6c([H])c([H])c(F)c([H])c6F)c([H])c5[H])c(C(=O)N([H])[H])c4N([H])[H])C3([H])[H])(C([H])([H])[H])C([H])([H])[H])[N+]([H])([H])[H])c([H])c([H])c2C1([H])[H]

>  <smiles>  (11) 
[H]c1c([H])c([H])c2c(c1[H])C([H])([H])C([H])([H])C([H])([H])C2([H])N([H])C(=O)C1([H])N(C(=O)C([H])(N([H])C(=O)C([H])(N([H])C([H])([H])[H])C([H])([H])[H])C(C([H])([H])[H])(C([H])([H])[H])C([H])([H])[H])C([H])([H])c2c([H])c(OC([H])([H])C([H])([H])C([H])(C(C(=O)N3C([H])([H])C([H])([H])C([H])([H])C([H])(n4nc(-c5c([H])c([H])c(Oc6c([H])c([H])c(F)c([H])c6F)c([H])c5[H])c(C(=O)N([H])[H])c4N([H])[H])C3([H])[H])(C([H])([H])[H])C([H])([H])[H])[N+]([H])([H])[H])c([H])c([H])c2C1([H])[H]

$$$$
11:0:0
     RDKit          3D

 94104  0  0  1  0  0  0  0  0999 V2000
  -28.6580  -23.4180   20.8440 C   0  0  0  0  0  3  0  0  0  0  0  0
  -28.3630  -22.7450   18.2210 C   0  0  0  0  0  3  0  0  0  0  0  0
  -28.8820  -21.9760   20.4410 C   0  0  0  0  0  0  0  0  0  0  0  0
  -28.7330  -21.6570   19.0780 C   0  0  0  0  0  0  0  0  0  0  0  0
  -28.2820  -24.5810   19.9700 C   0  0  0  0  0  0  0  0  0  0  0  0
  -28.1560  -24.1120   18.6270 C   0  0  0  0  0  0  0  0  0  0  0  0
  -29.2210  -20.6840   21.3760 C   0  0  0  0  0  2  0  0  0  0  0  0
  -31.6060  -20.7070   19.2910 C   0  0  0  0  0  2  0  0  0  0  0  0
  -30.6640  -20.2690   18.1380 C   0  0  0  0  0  2  0  0  0  0  0  0
  -31.5840  -19.8600   20.5890 C   0  0  0  0  0  2  0  0  0  0  0  0
  -28.7510  -18.7980   19.1450 C   0  0  0  0  0  2  0  0  0  0  0  0
  -29.1540  -20.2350   18.4890 C   0  0  0  0  0  3  0  0  0  0  0  0
  -30.1950  -19.3400   21.0360 C   0  0  0  0  0  3  0  0  0  0  0  0
  -29.8350  -18.0550   20.0460 C   0  0  0  0  0  3  0  0  0  0  0  0
  -27.8820  -25.0160   17.6560 F   0  0  0  0  0  0  0  0  0  0  0  0
  -30.4760  -15.2320   20.2590 C   0  0  0  0  0  0  0  0  0  0  0  0
  -30.4160  -12.8180   19.3730 C   0  0  0  0  0  2  0  0  0  0  0  0
  -29.4840  -12.6850   18.1430 C   0  0  0  0  0  2  0  0  0  0  0  0
  -28.0310  -12.4350   18.5870 C   0  0  0  0  0  2  0  0  0  0  0  0
  -27.6050  -13.3770   19.7410 C   0  0  0  0  0  3  0  0  0  0  0  0
  -28.6620  -13.4690   20.8630 C   0  0  0  0  0  2  0  0  0  0  0  0
  -29.9070  -13.9380   20.2380 N   0  0  0  0  0  0  0  0  0  0  0  0
  -31.6730  -15.2680   19.9450 O   0  0  0  0  0  0  0  0  0  0  0  0
  -29.7020  -16.4610   20.4290 N   0  0  0  0  0  0  0  0  0  0  0  0
  -28.7690  -16.2360   20.7460 H   0  0  0  0  0  0  0  0  0  0  0  0
  -25.2360  -13.9330   20.5110 C   0  0  0  0  0  0  0  0  0  0  0  0
  -24.1770  -13.1530   20.8850 C   0  0  0  0  0  0  0  0  0  0  0  0
  -24.6450  -11.8030   20.8400 C   0  0  0  0  0  0  0  0  0  0  0  0
  -26.2770  -13.0600   20.2530 N   0  0  0  0  0  0  0  0  0  0  0  0
  -25.9340  -11.7720   20.5180 N   0  0  0  0  0  0  0  0  0  0  0  0
  -23.9200  -10.5390   21.0260 C   0  0  0  0  0  0  0  0  0  0  0  0
  -24.3470   -9.5720   21.9620 C   0  0  0  0  0  3  0  0  0  0  0  0
  -23.6210   -8.3750   22.1370 C   0  0  0  0  0  3  0  0  0  0  0  0
  -22.4510   -8.1350   21.3760 C   0  0  0  0  0  0  0  0  0  0  0  0
  -22.0450   -9.0910   20.4280 C   0  0  0  0  0  3  0  0  0  0  0  0
  -22.7720  -10.2790   20.2510 C   0  0  0  0  0  3  0  0  0  0  0  0
  -21.6980   -6.9900   21.4600 O   0  0  0  0  0  0  0  0  0  0  0  0
  -21.6270   -6.2580   22.6180 C   0  0  0  0  0  0  0  0  0  0  0  0
  -21.1570   -6.8180   23.8270 C   0  0  0  0  0  3  0  0  0  0  0  0
  -21.0350   -6.0110   24.9760 C   0  0  0  0  0  3  0  0  0  0  0  0
  -21.3720   -4.6460   24.9180 C   0  0  0  0  0  0  0  0  0  0  0  0
  -21.8350   -4.0860   23.7140 C   0  0  0  0  0  3  0  0  0  0  0  0
  -21.9590   -4.8900   22.5680 C   0  0  0  0  0  0  0  0  0  0  0  0
  -22.3840   -4.3390   21.4050 F   0  0  0  0  0  0  0  0  0  0  0  0
  -21.2480   -3.8690   26.0200 F   0  0  0  0  0  0  0  0  0  0  0  0
  -22.7820  -13.6270   21.1670 C   0  0  0  0  0  0  0  0  0  0  0  0
  -22.0600  -12.9270   22.0350 N   0  0  0  0  0  0  0  0  0  0  0  0
  -22.3400  -14.6540   20.6540 O   0  0  0  0  0  0  0  0  0  0  0  0
  -22.4310  -12.0970   22.4730 H   0  0  0  0  0  0  0  0  0  0  0  0
  -21.1240  -13.2270   22.2670 H   0  0  0  0  0  0  0  0  0  0  0  0
  -25.3940  -15.3060   20.3420 N   0  0  0  0  0  0  0  0  0  0  0  0
  -24.6210  -15.9530   20.4560 H   0  0  0  0  0  0  0  0  0  0  0  0
  -26.2260  -15.7460   19.9710 H   0  0  0  0  0  0  0  0  0  0  0  0
  -28.2560  -26.0680   20.2690 O   0  0  0  0  0  0  0  0  0  0  0  0
  -24.6450  -31.8910   23.2400 C   0  0  0  0  0  0  0  0  0  0  0  0
  -27.1970  -27.0880   20.1860 C   0  0  0  0  0  0  0  0  0  0  0  0
  -23.4370  -30.4930   21.6100 C   0  0  0  0  0  3  0  0  0  0  0  0
  -24.8750  -28.9010   20.1700 C   0  0  0  0  0  0  0  0  0  0  0  0
  -25.9950  -30.7320   21.4320 C   0  0  0  0  0  2  0  0  0  0  0  0
  -26.0620  -29.3300   20.7760 C   0  0  0  0  0  0  0  0  0  0  0  0
  -27.2160  -28.4400   20.7640 C   0  0  0  0  0  3  0  0  0  0  0  0
  -25.9810  -26.7880   19.5360 C   0  0  0  0  0  3  0  0  0  0  0  0
  -24.8540  -27.6480   19.5330 C   0  0  0  0  0  3  0  0  0  0  0  0
  -23.6510  -29.8100   20.2310 C   0  0  0  0  0  2  0  0  0  0  0  0
  -24.7140  -31.0640   22.1480 N   0  0  0  0  0  0  0  0  0  0  0  0
  -23.5630  -32.1760   23.7740 O   0  0  0  0  0  0  0  0  0  0  0  0
  -22.7590  -29.4910   22.5810 C   0  0  0  0  0  0  0  0  0  0  0  0
  -21.4310  -29.3170   22.4610 N   0  0  0  0  0  0  0  0  0  0  0  0
  -23.4340  -28.8740   23.4080 O   0  0  0  0  0  0  0  0  0  0  0  0
  -20.9400  -29.8670   21.7710 H   0  0  0  0  0  0  0  0  0  0  0  0
  -18.0610  -28.0770   22.9690 C   0  0  0  0  0  0  0  0  0  0  0  0
  -20.6170  -28.3760   23.2360 C   0  0  0  0  0  3  0  0  0  0  0  0
  -20.7350  -26.9400   22.6720 C   0  0  0  0  0  2  0  0  0  0  0  0
  -19.6400  -26.5960   21.6580 C   0  0  0  0  0  2  0  0  0  0  0  0
  -18.2560  -26.7270   22.2990 C   0  0  0  0  0  2  0  0  0  0  0  0
  -19.1690  -28.8580   23.3930 C   0  0  0  0  0  0  0  0  0  0  0  0
  -18.9300  -30.1190   23.9830 C   0  0  0  0  0  3  0  0  0  0  0  0
  -17.6190  -30.6010   24.1490 C   0  0  0  0  0  3  0  0  0  0  0  0
  -16.5260  -29.8180   23.7360 C   0  0  0  0  0  3  0  0  0  0  0  0
  -16.7480  -28.5570   23.1530 C   0  0  0  0  0  3  0  0  0  0  0  0
  -25.9250  -32.5310   23.8600 C   0  0  0  0  0  3  0  0  0  0  0  0
  -25.6090  -33.9280   24.2070 N   0  0  0  0  0  0  0  0  0  0  0  0
  -25.9070  -34.9910   23.4480 C   0  0  0  0  0  0  0  0  0  0  0  0
  -26.5400  -34.9000   22.3930 O   0  0  0  0  0  0  0  0  0  0  0  0
  -25.0430  -34.0700   25.0300 H   0  0  0  0  0  0  0  0  0  0  0  0
  -24.1420  -36.7680   23.1870 C   0  0  0  0  0  1  0  0  0  0  0  0
  -25.4270  -36.3740   23.9330 C   0  0  0  0  0  3  0  0  0  0  0  0
  -27.5870  -37.2880   24.6630 C   0  0  0  0  0  1  0  0  0  0  0  0
  -26.4400  -37.4400   23.7730 N   0  0  0  0  0  0  0  0  0  0  0  0
  -26.0300  -38.3560   23.9390 H   0  0  0  0  0  0  0  0  0  0  0  0
  -26.4470  -31.7600   25.1360 C   0  0  1  0  0  0  0  0  0  0  0  0
  -25.3580  -31.5220   26.2090 C   0  0  0  0  0  1  0  0  0  0  0  0
  -27.0300  -30.3820   24.7480 C   0  0  0  0  0  1  0  0  0  0  0  0
  -27.5990  -32.5550   25.7940 C   0  0  0  0  0  1  0  0  0  0  0  0
  2  6  2  0
  2  4  1  0
  3  1  1  0
  3  7  1  0
  4  3  2  0
  5 54  1  0
  5  1  2  0
  6  5  1  0
  8 10  1  0
  9  8  1  0
 11 14  1  0
 12  9  1  0
 12  4  1  0
 12 11  1  0
 13 10  1  0
 13  7  1  0
 14 24  1  0
 14 13  1  0
 15  6  1  0
 16 24  1  0
 17 22  1  0
 18 19  1  0
 18 17  1  0
 20 19  1  0
 20 29  1  0
 20 21  1  0
 22 16  1  0
 22 21  1  0
 23 16  2  0
 24 25  1  0
 26 27  2  0
 27 46  1  0
 28 27  1  0
 28 31  1  0
 29 26  1  0
 29 30  1  0
 30 28  2  0
 31 32  1  0
 32 33  2  0
 34 37  1  0
 34 33  1  0
 35 34  2  0
 36 35  1  0
 36 31  2  0
 37 38  1  0
 38 39  1  0
 39 40  2  0
 41 40  1  0
 41 45  1  0
 42 41  2  0
 43 38  2  0
 43 42  1  0
 44 43  1  0
 46 47  1  0
 47 50  1  0
 47 49  1  0
 48 46  2  0
 51 52  1  0
 51 26  1  0
 53 51  1  0
 55 66  2  0
 56 54  1  0
 56 61  1  0
 57 65  1  0
 57 67  1  0
 58 64  1  0
 58 60  1  0
 59 65  1  0
 60 59  1  0
 61 60  2  0
 62 56  2  0
 63 62  1  0
 63 58  2  0
 64 57  1  0
 65 55  1  0
 67 69  2  0
 68 67  1  0
 70 68  1  0
 71 80  2  0
 71 76  1  0
 72 68  1  0
 72 76  1  0
 73 72  1  0
 74 75  1  0
 74 73  1  0
 75 71  1  0
 76 77  2  0
 77 78  1  0
 79 78  2  0
 80 79  1  0
 81 55  1  0
 81 82  1  0
 81 91  1  0
 82 85  1  0
 83 87  1  0
 83 82  1  0
 84 83  2  0
 87 86  1  0
 89 87  1  0
 89 90  1  0
 89 88  1  0
 91 94  1  1
 91 92  1  0
 93 91  1  0
M  ISO  4   5 101  16 100  24 100  54 101
M  END
>  <TORSDO>  (12) 
F 16

>  <SCORE>  (12) 
-15.718

>  <name>  (12) 
11

>  <ligand_id>  (12) 
11

>  <original_smiles>  (12) 
[H]c1c([H])c([H])c2c(c1[H])C([H])([H])C([H])([H])C([H])([H])C2([H])N([H])C(=O)C1([H])N(C(=O)C([H])(N([H])C(=O)C([H])(N([H])C([H])([H])[H])C([H])([H])[H])C(C([H])([H])[H])(C([H])([H])[H])C([H])([H])[H])C([H])([H])c2c([H])c(Oc3c([H])c4c(c([H])c3F)C3([H])C([H])([H])C([H])([H])C([H])([H])C([H])(C4([H])[H])C([H])(N([H])C(=O)N4C([H])([H])C([H])([H])C([H])([H])C([H])(n5nc(-c6c([H])c([H])c(Oc7c([H])c([H])c(F)c([H])c7F)c([H])c6[H])c(C(=O)N([H])[H])c5N([H])[H])C4([H])[H])C3([H])[H])c([H])c([H])c2C1([H])[H]

>  <smiles>  (12) 
[H]c1c([H])c([H])c2c(c1[H])C([H])([H])C([H])([H])C([H])([H])C2([H])N([H])C(=O)C1([H])N(C(=O)C([H])(N([H])C(=O)C([H])(N([H])C([H])([H])[H])C([H])([H])[H])C(C([H])([H])[H])(C([H])([H])[H])C([H])([H])[H])C([H])([H])c2c([H])c(Oc3c([H])c4c(c([H])c3F)C3([H])C([H])([H])C([H])([H])C([H])([H])C([H])(C4([H])[H])C([H])(N([H])C(=O)N4C([H])([H])C([H])([H])C([H])([H])C([H])(n5nc(-c6c([H])c([H])c(Oc7c([H])c([H])c(F)c([H])c7F)c([H])c6[H])c(C(=O)N([H])[H])c5N([H])[H])C4([H])[H])C3([H])[H])c([H])c([H])c2C1([H])[H]

$$$$
12:0:0
     RDKit          3D

 94102  0  0  1  0  0  0  0  0999 V2000
  -29.6640  -21.6820   19.9130 C   0  0  0  0  0  0  0  0  0  0  0  0
  -29.9360  -22.8300   20.5670 N   0  0  0  0  0  0  0  0  0  0  0  0
  -29.1200  -21.6810   18.8080 O   0  0  0  0  0  0  0  0  0  0  0  0
  -30.3700  -22.7330   21.4770 H   0  0  0  0  0  0  0  0  0  0  0  0
  -30.1170  -20.3510   20.5700 C   0  0  0  0  0  3  0  0  0  0  0  0
  -29.5530  -19.0410   19.9290 C   0  0  0  0  0  3  0  0  0  0  0  0
  -30.9380  -16.3890   22.3870 C   0  0  0  0  0  3  0  0  0  0  0  0
  -30.9830  -15.3620   20.1670 C   0  0  0  0  0  0  0  0  0  0  0  0
  -31.2880  -15.3120   21.5550 C   0  0  0  0  0  0  0  0  0  0  0  0
  -30.3500  -17.5600   21.8780 C   0  0  0  0  0  0  0  0  0  0  0  0
  -30.4150  -16.5760   19.6340 C   0  0  0  0  0  0  0  0  0  0  0  0
  -30.1290  -17.7020   20.4820 C   0  0  0  0  0  0  0  0  0  0  0  0
  -32.0100  -14.1340   22.2060 C   0  0  0  0  0  1  0  0  0  0  0  0
  -29.9790  -18.6370   22.8890 C   0  0  0  0  0  1  0  0  0  0  0  0
  -30.0830  -16.6940   18.1440 C   0  0  0  0  0  1  0  0  0  0  0  0
  -31.3570  -14.1880   19.2650 C   0  0  0  0  0  0  0  0  0  0  0  0
  -30.6550  -12.1520   18.0520 C   0  0  0  0  0  2  0  0  0  0  0  0
  -29.5480  -12.5090   17.0380 C   0  0  0  0  0  2  0  0  0  0  0  0
  -28.1610  -12.4410   17.7070 C   0  0  0  0  0  2  0  0  0  0  0  0
  -28.1110  -13.2180   19.0490 C   0  0  0  0  0  3  0  0  0  0  0  0
  -29.3140  -12.8640   19.9450 C   0  0  0  0  0  2  0  0  0  0  0  0
  -30.5510  -13.0910   19.1820 N   0  0  0  0  0  0  0  0  0  0  0  0
  -32.3630  -14.3150   18.5590 O   0  0  0  0  0  0  0  0  0  0  0  0
  -25.9530  -13.9460   20.2430 C   0  0  0  0  0  0  0  0  0  0  0  0
  -24.8950  -13.2320   20.7380 C   0  0  0  0  0  0  0  0  0  0  0  0
  -25.2080  -11.8550   20.5160 C   0  0  0  0  0  0  0  0  0  0  0  0
  -26.8460  -13.0080   19.7480 N   0  0  0  0  0  0  0  0  0  0  0  0
  -26.4120  -11.7400   19.9700 N   0  0  0  0  0  0  0  0  0  0  0  0
  -24.4050  -10.6460   20.7370 C   0  0  0  0  0  0  0  0  0  0  0  0
  -24.8180   -9.6400   21.6400 C   0  0  0  0  0  3  0  0  0  0  0  0
  -24.0200   -8.4930   21.8470 C   0  0  0  0  0  3  0  0  0  0  0  0
  -22.7950   -8.3460   21.1530 C   0  0  0  0  0  0  0  0  0  0  0  0
  -22.3990   -9.3400   20.2410 C   0  0  0  0  0  3  0  0  0  0  0  0
  -23.1970  -10.4780   20.0310 C   0  0  0  0  0  3  0  0  0  0  0  0
  -21.9680   -7.2560   21.2720 O   0  0  0  0  0  0  0  0  0  0  0  0
  -21.8040   -6.6030   22.4680 C   0  0  0  0  0  0  0  0  0  0  0  0
  -21.3400   -7.2680   23.6230 C   0  0  0  0  0  3  0  0  0  0  0  0
  -21.1190   -6.5450   24.8130 C   0  0  0  0  0  3  0  0  0  0  0  0
  -21.3520   -5.1580   24.8470 C   0  0  0  0  0  0  0  0  0  0  0  0
  -21.8100   -4.4920   23.6960 C   0  0  0  0  0  3  0  0  0  0  0  0
  -22.0310   -5.2120   22.5090 C   0  0  0  0  0  0  0  0  0  0  0  0
  -22.4510   -4.5620   21.3970 F   0  0  0  0  0  0  0  0  0  0  0  0
  -21.1340   -4.4600   25.9860 F   0  0  0  0  0  0  0  0  0  0  0  0
  -23.6230  -13.7960   21.3030 C   0  0  0  0  0  0  0  0  0  0  0  0
  -23.0670  -13.1540   22.3250 N   0  0  0  0  0  0  0  0  0  0  0  0
  -23.1390  -14.8400   20.8700 O   0  0  0  0  0  0  0  0  0  0  0  0
  -23.4730  -12.3090   22.6970 H   0  0  0  0  0  0  0  0  0  0  0  0
  -22.2210  -13.5160   22.7430 H   0  0  0  0  0  0  0  0  0  0  0  0
  -26.2200  -15.3080   20.1510 N   0  0  0  0  0  0  0  0  0  0  0  0
  -25.5670  -16.0130   20.4750 H   0  0  0  0  0  0  0  0  0  0  0  0
  -27.0730  -15.7010   19.7730 H   0  0  0  0  0  0  0  0  0  0  0  0
  -29.8630  -24.2150   20.0510 C   0  0  0  0  0  2  0  0  0  0  0  0
  -28.5250  -24.9530   20.3170 C   0  0  0  0  0  2  0  0  0  0  0  0
  -28.6430  -26.3930   20.1920 O   0  0  0  0  0  0  0  0  0  0  0  0
  -24.5860  -31.5590   23.0310 C   0  0  0  0  0  0  0  0  0  0  0  0
  -27.4650  -27.1230   20.1200 C   0  0  0  0  0  0  0  0  0  0  0  0
  -23.4960  -30.1290   21.3340 C   0  0  0  0  0  3  0  0  0  0  0  0
  -25.0510  -28.6140   19.9960 C   0  0  0  0  0  0  0  0  0  0  0  0
  -26.0270  -30.5260   21.2720 C   0  0  0  0  0  2  0  0  0  0  0  0
  -26.1710  -29.1520   20.6410 C   0  0  0  0  0  0  0  0  0  0  0  0
  -27.3820  -28.4170   20.6940 C   0  0  0  0  0  3  0  0  0  0  0  0
  -26.3210  -26.6100   19.4640 C   0  0  0  0  0  3  0  0  0  0  0  0
  -25.1240  -27.3440   19.4010 C   0  0  0  0  0  3  0  0  0  0  0  0
  -23.7930  -29.4520   19.9710 C   0  0  0  0  0  2  0  0  0  0  0  0
  -24.7190  -30.7540   21.9370 N   0  0  0  0  0  0  0  0  0  0  0  0
  -23.4730  -31.8130   23.5090 O   0  0  0  0  0  0  0  0  0  0  0  0
  -22.8130  -29.0990   22.2630 C   0  0  0  0  0  0  0  0  0  0  0  0
  -21.4820  -28.9640   22.1330 N   0  0  0  0  0  0  0  0  0  0  0  0
  -23.4760  -28.4270   23.0560 O   0  0  0  0  0  0  0  0  0  0  0  0
  -21.0100  -29.5580   21.4650 H   0  0  0  0  0  0  0  0  0  0  0  0
  -18.0610  -27.9300   22.6700 C   0  0  0  0  0  0  0  0  0  0  0  0
  -20.6370  -28.0290   22.8740 C   0  0  0  0  0  3  0  0  0  0  0  0
  -20.6400  -26.6320   22.2130 C   0  0  0  0  0  2  0  0  0  0  0  0
  -19.4930  -26.4310   21.2180 C   0  0  0  0  0  2  0  0  0  0  0  0
  -18.1410  -26.6140   21.9140 C   0  0  0  0  0  2  0  0  0  0  0  0
  -19.2330  -28.6010   23.1070 C   0  0  0  0  0  0  0  0  0  0  0  0
  -19.1040  -29.8390   23.7750 C   0  0  0  0  0  3  0  0  0  0  0  0
  -17.8360  -30.4020   24.0100 C   0  0  0  0  0  3  0  0  0  0  0  0
  -16.6790  -29.7240   23.5890 C   0  0  0  0  0  3  0  0  0  0  0  0
  -16.7920  -28.4900   22.9250 C   0  0  0  0  0  3  0  0  0  0  0  0
  -25.8250  -32.2160   23.7150 C   0  0  0  0  0  3  0  0  0  0  0  0
  -25.4550  -33.5930   24.0710 N   0  0  0  0  0  0  0  0  0  0  0  0
  -25.8040  -34.6800   23.3710 C   0  0  0  0  0  0  0  0  0  0  0  0
  -26.5420  -34.6310   22.3820 O   0  0  0  0  0  0  0  0  0  0  0  0
  -24.8040  -33.7030   24.8360 H   0  0  0  0  0  0  0  0  0  0  0  0
  -24.0490  -36.4340   22.9650 C   0  0  0  0  0  1  0  0  0  0  0  0
  -25.2470  -36.0370   23.8420 C   0  0  0  0  0  3  0  0  0  0  0  0
  -27.2900  -36.9570   24.8450 C   0  0  0  0  0  1  0  0  0  0  0  0
  -26.2520  -37.1220   23.8310 N   0  0  0  0  0  0  0  0  0  0  0  0
  -25.8090  -38.0250   23.9740 H   0  0  0  0  0  0  0  0  0  0  0  0
  -26.3250  -31.4270   24.9870 C   0  0  1  0  0  0  0  0  0  0  0  0
  -25.2060  -31.1250   26.0110 C   0  0  0  0  0  1  0  0  0  0  0  0
  -26.9650  -30.0800   24.5750 C   0  0  0  0  0  1  0  0  0  0  0  0
  -27.4270  -32.2380   25.7070 C   0  0  0  0  0  1  0  0  0  0  0  0
  1  2  1  0
  1  5  1  0
  2  4  1  0
  3  1  2  0
  6 12  1  0
  6  5  2  0
  8  9  1  0
  9 13  1  0
  9  7  2  0
 10  7  1  0
 10 14  1  0
 11  8  2  0
 11 12  1  0
 12 10  2  0
 15 11  1  0
 16  8  1  0
 17 22  1  0
 18 19  1  0
 18 17  1  0
 20 19  1  0
 20 27  1  0
 20 21  1  0
 22 16  1  0
 22 21  1  0
 23 16  2  0
 24 25  2  0
 25 44  1  0
 26 29  1  0
 26 25  1  0
 27 28  1  0
 27 24  1  0
 28 26  2  0
 29 30  1  0
 30 31  2  0
 32 35  1  0
 32 31  1  0
 33 32  2  0
 34 33  1  0
 34 29  2  0
 35 36  1  0
 36 41  2  0
 36 37  1  0
 37 38  2  0
 38 39  1  0
 39 43  1  0
 40 39  2  0
 41 40  1  0
 42 41  1  0
 44 45  1  0
 45 47  1  0
 45 48  1  0
 46 44  2  0
 49 24  1  0
 49 50  1  0
 51 49  1  0
 52 53  1  0
 52  2  1  0
 54 53  1  0
 55 66  2  0
 56 54  1  0
 56 61  1  0
 57 65  1  0
 57 67  1  0
 58 60  1  0
 59 65  1  0
 60 61  2  0
 60 59  1  0
 62 56  2  0
 63 62  1  0
 63 58  2  0
 64 58  1  0
 64 57  1  0
 65 55  1  0
 67 69  2  0
 68 67  1  0
 70 68  1  0
 71 80  2  0
 71 76  1  0
 72 68  1  0
 72 76  1  0
 73 72  1  0
 74 75  1  0
 74 73  1  0
 75 71  1  0
 76 77  2  0
 77 78  1  0
 79 78  2  0
 80 79  1  0
 81 55  1  0
 81 82  1  0
 81 91  1  0
 82 85  1  0
 83 87  1  0
 83 82  1  0
 84 83  2  0
 87 86  1  0
 89 87  1  0
 89 90  1  0
 89 88  1  0
 91 94  1  1
 91 92  1  0
 93 91  1  0
M  ISO  4   8 100  16 100  53 101  54 101
M  END
>  <TORSDO>  (13) 
F 21

>  <SCORE>  (13) 
-8.938

>  <name>  (13) 
12

>  <ligand_id>  (13) 
12

>  <original_smiles>  (13) 
[H]c1c([H])c([H])c2c(c1[H])C([H])([H])C([H])([H])C([H])([H])C2([H])N([H])C(=O)C1([H])N(C(=O)C([H])(N([H])C(=O)C([H])(N([H])C([H])([H])[H])C([H])([H])[H])C(C([H])([H])[H])(C([H])([H])[H])C([H])([H])[H])C([H])([H])c2c([H])c(OC([H])([H])C([H])([H])N([H])C(=O)C([H])([H])C([H])([H])c3c(C([H])([H])[H])c([H])c(C([H])([H])[H])c(C(=O)N4C([H])([H])C([H])([H])C([H])([H])C([H])(n5nc(-c6c([H])c([H])c(Oc7c([H])c([H])c(F)c([H])c7F)c([H])c6[H])c(C(=O)N([H])[H])c5N([H])[H])C4([H])[H])c3C([H])([H])[H])c([H])c([H])c2C1([H])[H]

>  <smiles>  (13) 
[H]c1c([H])c([H])c2c(c1[H])C([H])([H])C([H])([H])C([H])([H])C2([H])N([H])C(=O)C1([H])N(C(=O)C([H])(N([H])C(=O)C([H])(N([H])C([H])([H])[H])C([H])([H])[H])C(C([H])([H])[H])(C([H])([H])[H])C([H])([H])[H])C([H])([H])c2c([H])c(OC([H])([H])C([H])([H])N([H])C(=O)C([H])([H])C([H])([H])c3c(C([H])([H])[H])c([H])c(C([H])([H])[H])c(C(=O)N4C([H])([H])C([H])([H])C([H])([H])C([H])(n5nc(-c6c([H])c([H])c(Oc7c([H])c([H])c(F)c([H])c7F)c([H])c6[H])c(C(=O)N([H])[H])c5N([H])[H])C4([H])[H])c3C([H])([H])[H])c([H])c([H])c2C1([H])[H]

$$$$
13:0:0
     RDKit          3D

 96106  0  0  1  0  0  0  0  0999 V2000
  -30.2810  -15.2530   20.1160 C   0  0  0  0  0  0  0  0  0  0  0  0
  -30.2840  -12.7360   19.3470 C   0  0  0  0  0  2  0  0  0  0  0  0
  -29.3530  -12.3850   18.1570 C   0  0  0  0  0  2  0  0  0  0  0  0
  -27.9350  -12.0760   18.6570 C   0  0  0  0  0  2  0  0  0  0  0  0
  -27.4730  -13.0890   19.7340 C   0  0  0  0  0  3  0  0  0  0  0  0
  -28.5390  -13.3820   20.8110 C   0  0  0  0  0  2  0  0  0  0  0  0
  -29.7100  -13.9280   20.1040 N   0  0  0  0  0  0  0  0  0  0  0  0
  -31.4950  -15.1780   19.8550 O   0  0  0  0  0  0  0  0  0  0  0  0
  -30.4090  -21.2350   19.6360 C   0  0  0  0  0  3  0  0  0  0  0  0
  -31.6370  -21.4280   20.3860 C   0  0  0  0  0  0  0  0  0  0  0  0
  -30.4310  -21.9990   18.4790 C   0  0  0  0  0  3  0  0  0  0  0  0
  -32.6430  -21.9390   19.5920 C   0  0  0  0  0  0  0  0  0  0  0  0
  -29.2700  -22.4760   17.6340 C   0  0  0  0  0  2  0  0  0  0  0  0
  -28.6080  -23.7990   18.1280 C   0  0  0  0  0  2  0  0  0  0  0  0
  -28.9040  -19.2560   18.9810 C   0  0  0  0  0  2  0  0  0  0  0  0
  -29.2730  -19.3020   21.1850 C   0  0  0  0  0  2  0  0  0  0  0  0
  -28.1260  -22.1120   20.2290 C   0  0  0  0  0  2  0  0  0  0  0  0
  -29.8040  -17.7880   19.0240 C   0  0  0  0  0  2  0  0  0  0  0  0
  -29.0010  -17.6000   21.1060 C   0  0  0  0  0  2  0  0  0  0  0  0
  -28.3350  -23.8660   19.6480 C   0  0  0  0  0  3  0  0  0  0  0  0
  -29.1060  -20.5380   20.0330 C   0  0  1  0  0  0  0  0  0  0  0  0
  -34.0960  -22.1210   19.9000 C   0  0  0  0  0  1  0  0  0  0  0  0
  -29.5860  -16.6170   20.0410 N   0  0  0  0  0  0  0  0  0  0  0  0
  -32.0340  -22.5220   18.0770 S   0  0  0  0  0  0  0  0  0  0  0  0
  -25.1530  -13.6270   20.6200 C   0  0  0  0  0  0  0  0  0  0  0  0
  -24.1010  -12.8460   21.0050 C   0  0  0  0  0  0  0  0  0  0  0  0
  -24.5550  -11.4950   20.9080 C   0  0  0  0  0  0  0  0  0  0  0  0
  -26.1750  -12.7540   20.3000 N   0  0  0  0  0  0  0  0  0  0  0  0
  -25.8320  -11.4610   20.5410 N   0  0  0  0  0  0  0  0  0  0  0  0
  -23.8230  -10.2330   21.0850 C   0  0  0  0  0  0  0  0  0  0  0  0
  -24.2750   -9.2350   21.9750 C   0  0  0  0  0  3  0  0  0  0  0  0
  -23.5410   -8.0400   22.1450 C   0  0  0  0  0  3  0  0  0  0  0  0
  -22.3400   -7.8360   21.4250 C   0  0  0  0  0  0  0  0  0  0  0  0
  -21.9060   -8.8230   20.5220 C   0  0  0  0  0  3  0  0  0  0  0  0
  -22.6400  -10.0090   20.3500 C   0  0  0  0  0  3  0  0  0  0  0  0
  -21.5740   -6.6980   21.5070 O   0  0  0  0  0  0  0  0  0  0  0  0
  -21.5460   -5.9280   22.6410 C   0  0  0  0  0  0  0  0  0  0  0  0
  -21.1450   -6.4550   23.8890 C   0  0  0  0  0  3  0  0  0  0  0  0
  -21.0660   -5.6130   25.0160 C   0  0  0  0  0  3  0  0  0  0  0  0
  -21.3740   -4.2450   24.8960 C   0  0  0  0  0  0  0  0  0  0  0  0
  -21.7650   -3.7170   23.6530 C   0  0  0  0  0  3  0  0  0  0  0  0
  -21.8480   -4.5560   22.5290 C   0  0  0  0  0  0  0  0  0  0  0  0
  -22.2060   -4.0390   21.3280 F   0  0  0  0  0  0  0  0  0  0  0  0
  -21.2900   -3.4320   25.9760 F   0  0  0  0  0  0  0  0  0  0  0  0
  -22.7220  -13.3270   21.3440 C   0  0  0  0  0  0  0  0  0  0  0  0
  -22.0290  -12.6210   22.2290 N   0  0  0  0  0  0  0  0  0  0  0  0
  -22.2700  -14.3630   20.8590 O   0  0  0  0  0  0  0  0  0  0  0  0
  -22.4120  -11.7850   22.6480 H   0  0  0  0  0  0  0  0  0  0  0  0
  -21.1010  -12.9200   22.4950 H   0  0  0  0  0  0  0  0  0  0  0  0
  -25.3250  -15.0020   20.4830 N   0  0  0  0  0  0  0  0  0  0  0  0
  -24.5730  -15.6620   20.6540 H   0  0  0  0  0  0  0  0  0  0  0  0
  -26.1680  -15.4430   20.1410 H   0  0  0  0  0  0  0  0  0  0  0  0
  -28.0330  -25.5120   20.0100 O   0  0  0  0  0  0  0  0  0  0  0  0
  -24.4370  -31.5370   22.9180 C   0  0  0  0  0  0  0  0  0  0  0  0
  -26.9980  -26.6120   19.8610 C   0  0  0  0  0  0  0  0  0  0  0  0
  -23.2340  -30.1240   21.2960 C   0  0  0  0  0  3  0  0  0  0  0  0
  -24.6800  -28.5190   19.8440 C   0  0  0  0  0  0  0  0  0  0  0  0
  -25.7970  -30.3430   21.1140 C   0  0  0  0  0  2  0  0  0  0  0  0
  -25.8710  -28.9250   20.4550 C   0  0  0  0  0  0  0  0  0  0  0  0
  -27.0130  -27.9900   20.4410 C   0  0  0  0  0  3  0  0  0  0  0  0
  -25.7790  -26.3820   19.1830 C   0  0  0  0  0  3  0  0  0  0  0  0
  -24.6650  -27.2740   19.1860 C   0  0  0  0  0  3  0  0  0  0  0  0
  -23.4520  -29.4330   19.9180 C   0  0  0  0  0  2  0  0  0  0  0  0
  -24.5130  -30.6980   21.8290 N   0  0  0  0  0  0  0  0  0  0  0  0
  -23.3530  -31.8140   23.4570 O   0  0  0  0  0  0  0  0  0  0  0  0
  -22.5620  -29.1280   22.2800 C   0  0  0  0  0  0  0  0  0  0  0  0
  -21.2260  -28.9770   22.2060 N   0  0  0  0  0  0  0  0  0  0  0  0
  -23.2520  -28.4910   23.0800 O   0  0  0  0  0  0  0  0  0  0  0  0
  -20.7210  -29.5420   21.5390 H   0  0  0  0  0  0  0  0  0  0  0  0
  -17.8590  -27.7740   22.8330 C   0  0  0  0  0  0  0  0  0  0  0  0
  -20.4280  -28.0320   22.9970 C   0  0  0  0  0  3  0  0  0  0  0  0
  -20.5000  -26.6060   22.3990 C   0  0  0  0  0  2  0  0  0  0  0  0
  -19.3580  -26.3020   21.4230 C   0  0  0  0  0  2  0  0  0  0  0  0
  -18.0050  -26.4390   22.1240 C   0  0  0  0  0  2  0  0  0  0  0  0
  -18.9950  -28.5300   23.2290 C   0  0  0  0  0  0  0  0  0  0  0  0
  -18.8010  -29.7780   23.8580 C   0  0  0  0  0  3  0  0  0  0  0  0
  -17.5030  -30.2740   24.0890 C   0  0  0  0  0  3  0  0  0  0  0  0
  -16.3820  -29.5170   23.7060 C   0  0  0  0  0  3  0  0  0  0  0  0
  -16.5620  -28.2680   23.0850 C   0  0  0  0  0  3  0  0  0  0  0  0
  -25.7080  -32.1990   23.5320 C   0  0  0  0  0  3  0  0  0  0  0  0
  -25.3580  -33.5730   23.9380 N   0  0  0  0  0  0  0  0  0  0  0  0
  -25.6890  -34.6830   23.2640 C   0  0  0  0  0  0  0  0  0  0  0  0
  -26.3800  -34.6590   22.2430 O   0  0  0  0  0  0  0  0  0  0  0  0
  -24.7420  -33.6650   24.7330 H   0  0  0  0  0  0  0  0  0  0  0  0
  -23.9400  -36.4780   23.0060 C   0  0  0  0  0  1  0  0  0  0  0  0
  -25.1760  -36.0340   23.8050 C   0  0  0  0  0  3  0  0  0  0  0  0
  -27.2790  -36.9000   24.7310 C   0  0  0  0  0  1  0  0  0  0  0  0
  -26.1930  -37.1090   23.7780 N   0  0  0  0  0  0  0  0  0  0  0  0
  -25.7680  -38.0110   23.9740 H   0  0  0  0  0  0  0  0  0  0  0  0
  -26.2850  -31.4040   24.7690 C   0  0  1  0  0  0  0  0  0  0  0  0
  -25.2330  -31.1080   25.8650 C   0  0  0  0  0  1  0  0  0  0  0  0
  -26.8860  -30.0520   24.3260 C   0  0  0  0  0  1  0  0  0  0  0  0
  -27.4400  -32.2050   25.4160 C   0  0  0  0  0  1  0  0  0  0  0  0
  -31.8460  -21.1640   21.8670 C   0  0  0  0  0  2  0  0  0  0  0  0
  -29.9960  -22.7330   22.7220 C   0  0  0  0  0  1  0  0  0  0  0  0
  -31.4790  -22.3350   22.7980 C   0  0  0  0  0  2  0  0  0  0  0  0
  2  7  1  0
  3  4  1  0
  3  2  1  0
  5  4  1  0
  5 28  1  0
  5  6  1  0
  7  1  1  0
  7  6  1  0
  8  1  2  0
  9 21  1  0
  9 10  1  0
 10 94  1  0
 11 13  1  0
 11  9  1  0
 12 22  1  0
 12 10  2  0
 13 14  1  0
 14 20  1  0
 15 18  1  0
 18 23  1  0
 19 16  1  0
 20 53  1  0
 20 17  1  0
 21 15  1  6
 21 17  1  0
 21 16  1  0
 23  1  1  0
 23 19  1  0
 24 11  1  0
 24 12  1  0
 25 26  2  0
 26 45  1  0
 27 26  1  0
 27 30  1  0
 28 29  1  0
 28 25  1  0
 29 27  2  0
 30 31  1  0
 31 32  2  0
 33 36  1  0
 33 32  1  0
 34 33  2  0
 35 34  1  0
 35 30  2  0
 36 37  1  0
 37 38  1  0
 38 39  2  0
 40 39  1  0
 40 44  1  0
 41 40  2  0
 42 37  2  0
 42 41  1  0
 43 42  1  0
 45 46  1  0
 46 49  1  0
 46 48  1  0
 47 45  2  0
 50 25  1  0
 50 51  1  0
 52 50  1  0
 54 65  2  0
 55 53  1  0
 55 60  1  0
 56 64  1  0
 56 66  1  0
 57 63  1  0
 57 59  1  0
 58 64  1  0
 59 58  1  0
 60 59  2  0
 61 62  1  0
 61 55  2  0
 62 57  2  0
 63 56  1  0
 64 54  1  0
 66 68  2  0
 67 66  1  0
 69 67  1  0
 70 79  2  0
 70 75  1  0
 71 67  1  0
 71 75  1  0
 72 71  1  0
 73 74  1  0
 73 72  1  0
 74 70  1  0
 75 76  2  0
 76 77  1  0
 78 77  2  0
 79 78  1  0
 80 54  1  0
 80 81  1  0
 80 90  1  0
 81 84  1  0
 82 86  1  0
 82 81  1  0
 83 82  2  0
 86 85  1  0
 88 86  1  0
 88 89  1  0
 88 87  1  0
 90 93  1  1
 90 91  1  0
 92 90  1  0
 94 96  1  0
 95 96  1  0
M  ISO  4   1 100  20 101  23 100  53 101
M  END
>  <TORSDO>  (14) 
F 17

>  <SCORE>  (14) 
-14.169

>  <name>  (14) 
13

>  <ligand_id>  (14) 
13

>  <original_smiles>  (14) 
[H]c1c([H])c([H])c2c(c1[H])C([H])([H])C([H])([H])C([H])([H])C2([H])N([H])C(=O)C1([H])N(C(=O)C([H])(N([H])C(=O)C([H])(N([H])C([H])([H])[H])C([H])([H])[H])C(C([H])([H])[H])(C([H])([H])[H])C([H])([H])[H])C([H])([H])c2c([H])c(OC3([H])C([H])([H])C([H])([H])c4sc(C([H])([H])[H])c(C([H])([H])C([H])([H])C([H])([H])[H])c4C4(C([H])([H])C([H])([H])N(C(=O)N5C([H])([H])C([H])([H])C([H])([H])C([H])(n6nc(-c7c([H])c([H])c(Oc8c([H])c([H])c(F)c([H])c8F)c([H])c7[H])c(C(=O)N([H])[H])c6N([H])[H])C5([H])[H])C([H])([H])C4([H])[H])C3([H])[H])c([H])c([H])c2C1([H])[H]

>  <smiles>  (14) 
[H]c1c([H])c([H])c2c(c1[H])C([H])([H])C([H])([H])C([H])([H])C2([H])N([H])C(=O)C1([H])N(C(=O)C([H])(N([H])C(=O)C([H])(N([H])C([H])([H])[H])C([H])([H])[H])C(C([H])([H])[H])(C([H])([H])[H])C([H])([H])[H])C([H])([H])c2c([H])c(OC3([H])C([H])([H])C([H])([H])c4sc(C([H])([H])[H])c(C([H])([H])C([H])([H])C([H])([H])[H])c4C4(C([H])([H])C([H])([H])N(C(=O)N5C([H])([H])C([H])([H])C([H])([H])C([H])(n6nc(-c7c([H])c([H])c(Oc8c([H])c([H])c(F)c([H])c8F)c([H])c7[H])c(C(=O)N([H])[H])c6N([H])[H])C5([H])[H])C([H])([H])C4([H])[H])C3([H])[H])c([H])c([H])c2C1([H])[H]

$$$$
14:0:0
     RDKit          3D

 95104  0  0  1  0  0  0  0  0999 V2000
  -30.1820  -20.5300   23.7830 C   0  0  0  0  0  2  0  0  0  0  0  0
  -31.5680  -17.6050   20.1150 C   0  0  0  0  0  2  0  0  0  0  0  0
  -30.1560  -22.0530   23.5540 C   0  0  0  0  0  2  0  0  0  0  0  0
  -29.7080  -21.7960   21.0060 C   0  0  0  0  0  2  0  0  0  0  0  0
  -31.0880  -19.7940   22.7770 C   0  0  0  0  0  2  0  0  0  0  0  0
  -31.4180  -19.1110   20.3420 C   0  0  0  0  0  2  0  0  0  0  0  0
  -29.2820  -20.3120   21.0260 C   0  0  0  0  0  2  0  0  0  0  0  0
  -29.8050  -17.8980   21.6990 C   0  0  0  0  0  2  0  0  0  0  0  0
  -30.9320  -16.9170   21.3300 C   0  0  0  0  0  3  0  0  0  0  0  0
  -29.3890  -22.5770   22.3120 C   0  0  0  0  0  3  0  0  0  0  0  0
  -30.3830  -19.3180   21.4780 C   0  0  2  0  0  0  0  0  0  0  0  0
  -31.0870  -14.5730   20.4300 C   0  0  0  0  0  0  0  0  0  0  0  0
  -30.7390  -12.4700   19.1980 C   0  0  0  0  0  2  0  0  0  0  0  0
  -29.7910  -12.7250   18.0100 C   0  0  0  0  0  2  0  0  0  0  0  0
  -28.3200  -12.5900   18.4490 C   0  0  0  0  0  2  0  0  0  0  0  0
  -28.0020  -13.3930   19.7400 C   0  0  0  0  0  3  0  0  0  0  0  0
  -29.0620  -13.1220   20.8310 C   0  0  0  0  0  2  0  0  0  0  0  0
  -30.3850  -13.4230   20.2590 N   0  0  0  0  0  0  0  0  0  0  0  0
  -32.2050  -14.7510   19.9420 O   0  0  0  0  0  0  0  0  0  0  0  0
  -30.4320  -15.5600   21.0670 N   0  0  0  0  0  0  0  0  0  0  0  0
  -29.5130  -15.3320   21.4140 H   0  0  0  0  0  0  0  0  0  0  0  0
  -25.6070  -13.9990   20.4580 C   0  0  0  0  0  0  0  0  0  0  0  0
  -24.5400  -13.2250   20.8290 C   0  0  0  0  0  0  0  0  0  0  0  0
  -25.0000  -11.8730   20.7860 C   0  0  0  0  0  0  0  0  0  0  0  0
  -26.6510  -13.1180   20.2200 N   0  0  0  0  0  0  0  0  0  0  0  0
  -26.2880  -11.8340   20.4730 N   0  0  0  0  0  0  0  0  0  0  0  0
  -24.2740  -10.6090   20.9720 C   0  0  0  0  0  0  0  0  0  0  0  0
  -24.6630   -9.6710   21.9530 C   0  0  0  0  0  3  0  0  0  0  0  0
  -23.9390   -8.4720   22.1240 C   0  0  0  0  0  3  0  0  0  0  0  0
  -22.8120   -8.2020   21.3130 C   0  0  0  0  0  0  0  0  0  0  0  0
  -22.4420   -9.1280   20.3220 C   0  0  0  0  0  3  0  0  0  0  0  0
  -23.1670  -10.3200   20.1490 C   0  0  0  0  0  3  0  0  0  0  0  0
  -22.0630   -7.0530   21.3900 O   0  0  0  0  0  0  0  0  0  0  0  0
  -21.8740   -6.3960   22.5800 C   0  0  0  0  0  0  0  0  0  0  0  0
  -21.2570   -7.0190   23.6860 C   0  0  0  0  0  3  0  0  0  0  0  0
  -21.0200   -6.2870   24.8650 C   0  0  0  0  0  3  0  0  0  0  0  0
  -21.3890   -4.9300   24.9390 C   0  0  0  0  0  0  0  0  0  0  0  0
  -21.9980   -4.3050   23.8360 C   0  0  0  0  0  3  0  0  0  0  0  0
  -22.2370   -5.0360   22.6590 C   0  0  0  0  0  0  0  0  0  0  0  0
  -22.8050   -4.4250   21.5920 F   0  0  0  0  0  0  0  0  0  0  0  0
  -21.1540   -4.2230   26.0690 F   0  0  0  0  0  0  0  0  0  0  0  0
  -23.1440  -13.7010   21.1100 C   0  0  0  0  0  0  0  0  0  0  0  0
  -22.4280  -13.0100   21.9900 N   0  0  0  0  0  0  0  0  0  0  0  0
  -22.6980  -14.7200   20.5860 O   0  0  0  0  0  0  0  0  0  0  0  0
  -22.8010  -12.1860   22.4370 H   0  0  0  0  0  0  0  0  0  0  0  0
  -21.4910  -13.3090   22.2210 H   0  0  0  0  0  0  0  0  0  0  0  0
  -25.7740  -15.3700   20.2880 N   0  0  0  0  0  0  0  0  0  0  0  0
  -25.0100  -16.0280   20.4000 H   0  0  0  0  0  0  0  0  0  0  0  0
  -26.6240  -15.8060   19.9550 H   0  0  0  0  0  0  0  0  0  0  0  0
  -29.6790  -24.0330   22.1930 N   0  0  0  0  0  4  0  0  0  0  0  0
  -30.6710  -24.1470   22.0570 H   0  0  0  0  0  0  0  0  0  0  0  0
  -29.4590  -24.4510   23.0850 H   0  0  0  0  0  0  0  0  0  0  0  0
  -28.9660  -24.8040   21.1420 C   0  0  0  0  0  2  0  0  0  0  0  0
  -29.2140  -26.3190   21.2800 C   0  0  0  0  0  2  0  0  0  0  0  0
  -28.8260  -26.9740   20.0760 O   0  0  0  0  0  0  0  0  0  0  0  0
  -24.7040  -31.8290   23.2760 C   0  0  0  0  0  0  0  0  0  0  0  0
  -27.6310  -27.6430   20.1290 C   0  0  0  0  0  0  0  0  0  0  0  0
  -23.6100  -30.4400   21.5430 C   0  0  0  0  0  3  0  0  0  0  0  0
  -25.1720  -29.0180   20.1150 C   0  0  0  0  0  0  0  0  0  0  0  0
  -26.1190  -30.9180   21.4400 C   0  0  0  0  0  2  0  0  0  0  0  0
  -26.2820  -29.5740   20.7650 C   0  0  0  0  0  0  0  0  0  0  0  0
  -27.5160  -28.8910   20.7770 C   0  0  0  0  0  3  0  0  0  0  0  0
  -26.5130  -27.0930   19.4730 C   0  0  0  0  0  3  0  0  0  0  0  0
  -25.2800  -27.7720   19.4700 C   0  0  0  0  0  3  0  0  0  0  0  0
  -23.8900  -29.8190   20.1480 C   0  0  0  0  0  2  0  0  0  0  0  0
  -24.8260  -31.0760   22.1470 N   0  0  0  0  0  0  0  0  0  0  0  0
  -23.5960  -32.0350   23.7920 O   0  0  0  0  0  0  0  0  0  0  0  0
  -22.9740  -29.3580   22.4450 C   0  0  0  0  0  0  0  0  0  0  0  0
  -21.6560  -29.1550   22.2950 N   0  0  0  0  0  0  0  0  0  0  0  0
  -23.6650  -28.7060   23.2340 O   0  0  0  0  0  0  0  0  0  0  0  0
  -21.1620  -29.7360   21.6320 H   0  0  0  0  0  0  0  0  0  0  0  0
  -18.2980  -27.8950   22.7130 C   0  0  0  0  0  0  0  0  0  0  0  0
  -20.8520  -28.1630   23.0060 C   0  0  0  0  0  3  0  0  0  0  0  0
  -20.9710  -26.7710   22.3420 C   0  0  0  0  0  2  0  0  0  0  0  0
  -19.8730  -26.4980   21.3100 C   0  0  0  0  0  2  0  0  0  0  0  0
  -18.4890  -26.5890   21.9600 C   0  0  0  0  0  2  0  0  0  0  0  0
  -19.4080  -28.6410   23.1900 C   0  0  0  0  0  0  0  0  0  0  0  0
  -19.1750  -29.8640   23.8550 C   0  0  0  0  0  3  0  0  0  0  0  0
  -17.8650  -30.3420   24.0480 C   0  0  0  0  0  3  0  0  0  0  0  0
  -16.7690  -29.5900   23.5880 C   0  0  0  0  0  3  0  0  0  0  0  0
  -16.9860  -28.3680   22.9270 C   0  0  0  0  0  3  0  0  0  0  0  0
  -25.9460  -32.4850   23.9600 C   0  0  0  0  0  3  0  0  0  0  0  0
  -26.4170  -31.7220   25.2580 C   0  0  1  0  0  0  0  0  0  0  0  0
  -25.2780  -31.4530   26.2690 C   0  0  0  0  0  1  0  0  0  0  0  0
  -27.0540  -30.3610   24.8880 C   0  0  0  0  0  1  0  0  0  0  0  0
  -27.5140  -32.5410   25.9780 C   0  0  0  0  0  1  0  0  0  0  0  0
  -25.5930  -33.8760   24.2730 N   0  0  0  0  0  0  0  0  0  0  0  0
  -25.9280  -34.9320   23.5200 C   0  0  0  0  0  0  0  0  0  0  0  0
  -26.6390  -34.8400   22.5150 O   0  0  0  0  0  0  0  0  0  0  0  0
  -24.9660  -34.0210   25.0500 H   0  0  0  0  0  0  0  0  0  0  0  0
  -24.1650  -36.6740   23.0970 C   0  0  0  0  0  1  0  0  0  0  0  0
  -25.3900  -36.3100   23.9500 C   0  0  0  0  0  3  0  0  0  0  0  0
  -27.4680  -37.2610   24.8450 C   0  0  0  0  0  1  0  0  0  0  0  0
  -26.3970  -37.3890   23.8610 N   0  0  0  0  0  0  0  0  0  0  0  0
  -25.9620  -38.2990   23.9840 H   0  0  0  0  0  0  0  0  0  0  0  0
  2  6  1  0
  2  9  1  0
  3  1  1  0
  4  7  1  0
  4 10  1  0
  5  1  1  0
 11  7  1  6
  9 20  1  0
  9  8  1  0
 10 50  1  0
 10  3  1  0
 11  6  1  0
 11  8  1  0
 11  5  1  0
 12 20  1  0
 13 18  1  0
 14 15  1  0
 14 13  1  0
 16 15  1  0
 16 25  1  0
 16 17  1  0
 18 12  1  0
 18 17  1  0
 19 12  2  0
 20 21  1  0
 22 23  2  0
 23 42  1  0
 24 23  1  0
 24 27  1  0
 25 22  1  0
 25 26  1  0
 26 24  2  0
 27 28  1  0
 28 29  2  0
 30 33  1  0
 30 29  1  0
 31 30  2  0
 32 31  1  0
 32 27  2  0
 33 34  1  0
 34 39  2  0
 34 35  1  0
 35 36  2  0
 36 37  1  0
 37 41  1  0
 38 37  2  0
 39 38  1  0
 40 39  1  0
 42 43  1  0
 43 46  1  0
 43 45  1  0
 44 42  2  0
 47 48  1  0
 47 22  1  0
 49 47  1  0
 50 52  1  0
 51 50  1  0
 53 54  1  0
 53 50  1  0
 55 57  1  0
 55 54  1  0
 56 67  2  0
 57 62  1  0
 58 66  1  0
 58 68  1  0
 59 65  1  0
 59 61  1  0
 60 66  1  0
 61 62  2  0
 61 60  1  0
 63 57  2  0
 64 63  1  0
 64 59  2  0
 65 58  1  0
 66 56  1  0
 68 70  2  0
 69 68  1  0
 71 69  1  0
 72 81  2  0
 72 77  1  0
 73 69  1  0
 73 77  1  0
 74 73  1  0
 75 76  1  0
 75 74  1  0
 76 72  1  0
 77 78  2  0
 78 79  1  0
 80 79  2  0
 81 80  1  0
 82 56  1  0
 82 87  1  0
 82 83  1  0
 83 86  1  1
 83 84  1  0
 85 83  1  0
 87 90  1  0
 88 92  1  0
 88 87  1  0
 89 88  2  0
 92 91  1  0
 94 92  1  0
 94 95  1  0
 94 93  1  0
M  ISO  4  12 100  20 100  54 101  55 101
M  END
>  <TORSDO>  (15) 
F 19

>  <SCORE>  (15) 
-13.713

>  <name>  (15) 
14

>  <ligand_id>  (15) 
14

>  <original_smiles>  (15) 
[H]c1c([H])c([H])c2c(c1[H])C([H])([H])C([H])([H])C([H])([H])C2([H])N([H])C(=O)C1([H])N(C(=O)C([H])(N([H])C(=O)C([H])(N([H])C([H])([H])[H])C([H])([H])[H])C(C([H])([H])[H])(C([H])([H])[H])C([H])([H])[H])C([H])([H])c2c([H])c(OC([H])([H])C([H])([H])[N+]([H])([H])C3([H])C([H])([H])C([H])([H])C([H])([H])C4(C([H])([H])C([H])([H])C([H])(N([H])C(=O)N5C([H])([H])C([H])([H])C([H])([H])C([H])(n6nc(-c7c([H])c([H])c(Oc8c([H])c([H])c(F)c([H])c8F)c([H])c7[H])c(C(=O)N([H])[H])c6N([H])[H])C5([H])[H])C4([H])[H])C([H])([H])C3([H])[H])c([H])c([H])c2C1([H])[H]

>  <smiles>  (15) 
[H]c1c([H])c([H])c2c(c1[H])C([H])([H])C([H])([H])C([H])([H])C2([H])N([H])C(=O)C1([H])N(C(=O)C([H])(N([H])C(=O)C([H])(N([H])C([H])([H])[H])C([H])([H])[H])C(C([H])([H])[H])(C([H])([H])[H])C([H])([H])[H])C([H])([H])c2c([H])c(OC([H])([H])C([H])([H])[N+]([H])([H])C3([H])C([H])([H])C([H])([H])C([H])([H])C4(C([H])([H])C([H])([H])C([H])(N([H])C(=O)N5C([H])([H])C([H])([H])C([H])([H])C([H])(n6nc(-c7c([H])c([H])c(Oc8c([H])c([H])c(F)c([H])c8F)c([H])c7[H])c(C(=O)N([H])[H])c6N([H])[H])C5([H])[H])C4([H])[H])C([H])([H])C3([H])[H])c([H])c([H])c2C1([H])[H]

$$$$
15:0:0
     RDKit          3D

 95104  0  0  1  0  0  0  0  0999 V2000
  -27.9060  -21.4020   20.8940 C   0  0  0  0  0  2  0  0  0  0  0  0
  -27.4540  -23.8230   21.4480 C   0  0  0  0  0  2  0  0  0  0  0  0
  -29.1810  -23.2960   19.6280 C   0  0  0  0  0  2  0  0  0  0  0  0
  -27.9420  -25.2840   21.5280 C   0  0  0  0  0  2  0  0  0  0  0  0
  -28.7130  -24.6910   19.1360 C   0  0  0  0  0  2  0  0  0  0  0  0
  -28.5230  -22.8260   20.9590 C   0  0  0  0  0  3  0  0  0  0  0  0
  -28.7500  -25.7230   20.2830 C   0  0  0  0  0  3  0  0  0  0  0  0
  -28.5820  -27.0940   19.8910 O   0  0  0  0  0  0  0  0  0  0  0  0
  -24.4860  -31.8730   23.1810 C   0  0  0  0  0  0  0  0  0  0  0  0
  -27.3450  -27.7040   19.9290 C   0  0  0  0  0  0  0  0  0  0  0  0
  -23.3510  -30.4980   21.4680 C   0  0  0  0  0  3  0  0  0  0  0  0
  -24.8770  -29.0820   19.9970 C   0  0  0  0  0  0  0  0  0  0  0  0
  -25.8580  -30.9750   21.3040 C   0  0  0  0  0  2  0  0  0  0  0  0
  -26.0050  -29.6380   20.6100 C   0  0  0  0  0  0  0  0  0  0  0  0
  -27.2420  -28.9590   20.5680 C   0  0  0  0  0  3  0  0  0  0  0  0
  -26.1970  -27.1490   19.3220 C   0  0  0  0  0  3  0  0  0  0  0  0
  -24.9650  -27.8330   19.3570 C   0  0  0  0  0  3  0  0  0  0  0  0
  -23.5970  -29.8830   20.0650 C   0  0  0  0  0  2  0  0  0  0  0  0
  -24.5830  -31.1280   22.0440 N   0  0  0  0  0  0  0  0  0  0  0  0
  -23.3910  -32.0740   23.7250 O   0  0  0  0  0  0  0  0  0  0  0  0
  -22.7380  -29.4100   22.3760 C   0  0  0  0  0  0  0  0  0  0  0  0
  -21.4260  -29.1710   22.2210 N   0  0  0  0  0  0  0  0  0  0  0  0
  -23.4390  -28.7860   23.1780 O   0  0  0  0  0  0  0  0  0  0  0  0
  -20.9200  -29.7280   21.5470 H   0  0  0  0  0  0  0  0  0  0  0  0
  -18.1030  -27.8190   22.6310 C   0  0  0  0  0  0  0  0  0  0  0  0
  -20.6460  -28.1630   22.9370 C   0  0  0  0  0  3  0  0  0  0  0  0
  -20.8100  -26.7710   22.2910 C   0  0  0  0  0  2  0  0  0  0  0  0
  -19.7290  -26.4610   21.2500 C   0  0  0  0  0  2  0  0  0  0  0  0
  -18.3380  -26.5150   21.8890 C   0  0  0  0  0  2  0  0  0  0  0  0
  -19.1880  -28.6000   23.1070 C   0  0  0  0  0  0  0  0  0  0  0  0
  -18.9160  -29.8230   23.7610 C   0  0  0  0  0  3  0  0  0  0  0  0
  -17.5920  -30.2660   23.9370 C   0  0  0  0  0  3  0  0  0  0  0  0
  -16.5220  -29.4800   23.4800 C   0  0  0  0  0  3  0  0  0  0  0  0
  -16.7770  -28.2580   22.8320 C   0  0  0  0  0  3  0  0  0  0  0  0
  -25.7410  -32.5260   23.8410 C   0  0  0  0  0  3  0  0  0  0  0  0
  -26.2480  -31.7530   25.1190 C   0  0  1  0  0  0  0  0  0  0  0  0
  -25.1350  -31.4680   26.1530 C   0  0  0  0  0  1  0  0  0  0  0  0
  -26.8850  -30.4020   24.7200 C   0  0  0  0  0  1  0  0  0  0  0  0
  -27.3500  -32.5780   25.8260 C   0  0  0  0  0  1  0  0  0  0  0  0
  -25.3930  -33.9130   24.1740 N   0  0  0  0  0  0  0  0  0  0  0  0
  -25.7210  -34.9800   23.4340 C   0  0  0  0  0  0  0  0  0  0  0  0
  -26.4210  -34.9030   22.4210 O   0  0  0  0  0  0  0  0  0  0  0  0
  -24.7730  -34.0470   24.9600 H   0  0  0  0  0  0  0  0  0  0  0  0
  -23.9620  -36.7350   23.0470 C   0  0  0  0  0  1  0  0  0  0  0  0
  -25.1880  -36.3510   23.8910 C   0  0  0  0  0  3  0  0  0  0  0  0
  -27.2710  -37.2820   24.7990 C   0  0  0  0  0  1  0  0  0  0  0  0
  -26.1970  -37.4300   23.8180 N   0  0  0  0  0  0  0  0  0  0  0  0
  -25.7640  -38.3390   23.9570 H   0  0  0  0  0  0  0  0  0  0  0  0
  -28.6270  -19.0200   20.7730 C   0  0  0  0  0  0  0  0  0  0  0  0
  -28.8670  -20.3330   20.6100 N   0  0  0  0  0  0  0  0  0  0  0  0
  -27.6730  -18.6110   21.4390 O   0  0  0  0  0  0  0  0  0  0  0  0
  -29.6990  -20.5790   20.0920 H   0  0  0  0  0  0  0  0  0  0  0  0
  -29.8340  -16.6960   20.4990 C   0  0  0  0  0  3  0  0  0  0  0  0
  -29.5740  -18.0550   20.1420 C   0  0  0  0  0  0  0  0  0  0  0  0
  -30.7950  -16.1970   19.6660 C   0  0  0  0  0  0  0  0  0  0  0  0
  -30.3300  -18.3300   19.0240 C   0  0  0  0  0  0  0  0  0  0  0  0
  -30.4040  -19.5640   18.1600 C   0  0  0  0  0  1  0  0  0  0  0  0
  -32.1100  -17.1510   17.6750 C   0  0  0  0  0  1  0  0  0  0  0  0
  -31.1220  -17.2140   18.7570 N   0  0  0  0  0  0  0  0  0  0  0  0
  -31.5260  -14.8900   19.6560 C   0  0  0  0  0  0  0  0  0  0  0  0
  -31.0990  -12.6510   18.7890 C   0  0  0  0  0  2  0  0  0  0  0  0
  -30.0900  -12.7940   17.6300 C   0  0  0  0  0  2  0  0  0  0  0  0
  -28.6460  -12.7380   18.1560 C   0  0  0  0  0  2  0  0  0  0  0  0
  -28.4020  -13.6790   19.3640 C   0  0  0  0  0  3  0  0  0  0  0  0
  -29.5290  -13.5560   20.4140 C   0  0  0  0  0  2  0  0  0  0  0  0
  -30.8230  -13.7320   19.7420 N   0  0  0  0  0  0  0  0  0  0  0  0
  -32.6980  -14.9260   19.2770 O   0  0  0  0  0  0  0  0  0  0  0  0
  -26.1340  -14.3820   20.3510 C   0  0  0  0  0  0  0  0  0  0  0  0
  -25.0510  -13.6530   20.7680 C   0  0  0  0  0  0  0  0  0  0  0  0
  -25.4140  -12.2820   20.6100 C   0  0  0  0  0  0  0  0  0  0  0  0
  -27.0870  -13.4550   19.9610 N   0  0  0  0  0  0  0  0  0  0  0  0
  -26.6650  -12.1820   20.1800 N   0  0  0  0  0  0  0  0  0  0  0  0
  -24.6180  -11.0580   20.7840 C   0  0  0  0  0  0  0  0  0  0  0  0
  -24.9670  -10.0800   21.7420 C   0  0  0  0  0  3  0  0  0  0  0  0
  -24.1760   -8.9210   21.9000 C   0  0  0  0  0  3  0  0  0  0  0  0
  -23.0240   -8.7320   21.1010 C   0  0  0  0  0  0  0  0  0  0  0  0
  -22.6960   -9.6990   20.1340 C   0  0  0  0  0  3  0  0  0  0  0  0
  -23.4860  -10.8490   19.9730 C   0  0  0  0  0  3  0  0  0  0  0  0
  -22.2060   -7.6300   21.1700 O   0  0  0  0  0  0  0  0  0  0  0  0
  -21.9310   -7.0150   22.3660 C   0  0  0  0  0  0  0  0  0  0  0  0
  -21.3240   -7.7030   23.4390 C   0  0  0  0  0  3  0  0  0  0  0  0
  -20.9930   -7.0140   24.6220 C   0  0  0  0  0  3  0  0  0  0  0  0
  -21.2590   -5.6350   24.7330 C   0  0  0  0  0  0  0  0  0  0  0  0
  -21.8580   -4.9460   23.6630 C   0  0  0  0  0  3  0  0  0  0  0  0
  -22.1890   -5.6340   22.4820 C   0  0  0  0  0  0  0  0  0  0  0  0
  -22.7450   -4.9590   21.4460 F   0  0  0  0  0  0  0  0  0  0  0  0
  -20.9370   -4.9690   25.8670 F   0  0  0  0  0  0  0  0  0  0  0  0
  -23.7210  -14.1990   21.2020 C   0  0  0  0  0  0  0  0  0  0  0  0
  -23.0360  -13.5050   22.1060 N   0  0  0  0  0  0  0  0  0  0  0  0
  -23.2990  -15.2730   20.7750 O   0  0  0  0  0  0  0  0  0  0  0  0
  -23.3900  -12.6340   22.4680 H   0  0  0  0  0  0  0  0  0  0  0  0
  -22.1460  -13.8540   22.4350 H   0  0  0  0  0  0  0  0  0  0  0  0
  -26.3820  -15.7470   20.2550 N   0  0  0  0  0  0  0  0  0  0  0  0
  -25.6970  -16.4470   20.5130 H   0  0  0  0  0  0  0  0  0  0  0  0
  -27.2630  -16.1460   19.9500 H   0  0  0  0  0  0  0  0  0  0  0  0
  2  4  1  0
  3  6  1  0
  5  3  1  0
  5  7  1  0
  6  1  1  0
  6  2  1  0
  7  8  1  0
  7  4  1  0
  8 10  1  0
  9 20  2  0
 10 15  1  0
 11 19  1  0
 11 21  1  0
 12 18  1  0
 12 14  1  0
 13 19  1  0
 14 13  1  0
 15 14  2  0
 16 17  1  0
 16 10  2  0
 17 12  2  0
 18 11  1  0
 19  9  1  0
 21 23  2  0
 22 21  1  0
 24 22  1  0
 25 34  2  0
 25 30  1  0
 26 22  1  0
 26 30  1  0
 27 26  1  0
 28 29  1  0
 28 27  1  0
 29 25  1  0
 30 31  2  0
 31 32  1  0
 33 32  2  0
 34 33  1  0
 35  9  1  0
 35 40  1  0
 35 36  1  0
 36 39  1  1
 36 37  1  0
 38 36  1  0
 40 43  1  0
 41 45  1  0
 41 40  1  0
 42 41  2  0
 45 44  1  0
 47 45  1  0
 47 48  1  0
 47 46  1  0
 49 51  2  0
 50 49  1  0
 50  1  1  0
 52 50  1  0
 54 53  1  0
 54 49  1  0
 55 53  2  0
 56 54  2  0
 57 56  1  0
 58 59  1  0
 59 56  1  0
 59 55  1  0
 60 55  1  0
 60 66  1  0
 61 66  1  0
 62 63  1  0
 62 61  1  0
 64 63  1  0
 64 71  1  0
 64 65  1  0
 66 65  1  0
 67 60  2  0
 68 69  2  0
 69 88  1  0
 70 69  1  0
 70 73  1  0
 71 72  1  0
 71 68  1  0
 72 70  2  0
 73 74  1  0
 74 75  2  0
 76 79  1  0
 76 75  1  0
 77 76  2  0
 78 77  1  0
 78 73  2  0
 79 80  1  0
 80 85  2  0
 80 81  1  0
 81 82  2  0
 82 83  1  0
 83 87  1  0
 84 83  2  0
 85 84  1  0
 86 85  1  0
 88 89  1  0
 89 92  1  0
 89 91  1  0
 90 88  2  0
 93 68  1  0
 93 94  1  0
 95 93  1  0
M  ISO  4   7 101   8 101  55 100  60 100
M  END
>  <TORSDO>  (16) 
F 19

>  <SCORE>  (16) 
-11.697

>  <name>  (16) 
15

>  <ligand_id>  (16) 
15

>  <original_smiles>  (16) 
[H]c1c([H])c([H])c2c(c1[H])C([H])([H])C([H])([H])C([H])([H])C2([H])N([H])C(=O)C1([H])N(C(=O)C([H])(N([H])C(=O)C([H])(N([H])C([H])([H])[H])C([H])([H])[H])C(C([H])([H])[H])(C([H])([H])[H])C([H])([H])[H])C([H])([H])c2c([H])c(OC3([H])C([H])([H])C([H])([H])C([H])(C([H])([H])N([H])C(=O)c4c([H])c(C(=O)N5C([H])([H])C([H])([H])C([H])([H])C([H])(n6nc(-c7c([H])c([H])c(Oc8c([H])c([H])c(F)c([H])c8F)c([H])c7[H])c(C(=O)N([H])[H])c6N([H])[H])C5([H])[H])n(C([H])([H])[H])c4C([H])([H])[H])C([H])([H])C3([H])[H])c([H])c([H])c2C1([H])[H]

>  <smiles>  (16) 
[H]c1c([H])c([H])c2c(c1[H])C([H])([H])C([H])([H])C([H])([H])C2([H])N([H])C(=O)C1([H])N(C(=O)C([H])(N([H])C(=O)C([H])(N([H])C([H])([H])[H])C([H])([H])[H])C(C([H])([H])[H])(C([H])([H])[H])C([H])([H])[H])C([H])([H])c2c([H])c(OC3([H])C([H])([H])C([H])([H])C([H])(C([H])([H])N([H])C(=O)c4c([H])c(C(=O)N5C([H])([H])C([H])([H])C([H])([H])C([H])(n6nc(-c7c([H])c([H])c(Oc8c([H])c([H])c(F)c([H])c8F)c([H])c7[H])c(C(=O)N([H])[H])c6N([H])[H])C5([H])[H])n(C([H])([H])[H])c4C([H])([H])[H])C([H])([H])C3([H])[H])c([H])c([H])c2C1([H])[H]

$$$$
16:0:0
     RDKit          3D

 92101  0  0  1  0  0  0  0  0999 V2000
  -28.4150  -22.6000   19.1400 C   0  0  0  0  0  3  0  0  0  0  0  0
  -28.1090  -24.0180   19.1380 C   0  0  0  0  0  3  0  0  0  0  0  0
  -29.1400  -22.7570   21.3810 C   0  0  0  0  0  3  0  0  0  0  0  0
  -28.9930  -21.8900   20.2490 C   0  0  0  0  0  0  0  0  0  0  0  0
  -28.8260  -24.1760   21.3870 C   0  0  0  0  0  0  0  0  0  0  0  0
  -28.3210  -24.8940   20.2510 C   0  0  0  0  0  0  0  0  0  0  0  0
  -29.1230  -24.9730   22.6430 C   0  0  0  0  0  1  0  0  0  0  0  0
  -31.3970  -19.1530   18.6290 C   0  0  0  0  0  2  0  0  0  0  0  0
  -30.3960  -20.3160   18.7410 C   0  0  0  0  0  2  0  0  0  0  0  0
  -30.7370  -17.7770   18.8260 C   0  0  0  0  0  2  0  0  0  0  0  0
  -29.1490  -18.9060   20.4830 C   0  0  0  0  0  2  0  0  0  0  0  0
  -29.7280  -20.4220   20.1290 C   0  0  0  0  0  3  0  0  0  0  0  0
  -30.1660  -17.6020   20.2490 C   0  0  0  0  0  3  0  0  0  0  0  0
  -30.5480  -14.9140   20.3470 C   0  0  0  0  0  0  0  0  0  0  0  0
  -30.3920  -12.5950   19.3770 C   0  0  0  0  0  2  0  0  0  0  0  0
  -29.4550  -12.6040   18.1490 C   0  0  0  0  0  2  0  0  0  0  0  0
  -27.9910  -12.4030   18.5830 C   0  0  0  0  0  2  0  0  0  0  0  0
  -27.5980  -13.3050   19.7830 C   0  0  0  0  0  3  0  0  0  0  0  0
  -28.6580  -13.2810   20.9050 C   0  0  0  0  0  2  0  0  0  0  0  0
  -29.9330  -13.6720   20.2950 N   0  0  0  0  0  0  0  0  0  0  0  0
  -31.7510  -14.9710   20.0760 O   0  0  0  0  0  0  0  0  0  0  0  0
  -29.7810  -16.0950   20.4710 N   0  0  0  0  0  0  0  0  0  0  0  0
  -28.8040  -15.9310   20.6660 H   0  0  0  0  0  0  0  0  0  0  0  0
  -25.2150  -13.8710   20.5280 C   0  0  0  0  0  0  0  0  0  0  0  0
  -24.1570  -13.0880   20.9000 C   0  0  0  0  0  0  0  0  0  0  0  0
  -24.6310  -11.7400   20.8670 C   0  0  0  0  0  0  0  0  0  0  0  0
  -26.2630  -13.0000   20.2840 N   0  0  0  0  0  0  0  0  0  0  0  0
  -25.9200  -11.7130   20.5530 N   0  0  0  0  0  0  0  0  0  0  0  0
  -23.9130  -10.4720   21.0560 C   0  0  0  0  0  0  0  0  0  0  0  0
  -24.3570   -9.5020   21.9810 C   0  0  0  0  0  3  0  0  0  0  0  0
  -23.6370   -8.3010   22.1590 C   0  0  0  0  0  3  0  0  0  0  0  0
  -22.4600   -8.0610   21.4120 C   0  0  0  0  0  0  0  0  0  0  0  0
  -22.0360   -9.0190   20.4750 C   0  0  0  0  0  3  0  0  0  0  0  0
  -22.7550  -10.2120   20.2940 C   0  0  0  0  0  3  0  0  0  0  0  0
  -21.7120   -6.9110   21.4990 O   0  0  0  0  0  0  0  0  0  0  0  0
  -21.6770   -6.1610   22.6470 C   0  0  0  0  0  0  0  0  0  0  0  0
  -21.2490   -6.7030   23.8790 C   0  0  0  0  0  3  0  0  0  0  0  0
  -21.1610   -5.8790   25.0180 C   0  0  0  0  0  3  0  0  0  0  0  0
  -21.4920   -4.5130   24.9270 C   0  0  0  0  0  0  0  0  0  0  0  0
  -21.9120   -3.9710   23.7010 C   0  0  0  0  0  3  0  0  0  0  0  0
  -22.0010   -4.7920   22.5630 C   0  0  0  0  0  0  0  0  0  0  0  0
  -22.3860   -4.2590   21.3790 F   0  0  0  0  0  0  0  0  0  0  0  0
  -21.4000   -3.7200   26.0200 F   0  0  0  0  0  0  0  0  0  0  0  0
  -22.7570  -13.5550   21.1720 C   0  0  0  0  0  0  0  0  0  0  0  0
  -22.0370  -12.8560   22.0440 N   0  0  0  0  0  0  0  0  0  0  0  0
  -22.3100  -14.5750   20.6480 O   0  0  0  0  0  0  0  0  0  0  0  0
  -22.4120  -12.0320   22.4880 H   0  0  0  0  0  0  0  0  0  0  0  0
  -21.0970  -13.1510   22.2680 H   0  0  0  0  0  0  0  0  0  0  0  0
  -25.3680  -15.2430   20.3520 N   0  0  0  0  0  0  0  0  0  0  0  0
  -24.5940  -15.8890   20.4640 H   0  0  0  0  0  0  0  0  0  0  0  0
  -26.2010  -15.6870   19.9890 H   0  0  0  0  0  0  0  0  0  0  0  0
  -28.2960  -26.3500   20.1870 O   0  0  0  0  0  0  0  0  0  0  0  0
  -24.6120  -31.9000   23.2320 C   0  0  0  0  0  0  0  0  0  0  0  0
  -27.1720  -27.2290   20.1900 C   0  0  0  0  0  0  0  0  0  0  0  0
  -23.3950  -30.5030   21.6000 C   0  0  0  0  0  3  0  0  0  0  0  0
  -24.8290  -28.9220   20.1730 C   0  0  0  0  0  0  0  0  0  0  0  0
  -25.9410  -30.7820   21.4100 C   0  0  0  0  0  2  0  0  0  0  0  0
  -26.0070  -29.3900   20.7690 C   0  0  0  0  0  0  0  0  0  0  0  0
  -27.1770  -28.5550   20.7630 C   0  0  0  0  0  3  0  0  0  0  0  0
  -25.9710  -26.8380   19.5650 C   0  0  0  0  0  3  0  0  0  0  0  0
  -24.8190  -27.6580   19.5590 C   0  0  0  0  0  3  0  0  0  0  0  0
  -23.6020  -29.8170   20.2230 C   0  0  0  0  0  2  0  0  0  0  0  0
  -24.6690  -31.0830   22.1360 N   0  0  0  0  0  0  0  0  0  0  0  0
  -23.5320  -32.1850   23.7700 O   0  0  0  0  0  0  0  0  0  0  0  0
  -22.7270  -29.4980   22.5700 C   0  0  0  0  0  0  0  0  0  0  0  0
  -21.3980  -29.3260   22.4490 N   0  0  0  0  0  0  0  0  0  0  0  0
  -23.4040  -28.8740   23.3910 O   0  0  0  0  0  0  0  0  0  0  0  0
  -20.9090  -29.8800   21.7600 H   0  0  0  0  0  0  0  0  0  0  0  0
  -18.0210  -28.1280   22.9640 C   0  0  0  0  0  0  0  0  0  0  0  0
  -20.5800  -28.3910   23.2260 C   0  0  0  0  0  3  0  0  0  0  0  0
  -20.6820  -26.9580   22.6570 C   0  0  0  0  0  2  0  0  0  0  0  0
  -19.5790  -26.6290   21.6460 C   0  0  0  0  0  2  0  0  0  0  0  0
  -18.1980  -26.7760   22.2930 C   0  0  0  0  0  2  0  0  0  0  0  0
  -19.1400  -28.8940   23.3870 C   0  0  0  0  0  0  0  0  0  0  0  0
  -18.9200  -30.1570   23.9760 C   0  0  0  0  0  3  0  0  0  0  0  0
  -17.6150  -30.6570   24.1440 C   0  0  0  0  0  3  0  0  0  0  0  0
  -16.5110  -29.8880   23.7350 C   0  0  0  0  0  3  0  0  0  0  0  0
  -16.7140  -28.6260   23.1510 C   0  0  0  0  0  3  0  0  0  0  0  0
  -25.8980  -32.5310   23.8480 C   0  0  0  0  0  3  0  0  0  0  0  0
  -25.5880  -33.9270   24.1970 N   0  0  0  0  0  0  0  0  0  0  0  0
  -25.8930  -34.9880   23.4390 C   0  0  0  0  0  0  0  0  0  0  0  0
  -26.5310  -34.8980   22.3870 O   0  0  0  0  0  0  0  0  0  0  0  0
  -25.0150  -34.0710   25.0160 H   0  0  0  0  0  0  0  0  0  0  0  0
  -24.1370  -36.7720   23.1650 C   0  0  0  0  0  1  0  0  0  0  0  0
  -25.4130  -36.3710   23.9230 C   0  0  0  0  0  3  0  0  0  0  0  0
  -27.5720  -37.2740   24.6710 C   0  0  0  0  0  1  0  0  0  0  0  0
  -26.4320  -37.4340   23.7730 N   0  0  0  0  0  0  0  0  0  0  0  0
  -26.0240  -38.3500   23.9370 H   0  0  0  0  0  0  0  0  0  0  0  0
  -26.4250  -31.7510   25.1150 C   0  0  1  0  0  0  0  0  0  0  0  0
  -25.3420  -31.5080   26.1920 C   0  0  0  0  0  1  0  0  0  0  0  0
  -27.0060  -30.3760   24.7110 C   0  0  0  0  0  1  0  0  0  0  0  0
  -27.5820  -32.5410   25.7710 C   0  0  0  0  0  1  0  0  0  0  0  0
  1  4  1  0
  2  1  2  0
  2  6  1  0
  3  5  1  0
  4  3  2  0
  5  7  1  0
  6  5  2  0
  8  9  1  0
  8 10  1  0
  9 12  1  0
 10 13  1  0
 12  4  1  0
 12 11  1  0
 13 22  1  0
 13 11  1  0
 14 22  1  0
 15 20  1  0
 16 17  1  0
 16 15  1  0
 18 17  1  0
 18 27  1  0
 18 19  1  0
 20 14  1  0
 20 19  1  0
 21 14  2  0
 22 23  1  0
 24 25  2  0
 25 44  1  0
 26 25  1  0
 26 29  1  0
 27 24  1  0
 27 28  1  0
 28 26  2  0
 29 30  1  0
 30 31  2  0
 32 35  1  0
 32 31  1  0
 33 32  2  0
 34 33  1  0
 34 29  2  0
 35 36  1  0
 36 37  1  0
 37 38  2  0
 39 38  1  0
 39 43  1  0
 40 39  2  0
 41 36  2  0
 41 40  1  0
 42 41  1  0
 44 45  1  0
 45 48  1  0
 45 47  1  0
 46 44  2  0
 49 50  1  0
 49 24  1  0
 51 49  1  0
 52 54  1  0
 52  6  1  0
 53 64  2  0
 54 59  1  0
 55 63  1  0
 55 65  1  0
 56 62  1  0
 56 58  1  0
 57 63  1  0
 58 57  1  0
 59 58  2  0
 60 54  2  0
 61 60  1  0
 61 56  2  0
 62 55  1  0
 63 53  1  0
 65 67  2  0
 66 65  1  0
 68 66  1  0
 69 78  2  0
 69 74  1  0
 70 66  1  0
 70 74  1  0
 71 70  1  0
 72 73  1  0
 72 71  1  0
 73 69  1  0
 74 75  2  0
 75 76  1  0
 77 76  2  0
 78 77  1  0
 79 53  1  0
 79 80  1  0
 79 89  1  0
 80 83  1  0
 81 85  1  0
 81 80  1  0
 82 81  2  0
 85 84  1  0
 87 85  1  0
 87 88  1  0
 87 86  1  0
 89 92  1  1
 89 90  1  0
 91 89  1  0
M  ISO  4   6 101  14 100  22 100  52 101
M  END
>  <TORSDO>  (17) 
F 17

>  <SCORE>  (17) 
-15.249

>  <name>  (17) 
16

>  <ligand_id>  (17) 
16

>  <original_smiles>  (17) 
[H]c1c([H])c([H])c2c(c1[H])C([H])([H])C([H])([H])C([H])([H])C2([H])N([H])C(=O)C1([H])N(C(=O)C([H])(N([H])C(=O)C([H])(N([H])C([H])([H])[H])C([H])([H])[H])C(C([H])([H])[H])(C([H])([H])[H])C([H])([H])[H])C([H])([H])c2c([H])c(Oc3c([H])c([H])c(C4([H])C([H])([H])C([H])([H])C([H])([H])C([H])(N([H])C(=O)N5C([H])([H])C([H])([H])C([H])([H])C([H])(n6nc(-c7c([H])c([H])c(Oc8c([H])c([H])c(F)c([H])c8F)c([H])c7[H])c(C(=O)N([H])[H])c6N([H])[H])C5([H])[H])C4([H])[H])c([H])c3C([H])([H])[H])c([H])c([H])c2C1([H])[H]

>  <smiles>  (17) 
[H]c1c([H])c([H])c2c(c1[H])C([H])([H])C([H])([H])C([H])([H])C2([H])N([H])C(=O)C1([H])N(C(=O)C([H])(N([H])C(=O)C([H])(N([H])C([H])([H])[H])C([H])([H])[H])C(C([H])([H])[H])(C([H])([H])[H])C([H])([H])[H])C([H])([H])c2c([H])c(Oc3c([H])c([H])c(C4([H])C([H])([H])C([H])([H])C([H])([H])C([H])(N([H])C(=O)N5C([H])([H])C([H])([H])C([H])([H])C([H])(n6nc(-c7c([H])c([H])c(Oc8c([H])c([H])c(F)c([H])c8F)c([H])c7[H])c(C(=O)N([H])[H])c6N([H])[H])C5([H])[H])C4([H])[H])c([H])c3C([H])([H])[H])c([H])c([H])c2C1([H])[H]

$$$$
17:0:0
     RDKit          3D

 91 98  0  0  1  0  0  0  0  0999 V2000
  -26.1360  -22.1460   19.3750 C   0  0  0  0  0  2  0  0  0  0  0  0
  -27.9440  -20.8200   18.3770 C   0  0  0  0  0  3  0  0  0  0  0  0
  -28.8070  -21.0300   19.5040 C   0  0  0  0  0  2  0  0  0  0  0  0
  -26.6650  -21.4500   18.2680 C   0  0  0  0  0  3  0  0  0  0  0  0
  -26.9810  -22.6670   20.3670 C   0  0  0  0  0  3  0  0  0  0  0  0
  -28.3230  -22.8010   19.9860 C   0  0  0  0  0  3  0  0  0  0  0  0
  -28.0800  -19.5670   17.5920 C   0  0  0  0  0  0  0  0  0  0  0  0
  -27.5720  -18.3170   18.3290 C   0  0  0  0  0  2  0  0  0  0  0  0
  -27.8550  -18.4020   19.8460 C   0  0  0  0  0  2  0  0  0  0  0  0
  -29.2960  -18.8870   20.0150 C   0  0  0  0  0  2  0  0  0  0  0  0
  -25.7350  -21.2190   17.0750 C   0  0  0  0  0  1  0  0  0  0  0  0
  -26.4030  -23.5030   21.5030 C   0  0  0  0  0  1  0  0  0  0  0  0
  -29.6870  -19.0350   21.4980 C   0  0  0  0  0  1  0  0  0  0  0  0
  -28.5170  -19.5010   16.4420 O   0  0  0  0  0  0  0  0  0  0  0  0
  -30.1080  -16.8050   19.6470 C   0  0  0  0  0  2  0  0  0  0  0  0
  -30.4770  -14.0040   18.8810 C   0  0  0  0  0  2  0  0  0  0  0  0
  -29.6390  -13.1860   17.8080 C   0  0  0  0  0  2  0  0  0  0  0  0
  -28.3490  -12.5950   18.3810 C   0  0  0  0  0  2  0  0  0  0  0  0
  -27.7590  -13.6180   19.3640 C   0  0  0  0  0  3  0  0  0  0  0  0
  -28.7800  -14.3060   20.3470 C   0  0  0  0  0  2  0  0  0  0  0  0
  -29.7510  -15.2430   19.6120 N   0  0  0  0  0  0  0  0  0  0  0  0
  -31.3260  -16.6000   19.3450 O   0  0  0  0  0  1  0  0  0  0  0  0
  -25.4870  -14.0180   20.3800 C   0  0  0  0  0  0  0  0  0  0  0  0
  -24.4710  -13.2140   20.8060 C   0  0  0  0  0  0  0  0  0  0  0  0
  -24.9370  -11.8710   20.6550 C   0  0  0  0  0  0  0  0  0  0  0  0
  -26.5130  -13.1800   19.9960 N   0  0  0  0  0  0  0  0  0  0  0  0
  -26.2000  -11.8690   20.2160 N   0  0  0  0  0  0  0  0  0  0  0  0
  -24.2130  -10.6000   20.8440 C   0  0  0  0  0  0  0  0  0  0  0  0
  -24.6360   -9.6350   21.7860 C   0  0  0  0  0  3  0  0  0  0  0  0
  -23.9020   -8.4420   21.9720 C   0  0  0  0  0  3  0  0  0  0  0  0
  -22.7280   -8.2030   21.2200 C   0  0  0  0  0  0  0  0  0  0  0  0
  -22.3200   -9.1560   20.2680 C   0  0  0  0  0  3  0  0  0  0  0  0
  -23.0540  -10.3390   20.0790 C   0  0  0  0  0  3  0  0  0  0  0  0
  -21.9640   -7.0620   21.3160 O   0  0  0  0  0  0  0  0  0  0  0  0
  -21.8060   -6.3940   22.5050 C   0  0  0  0  0  0  0  0  0  0  0  0
  -21.2570   -7.0220   23.6440 C   0  0  0  0  0  3  0  0  0  0  0  0
  -21.0510   -6.2820   24.8270 C   0  0  0  0  0  3  0  0  0  0  0  0
  -21.3800   -4.9150   24.8670 C   0  0  0  0  0  0  0  0  0  0  0  0
  -21.9200   -4.2850   23.7320 C   0  0  0  0  0  3  0  0  0  0  0  0
  -22.1300   -5.0230   22.5540 C   0  0  0  0  0  0  0  0  0  0  0  0
  -22.6290   -4.4060   21.4560 F   0  0  0  0  0  0  0  0  0  0  0  0
  -21.1770   -4.2020   26.0000 F   0  0  0  0  0  0  0  0  0  0  0  0
  -23.1080  -13.6780   21.2240 C   0  0  0  0  0  0  0  0  0  0  0  0
  -22.4560  -12.9540   22.1260 N   0  0  0  0  0  0  0  0  0  0  0  0
  -22.6310  -14.7250   20.7830 O   0  0  0  0  0  0  0  0  0  0  0  0
  -22.8610  -12.1120   22.5080 H   0  0  0  0  0  0  0  0  0  0  0  0
  -21.5400  -13.2440   22.4400 H   0  0  0  0  0  0  0  0  0  0  0  0
  -25.6220  -15.3960   20.2500 N   0  0  0  0  0  0  0  0  0  0  0  0
  -24.8530  -16.0320   20.4330 H   0  0  0  0  0  0  0  0  0  0  0  0
  -26.4230  -15.8510   19.8320 H   0  0  0  0  0  0  0  0  0  0  0  0
  -28.2660  -24.6480   19.7310 O   0  0  0  0  0  0  0  0  0  0  0  0
  -24.7780  -31.6890   22.8870 C   0  0  0  0  0  0  0  0  0  0  0  0
  -27.3330  -26.1400   19.8270 C   0  0  0  0  0  0  0  0  0  0  0  0
  -23.6110  -30.2750   21.2590 C   0  0  0  0  0  3  0  0  0  0  0  0
  -25.0730  -28.5420   19.8370 C   0  0  0  0  0  0  0  0  0  0  0  0
  -26.2100  -30.2740   21.1720 C   0  0  0  0  0  2  0  0  0  0  0  0
  -26.2830  -28.7790   20.4990 C   0  0  0  0  0  0  0  0  0  0  0  0
  -27.3560  -27.6320   20.4490 C   0  0  0  0  0  3  0  0  0  0  0  0
  -26.0860  -26.2980   19.0920 C   0  0  0  0  0  3  0  0  0  0  0  0
  -25.0530  -27.3330   19.1060 C   0  0  0  0  0  3  0  0  0  0  0  0
  -23.8750  -29.5480   19.8960 C   0  0  0  0  0  2  0  0  0  0  0  0
  -24.8980  -30.7960   21.8240 N   0  0  0  0  0  0  0  0  0  0  0  0
  -23.6760  -31.9900   23.3880 O   0  0  0  0  0  0  0  0  0  0  0  0
  -22.8690  -29.3310   22.2480 C   0  0  0  0  0  0  0  0  0  0  0  0
  -21.5260  -29.2190   22.1740 N   0  0  0  0  0  0  0  0  0  0  0  0
  -23.5230  -28.6870   23.0690 O   0  0  0  0  0  0  0  0  0  0  0  0
  -21.0350  -29.7900   21.5010 H   0  0  0  0  0  0  0  0  0  0  0  0
  -18.1340  -28.0260   22.8200 C   0  0  0  0  0  0  0  0  0  0  0  0
  -20.7120  -28.2680   22.9510 C   0  0  0  0  0  3  0  0  0  0  0  0
  -20.7630  -26.8550   22.3230 C   0  0  0  0  0  2  0  0  0  0  0  0
  -19.6100  -26.5850   21.3520 C   0  0  0  0  0  2  0  0  0  0  0  0
  -18.2640  -26.7100   22.0700 C   0  0  0  0  0  2  0  0  0  0  0  0
  -19.2820  -28.7660   23.2180 C   0  0  0  0  0  0  0  0  0  0  0  0
  -19.1030  -29.9910   23.8930 C   0  0  0  0  0  3  0  0  0  0  0  0
  -17.8130  -30.4830   24.1680 C   0  0  0  0  0  3  0  0  0  0  0  0
  -16.6820  -29.7440   23.7780 C   0  0  0  0  0  3  0  0  0  0  0  0
  -16.8440  -28.5160   23.1120 C   0  0  0  0  0  3  0  0  0  0  0  0
  -26.0110  -32.3860   23.5420 C   0  0  0  0  0  3  0  0  0  0  0  0
  -25.6250  -33.7490   23.9830 N   0  0  0  0  0  0  0  0  0  0  0  0
  -25.8780  -34.8910   23.3250 C   0  0  0  0  0  0  0  0  0  0  0  0
  -26.5050  -34.9130   22.2640 O   0  0  0  0  0  0  0  0  0  0  0  0
  -25.0650  -33.8010   24.8210 H   0  0  0  0  0  0  0  0  0  0  0  0
  -24.0480  -36.6290   23.2510 C   0  0  0  0  0  1  0  0  0  0  0  0
  -25.3630  -36.2170   23.9330 C   0  0  0  0  0  3  0  0  0  0  0  0
  -27.5020  -37.1660   24.6890 C   0  0  0  0  0  1  0  0  0  0  0  0
  -26.3280  -37.3350   23.8370 N   0  0  0  0  0  0  0  0  0  0  0  0
  -25.8830  -38.2140   24.0820 H   0  0  0  0  0  0  0  0  0  0  0  0
  -26.5740  -31.5910   24.7870 C   0  0  1  0  0  0  0  0  0  0  0  0
  -25.5070  -31.2800   25.8650 C   0  0  0  0  0  1  0  0  0  0  0  0
  -27.2000  -30.2470   24.3630 C   0  0  0  0  0  1  0  0  0  0  0  0
  -27.7100  -32.4010   25.4570 C   0  0  0  0  0  1  0  0  0  0  0  0
  1  5  1  0
  2  7  1  0
  2  3  1  0
  3  6  1  0
  4 11  1  0
  4  2  1  0
  4  1  1  0
  5 12  1  0
  6 51  1  0
  6  5  1  0
  7  8  1  0
  8  9  1  0
  9 10  1  0
 10 13  1  0
 14  7  2  0
 16 21  1  0
 17 18  1  0
 17 16  1  0
 19 18  1  0
 19 26  1  0
 19 20  1  0
 21 15  1  0
 21 20  1  0
 22 15  1  0
 23 24  2  0
 24 43  1  0
 25 24  1  0
 25 28  1  0
 26 27  1  0
 26 23  1  0
 27 25  2  0
 28 29  1  0
 29 30  2  0
 31 34  1  0
 31 30  1  0
 32 31  2  0
 33 32  1  0
 33 28  2  0
 34 35  1  0
 35 40  2  0
 35 36  1  0
 36 37  2  0
 37 38  1  0
 38 42  1  0
 39 38  2  0
 40 39  1  0
 41 40  1  0
 43 44  1  0
 44 47  1  0
 44 46  1  0
 45 43  2  0
 48 23  1  0
 48 49  1  0
 50 48  1  0
 51 53  1  0
 52 63  2  0
 53 58  1  0
 54 62  1  0
 54 64  1  0
 55 61  1  0
 55 57  1  0
 56 62  1  0
 57 56  1  0
 58 57  2  0
 59 60  1  0
 59 53  2  0
 60 55  2  0
 61 54  1  0
 62 52  1  0
 64 66  2  0
 65 64  1  0
 67 65  1  0
 68 77  2  0
 68 73  1  0
 69 65  1  0
 69 73  1  0
 70 69  1  0
 71 72  1  0
 71 70  1  0
 72 68  1  0
 73 74  2  0
 74 75  1  0
 76 75  2  0
 77 76  1  0
 78 52  1  0
 78 79  1  0
 78 88  1  0
 79 82  1  0
 80 84  1  0
 80 79  1  0
 81 80  2  0
 84 83  1  0
 86 84  1  0
 86 87  1  0
 86 85  1  0
 88 91  1  1
 88 89  1  0
 90 88  1  0
M  ISO  4   6 101  10 100  15 100  51 101
M  END
>  <TORSDO>  (18) 
F 16

>  <SCORE>  (18) 
-15.709

>  <name>  (18) 
17

>  <ligand_id>  (18) 
17

>  <original_smiles>  (18) 
[H]c1c([H])c([H])c2c(c1[H])C([H])([H])C([H])([H])C([H])([H])C2([H])N([H])C(=O)C1([H])N(C(=O)C([H])(N([H])C(=O)C([H])(N([H])C([H])([H])[H])C([H])([H])[H])C(C([H])([H])[H])(C([H])([H])[H])C([H])([H])[H])C([H])([H])c2c([H])c(Oc3c(C([H])([H])[H])c([H])c(C([H])([H])[H])c4c3C(C(=O)N3C([H])([H])C([H])([H])C([H])([H])C([H])(n5nc(-c6c([H])c([H])c(Oc7c([H])c([H])c(F)c([H])c7F)c([H])c6[H])c(C(=O)N([H])[H])c5N([H])[H])C3([H])[H])(C([H])([H])[H])C([H])([H])C([H])([H])C4=O)c([H])c([H])c2C1([H])[H]

>  <smiles>  (18) 
[H]c1c([H])c([H])c2c(c1[H])C([H])([H])C([H])([H])C([H])([H])C2([H])N([H])C(=O)C1([H])N(C(=O)C([H])(N([H])C(=O)C([H])(N([H])C([H])([H])[H])C([H])([H])[H])C(C([H])([H])[H])(C([H])([H])[H])C([H])([H])[H])C([H])([H])c2c([H])c(Oc3c(C([H])([H])[H])c([H])c(C([H])([H])[H])c4c3C(C(=O)N3C([H])([H])C([H])([H])C([H])([H])C([H])(n5nc(-c6c([H])c([H])c(Oc7c([H])c([H])c(F)c([H])c7F)c([H])c6[H])c(C(=O)N([H])[H])c5N([H])[H])C3([H])[H])(C([H])([H])[H])C([H])([H])C([H])([H])C4=O)c([H])c([H])c2C1([H])[H]

$$$$
18:0:0
     RDKit          3D

 96105  0  0  1  0  0  0  0  0999 V2000
  -30.1190  -25.3320   22.2420 C   0  0  0  0  0  0  0  0  0  0  0  0
  -30.9590  -23.4930   20.8460 C   0  0  0  0  0  0  0  0  0  0  0  0
  -28.6200  -25.2010   21.9390 C   0  0  0  0  0  2  0  0  0  0  0  0
  -28.8970  -24.1240   19.5730 C   0  0  0  0  0  2  0  0  0  0  0  0
  -29.6000  -22.9380   20.3470 C   0  0  0  0  0  3  0  0  0  0  0  0
  -28.2360  -25.2570   20.4460 C   0  0  0  0  0  3  0  0  0  0  0  0
  -31.0470  -24.5100   21.7200 N   0  0  0  0  0  0  0  0  0  0  0  0
  -30.4740  -26.2190   23.0210 O   0  0  0  0  0  0  0  0  0  0  0  0
  -32.0050  -23.0100   20.4100 O   0  0  0  0  0  0  0  0  0  0  0  0
  -31.9900  -24.7330   21.9940 H   0  0  0  0  0  0  0  0  0  0  0  0
  -28.3870  -26.6330   19.9540 O   0  0  0  0  0  0  0  0  0  0  0  0
  -24.6180  -31.8350   23.1700 C   0  0  0  0  0  0  0  0  0  0  0  0
  -27.2480  -27.4340   19.9700 C   0  0  0  0  0  0  0  0  0  0  0  0
  -23.4090  -30.4650   21.5060 C   0  0  0  0  0  3  0  0  0  0  0  0
  -24.8590  -28.9730   20.0260 C   0  0  0  0  0  0  0  0  0  0  0  0
  -25.9360  -30.8330   21.2970 C   0  0  0  0  0  2  0  0  0  0  0  0
  -26.0230  -29.4760   20.6180 C   0  0  0  0  0  0  0  0  0  0  0  0
  -27.2250  -28.7160   20.5820 C   0  0  0  0  0  3  0  0  0  0  0  0
  -26.0670  -26.9690   19.3550 C   0  0  0  0  0  3  0  0  0  0  0  0
  -24.8780  -27.7220   19.3880 C   0  0  0  0  0  3  0  0  0  0  0  0
  -23.6110  -29.8270   20.1070 C   0  0  0  0  0  2  0  0  0  0  0  0
  -24.6730  -31.0590   22.0490 N   0  0  0  0  0  0  0  0  0  0  0  0
  -23.5390  -32.0850   23.7250 O   0  0  0  0  0  0  0  0  0  0  0  0
  -22.7710  -29.4160   22.4470 C   0  0  0  0  0  0  0  0  0  0  0  0
  -21.4440  -29.2350   22.3380 N   0  0  0  0  0  0  0  0  0  0  0  0
  -23.4670  -28.7680   23.2330 O   0  0  0  0  0  0  0  0  0  0  0  0
  -20.9410  -29.8090   21.6750 H   0  0  0  0  0  0  0  0  0  0  0  0
  -18.0810  -28.0110   22.8510 C   0  0  0  0  0  0  0  0  0  0  0  0
  -20.6420  -28.2730   23.0940 C   0  0  0  0  0  3  0  0  0  0  0  0
  -20.7430  -26.8580   22.4790 C   0  0  0  0  0  2  0  0  0  0  0  0
  -19.6280  -26.5580   21.4720 C   0  0  0  0  0  2  0  0  0  0  0  0
  -18.2550  -26.6820   22.1380 C   0  0  0  0  0  2  0  0  0  0  0  0
  -19.2030  -28.7660   23.2860 C   0  0  0  0  0  0  0  0  0  0  0  0
  -18.9880  -30.0120   23.9140 C   0  0  0  0  0  3  0  0  0  0  0  0
  -17.6840  -30.5030   24.1120 C   0  0  0  0  0  3  0  0  0  0  0  0
  -16.5770  -29.7440   23.6950 C   0  0  0  0  0  3  0  0  0  0  0  0
  -16.7770  -28.5000   23.0700 C   0  0  0  0  0  3  0  0  0  0  0  0
  -25.9030  -32.4620   23.7930 C   0  0  0  0  0  3  0  0  0  0  0  0
  -25.5940  -33.8570   24.1340 N   0  0  0  0  0  0  0  0  0  0  0  0
  -25.9360  -34.9170   23.3910 C   0  0  0  0  0  0  0  0  0  0  0  0
  -26.6150  -34.8230   22.3640 O   0  0  0  0  0  0  0  0  0  0  0  0
  -24.9920  -34.0050   24.9310 H   0  0  0  0  0  0  0  0  0  0  0  0
  -24.2220  -36.7230   23.0350 C   0  0  0  0  0  1  0  0  0  0  0  0
  -25.4480  -36.3020   23.8600 C   0  0  0  0  0  3  0  0  0  0  0  0
  -27.5720  -37.1670   24.7360 C   0  0  0  0  0  1  0  0  0  0  0  0
  -26.4870  -37.3530   23.7780 N   0  0  0  0  0  0  0  0  0  0  0  0
  -26.0830  -38.2730   23.9300 H   0  0  0  0  0  0  0  0  0  0  0  0
  -26.4250  -31.6800   25.0600 C   0  0  1  0  0  0  0  0  0  0  0  0
  -25.3360  -31.4310   26.1290 C   0  0  0  0  0  1  0  0  0  0  0  0
  -27.0100  -30.3080   24.6520 C   0  0  0  0  0  1  0  0  0  0  0  0
  -27.5750  -32.4710   25.7270 C   0  0  0  0  0  1  0  0  0  0  0  0
  -29.7360  -21.5800   19.5220 C   0  0  0  0  0  2  0  0  0  0  0  0
  -31.1720  -19.3530   19.1790 C   0  0  0  0  0  2  0  0  0  0  0  0
  -29.6750  -19.5630   21.3100 C   0  0  0  0  0  2  0  0  0  0  0  0
  -30.6550  -17.8900   19.0520 C   0  0  0  0  0  2  0  0  0  0  0  0
  -29.2950  -18.0700   21.0640 C   0  0  0  0  0  2  0  0  0  0  0  0
  -30.4480  -20.3180   20.1800 C   0  0  0  0  0  3  0  0  0  0  0  0
  -30.4260  -17.2270   20.4260 C   0  0  0  0  0  3  0  0  0  0  0  0
  -30.8720  -14.7070   20.0370 C   0  0  0  0  0  0  0  0  0  0  0  0
  -30.5950  -12.4840   18.9820 C   0  0  0  0  0  2  0  0  0  0  0  0
  -29.6150  -12.6270   17.7970 C   0  0  0  0  0  2  0  0  0  0  0  0
  -28.1550  -12.4860   18.2730 C   0  0  0  0  0  2  0  0  0  0  0  0
  -27.8440  -13.3610   19.5170 C   0  0  0  0  0  3  0  0  0  0  0  0
  -28.9330  -13.1940   20.6000 C   0  0  0  0  0  2  0  0  0  0  0  0
  -30.2290  -13.5050   19.9790 N   0  0  0  0  0  0  0  0  0  0  0  0
  -32.0260  -14.8550   19.6290 O   0  0  0  0  0  0  0  0  0  0  0  0
  -30.0960  -15.7710   20.3800 N   0  0  0  0  0  0  0  0  0  0  0  0
  -29.1560  -15.5270   20.6500 H   0  0  0  0  0  0  0  0  0  0  0  0
  -25.4800  -13.9900   20.3100 C   0  0  0  0  0  0  0  0  0  0  0  0
  -24.4170  -13.2270   20.7130 C   0  0  0  0  0  0  0  0  0  0  0  0
  -24.8630  -11.8710   20.6640 C   0  0  0  0  0  0  0  0  0  0  0  0
  -26.5070  -13.0980   20.0430 N   0  0  0  0  0  0  0  0  0  0  0  0
  -26.1430  -11.8190   20.3150 N   0  0  0  0  0  0  0  0  0  0  0  0
  -24.1300  -10.6160   20.8740 C   0  0  0  0  0  0  0  0  0  0  0  0
  -24.5400   -9.6740   21.8430 C   0  0  0  0  0  3  0  0  0  0  0  0
  -23.8080   -8.4830   22.0380 C   0  0  0  0  0  3  0  0  0  0  0  0
  -22.6520   -8.2250   21.2630 C   0  0  0  0  0  0  0  0  0  0  0  0
  -22.2610   -9.1560   20.2830 C   0  0  0  0  0  3  0  0  0  0  0  0
  -22.9940  -10.3380   20.0880 C   0  0  0  0  0  3  0  0  0  0  0  0
  -21.8930   -7.0840   21.3660 O   0  0  0  0  0  0  0  0  0  0  0  0
  -21.7560   -6.4160   22.5560 C   0  0  0  0  0  0  0  0  0  0  0  0
  -21.2330   -7.0430   23.7070 C   0  0  0  0  0  3  0  0  0  0  0  0
  -21.0440   -6.3010   24.8900 C   0  0  0  0  0  3  0  0  0  0  0  0
  -21.3690   -4.9310   24.9210 C   0  0  0  0  0  0  0  0  0  0  0  0
  -21.8860   -4.3030   23.7750 C   0  0  0  0  0  3  0  0  0  0  0  0
  -22.0760   -5.0440   22.5940 C   0  0  0  0  0  0  0  0  0  0  0  0
  -22.5540   -4.4290   21.4860 F   0  0  0  0  0  0  0  0  0  0  0  0
  -21.1810   -4.2160   26.0550 F   0  0  0  0  0  0  0  0  0  0  0  0
  -23.0330  -13.7180   21.0290 C   0  0  0  0  0  0  0  0  0  0  0  0
  -22.3310  -13.0340   21.9250 N   0  0  0  0  0  0  0  0  0  0  0  0
  -22.5860  -14.7440   20.5180 O   0  0  0  0  0  0  0  0  0  0  0  0
  -22.7060  -12.2030   22.3600 H   0  0  0  0  0  0  0  0  0  0  0  0
  -21.4040  -13.3440   22.1810 H   0  0  0  0  0  0  0  0  0  0  0  0
  -25.6530  -15.3590   20.1290 N   0  0  0  0  0  0  0  0  0  0  0  0
  -24.8930  -16.0180   20.2560 H   0  0  0  0  0  0  0  0  0  0  0  0
  -26.4850  -15.7870   19.7420 H   0  0  0  0  0  0  0  0  0  0  0  0
  1  8  2  0
  2  7  1  0
  3  1  1  0
  4  5  1  0
  4  6  1  0
  5 52  1  0
  5  2  1  0
  6 11  1  0
  6  3  1  0
  7 10  1  0
  7  1  1  0
  9  2  2  0
 11 13  1  0
 12 23  2  0
 13 18  1  0
 14 22  1  0
 14 24  1  0
 15 21  1  0
 15 17  1  0
 16 22  1  0
 17 16  1  0
 18 17  2  0
 19 20  1  0
 19 13  2  0
 20 15  2  0
 21 14  1  0
 22 12  1  0
 24 26  2  0
 25 24  1  0
 27 25  1  0
 28 37  2  0
 28 33  1  0
 29 25  1  0
 29 33  1  0
 30 29  1  0
 31 32  1  0
 31 30  1  0
 32 28  1  0
 33 34  2  0
 34 35  1  0
 36 35  2  0
 37 36  1  0
 38 12  1  0
 38 39  1  0
 38 48  1  0
 39 42  1  0
 40 44  1  0
 40 39  1  0
 41 40  2  0
 44 43  1  0
 46 44  1  0
 46 47  1  0
 46 45  1  0
 48 51  1  1
 48 49  1  0
 50 48  1  0
 53 57  1  0
 55 53  1  0
 55 58  1  0
 56 54  1  0
 57 52  1  0
 57 54  1  0
 58 67  1  0
 58 56  1  0
 59 67  1  0
 60 65  1  0
 61 62  1  0
 61 60  1  0
 63 62  1  0
 63 72  1  0
 63 64  1  0
 65 59  1  0
 65 64  1  0
 66 59  2  0
 67 68  1  0
 69 70  2  0
 70 89  1  0
 71 70  1  0
 71 74  1  0
 72 69  1  0
 72 73  1  0
 73 71  2  0
 74 75  1  0
 75 76  2  0
 77 80  1  0
 77 76  1  0
 78 77  2  0
 79 78  1  0
 79 74  2  0
 80 81  1  0
 81 86  2  0
 81 82  1  0
 82 83  2  0
 83 84  1  0
 84 88  1  0
 85 84  2  0
 86 85  1  0
 87 86  1  0
 89 90  1  0
 90 93  1  0
 90 92  1  0
 91 89  2  0
 94 95  1  0
 94 69  1  0
 96 94  1  0
M  ISO  4   6 101  11 101  59 100  67 100
M  END
>  <TORSDO>  (19) 
F 18

>  <SCORE>  (19) 
-14.136

>  <name>  (19) 
18

>  <ligand_id>  (19) 
18

>  <original_smiles>  (19) 
[H]c1c([H])c([H])c2c(c1[H])C([H])([H])C([H])([H])C([H])([H])C2([H])N([H])C(=O)C1([H])N(C(=O)C([H])(N([H])C(=O)C([H])(N([H])C([H])([H])[H])C([H])([H])[H])C(C([H])([H])[H])(C([H])([H])[H])C([H])([H])[H])C([H])([H])c2c([H])c(OC3([H])C([H])([H])C(=O)N([H])C(=O)C([H])(C([H])([H])C4([H])C([H])([H])C([H])([H])C([H])(N([H])C(=O)N5C([H])([H])C([H])([H])C([H])([H])C([H])(n6nc(-c7c([H])c([H])c(Oc8c([H])c([H])c(F)c([H])c8F)c([H])c7[H])c(C(=O)N([H])[H])c6N([H])[H])C5([H])[H])C([H])([H])C4([H])[H])C3([H])[H])c([H])c([H])c2C1([H])[H]

>  <smiles>  (19) 
[H]c1c([H])c([H])c2c(c1[H])C([H])([H])C([H])([H])C([H])([H])C2([H])N([H])C(=O)C1([H])N(C(=O)C([H])(N([H])C(=O)C([H])(N([H])C([H])([H])[H])C([H])([H])[H])C(C([H])([H])[H])(C([H])([H])[H])C([H])([H])[H])C([H])([H])c2c([H])c(OC3([H])C([H])([H])C(=O)N([H])C(=O)C([H])(C([H])([H])C4([H])C([H])([H])C([H])([H])C([H])(N([H])C(=O)N5C([H])([H])C([H])([H])C([H])([H])C([H])(n6nc(-c7c([H])c([H])c(Oc8c([H])c([H])c(F)c([H])c8F)c([H])c7[H])c(C(=O)N([H])[H])c6N([H])[H])C5([H])[H])C([H])([H])C4([H])[H])C3([H])[H])c([H])c([H])c2C1([H])[H]

$$$$
19:0:0
     RDKit          3D

101111  0  0  1  0  0  0  0  0999 V2000
  -31.3630  -21.5690   17.3280 C   0  0  0  0  0  3  0  0  0  0  0  0
  -30.0710  -20.0820   19.3580 C   0  0  0  0  0  3  0  0  0  0  0  0
  -30.9190  -22.1870   18.5110 C   0  0  0  0  0  0  0  0  0  0  0  0
  -30.3270  -21.4520   19.5260 C   0  0  0  0  0  0  0  0  0  0  0  0
  -31.1090  -20.1910   17.1360 C   0  0  0  0  0  0  0  0  0  0  0  0
  -30.4050  -19.4540   18.1340 C   0  0  0  0  0  0  0  0  0  0  0  0
  -29.2120  -25.5990   18.3400 C   0  0  0  0  0  2  0  0  0  0  0  0
  -29.7460  -24.2420   17.8800 C   0  0  0  0  0  2  0  0  0  0  0  0
  -29.7010  -24.9660   20.7520 C   0  0  0  0  0  2  0  0  0  0  0  0
  -30.4760  -23.7060   20.3000 C   0  0  0  0  0  3  0  0  0  0  0  0
  -28.6520  -25.5090   19.7640 C   0  0  0  0  0  3  0  0  0  0  0  0
  -30.8640  -23.6690   18.7870 C   0  0  1  0  0  0  0  0  0  0  0  0
  -29.9170  -22.2980   20.7110 C   0  0  1  0  0  0  0  0  0  0  0  0
  -31.5500  -19.5630   15.8210 C   0  0  0  0  0  1  0  0  0  0  0  0
  -32.2120  -24.3710   18.5270 C   0  0  0  0  0  1  0  0  0  0  0  0
  -28.3800  -22.2410   20.8450 C   0  0  0  0  0  1  0  0  0  0  0  0
  -30.2920  -22.5360   23.2860 C   0  0  0  0  0  1  0  0  0  0  0  0
  -30.6000  -21.7560   21.9960 C   0  0  0  0  0  2  0  0  0  0  0  0
  -28.4270  -26.8330   20.2100 O   0  0  0  0  0  0  0  0  0  0  0  0
  -24.5570  -31.8800   23.2180 C   0  0  0  0  0  0  0  0  0  0  0  0
  -27.2000  -27.4500   20.1570 C   0  0  0  0  0  0  0  0  0  0  0  0
  -23.3380  -30.4700   21.5850 C   0  0  0  0  0  3  0  0  0  0  0  0
  -24.7850  -28.9140   20.1670 C   0  0  0  0  0  0  0  0  0  0  0  0
  -25.8560  -30.8320   21.3730 C   0  0  0  0  0  2  0  0  0  0  0  0
  -25.9360  -29.4580   20.7480 C   0  0  0  0  0  0  0  0  0  0  0  0
  -27.1390  -28.7280   20.7440 C   0  0  0  0  0  3  0  0  0  0  0  0
  -26.0330  -26.9050   19.5700 C   0  0  0  0  0  3  0  0  0  0  0  0
  -24.8250  -27.6340   19.5820 C   0  0  0  0  0  3  0  0  0  0  0  0
  -23.5410  -29.7710   20.2110 C   0  0  0  0  0  2  0  0  0  0  0  0
  -24.6010  -31.0750   22.1180 N   0  0  0  0  0  0  0  0  0  0  0  0
  -23.4810  -32.1580   23.7630 O   0  0  0  0  0  0  0  0  0  0  0  0
  -22.6890  -29.4590   22.5570 C   0  0  0  0  0  0  0  0  0  0  0  0
  -21.3630  -29.2840   22.4380 N   0  0  0  0  0  0  0  0  0  0  0  0
  -23.3760  -28.8340   23.3690 O   0  0  0  0  0  0  0  0  0  0  0  0
  -20.8720  -29.8400   21.7520 H   0  0  0  0  0  0  0  0  0  0  0  0
  -17.9880  -28.1120   22.9570 C   0  0  0  0  0  0  0  0  0  0  0  0
  -20.5490  -28.3530   23.2170 C   0  0  0  0  0  3  0  0  0  0  0  0
  -20.6410  -26.9210   22.6470 C   0  0  0  0  0  2  0  0  0  0  0  0
  -19.5330  -26.6010   21.6390 C   0  0  0  0  0  2  0  0  0  0  0  0
  -18.1530  -26.7580   22.2870 C   0  0  0  0  0  2  0  0  0  0  0  0
  -19.1140  -28.8670   23.3790 C   0  0  0  0  0  0  0  0  0  0  0  0
  -18.9070  -30.1360   23.9640 C   0  0  0  0  0  3  0  0  0  0  0  0
  -17.6070  -30.6490   24.1320 C   0  0  0  0  0  3  0  0  0  0  0  0
  -16.4960  -29.8900   23.7250 C   0  0  0  0  0  3  0  0  0  0  0  0
  -16.6870  -28.6240   23.1430 C   0  0  0  0  0  3  0  0  0  0  0  0
  -25.8500  -32.5070   23.8270 C   0  0  0  0  0  3  0  0  0  0  0  0
  -26.3780  -31.7380   25.0990 C   0  0  1  0  0  0  0  0  0  0  0  0
  -25.2940  -31.5050   26.1770 C   0  0  0  0  0  1  0  0  0  0  0  0
  -26.9540  -30.3590   24.7020 C   0  0  0  0  0  1  0  0  0  0  0  0
  -27.5370  -32.5290   25.7480 C   0  0  0  0  0  1  0  0  0  0  0  0
  -25.5500  -33.9080   24.1550 N   0  0  0  0  0  0  0  0  0  0  0  0
  -25.8900  -34.9550   23.3920 C   0  0  0  0  0  0  0  0  0  0  0  0
  -26.5610  -34.8450   22.3610 O   0  0  0  0  0  0  0  0  0  0  0  0
  -24.9580  -34.0690   24.9560 H   0  0  0  0  0  0  0  0  0  0  0  0
  -24.1750  -36.7560   23.0230 C   0  0  0  0  0  1  0  0  0  0  0  0
  -25.4090  -36.3470   23.8430 C   0  0  0  0  0  3  0  0  0  0  0  0
  -27.5450  -37.2190   24.6830 C   0  0  0  0  0  1  0  0  0  0  0  0
  -26.4480  -37.3940   23.7350 N   0  0  0  0  0  0  0  0  0  0  0  0
  -26.0480  -38.3170   23.8820 H   0  0  0  0  0  0  0  0  0  0  0  0
  -29.8600  -18.0540   17.8570 C   0  0  0  0  0  2  0  0  0  0  0  0
  -30.3340  -16.9040   18.7720 C   0  0  0  0  0  2  0  0  0  0  0  0
  -28.2370  -17.1410   20.2460 C   0  0  0  0  0  1  0  0  0  0  0  0
  -29.7370  -16.7820   20.2060 C   0  0  0  0  0  3  0  0  0  0  0  0
  -30.6580  -14.4120   20.4600 C   0  0  0  0  0  0  0  0  0  0  0  0
  -30.3630  -12.2650   19.3160 C   0  0  0  0  0  2  0  0  0  0  0  0
  -29.4220  -12.5270   18.1190 C   0  0  0  0  0  2  0  0  0  0  0  0
  -27.9430  -12.4180   18.5380 C   0  0  0  0  0  2  0  0  0  0  0  0
  -27.6190  -13.2260   19.8240 C   0  0  0  0  0  3  0  0  0  0  0  0
  -28.6700  -12.9450   20.9260 C   0  0  0  0  0  2  0  0  0  0  0  0
  -30.0090  -13.2220   20.3700 N   0  0  0  0  0  0  0  0  0  0  0  0
  -31.8080  -14.6060   20.0590 O   0  0  0  0  0  0  0  0  0  0  0  0
  -29.8170  -15.4160   20.7450 N   0  0  0  0  0  0  0  0  0  0  0  0
  -28.9480  -15.0790   21.1310 H   0  0  0  0  0  0  0  0  0  0  0  0
  -25.2130  -13.8680   20.4930 C   0  0  0  0  0  0  0  0  0  0  0  0
  -24.1350  -13.1060   20.8560 C   0  0  0  0  0  0  0  0  0  0  0  0
  -24.5870  -11.7490   20.8410 C   0  0  0  0  0  0  0  0  0  0  0  0
  -26.2560  -12.9760   20.2880 N   0  0  0  0  0  0  0  0  0  0  0  0
  -25.8810  -11.6990   20.5500 N   0  0  0  0  0  0  0  0  0  0  0  0
  -23.8510  -10.4950   21.0360 C   0  0  0  0  0  0  0  0  0  0  0  0
  -24.2750   -9.5250   21.9720 C   0  0  0  0  0  3  0  0  0  0  0  0
  -23.5410   -8.3340   22.1520 C   0  0  0  0  0  3  0  0  0  0  0  0
  -22.3660   -8.1030   21.3970 C   0  0  0  0  0  0  0  0  0  0  0  0
  -21.9590   -9.0620   20.4540 C   0  0  0  0  0  3  0  0  0  0  0  0
  -22.6920  -10.2440   20.2710 C   0  0  0  0  0  3  0  0  0  0  0  0
  -21.5990   -6.9660   21.4860 O   0  0  0  0  0  0  0  0  0  0  0  0
  -21.5540   -6.2200   22.6370 C   0  0  0  0  0  0  0  0  0  0  0  0
  -21.1560   -6.7760   23.8720 C   0  0  0  0  0  3  0  0  0  0  0  0
  -21.0590   -5.9570   25.0140 C   0  0  0  0  0  3  0  0  0  0  0  0
  -21.3480   -4.5830   24.9200 C   0  0  0  0  0  0  0  0  0  0  0  0
  -21.7400   -4.0260   23.6900 C   0  0  0  0  0  3  0  0  0  0  0  0
  -21.8410   -4.8440   22.5510 C   0  0  0  0  0  0  0  0  0  0  0  0
  -22.2000   -4.2980   21.3630 F   0  0  0  0  0  0  0  0  0  0  0  0
  -21.2480   -3.7940   26.0170 F   0  0  0  0  0  0  0  0  0  0  0  0
  -22.7370  -13.5940   21.1120 C   0  0  0  0  0  0  0  0  0  0  0  0
  -21.9980  -12.9070   21.9780 N   0  0  0  0  0  0  0  0  0  0  0  0
  -22.3100  -14.6170   20.5810 O   0  0  0  0  0  0  0  0  0  0  0  0
  -22.3610  -12.0790   22.4280 H   0  0  0  0  0  0  0  0  0  0  0  0
  -21.0620  -13.2170   22.2010 H   0  0  0  0  0  0  0  0  0  0  0  0
  -25.3850  -15.2370   20.3030 N   0  0  0  0  0  0  0  0  0  0  0  0
  -24.6150  -15.8940   20.3800 H   0  0  0  0  0  0  0  0  0  0  0  0
  -26.2350  -15.6730   19.9730 H   0  0  0  0  0  0  0  0  0  0  0  0
  1  3  1  0
  2  4  1  0
  3 12  1  0
  3  4  2  0
  4 13  1  0
  5  1  2  0
  5  6  1  0
  6  2  2  0
  7 11  1  0
  8  7  1  0
  8 12  1  0
 10 13  1  0
 10  9  1  0
 11 19  1  0
 11  9  1  0
 12 15  1  1
 12 10  1  0
 13 16  1  1
 13 18  1  0
 14  5  1  0
 18 17  1  0
 20 31  2  0
 21 19  1  0
 21 26  1  0
 22 30  1  0
 22 32  1  0
 23 29  1  0
 23 25  1  0
 24 30  1  0
 25 24  1  0
 26 25  2  0
 27 28  1  0
 27 21  2  0
 28 23  2  0
 29 22  1  0
 30 20  1  0
 32 34  2  0
 33 32  1  0
 35 33  1  0
 36 45  2  0
 36 41  1  0
 37 33  1  0
 37 41  1  0
 38 37  1  0
 39 40  1  0
 39 38  1  0
 40 36  1  0
 41 42  2  0
 42 43  1  0
 44 43  2  0
 45 44  1  0
 46 20  1  0
 46 51  1  0
 46 47  1  0
 47 50  1  1
 47 48  1  0
 49 47  1  0
 51 54  1  0
 52 56  1  0
 52 51  1  0
 53 52  2  0
 56 55  1  0
 58 56  1  0
 58 59  1  0
 58 57  1  0
 60  6  1  0
 60 61  1  0
 61 63  1  0
 63 62  1  0
 63 72  1  0
 64 72  1  0
 65 70  1  0
 66 67  1  0
 66 65  1  0
 68 67  1  0
 68 77  1  0
 68 69  1  0
 70 64  1  0
 70 69  1  0
 71 64  2  0
 72 73  1  0
 74 75  2  0
 75 94  1  0
 76 75  1  0
 76 79  1  0
 77 74  1  0
 77 78  1  0
 78 76  2  0
 79 80  1  0
 80 81  2  0
 82 85  1  0
 82 81  1  0
 83 82  2  0
 84 83  1  0
 84 79  2  0
 85 86  1  0
 86 87  1  0
 87 88  2  0
 89 88  1  0
 89 93  1  0
 90 89  2  0
 91 86  2  0
 91 90  1  0
 92 91  1  0
 94 95  1  0
 95 98  1  0
 95 97  1  0
 96 94  2  0
 99100  1  0
 99 74  1  0
101 99  1  0
M  ISO  4  11 101  19 101  64 100  72 100
M  END
>  <TORSDO>  (20) 
F 20

>  <SCORE>  (20) 
-14.282

>  <name>  (20) 
19

>  <ligand_id>  (20) 
19

>  <original_smiles>  (20) 
[H]c1c([H])c([H])c2c(c1[H])C([H])([H])C([H])([H])C([H])([H])C2([H])N([H])C(=O)C1([H])N(C(=O)C([H])(N([H])C(=O)C([H])(N([H])C([H])([H])[H])C([H])([H])[H])C(C([H])([H])[H])(C([H])([H])[H])C([H])([H])[H])C([H])([H])c2c([H])c(OC3([H])C([H])([H])C([H])([H])C4(C([H])([H])[H])c5c([H])c(C([H])([H])[H])c(C([H])([H])C([H])([H])C([H])(N([H])C(=O)N6C([H])([H])C([H])([H])C([H])([H])C([H])(n7nc(-c8c([H])c([H])c(Oc9c([H])c([H])c(F)c([H])c9F)c([H])c8[H])c(C(=O)N([H])[H])c7N([H])[H])C6([H])[H])C([H])([H])[H])c([H])c5C(C([H])([H])[H])(C([H])([H])C([H])([H])[H])C4([H])C3([H])[H])c([H])c([H])c2C1([H])[H]

>  <smiles>  (20) 
[H]c1c([H])c([H])c2c(c1[H])C([H])([H])C([H])([H])C([H])([H])C2([H])N([H])C(=O)C1([H])N(C(=O)C([H])(N([H])C(=O)C([H])(N([H])C([H])([H])[H])C([H])([H])[H])C(C([H])([H])[H])(C([H])([H])[H])C([H])([H])[H])C([H])([H])c2c([H])c(OC3([H])C([H])([H])C([H])([H])C4(C([H])([H])[H])c5c([H])c(C([H])([H])[H])c(C([H])([H])C([H])([H])C([H])(N([H])C(=O)N6C([H])([H])C([H])([H])C([H])([H])C([H])(n7nc(-c8c([H])c([H])c(Oc9c([H])c([H])c(F)c([H])c9F)c([H])c8[H])c(C(=O)N([H])[H])c7N([H])[H])C6([H])[H])C([H])([H])[H])c([H])c5C(C([H])([H])[H])(C([H])([H])C([H])([H])[H])C4([H])C3([H])[H])c([H])c([H])c2C1([H])[H]

$$$$
20:0:0
     RDKit          3D

 89 95  0  0  1  0  0  0  0  0999 V2000
  -29.0060  -19.0470   20.3870 C   0  0  0  0  0  3  0  0  0  0  0  0
  -29.9870  -18.1380   19.6560 C   0  0  0  0  0  0  0  0  0  0  0  0
  -28.5990  -20.5710   20.2880 C   0  0  0  0  0  0  0  0  0  0  0  0
  -30.4500  -19.3260   18.7910 C   0  0  0  0  0  0  0  0  0  0  0  0
  -29.0500  -21.7600   19.4250 C   0  0  0  0  0  3  0  0  0  0  0  0
  -30.0420  -20.8600   18.6920 C   0  0  0  0  0  0  0  0  0  0  0  0
  -27.4940  -20.9520   21.2560 C   0  0  0  0  0  1  0  0  0  0  0  0
  -31.5220  -18.9120   17.7820 C   0  0  0  0  0  1  0  0  0  0  0  0
  -30.6020  -16.3580   19.7940 C   0  0  0  0  0  0  0  0  0  0  0  0
  -30.8080  -13.6650   19.2760 C   0  0  0  0  0  2  0  0  0  0  0  0
  -29.9810  -13.0030   18.1250 C   0  0  0  0  0  2  0  0  0  0  0  0
  -28.5850  -12.5950   18.6070 C   0  0  0  0  0  2  0  0  0  0  0  0
  -27.9970  -13.6890   19.5210 C   0  0  0  0  0  3  0  0  0  0  0  0
  -28.9790  -14.2620   20.5800 C   0  0  0  0  0  2  0  0  0  0  0  0
  -30.1130  -14.9320   19.8730 N   0  0  0  0  0  0  0  0  0  0  0  0
  -31.8360  -16.1730   19.6640 O   0  0  0  0  0  0  0  0  0  0  0  0
  -25.6800  -14.2230   20.3810 C   0  0  0  0  0  0  0  0  0  0  0  0
  -24.6130  -13.4560   20.7480 C   0  0  0  0  0  0  0  0  0  0  0  0
  -25.0500  -12.0970   20.6570 C   0  0  0  0  0  0  0  0  0  0  0  0
  -26.6970  -13.3400   20.0760 N   0  0  0  0  0  0  0  0  0  0  0  0
  -26.3350  -12.0480   20.3080 N   0  0  0  0  0  0  0  0  0  0  0  0
  -24.2910  -10.8480   20.8230 C   0  0  0  0  0  0  0  0  0  0  0  0
  -24.6750   -9.8650   21.7630 C   0  0  0  0  0  3  0  0  0  0  0  0
  -23.9110   -8.6870   21.9210 C   0  0  0  0  0  3  0  0  0  0  0  0
  -22.7490   -8.4830   21.1400 C   0  0  0  0  0  0  0  0  0  0  0  0
  -22.3830   -9.4530   20.1900 C   0  0  0  0  0  3  0  0  0  0  0  0
  -23.1470  -10.6220   20.0310 C   0  0  0  0  0  3  0  0  0  0  0  0
  -21.9620   -7.3580   21.2070 O   0  0  0  0  0  0  0  0  0  0  0  0
  -21.8170   -6.6480   22.3720 C   0  0  0  0  0  0  0  0  0  0  0  0
  -21.2590   -7.2250   23.5340 C   0  0  0  0  0  3  0  0  0  0  0  0
  -21.0640   -6.4400   24.6880 C   0  0  0  0  0  3  0  0  0  0  0  0
  -21.4180   -5.0770   24.6800 C   0  0  0  0  0  0  0  0  0  0  0  0
  -21.9680   -4.4990   23.5230 C   0  0  0  0  0  3  0  0  0  0  0  0
  -22.1640   -5.2810   22.3720 C   0  0  0  0  0  0  0  0  0  0  0  0
  -22.6750   -4.7130   21.2530 F   0  0  0  0  0  0  0  0  0  0  0  0
  -21.2240   -4.3220   25.7870 F   0  0  0  0  0  0  0  0  0  0  0  0
  -23.2360  -13.9590   21.0610 C   0  0  0  0  0  0  0  0  0  0  0  0
  -22.5090  -13.2610   21.9250 N   0  0  0  0  0  0  0  0  0  0  0  0
  -22.8160  -15.0100   20.5750 O   0  0  0  0  0  0  0  0  0  0  0  0
  -22.8630  -12.4130   22.3420 H   0  0  0  0  0  0  0  0  0  0  0  0
  -21.5840  -13.5810   22.1760 H   0  0  0  0  0  0  0  0  0  0  0  0
  -25.8690  -15.5950   20.2460 N   0  0  0  0  0  0  0  0  0  0  0  0
  -25.1200  -16.2610   20.4010 H   0  0  0  0  0  0  0  0  0  0  0  0
  -26.7210  -16.0300   19.9150 H   0  0  0  0  0  0  0  0  0  0  0  0
  -30.7210  -21.5850   17.7120 N   0  0  0  0  0  0  0  0  0  0  0  0
  -30.4070  -22.5150   17.4550 H   0  0  0  0  0  0  0  0  0  0  0  0
  -31.2330  -21.1040   16.9830 H   0  0  0  0  0  0  0  0  0  0  0  0
  -28.2820  -23.5970   19.1680 C   0  0  0  0  0 15  0  0  0  0  0  0
  -28.4230  -25.4640   19.3450 O   0  0  0  0  0  1  0  0  0  0  0  0
  -24.6960  -31.5980   22.8850 C   0  0  0  0  0  0  0  0  0  0  0  0
  -27.4340  -26.7520   19.4200 C   0  0  0  0  0  0  0  0  0  0  0  0
  -23.5780  -30.3110   21.1190 C   0  0  0  0  0  3  0  0  0  0  0  0
  -25.0970  -28.8310   19.5620 C   0  0  0  0  0  0  0  0  0  0  0  0
  -26.1600  -30.5100   21.0380 C   0  0  0  0  0  2  0  0  0  0  0  0
  -26.2840  -29.1280   20.2410 C   0  0  0  0  0  0  0  0  0  0  0  0
  -27.4230  -28.1280   20.1350 C   0  0  0  0  0  3  0  0  0  0  0  0
  -26.1990  -26.7320   18.7060 C   0  0  0  0  0  3  0  0  0  0  0  0
  -25.1080  -27.6670   18.7700 C   0  0  0  0  0  3  0  0  0  0  0  0
  -23.8580  -29.7470   19.6930 C   0  0  0  0  0  2  0  0  0  0  0  0
  -24.8360  -30.8410   21.7350 N   0  0  0  0  0  0  0  0  0  0  0  0
  -23.5870  -31.8080   23.4090 O   0  0  0  0  0  0  0  0  0  0  0  0
  -22.8840  -29.2310   21.9950 C   0  0  0  0  0  0  0  0  0  0  0  0
  -21.5480  -29.0850   21.8980 N   0  0  0  0  0  0  0  0  0  0  0  0
  -23.5670  -28.5220   22.7380 O   0  0  0  0  0  0  0  0  0  0  0  0
  -21.0430  -29.7090   21.2840 H   0  0  0  0  0  0  0  0  0  0  0  0
  -18.1720  -27.8660   22.5060 C   0  0  0  0  0  0  0  0  0  0  0  0
  -20.7540  -28.0520   22.5790 C   0  0  0  0  0  3  0  0  0  0  0  0
  -20.7610  -26.7300   21.7760 C   0  0  0  0  0  2  0  0  0  0  0  0
  -19.5680  -26.5960   20.8220 C   0  0  0  0  0  2  0  0  0  0  0  0
  -18.2510  -26.6500   21.6000 C   0  0  0  0  0  2  0  0  0  0  0  0
  -19.3440  -28.5350   22.9530 C   0  0  0  0  0  0  0  0  0  0  0  0
  -19.2090  -29.6750   23.7740 C   0  0  0  0  0  3  0  0  0  0  0  0
  -17.9360  -30.1490   24.1440 C   0  0  0  0  0  3  0  0  0  0  0  0
  -16.7810  -29.4790   23.7090 C   0  0  0  0  0  3  0  0  0  0  0  0
  -16.9000  -28.3370   22.8960 C   0  0  0  0  0  3  0  0  0  0  0  0
  -25.9190  -32.2480   23.6010 C   0  0  0  0  0  3  0  0  0  0  0  0
  -25.5270  -33.5940   24.0710 N   0  0  0  0  0  0  0  0  0  0  0  0
  -25.7960  -34.7470   23.4420 C   0  0  0  0  0  0  0  0  0  0  0  0
  -26.4510  -34.7920   22.3980 O   0  0  0  0  0  0  0  0  0  0  0  0
  -24.9340  -33.6260   24.8880 H   0  0  0  0  0  0  0  0  0  0  0  0
  -23.9690  -36.4840   23.3430 C   0  0  0  0  0  1  0  0  0  0  0  0
  -25.2590  -36.0550   24.0640 C   0  0  0  0  0  3  0  0  0  0  0  0
  -27.3640  -36.9810   24.9320 C   0  0  0  0  0  1  0  0  0  0  0  0
  -26.2310  -37.1720   24.0290 N   0  0  0  0  0  0  0  0  0  0  0  0
  -25.7800  -38.0510   24.2660 H   0  0  0  0  0  0  0  0  0  0  0  0
  -26.4400  -31.3960   24.8250 C   0  0  1  0  0  0  0  0  0  0  0  0
  -25.3370  -31.0280   25.8470 C   0  0  0  0  0  1  0  0  0  0  0  0
  -27.0880  -30.0770   24.3530 C   0  0  0  0  0  1  0  0  0  0  0  0
  -27.5440  -32.1780   25.5760 C   0  0  0  0  0  1  0  0  0  0  0  0
  2  9  1  0
  2  1  2  0
  3  1  1  0
  3  7  1  0
  4  2  1  0
  5  3  2  0
  6  4  2  0
  6  5  1  0
  8  4  1  0
  9 15  1  0
 10 15  1  0
 11 12  1  0
 11 10  1  0
 13 12  1  0
 13 20  1  0
 13 14  1  0
 15 14  1  0
 16  9  2  0
 17 18  2  0
 18 37  1  0
 19 18  1  0
 19 22  1  0
 20 21  1  0
 20 17  1  0
 21 19  2  0
 22 23  1  0
 23 24  2  0
 25 28  1  0
 25 24  1  0
 26 25  2  0
 27 26  1  0
 27 22  2  0
 28 29  1  0
 29 34  2  0
 29 30  1  0
 30 31  2  0
 32 31  1  0
 32 36  1  0
 33 32  2  0
 34 33  1  0
 35 34  1  0
 37 38  1  0
 38 41  1  0
 38 40  1  0
 39 37  2  0
 42 17  1  0
 42 43  1  0
 44 42  1  0
 45  6  1  0
 46 45  1  0
 47 45  1  0
 49 51  1  0
 50 61  2  0
 51 56  1  0
 52 60  1  0
 52 62  1  0
 53 59  1  0
 53 55  1  0
 54 60  1  0
 55 54  1  0
 56 55  2  0
 57 58  1  0
 57 51  2  0
 58 53  2  0
 59 52  1  0
 60 50  1  0
 62 64  2  0
 63 62  1  0
 65 63  1  0
 66 75  2  0
 66 71  1  0
 67 63  1  0
 67 71  1  0
 68 67  1  0
 69 70  1  0
 69 68  1  0
 70 66  1  0
 71 72  2  0
 72 73  1  0
 74 73  2  0
 75 74  1  0
 76 50  1  0
 76 77  1  0
 76 86  1  0
 77 80  1  0
 78 82  1  0
 78 77  1  0
 79 78  2  0
 82 81  1  0
 84 82  1  0
 84 85  1  0
 84 83  1  0
 86 89  1  1
 86 87  1  0
 88 86  1  0
M  ISO  4   2 100   9 100  48 101  49 101
M  END
>  <TORSDO>  (21) 
F 18

>  <SCORE>  (21) 
-14.100

>  <name>  (21) 
20

>  <ligand_id>  (21) 
20

>  <original_smiles>  (21) 
[H]c1c([H])c([H])c2c(c1[H])C([H])([H])C([H])([H])C([H])([H])C2([H])N([H])C(=O)C1([H])N(C(=O)C([H])(N([H])C(=O)C([H])(N([H])C([H])([H])[H])C([H])([H])[H])C(C([H])([H])[H])(C([H])([H])[H])C([H])([H])[H])C([H])([H])c2c([H])c(OC([H])([H])c3c(N([H])[H])c(C([H])([H])[H])c(C(=O)N4C([H])([H])C([H])([H])C([H])([H])C([H])(n5nc(-c6c([H])c([H])c(Oc7c([H])c([H])c(F)c([H])c7F)c([H])c6[H])c(C(=O)N([H])[H])c5N([H])[H])C4([H])[H])c([H])c3C([H])([H])[H])c([H])c([H])c2C1([H])[H]

>  <smiles>  (21) 
[H]c1c([H])c([H])c2c(c1[H])C([H])([H])C([H])([H])C([H])([H])C2([H])N([H])C(=O)C1([H])N(C(=O)C([H])(N([H])C(=O)C([H])(N([H])C([H])([H])[H])C([H])([H])[H])C(C([H])([H])[H])(C([H])([H])[H])C([H])([H])[H])C([H])([H])c2c([H])c(OC([H])([H])c3c(N([H])[H])c(C([H])([H])[H])c(C(=O)N4C([H])([H])C([H])([H])C([H])([H])C([H])(n5nc(-c6c([H])c([H])c(Oc7c([H])c([H])c(F)c([H])c7F)c([H])c6[H])c(C(=O)N([H])[H])c5N([H])[H])C4([H])[H])c([H])c3C([H])([H])[H])c([H])c([H])c2C1([H])[H]

$$$$
21:0:0
     RDKit          3D

 93102  0  0  1  0  0  0  0  0999 V2000
  -29.6320  -19.5780   20.9610 C   0  0  0  0  0  0  0  0  0  0  0  0
  -29.7760  -16.9370   20.3730 C   0  0  0  0  0  0  0  0  0  0  0  0
  -28.7930  -19.9350   19.8710 C   0  0  0  0  0  0  0  0  0  0  0  0
  -30.0990  -18.1500   21.1920 C   0  0  0  0  0  0  0  0  0  0  0  0
  -28.9470  -17.4010   19.2680 C   0  0  0  0  0  0  0  0  0  0  0  0
  -28.4500  -18.7780   19.0690 C   0  0  0  0  0  0  0  0  0  0  0  0
  -30.0090  -20.8570   21.7600 C   0  0  0  0  0  0  0  0  0  0  0  0
  -28.2750  -21.4900   19.5490 C   0  0  0  0  0  2  0  0  0  0  0  0
  -29.1870  -22.2410   21.6580 C   0  0  0  0  0  2  0  0  0  0  0  0
  -28.8310  -22.9070   20.2530 C   0  0  1  0  0  0  0  0  0  0  0  0
  -31.0130  -17.9130   22.3880 C   0  0  0  0  0  1  0  0  0  0  0  0
  -28.6260  -16.4130   18.1490 C   0  0  0  0  0  1  0  0  0  0  0  0
  -27.5110  -19.0400   17.8900 C   0  0  0  0  0  1  0  0  0  0  0  0
  -30.1390  -23.2690   19.5260 C   0  0  0  0  0  1  0  0  0  0  0  0
  -30.9620  -20.8600   22.5440 O   0  0  0  0  0  0  0  0  0  0  0  0
  -30.4660  -15.3940   20.4580 C   0  0  0  0  0  0  0  0  0  0  0  0
  -30.4550  -12.9420   19.6250 C   0  0  0  0  0  2  0  0  0  0  0  0
  -29.5780  -12.6830   18.3750 C   0  0  0  0  0  2  0  0  0  0  0  0
  -28.1110  -12.4440   18.7700 C   0  0  0  0  0  2  0  0  0  0  0  0
  -27.6180  -13.4170   19.8700 C   0  0  0  0  0  3  0  0  0  0  0  0
  -28.6330  -13.6130   21.0120 C   0  0  0  0  0  2  0  0  0  0  0  0
  -29.8810  -14.0980   20.4040 N   0  0  0  0  0  0  0  0  0  0  0  0
  -31.6990  -15.3410   20.3440 O   0  0  0  0  0  0  0  0  0  0  0  0
  -25.2280  -13.9480   20.5750 C   0  0  0  0  0  0  0  0  0  0  0  0
  -24.1680  -13.1550   20.9180 C   0  0  0  0  0  0  0  0  0  0  0  0
  -24.6540  -11.8120   20.9020 C   0  0  0  0  0  0  0  0  0  0  0  0
  -26.2870  -13.0860   20.3570 N   0  0  0  0  0  0  0  0  0  0  0  0
  -25.9540  -11.7960   20.6260 N   0  0  0  0  0  0  0  0  0  0  0  0
  -23.9420  -10.5400   21.0740 C   0  0  0  0  0  0  0  0  0  0  0  0
  -24.3510   -9.5840   22.0290 C   0  0  0  0  0  3  0  0  0  0  0  0
  -23.6360   -8.3780   22.1890 C   0  0  0  0  0  3  0  0  0  0  0  0
  -22.4950   -8.1180   21.3930 C   0  0  0  0  0  0  0  0  0  0  0  0
  -22.1030   -9.0630   20.4270 C   0  0  0  0  0  3  0  0  0  0  0  0
  -22.8210  -10.2590   20.2660 C   0  0  0  0  0  3  0  0  0  0  0  0
  -21.7520   -6.9640   21.4620 O   0  0  0  0  0  0  0  0  0  0  0  0
  -21.6560   -6.2370   22.6210 C   0  0  0  0  0  0  0  0  0  0  0  0
  -21.1340   -6.7960   23.8090 C   0  0  0  0  0  3  0  0  0  0  0  0
  -20.9870   -5.9940   24.9590 C   0  0  0  0  0  3  0  0  0  0  0  0
  -21.3530   -4.6350   24.9220 C   0  0  0  0  0  0  0  0  0  0  0  0
  -21.8670   -4.0760   23.7390 C   0  0  0  0  0  3  0  0  0  0  0  0
  -22.0140   -4.8750   22.5910 C   0  0  0  0  0  0  0  0  0  0  0  0
  -22.4910   -4.3250   21.4480 F   0  0  0  0  0  0  0  0  0  0  0  0
  -21.2050   -3.8630   26.0230 F   0  0  0  0  0  0  0  0  0  0  0  0
  -22.7570  -13.6110   21.1460 C   0  0  0  0  0  0  0  0  0  0  0  0
  -22.0190  -12.9140   22.0010 N   0  0  0  0  0  0  0  0  0  0  0  0
  -22.3170  -14.6230   20.6020 O   0  0  0  0  0  0  0  0  0  0  0  0
  -22.3860  -12.0930   22.4600 H   0  0  0  0  0  0  0  0  0  0  0  0
  -21.0710  -13.2040   22.1980 H   0  0  0  0  0  0  0  0  0  0  0  0
  -25.3780  -15.3200   20.4020 N   0  0  0  0  0  0  0  0  0  0  0  0
  -24.6060  -15.9680   20.5100 H   0  0  0  0  0  0  0  0  0  0  0  0
  -26.2390  -15.7760   20.1300 H   0  0  0  0  0  0  0  0  0  0  0  0
  -27.8860  -24.4300   20.2030 C   0  0  0  0  0  2  0  0  0  0  0  0
  -28.1780  -26.0330   20.3230 O   0  0  0  0  0  0  0  0  0  0  0  0
  -24.6390  -31.9690   23.2890 C   0  0  0  0  0  0  0  0  0  0  0  0
  -27.1660  -27.1160   20.2600 C   0  0  0  0  0  0  0  0  0  0  0  0
  -23.4320  -30.5790   21.6550 C   0  0  0  0  0  3  0  0  0  0  0  0
  -24.8700  -28.9790   20.2230 C   0  0  0  0  0  0  0  0  0  0  0  0
  -25.9960  -30.7920   21.4960 C   0  0  0  0  0  2  0  0  0  0  0  0
  -26.0600  -29.3860   20.8370 C   0  0  0  0  0  0  0  0  0  0  0  0
  -27.2050  -28.4760   20.8310 C   0  0  0  0  0  3  0  0  0  0  0  0
  -25.9450  -26.8500   19.6010 C   0  0  0  0  0  3  0  0  0  0  0  0
  -24.8340  -27.7290   19.5840 C   0  0  0  0  0  3  0  0  0  0  0  0
  -23.6520  -29.9000   20.2760 C   0  0  0  0  0  2  0  0  0  0  0  0
  -24.7110  -31.1390   22.1990 N   0  0  0  0  0  0  0  0  0  0  0  0
  -23.5530  -32.2620   23.8160 O   0  0  0  0  0  0  0  0  0  0  0  0
  -22.7420  -29.5820   22.6200 C   0  0  0  0  0  0  0  0  0  0  0  0
  -21.4150  -29.4030   22.4850 N   0  0  0  0  0  0  0  0  0  0  0  0
  -23.4070  -28.9720   23.4610 O   0  0  0  0  0  0  0  0  0  0  0  0
  -20.9320  -29.9450   21.7830 H   0  0  0  0  0  0  0  0  0  0  0  0
  -18.0410  -28.1580   22.9650 C   0  0  0  0  0  0  0  0  0  0  0  0
  -20.5940  -28.4640   23.2580 C   0  0  0  0  0  3  0  0  0  0  0  0
  -20.7230  -27.0260   22.7040 C   0  0  0  0  0  2  0  0  0  0  0  0
  -19.6390  -26.6740   21.6810 C   0  0  0  0  0  2  0  0  0  0  0  0
  -18.2470  -26.8050   22.3050 C   0  0  0  0  0  2  0  0  0  0  0  0
  -19.1430  -28.9440   23.3970 C   0  0  0  0  0  0  0  0  0  0  0  0
  -18.8950  -30.2070   23.9770 C   0  0  0  0  0  3  0  0  0  0  0  0
  -17.5800  -30.6860   24.1250 C   0  0  0  0  0  3  0  0  0  0  0  0
  -16.4940  -29.8990   23.7060 C   0  0  0  0  0  3  0  0  0  0  0  0
  -16.7250  -28.6360   23.1330 C   0  0  0  0  0  3  0  0  0  0  0  0
  -25.9160  -32.6050   23.9150 C   0  0  0  0  0  3  0  0  0  0  0  0
  -25.6100  -34.0110   24.2380 N   0  0  0  0  0  0  0  0  0  0  0  0
  -25.9260  -35.0610   23.4700 C   0  0  0  0  0  0  0  0  0  0  0  0
  -26.5700  -34.9510   22.4230 O   0  0  0  0  0  0  0  0  0  0  0  0
  -25.0390  -34.1690   25.0540 H   0  0  0  0  0  0  0  0  0  0  0  0
  -24.1850  -36.8540   23.1650 C   0  0  0  0  0  1  0  0  0  0  0  0
  -25.4570  -36.4550   23.9320 C   0  0  0  0  0  3  0  0  0  0  0  0
  -27.6150  -37.3550   24.6810 C   0  0  0  0  0  1  0  0  0  0  0  0
  -26.4830  -37.5080   23.7720 N   0  0  0  0  0  0  0  0  0  0  0  0
  -26.0800  -38.4290   23.9220 H   0  0  0  0  0  0  0  0  0  0  0  0
  -26.4160  -31.8490   25.2080 C   0  0  1  0  0  0  0  0  0  0  0  0
  -25.3110  -31.6340   26.2700 C   0  0  0  0  0  1  0  0  0  0  0  0
  -26.9930  -30.4610   24.8480 C   0  0  0  0  0  1  0  0  0  0  0  0
  -27.5670  -32.6430   25.8690 C   0  0  0  0  0  1  0  0  0  0  0  0
  1  4  1  0
  1  7  1  0
  2 16  1  0
  2  4  2  0
  3  1  2  0
  4 11  1  0
  5  2  1  0
  6  5  2  0
  6  3  1  0
  7 15  2  0
  8  3  1  0
  8 10  1  0
  9  7  1  0
 10 14  1  6
 10  9  1  0
 12  5  1  0
 13  6  1  0
 17 22  1  0
 18 19  1  0
 18 17  1  0
 20 19  1  0
 20 27  1  0
 20 21  1  0
 22 16  1  0
 22 21  1  0
 23 16  2  0
 24 25  2  0
 25 44  1  0
 26 25  1  0
 26 29  1  0
 27 24  1  0
 27 28  1  0
 28 26  2  0
 29 30  1  0
 30 31  2  0
 32 35  1  0
 32 31  1  0
 33 32  2  0
 34 33  1  0
 34 29  2  0
 35 36  1  0
 36 37  1  0
 37 38  2  0
 39 38  1  0
 39 43  1  0
 40 39  2  0
 41 36  2  0
 41 40  1  0
 42 41  1  0
 44 45  1  0
 45 48  1  0
 45 47  1  0
 46 44  2  0
 49 50  1  0
 49 24  1  0
 51 49  1  0
 52 10  1  0
 52 53  1  0
 54 65  2  0
 55 53  1  0
 55 60  1  0
 56 64  1  0
 56 66  1  0
 57 63  1  0
 57 59  1  0
 58 64  1  0
 59 58  1  0
 60 59  2  0
 61 55  2  0
 62 61  1  0
 62 57  2  0
 63 56  1  0
 64 54  1  0
 66 68  2  0
 67 66  1  0
 69 67  1  0
 70 79  2  0
 70 75  1  0
 71 67  1  0
 71 75  1  0
 72 71  1  0
 73 74  1  0
 73 72  1  0
 74 70  1  0
 75 76  2  0
 76 77  1  0
 78 77  2  0
 79 78  1  0
 80 54  1  0
 80 81  1  0
 80 90  1  0
 81 84  1  0
 82 86  1  0
 82 81  1  0
 83 82  2  0
 86 85  1  0
 88 89  1  0
 88 86  1  0
 88 87  1  0
 90 93  1  1
 90 91  1  0
 92 90  1  0
M  ISO  4   2 100  16 100  52 101  53 101
M  END
>  <TORSDO>  (22) 
F 17

>  <SCORE>  (22) 
-15.062

>  <name>  (22) 
21

>  <ligand_id>  (22) 
21

>  <original_smiles>  (22) 
[H]c1c([H])c([H])c2c(c1[H])C([H])([H])C([H])([H])C([H])([H])C2([H])N([H])C(=O)C1([H])N(C(=O)C([H])(N([H])C(=O)C([H])(N([H])C([H])([H])[H])C([H])([H])[H])C(C([H])([H])[H])(C([H])([H])[H])C([H])([H])[H])C([H])([H])c2c([H])c(OC([H])([H])C3(C([H])([H])[H])C([H])([H])C(=O)c4c(C([H])([H])[H])c(C(=O)N5C([H])([H])C([H])([H])C([H])([H])C([H])(n6nc(-c7c([H])c([H])c(Oc8c([H])c([H])c(F)c([H])c8F)c([H])c7[H])c(C(=O)N([H])[H])c6N([H])[H])C5([H])[H])c(C([H])([H])[H])c(C([H])([H])[H])c4C3([H])[H])c([H])c([H])c2C1([H])[H]

>  <smiles>  (22) 
[H]c1c([H])c([H])c2c(c1[H])C([H])([H])C([H])([H])C([H])([H])C2([H])N([H])C(=O)C1([H])N(C(=O)C([H])(N([H])C(=O)C([H])(N([H])C([H])([H])[H])C([H])([H])[H])C(C([H])([H])[H])(C([H])([H])[H])C([H])([H])[H])C([H])([H])c2c([H])c(OC([H])([H])C3(C([H])([H])[H])C([H])([H])C(=O)c4c(C([H])([H])[H])c(C(=O)N5C([H])([H])C([H])([H])C([H])([H])C([H])(n6nc(-c7c([H])c([H])c(Oc8c([H])c([H])c(F)c([H])c8F)c([H])c7[H])c(C(=O)N([H])[H])c6N([H])[H])C5([H])[H])c(C([H])([H])[H])c(C([H])([H])[H])c4C3([H])[H])c([H])c([H])c2C1([H])[H]

$$$$
22:0:0
     RDKit          3D

 91 99  0  0  1  0  0  0  0  0999 V2000
  -29.0040  -23.5990   22.6260 C   0  0  0  0  0  3  0  0  0  0  0  0
  -29.0970  -22.3620   21.9450 C   0  0  0  0  0  0  0  0  0  0  0  0
  -28.6950  -24.8310   21.9990 C   0  0  0  0  0  0  0  0  0  0  0  0
  -28.8690  -22.2640   20.5510 C   0  0  0  0  0  0  0  0  0  0  0  0
  -28.5630  -23.5960   19.9090 C   0  0  0  0  0  0  0  0  0  0  0  0
  -28.4650  -24.9280   20.6050 C   0  0  0  0  0  0  0  0  0  0  0  0
  -29.4030  -21.1160   22.7600 C   0  0  0  0  0  1  0  0  0  0  0  0
  -28.6570  -26.0790   22.8640 C   0  0  0  0  0  1  0  0  0  0  0  0
  -28.3270  -23.5980   18.4120 C   0  0  0  0  0  1  0  0  0  0  0  0
  -28.3520  -26.3030   20.0630 O   0  0  0  0  0  0  0  0  0  0  0  0
  -24.6540  -31.9380   23.2370 C   0  0  0  0  0  0  0  0  0  0  0  0
  -27.2590  -27.2490   20.1620 C   0  0  0  0  0  0  0  0  0  0  0  0
  -23.4520  -30.5270   21.6130 C   0  0  0  0  0  3  0  0  0  0  0  0
  -24.9020  -28.9660   20.1690 C   0  0  0  0  0  0  0  0  0  0  0  0
  -25.9990  -30.8280   21.4080 C   0  0  0  0  0  2  0  0  0  0  0  0
  -26.0850  -29.4300   20.7600 C   0  0  0  0  0  0  0  0  0  0  0  0
  -27.2640  -28.5900   20.7360 C   0  0  0  0  0  3  0  0  0  0  0  0
  -26.0480  -26.8870   19.5400 C   0  0  0  0  0  3  0  0  0  0  0  0
  -24.8950  -27.7090   19.5450 C   0  0  0  0  0  3  0  0  0  0  0  0
  -23.6640  -29.8510   20.2320 C   0  0  0  0  0  2  0  0  0  0  0  0
  -24.7220  -31.1200   22.1410 N   0  0  0  0  0  0  0  0  0  0  0  0
  -23.5720  -32.2040   23.7830 O   0  0  0  0  0  0  0  0  0  0  0  0
  -22.8020  -29.5100   22.5840 C   0  0  0  0  0  0  0  0  0  0  0  0
  -21.4790  -29.2980   22.4580 N   0  0  0  0  0  0  0  0  0  0  0  0
  -23.4910  -28.9110   23.4140 O   0  0  0  0  0  0  0  0  0  0  0  0
  -20.9780  -29.8320   21.7620 H   0  0  0  0  0  0  0  0  0  0  0  0
  -18.1440  -27.9640   22.9380 C   0  0  0  0  0  0  0  0  0  0  0  0
  -20.6860  -28.3410   23.2350 C   0  0  0  0  0  3  0  0  0  0  0  0
  -20.8570  -26.9040   22.6900 C   0  0  0  0  0  2  0  0  0  0  0  0
  -19.7840  -26.5150   21.6660 C   0  0  0  0  0  2  0  0  0  0  0  0
  -18.3880  -26.6120   22.2890 C   0  0  0  0  0  2  0  0  0  0  0  0
  -19.2230  -28.7820   23.3680 C   0  0  0  0  0  0  0  0  0  0  0  0
  -18.9400  -30.0420   23.9370 C   0  0  0  0  0  3  0  0  0  0  0  0
  -17.6130  -30.4870   24.0800 C   0  0  0  0  0  3  0  0  0  0  0  0
  -16.5490  -29.6670   23.6640 C   0  0  0  0  0  3  0  0  0  0  0  0
  -16.8160  -28.4070   23.1000 C   0  0  0  0  0  3  0  0  0  0  0  0
  -25.9300  -32.5930   23.8480 C   0  0  0  0  0  3  0  0  0  0  0  0
  -26.4590  -31.8410   25.1320 C   0  0  1  0  0  0  0  0  0  0  0  0
  -25.3700  -31.6020   26.2040 C   0  0  0  0  0  1  0  0  0  0  0  0
  -27.0570  -30.4640   24.7580 C   0  0  0  0  0  1  0  0  0  0  0  0
  -27.6020  -32.6560   25.7820 C   0  0  0  0  0  1  0  0  0  0  0  0
  -25.6070  -33.9920   24.1700 N   0  0  0  0  0  0  0  0  0  0  0  0
  -25.9420  -35.0480   23.4180 C   0  0  0  0  0  0  0  0  0  0  0  0
  -26.6230  -34.9480   22.3930 O   0  0  0  0  0  0  0  0  0  0  0  0
  -25.0020  -34.1420   24.9640 H   0  0  0  0  0  0  0  0  0  0  0  0
  -24.2270  -36.8500   23.0330 C   0  0  0  0  0  1  0  0  0  0  0  0
  -25.4470  -36.4360   23.8720 C   0  0  0  0  0  3  0  0  0  0  0  0
  -27.5590  -37.3190   24.7640 C   0  0  0  0  0  1  0  0  0  0  0  0
  -26.4840  -37.4880   23.7890 N   0  0  0  0  0  0  0  0  0  0  0  0
  -26.0760  -38.4090   23.9260 H   0  0  0  0  0  0  0  0  0  0  0  0
  -28.7410  -20.7130   19.9300 C   0  0  0  0  0  2  0  0  0  0  0  0
  -29.7900  -19.3520   19.8600 C   0  0  0  0  0  2  0  0  0  0  0  0
  -29.8590  -17.8890   20.7410 C   0  0  0  0  0  2  0  0  0  0  0  0
  -30.6230  -15.1960   20.2080 C   0  0  0  0  0  0  0  0  0  0  0  0
  -30.5690  -12.8270   19.2600 C   0  0  0  0  0  2  0  0  0  0  0  0
  -29.6260  -12.7270   18.0390 C   0  0  0  0  0  2  0  0  0  0  0  0
  -28.1680  -12.4910   18.4840 C   0  0  0  0  0  2  0  0  0  0  0  0
  -27.7470  -13.4220   19.6500 C   0  0  0  0  0  3  0  0  0  0  0  0
  -28.8090  -13.4710   20.7650 C   0  0  0  0  0  2  0  0  0  0  0  0
  -30.0570  -13.9200   20.1350 N   0  0  0  0  0  0  0  0  0  0  0  0
  -31.8430  -15.2750   20.0330 O   0  0  0  0  0  0  0  0  0  0  0  0
  -29.7850  -16.3600   20.2640 N   0  0  0  0  0  0  0  0  0  0  0  0
  -28.8230  -16.0700   20.1750 H   0  0  0  0  0  0  0  0  0  0  0  0
  -25.3660  -13.9760   20.4010 C   0  0  0  0  0  0  0  0  0  0  0  0
  -24.3130  -13.1910   20.7790 C   0  0  0  0  0  0  0  0  0  0  0  0
  -24.7940  -11.8450   20.7550 C   0  0  0  0  0  0  0  0  0  0  0  0
  -26.4190  -13.1090   20.1600 N   0  0  0  0  0  0  0  0  0  0  0  0
  -26.0850  -11.8230   20.4420 N   0  0  0  0  0  0  0  0  0  0  0  0
  -24.0830  -10.5750   20.9550 C   0  0  0  0  0  0  0  0  0  0  0  0
  -24.4910   -9.6460   21.9370 C   0  0  0  0  0  3  0  0  0  0  0  0
  -23.7770   -8.4420   22.1220 C   0  0  0  0  0  3  0  0  0  0  0  0
  -22.6430   -8.1590   21.3230 C   0  0  0  0  0  0  0  0  0  0  0  0
  -22.2560   -9.0780   20.3320 C   0  0  0  0  0  3  0  0  0  0  0  0
  -22.9700  -10.2730   20.1460 C   0  0  0  0  0  3  0  0  0  0  0  0
  -21.9040   -7.0040   21.4150 O   0  0  0  0  0  0  0  0  0  0  0  0
  -21.7740   -6.3270   22.6010 C   0  0  0  0  0  0  0  0  0  0  0  0
  -21.1990   -6.9260   23.7430 C   0  0  0  0  0  3  0  0  0  0  0  0
  -21.0210   -6.1710   24.9200 C   0  0  0  0  0  3  0  0  0  0  0  0
  -21.4040   -4.8170   24.9540 C   0  0  0  0  0  0  0  0  0  0  0  0
  -21.9710   -4.2170   23.8160 C   0  0  0  0  0  3  0  0  0  0  0  0
  -22.1510   -4.9680   22.6410 C   0  0  0  0  0  0  0  0  0  0  0  0
  -22.6780   -4.3800   21.5400 F   0  0  0  0  0  0  0  0  0  0  0  0
  -21.2260   -4.0890   26.0810 F   0  0  0  0  0  0  0  0  0  0  0  0
  -22.9100  -13.6530   21.0450 C   0  0  0  0  0  0  0  0  0  0  0  0
  -22.1920  -12.9610   21.9230 N   0  0  0  0  0  0  0  0  0  0  0  0
  -22.4580  -14.6640   20.5090 O   0  0  0  0  0  0  0  0  0  0  0  0
  -22.5720  -12.1440   22.3790 H   0  0  0  0  0  0  0  0  0  0  0  0
  -21.2520  -13.2540   22.1430 H   0  0  0  0  0  0  0  0  0  0  0  0
  -25.5090  -15.3480   20.2140 N   0  0  0  0  0  0  0  0  0  0  0  0
  -24.7270  -15.9850   20.3230 H   0  0  0  0  0  0  0  0  0  0  0  0
  -26.3330  -15.7980   19.8400 H   0  0  0  0  0  0  0  0  0  0  0  0
  2  1  2  0
  2  7  1  0
  3  1  1  0
  3  8  1  0
  4  2  1  0
  5  4  2  0
  5  6  1  0
  6  3  2  0
  9  5  1  0
 10 12  1  0
 10  6  1  0
 11 22  2  0
 12 17  1  0
 13 21  1  0
 13 23  1  0
 14 20  1  0
 14 16  1  0
 15 21  1  0
 16 15  1  0
 17 16  2  0
 18 19  1  0
 18 12  2  0
 19 14  2  0
 20 13  1  0
 21 11  1  0
 23 25  2  0
 24 23  1  0
 26 24  1  0
 27 36  2  0
 27 32  1  0
 28 24  1  0
 28 32  1  0
 29 28  1  0
 30 31  1  0
 30 29  1  0
 31 27  1  0
 32 33  2  0
 33 34  1  0
 35 34  2  0
 36 35  1  0
 37 11  1  0
 37 42  1  0
 37 38  1  0
 38 41  1  1
 38 39  1  0
 40 38  1  0
 42 45  1  0
 43 47  1  0
 43 42  1  0
 44 43  2  0
 47 46  1  0
 49 47  1  0
 49 50  1  0
 49 48  1  0
 51  4  1  0
 52 51  1  0
 52 53  1  0
 54 62  1  0
 55 60  1  0
 56 57  1  0
 56 55  1  0
 58 57  1  0
 58 67  1  0
 58 59  1  0
 60 54  1  0
 60 59  1  0
 61 54  2  0
 62 53  1  0
 63 62  1  0
 64 65  2  0
 65 84  1  0
 66 65  1  0
 66 69  1  0
 67 64  1  0
 67 68  1  0
 68 66  2  0
 69 70  1  0
 70 71  2  0
 72 75  1  0
 72 71  1  0
 73 72  2  0
 74 73  1  0
 74 69  2  0
 75 76  1  0
 76 81  2  0
 76 77  1  0
 77 78  2  0
 78 79  1  0
 79 83  1  0
 80 79  2  0
 81 80  1  0
 82 81  1  0
 84 85  1  0
 85 88  1  0
 85 87  1  0
 86 84  2  0
 89 90  1  0
 89 64  1  0
 91 89  1  0
M  ISO  4   6 101  10 101  54 100  62 100
M  END
>  <TORSDO>  (23) 
F 19

>  <SCORE>  (23) 
-15.027

>  <name>  (23) 
22

>  <ligand_id>  (23) 
22

>  <original_smiles>  (23) 
[H]c1c([H])c([H])c2c(c1[H])C([H])([H])C([H])([H])C([H])([H])C2([H])N([H])C(=O)C1([H])N(C(=O)C([H])(N([H])C(=O)C([H])(N([H])C([H])([H])[H])C([H])([H])[H])C(C([H])([H])[H])(C([H])([H])[H])C([H])([H])[H])C([H])([H])c2c([H])c(Oc3c(C([H])([H])[H])c([H])c(C([H])([H])[H])c(C([H])([H])C([H])([H])C([H])([H])N([H])C(=O)N4C([H])([H])C([H])([H])C([H])([H])C([H])(n5nc(-c6c([H])c([H])c(Oc7c([H])c([H])c(F)c([H])c7F)c([H])c6[H])c(C(=O)N([H])[H])c5N([H])[H])C4([H])[H])c3C([H])([H])[H])c([H])c([H])c2C1([H])[H]

>  <smiles>  (23) 
[H]c1c([H])c([H])c2c(c1[H])C([H])([H])C([H])([H])C([H])([H])C2([H])N([H])C(=O)C1([H])N(C(=O)C([H])(N([H])C(=O)C([H])(N([H])C([H])([H])[H])C([H])([H])[H])C(C([H])([H])[H])(C([H])([H])[H])C([H])([H])[H])C([H])([H])c2c([H])c(Oc3c(C([H])([H])[H])c([H])c(C([H])([H])[H])c(C([H])([H])C([H])([H])C([H])([H])N([H])C(=O)N4C([H])([H])C([H])([H])C([H])([H])C([H])(n5nc(-c6c([H])c([H])c(Oc7c([H])c([H])c(F)c([H])c7F)c([H])c6[H])c(C(=O)N([H])[H])c5N([H])[H])C4([H])[H])c3C([H])([H])[H])c([H])c([H])c2C1([H])[H]

$$$$
23:0:0
     RDKit          3D

100109  0  0  1  0  0  0  0  0999 V2000
  -28.8310  -23.7590   22.9210 C   0  0  0  0  0  3  0  0  0  0  0  0
  -28.7140  -24.5940   24.0350 C   0  0  0  0  0  3  0  0  0  0  0  0
  -28.4400  -26.4420   22.5420 C   0  0  0  0  0  3  0  0  0  0  0  0
  -28.7430  -24.1710   21.5560 C   0  0  0  0  0  0  0  0  0  0  0  0
  -28.5310  -25.9550   23.8480 C   0  0  0  0  0  0  0  0  0  0  0  0
  -28.4800  -25.6370   21.3650 C   0  0  0  0  0  0  0  0  0  0  0  0
  -27.7520  -22.3030   19.9130 C   0  0  0  0  0  2  0  0  0  0  0  0
  -28.0490  -20.8150   19.4650 C   0  0  0  0  0  3  0  0  0  0  0  0
  -29.4280  -20.3440   20.0310 C   0  0  0  0  0  3  0  0  0  0  0  0
  -29.0240  -22.9570   20.5060 C   0  0  2  0  0  0  0  0  0  0  0  0
  -29.6860  -21.5470   21.0340 C   0  0  2  0  0  0  0  0  0  0  0  0
  -27.9550  -20.6360   17.9400 C   0  0  0  0  0  1  0  0  0  0  0  0
  -29.8710  -23.5390   19.3550 C   0  0  0  0  0  1  0  0  0  0  0  0
  -31.1670  -21.6730   21.4320 C   0  0  0  0  0  1  0  0  0  0  0  0
  -29.0300  -21.0450   22.0820 F   0  0  0  0  0  0  0  0  0  0  0  0
  -29.4030  -18.9240   20.6570 N   0  0  0  0  0  4  0  0  0  0  0  0
  -28.4300  -18.6990   20.7940 H   0  0  0  0  0  0  0  0  0  0  0  0
  -29.7790  -19.0530   21.5850 H   0  0  0  0  0  0  0  0  0  0  0  0
  -30.0940  -17.6890   20.0340 C   0  0  0  0  0  3  0  0  0  0  0  0
  -29.8360  -16.2240   20.7130 C   0  0  0  0  0  3  0  0  0  0  0  0
  -30.6040  -14.8900   20.2240 C   0  0  0  0  0  0  0  0  0  0  0  0
  -30.4090  -12.6170   19.1800 C   0  0  0  0  0  2  0  0  0  0  0  0
  -29.4530  -12.7110   17.9690 C   0  0  0  0  0  2  0  0  0  0  0  0
  -27.9870  -12.5380   18.4120 C   0  0  0  0  0  2  0  0  0  0  0  0
  -27.6330  -13.4100   19.6450 C   0  0  0  0  0  3  0  0  0  0  0  0
  -28.7050  -13.2920   20.7520 C   0  0  0  0  0  2  0  0  0  0  0  0
  -29.9990  -13.6520   20.1590 N   0  0  0  0  0  0  0  0  0  0  0  0
  -31.7620  -15.0060   19.8090 O   0  0  0  0  0  0  0  0  0  0  0  0
  -25.2480  -14.0070   20.3800 C   0  0  0  0  0  0  0  0  0  0  0  0
  -24.1860  -13.2360   20.7680 C   0  0  0  0  0  0  0  0  0  0  0  0
  -24.6510  -11.8860   20.7530 C   0  0  0  0  0  0  0  0  0  0  0  0
  -26.2920  -13.1260   20.1490 N   0  0  0  0  0  0  0  0  0  0  0  0
  -25.9410  -11.8470   20.4360 N   0  0  0  0  0  0  0  0  0  0  0  0
  -23.9290  -10.6250   20.9650 C   0  0  0  0  0  0  0  0  0  0  0  0
  -24.3720   -9.6680   21.9050 C   0  0  0  0  0  3  0  0  0  0  0  0
  -23.6490   -8.4730   22.1040 C   0  0  0  0  0  3  0  0  0  0  0  0
  -22.4690   -8.2240   21.3620 C   0  0  0  0  0  0  0  0  0  0  0  0
  -22.0460   -9.1680   20.4110 C   0  0  0  0  0  3  0  0  0  0  0  0
  -22.7690  -10.3560   20.2110 C   0  0  0  0  0  3  0  0  0  0  0  0
  -21.7170   -7.0800   21.4710 O   0  0  0  0  0  0  0  0  0  0  0  0
  -21.6840   -6.3470   22.6300 C   0  0  0  0  0  0  0  0  0  0  0  0
  -21.2740   -6.9110   23.8580 C   0  0  0  0  0  3  0  0  0  0  0  0
  -21.1900   -6.1040   25.0110 C   0  0  0  0  0  3  0  0  0  0  0  0
  -21.5050   -4.7350   24.9360 C   0  0  0  0  0  0  0  0  0  0  0  0
  -21.9070   -4.1700   23.7140 C   0  0  0  0  0  3  0  0  0  0  0  0
  -21.9940   -4.9740   22.5630 C   0  0  0  0  0  0  0  0  0  0  0  0
  -22.3620   -4.4190   21.3830 F   0  0  0  0  0  0  0  0  0  0  0  0
  -21.4160   -3.9570   26.0410 F   0  0  0  0  0  0  0  0  0  0  0  0
  -22.7890  -13.7130   21.0410 C   0  0  0  0  0  0  0  0  0  0  0  0
  -22.0680  -13.0280   21.9210 N   0  0  0  0  0  0  0  0  0  0  0  0
  -22.3450  -14.7300   20.5070 O   0  0  0  0  0  0  0  0  0  0  0  0
  -22.4400  -12.2070   22.3740 H   0  0  0  0  0  0  0  0  0  0  0  0
  -21.1310  -13.3310   22.1470 H   0  0  0  0  0  0  0  0  0  0  0  0
  -25.4060  -15.3750   20.1810 N   0  0  0  0  0  0  0  0  0  0  0  0
  -24.6330  -16.0240   20.2760 H   0  0  0  0  0  0  0  0  0  0  0  0
  -26.2400  -15.8060   19.8030 H   0  0  0  0  0  0  0  0  0  0  0  0
  -28.4600  -26.8120   24.9440 N   0  0  0  0  0  0  0  0  0  0  0  0
  -28.2750  -26.4200   25.8630 H   0  0  0  0  0  0  0  0  0  0  0  0
  -28.0640  -27.7380   24.8210 H   0  0  0  0  0  0  0  0  0  0  0  0
  -28.3130  -26.4510   20.2000 O   0  0  0  0  0  0  0  0  0  0  0  0
  -24.6400  -31.9370   23.2200 C   0  0  0  0  0  0  0  0  0  0  0  0
  -27.2430  -27.3880   20.1290 C   0  0  0  0  0  0  0  0  0  0  0  0
  -23.4210  -30.5350   21.5930 C   0  0  0  0  0  3  0  0  0  0  0  0
  -24.8630  -29.0000   20.1300 C   0  0  0  0  0  0  0  0  0  0  0  0
  -25.9530  -30.8840   21.3570 C   0  0  0  0  0  2  0  0  0  0  0  0
  -26.0390  -29.5080   20.6940 C   0  0  0  0  0  0  0  0  0  0  0  0
  -27.2360  -28.7290   20.6520 C   0  0  0  0  0  3  0  0  0  0  0  0
  -26.0470  -26.9480   19.5260 C   0  0  0  0  0  3  0  0  0  0  0  0
  -24.8740  -27.7330   19.5220 C   0  0  0  0  0  3  0  0  0  0  0  0
  -23.6150  -29.8620   20.2080 C   0  0  0  0  0  2  0  0  0  0  0  0
  -24.6910  -31.1350   22.1150 N   0  0  0  0  0  0  0  0  0  0  0  0
  -23.5640  -32.2010   23.7770 O   0  0  0  0  0  0  0  0  0  0  0  0
  -22.7800  -29.5120   22.5640 C   0  0  0  0  0  0  0  0  0  0  0  0
  -21.4560  -29.3160   22.4520 N   0  0  0  0  0  0  0  0  0  0  0  0
  -23.4760  -28.8990   23.3770 O   0  0  0  0  0  0  0  0  0  0  0  0
  -20.9520  -29.8640   21.7680 H   0  0  0  0  0  0  0  0  0  0  0  0
  -18.1060  -28.0480   22.9690 C   0  0  0  0  0  0  0  0  0  0  0  0
  -20.6600  -28.3660   23.2300 C   0  0  0  0  0  3  0  0  0  0  0  0
  -20.7910  -26.9340   22.6630 C   0  0  0  0  0  2  0  0  0  0  0  0
  -19.6940  -26.5820   21.6530 C   0  0  0  0  0  2  0  0  0  0  0  0
  -18.3100  -26.6990   22.3000 C   0  0  0  0  0  2  0  0  0  0  0  0
  -19.2080  -28.8370   23.3910 C   0  0  0  0  0  0  0  0  0  0  0  0
  -18.9630  -30.0980   23.9790 C   0  0  0  0  0  3  0  0  0  0  0  0
  -17.6480  -30.5700   24.1450 C   0  0  0  0  0  3  0  0  0  0  0  0
  -16.5600  -29.7790   23.7390 C   0  0  0  0  0  3  0  0  0  0  0  0
  -16.7900  -28.5190   23.1570 C   0  0  0  0  0  3  0  0  0  0  0  0
  -25.9260  -32.5790   23.8250 C   0  0  0  0  0  3  0  0  0  0  0  0
  -25.6100  -33.9730   24.1690 N   0  0  0  0  0  0  0  0  0  0  0  0
  -25.9260  -35.0350   23.4150 C   0  0  0  0  0  0  0  0  0  0  0  0
  -26.5800  -34.9430   22.3730 O   0  0  0  0  0  0  0  0  0  0  0  0
  -25.0260  -34.1180   24.9800 H   0  0  0  0  0  0  0  0  0  0  0  0
  -24.1810  -36.8190   23.0990 C   0  0  0  0  0  1  0  0  0  0  0  0
  -25.4360  -36.4170   23.8900 C   0  0  0  0  0  3  0  0  0  0  0  0
  -27.5770  -37.3100   24.6950 C   0  0  0  0  0  1  0  0  0  0  0  0
  -26.4600  -37.4780   23.7680 N   0  0  0  0  0  0  0  0  0  0  0  0
  -26.0510  -38.3940   23.9270 H   0  0  0  0  0  0  0  0  0  0  0  0
  -26.4690  -31.8070   25.0910 C   0  0  1  0  0  0  0  0  0  0  0  0
  -25.3950  -31.5590   26.1770 C   0  0  0  0  0  1  0  0  0  0  0  0
  -27.0530  -30.4340   24.6860 C   0  0  0  0  0  1  0  0  0  0  0  0
  -27.6250  -32.6060   25.7370 C   0  0  0  0  0  1  0  0  0  0  0  0
  1  2  1  0
  3  5  1  0
  4  1  2  0
  5  2  2  0
  5 57  1  0
  6  4  1  0
  6  3  2  0
  7 10  1  0
  8 12  1  0
  8  7  1  0
  8  9  1  0
  9 16  1  0
  9 11  1  0
 10 13  1  6
 10 11  1  0
 10  4  1  0
 11 14  1  1
 11 15  1  0
 16 17  1  0
 16 18  1  0
 19 16  1  0
 19 20  2  0
 21 20  1  0
 22 27  1  0
 23 24  1  0
 23 22  1  0
 25 24  1  0
 25 32  1  0
 25 26  1  0
 27 21  1  0
 27 26  1  0
 28 21  2  0
 29 30  2  0
 30 49  1  0
 31 30  1  0
 31 34  1  0
 32 29  1  0
 32 33  1  0
 33 31  2  0
 34 35  1  0
 35 36  2  0
 37 40  1  0
 37 36  1  0
 38 37  2  0
 39 38  1  0
 39 34  2  0
 40 41  1  0
 41 42  1  0
 42 43  2  0
 44 43  1  0
 44 48  1  0
 45 44  2  0
 46 41  2  0
 46 45  1  0
 47 46  1  0
 49 50  1  0
 50 53  1  0
 50 52  1  0
 51 49  2  0
 54 55  1  0
 54 29  1  0
 56 54  1  0
 57 58  1  0
 59 57  1  0
 60  6  1  0
 61 72  2  0
 62 60  1  0
 62 67  1  0
 63 71  1  0
 63 73  1  0
 64 70  1  0
 64 66  1  0
 65 71  1  0
 66 65  1  0
 67 66  2  0
 68 62  2  0
 69 68  1  0
 69 64  2  0
 70 63  1  0
 71 61  1  0
 73 75  2  0
 74 73  1  0
 76 74  1  0
 77 86  2  0
 77 82  1  0
 78 74  1  0
 78 82  1  0
 79 78  1  0
 80 81  1  0
 80 79  1  0
 81 77  1  0
 82 83  2  0
 83 84  1  0
 85 84  2  0
 86 85  1  0
 87 61  1  0
 87 88  1  0
 87 97  1  0
 88 91  1  0
 89 93  1  0
 89 88  1  0
 90 89  2  0
 93 92  1  0
 95 93  1  0
 95 96  1  0
 95 94  1  0
 97100  1  1
 97 98  1  0
 99 97  1  0
M  ISO  4   6 101  20 100  21 100  60 101
M  END
>  <TORSDO>  (24) 
F 21

>  <SCORE>  (24) 
-13.426

>  <name>  (24) 
23

>  <ligand_id>  (24) 
23

>  <original_smiles>  (24) 
[H]c1c([H])c([H])c2c(c1[H])C([H])([H])C([H])([H])C([H])([H])C2([H])N([H])C(=O)C1([H])N(C(=O)C([H])(N([H])C(=O)C([H])(N([H])C([H])([H])[H])C([H])([H])[H])C(C([H])([H])[H])(C([H])([H])[H])C([H])([H])[H])C([H])([H])c2c([H])c(Oc3c([H])c(N([H])[H])c([H])c([H])c3C3(C([H])([H])[H])C([H])([H])C([H])(C([H])([H])[H])C([H])([N+]([H])([H])C([H])([H])C([H])([H])C(=O)N4C([H])([H])C([H])([H])C([H])([H])C([H])(n5nc(-c6c([H])c([H])c(Oc7c([H])c([H])c(F)c([H])c7F)c([H])c6[H])c(C(=O)N([H])[H])c5N([H])[H])C4([H])[H])C3(F)C([H])([H])[H])c([H])c([H])c2C1([H])[H]

>  <smiles>  (24) 
[H]c1c([H])c([H])c2c(c1[H])C([H])([H])C([H])([H])C([H])([H])C2([H])N([H])C(=O)C1([H])N(C(=O)C([H])(N([H])C(=O)C([H])(N([H])C([H])([H])[H])C([H])([H])[H])C(C([H])([H])[H])(C([H])([H])[H])C([H])([H])[H])C([H])([H])c2c([H])c(Oc3c([H])c(N([H])[H])c([H])c([H])c3C3(C([H])([H])[H])C([H])([H])C([H])(C([H])([H])[H])C([H])([N+]([H])([H])C([H])([H])C([H])([H])C(=O)N4C([H])([H])C([H])([H])C([H])([H])C([H])(n5nc(-c6c([H])c([H])c(Oc7c([H])c([H])c(F)c([H])c7F)c([H])c6[H])c(C(=O)N([H])[H])c5N([H])[H])C4([H])[H])C3(F)C([H])([H])[H])c([H])c([H])c2C1([H])[H]

$$$$
24:0:0
     RDKit          3D

 93102  0  0  1  0  0  0  0  0999 V2000
  -31.1290  -23.7390   20.2520 C   0  0  0  0  0  2  0  0  0  0  0  0
  -30.6450  -22.3790   20.8120 C   0  0  0  0  0  2  0  0  0  0  0  0
  -30.2030  -24.9430   20.5570 C   0  0  0  0  0  2  0  0  0  0  0  0
  -28.2660  -23.3160   20.4360 C   0  0  0  0  0  2  0  0  0  0  0  0
  -29.3100  -22.0010   20.1730 C   0  0  0  0  0  3  0  0  0  0  0  0
  -28.7450  -24.8920   20.0200 C   0  0  0  0  0  3  0  0  0  0  0  0
  -28.3050  -19.9700   18.9350 C   0  0  0  0  0  3  0  0  0  0  0  0
  -29.6190  -19.1660   20.8080 C   0  0  0  0  0  3  0  0  0  0  0  0
  -29.0430  -20.3480   20.0760 C   0  0  0  0  0  0  0  0  0  0  0  0
  -28.2030  -18.6310   18.4900 C   0  0  0  0  0  0  0  0  0  0  0  0
  -29.5100  -17.7220   20.3910 C   0  0  0  0  0  0  0  0  0  0  0  0
  -28.7990  -17.5500   19.1830 C   0  0  0  0  0  0  0  0  0  0  0  0
  -27.4410  -18.3360   17.2110 C   0  0  0  0  0  1  0  0  0  0  0  0
  -28.6410  -16.3030   18.6820 F   0  0  0  0  0  0  0  0  0  0  0  0
  -30.6010  -15.2190   20.8200 C   0  0  0  0  0  0  0  0  0  0  0  0
  -30.6220  -12.8080   20.0120 C   0  0  0  0  0  2  0  0  0  0  0  0
  -29.8050  -12.6930   18.7020 C   0  0  0  0  0  2  0  0  0  0  0  0
  -28.3170  -12.4540   19.0130 C   0  0  0  0  0  2  0  0  0  0  0  0
  -27.7900  -13.4110   20.1140 C   0  0  0  0  0  3  0  0  0  0  0  0
  -28.7400  -13.5020   21.3280 C   0  0  0  0  0  2  0  0  0  0  0  0
  -30.0530  -13.9300   20.8250 N   0  0  0  0  0  0  0  0  0  0  0  0
  -31.7980  -15.2990   20.5220 O   0  0  0  0  0  0  0  0  0  0  0  0
  -29.8350  -16.3920   21.1200 N   0  0  0  0  0  0  0  0  0  0  0  0
  -29.0330  -16.1030   21.6580 H   0  0  0  0  0  0  0  0  0  0  0  0
  -25.3530  -13.9770   20.6410 C   0  0  0  0  0  0  0  0  0  0  0  0
  -24.2690  -13.1970   20.9350 C   0  0  0  0  0  0  0  0  0  0  0  0
  -24.7460  -11.8500   20.9640 C   0  0  0  0  0  0  0  0  0  0  0  0
  -26.4190  -13.1040   20.5020 N   0  0  0  0  0  0  0  0  0  0  0  0
  -26.0580  -11.8210   20.7620 N   0  0  0  0  0  0  0  0  0  0  0  0
  -24.0170  -10.5840   21.1130 C   0  0  0  0  0  0  0  0  0  0  0  0
  -24.3910   -9.6260   22.0820 C   0  0  0  0  0  3  0  0  0  0  0  0
  -23.6610   -8.4260   22.2200 C   0  0  0  0  0  3  0  0  0  0  0  0
  -22.5440   -8.1750   21.3870 C   0  0  0  0  0  0  0  0  0  0  0  0
  -22.1910   -9.1200   20.4080 C   0  0  0  0  0  3  0  0  0  0  0  0
  -22.9220  -10.3120   20.2690 C   0  0  0  0  0  3  0  0  0  0  0  0
  -21.7920   -7.0260   21.4310 O   0  0  0  0  0  0  0  0  0  0  0  0
  -21.6800   -6.2830   22.5800 C   0  0  0  0  0  0  0  0  0  0  0  0
  -21.1570   -6.8290   23.7720 C   0  0  0  0  0  3  0  0  0  0  0  0
  -20.9950   -6.0120   24.9080 C   0  0  0  0  0  3  0  0  0  0  0  0
  -21.3450   -4.6500   24.8540 C   0  0  0  0  0  0  0  0  0  0  0  0
  -21.8620   -4.1030   23.6640 C   0  0  0  0  0  3  0  0  0  0  0  0
  -22.0250   -4.9180   22.5310 C   0  0  0  0  0  0  0  0  0  0  0  0
  -22.5030   -4.3810   21.3820 F   0  0  0  0  0  0  0  0  0  0  0  0
  -21.1830   -3.8630   25.9420 F   0  0  0  0  0  0  0  0  0  0  0  0
  -22.8500  -13.6650   21.0810 C   0  0  0  0  0  0  0  0  0  0  0  0
  -22.0590  -12.9780   21.8970 N   0  0  0  0  0  0  0  0  0  0  0  0
  -22.4480  -14.6770   20.5060 O   0  0  0  0  0  0  0  0  0  0  0  0
  -22.3960  -12.1620   22.3860 H   0  0  0  0  0  0  0  0  0  0  0  0
  -21.1040  -13.2750   22.0380 H   0  0  0  0  0  0  0  0  0  0  0  0
  -25.5210  -15.3450   20.4530 N   0  0  0  0  0  0  0  0  0  0  0  0
  -24.7400  -15.9910   20.4800 H   0  0  0  0  0  0  0  0  0  0  0  0
  -26.3820  -15.7750   20.1420 H   0  0  0  0  0  0  0  0  0  0  0  0
  -28.3720  -26.3600   20.4580 O   0  0  0  0  0  0  0  0  0  0  0  0
  -24.6370  -31.9610   23.3200 C   0  0  0  0  0  0  0  0  0  0  0  0
  -27.2690  -27.2730   20.2770 C   0  0  0  0  0  0  0  0  0  0  0  0
  -23.4490  -30.5540   21.6750 C   0  0  0  0  0  3  0  0  0  0  0  0
  -24.9130  -28.9890   20.2350 C   0  0  0  0  0  0  0  0  0  0  0  0
  -25.9950  -30.8470   21.5070 C   0  0  0  0  0  2  0  0  0  0  0  0
  -26.0810  -29.4550   20.8490 C   0  0  0  0  0  0  0  0  0  0  0  0
  -27.2490  -28.6080   20.8540 C   0  0  0  0  0  3  0  0  0  0  0  0
  -26.0820  -26.9020   19.6140 C   0  0  0  0  0  3  0  0  0  0  0  0
  -24.9280  -27.7300   19.6010 C   0  0  0  0  0  3  0  0  0  0  0  0
  -23.6730  -29.8740   20.2940 C   0  0  0  0  0  2  0  0  0  0  0  0
  -24.7130  -31.1450   22.2220 N   0  0  0  0  0  0  0  0  0  0  0  0
  -23.5500  -32.2330   23.8520 O   0  0  0  0  0  0  0  0  0  0  0  0
  -22.7810  -29.5440   22.6410 C   0  0  0  0  0  0  0  0  0  0  0  0
  -21.4580  -29.3430   22.5010 N   0  0  0  0  0  0  0  0  0  0  0  0
  -23.4570  -28.9420   23.4790 O   0  0  0  0  0  0  0  0  0  0  0  0
  -20.9690  -29.8810   21.8000 H   0  0  0  0  0  0  0  0  0  0  0  0
  -18.1080  -28.0420   22.9460 C   0  0  0  0  0  0  0  0  0  0  0  0
  -20.6500  -28.3920   23.2690 C   0  0  0  0  0  3  0  0  0  0  0  0
  -20.8120  -26.9560   22.7200 C   0  0  0  0  0  2  0  0  0  0  0  0
  -19.7460  -26.5820   21.6850 C   0  0  0  0  0  2  0  0  0  0  0  0
  -18.3450  -26.6900   22.2950 C   0  0  0  0  0  2  0  0  0  0  0  0
  -19.1910  -28.8480   23.3900 C   0  0  0  0  0  0  0  0  0  0  0  0
  -18.9160  -30.1090   23.9600 C   0  0  0  0  0  3  0  0  0  0  0  0
  -17.5910  -30.5670   24.0910 C   0  0  0  0  0  3  0  0  0  0  0  0
  -16.5230  -29.7600   23.6640 C   0  0  0  0  0  3  0  0  0  0  0  0
  -16.7820  -28.4990   23.0970 C   0  0  0  0  0  3  0  0  0  0  0  0
  -25.9100  -32.6090   23.9480 C   0  0  0  0  0  3  0  0  0  0  0  0
  -25.5950  -34.0130   24.2570 N   0  0  0  0  0  0  0  0  0  0  0  0
  -25.9240  -35.0590   23.4870 C   0  0  0  0  0  0  0  0  0  0  0  0
  -26.5910  -34.9430   22.4550 O   0  0  0  0  0  0  0  0  0  0  0  0
  -25.0010  -34.1750   25.0570 H   0  0  0  0  0  0  0  0  0  0  0  0
  -24.1920  -36.8480   23.1230 C   0  0  0  0  0  1  0  0  0  0  0  0
  -25.4390  -36.4540   23.9300 C   0  0  0  0  0  3  0  0  0  0  0  0
  -27.5730  -37.3600   24.7390 C   0  0  0  0  0  1  0  0  0  0  0  0
  -26.4690  -37.5070   23.7950 N   0  0  0  0  0  0  0  0  0  0  0  0
  -26.0610  -38.4290   23.9250 H   0  0  0  0  0  0  0  0  0  0  0  0
  -26.4100  -31.8630   25.2470 C   0  0  1  0  0  0  0  0  0  0  0  0
  -25.3040  -31.6460   26.3070 C   0  0  0  0  0  1  0  0  0  0  0  0
  -26.9980  -30.4770   24.8930 C   0  0  0  0  0  1  0  0  0  0  0  0
  -27.5530  -32.6690   25.9090 C   0  0  0  0  0  1  0  0  0  0  0  0
  1  3  1  0
  1  2  1  0
  5  9  1  0
  5  4  1  0
  5  2  1  0
  6  4  1  0
  6 53  1  0
  6  3  1  0
  7  9  1  0
  9  8  2  0
 10  7  2  0
 10 12  1  0
 11  8  1  0
 11 23  1  0
 12 11  2  0
 13 10  1  0
 14 12  1  0
 15 21  1  0
 15 23  1  0
 16 21  1  0
 17 18  1  0
 17 16  1  0
 19 18  1  0
 19 28  1  0
 19 20  1  0
 21 20  1  0
 22 15  2  0
 23 24  1  0
 25 26  2  0
 26 27  1  0
 26 45  1  0
 27 30  1  0
 28 25  1  0
 28 29  1  0
 29 27  2  0
 30 31  1  0
 31 32  2  0
 33 36  1  0
 33 32  1  0
 34 33  2  0
 35 34  1  0
 35 30  2  0
 36 37  1  0
 37 38  1  0
 38 39  2  0
 40 39  1  0
 40 44  1  0
 41 40  2  0
 42 37  2  0
 42 41  1  0
 43 42  1  0
 45 46  1  0
 46 49  1  0
 46 48  1  0
 47 45  2  0
 50 51  1  0
 50 25  1  0
 52 50  1  0
 54 65  2  0
 55 53  1  0
 55 60  1  0
 56 64  1  0
 56 66  1  0
 57 63  1  0
 57 59  1  0
 58 64  1  0
 59 60  2  0
 59 58  1  0
 61 55  2  0
 62 61  1  0
 62 57  2  0
 63 56  1  0
 64 54  1  0
 66 68  2  0
 67 66  1  0
 69 67  1  0
 70 79  2  0
 70 75  1  0
 71 67  1  0
 71 75  1  0
 72 71  1  0
 73 74  1  0
 73 72  1  0
 74 70  1  0
 75 76  2  0
 76 77  1  0
 78 77  2  0
 79 78  1  0
 80 54  1  0
 80 81  1  0
 80 90  1  0
 81 84  1  0
 82 86  1  0
 82 81  1  0
 83 82  2  0
 86 85  1  0
 88 89  1  0
 88 86  1  0
 88 87  1  0
 90 93  1  1
 90 91  1  0
 92 90  1  0
M  ISO  4   6 101  15 100  23 100  53 101
M  END
>  <TORSDO>  (25) 
F 17

>  <SCORE>  (25) 
-14.780

>  <name>  (25) 
24

>  <ligand_id>  (25) 
24

>  <original_smiles>  (25) 
[H]c1c([H])c([H])c2c(c1[H])C([H])([H])C([H])([H])C([H])([H])C2([H])N([H])C(=O)C1([H])N(C(=O)C([H])(N([H])C(=O)C([H])(N([H])C([H])([H])[H])C([H])([H])[H])C(C([H])([H])[H])(C([H])([H])[H])C([H])([H])[H])C([H])([H])c2c([H])c(OC3([H])C([H])([H])C([H])([H])C([H])([H])C([H])(c4c([H])c(N([H])C(=O)N5C([H])([H])C([H])([H])C([H])([H])C([H])(n6nc(-c7c([H])c([H])c(Oc8c([H])c([H])c(F)c([H])c8F)c([H])c7[H])c(C(=O)N([H])[H])c6N([H])[H])C5([H])[H])c(F)c(C([H])([H])[H])c4[H])C3([H])[H])c([H])c([H])c2C1([H])[H]

>  <smiles>  (25) 
[H]c1c([H])c([H])c2c(c1[H])C([H])([H])C([H])([H])C([H])([H])C2([H])N([H])C(=O)C1([H])N(C(=O)C([H])(N([H])C(=O)C([H])(N([H])C([H])([H])[H])C([H])([H])[H])C(C([H])([H])[H])(C([H])([H])[H])C([H])([H])[H])C([H])([H])c2c([H])c(OC3([H])C([H])([H])C([H])([H])C([H])([H])C([H])(c4c([H])c(N([H])C(=O)N5C([H])([H])C([H])([H])C([H])([H])C([H])(n6nc(-c7c([H])c([H])c(Oc8c([H])c([H])c(F)c([H])c8F)c([H])c7[H])c(C(=O)N([H])[H])c6N([H])[H])C5([H])[H])c(F)c(C([H])([H])[H])c4[H])C3([H])[H])c([H])c([H])c2C1([H])[H]

$$$$
25:0:0
     RDKit          3D

 91100  0  0  1  0  0  0  0  0999 V2000
  -27.8980  -21.9680   18.1900 C   0  0  0  0  0  3  0  0  0  0  0  0
  -28.7340  -20.8800   18.6210 C   0  0  0  0  0  3  0  0  0  0  0  0
  -27.8780  -23.3230   18.6680 C   0  0  0  0  0  3  0  0  0  0  0  0
  -29.6130  -22.5410   20.1140 C   0  0  0  0  0  3  0  0  0  0  0  0
  -29.7130  -20.9620   19.6430 C   0  0  0  0  0  0  0  0  0  0  0  0
  -28.7150  -23.8590   19.6900 C   0  0  0  0  0  0  0  0  0  0  0  0
  -31.3710  -19.4650   22.5180 C   0  0  0  0  0  2  0  0  0  0  0  0
  -30.1830  -19.2060   21.5900 C   0  0  0  0  0  2  0  0  0  0  0  0
  -32.1290  -19.6730   20.2760 C   0  0  0  0  0  2  0  0  0  0  0  0
  -32.5770  -19.1520   21.6610 C   0  0  0  0  0  3  0  0  0  0  0  0
  -30.6190  -19.3200   20.0870 C   0  0  2  0  0  0  0  0  0  0  0  0
  -33.8860  -19.7150   22.2550 C   0  0  0  0  0  1  0  0  0  0  0  0
  -31.3310  -16.0910   19.6540 C   0  0  0  0  0  0  0  0  0  0  0  0
  -31.3390  -13.4750   18.9110 C   0  0  0  0  0  2  0  0  0  0  0  0
  -30.4150  -12.9250   17.7760 C   0  0  0  0  0  2  0  0  0  0  0  0
  -28.9990  -12.6370   18.2950 C   0  0  0  0  0  2  0  0  0  0  0  0
  -28.5410  -13.7500   19.2620 C   0  0  0  0  0  3  0  0  0  0  0  0
  -29.6040  -14.1380   20.3250 C   0  0  0  0  0  2  0  0  0  0  0  0
  -30.7530  -14.7250   19.6020 N   0  0  0  0  0  0  0  0  0  0  0  0
  -32.5630  -15.9350   19.5130 O   0  0  0  0  0  0  0  0  0  0  0  0
  -30.6190  -17.5210   19.6980 N   0  0  0  0  0  0  0  0  0  0  0  0
  -29.6340  -17.2980   19.6810 H   0  0  0  0  0  0  0  0  0  0  0  0
  -26.2880  -14.4660   20.1790 C   0  0  0  0  0  0  0  0  0  0  0  0
  -25.1820  -13.7790   20.5790 C   0  0  0  0  0  0  0  0  0  0  0  0
  -25.5140  -12.3950   20.4820 C   0  0  0  0  0  0  0  0  0  0  0  0
  -27.2270  -13.5130   19.8420 N   0  0  0  0  0  0  0  0  0  0  0  0
  -26.7780  -12.2540   20.0860 N   0  0  0  0  0  0  0  0  0  0  0  0
  -24.6750  -11.2000   20.6610 C   0  0  0  0  0  0  0  0  0  0  0  0
  -25.0060  -10.2040   21.6010 C   0  0  0  0  0  3  0  0  0  0  0  0
  -24.1700   -9.0810   21.7860 C   0  0  0  0  0  3  0  0  0  0  0  0
  -22.9850   -8.9460   21.0230 C   0  0  0  0  0  0  0  0  0  0  0  0
  -22.6660   -9.9340   20.0750 C   0  0  0  0  0  3  0  0  0  0  0  0
  -23.5040  -11.0480   19.8900 C   0  0  0  0  0  3  0  0  0  0  0  0
  -22.1270   -7.8760   21.1110 O   0  0  0  0  0  0  0  0  0  0  0  0
  -21.9340   -7.2020   22.2890 C   0  0  0  0  0  0  0  0  0  0  0  0
  -21.4910   -7.8570   23.4580 C   0  0  0  0  0  3  0  0  0  0  0  0
  -21.2480   -7.1140   24.6290 C   0  0  0  0  0  3  0  0  0  0  0  0
  -21.4270   -5.7180   24.6300 C   0  0  0  0  0  0  0  0  0  0  0  0
  -21.8560   -5.0640   23.4610 C   0  0  0  0  0  3  0  0  0  0  0  0
  -22.1060   -5.8020   22.2920 C   0  0  0  0  0  0  0  0  0  0  0  0
  -22.5030   -5.1650   21.1640 F   0  0  0  0  0  0  0  0  0  0  0  0
  -21.1780   -5.0030   25.7500 F   0  0  0  0  0  0  0  0  0  0  0  0
  -23.8510  -14.3800   20.9290 C   0  0  0  0  0  0  0  0  0  0  0  0
  -23.1060  -13.7490   21.8240 N   0  0  0  0  0  0  0  0  0  0  0  0
  -23.4870  -15.4460   20.4270 O   0  0  0  0  0  0  0  0  0  0  0  0
  -23.4150  -12.8860   22.2500 H   0  0  0  0  0  0  0  0  0  0  0  0
  -22.2120  -14.1330   22.0980 H   0  0  0  0  0  0  0  0  0  0  0  0
  -26.5760  -15.8210   20.0430 N   0  0  0  0  0  0  0  0  0  0  0  0
  -25.8940  -16.5500   20.2190 H   0  0  0  0  0  0  0  0  0  0  0  0
  -27.4430  -16.1750   19.6690 H   0  0  0  0  0  0  0  0  0  0  0  0
  -28.5870  -25.4940   19.9350 O   0  0  0  0  0  0  0  0  0  0  0  0
  -24.6720  -31.5580   22.9660 C   0  0  0  0  0  0  0  0  0  0  0  0
  -27.5440  -26.6890   19.8360 C   0  0  0  0  0  0  0  0  0  0  0  0
  -23.5850  -30.1290   21.2860 C   0  0  0  0  0  3  0  0  0  0  0  0
  -25.1470  -28.6250   19.8120 C   0  0  0  0  0  0  0  0  0  0  0  0
  -26.1490  -30.4380   21.1750 C   0  0  0  0  0  2  0  0  0  0  0  0
  -26.3120  -29.0250   20.4720 C   0  0  0  0  0  0  0  0  0  0  0  0
  -27.4820  -28.0830   20.4560 C   0  0  0  0  0  3  0  0  0  0  0  0
  -26.3360  -26.5330   19.0970 C   0  0  0  0  0  3  0  0  0  0  0  0
  -25.1990  -27.4150   19.1000 C   0  0  0  0  0  3  0  0  0  0  0  0
  -23.8690  -29.4900   19.8920 C   0  0  0  0  0  2  0  0  0  0  0  0
  -24.8240  -30.7430   21.8630 N   0  0  0  0  0  0  0  0  0  0  0  0
  -23.5610  -31.7660   23.4870 O   0  0  0  0  0  0  0  0  0  0  0  0
  -22.9430  -29.0780   22.2350 C   0  0  0  0  0  0  0  0  0  0  0  0
  -21.6260  -28.8220   22.1030 N   0  0  0  0  0  0  0  0  0  0  0  0
  -23.6460  -28.4850   23.0580 O   0  0  0  0  0  0  0  0  0  0  0  0
  -21.1030  -29.3510   21.4160 H   0  0  0  0  0  0  0  0  0  0  0  0
  -18.3610  -27.2850   22.5380 C   0  0  0  0  0  0  0  0  0  0  0  0
  -20.8760  -27.8010   22.8510 C   0  0  0  0  0  3  0  0  0  0  0  0
  -21.1300  -26.3940   22.2610 C   0  0  0  0  0  2  0  0  0  0  0  0
  -20.0830  -25.9790   21.2230 C   0  0  0  0  0  2  0  0  0  0  0  0
  -18.6830  -25.9740   21.8420 C   0  0  0  0  0  2  0  0  0  0  0  0
  -19.3890  -28.1510   22.9950 C   0  0  0  0  0  0  0  0  0  0  0  0
  -19.0310  -29.3720   23.6080 C   0  0  0  0  0  3  0  0  0  0  0  0
  -17.6790  -29.7260   23.7700 C   0  0  0  0  0  3  0  0  0  0  0  0
  -16.6660  -28.8570   23.3260 C   0  0  0  0  0  3  0  0  0  0  0  0
  -17.0100  -27.6400   22.7140 C   0  0  0  0  0  3  0  0  0  0  0  0
  -25.8870  -32.2850   23.6220 C   0  0  0  0  0  3  0  0  0  0  0  0
  -25.4600  -33.6470   24.0090 N   0  0  0  0  0  0  0  0  0  0  0  0
  -25.7090  -34.7640   23.3120 C   0  0  0  0  0  0  0  0  0  0  0  0
  -26.3740  -34.7610   22.2750 O   0  0  0  0  0  0  0  0  0  0  0  0
  -24.8530  -33.7150   24.8130 H   0  0  0  0  0  0  0  0  0  0  0  0
  -23.8430  -36.4430   23.0780 C   0  0  0  0  0  1  0  0  0  0  0  0
  -25.1300  -36.0930   23.8430 C   0  0  0  0  0  3  0  0  0  0  0  0
  -27.2040  -37.1040   24.6820 C   0  0  0  0  0  1  0  0  0  0  0  0
  -26.0780  -37.2260   23.7610 N   0  0  0  0  0  0  0  0  0  0  0  0
  -25.6060  -38.1050   23.9520 H   0  0  0  0  0  0  0  0  0  0  0  0
  -26.4450  -31.5270   24.8900 C   0  0  1  0  0  0  0  0  0  0  0  0
  -25.3660  -31.1970   25.9490 C   0  0  0  0  0  1  0  0  0  0  0  0
  -27.1200  -30.1960   24.4930 C   0  0  0  0  0  1  0  0  0  0  0  0
  -27.5370  -32.3830   25.5730 C   0  0  0  0  0  1  0  0  0  0  0  0
  1  2  2  0
  1  3  1  0
  2  5  1  0
  3  6  2  0
  5 11  1  0
  5  4  2  0
  6 51  1  0
  6  4  1  0
  8  7  1  0
  9 10  1  0
 10 12  1  0
 10  7  1  0
 11 21  1  6
 11  9  1  0
 11  8  1  0
 13 21  1  0
 14 19  1  0
 15 16  1  0
 15 14  1  0
 17 16  1  0
 17 26  1  0
 17 18  1  0
 19 13  1  0
 19 18  1  0
 20 13  2  0
 22 21  1  0
 23 24  2  0
 24 43  1  0
 25 24  1  0
 25 28  1  0
 26 27  1  0
 26 23  1  0
 27 25  2  0
 28 29  1  0
 29 30  2  0
 31 34  1  0
 31 30  1  0
 32 31  2  0
 33 32  1  0
 33 28  2  0
 34 35  1  0
 35 40  2  0
 35 36  1  0
 36 37  2  0
 37 38  1  0
 38 42  1  0
 39 38  2  0
 40 39  1  0
 41 40  1  0
 43 44  1  0
 44 47  1  0
 44 46  1  0
 45 43  2  0
 48 23  1  0
 48 49  1  0
 50 48  1  0
 52 63  2  0
 53 51  1  0
 53 58  1  0
 54 62  1  0
 54 64  1  0
 55 61  1  0
 55 57  1  0
 56 62  1  0
 57 56  1  0
 58 57  2  0
 59 60  1  0
 59 53  2  0
 60 55  2  0
 61 54  1  0
 62 52  1  0
 64 66  2  0
 65 64  1  0
 67 65  1  0
 68 77  2  0
 68 73  1  0
 69 65  1  0
 69 73  1  0
 70 69  1  0
 71 72  1  0
 71 70  1  0
 72 68  1  0
 73 74  2  0
 74 75  1  0
 76 75  2  0
 77 76  1  0
 78 52  1  0
 78 79  1  0
 78 88  1  0
 79 82  1  0
 80 84  1  0
 80 79  1  0
 81 80  2  0
 84 83  1  0
 86 84  1  0
 86 87  1  0
 86 85  1  0
 88 91  1  1
 88 89  1  0
 90 88  1  0
M  ISO  4   6 101  13 100  21 100  51 101
M  END
>  <TORSDO>  (26) 
F 17

>  <SCORE>  (26) 
-14.330

>  <name>  (26) 
25

>  <ligand_id>  (26) 
25

>  <original_smiles>  (26) 
[H]c1c([H])c([H])c2c(c1[H])C([H])([H])C([H])([H])C([H])([H])C2([H])N([H])C(=O)C1([H])N(C(=O)C([H])(N([H])C(=O)C([H])(N([H])C([H])([H])[H])C([H])([H])[H])C(C([H])([H])[H])(C([H])([H])[H])C([H])([H])[H])C([H])([H])c2c([H])c(Oc3c([H])c([H])c([H])c(C4(N([H])C(=O)N5C([H])([H])C([H])([H])C([H])([H])C([H])(n6nc(-c7c([H])c([H])c(Oc8c([H])c([H])c(F)c([H])c8F)c([H])c7[H])c(C(=O)N([H])[H])c6N([H])[H])C5([H])[H])C([H])([H])C([H])([H])C([H])(C([H])([H])[H])C4([H])[H])c3[H])c([H])c([H])c2C1([H])[H]

>  <smiles>  (26) 
[H]c1c([H])c([H])c2c(c1[H])C([H])([H])C([H])([H])C([H])([H])C2([H])N([H])C(=O)C1([H])N(C(=O)C([H])(N([H])C(=O)C([H])(N([H])C([H])([H])[H])C([H])([H])[H])C(C([H])([H])[H])(C([H])([H])[H])C([H])([H])[H])C([H])([H])c2c([H])c(Oc3c([H])c([H])c([H])c(C4(N([H])C(=O)N5C([H])([H])C([H])([H])C([H])([H])C([H])(n6nc(-c7c([H])c([H])c(Oc8c([H])c([H])c(F)c([H])c8F)c([H])c7[H])c(C(=O)N([H])[H])c6N([H])[H])C5([H])[H])C([H])([H])C([H])([H])C([H])(C([H])([H])[H])C4([H])[H])c3[H])c([H])c([H])c2C1([H])[H]

$$$$
26:0:0
     RDKit          3D

 97107  0  0  1  0  0  0  0  0999 V2000
  -28.5700  -24.5510   20.3690 C   0  0  0  0  0  3  0  0  0  0  0  0
  -29.3780  -24.3390   17.6410 C   0  0  0  0  0  3  0  0  0  0  0  0
  -28.9360  -23.3270   19.8070 C   0  0  0  0  0  0  0  0  0  0  0  0
  -29.0270  -25.5950   18.1840 C   0  0  0  0  0  0  0  0  0  0  0  0
  -29.3570  -23.2230   18.4910 C   0  0  0  0  0  0  0  0  0  0  0  0
  -28.6470  -25.6920   19.5490 C   0  0  0  0  0  0  0  0  0  0  0  0
  -29.0280  -22.0140   20.4970 C   0  0  0  0  0  2  0  0  0  0  0  0
  -29.8380  -21.2140   19.4570 C   0  0  0  0  0  3  0  0  0  0  0  0
  -29.0910  -26.8320   17.3060 C   0  0  0  0  0  1  0  0  0  0  0  0
  -29.8010  -21.9460   18.1820 N   0  0  0  0  0  0  0  0  0  0  0  0
  -29.4020  -21.4910   17.3630 H   0  0  0  0  0  0  0  0  0  0  0  0
  -28.4550  -26.9020   20.1340 O   0  0  0  0  0  0  0  0  0  0  0  0
  -24.5570  -31.8780   23.2460 C   0  0  0  0  0  0  0  0  0  0  0  0
  -27.2240  -27.5010   20.1520 C   0  0  0  0  0  0  0  0  0  0  0  0
  -23.3500  -30.4760   21.6000 C   0  0  0  0  0  3  0  0  0  0  0  0
  -24.8050  -28.9410   20.1770 C   0  0  0  0  0  0  0  0  0  0  0  0
  -25.8670  -30.8530   21.4000 C   0  0  0  0  0  2  0  0  0  0  0  0
  -25.9520  -29.4840   20.7680 C   0  0  0  0  0  0  0  0  0  0  0  0
  -27.1590  -28.7650   20.7610 C   0  0  0  0  0  3  0  0  0  0  0  0
  -26.0610  -26.9440   19.5710 C   0  0  0  0  0  3  0  0  0  0  0  0
  -24.8480  -27.6640   19.5840 C   0  0  0  0  0  3  0  0  0  0  0  0
  -23.5580  -29.7910   20.2200 C   0  0  0  0  0  2  0  0  0  0  0  0
  -24.6080  -31.0830   22.1410 N   0  0  0  0  0  0  0  0  0  0  0  0
  -23.4770  -32.1470   23.7880 O   0  0  0  0  0  0  0  0  0  0  0  0
  -22.7050  -29.4520   22.5600 C   0  0  0  0  0  0  0  0  0  0  0  0
  -21.3810  -29.2700   22.4310 N   0  0  0  0  0  0  0  0  0  0  0  0
  -23.3910  -28.8250   23.3710 O   0  0  0  0  0  0  0  0  0  0  0  0
  -20.8920  -29.8270   21.7450 H   0  0  0  0  0  0  0  0  0  0  0  0
  -18.0040  -28.1030   22.9330 C   0  0  0  0  0  0  0  0  0  0  0  0
  -20.5640  -28.3330   23.1980 C   0  0  0  0  0  3  0  0  0  0  0  0
  -20.6530  -26.9090   22.6070 C   0  0  0  0  0  2  0  0  0  0  0  0
  -19.5440  -26.6050   21.5960 C   0  0  0  0  0  2  0  0  0  0  0  0
  -18.1650  -26.7570   22.2460 C   0  0  0  0  0  2  0  0  0  0  0  0
  -19.1320  -28.8500   23.3660 C   0  0  0  0  0  0  0  0  0  0  0  0
  -18.9280  -30.1120   23.9650 C   0  0  0  0  0  3  0  0  0  0  0  0
  -17.6290  -30.6250   24.1400 C   0  0  0  0  0  3  0  0  0  0  0  0
  -16.5160  -29.8730   23.7260 C   0  0  0  0  0  3  0  0  0  0  0  0
  -16.7040  -28.6140   23.1290 C   0  0  0  0  0  3  0  0  0  0  0  0
  -25.8460  -32.5060   23.8650 C   0  0  0  0  0  3  0  0  0  0  0  0
  -25.5420  -33.9050   24.1880 N   0  0  0  0  0  0  0  0  0  0  0  0
  -25.8800  -34.9530   23.4240 C   0  0  0  0  0  0  0  0  0  0  0  0
  -26.5550  -34.8430   22.3950 O   0  0  0  0  0  0  0  0  0  0  0  0
  -24.9450  -34.0670   24.9860 H   0  0  0  0  0  0  0  0  0  0  0  0
  -24.1650  -36.7540   23.0470 C   0  0  0  0  0  1  0  0  0  0  0  0
  -25.3950  -36.3450   23.8720 C   0  0  0  0  0  3  0  0  0  0  0  0
  -27.5200  -37.2290   24.7290 C   0  0  0  0  0  1  0  0  0  0  0  0
  -26.4340  -37.3930   23.7670 N   0  0  0  0  0  0  0  0  0  0  0  0
  -26.0290  -38.3160   23.8990 H   0  0  0  0  0  0  0  0  0  0  0  0
  -26.3620  -31.7340   25.1410 C   0  0  1  0  0  0  0  0  0  0  0  0
  -25.2680  -31.5000   26.2080 C   0  0  0  0  0  1  0  0  0  0  0  0
  -26.9440  -30.3560   24.7470 C   0  0  0  0  0  1  0  0  0  0  0  0
  -27.5110  -32.5300   25.8050 C   0  0  0  0  0  1  0  0  0  0  0  0
  -31.3070  -21.0440   19.9150 C   0  0  0  0  0  2  0  0  0  0  0  0
  -31.4530  -18.6580   19.1760 C   0  0  0  0  0  2  0  0  0  0  0  0
  -30.9590  -19.1610   21.6620 C   0  0  0  0  0  2  0  0  0  0  0  0
  -31.7490  -17.2180   19.5540 C   0  0  0  0  0  2  0  0  0  0  0  0
  -30.2090  -17.8280   21.5140 C   0  0  0  0  0  2  0  0  0  0  0  0
  -31.6630  -19.6200   20.3570 C   0  0  0  0  0  3  0  0  0  0  0  0
  -31.1230  -16.7540   20.9060 C   0  0  0  0  0  3  0  0  0  0  0  0
  -30.9550  -14.3720   20.2820 C   0  0  0  0  0  0  0  0  0  0  0  0
  -30.4540  -12.2870   19.1180 C   0  0  0  0  0  2  0  0  0  0  0  0
  -29.5020  -12.5540   17.9400 C   0  0  0  0  0  2  0  0  0  0  0  0
  -28.0400  -12.4580   18.4100 C   0  0  0  0  0  2  0  0  0  0  0  0
  -27.7580  -13.2890   19.6920 C   0  0  0  0  0  3  0  0  0  0  0  0
  -28.8430  -13.0710   20.7720 C   0  0  0  0  0  2  0  0  0  0  0  0
  -30.1580  -13.2870   20.1510 N   0  0  0  0  0  0  0  0  0  0  0  0
  -32.0910  -14.4140   19.8110 O   0  0  0  0  0  0  0  0  0  0  0  0
  -30.4090  -15.4750   20.8040 N   0  0  0  0  0  0  0  0  0  0  0  0
  -29.4570  -15.4250   21.1310 H   0  0  0  0  0  0  0  0  0  0  0  0
  -25.3840  -13.9050   20.4720 C   0  0  0  0  0  0  0  0  0  0  0  0
  -24.3190  -13.1370   20.8600 C   0  0  0  0  0  0  0  0  0  0  0  0
  -24.7660  -11.7830   20.8020 C   0  0  0  0  0  0  0  0  0  0  0  0
  -26.4160  -13.0200   20.2070 N   0  0  0  0  0  0  0  0  0  0  0  0
  -26.0480  -11.7360   20.4610 N   0  0  0  0  0  0  0  0  0  0  0  0
  -24.0320  -10.5250   20.9970 C   0  0  0  0  0  0  0  0  0  0  0  0
  -24.4700   -9.5490   21.9200 C   0  0  0  0  0  3  0  0  0  0  0  0
  -23.7370   -8.3570   22.1030 C   0  0  0  0  0  3  0  0  0  0  0  0
  -22.5520   -8.1310   21.3650 C   0  0  0  0  0  0  0  0  0  0  0  0
  -22.1320   -9.0950   20.4310 C   0  0  0  0  0  3  0  0  0  0  0  0
  -22.8650  -10.2790   20.2460 C   0  0  0  0  0  3  0  0  0  0  0  0
  -21.7900   -6.9910   21.4580 O   0  0  0  0  0  0  0  0  0  0  0  0
  -21.7360   -6.2540   22.6130 C   0  0  0  0  0  0  0  0  0  0  0  0
  -21.2890   -6.8100   23.8320 C   0  0  0  0  0  3  0  0  0  0  0  0
  -21.1830   -5.9980   24.9790 C   0  0  0  0  0  3  0  0  0  0  0  0
  -21.5140   -4.6320   24.9090 C   0  0  0  0  0  0  0  0  0  0  0  0
  -21.9530   -4.0750   23.6950 C   0  0  0  0  0  3  0  0  0  0  0  0
  -22.0610   -4.8840   22.5500 C   0  0  0  0  0  0  0  0  0  0  0  0
  -22.4650   -4.3370   21.3780 F   0  0  0  0  0  0  0  0  0  0  0  0
  -21.4030   -3.8510   26.0090 F   0  0  0  0  0  0  0  0  0  0  0  0
  -22.9340  -13.6250   21.1740 C   0  0  0  0  0  0  0  0  0  0  0  0
  -22.2240  -12.9260   22.0540 N   0  0  0  0  0  0  0  0  0  0  0  0
  -22.4910  -14.6600   20.6780 O   0  0  0  0  0  0  0  0  0  0  0  0
  -22.5970  -12.0890   22.4770 H   0  0  0  0  0  0  0  0  0  0  0  0
  -21.2950  -13.2330   22.3090 H   0  0  0  0  0  0  0  0  0  0  0  0
  -25.5570  -15.2760   20.3060 N   0  0  0  0  0  0  0  0  0  0  0  0
  -24.7980  -15.9360   20.4370 H   0  0  0  0  0  0  0  0  0  0  0  0
  -26.4050  -15.7090   19.9610 H   0  0  0  0  0  0  0  0  0  0  0  0
  2  4  2  0
  2  5  1  0
  3  1  1  0
  3  7  1  0
  4  6  1  0
  5  3  2  0
  6 12  1  0
  6  1  2  0
  8 53  1  0
  8  7  1  0
  9  4  1  0
 10  5  1  0
 10  8  1  0
 11 10  1  0
 12 14  1  0
 13 24  2  0
 14 19  1  0
 15 23  1  0
 15 25  1  0
 16 22  1  0
 16 18  1  0
 17 23  1  0
 18 17  1  0
 19 18  2  0
 20 21  1  0
 20 14  2  0
 21 16  2  0
 22 15  1  0
 23 13  1  0
 25 27  2  0
 26 25  1  0
 28 26  1  0
 29 38  2  0
 29 34  1  0
 30 26  1  0
 30 34  1  0
 31 30  1  0
 32 33  1  0
 32 31  1  0
 33 29  1  0
 34 35  2  0
 35 36  1  0
 37 36  2  0
 38 37  1  0
 39 13  1  0
 39 40  1  0
 39 49  1  0
 40 43  1  0
 41 45  1  0
 41 40  1  0
 42 41  2  0
 45 44  1  0
 47 45  1  0
 47 48  1  0
 47 46  1  0
 49 52  1  1
 49 50  1  0
 51 49  1  0
 54 56  1  0
 54 58  1  0
 56 59  1  0
 57 55  1  0
 58 53  1  0
 58 55  1  0
 59 68  1  0
 59 57  1  0
 60 68  1  0
 61 66  1  0
 62 63  1  0
 62 61  1  0
 64 63  1  0
 64 73  1  0
 64 65  1  0
 66 60  1  0
 66 65  1  0
 67 60  2  0
 68 69  1  0
 70 71  2  0
 71 90  1  0
 72 71  1  0
 72 75  1  0
 73 74  1  0
 73 70  1  0
 74 72  2  0
 75 76  1  0
 76 77  2  0
 78 81  1  0
 78 77  1  0
 79 78  2  0
 80 79  1  0
 80 75  2  0
 81 82  1  0
 82 83  1  0
 83 84  2  0
 85 84  1  0
 85 89  1  0
 86 85  2  0
 87 82  2  0
 87 86  1  0
 88 87  1  0
 90 91  1  0
 91 94  1  0
 91 93  1  0
 92 90  2  0
 95 96  1  0
 95 70  1  0
 97 95  1  0
M  ISO  4   6 101  12 101  60 100  68 100
M  END
>  <TORSDO>  (27) 
F 18

>  <SCORE>  (27) 
-14.866

>  <name>  (27) 
26

>  <ligand_id>  (27) 
26

>  <original_smiles>  (27) 
[H]c1c([H])c([H])c2c(c1[H])C([H])([H])C([H])([H])C([H])([H])C2([H])N([H])C(=O)C1([H])N(C(=O)C([H])(N([H])C(=O)C([H])(N([H])C([H])([H])[H])C([H])([H])[H])C(C([H])([H])[H])(C([H])([H])[H])C([H])([H])[H])C([H])([H])c2c([H])c(Oc3c([H])c4c(c([H])c3C([H])([H])[H])N([H])C([H])(C([H])([H])C3([H])C([H])([H])C([H])([H])C([H])(N([H])C(=O)N5C([H])([H])C([H])([H])C([H])([H])C([H])(n6nc(-c7c([H])c([H])c(Oc8c([H])c([H])c(F)c([H])c8F)c([H])c7[H])c(C(=O)N([H])[H])c6N([H])[H])C5([H])[H])C([H])([H])C3([H])[H])C4([H])[H])c([H])c([H])c2C1([H])[H]

>  <smiles>  (27) 
[H]c1c([H])c([H])c2c(c1[H])C([H])([H])C([H])([H])C([H])([H])C2([H])N([H])C(=O)C1([H])N(C(=O)C([H])(N([H])C(=O)C([H])(N([H])C([H])([H])[H])C([H])([H])[H])C(C([H])([H])[H])(C([H])([H])[H])C([H])([H])[H])C([H])([H])c2c([H])c(Oc3c([H])c4c(c([H])c3C([H])([H])[H])N([H])C([H])(C([H])([H])C3([H])C([H])([H])C([H])([H])C([H])(N([H])C(=O)N5C([H])([H])C([H])([H])C([H])([H])C([H])(n6nc(-c7c([H])c([H])c(Oc8c([H])c([H])c(F)c([H])c8F)c([H])c7[H])c(C(=O)N([H])[H])c6N([H])[H])C5([H])[H])C([H])([H])C3([H])[H])C4([H])[H])c([H])c([H])c2C1([H])[H]

$$$$
27:0:0
     RDKit          3D

 98107  0  0  1  0  0  0  0  0999 V2000
  -32.7390  -20.4310   23.0060 C   0  0  0  0  0  2  0  0  0  0  0  0
  -32.7500  -21.7200   22.1640 C   0  0  0  0  0  2  0  0  0  0  0  0
  -31.9190  -19.2420   22.4600 C   0  0  0  0  0  2  0  0  0  0  0  0
  -31.4860  -22.5940   22.3130 C   0  0  0  0  0  2  0  0  0  0  0  0
  -30.7620  -19.5600   21.4860 C   0  0  0  0  0  3  0  0  0  0  0  0
  -29.7650  -20.6700   21.9710 C   0  0  0  0  0  3  0  0  0  0  0  0
  -30.2420  -22.1030   21.5330 C   0  0  0  0  0  3  0  0  0  0  0  0
  -29.3740  -20.5470   23.4550 C   0  0  0  0  0  1  0  0  0  0  0  0
  -30.3330  -16.9830   21.3640 C   0  0  0  0  0  3  0  0  0  0  0  0
  -29.1390  -17.2740   18.8720 C   0  0  0  0  0  3  0  0  0  0  0  0
  -30.0670  -15.7910   20.6190 C   0  0  0  0  0  0  0  0  0  0  0  0
  -30.1250  -18.3030   20.8370 C   0  0  0  0  0  0  0  0  0  0  0  0
  -29.5210  -16.0000   19.3140 C   0  0  0  0  0  0  0  0  0  0  0  0
  -29.4880  -18.4310   19.5730 C   0  0  0  0  0  0  0  0  0  0  0  0
  -29.5430  -14.9640   18.2180 C   0  0  0  0  0  1  0  0  0  0  0  0
  -29.3200  -19.7460   18.8110 C   0  0  0  0  0  1  0  0  0  0  0  0
  -30.7050  -14.4520   21.0260 C   0  0  0  0  0  0  0  0  0  0  0  0
  -30.5260  -12.0920   20.3070 C   0  0  0  0  0  2  0  0  0  0  0  0
  -29.7410  -11.9090   18.9910 C   0  0  0  0  0  2  0  0  0  0  0  0
  -28.2100  -11.9720   19.2000 C   0  0  0  0  0  2  0  0  0  0  0  0
  -27.7160  -12.9810   20.2800 C   0  0  0  0  0  3  0  0  0  0  0  0
  -28.6480  -13.0530   21.5040 C   0  0  0  0  0  2  0  0  0  0  0  0
  -30.0120  -13.2740   21.0190 N   0  0  0  0  0  0  0  0  0  0  0  0
  -31.9370  -14.4590   21.0240 O   0  0  0  0  0  0  0  0  0  0  0  0
  -25.2750  -13.6100   20.7640 C   0  0  0  0  0  0  0  0  0  0  0  0
  -24.1700  -12.8500   21.0320 C   0  0  0  0  0  0  0  0  0  0  0  0
  -24.6240  -11.4970   21.0840 C   0  0  0  0  0  0  0  0  0  0  0  0
  -26.3310  -12.7180   20.6620 N   0  0  0  0  0  0  0  0  0  0  0  0
  -25.9400  -11.4460   20.9280 N   0  0  0  0  0  0  0  0  0  0  0  0
  -23.8700  -10.2420   21.2260 C   0  0  0  0  0  0  0  0  0  0  0  0
  -24.2380   -9.2680   22.1810 C   0  0  0  0  0  3  0  0  0  0  0  0
  -23.4910   -8.0780   22.3110 C   0  0  0  0  0  3  0  0  0  0  0  0
  -22.3620   -7.8520   21.4870 C   0  0  0  0  0  0  0  0  0  0  0  0
  -22.0130   -8.8140   20.5250 C   0  0  0  0  0  3  0  0  0  0  0  0
  -22.7590   -9.9980   20.3930 C   0  0  0  0  0  3  0  0  0  0  0  0
  -21.6010   -6.7080   21.5250 O   0  0  0  0  0  0  0  0  0  0  0  0
  -21.5320   -5.9280   22.6520 C   0  0  0  0  0  0  0  0  0  0  0  0
  -21.1040   -6.4470   23.8930 C   0  0  0  0  0  3  0  0  0  0  0  0
  -20.9770   -5.5950   25.0080 C   0  0  0  0  0  3  0  0  0  0  0  0
  -21.2670   -4.2220   24.8820 C   0  0  0  0  0  0  0  0  0  0  0  0
  -21.6850   -3.7010   23.6450 C   0  0  0  0  0  3  0  0  0  0  0  0
  -21.8140   -4.5520   22.5320 C   0  0  0  0  0  0  0  0  0  0  0  0
  -22.1950   -4.0410   21.3360 F   0  0  0  0  0  0  0  0  0  0  0  0
  -21.1430   -3.3990   25.9500 F   0  0  0  0  0  0  0  0  0  0  0  0
  -22.7540  -13.3350   21.1380 C   0  0  0  0  0  0  0  0  0  0  0  0
  -21.9420  -12.6680   21.9500 N   0  0  0  0  0  0  0  0  0  0  0  0
  -22.3740  -14.3380   20.5380 O   0  0  0  0  0  0  0  0  0  0  0  0
  -22.2580  -11.8530   22.4570 H   0  0  0  0  0  0  0  0  0  0  0  0
  -20.9890  -12.9760   22.0650 H   0  0  0  0  0  0  0  0  0  0  0  0
  -25.4650  -14.9740   20.5700 N   0  0  0  0  0  0  0  0  0  0  0  0
  -24.7040  -15.6430   20.5800 H   0  0  0  0  0  0  0  0  0  0  0  0
  -26.3560  -15.3950   20.3420 H   0  0  0  0  0  0  0  0  0  0  0  0
  -29.1440  -23.1170   21.5550 N   0  0  0  0  0  4  0  0  0  0  0  0
  -28.8880  -23.3030   22.5130 H   0  0  0  0  0  0  0  0  0  0  0  0
  -28.3370  -22.7010   21.1160 H   0  0  0  0  0  0  0  0  0  0  0  0
  -29.4300  -24.4150   20.8610 C   0  0  0  0  0  2  0  0  0  0  0  0
  -28.1400  -25.1930   20.5060 C   0  0  0  0  0  2  0  0  0  0  0  0
  -28.3790  -26.5290   20.0120 O   0  0  0  0  0  0  0  0  0  0  0  0
  -24.6780  -31.7280   23.1290 C   0  0  0  0  0  0  0  0  0  0  0  0
  -27.2430  -27.3150   19.9630 C   0  0  0  0  0  0  0  0  0  0  0  0
  -23.4440  -30.3790   21.4630 C   0  0  0  0  0  3  0  0  0  0  0  0
  -24.8720  -28.8580   19.9960 C   0  0  0  0  0  0  0  0  0  0  0  0
  -25.9730  -30.7130   21.2560 C   0  0  0  0  0  2  0  0  0  0  0  0
  -26.0390  -29.3540   20.5910 C   0  0  0  0  0  0  0  0  0  0  0  0
  -27.2290  -28.5910   20.5730 C   0  0  0  0  0  3  0  0  0  0  0  0
  -26.0650  -26.8440   19.3410 C   0  0  0  0  0  3  0  0  0  0  0  0
  -24.8810  -27.6040   19.3640 C   0  0  0  0  0  3  0  0  0  0  0  0
  -23.6370  -29.7280   20.0660 C   0  0  0  0  0  2  0  0  0  0  0  0
  -24.7180  -30.9540   22.0080 N   0  0  0  0  0  0  0  0  0  0  0  0
  -23.6050  -32.0020   23.6840 O   0  0  0  0  0  0  0  0  0  0  0  0
  -22.7880  -29.3450   22.4060 C   0  0  0  0  0  0  0  0  0  0  0  0
  -21.4560  -29.2010   22.3040 N   0  0  0  0  0  0  0  0  0  0  0  0
  -23.4730  -28.6770   23.1860 O   0  0  0  0  0  0  0  0  0  0  0  0
  -20.9680  -29.7860   21.6400 H   0  0  0  0  0  0  0  0  0  0  0  0
  -18.0640  -28.0900   22.8560 C   0  0  0  0  0  0  0  0  0  0  0  0
  -20.6330  -28.2620   23.0650 C   0  0  0  0  0  3  0  0  0  0  0  0
  -20.6780  -26.8510   22.4380 C   0  0  0  0  0  2  0  0  0  0  0  0
  -19.5400  -26.5960   21.4460 C   0  0  0  0  0  2  0  0  0  0  0  0
  -18.1800  -26.7610   22.1300 C   0  0  0  0  0  2  0  0  0  0  0  0
  -19.2160  -28.8030   23.2810 C   0  0  0  0  0  0  0  0  0  0  0  0
  -19.0520  -30.0510   23.9210 C   0  0  0  0  0  3  0  0  0  0  0  0
  -17.7680  -30.5850   24.1400 C   0  0  0  0  0  3  0  0  0  0  0  0
  -16.6300  -29.8690   23.7280 C   0  0  0  0  0  3  0  0  0  0  0  0
  -16.7780  -28.6240   23.0930 C   0  0  0  0  0  3  0  0  0  0  0  0
  -25.9790  -32.3290   23.7510 C   0  0  0  0  0  3  0  0  0  0  0  0
  -26.5240  -31.4950   24.9750 C   0  0  1  0  0  0  0  0  0  0  0  0
  -25.4550  -31.2090   26.0570 C   0  0  0  0  0  1  0  0  0  0  0  0
  -27.0900  -30.1370   24.5030 C   0  0  0  0  0  1  0  0  0  0  0  0
  -27.6970  -32.2510   25.6400 C   0  0  0  0  0  1  0  0  0  0  0  0
  -25.6790  -33.7090   24.1540 N   0  0  0  0  0  0  0  0  0  0  0  0
  -25.9990  -34.7950   23.4380 C   0  0  0  0  0  0  0  0  0  0  0  0
  -26.6510  -34.7370   22.3900 O   0  0  0  0  0  0  0  0  0  0  0  0
  -25.0970  -33.8280   24.9710 H   0  0  0  0  0  0  0  0  0  0  0  0
  -24.2690  -36.6010   23.1910 C   0  0  0  0  0  1  0  0  0  0  0  0
  -25.5220  -36.1620   23.9640 C   0  0  0  0  0  3  0  0  0  0  0  0
  -27.6750  -37.0020   24.7960 C   0  0  0  0  0  1  0  0  0  0  0  0
  -26.5560  -37.2180   23.8810 N   0  0  0  0  0  0  0  0  0  0  0  0
  -26.1560  -38.1310   24.0790 H   0  0  0  0  0  0  0  0  0  0  0  0
  2  4  1  0
  2  1  1  0
  3  1  1  0
  5 12  1  0
  5  6  1  0
  5  3  1  0
  6  8  1  0
  7 53  1  0
  7  6  1  0
  7  4  1  0
 10 13  2  0
 10 14  1  0
 11 17  1  0
 11  9  2  0
 12  9  1  0
 13 11  1  0
 14 12  2  0
 15 13  1  0
 16 14  1  0
 18 23  1  0
 19 20  1  0
 19 18  1  0
 21 20  1  0
 21 28  1  0
 21 22  1  0
 23 17  1  0
 23 22  1  0
 24 17  2  0
 25 26  2  0
 26 27  1  0
 26 45  1  0
 27 30  1  0
 28 25  1  0
 28 29  1  0
 29 27  2  0
 30 31  1  0
 31 32  2  0
 33 36  1  0
 33 32  1  0
 34 33  2  0
 35 34  1  0
 35 30  2  0
 36 37  1  0
 37 38  1  0
 38 39  2  0
 40 39  1  0
 40 44  1  0
 41 40  2  0
 42 37  2  0
 42 41  1  0
 43 42  1  0
 45 46  1  0
 46 49  1  0
 46 48  1  0
 47 45  2  0
 50 51  1  0
 50 25  1  0
 52 50  1  0
 53 54  1  0
 55 53  1  0
 56 53  1  0
 57 56  1  0
 58 57  1  0
 59 70  2  0
 60 58  1  0
 60 65  1  0
 61 69  1  0
 61 71  1  0
 62 68  1  0
 62 64  1  0
 63 69  1  0
 64 63  1  0
 65 64  2  0
 66 67  1  0
 66 60  2  0
 67 62  2  0
 68 61  1  0
 69 59  1  0
 71 73  2  0
 72 71  1  0
 74 72  1  0
 75 84  2  0
 75 80  1  0
 76 72  1  0
 76 80  1  0
 77 76  1  0
 78 79  1  0
 78 77  1  0
 79 75  1  0
 80 81  2  0
 81 82  1  0
 83 82  2  0
 84 83  1  0
 85 59  1  0
 85 90  1  0
 85 86  1  0
 86 89  1  1
 86 87  1  0
 88 86  1  0
 90 93  1  0
 91 95  1  0
 91 90  1  0
 92 91  2  0
 95 94  1  0
 97 95  1  0
 97 98  1  0
 97 96  1  0
M  ISO  4  11 100  17 100  57 101  58 101
M  END
>  <TORSDO>  (28) 
F 20

>  <SCORE>  (28) 
-10.181

>  <name>  (28) 
27

>  <ligand_id>  (28) 
27

>  <original_smiles>  (28) 
[H]c1c([H])c([H])c2c(c1[H])C([H])([H])C([H])([H])C([H])([H])C2([H])N([H])C(=O)C1([H])N(C(=O)C([H])(N([H])C(=O)C([H])(N([H])C([H])([H])[H])C([H])([H])[H])C(C([H])([H])[H])(C([H])([H])[H])C([H])([H])[H])C([H])([H])c2c([H])c(OC([H])([H])C([H])([H])[N+]([H])([H])C3([H])C([H])([H])C([H])([H])C([H])([H])C([H])([H])C([H])(c4c([H])c(C(=O)N5C([H])([H])C([H])([H])C([H])([H])C([H])(n6nc(-c7c([H])c([H])c(Oc8c([H])c([H])c(F)c([H])c8F)c([H])c7[H])c(C(=O)N([H])[H])c6N([H])[H])C5([H])[H])c(C([H])([H])[H])c([H])c4C([H])([H])[H])C3([H])C([H])([H])[H])c([H])c([H])c2C1([H])[H]

>  <smiles>  (28) 
[H]c1c([H])c([H])c2c(c1[H])C([H])([H])C([H])([H])C([H])([H])C2([H])N([H])C(=O)C1([H])N(C(=O)C([H])(N([H])C(=O)C([H])(N([H])C([H])([H])[H])C([H])([H])[H])C(C([H])([H])[H])(C([H])([H])[H])C([H])([H])[H])C([H])([H])c2c([H])c(OC([H])([H])C([H])([H])[N+]([H])([H])C3([H])C([H])([H])C([H])([H])C([H])([H])C([H])([H])C([H])(c4c([H])c(C(=O)N5C([H])([H])C([H])([H])C([H])([H])C([H])(n6nc(-c7c([H])c([H])c(Oc8c([H])c([H])c(F)c([H])c8F)c([H])c7[H])c(C(=O)N([H])[H])c6N([H])[H])C5([H])[H])c(C([H])([H])[H])c([H])c4C([H])([H])[H])C3([H])C([H])([H])[H])c([H])c([H])c2C1([H])[H]

$$$$
28:0:0
     RDKit          3D

 91 99  0  0  1  0  0  0  0  0999 V2000
  -29.4300  -21.2440   20.5170 C   0  0  0  0  0  0  0  0  0  0  0  0
  -28.7330  -22.3970   20.2230 N   0  0  0  0  0  0  0  0  0  0  0  0
  -30.4990  -21.2970   21.1250 O   0  0  0  0  0  0  0  0  0  0  0  0
  -27.8600  -22.2600   19.7300 H   0  0  0  0  0  0  0  0  0  0  0  0
  -30.1640  -18.7960   18.1090 C   0  0  0  0  0  2  0  0  0  0  0  0
  -28.9560  -19.6350   18.5420 C   0  0  0  0  0  2  0  0  0  0  0  0
  -30.0450  -17.3620   18.6400 C   0  0  0  0  0  2  0  0  0  0  0  0
  -29.2590  -18.4530   20.8580 C   0  0  0  0  0  2  0  0  0  0  0  0
  -28.8670  -19.8200   20.0710 C   0  0  0  0  0  3  0  0  0  0  0  0
  -30.1350  -17.2810   20.1780 C   0  0  0  0  0  3  0  0  0  0  0  0
  -30.6060  -14.7160   20.3710 C   0  0  0  0  0  0  0  0  0  0  0  0
  -30.3720  -12.4640   19.3400 C   0  0  0  0  0  2  0  0  0  0  0  0
  -29.4350  -12.5850   18.1180 C   0  0  0  0  0  2  0  0  0  0  0  0
  -27.9630  -12.4290   18.5450 C   0  0  0  0  0  2  0  0  0  0  0  0
  -27.6030  -13.2980   19.7810 C   0  0  0  0  0  3  0  0  0  0  0  0
  -28.6620  -13.1710   20.8990 C   0  0  0  0  0  2  0  0  0  0  0  0
  -29.9660  -13.5030   20.3140 N   0  0  0  0  0  0  0  0  0  0  0  0
  -31.7820  -14.8200   20.0120 O   0  0  0  0  0  0  0  0  0  0  0  0
  -29.8390  -15.8430   20.5900 N   0  0  0  0  0  0  0  0  0  0  0  0
  -28.8940  -15.6590   20.8910 H   0  0  0  0  0  0  0  0  0  0  0  0
  -25.2120  -13.8950   20.4980 C   0  0  0  0  0  0  0  0  0  0  0  0
  -24.1440  -13.1230   20.8690 C   0  0  0  0  0  0  0  0  0  0  0  0
  -24.6070  -11.7710   20.8460 C   0  0  0  0  0  0  0  0  0  0  0  0
  -26.2560  -13.0140   20.2670 N   0  0  0  0  0  0  0  0  0  0  0  0
  -25.8980  -11.7310   20.5390 N   0  0  0  0  0  0  0  0  0  0  0  0
  -23.8780  -10.5100   21.0390 C   0  0  0  0  0  0  0  0  0  0  0  0
  -24.3150   -9.5400   21.9680 C   0  0  0  0  0  3  0  0  0  0  0  0
  -23.5870   -8.3440   22.1500 C   0  0  0  0  0  3  0  0  0  0  0  0
  -22.4080   -8.1100   21.4020 C   0  0  0  0  0  0  0  0  0  0  0  0
  -21.9920   -9.0690   20.4620 C   0  0  0  0  0  3  0  0  0  0  0  0
  -22.7200  -10.2550   20.2780 C   0  0  0  0  0  3  0  0  0  0  0  0
  -21.6510   -6.9670   21.4940 O   0  0  0  0  0  0  0  0  0  0  0  0
  -21.6110   -6.2210   22.6440 C   0  0  0  0  0  0  0  0  0  0  0  0
  -21.1990   -6.7710   23.8760 C   0  0  0  0  0  3  0  0  0  0  0  0
  -21.1060   -5.9510   25.0180 C   0  0  0  0  0  3  0  0  0  0  0  0
  -21.4170   -4.5810   24.9290 C   0  0  0  0  0  0  0  0  0  0  0  0
  -21.8220   -4.0290   23.7010 C   0  0  0  0  0  3  0  0  0  0  0  0
  -21.9160   -4.8470   22.5610 C   0  0  0  0  0  0  0  0  0  0  0  0
  -22.2880   -4.3060   21.3760 F   0  0  0  0  0  0  0  0  0  0  0  0
  -21.3200   -3.7910   26.0240 F   0  0  0  0  0  0  0  0  0  0  0  0
  -22.7470  -13.6030   21.1360 C   0  0  0  0  0  0  0  0  0  0  0  0
  -22.0180  -12.9130   22.0060 N   0  0  0  0  0  0  0  0  0  0  0  0
  -22.3110  -14.6240   20.6090 O   0  0  0  0  0  0  0  0  0  0  0  0
  -22.3840  -12.0860   22.4560 H   0  0  0  0  0  0  0  0  0  0  0  0
  -21.0810  -13.2160   22.2280 H   0  0  0  0  0  0  0  0  0  0  0  0
  -25.3760  -15.2640   20.3130 N   0  0  0  0  0  0  0  0  0  0  0  0
  -24.6060  -15.9160   20.4140 H   0  0  0  0  0  0  0  0  0  0  0  0
  -26.2160  -15.6990   19.9540 H   0  0  0  0  0  0  0  0  0  0  0  0
  -29.0990  -23.8480   20.4940 C   0  0  0  0  0  3  0  0  0  0  0  0
  -28.0450  -24.9740   20.0480 C   0  0  0  0  0  3  0  0  0  0  0  0
  -28.2920  -26.4340   20.2620 O   0  0  0  0  0  0  0  0  0  0  0  0
  -24.6160  -31.9130   23.2470 C   0  0  0  0  0  0  0  0  0  0  0  0
  -27.1930  -27.3180   20.1930 C   0  0  0  0  0  0  0  0  0  0  0  0
  -23.4020  -30.5190   21.6120 C   0  0  0  0  0  3  0  0  0  0  0  0
  -24.8410  -28.9620   20.1820 C   0  0  0  0  0  0  0  0  0  0  0  0
  -25.9460  -30.8180   21.4260 C   0  0  0  0  0  2  0  0  0  0  0  0
  -26.0160  -29.4390   20.7780 C   0  0  0  0  0  0  0  0  0  0  0  0
  -27.1940  -28.6290   20.7720 C   0  0  0  0  0  3  0  0  0  0  0  0
  -25.9940  -26.9090   19.5620 C   0  0  0  0  0  3  0  0  0  0  0  0
  -24.8340  -27.7040   19.5640 C   0  0  0  0  0  3  0  0  0  0  0  0
  -23.6100  -29.8440   20.2330 C   0  0  0  0  0  2  0  0  0  0  0  0
  -24.6730  -31.1010   22.1510 N   0  0  0  0  0  0  0  0  0  0  0  0
  -23.5350  -32.1970   23.7840 O   0  0  0  0  0  0  0  0  0  0  0  0
  -22.7360  -29.5060   22.5760 C   0  0  0  0  0  0  0  0  0  0  0  0
  -21.4090  -29.3350   22.4530 N   0  0  0  0  0  0  0  0  0  0  0  0
  -23.4140  -28.8760   23.3930 O   0  0  0  0  0  0  0  0  0  0  0  0
  -20.9220  -29.8940   21.7660 H   0  0  0  0  0  0  0  0  0  0  0  0
  -18.0260  -28.1580   22.9660 C   0  0  0  0  0  0  0  0  0  0  0  0
  -20.5870  -28.4040   23.2280 C   0  0  0  0  0  3  0  0  0  0  0  0
  -20.6790  -26.9710   22.6560 C   0  0  0  0  0  2  0  0  0  0  0  0
  -19.5720  -26.6510   21.6460 C   0  0  0  0  0  2  0  0  0  0  0  0
  -18.1930  -26.8060   22.2930 C   0  0  0  0  0  2  0  0  0  0  0  0
  -19.1500  -28.9150   23.3910 C   0  0  0  0  0  0  0  0  0  0  0  0
  -18.9400  -30.1800   23.9810 C   0  0  0  0  0  3  0  0  0  0  0  0
  -17.6390  -30.6890   24.1500 C   0  0  0  0  0  3  0  0  0  0  0  0
  -16.5290  -29.9290   23.7410 C   0  0  0  0  0  3  0  0  0  0  0  0
  -16.7240  -28.6650   23.1550 C   0  0  0  0  0  3  0  0  0  0  0  0
  -25.9030  -32.5420   23.8650 C   0  0  0  0  0  3  0  0  0  0  0  0
  -26.4230  -31.7660   25.1370 C   0  0  1  0  0  0  0  0  0  0  0  0
  -25.3330  -31.5300   26.2090 C   0  0  0  0  0  1  0  0  0  0  0  0
  -27.0010  -30.3880   24.7420 C   0  0  0  0  0  1  0  0  0  0  0  0
  -27.5770  -32.5570   25.7960 C   0  0  0  0  0  1  0  0  0  0  0  0
  -25.5980  -33.9400   24.2010 N   0  0  0  0  0  0  0  0  0  0  0  0
  -25.9180  -34.9930   23.4390 C   0  0  0  0  0  0  0  0  0  0  0  0
  -26.5720  -34.8930   22.3980 O   0  0  0  0  0  0  0  0  0  0  0  0
  -25.0150  -34.0920   25.0110 H   0  0  0  0  0  0  0  0  0  0  0  0
  -24.1800  -36.7840   23.1200 C   0  0  0  0  0  1  0  0  0  0  0  0
  -25.4380  -36.3810   23.9070 C   0  0  0  0  0  3  0  0  0  0  0  0
  -27.5870  -37.2700   24.6960 C   0  0  0  0  0  1  0  0  0  0  0  0
  -26.4660  -37.4360   23.7740 N   0  0  0  0  0  0  0  0  0  0  0  0
  -26.0620  -38.3560   23.9280 H   0  0  0  0  0  0  0  0  0  0  0  0
  1  3  2  0
  2 49  1  0
  2  1  1  0
  4  2  1  0
  5  6  1  0
  5  7  1  0
  6  9  1  0
  7 10  1  0
  9  1  1  0
  9  8  1  0
 10 19  1  0
 10  8  1  0
 11 19  1  0
 12 17  1  0
 13 14  1  0
 13 12  1  0
 15 14  1  0
 15 24  1  0
 15 16  1  0
 17 11  1  0
 17 16  1  0
 18 11  2  0
 19 20  1  0
 21 22  2  0
 22 41  1  0
 23 22  1  0
 23 26  1  0
 24 21  1  0
 24 25  1  0
 25 23  2  0
 26 27  1  0
 27 28  2  0
 29 32  1  0
 29 28  1  0
 30 29  2  0
 31 30  1  0
 31 26  2  0
 32 33  1  0
 33 34  1  0
 34 35  2  0
 36 35  1  0
 36 40  1  0
 37 36  2  0
 38 33  2  0
 38 37  1  0
 39 38  1  0
 41 42  1  0
 42 45  1  0
 42 44  1  0
 43 41  2  0
 46 47  1  0
 46 21  1  0
 48 46  1  0
 50 51  1  0
 50 49  2  0
 52 63  2  0
 53 51  1  0
 53 58  1  0
 54 62  1  0
 54 64  1  0
 55 61  1  0
 55 57  1  0
 56 62  1  0
 57 56  1  0
 58 57  2  0
 59 60  1  0
 59 53  2  0
 60 55  2  0
 61 54  1  0
 62 52  1  0
 64 66  2  0
 65 64  1  0
 67 65  1  0
 68 77  2  0
 68 73  1  0
 69 65  1  0
 69 73  1  0
 70 69  1  0
 71 72  1  0
 71 70  1  0
 72 68  1  0
 73 74  2  0
 74 75  1  0
 76 75  2  0
 77 76  1  0
 78 52  1  0
 78 83  1  0
 78 79  1  0
 79 82  1  1
 79 80  1  0
 81 79  1  0
 83 86  1  0
 84 88  1  0
 84 83  1  0
 85 84  2  0
 88 87  1  0
 90 88  1  0
 90 91  1  0
 90 89  1  0
M  ISO  4  11 100  19 100  50 101  51 101
M  END
>  <TORSDO>  (29) 
F 19

>  <SCORE>  (29) 
-14.177

>  <name>  (29) 
28

>  <ligand_id>  (29) 
28

>  <original_smiles>  (29) 
[H]c1c([H])c([H])c2c(c1[H])C([H])([H])C([H])([H])C([H])([H])C2([H])N([H])C(=O)C1([H])N(C(=O)C([H])(N([H])C(=O)C([H])(N([H])C([H])([H])[H])C([H])([H])[H])C(C([H])([H])[H])(C([H])([H])[H])C([H])([H])[H])C([H])([H])c2c([H])c(OC([H])([H])C([H])([H])N([H])C(=O)C3([H])C([H])([H])C([H])([H])C([H])([H])C([H])(N([H])C(=O)N4C([H])([H])C([H])([H])C([H])([H])C([H])(n5nc(-c6c([H])c([H])c(Oc7c([H])c([H])c(F)c([H])c7F)c([H])c6[H])c(C(=O)N([H])[H])c5N([H])[H])C4([H])[H])C3([H])[H])c([H])c([H])c2C1([H])[H]

>  <smiles>  (29) 
[H]c1c([H])c([H])c2c(c1[H])C([H])([H])C([H])([H])C([H])([H])C2([H])N([H])C(=O)C1([H])N(C(=O)C([H])(N([H])C(=O)C([H])(N([H])C([H])([H])[H])C([H])([H])[H])C(C([H])([H])[H])(C([H])([H])[H])C([H])([H])[H])C([H])([H])c2c([H])c(OC([H])([H])C([H])([H])N([H])C(=O)C3([H])C([H])([H])C([H])([H])C([H])([H])C([H])(N([H])C(=O)N4C([H])([H])C([H])([H])C([H])([H])C([H])(n5nc(-c6c([H])c([H])c(Oc7c([H])c([H])c(F)c([H])c7F)c([H])c6[H])c(C(=O)N([H])[H])c5N([H])[H])C4([H])[H])C3([H])[H])c([H])c([H])c2C1([H])[H]

$$$$
29:0:0
     RDKit          3D

 99107  0  0  1  0  0  0  0  0999 V2000
  -28.1860  -24.2370   21.7020 C   0  0  0  0  0  3  0  0  0  0  0  0
  -27.7570  -24.5330   20.4550 C   0  0  0  0  0  0  0  0  0  0  0  0
  -24.1250  -23.4580   20.1400 C   0  0  0  0  0  3  0  0  0  0  0  0
  -25.2940  -24.0980   20.5950 C   0  0  0  0  0  3  0  0  0  0  0  0
  -24.1770  -22.6060   19.0200 C   0  0  0  0  0  3  0  0  0  0  0  0
  -26.5320  -23.8870   19.9420 C   0  0  0  0  0  0  0  0  0  0  0  0
  -25.4010  -22.3880   18.3580 C   0  0  0  0  0  0  0  0  0  0  0  0
  -26.5760  -23.0180   18.8240 C   0  0  0  0  0  0  0  0  0  0  0  0
  -27.7570  -22.7670   18.2030 F   0  0  0  0  0  0  0  0  0  0  0  0
  -25.4470  -21.5620   17.2700 O   0  0  0  0  0  0  0  0  0  0  0  0
  -24.5910  -21.2290   17.0220 H   0  0  0  0  0  0  0  0  0  0  0  0
  -29.4280  -24.7650   22.3950 C   0  0  0  0  0  2  0  0  0  0  0  0
  -30.3880  -23.6290   22.7810 C   0  0  0  0  0  2  0  0  0  0  0  0
  -30.8070  -22.7490   21.5860 C   0  0  0  0  0  2  0  0  0  0  0  0
  -32.0850  -21.9240   21.8280 C   0  0  0  0  0  2  0  0  0  0  0  0
  -32.0310  -20.9470   23.0210 C   0  0  0  0  0  2  0  0  0  0  0  0
  -31.0900  -19.7390   22.8580 C   0  0  0  0  0  2  0  0  0  0  0  0
  -31.5820  -18.6950   21.8400 C   0  0  0  0  0  2  0  0  0  0  0  0
  -30.7510  -17.4030   21.8760 C   0  0  0  0  0  2  0  0  0  0  0  0
  -31.2960  -16.3140   20.9360 C   0  0  0  0  0  2  0  0  0  0  0  0
  -30.5110  -14.9880   21.0450 C   0  0  0  0  0  2  0  0  0  0  0  0
  -30.9650  -13.9020   20.0520 C   0  0  0  0  0  0  0  0  0  0  0  0
  -30.4320  -11.8370   18.8000 C   0  0  0  0  0  2  0  0  0  0  0  0
  -29.4080  -12.1390   17.6900 C   0  0  0  0  0  2  0  0  0  0  0  0
  -27.9680  -12.0650   18.2370 C   0  0  0  0  0  2  0  0  0  0  0  0
  -27.7850  -12.8780   19.5460 C   0  0  0  0  0  3  0  0  0  0  0  0
  -28.9090  -12.5500   20.5550 C   0  0  0  0  0  2  0  0  0  0  0  0
  -30.2020  -12.7890   19.8950 N   0  0  0  0  0  0  0  0  0  0  0  0
  -31.9900  -14.0960   19.3900 O   0  0  0  0  0  0  0  0  0  0  0  0
  -25.4920  -13.5970   20.4730 C   0  0  0  0  0  0  0  0  0  0  0  0
  -24.4100  -12.8730   20.9000 C   0  0  0  0  0  0  0  0  0  0  0  0
  -24.7820  -11.4990   20.7780 C   0  0  0  0  0  0  0  0  0  0  0  0
  -26.4590  -12.6660   20.1230 N   0  0  0  0  0  0  0  0  0  0  0  0
  -26.0380  -11.3970   20.3600 N   0  0  0  0  0  0  0  0  0  0  0  0
  -23.9970  -10.2750   20.9790 C   0  0  0  0  0  0  0  0  0  0  0  0
  -24.4110   -9.2720   21.8830 C   0  0  0  0  0  3  0  0  0  0  0  0
  -23.6300   -8.1110   22.0720 C   0  0  0  0  0  3  0  0  0  0  0  0
  -22.4200   -7.9470   21.3570 C   0  0  0  0  0  0  0  0  0  0  0  0
  -22.0240   -8.9370   20.4410 C   0  0  0  0  0  3  0  0  0  0  0  0
  -22.8050  -10.0890   20.2500 C   0  0  0  0  0  3  0  0  0  0  0  0
  -21.6090   -6.8410   21.4570 O   0  0  0  0  0  0  0  0  0  0  0  0
  -21.5340   -6.1060   22.6130 C   0  0  0  0  0  0  0  0  0  0  0  0
  -21.1010   -6.6760   23.8300 C   0  0  0  0  0  3  0  0  0  0  0  0
  -20.9720   -5.8700   24.9790 C   0  0  0  0  0  3  0  0  0  0  0  0
  -21.2640   -4.4940   24.9100 C   0  0  0  0  0  0  0  0  0  0  0  0
  -21.6910   -3.9250   23.6970 C   0  0  0  0  0  3  0  0  0  0  0  0
  -21.8220   -4.7280   22.5510 C   0  0  0  0  0  0  0  0  0  0  0  0
  -22.2120   -4.1690   21.3810 F   0  0  0  0  0  0  0  0  0  0  0  0
  -21.1330   -3.7160   26.0110 F   0  0  0  0  0  0  0  0  0  0  0  0
  -23.0720  -13.4180   21.3090 C   0  0  0  0  0  0  0  0  0  0  0  0
  -22.3700  -12.7200   22.1940 N   0  0  0  0  0  0  0  0  0  0  0  0
  -22.6620  -14.4960   20.8790 O   0  0  0  0  0  0  0  0  0  0  0  0
  -22.7150  -11.8470   22.5630 H   0  0  0  0  0  0  0  0  0  0  0  0
  -21.4740  -13.0660   22.5100 H   0  0  0  0  0  0  0  0  0  0  0  0
  -25.7250  -14.9610   20.3340 N   0  0  0  0  0  0  0  0  0  0  0  0
  -25.0130  -15.6570   20.5310 H   0  0  0  0  0  0  0  0  0  0  0  0
  -26.5760  -15.3620   19.9590 H   0  0  0  0  0  0  0  0  0  0  0  0
  -28.4550  -25.5440   19.5430 C   0  0  0  0  0  2  0  0  0  0  0  0
  -28.4020  -26.8820   20.0470 O   0  0  0  0  0  0  0  0  0  0  0  0
  -24.6580  -31.9540   23.3160 C   0  0  0  0  0  0  0  0  0  0  0  0
  -27.2020  -27.5640   20.0800 C   0  0  0  0  0  0  0  0  0  0  0  0
  -23.4050  -30.6020   21.6680 C   0  0  0  0  0  3  0  0  0  0  0  0
  -24.8120  -29.0800   20.1830 C   0  0  0  0  0  0  0  0  0  0  0  0
  -25.9270  -30.9380   21.4290 C   0  0  0  0  0  2  0  0  0  0  0  0
  -25.9850  -29.5810   20.7610 C   0  0  0  0  0  0  0  0  0  0  0  0
  -27.1770  -28.8270   20.7120 C   0  0  0  0  0  3  0  0  0  0  0  0
  -26.0060  -27.0730   19.5040 C   0  0  0  0  0  3  0  0  0  0  0  0
  -24.8160  -27.8230   19.5570 C   0  0  0  0  0  3  0  0  0  0  0  0
  -23.5770  -29.9480   20.2710 C   0  0  0  0  0  2  0  0  0  0  0  0
  -24.6820  -31.1780   22.1960 N   0  0  0  0  0  0  0  0  0  0  0  0
  -23.5910  -32.2290   23.8810 O   0  0  0  0  0  0  0  0  0  0  0  0
  -22.7600  -29.5670   22.6170 C   0  0  0  0  0  0  0  0  0  0  0  0
  -21.4380  -29.3770   22.4850 N   0  0  0  0  0  0  0  0  0  0  0  0
  -23.4470  -28.9390   23.4270 O   0  0  0  0  0  0  0  0  0  0  0  0
  -20.9460  -29.9360   21.8020 H   0  0  0  0  0  0  0  0  0  0  0  0
  -18.0710  -28.1590   22.9570 C   0  0  0  0  0  0  0  0  0  0  0  0
  -20.6260  -28.4250   23.2410 C   0  0  0  0  0  3  0  0  0  0  0  0
  -20.7380  -27.0020   22.6470 C   0  0  0  0  0  2  0  0  0  0  0  0
  -19.6410  -26.6850   21.6260 C   0  0  0  0  0  2  0  0  0  0  0  0
  -18.2560  -26.8180   22.2670 C   0  0  0  0  0  2  0  0  0  0  0  0
  -19.1840  -28.9220   23.3980 C   0  0  0  0  0  0  0  0  0  0  0  0
  -18.9590  -30.1800   23.9980 C   0  0  0  0  0  3  0  0  0  0  0  0
  -17.6520  -30.6730   24.1690 C   0  0  0  0  0  3  0  0  0  0  0  0
  -16.5520  -29.9060   23.7460 C   0  0  0  0  0  3  0  0  0  0  0  0
  -16.7630  -28.6520   23.1440 C   0  0  0  0  0  3  0  0  0  0  0  0
  -25.9640  -32.5560   23.9260 C   0  0  0  0  0  3  0  0  0  0  0  0
  -25.6900  -33.9590   24.2600 N   0  0  0  0  0  0  0  0  0  0  0  0
  -26.0200  -35.0030   23.4880 C   0  0  0  0  0  0  0  0  0  0  0  0
  -26.6600  -34.8850   22.4400 O   0  0  0  0  0  0  0  0  0  0  0  0
  -25.1220  -34.1250   25.0780 H   0  0  0  0  0  0  0  0  0  0  0  0
  -24.3070  -36.8190   23.1760 C   0  0  0  0  0  1  0  0  0  0  0  0
  -25.5660  -36.4000   23.9530 C   0  0  0  0  0  3  0  0  0  0  0  0
  -27.7330  -37.2610   24.7240 C   0  0  0  0  0  1  0  0  0  0  0  0
  -26.6110  -37.4360   23.8050 N   0  0  0  0  0  0  0  0  0  0  0  0
  -26.2230  -38.3640   23.9510 H   0  0  0  0  0  0  0  0  0  0  0  0
  -26.4770  -31.7690   25.1930 C   0  0  1  0  0  0  0  0  0  0  0  0
  -25.3870  -31.5380   26.2640 C   0  0  0  0  0  1  0  0  0  0  0  0
  -27.0430  -30.3880   24.7870 C   0  0  0  0  0  1  0  0  0  0  0  0
  -27.6420  -32.5440   25.8540 C   0  0  0  0  0  1  0  0  0  0  0  0
  1 12  1  0
  2  1  2  0
  3  4  1  0
  5  3  2  0
  6  2  1  0
  6  4  2  0
  7  8  2  0
  7  5  1  0
  8  6  1  0
  9  8  1  0
 10  7  1  0
 11 10  1  0
 12 13  1  0
 14 15  1  0
 14 13  1  0
 15 16  1  0
 17 16  1  0
 18 19  1  0
 18 17  1  0
 20 21  1  0
 20 19  1  0
 22 21  1  0
 23 28  1  0
 24 25  1  0
 24 23  1  0
 26 25  1  0
 26 33  1  0
 26 27  1  0
 28 22  1  0
 28 27  1  0
 29 22  2  0
 30 31  2  0
 31 50  1  0
 32 31  1  0
 32 35  1  0
 33 34  1  0
 33 30  1  0
 34 32  2  0
 35 36  1  0
 36 37  2  0
 38 41  1  0
 38 37  1  0
 39 38  2  0
 40 39  1  0
 40 35  2  0
 41 42  1  0
 42 43  1  0
 43 44  2  0
 45 44  1  0
 45 49  1  0
 46 45  2  0
 47 42  2  0
 47 46  1  0
 48 47  1  0
 50 51  1  0
 51 54  1  0
 51 53  1  0
 52 50  2  0
 55 30  1  0
 55 56  1  0
 57 55  1  0
 58 59  1  0
 58  2  1  0
 59 61  1  0
 60 71  2  0
 61 66  1  0
 62 70  1  0
 62 72  1  0
 63 69  1  0
 63 65  1  0
 64 70  1  0
 65 64  1  0
 66 65  2  0
 67 68  1  0
 67 61  2  0
 68 63  2  0
 69 62  1  0
 70 60  1  0
 72 74  2  0
 73 72  1  0
 75 73  1  0
 76 85  2  0
 76 81  1  0
 77 73  1  0
 77 81  1  0
 78 77  1  0
 79 80  1  0
 79 78  1  0
 80 76  1  0
 81 82  2  0
 82 83  1  0
 84 83  2  0
 85 84  1  0
 86 60  1  0
 86 87  1  0
 86 96  1  0
 87 90  1  0
 88 92  1  0
 88 87  1  0
 89 88  2  0
 92 91  1  0
 94 95  1  0
 94 92  1  0
 94 93  1  0
 96 99  1  1
 96 97  1  0
 98 96  1  0
M  ISO  4  21 100  22 100  58 101  59 101
M  END
>  <TORSDO>  (30) 
F 29

>  <SCORE>  (30) 
-11.162

>  <name>  (30) 
29

>  <ligand_id>  (30) 
29

>  <original_smiles>  (30) 
[H]Oc1c([H])c([H])c([H])c(C(=C([H])C([H])([H])C([H])([H])C([H])([H])C([H])([H])C([H])([H])C([H])([H])C([H])([H])C([H])([H])C([H])([H])C([H])([H])C(=O)N2C([H])([H])C([H])([H])C([H])([H])C([H])(n3nc(-c4c([H])c([H])c(Oc5c([H])c([H])c(F)c([H])c5F)c([H])c4[H])c(C(=O)N([H])[H])c3N([H])[H])C2([H])[H])C([H])([H])Oc2c([H])c([H])c3c(c2[H])C([H])([H])N(C(=O)C([H])(N([H])C(=O)C([H])(N([H])C([H])([H])[H])C([H])([H])[H])C(C([H])([H])[H])(C([H])([H])[H])C([H])([H])[H])C([H])(C(=O)N([H])C2([H])c4c([H])c([H])c([H])c([H])c4C([H])([H])C([H])([H])C2([H])[H])C3([H])[H])c1F

>  <smiles>  (30) 
[H]Oc1c([H])c([H])c([H])c(C(=C([H])C([H])([H])C([H])([H])C([H])([H])C([H])([H])C([H])([H])C([H])([H])C([H])([H])C([H])([H])C([H])([H])C([H])([H])C(=O)N2C([H])([H])C([H])([H])C([H])([H])C([H])(n3nc(-c4c([H])c([H])c(Oc5c([H])c([H])c(F)c([H])c5F)c([H])c4[H])c(C(=O)N([H])[H])c3N([H])[H])C2([H])[H])C([H])([H])Oc2c([H])c([H])c3c(c2[H])C([H])([H])N(C(=O)C([H])(N([H])C(=O)C([H])(N([H])C([H])([H])[H])C([H])([H])[H])C(C([H])([H])[H])(C([H])([H])[H])C([H])([H])[H])C([H])(C(=O)N([H])C2([H])c4c([H])c([H])c([H])c([H])c4C([H])([H])C([H])([H])C2([H])[H])C3([H])[H])c1F

$$$$
30:0:0
     RDKit          3D

 90 99  0  0  1  0  0  0  0  0999 V2000
  -30.5920  -15.9920   19.8770 C   0  0  0  0  0  0  0  0  0  0  0  0
  -30.9830  -13.3240   19.5450 C   0  0  0  0  0  2  0  0  0  0  0  0
  -30.2220  -12.5580   18.4180 C   0  0  0  0  0  2  0  0  0  0  0  0
  -28.8180  -12.1360   18.8670 C   0  0  0  0  0  2  0  0  0  0  0  0
  -28.1500  -13.2650   19.6790 C   0  0  0  0  0  3  0  0  0  0  0  0
  -29.0720  -13.8880   20.7570 C   0  0  0  0  0  2  0  0  0  0  0  0
  -30.1970  -14.5630   20.0400 N   0  0  0  0  0  0  0  0  0  0  0  0
  -31.8350  -15.9630   19.7160 O   0  0  0  0  0  0  0  0  0  0  0  0
  -28.8550  -22.2560   18.5440 C   0  0  0  0  0  3  0  0  0  0  0  0
  -28.7370  -20.6730   18.9490 C   0  0  0  0  0  0  0  0  0  0  0  0
  -27.3480  -20.4680   19.1290 C   0  0  0  0  0  0  0  0  0  0  0  0
  -26.3520  -21.5260   19.0860 C   0  0  0  0  0  0  0  0  0  0  0  0
  -26.5930  -22.9500   18.8700 C   0  0  0  0  0  0  0  0  0  0  0  0
  -27.8270  -23.5250   18.4140 C   0  0  0  0  0  0  0  0  0  0  0  0
  -26.9630  -19.0020   19.3770 C   0  0  0  0  0  2  0  0  0  0  0  0
  -29.8190  -19.1000   19.1850 C   0  0  0  0  0  2  0  0  0  0  0  0
  -27.5790  -18.4240   20.6660 C   0  0  0  0  0  2  0  0  0  0  0  0
  -28.4660  -17.1760   20.4470 C   0  0  0  0  0  2  0  0  0  0  0  0
  -24.8960  -21.0770   19.2880 C   0  0  0  0  0  1  0  0  0  0  0  0
  -25.4630  -23.9080   19.2380 C   0  0  0  0  0  1  0  0  0  0  0  0
  -29.7350  -17.3460   19.7180 N   0  0  0  0  0  0  0  0  0  0  0  0
  -25.7720  -13.7530   20.4330 C   0  0  0  0  0  0  0  0  0  0  0  0
  -24.7230  -12.9600   20.7860 C   0  0  0  0  0  0  0  0  0  0  0  0
  -25.2090  -11.6170   20.7380 C   0  0  0  0  0  0  0  0  0  0  0  0
  -26.8330  -12.9020   20.1860 N   0  0  0  0  0  0  0  0  0  0  0  0
  -26.5050  -11.6040   20.4320 N   0  0  0  0  0  0  0  0  0  0  0  0
  -24.4890  -10.3470   20.9010 C   0  0  0  0  0  0  0  0  0  0  0  0
  -24.8760   -9.3960   21.8720 C   0  0  0  0  0  3  0  0  0  0  0  0
  -24.1500   -8.1930   22.0230 C   0  0  0  0  0  3  0  0  0  0  0  0
  -23.0250   -7.9350   21.2060 C   0  0  0  0  0  0  0  0  0  0  0  0
  -22.6590   -8.8740   20.2250 C   0  0  0  0  0  3  0  0  0  0  0  0
  -23.3840  -10.0680   20.0730 C   0  0  0  0  0  3  0  0  0  0  0  0
  -22.2740   -6.7860   21.2670 O   0  0  0  0  0  0  0  0  0  0  0  0
  -22.0410   -6.1410   22.4560 C   0  0  0  0  0  0  0  0  0  0  0  0
  -21.3660   -6.7700   23.5250 C   0  0  0  0  0  3  0  0  0  0  0  0
  -21.0940   -6.0510   24.7050 C   0  0  0  0  0  3  0  0  0  0  0  0
  -21.4780   -4.7010   24.8130 C   0  0  0  0  0  0  0  0  0  0  0  0
  -22.1390   -4.0690   23.7450 C   0  0  0  0  0  3  0  0  0  0  0  0
  -22.4200   -4.7880   22.5700 C   0  0  0  0  0  0  0  0  0  0  0  0
  -23.0420   -4.1710   21.5370 F   0  0  0  0  0  0  0  0  0  0  0  0
  -21.2040   -4.0060   25.9410 F   0  0  0  0  0  0  0  0  0  0  0  0
  -23.3210  -13.4240   21.0480 C   0  0  0  0  0  0  0  0  0  0  0  0
  -22.6060  -12.7400   21.9330 N   0  0  0  0  0  0  0  0  0  0  0  0
  -22.8710  -14.4330   20.5050 O   0  0  0  0  0  0  0  0  0  0  0  0
  -22.9890  -11.9290   22.3960 H   0  0  0  0  0  0  0  0  0  0  0  0
  -21.6650  -13.0340   22.1590 H   0  0  0  0  0  0  0  0  0  0  0  0
  -25.8920  -15.1260   20.2640 N   0  0  0  0  0  0  0  0  0  0  0  0
  -25.0800  -15.7290   20.3460 H   0  0  0  0  0  0  0  0  0  0  0  0
  -26.6940  -15.5900   19.8630 H   0  0  0  0  0  0  0  0  0  0  0  0
  -27.8560  -25.1460   18.0270 O   0  0  0  0  0  0  0  0  0  0  0  0
  -25.2090  -31.1430   22.4200 C   0  0  0  0  0  0  0  0  0  0  0  0
  -27.0210  -26.4710   18.3190 C   0  0  0  0  0  0  0  0  0  0  0  0
  -23.7780  -30.1540   20.6860 C   0  0  0  0  0  3  0  0  0  0  0  0
  -24.9570  -28.6970   18.8590 C   0  0  0  0  0  0  0  0  0  0  0  0
  -26.3420  -30.1150   20.3440 C   0  0  0  0  0  2  0  0  0  0  0  0
  -26.2240  -28.8150   19.4400 C   0  0  0  0  0  0  0  0  0  0  0  0
  -27.2320  -27.7350   19.1540 C   0  0  0  0  0  3  0  0  0  0  0  0
  -25.7540  -26.6330   17.6890 C   0  0  0  0  0  3  0  0  0  0  0  0
  -24.7670  -27.6340   17.9590 C   0  0  0  0  0  3  0  0  0  0  0  0
  -23.8460  -29.7110   19.1940 C   0  0  0  0  0  2  0  0  0  0  0  0
  -25.1410  -30.4950   21.2040 N   0  0  0  0  0  0  0  0  0  0  0  0
  -24.1910  -31.4180   23.0780 O   0  0  0  0  0  0  0  0  0  0  0  0
  -23.0620  -29.0660   21.5350 C   0  0  0  0  0  0  0  0  0  0  0  0
  -21.7140  -29.0460   21.5430 N   0  0  0  0  0  0  0  0  0  0  0  0
  -23.7310  -28.2400   22.1630 O   0  0  0  0  0  0  0  0  0  0  0  0
  -21.2270  -29.7620   21.0220 H   0  0  0  0  0  0  0  0  0  0  0  0
  -18.2940  -28.1010   22.3500 C   0  0  0  0  0  0  0  0  0  0  0  0
  -20.8800  -28.0400   22.2150 C   0  0  0  0  0  3  0  0  0  0  0  0
  -20.6950  -26.7880   21.3260 C   0  0  0  0  0  2  0  0  0  0  0  0
  -19.4240  -26.8350   20.4730 C   0  0  0  0  0  2  0  0  0  0  0  0
  -18.1810  -26.9530   21.3610 C   0  0  0  0  0  2  0  0  0  0  0  0
  -19.5580  -28.6220   22.7390 C   0  0  0  0  0  0  0  0  0  0  0  0
  -19.6010  -29.7050   23.6420 C   0  0  0  0  0  3  0  0  0  0  0  0
  -18.4160  -30.2690   24.1490 C   0  0  0  0  0  3  0  0  0  0  0  0
  -17.1680  -29.7440   23.7690 C   0  0  0  0  0  3  0  0  0  0  0  0
  -17.1100  -28.6600   22.8750 C   0  0  0  0  0  3  0  0  0  0  0  0
  -26.5690  -31.5810   23.0420 C   0  0  0  0  0  3  0  0  0  0  0  0
  -26.3540  -32.8300   23.8020 N   0  0  0  0  0  0  0  0  0  0  0  0
  -26.6850  -34.0600   23.3810 C   0  0  0  0  0  0  0  0  0  0  0  0
  -27.2630  -34.2600   22.3100 O   0  0  0  0  0  0  0  0  0  0  0  0
  -25.8500  -32.7450   24.6710 H   0  0  0  0  0  0  0  0  0  0  0  0
  -25.0780  -35.9670   23.7360 C   0  0  0  0  0  1  0  0  0  0  0  0
  -26.3220  -35.2530   24.2890 C   0  0  0  0  0  3  0  0  0  0  0  0
  -28.5420  -35.7250   25.2280 C   0  0  0  0  0  1  0  0  0  0  0  0
  -27.4190  -36.2340   24.4450 N   0  0  0  0  0  0  0  0  0  0  0  0
  -27.0810  -37.0830   24.8900 H   0  0  0  0  0  0  0  0  0  0  0  0
  -27.1910  -30.4870   23.9970 C   0  0  1  0  0  0  0  0  0  0  0  0
  -26.2140  -29.9770   25.0810 C   0  0  0  0  0  1  0  0  0  0  0  0
  -27.6770  -29.2590   23.1940 C   0  0  0  0  0  1  0  0  0  0  0  0
  -28.4390  -31.0650   24.7060 C   0  0  0  0  0  1  0  0  0  0  0  0
  1  7  1  0
  2  7  1  0
  3  4  1  0
  3  2  1  0
  5  4  1  0
  5 25  1  0
  5  6  1  0
  7  6  1  0
  8  1  2  0
  9 10  1  0
 10 11  2  0
 10 16  1  0
 11 15  1  0
 12 11  1  0
 12 19  1  0
 13 12  2  0
 13 20  1  0
 14  9  2  0
 14 13  1  0
 15 17  1  0
 16 21  1  0
 18 17  1  0
 21  1  1  0
 21 18  1  0
 22 23  2  0
 23 42  1  0
 24 23  1  0
 24 27  1  0
 25 26  1  0
 25 22  1  0
 26 24  2  0
 27 28  1  0
 28 29  2  0
 30 33  1  0
 30 29  1  0
 31 30  2  0
 32 31  1  0
 32 27  2  0
 33 34  1  0
 34 39  2  0
 34 35  1  0
 35 36  2  0
 36 37  1  0
 37 41  1  0
 38 37  2  0
 39 38  1  0
 40 39  1  0
 42 43  1  0
 43 46  1  0
 43 45  1  0
 44 42  2  0
 47 48  1  0
 47 22  1  0
 49 47  1  0
 50 52  1  0
 50 14  1  0
 51 62  2  0
 52 57  1  0
 53 61  1  0
 53 63  1  0
 54 60  1  0
 54 56  1  0
 55 61  1  0
 56 55  1  0
 57 56  2  0
 58 59  1  0
 58 52  2  0
 59 54  2  0
 60 53  1  0
 61 51  1  0
 63 64  1  0
 63 65  2  0
 66 64  1  0
 67 72  2  0
 67 76  1  0
 68 64  1  0
 68 72  1  0
 69 68  1  0
 70 69  1  0
 70 71  1  0
 71 67  1  0
 72 73  1  0
 73 74  2  0
 75 74  1  0
 76 75  2  0
 77 51  1  0
 77 78  1  0
 77 87  1  0
 78 81  1  0
 79 78  1  0
 79 83  1  0
 80 79  2  0
 83 82  1  0
 83 85  1  0
 85 86  1  0
 85 84  1  0
 87 90  1  1
 87 88  1  0
 89 87  1  0
M  ISO  4   1 100  14 101  21 100  50 101
M  END
>  <TORSDO>  (31) 
F 15

>  <SCORE>  (31) 
-11.270

>  <name>  (31) 
30

>  <ligand_id>  (31) 
30

>  <original_smiles>  (31) 
[H]c1c([H])c([H])c2c(c1[H])C([H])([H])C([H])([H])C([H])([H])C2([H])N([H])C(=O)C1([H])N(C(=O)C([H])(N([H])C(=O)C([H])(N([H])C([H])([H])[H])C([H])([H])[H])C(C([H])([H])[H])(C([H])([H])[H])C([H])([H])[H])C([H])([H])c2c([H])c(Oc3c([H])c4c(c(C([H])([H])[H])c3C([H])([H])[H])C([H])([H])C([H])([H])C([H])([H])N(C(=O)N3C([H])([H])C([H])([H])C([H])([H])C([H])(n5nc(-c6c([H])c([H])c(Oc7c([H])c([H])c(F)c([H])c7F)c([H])c6[H])c(C(=O)N([H])[H])c5N([H])[H])C3([H])[H])C4([H])[H])c([H])c([H])c2C1([H])[H]

>  <smiles>  (31) 
[H]c1c([H])c([H])c2c(c1[H])C([H])([H])C([H])([H])C([H])([H])C2([H])N([H])C(=O)C1([H])N(C(=O)C([H])(N([H])C(=O)C([H])(N([H])C([H])([H])[H])C([H])([H])[H])C(C([H])([H])[H])(C([H])([H])[H])C([H])([H])[H])C([H])([H])c2c([H])c(Oc3c([H])c4c(c(C([H])([H])[H])c3C([H])([H])[H])C([H])([H])C([H])([H])C([H])([H])N(C(=O)N3C([H])([H])C([H])([H])C([H])([H])C([H])(n5nc(-c6c([H])c([H])c(Oc7c([H])c([H])c(F)c([H])c7F)c([H])c6[H])c(C(=O)N([H])[H])c5N([H])[H])C3([H])[H])C4([H])[H])c([H])c([H])c2C1([H])[H]

$$$$
31:0:0
     RDKit          3D

 91100  0  0  1  0  0  0  0  0999 V2000
  -29.8990  -19.1500   19.8230 C   0  0  0  0  0  3  0  0  0  0  0  0
  -28.3320  -17.4510   19.3700 C   0  0  0  0  0  3  0  0  0  0  0  0
  -29.6970  -17.5420   19.7010 C   0  0  0  0  0  0  0  0  0  0  0  0
  -28.9510  -20.4620   19.5940 C   0  0  0  0  0  0  0  0  0  0  0  0
  -27.6500  -19.9650   19.1800 C   0  0  0  0  0  0  0  0  0  0  0  0
  -27.3860  -18.5190   19.1630 C   0  0  0  0  0  0  0  0  0  0  0  0
  -26.7620  -23.5370   19.6380 C   0  0  0  0  0  3  0  0  0  0  0  0
  -28.0500  -23.8970   19.5920 C   0  0  0  0  0  0  0  0  0  0  0  0
  -29.1250  -22.3510   19.7110 C   0  0  0  0  0  2  0  0  0  0  0  0
  -26.3210  -22.0980   19.8640 C   0  0  0  0  0  2  0  0  0  0  0  0
  -26.5950  -21.0630   18.7150 C   0  0  1  0  0  0  0  0  0  0  0  0
  -25.9900  -17.9380   18.9610 C   0  0  0  0  0  1  0  0  0  0  0  0
  -27.1020  -21.6890   17.3830 C   0  0  0  0  0  1  0  0  0  0  0  0
  -25.1630  -20.6320   18.2930 C   0  0  0  0  0  1  0  0  0  0  0  0
  -30.5820  -15.9720   19.9110 C   0  0  0  0  0  0  0  0  0  0  0  0
  -30.8970  -13.2930   19.6610 C   0  0  0  0  0  2  0  0  0  0  0  0
  -30.1150  -12.5740   18.5170 C   0  0  0  0  0  2  0  0  0  0  0  0
  -28.6820  -12.2250   18.9490 C   0  0  0  0  0  2  0  0  0  0  0  0
  -28.0550  -13.3960   19.7360 C   0  0  0  0  0  3  0  0  0  0  0  0
  -28.9890  -13.9730   20.8250 C   0  0  0  0  0  2  0  0  0  0  0  0
  -30.1660  -14.5660   20.1340 N   0  0  0  0  0  0  0  0  0  0  0  0
  -31.8250  -15.9230   19.7690 O   0  0  0  0  0  0  0  0  0  0  0  0
  -25.7010  -14.0040   20.4590 C   0  0  0  0  0  0  0  0  0  0  0  0
  -24.6150  -13.2670   20.8290 C   0  0  0  0  0  0  0  0  0  0  0  0
  -25.0390  -11.9040   20.8080 C   0  0  0  0  0  0  0  0  0  0  0  0
  -26.7210  -13.0990   20.2400 N   0  0  0  0  0  0  0  0  0  0  0  0
  -26.3360  -11.8260   20.5150 N   0  0  0  0  0  0  0  0  0  0  0  0
  -24.2610  -10.6710   20.9880 C   0  0  0  0  0  0  0  0  0  0  0  0
  -24.6250   -9.6980   21.9460 C   0  0  0  0  0  3  0  0  0  0  0  0
  -23.8450   -8.5330   22.1130 C   0  0  0  0  0  3  0  0  0  0  0  0
  -22.6890   -8.3320   21.3200 C   0  0  0  0  0  0  0  0  0  0  0  0
  -22.3440   -9.2920   20.3510 C   0  0  0  0  0  3  0  0  0  0  0  0
  -23.1250  -10.4490   20.1830 C   0  0  0  0  0  3  0  0  0  0  0  0
  -21.8840   -7.2210   21.3950 O   0  0  0  0  0  0  0  0  0  0  0  0
  -21.7220   -6.5300   22.5690 C   0  0  0  0  0  0  0  0  0  0  0  0
  -21.2010   -7.1440   23.7280 C   0  0  0  0  0  3  0  0  0  0  0  0
  -20.9840   -6.3800   24.8930 C   0  0  0  0  0  3  0  0  0  0  0  0
  -21.2790   -5.0030   24.8980 C   0  0  0  0  0  0  0  0  0  0  0  0
  -21.7950   -4.3900   23.7440 C   0  0  0  0  0  3  0  0  0  0  0  0
  -22.0130   -5.1510   22.5830 C   0  0  0  0  0  0  0  0  0  0  0  0
  -22.4890   -4.5490   21.4650 F   0  0  0  0  0  0  0  0  0  0  0  0
  -21.0650   -4.2690   26.0150 F   0  0  0  0  0  0  0  0  0  0  0  0
  -23.2320  -13.7950   21.0750 C   0  0  0  0  0  0  0  0  0  0  0  0
  -22.4790  -13.1560   21.9600 N   0  0  0  0  0  0  0  0  0  0  0  0
  -22.8340  -14.8200   20.5190 O   0  0  0  0  0  0  0  0  0  0  0  0
  -22.8160  -12.3290   22.4290 H   0  0  0  0  0  0  0  0  0  0  0  0
  -21.5500  -13.4950   22.1680 H   0  0  0  0  0  0  0  0  0  0  0  0
  -25.8960  -15.3610   20.2500 N   0  0  0  0  0  0  0  0  0  0  0  0
  -25.1240  -16.0160   20.3250 H   0  0  0  0  0  0  0  0  0  0  0  0
  -26.7290  -15.7780   19.8550 H   0  0  0  0  0  0  0  0  0  0  0  0
  -28.2460  -25.5240   19.6550 O   0  0  0  0  0  0  0  0  0  0  0  0
  -24.6320  -31.6790   22.9880 C   0  0  0  0  0  0  0  0  0  0  0  0
  -27.2660  -26.7580   19.7490 C   0  0  0  0  0  0  0  0  0  0  0  0
  -23.4910  -30.3660   21.2540 C   0  0  0  0  0  3  0  0  0  0  0  0
  -24.9810  -28.8100   19.7750 C   0  0  0  0  0  0  0  0  0  0  0  0
  -26.0730  -30.5270   21.1880 C   0  0  0  0  0  2  0  0  0  0  0  0
  -26.1670  -29.1280   20.4520 C   0  0  0  0  0  0  0  0  0  0  0  0
  -27.2930  -28.1340   20.4030 C   0  0  0  0  0  3  0  0  0  0  0  0
  -26.0450  -26.6750   19.0290 C   0  0  0  0  0  3  0  0  0  0  0  0
  -24.9640  -27.6110   19.0420 C   0  0  0  0  0  3  0  0  0  0  0  0
  -23.7680  -29.7570   19.8490 C   0  0  0  0  0  2  0  0  0  0  0  0
  -24.7550  -30.8890   21.8660 N   0  0  0  0  0  0  0  0  0  0  0  0
  -23.5240  -31.9380   23.4940 O   0  0  0  0  0  0  0  0  0  0  0  0
  -22.7660  -29.3280   22.1560 C   0  0  0  0  0  0  0  0  0  0  0  0
  -21.4270  -29.2140   22.0490 N   0  0  0  0  0  0  0  0  0  0  0  0
  -23.4210  -28.6220   22.9260 O   0  0  0  0  0  0  0  0  0  0  0  0
  -20.9480  -29.8380   21.4150 H   0  0  0  0  0  0  0  0  0  0  0  0
  -18.0100  -28.1180   22.6410 C   0  0  0  0  0  0  0  0  0  0  0  0
  -20.5930  -28.2330   22.7550 C   0  0  0  0  0  3  0  0  0  0  0  0
  -20.5780  -26.8780   22.0080 C   0  0  0  0  0  2  0  0  0  0  0  0
  -19.4000  -26.7360   21.0410 C   0  0  0  0  0  2  0  0  0  0  0  0
  -18.0700  -26.8600   21.7900 C   0  0  0  0  0  2  0  0  0  0  0  0
  -19.1930  -28.7720   23.0800 C   0  0  0  0  0  0  0  0  0  0  0  0
  -19.0760  -29.9490   23.8470 C   0  0  0  0  0  3  0  0  0  0  0  0
  -17.8110  -30.4790   24.1690 C   0  0  0  0  0  3  0  0  0  0  0  0
  -16.6440  -29.8230   23.7380 C   0  0  0  0  0  3  0  0  0  0  0  0
  -16.7450  -28.6440   22.9800 C   0  0  0  0  0  3  0  0  0  0  0  0
  -25.8700  -32.3080   23.6920 C   0  0  0  0  0  3  0  0  0  0  0  0
  -25.5430  -33.7060   24.0450 N   0  0  0  0  0  0  0  0  0  0  0  0
  -25.8800  -34.7860   23.3260 C   0  0  0  0  0  0  0  0  0  0  0  0
  -26.5560  -34.7120   22.2980 O   0  0  0  0  0  0  0  0  0  0  0  0
  -24.9370  -33.8350   24.8420 H   0  0  0  0  0  0  0  0  0  0  0  0
  -24.1330  -36.5830   23.0600 C   0  0  0  0  0  1  0  0  0  0  0  0
  -25.3990  -36.1660   23.8260 C   0  0  0  0  0  3  0  0  0  0  0  0
  -27.5420  -37.0680   24.6180 C   0  0  0  0  0  1  0  0  0  0  0  0
  -26.4200  -37.2290   23.6970 N   0  0  0  0  0  0  0  0  0  0  0  0
  -26.0110  -38.1450   23.8520 H   0  0  0  0  0  0  0  0  0  0  0  0
  -26.3090  -31.5200   24.9900 C   0  0  1  0  0  0  0  0  0  0  0  0
  -25.1660  -31.3070   26.0110 C   0  0  0  0  0  1  0  0  0  0  0  0
  -26.8760  -30.1290   24.6300 C   0  0  0  0  0  1  0  0  0  0  0  0
  -27.4510  -32.2840   25.7020 C   0  0  0  0  0  1  0  0  0  0  0  0
  2  3  2  0
  3  1  1  0
  3 15  1  0
  4  9  1  0
  4  1  2  0
  5  4  1  0
  6  5  2  0
  6  2  1  0
  7 10  1  0
  8  7  2  0
  8 51  1  0
  8  9  1  0
 11  5  1  0
 11 10  1  0
 12  6  1  0
 11 13  1  6
 14 11  1  0
 15 21  1  0
 16 21  1  0
 17 18  1  0
 17 16  1  0
 19 18  1  0
 19 26  1  0
 19 20  1  0
 21 20  1  0
 22 15  2  0
 23 24  2  0
 24 43  1  0
 25 24  1  0
 25 28  1  0
 26 23  1  0
 26 27  1  0
 27 25  2  0
 28 29  1  0
 29 30  2  0
 31 34  1  0
 31 30  1  0
 32 31  2  0
 33 32  1  0
 33 28  2  0
 34 35  1  0
 35 40  2  0
 35 36  1  0
 36 37  2  0
 37 38  1  0
 38 42  1  0
 39 38  2  0
 40 39  1  0
 41 40  1  0
 43 44  1  0
 44 47  1  0
 44 46  1  0
 45 43  2  0
 48 49  1  0
 48 23  1  0
 50 48  1  0
 51 53  1  0
 52 63  2  0
 53 58  1  0
 54 62  1  0
 54 64  1  0
 55 61  1  0
 55 57  1  0
 56 62  1  0
 57 56  1  0
 58 57  2  0
 59 60  1  0
 59 53  2  0
 60 55  2  0
 61 54  1  0
 62 52  1  0
 64 66  2  0
 65 64  1  0
 67 65  1  0
 68 77  2  0
 68 73  1  0
 69 65  1  0
 69 73  1  0
 70 69  1  0
 71 72  1  0
 71 70  1  0
 72 68  1  0
 73 74  2  0
 74 75  1  0
 76 75  2  0
 77 76  1  0
 78 52  1  0
 78 79  1  0
 78 88  1  0
 79 82  1  0
 80 84  1  0
 80 79  1  0
 81 80  2  0
 84 83  1  0
 86 84  1  0
 86 87  1  0
 86 85  1  0
 88 91  1  1
 88 89  1  0
 90 88  1  0
M  ISO  4   3 100   8 101  15 100  51 101
M  END
>  <TORSDO>  (32) 
F 16

>  <SCORE>  (32) 
-14.001

>  <name>  (32) 
31

>  <ligand_id>  (32) 
31

>  <original_smiles>  (32) 
[H]C1=C(Oc2c([H])c([H])c3c(c2[H])C([H])([H])N(C(=O)C([H])(N([H])C(=O)C([H])(N([H])C([H])([H])[H])C([H])([H])[H])C(C([H])([H])[H])(C([H])([H])[H])C([H])([H])[H])C([H])(C(=O)N([H])C2([H])c4c([H])c([H])c([H])c([H])c4C([H])([H])C([H])([H])C2([H])[H])C3([H])[H])C([H])([H])c2c([H])c(C(=O)N3C([H])([H])C([H])([H])C([H])([H])C([H])(n4nc(-c5c([H])c([H])c(Oc6c([H])c([H])c(F)c([H])c6F)c([H])c5[H])c(C(=O)N([H])[H])c4N([H])[H])C3([H])[H])c([H])c(C([H])([H])[H])c2C(C([H])([H])[H])(C([H])([H])[H])C1([H])[H]

>  <smiles>  (32) 
[H]C1=C(Oc2c([H])c([H])c3c(c2[H])C([H])([H])N(C(=O)C([H])(N([H])C(=O)C([H])(N([H])C([H])([H])[H])C([H])([H])[H])C(C([H])([H])[H])(C([H])([H])[H])C([H])([H])[H])C([H])(C(=O)N([H])C2([H])c4c([H])c([H])c([H])c([H])c4C([H])([H])C([H])([H])C2([H])[H])C3([H])[H])C([H])([H])c2c([H])c(C(=O)N3C([H])([H])C([H])([H])C([H])([H])C([H])(n4nc(-c5c([H])c([H])c(Oc6c([H])c([H])c(F)c([H])c6F)c([H])c5[H])c(C(=O)N([H])[H])c4N([H])[H])C3([H])[H])c([H])c(C([H])([H])[H])c2C(C([H])([H])[H])(C([H])([H])[H])C1([H])[H]

$$$$
32:0:0
     RDKit          3D

 94103  0  0  1  0  0  0  0  0999 V2000
  -28.7850  -23.6810   20.2330 C   0  0  0  0  0  3  0  0  0  0  0  0
  -28.1820  -25.0020   18.2870 C   0  0  0  0  0  3  0  0  0  0  0  0
  -28.8640  -22.4130   19.4570 C   0  0  0  0  0  0  0  0  0  0  0  0
  -28.1670  -23.8200   17.5230 C   0  0  0  0  0  0  0  0  0  0  0  0
  -28.4000  -25.0090   19.6780 C   0  0  0  0  0  0  0  0  0  0  0  0
  -28.4600  -22.5620   18.0970 C   0  0  0  0  0  0  0  0  0  0  0  0
  -27.8170  -23.9190   16.0470 C   0  0  0  0  0  1  0  0  0  0  0  0
  -30.0250  -20.1140   18.9860 C   0  0  0  0  0  3  0  0  0  0  0  0
  -29.3320  -20.9220   19.8570 C   0  0  0  0  0  0  0  0  0  0  0  0
  -30.3490  -18.5590   19.0360 C   0  0  0  0  0  2  0  0  0  0  0  0
  -28.8680  -20.1070   21.0910 C   0  0  0  0  0  2  0  0  0  0  0  0
  -28.8060  -18.5030   20.9520 C   0  0  0  0  0  2  0  0  0  0  0  0
  -30.0310  -17.7150   20.3330 C   0  0  0  0  0  3  0  0  0  0  0  0
  -30.6210  -15.0180   19.9690 C   0  0  0  0  0  0  0  0  0  0  0  0
  -30.4170  -12.7140   18.9500 C   0  0  0  0  0  2  0  0  0  0  0  0
  -29.4110  -12.7440   17.7770 C   0  0  0  0  0  2  0  0  0  0  0  0
  -27.9690  -12.5480   18.2870 C   0  0  0  0  0  2  0  0  0  0  0  0
  -27.6490  -13.4330   19.5200 C   0  0  0  0  0  3  0  0  0  0  0  0
  -28.7670  -13.3700   20.5800 C   0  0  0  0  0  2  0  0  0  0  0  0
  -30.0140  -13.7720   19.9140 N   0  0  0  0  0  0  0  0  0  0  0  0
  -31.8060  -15.1090   19.6340 O   0  0  0  0  0  0  0  0  0  0  0  0
  -29.8250  -16.1600   20.2050 N   0  0  0  0  0  0  0  0  0  0  0  0
  -28.8710  -15.8880   20.3890 H   0  0  0  0  0  0  0  0  0  0  0  0
  -25.3160  -14.0200   20.4010 C   0  0  0  0  0  0  0  0  0  0  0  0
  -24.2660  -13.2470   20.8090 C   0  0  0  0  0  0  0  0  0  0  0  0
  -24.7120  -11.8930   20.7190 C   0  0  0  0  0  0  0  0  0  0  0  0
  -26.3360  -13.1390   20.0820 N   0  0  0  0  0  0  0  0  0  0  0  0
  -25.9840  -11.8520   20.3380 N   0  0  0  0  0  0  0  0  0  0  0  0
  -23.9830  -10.6330   20.9150 C   0  0  0  0  0  0  0  0  0  0  0  0
  -24.4130   -9.6690   21.8530 C   0  0  0  0  0  3  0  0  0  0  0  0
  -23.6840   -8.4740   22.0380 C   0  0  0  0  0  3  0  0  0  0  0  0
  -22.5090   -8.2360   21.2850 C   0  0  0  0  0  0  0  0  0  0  0  0
  -22.0980   -9.1900   20.3360 C   0  0  0  0  0  3  0  0  0  0  0  0
  -22.8280  -10.3750   20.1500 C   0  0  0  0  0  3  0  0  0  0  0  0
  -21.7500   -7.0950   21.3780 O   0  0  0  0  0  0  0  0  0  0  0  0
  -21.6470   -6.3940   22.5530 C   0  0  0  0  0  0  0  0  0  0  0  0
  -21.1580   -6.9910   23.7350 C   0  0  0  0  0  3  0  0  0  0  0  0
  -21.0020   -6.2170   24.9020 C   0  0  0  0  0  3  0  0  0  0  0  0
  -21.3240   -4.8460   24.8870 C   0  0  0  0  0  0  0  0  0  0  0  0
  -21.8060   -4.2490   23.7090 C   0  0  0  0  0  3  0  0  0  0  0  0
  -21.9630   -5.0200   22.5440 C   0  0  0  0  0  0  0  0  0  0  0  0
  -22.4070   -4.4360   21.4060 F   0  0  0  0  0  0  0  0  0  0  0  0
  -21.1670   -4.1000   26.0060 F   0  0  0  0  0  0  0  0  0  0  0  0
  -22.8900  -13.7310   21.1660 C   0  0  0  0  0  0  0  0  0  0  0  0
  -22.2020  -13.0220   22.0530 N   0  0  0  0  0  0  0  0  0  0  0  0
  -22.4360  -14.7720   20.6930 O   0  0  0  0  0  0  0  0  0  0  0  0
  -22.5830  -12.1790   22.4580 H   0  0  0  0  0  0  0  0  0  0  0  0
  -21.2810  -13.3270   22.3340 H   0  0  0  0  0  0  0  0  0  0  0  0
  -25.4830  -15.3940   20.2480 N   0  0  0  0  0  0  0  0  0  0  0  0
  -24.7230  -16.0460   20.4120 H   0  0  0  0  0  0  0  0  0  0  0  0
  -26.2980  -15.8350   19.8420 H   0  0  0  0  0  0  0  0  0  0  0  0
  -28.3170  -21.4720   17.2830 O   0  0  0  0  0  0  0  0  0  0  0  0
  -28.4820  -20.6620   17.7540 H   0  0  0  0  0  0  0  0  0  0  0  0
  -28.3340  -26.3240   20.3170 O   0  0  0  0  0  0  0  0  0  0  0  0
  -24.5930  -31.9350   23.2560 C   0  0  0  0  0  0  0  0  0  0  0  0
  -27.2450  -27.2660   20.2350 C   0  0  0  0  0  0  0  0  0  0  0  0
  -23.4160  -30.5260   21.6130 C   0  0  0  0  0  3  0  0  0  0  0  0
  -24.8870  -28.9700   20.2000 C   0  0  0  0  0  0  0  0  0  0  0  0
  -25.9680  -30.8240   21.4590 C   0  0  0  0  0  2  0  0  0  0  0  0
  -26.0590  -29.4340   20.8080 C   0  0  0  0  0  0  0  0  0  0  0  0
  -27.2370  -28.5990   20.8090 C   0  0  0  0  0  3  0  0  0  0  0  0
  -26.0260  -26.8850   19.6270 C   0  0  0  0  0  3  0  0  0  0  0  0
  -24.8800  -27.7040   19.5980 C   0  0  0  0  0  3  0  0  0  0  0  0
  -23.6500  -29.8510   20.2360 C   0  0  0  0  0  2  0  0  0  0  0  0
  -24.6780  -31.1160   22.1650 N   0  0  0  0  0  0  0  0  0  0  0  0
  -23.5000  -32.2100   23.7770 O   0  0  0  0  0  0  0  0  0  0  0  0
  -22.7430  -29.5120   22.5700 C   0  0  0  0  0  0  0  0  0  0  0  0
  -21.4190  -29.3180   22.4260 N   0  0  0  0  0  0  0  0  0  0  0  0
  -23.4130  -28.9020   23.4070 O   0  0  0  0  0  0  0  0  0  0  0  0
  -20.9350  -29.8620   21.7250 H   0  0  0  0  0  0  0  0  0  0  0  0
  -18.0530  -28.0600   22.8790 C   0  0  0  0  0  0  0  0  0  0  0  0
  -20.6020  -28.3750   23.1920 C   0  0  0  0  0  3  0  0  0  0  0  0
  -20.7410  -26.9370   22.6370 C   0  0  0  0  0  2  0  0  0  0  0  0
  -19.6650  -26.5820   21.6060 C   0  0  0  0  0  2  0  0  0  0  0  0
  -18.2680  -26.7070   22.2210 C   0  0  0  0  0  2  0  0  0  0  0  0
  -19.1490  -28.8490   23.3200 C   0  0  0  0  0  0  0  0  0  0  0  0
  -18.8930  -30.1130   23.8940 C   0  0  0  0  0  3  0  0  0  0  0  0
  -17.5760  -30.5890   24.0320 C   0  0  0  0  0  3  0  0  0  0  0  0
  -16.4950  -29.7980   23.6060 C   0  0  0  0  0  3  0  0  0  0  0  0
  -16.7340  -28.5350   23.0350 C   0  0  0  0  0  3  0  0  0  0  0  0
  -25.8610  -32.5850   23.8900 C   0  0  0  0  0  3  0  0  0  0  0  0
  -25.5390  -33.9860   24.2010 N   0  0  0  0  0  0  0  0  0  0  0  0
  -25.8600  -35.0330   23.4300 C   0  0  0  0  0  0  0  0  0  0  0  0
  -26.5270  -34.9210   22.3980 O   0  0  0  0  0  0  0  0  0  0  0  0
  -24.9450  -34.1440   25.0020 H   0  0  0  0  0  0  0  0  0  0  0  0
  -24.1130  -36.8090   23.0680 C   0  0  0  0  0  1  0  0  0  0  0  0
  -25.3650  -36.4250   23.8730 C   0  0  0  0  0  3  0  0  0  0  0  0
  -27.4980  -37.3440   24.6720 C   0  0  0  0  0  1  0  0  0  0  0  0
  -26.3880  -37.4850   23.7340 N   0  0  0  0  0  0  0  0  0  0  0  0
  -25.9750  -38.4040   23.8680 H   0  0  0  0  0  0  0  0  0  0  0  0
  -26.3570  -31.8330   25.1870 C   0  0  1  0  0  0  0  0  0  0  0  0
  -25.2460  -31.6020   26.2380 C   0  0  0  0  0  1  0  0  0  0  0  0
  -26.9580  -30.4540   24.8280 C   0  0  0  0  0  1  0  0  0  0  0  0
  -27.4900  -32.6440   25.8590 C   0  0  0  0  0  1  0  0  0  0  0  0
  2  5  2  0
  3  9  1  0
  3  1  2  0
  4  6  2  0
  4  2  1  0
  5  1  1  0
  5 54  1  0
  6  3  1  0
  7  4  1  0
  8 10  1  0
  8  9  2  0
  9 11  1  0
 10 13  1  0
 12 11  1  0
 13 22  1  0
 13 12  1  0
 14 22  1  0
 15 20  1  0
 16 17  1  0
 16 15  1  0
 18 17  1  0
 18 27  1  0
 18 19  1  0
 20 14  1  0
 20 19  1  0
 21 14  2  0
 22 23  1  0
 24 25  2  0
 25 44  1  0
 26 25  1  0
 26 29  1  0
 27 28  1  0
 27 24  1  0
 28 26  2  0
 29 30  1  0
 30 31  2  0
 32 35  1  0
 32 31  1  0
 33 32  2  0
 34 33  1  0
 34 29  2  0
 35 36  1  0
 36 37  1  0
 37 38  2  0
 39 38  1  0
 39 43  1  0
 40 39  2  0
 41 36  2  0
 41 40  1  0
 42 41  1  0
 44 45  1  0
 45 48  1  0
 45 47  1  0
 46 44  2  0
 49 24  1  0
 49 50  1  0
 51 49  1  0
 52 53  1  0
 52  6  1  0
 55 66  2  0
 56 54  1  0
 56 61  1  0
 57 65  1  0
 57 67  1  0
 58 64  1  0
 58 60  1  0
 59 65  1  0
 60 61  2  0
 60 59  1  0
 62 56  2  0
 63 62  1  0
 63 58  2  0
 64 57  1  0
 65 55  1  0
 67 69  2  0
 68 67  1  0
 70 68  1  0
 71 80  2  0
 71 76  1  0
 72 68  1  0
 72 76  1  0
 73 72  1  0
 74 75  1  0
 74 73  1  0
 75 71  1  0
 76 77  2  0
 77 78  1  0
 79 78  2  0
 80 79  1  0
 81 55  1  0
 81 82  1  0
 81 91  1  0
 82 85  1  0
 83 87  1  0
 83 82  1  0
 84 83  2  0
 87 86  1  0
 89 90  1  0
 89 87  1  0
 89 88  1  0
 91 94  1  1
 91 92  1  0
 93 91  1  0
M  ISO  4   5 101  14 100  22 100  54 101
M  END
>  <TORSDO>  (33) 
F 18

>  <SCORE>  (33) 
-13.689

>  <name>  (33) 
32

>  <ligand_id>  (33) 
32

>  <original_smiles>  (33) 
[H]Oc1c(C2=C([H])C([H])([H])C([H])(N([H])C(=O)N3C([H])([H])C([H])([H])C([H])([H])C([H])(n4nc(-c5c([H])c([H])c(Oc6c([H])c([H])c(F)c([H])c6F)c([H])c5[H])c(C(=O)N([H])[H])c4N([H])[H])C3([H])[H])C([H])([H])C2([H])[H])c([H])c(Oc2c([H])c([H])c3c(c2[H])C([H])([H])N(C(=O)C([H])(N([H])C(=O)C([H])(N([H])C([H])([H])[H])C([H])([H])[H])C(C([H])([H])[H])(C([H])([H])[H])C([H])([H])[H])C([H])(C(=O)N([H])C2([H])c4c([H])c([H])c([H])c([H])c4C([H])([H])C([H])([H])C2([H])[H])C3([H])[H])c([H])c1C([H])([H])[H]

>  <smiles>  (33) 
[H]Oc1c(C2=C([H])C([H])([H])C([H])(N([H])C(=O)N3C([H])([H])C([H])([H])C([H])([H])C([H])(n4nc(-c5c([H])c([H])c(Oc6c([H])c([H])c(F)c([H])c6F)c([H])c5[H])c(C(=O)N([H])[H])c4N([H])[H])C3([H])[H])C([H])([H])C2([H])[H])c([H])c(Oc2c([H])c([H])c3c(c2[H])C([H])([H])N(C(=O)C([H])(N([H])C(=O)C([H])(N([H])C([H])([H])[H])C([H])([H])[H])C(C([H])([H])[H])(C([H])([H])[H])C([H])([H])[H])C([H])(C(=O)N([H])C2([H])c4c([H])c([H])c([H])c([H])c4C([H])([H])C([H])([H])C2([H])[H])C3([H])[H])c([H])c1C([H])([H])[H]

$$$$
33:0:0
     RDKit          3D

 91100  0  0  1  0  0  0  0  0999 V2000
  -26.6880  -23.0850   21.6530 C   0  0  0  0  0  3  0  0  0  0  0  0
  -27.4980  -21.9870   21.2840 C   0  0  0  0  0  3  0  0  0  0  0  0
  -26.9680  -24.4180   21.2710 C   0  0  0  0  0  3  0  0  0  0  0  0
  -28.6630  -22.1360   20.5060 C   0  0  0  0  0  0  0  0  0  0  0  0
  -28.9240  -23.5720   20.1160 C   0  0  0  0  0  0  0  0  0  0  0  0
  -28.0780  -24.7730   20.4730 C   0  0  0  0  0  0  0  0  0  0  0  0
  -30.1710  -23.8360   19.2980 C   0  0  0  0  0  1  0  0  0  0  0  0
  -30.6160  -20.3410   21.2530 C   0  0  0  0  0  2  0  0  0  0  0  0
  -31.0030  -18.7940   21.2000 C   0  0  0  0  0  2  0  0  0  0  0  0
  -28.9410  -19.1740   20.0980 C   0  0  0  0  0  2  0  0  0  0  0  0
  -29.5280  -20.7230   20.2080 C   0  0  0  0  0  3  0  0  0  0  0  0
  -30.1150  -18.0060   20.1970 C   0  0  0  0  0  3  0  0  0  0  0  0
  -30.6840  -15.2390   20.2930 C   0  0  0  0  0  0  0  0  0  0  0  0
  -30.6170  -12.8580   19.3780 C   0  0  0  0  0  2  0  0  0  0  0  0
  -29.6790  -12.7640   18.1500 C   0  0  0  0  0  2  0  0  0  0  0  0
  -28.2260  -12.5160   18.5940 C   0  0  0  0  0  2  0  0  0  0  0  0
  -27.8020  -13.4420   19.7650 C   0  0  0  0  0  3  0  0  0  0  0  0
  -28.8650  -13.5040   20.8840 C   0  0  0  0  0  2  0  0  0  0  0  0
  -30.1160  -13.9570   20.2620 N   0  0  0  0  0  0  0  0  0  0  0  0
  -31.8800  -15.3060   19.9840 O   0  0  0  0  0  0  0  0  0  0  0  0
  -29.8950  -16.4320   20.4640 N   0  0  0  0  0  0  0  0  0  0  0  0
  -28.9410  -16.2100   20.7070 H   0  0  0  0  0  0  0  0  0  0  0  0
  -25.4280  -13.9760   20.5490 C   0  0  0  0  0  0  0  0  0  0  0  0
  -24.3780  -13.1830   20.9150 C   0  0  0  0  0  0  0  0  0  0  0  0
  -24.8550  -11.8380   20.8520 C   0  0  0  0  0  0  0  0  0  0  0  0
  -26.4770  -13.1140   20.2760 N   0  0  0  0  0  0  0  0  0  0  0  0
  -26.1430  -11.8220   20.5250 N   0  0  0  0  0  0  0  0  0  0  0  0
  -24.1430  -10.5650   21.0240 C   0  0  0  0  0  0  0  0  0  0  0  0
  -24.5530   -9.6110   21.9810 C   0  0  0  0  0  3  0  0  0  0  0  0
  -23.8390   -8.4050   22.1440 C   0  0  0  0  0  3  0  0  0  0  0  0
  -22.6980   -8.1430   21.3470 C   0  0  0  0  0  0  0  0  0  0  0  0
  -22.3070   -9.0860   20.3800 C   0  0  0  0  0  3  0  0  0  0  0  0
  -23.0230  -10.2840   20.2170 C   0  0  0  0  0  3  0  0  0  0  0  0
  -21.9570   -6.9880   21.4160 O   0  0  0  0  0  0  0  0  0  0  0  0
  -21.8250   -6.2880   22.5880 C   0  0  0  0  0  0  0  0  0  0  0  0
  -21.2550   -6.8670   23.7420 C   0  0  0  0  0  3  0  0  0  0  0  0
  -21.0720   -6.0910   24.9040 C   0  0  0  0  0  3  0  0  0  0  0  0
  -21.4500   -4.7340   24.9110 C   0  0  0  0  0  0  0  0  0  0  0  0
  -22.0130   -4.1530   23.7620 C   0  0  0  0  0  3  0  0  0  0  0  0
  -22.1960   -4.9270   22.6020 C   0  0  0  0  0  0  0  0  0  0  0  0
  -22.7190   -4.3580   21.4900 F   0  0  0  0  0  0  0  0  0  0  0  0
  -21.2680   -3.9860   26.0250 F   0  0  0  0  0  0  0  0  0  0  0  0
  -22.9800  -13.6420   21.2100 C   0  0  0  0  0  0  0  0  0  0  0  0
  -22.2650  -12.9220   22.0660 N   0  0  0  0  0  0  0  0  0  0  0  0
  -22.5290  -14.6740   20.7140 O   0  0  0  0  0  0  0  0  0  0  0  0
  -22.6410  -12.0890   22.4910 H   0  0  0  0  0  0  0  0  0  0  0  0
  -21.3260  -13.2120   22.3040 H   0  0  0  0  0  0  0  0  0  0  0  0
  -25.5740  -15.3520   20.3970 N   0  0  0  0  0  0  0  0  0  0  0  0
  -24.7970  -15.9900   20.5330 H   0  0  0  0  0  0  0  0  0  0  0  0
  -26.3980  -15.8080   20.0310 H   0  0  0  0  0  0  0  0  0  0  0  0
  -28.2660  -26.2240   20.1790 O   0  0  0  0  0  0  0  0  0  0  0  0
  -24.6270  -31.9460   23.2460 C   0  0  0  0  0  0  0  0  0  0  0  0
  -27.2210  -27.2410   20.1690 C   0  0  0  0  0  0  0  0  0  0  0  0
  -23.4330  -30.5580   21.5960 C   0  0  0  0  0  3  0  0  0  0  0  0
  -24.8890  -29.0010   20.1520 C   0  0  0  0  0  0  0  0  0  0  0  0
  -25.9870  -30.8300   21.4330 C   0  0  0  0  0  2  0  0  0  0  0  0
  -26.0680  -29.4390   20.7710 C   0  0  0  0  0  0  0  0  0  0  0  0
  -27.2330  -28.5730   20.7680 C   0  0  0  0  0  3  0  0  0  0  0  0
  -26.0230  -26.9270   19.4930 C   0  0  0  0  0  3  0  0  0  0  0  0
  -24.8820  -27.7610   19.4960 C   0  0  0  0  0  3  0  0  0  0  0  0
  -23.6570  -29.8950   20.2110 C   0  0  0  0  0  2  0  0  0  0  0  0
  -24.7030  -31.1340   22.1450 N   0  0  0  0  0  0  0  0  0  0  0  0
  -23.5390  -32.2180   23.7790 O   0  0  0  0  0  0  0  0  0  0  0  0
  -22.7630  -29.5380   22.5510 C   0  0  0  0  0  0  0  0  0  0  0  0
  -21.4380  -29.3480   22.4180 N   0  0  0  0  0  0  0  0  0  0  0  0
  -23.4390  -28.9210   23.3790 O   0  0  0  0  0  0  0  0  0  0  0  0
  -20.9470  -29.8990   21.7280 H   0  0  0  0  0  0  0  0  0  0  0  0
  -18.0730  -28.0900   22.9000 C   0  0  0  0  0  0  0  0  0  0  0  0
  -20.6270  -28.3940   23.1800 C   0  0  0  0  0  3  0  0  0  0  0  0
  -20.7540  -26.9650   22.6020 C   0  0  0  0  0  2  0  0  0  0  0  0
  -19.6620  -26.6290   21.5810 C   0  0  0  0  0  2  0  0  0  0  0  0
  -18.2740  -26.7480   22.2190 C   0  0  0  0  0  2  0  0  0  0  0  0
  -19.1770  -28.8700   23.3380 C   0  0  0  0  0  0  0  0  0  0  0  0
  -18.9320  -30.1240   23.9390 C   0  0  0  0  0  3  0  0  0  0  0  0
  -17.6180  -30.6000   24.1040 C   0  0  0  0  0  3  0  0  0  0  0  0
  -16.5290  -29.8190   23.6810 C   0  0  0  0  0  3  0  0  0  0  0  0
  -16.7570  -28.5650   23.0840 C   0  0  0  0  0  3  0  0  0  0  0  0
  -25.9010  -32.5860   23.8760 C   0  0  0  0  0  3  0  0  0  0  0  0
  -25.5870  -33.9880   24.1990 N   0  0  0  0  0  0  0  0  0  0  0  0
  -25.9140  -35.0410   23.4390 C   0  0  0  0  0  0  0  0  0  0  0  0
  -26.5780  -34.9360   22.4050 O   0  0  0  0  0  0  0  0  0  0  0  0
  -24.9950  -34.1420   25.0030 H   0  0  0  0  0  0  0  0  0  0  0  0
  -24.1830  -36.8370   23.0960 C   0  0  0  0  0  1  0  0  0  0  0  0
  -25.4300  -36.4320   23.8980 C   0  0  0  0  0  3  0  0  0  0  0  0
  -27.5680  -37.3260   24.7160 C   0  0  0  0  0  1  0  0  0  0  0  0
  -26.4620  -37.4850   23.7740 N   0  0  0  0  0  0  0  0  0  0  0  0
  -26.0550  -38.4060   23.9160 H   0  0  0  0  0  0  0  0  0  0  0  0
  -26.4050  -31.8250   25.1640 C   0  0  1  0  0  0  0  0  0  0  0  0
  -25.3010  -31.6020   26.2250 C   0  0  0  0  0  1  0  0  0  0  0  0
  -26.9870  -30.4420   24.7950 C   0  0  0  0  0  1  0  0  0  0  0  0
  -27.5520  -32.6230   25.8280 C   0  0  0  0  0  1  0  0  0  0  0  0
  2  1  1  0
  3  1  2  0
  4  2  2  0
  5  6  2  0
  5  4  1  0
  6  3  1  0
  7  5  1  0
  9  8  1  0
 10 12  1  0
 10 11  1  0
 11  4  1  0
 11  8  1  0
 12 21  1  0
 12  9  1  0
 13 21  1  0
 14 19  1  0
 15 16  1  0
 15 14  1  0
 17 16  1  0
 17 26  1  0
 17 18  1  0
 19 13  1  0
 19 18  1  0
 20 13  2  0
 21 22  1  0
 23 24  2  0
 24 43  1  0
 25 24  1  0
 25 28  1  0
 26 27  1  0
 26 23  1  0
 27 25  2  0
 28 29  1  0
 29 30  2  0
 31 34  1  0
 31 30  1  0
 32 31  2  0
 33 32  1  0
 33 28  2  0
 34 35  1  0
 35 40  2  0
 35 36  1  0
 36 37  2  0
 37 38  1  0
 38 42  1  0
 39 38  2  0
 40 39  1  0
 41 40  1  0
 43 44  1  0
 44 47  1  0
 44 46  1  0
 45 43  2  0
 48 49  1  0
 48 23  1  0
 50 48  1  0
 51  6  1  0
 52 63  2  0
 53 51  1  0
 53 58  1  0
 54 62  1  0
 54 64  1  0
 55 61  1  0
 55 57  1  0
 56 62  1  0
 57 56  1  0
 58 57  2  0
 59 60  1  0
 59 53  2  0
 60 55  2  0
 61 54  1  0
 62 52  1  0
 64 66  2  0
 65 64  1  0
 67 65  1  0
 68 77  2  0
 68 73  1  0
 69 65  1  0
 69 73  1  0
 70 69  1  0
 71 72  1  0
 71 70  1  0
 72 68  1  0
 73 74  2  0
 74 75  1  0
 76 75  2  0
 77 76  1  0
 78 52  1  0
 78 79  1  0
 78 88  1  0
 79 82  1  0
 80 84  1  0
 80 79  1  0
 81 80  2  0
 84 83  1  0
 86 84  1  0
 86 87  1  0
 86 85  1  0
 88 91  1  1
 88 89  1  0
 90 88  1  0
M  ISO  4   6 101  13 100  21 100  51 101
M  END
>  <TORSDO>  (34) 
F 17

>  <SCORE>  (34) 
-15.016

>  <name>  (34) 
33

>  <ligand_id>  (34) 
33

>  <original_smiles>  (34) 
[H]c1c([H])c([H])c2c(c1[H])C([H])([H])C([H])([H])C([H])([H])C2([H])N([H])C(=O)C1([H])N(C(=O)C([H])(N([H])C(=O)C([H])(N([H])C([H])([H])[H])C([H])([H])[H])C(C([H])([H])[H])(C([H])([H])[H])C([H])([H])[H])C([H])([H])c2c([H])c(Oc3c([H])c([H])c([H])c(C4([H])C([H])([H])C([H])([H])C([H])(N([H])C(=O)N5C([H])([H])C([H])([H])C([H])([H])C([H])(n6nc(-c7c([H])c([H])c(Oc8c([H])c([H])c(F)c([H])c8F)c([H])c7[H])c(C(=O)N([H])[H])c6N([H])[H])C5([H])[H])C4([H])[H])c3C([H])([H])[H])c([H])c([H])c2C1([H])[H]

>  <smiles>  (34) 
[H]c1c([H])c([H])c2c(c1[H])C([H])([H])C([H])([H])C([H])([H])C2([H])N([H])C(=O)C1([H])N(C(=O)C([H])(N([H])C(=O)C([H])(N([H])C([H])([H])[H])C([H])([H])[H])C(C([H])([H])[H])(C([H])([H])[H])C([H])([H])[H])C([H])([H])c2c([H])c(Oc3c([H])c([H])c([H])c(C4([H])C([H])([H])C([H])([H])C([H])(N([H])C(=O)N5C([H])([H])C([H])([H])C([H])([H])C([H])(n6nc(-c7c([H])c([H])c(Oc8c([H])c([H])c(F)c([H])c8F)c([H])c7[H])c(C(=O)N([H])[H])c6N([H])[H])C5([H])[H])C4([H])[H])c3C([H])([H])[H])c([H])c([H])c2C1([H])[H]

$$$$
34:0:0
     RDKit          3D

 92101  0  0  1  0  0  0  0  0999 V2000
  -28.0600  -23.0360   21.4150 C   0  0  0  0  0  3  0  0  0  0  0  0
  -28.2210  -23.9130   19.1640 C   0  0  0  0  0  3  0  0  0  0  0  0
  -27.5680  -25.4010   20.9880 C   0  0  0  0  0  3  0  0  0  0  0  0
  -28.3590  -22.7400   20.0650 C   0  0  0  0  0  0  0  0  0  0  0  0
  -27.6900  -24.3150   21.8750 C   0  0  0  0  0  0  0  0  0  0  0  0
  -27.8120  -25.2780   19.6050 C   0  0  0  0  0  0  0  0  0  0  0  0
  -27.4200  -24.5190   23.3530 C   0  0  0  0  0  1  0  0  0  0  0  0
  -29.8390  -20.4880   20.7270 C   0  0  0  0  0  2  0  0  0  0  0  0
  -28.8810  -20.3650   18.5000 C   0  0  0  0  0  2  0  0  0  0  0  0
  -29.8710  -18.8950   20.8640 C   0  0  0  0  0  2  0  0  0  0  0  0
  -28.9220  -18.7440   18.6010 C   0  0  0  0  0  2  0  0  0  0  0  0
  -28.6820  -21.1320   19.8590 C   0  0  0  0  0  3  0  0  0  0  0  0
  -29.9850  -18.0250   19.5540 C   0  0  0  0  0  3  0  0  0  0  0  0
  -30.7120  -15.3720   19.7180 C   0  0  0  0  0  0  0  0  0  0  0  0
  -30.7230  -12.9230   19.0990 C   0  0  0  0  0  2  0  0  0  0  0  0
  -29.7610  -12.6630   17.9170 C   0  0  0  0  0  2  0  0  0  0  0  0
  -28.3280  -12.4280   18.4280 C   0  0  0  0  0  2  0  0  0  0  0  0
  -27.8890  -13.4850   19.4750 C   0  0  0  0  0  3  0  0  0  0  0  0
  -28.9690  -13.7030   20.5570 C   0  0  0  0  0  2  0  0  0  0  0  0
  -30.2040  -14.0890   19.8630 N   0  0  0  0  0  0  0  0  0  0  0  0
  -31.8850  -15.5010   19.3530 O   0  0  0  0  0  0  0  0  0  0  0  0
  -29.8420  -16.4790   19.7930 N   0  0  0  0  0  0  0  0  0  0  0  0
  -28.9120  -16.2020   20.0660 H   0  0  0  0  0  0  0  0  0  0  0  0
  -25.5660  -14.0430   20.4010 C   0  0  0  0  0  0  0  0  0  0  0  0
  -24.5270  -13.2550   20.8190 C   0  0  0  0  0  0  0  0  0  0  0  0
  -24.9830  -11.9060   20.6990 C   0  0  0  0  0  0  0  0  0  0  0  0
  -26.5850  -13.1740   20.0530 N   0  0  0  0  0  0  0  0  0  0  0  0
  -26.2490  -11.8800   20.2960 N   0  0  0  0  0  0  0  0  0  0  0  0
  -24.2660  -10.6370   20.8870 C   0  0  0  0  0  0  0  0  0  0  0  0
  -24.6530   -9.7090   21.8790 C   0  0  0  0  0  3  0  0  0  0  0  0
  -23.9350   -8.5070   22.0530 C   0  0  0  0  0  3  0  0  0  0  0  0
  -22.8150   -8.2230   21.2350 C   0  0  0  0  0  0  0  0  0  0  0  0
  -22.4500   -9.1410   20.2340 C   0  0  0  0  0  3  0  0  0  0  0  0
  -23.1680  -10.3340   20.0580 C   0  0  0  0  0  3  0  0  0  0  0  0
  -22.0740   -7.0690   21.3150 O   0  0  0  0  0  0  0  0  0  0  0  0
  -21.8060   -6.4690   22.5190 C   0  0  0  0  0  0  0  0  0  0  0  0
  -21.0550   -7.1170   23.5250 C   0  0  0  0  0  3  0  0  0  0  0  0
  -20.7430   -6.4370   24.7190 C   0  0  0  0  0  3  0  0  0  0  0  0
  -21.1710   -5.1100   24.9080 C   0  0  0  0  0  0  0  0  0  0  0  0
  -21.9160   -4.4610   23.9060 C   0  0  0  0  0  3  0  0  0  0  0  0
  -22.2290   -5.1390   22.7150 C   0  0  0  0  0  0  0  0  0  0  0  0
  -22.9270   -4.5010   21.7440 F   0  0  0  0  0  0  0  0  0  0  0  0
  -20.8660   -4.4540   26.0520 F   0  0  0  0  0  0  0  0  0  0  0  0
  -23.1550  -13.7220   21.2070 C   0  0  0  0  0  0  0  0  0  0  0  0
  -22.5000  -13.0110   22.1170 N   0  0  0  0  0  0  0  0  0  0  0  0
  -22.6750  -14.7540   20.7370 O   0  0  0  0  0  0  0  0  0  0  0  0
  -22.9030  -12.1770   22.5190 H   0  0  0  0  0  0  0  0  0  0  0  0
  -21.5830  -13.3050   22.4190 H   0  0  0  0  0  0  0  0  0  0  0  0
  -25.7180  -15.4200   20.2610 N   0  0  0  0  0  0  0  0  0  0  0  0
  -24.9490  -16.0580   20.4280 H   0  0  0  0  0  0  0  0  0  0  0  0
  -26.5140  -15.8650   19.8220 H   0  0  0  0  0  0  0  0  0  0  0  0
  -27.7050  -26.5200   18.8470 O   0  0  0  0  0  0  0  0  0  0  0  0
  -24.5980  -31.6870   23.0550 C   0  0  0  0  0  0  0  0  0  0  0  0
  -26.6910  -27.5010   19.0940 C   0  0  0  0  0  0  0  0  0  0  0  0
  -23.1900  -30.5980   21.3470 C   0  0  0  0  0  3  0  0  0  0  0  0
  -24.4340  -29.2490   19.5530 C   0  0  0  0  0  0  0  0  0  0  0  0
  -25.7180  -30.8510   20.9620 C   0  0  0  0  0  2  0  0  0  0  0  0
  -25.6780  -29.5780   20.1050 C   0  0  0  0  0  0  0  0  0  0  0  0
  -26.8110  -28.7190   19.8670 C   0  0  0  0  0  3  0  0  0  0  0  0
  -25.4260  -27.2670   18.5190 C   0  0  0  0  0  3  0  0  0  0  0  0
  -24.3160  -28.1090   18.7450 C   0  0  0  0  0  3  0  0  0  0  0  0
  -23.2480  -30.1480   19.8620 C   0  0  0  0  0  2  0  0  0  0  0  0
  -24.5270  -31.0570   21.8440 N   0  0  0  0  0  0  0  0  0  0  0  0
  -23.5800  -31.9030   23.7310 O   0  0  0  0  0  0  0  0  0  0  0  0
  -22.5750  -29.4600   22.2000 C   0  0  0  0  0  0  0  0  0  0  0  0
  -21.2440  -29.2840   22.1170 N   0  0  0  0  0  0  0  0  0  0  0  0
  -23.2950  -28.7460   22.9010 O   0  0  0  0  0  0  0  0  0  0  0  0
  -20.7180  -29.9190   21.5320 H   0  0  0  0  0  0  0  0  0  0  0  0
  -17.9060  -27.9750   22.6220 C   0  0  0  0  0  0  0  0  0  0  0  0
  -20.4720  -28.2440   22.8010 C   0  0  0  0  0  3  0  0  0  0  0  0
  -20.5610  -26.8990   22.0430 C   0  0  0  0  0  2  0  0  0  0  0  0
  -19.4130  -26.6910   21.0490 C   0  0  0  0  0  2  0  0  0  0  0  0
  -18.0650  -26.7280   21.7700 C   0  0  0  0  0  2  0  0  0  0  0  0
  -19.0360  -28.6970   23.0930 C   0  0  0  0  0  0  0  0  0  0  0  0
  -18.8300  -29.8690   23.8530 C   0  0  0  0  0  3  0  0  0  0  0  0
  -17.5280  -30.3170   24.1450 C   0  0  0  0  0  3  0  0  0  0  0  0
  -16.4140  -29.5940   23.6850 C   0  0  0  0  0  3  0  0  0  0  0  0
  -16.6050  -28.4220   22.9310 C   0  0  0  0  0  3  0  0  0  0  0  0
  -25.9550  -32.1820   23.6410 C   0  0  0  0  0  3  0  0  0  0  0  0
  -25.7570  -33.5530   24.1330 N   0  0  0  0  0  0  0  0  0  0  0  0
  -26.0820  -34.6620   23.4550 C   0  0  0  0  0  0  0  0  0  0  0  0
  -26.6510  -34.6310   22.3600 O   0  0  0  0  0  0  0  0  0  0  0  0
  -25.2440  -33.6540   24.9970 H   0  0  0  0  0  0  0  0  0  0  0  0
  -24.4270  -36.5560   23.4600 C   0  0  0  0  0  1  0  0  0  0  0  0
  -25.7220  -36.0200   24.0900 C   0  0  0  0  0  3  0  0  0  0  0  0
  -27.9670  -36.7340   24.7840 C   0  0  0  0  0  1  0  0  0  0  0  0
  -26.7940  -37.0320   23.9670 N   0  0  0  0  0  0  0  0  0  0  0  0
  -26.4510  -37.9520   24.2290 H   0  0  0  0  0  0  0  0  0  0  0  0
  -26.5100  -31.2570   24.7930 C   0  0  1  0  0  0  0  0  0  0  0  0
  -25.4820  -30.9710   25.9130 C   0  0  0  0  0  1  0  0  0  0  0  0
  -26.9780  -29.8970   24.2260 C   0  0  0  0  0  1  0  0  0  0  0  0
  -27.7520  -31.9160   25.4400 C   0  0  0  0  0  1  0  0  0  0  0  0
  1  5  1  0
  2  6  2  0
  2  4  1  0
  3  5  2  0
  4  1  2  0
  5  7  1  0
  6  3  1  0
  8 10  1  0
  9 11  1  0
  9 12  1  0
 11 13  1  0
 12  4  1  0
 12  8  1  0
 13 22  1  0
 13 10  1  0
 14 22  1  0
 14 20  1  0
 15 20  1  0
 16 17  1  0
 16 15  1  0
 18 17  1  0
 18 27  1  0
 18 19  1  0
 20 19  1  0
 21 14  2  0
 22 23  1  0
 24 25  2  0
 25 44  1  0
 26 25  1  0
 26 29  1  0
 27 28  1  0
 27 24  1  0
 28 26  2  0
 29 30  1  0
 30 31  2  0
 32 35  1  0
 32 31  1  0
 33 32  2  0
 34 33  1  0
 34 29  2  0
 35 36  1  0
 36 41  2  0
 36 37  1  0
 37 38  2  0
 38 39  1  0
 39 43  1  0
 40 39  2  0
 41 40  1  0
 42 41  1  0
 44 45  1  0
 45 48  1  0
 45 47  1  0
 46 44  2  0
 49 24  1  0
 49 50  1  0
 51 49  1  0
 52 54  1  0
 52  6  1  0
 53 64  2  0
 54 59  1  0
 55 63  1  0
 55 65  1  0
 56 62  1  0
 56 58  1  0
 57 63  1  0
 58 57  1  0
 59 58  2  0
 60 61  1  0
 60 54  2  0
 61 56  2  0
 62 55  1  0
 63 53  1  0
 65 67  2  0
 66 65  1  0
 68 66  1  0
 69 78  2  0
 69 74  1  0
 70 66  1  0
 70 74  1  0
 71 70  1  0
 72 73  1  0
 72 71  1  0
 73 69  1  0
 74 75  2  0
 75 76  1  0
 77 76  2  0
 78 77  1  0
 79 53  1  0
 79 80  1  0
 79 89  1  0
 80 83  1  0
 81 85  1  0
 81 80  1  0
 82 81  2  0
 85 84  1  0
 87 85  1  0
 87 88  1  0
 87 86  1  0
 89 92  1  1
 89 90  1  0
 91 89  1  0
M  ISO  4   6 101  14 100  22 100  52 101
M  END
>  <TORSDO>  (35) 
F 17

>  <SCORE>  (35) 
-12.566

>  <name>  (35) 
34

>  <ligand_id>  (35) 
34

>  <original_smiles>  (35) 
[H]c1c([H])c([H])c2c(c1[H])C([H])([H])C([H])([H])C([H])([H])C2([H])N([H])C(=O)C1([H])N(C(=O)C([H])(N([H])C(=O)C([H])(N([H])C([H])([H])[H])C([H])([H])[H])C(C([H])([H])[H])(C([H])([H])[H])C([H])([H])[H])C([H])([H])c2c([H])c(Oc3c([H])c(C([H])([H])[H])c([H])c(C4([H])C([H])([H])C([H])([H])C([H])(N([H])C(=O)N5C([H])([H])C([H])([H])C([H])([H])C([H])(n6nc(-c7c([H])c([H])c(Oc8c([H])c([H])c(F)c([H])c8F)c([H])c7[H])c(C(=O)N([H])[H])c6N([H])[H])C5([H])[H])C([H])([H])C4([H])[H])c3[H])c([H])c([H])c2C1([H])[H]

>  <smiles>  (35) 
[H]c1c([H])c([H])c2c(c1[H])C([H])([H])C([H])([H])C([H])([H])C2([H])N([H])C(=O)C1([H])N(C(=O)C([H])(N([H])C(=O)C([H])(N([H])C([H])([H])[H])C([H])([H])[H])C(C([H])([H])[H])(C([H])([H])[H])C([H])([H])[H])C([H])([H])c2c([H])c(Oc3c([H])c(C([H])([H])[H])c([H])c(C4([H])C([H])([H])C([H])([H])C([H])(N([H])C(=O)N5C([H])([H])C([H])([H])C([H])([H])C([H])(n6nc(-c7c([H])c([H])c(Oc8c([H])c([H])c(F)c([H])c8F)c([H])c7[H])c(C(=O)N([H])[H])c6N([H])[H])C5([H])[H])C([H])([H])C4([H])[H])c3[H])c([H])c([H])c2C1([H])[H]

$$$$
35:0:0
     RDKit          3D

 87 96  0  0  1  0  0  0  0  0999 V2000
  -28.3830  -19.9810   19.8660 C   0  0  0  0  0  0  0  0  0  0  0  0
  -28.5290  -18.4020   19.7190 C   0  0  0  0  0  0  0  0  0  0  0  0
  -29.6150  -17.5700   20.2780 C   0  0  0  0  0  0  0  0  0  0  0  0
  -29.3490  -20.6540   20.5550 C   0  0  0  0  0  0  0  0  0  0  0  0
  -27.2960  -21.0640   19.4140 C   0  0  0  0  0  3  0  0  0  0  0  0
  -29.3560  -22.4120   20.8030 C   0  0  0  0  0  3  0  0  0  0  0  0
  -27.5570  -22.7210   19.2410 C   0  0  0  0  0  3  0  0  0  0  0  0
  -28.1440  -23.7090   20.3970 C   0  0  0  0  0  0  0  0  0  0  0  0
  -27.4740  -17.7290   18.8980 C   0  0  0  0  0  1  0  0  0  0  0  0
  -30.4780  -19.1420   20.9810 S   0  0  0  0  0  0  0  0  0  0  0  0
  -30.2870  -15.8330   20.2560 C   0  0  0  0  0  0  0  0  0  0  0  0
  -30.4210  -13.2540   19.4810 C   0  0  0  0  0  2  0  0  0  0  0  0
  -29.5590  -12.7920   18.2680 C   0  0  0  0  0  2  0  0  0  0  0  0
  -28.1450  -12.4000   18.7150 C   0  0  0  0  0  2  0  0  0  0  0  0
  -27.5930  -13.4150   19.7390 C   0  0  0  0  0  3  0  0  0  0  0  0
  -28.5970  -13.8060   20.8500 C   0  0  0  0  0  2  0  0  0  0  0  0
  -29.7690  -14.4500   20.2020 N   0  0  0  0  0  0  0  0  0  0  0  0
  -31.5240  -15.6990   20.1470 O   0  0  0  0  0  0  0  0  0  0  0  0
  -25.2270  -13.9060   20.5040 C   0  0  0  0  0  0  0  0  0  0  0  0
  -24.1750  -13.1130   20.8580 C   0  0  0  0  0  0  0  0  0  0  0  0
  -24.6640  -11.7700   20.8280 C   0  0  0  0  0  0  0  0  0  0  0  0
  -26.2830  -13.0510   20.2600 N   0  0  0  0  0  0  0  0  0  0  0  0
  -25.9600  -11.7580   20.5240 N   0  0  0  0  0  0  0  0  0  0  0  0
  -23.9500  -10.4980   21.0080 C   0  0  0  0  0  0  0  0  0  0  0  0
  -24.3600   -9.5470   21.9690 C   0  0  0  0  0  3  0  0  0  0  0  0
  -23.6410   -8.3450   22.1390 C   0  0  0  0  0  3  0  0  0  0  0  0
  -22.4970   -8.0830   21.3490 C   0  0  0  0  0  0  0  0  0  0  0  0
  -22.1060   -9.0230   20.3780 C   0  0  0  0  0  3  0  0  0  0  0  0
  -22.8250  -10.2160   20.2060 C   0  0  0  0  0  3  0  0  0  0  0  0
  -21.7520   -6.9310   21.4270 O   0  0  0  0  0  0  0  0  0  0  0  0
  -21.6440   -6.2210   22.5960 C   0  0  0  0  0  0  0  0  0  0  0  0
  -21.0980   -6.7910   23.7660 C   0  0  0  0  0  3  0  0  0  0  0  0
  -20.9420   -6.0040   24.9250 C   0  0  0  0  0  3  0  0  0  0  0  0
  -21.3210   -4.6480   24.9130 C   0  0  0  0  0  0  0  0  0  0  0  0
  -21.8590   -4.0780   23.7470 C   0  0  0  0  0  3  0  0  0  0  0  0
  -22.0180   -4.8610   22.5910 C   0  0  0  0  0  0  0  0  0  0  0  0
  -22.5180   -4.3010   21.4620 F   0  0  0  0  0  0  0  0  0  0  0  0
  -21.1650   -3.8900   26.0240 F   0  0  0  0  0  0  0  0  0  0  0  0
  -22.7690  -13.5720   21.1110 C   0  0  0  0  0  0  0  0  0  0  0  0
  -22.0430  -12.8740   21.9760 N   0  0  0  0  0  0  0  0  0  0  0  0
  -22.3240  -14.5870   20.5750 O   0  0  0  0  0  0  0  0  0  0  0  0
  -22.4180  -12.0540   22.4280 H   0  0  0  0  0  0  0  0  0  0  0  0
  -21.1000  -13.1650   22.1890 H   0  0  0  0  0  0  0  0  0  0  0  0
  -25.3740  -15.2790   20.3360 N   0  0  0  0  0  0  0  0  0  0  0  0
  -24.6080  -15.9300   20.4620 H   0  0  0  0  0  0  0  0  0  0  0  0
  -26.2390  -15.7260   20.0660 H   0  0  0  0  0  0  0  0  0  0  0  0
  -28.1870  -25.5110   20.3360 O   0  0  0  0  0  0  0  0  0  0  0  0
  -24.6430  -31.8770   23.2200 C   0  0  0  0  0  0  0  0  0  0  0  0
  -27.1930  -26.7290   20.3000 C   0  0  0  0  0  0  0  0  0  0  0  0
  -23.4720  -30.4720   21.5780 C   0  0  0  0  0  3  0  0  0  0  0  0
  -24.9300  -28.7990   20.1980 C   0  0  0  0  0  0  0  0  0  0  0  0
  -26.0550  -30.5950   21.4860 C   0  0  0  0  0  2  0  0  0  0  0  0
  -26.1230  -29.1500   20.8430 C   0  0  0  0  0  0  0  0  0  0  0  0
  -27.2360  -28.1470   20.8540 C   0  0  0  0  0  3  0  0  0  0  0  0
  -25.9640  -26.5980   19.6000 C   0  0  0  0  0  3  0  0  0  0  0  0
  -24.8940  -27.5490   19.5520 C   0  0  0  0  0  3  0  0  0  0  0  0
  -23.7280  -29.7590   20.2180 C   0  0  0  0  0  2  0  0  0  0  0  0
  -24.7480  -31.0160   22.1480 N   0  0  0  0  0  0  0  0  0  0  0  0
  -23.5440  -32.1830   23.7140 O   0  0  0  0  0  0  0  0  0  0  0  0
  -22.7380  -29.5070   22.5490 C   0  0  0  0  0  0  0  0  0  0  0  0
  -21.4040  -29.3680   22.4180 N   0  0  0  0  0  0  0  0  0  0  0  0
  -23.3810  -28.8790   23.3930 O   0  0  0  0  0  0  0  0  0  0  0  0
  -20.9340  -29.9230   21.7170 H   0  0  0  0  0  0  0  0  0  0  0  0
  -17.9970  -28.2080   22.9370 C   0  0  0  0  0  0  0  0  0  0  0  0
  -20.5640  -28.4400   23.1870 C   0  0  0  0  0  3  0  0  0  0  0  0
  -20.6410  -27.0100   22.6040 C   0  0  0  0  0  2  0  0  0  0  0  0
  -19.5300  -26.7100   21.5910 C   0  0  0  0  0  2  0  0  0  0  0  0
  -18.1530  -26.8650   22.2430 C   0  0  0  0  0  2  0  0  0  0  0  0
  -19.1280  -28.9550   23.3650 C   0  0  0  0  0  0  0  0  0  0  0  0
  -18.9250  -30.2090   23.9810 C   0  0  0  0  0  3  0  0  0  0  0  0
  -17.6260  -30.7180   24.1670 C   0  0  0  0  0  3  0  0  0  0  0  0
  -16.5110  -29.9710   23.7510 C   0  0  0  0  0  3  0  0  0  0  0  0
  -16.6970  -28.7170   23.1430 C   0  0  0  0  0  3  0  0  0  0  0  0
  -25.8990  -32.5310   23.8750 C   0  0  0  0  0  3  0  0  0  0  0  0
  -25.5770  -33.9370   24.1940 N   0  0  0  0  0  0  0  0  0  0  0  0
  -25.9100  -34.9950   23.4420 C   0  0  0  0  0  0  0  0  0  0  0  0
  -26.5770  -34.8900   22.4100 O   0  0  0  0  0  0  0  0  0  0  0  0
  -24.9890  -34.0910   24.9990 H   0  0  0  0  0  0  0  0  0  0  0  0
  -24.1840  -36.8000   23.1090 C   0  0  0  0  0  1  0  0  0  0  0  0
  -25.4340  -36.3890   23.9040 C   0  0  0  0  0  3  0  0  0  0  0  0
  -27.5710  -37.2870   24.7170 C   0  0  0  0  0  1  0  0  0  0  0  0
  -26.4670  -37.4400   23.7730 N   0  0  0  0  0  0  0  0  0  0  0  0
  -26.0640  -38.3640   23.9020 H   0  0  0  0  0  0  0  0  0  0  0  0
  -26.3680  -31.7840   25.1860 C   0  0  1  0  0  0  0  0  0  0  0  0
  -25.2410  -31.5790   26.2270 C   0  0  0  0  0  1  0  0  0  0  0  0
  -26.9530  -30.3940   24.8540 C   0  0  0  0  0  1  0  0  0  0  0  0
  -27.5030  -32.5860   25.8680 C   0  0  0  0  0  1  0  0  0  0  0  0
  1  4  1  0
  2  1  1  0
  2  3  2  0
  3 10  1  0
  4  6  2  0
  4 10  1  0
  5  1  2  0
  7  5  1  0
  7  8  2  0
  8  6  1  0
  9  2  1  0
 11  3  1  0
 12 17  1  0
 13 14  1  0
 13 12  1  0
 15 14  1  0
 15 22  1  0
 15 16  1  0
 17 11  1  0
 17 16  1  0
 18 11  2  0
 19 20  2  0
 20 39  1  0
 21 20  1  0
 21 24  1  0
 22 19  1  0
 22 23  1  0
 23 21  2  0
 24 25  1  0
 25 26  2  0
 27 30  1  0
 27 26  1  0
 28 27  2  0
 29 28  1  0
 29 24  2  0
 30 31  1  0
 31 32  1  0
 32 33  2  0
 34 33  1  0
 34 38  1  0
 35 34  2  0
 36 31  2  0
 36 35  1  0
 37 36  1  0
 39 40  1  0
 40 43  1  0
 40 42  1  0
 41 39  2  0
 44 45  1  0
 44 19  1  0
 46 44  1  0
 47  8  1  0
 48 59  2  0
 49 47  1  0
 49 54  1  0
 50 58  1  0
 50 60  1  0
 51 57  1  0
 51 53  1  0
 52 58  1  0
 53 54  2  0
 53 52  1  0
 55 49  2  0
 56 55  1  0
 56 51  2  0
 57 50  1  0
 58 48  1  0
 60 62  2  0
 61 60  1  0
 63 61  1  0
 64 73  2  0
 64 69  1  0
 65 61  1  0
 65 69  1  0
 66 65  1  0
 67 68  1  0
 67 66  1  0
 68 64  1  0
 69 70  2  0
 70 71  1  0
 72 71  2  0
 73 72  1  0
 74 48  1  0
 74 75  1  0
 74 84  1  0
 75 78  1  0
 76 80  1  0
 76 75  1  0
 77 76  2  0
 80 79  1  0
 82 83  1  0
 82 80  1  0
 82 81  1  0
 84 87  1  1
 84 85  1  0
 86 84  1  0
M  ISO  4   3 100   8 101  11 100  47 101
M  END
>  <TORSDO>  (36) 
F 16

>  <SCORE>  (36) 
-16.608

>  <name>  (36) 
35

>  <ligand_id>  (36) 
35

>  <original_smiles>  (36) 
[H]c1c([H])c([H])c2c(c1[H])C([H])([H])C([H])([H])C([H])([H])C2([H])N([H])C(=O)C1([H])N(C(=O)C([H])(N([H])C(=O)C([H])(N([H])C([H])([H])[H])C([H])([H])[H])C(C([H])([H])[H])(C([H])([H])[H])C([H])([H])[H])C([H])([H])c2c([H])c(OC3([H])C([H])([H])c4sc(C(=O)N5C([H])([H])C([H])([H])C([H])([H])C([H])(n6nc(-c7c([H])c([H])c(Oc8c([H])c([H])c(F)c([H])c8F)c([H])c7[H])c(C(=O)N([H])[H])c6N([H])[H])C5([H])[H])c(C([H])([H])[H])c4C([H])([H])C3([H])[H])c([H])c([H])c2C1([H])[H]

>  <smiles>  (36) 
[H]c1c([H])c([H])c2c(c1[H])C([H])([H])C([H])([H])C([H])([H])C2([H])N([H])C(=O)C1([H])N(C(=O)C([H])(N([H])C(=O)C([H])(N([H])C([H])([H])[H])C([H])([H])[H])C(C([H])([H])[H])(C([H])([H])[H])C([H])([H])[H])C([H])([H])c2c([H])c(OC3([H])C([H])([H])c4sc(C(=O)N5C([H])([H])C([H])([H])C([H])([H])C([H])(n6nc(-c7c([H])c([H])c(Oc8c([H])c([H])c(F)c([H])c8F)c([H])c7[H])c(C(=O)N([H])[H])c6N([H])[H])C5([H])[H])c(C([H])([H])[H])c4C([H])([H])C3([H])[H])c([H])c([H])c2C1([H])[H]

$$$$
36:0:0
     RDKit          3D

 89 97  0  0  1  0  0  0  0  0999 V2000
  -29.8320  -20.9290   22.1890 C   0  0  0  0  0  2  0  0  0  0  0  0
  -28.4010  -23.1610   21.5230 C   0  0  0  0  0  2  0  0  0  0  0  0
  -30.1470  -19.4100   21.9160 C   0  0  0  0  0  2  0  0  0  0  0  0
  -28.6030  -21.5100   21.4190 C   0  0  0  0  0  3  0  0  0  0  0  0
  -29.0480  -22.6050   19.4470 C   0  0  0  0  0  3  0  0  0  0  0  0
  -28.2040  -24.0070   20.1720 C   0  0  0  0  0  3  0  0  0  0  0  0
  -28.7630  -20.9130   19.9800 C   0  0  0  0  0  3  0  0  0  0  0  0
  -28.9500  -22.7020   17.9200 C   0  0  0  0  0  1  0  0  0  0  0  0
  -27.4100  -20.4430   19.4230 C   0  0  0  0  0  1  0  0  0  0  0  0
  -29.7020  -17.2420   20.0600 N   0  0  0  0  0  2  0  0  0  0  0  0
  -31.3330  -19.4620   19.5240 O   0  0  0  0  0  0  0  0  0  0  0  0
  -30.0590  -19.0240   20.1160 S   0  0  0  0  0  0  0  0  0  0  0  0
  -30.5560  -15.8350   19.9720 C   0  0  0  0  0  0  0  0  0  0  0  0
  -30.6740  -13.2800   19.2290 C   0  0  0  0  0  2  0  0  0  0  0  0
  -29.7560  -12.8860   18.0360 C   0  0  0  0  0  2  0  0  0  0  0  0
  -28.3470  -12.5190   18.5270 C   0  0  0  0  0  2  0  0  0  0  0  0
  -27.8520  -13.5200   19.5940 C   0  0  0  0  0  3  0  0  0  0  0  0
  -28.9030  -13.8550   20.6740 C   0  0  0  0  0  2  0  0  0  0  0  0
  -30.0720  -14.4590   19.9980 N   0  0  0  0  0  0  0  0  0  0  0  0
  -31.7740  -15.7890   19.7380 O   0  0  0  0  0  0  0  0  0  0  0  0
  -25.5320  -14.0120   20.5020 C   0  0  0  0  0  0  0  0  0  0  0  0
  -24.4930  -13.2150   20.8890 C   0  0  0  0  0  0  0  0  0  0  0  0
  -24.9640  -11.8700   20.7820 C   0  0  0  0  0  0  0  0  0  0  0  0
  -26.5630  -13.1560   20.1670 N   0  0  0  0  0  0  0  0  0  0  0  0
  -26.2400  -11.8550   20.4040 N   0  0  0  0  0  0  0  0  0  0  0  0
  -24.2480  -10.5980   20.9590 C   0  0  0  0  0  0  0  0  0  0  0  0
  -24.6570   -9.6440   21.9170 C   0  0  0  0  0  3  0  0  0  0  0  0
  -23.9370   -8.4400   22.0820 C   0  0  0  0  0  3  0  0  0  0  0  0
  -22.7930   -8.1820   21.2890 C   0  0  0  0  0  0  0  0  0  0  0  0
  -22.4050   -9.1250   20.3210 C   0  0  0  0  0  3  0  0  0  0  0  0
  -23.1240  -10.3200   20.1550 C   0  0  0  0  0  3  0  0  0  0  0  0
  -22.0480   -7.0300   21.3610 O   0  0  0  0  0  0  0  0  0  0  0  0
  -21.8700   -6.3600   22.5450 C   0  0  0  0  0  0  0  0  0  0  0  0
  -21.2570   -6.9700   23.6610 C   0  0  0  0  0  3  0  0  0  0  0  0
  -21.0290   -6.2240   24.8340 C   0  0  0  0  0  3  0  0  0  0  0  0
  -21.4070   -4.8690   24.8930 C   0  0  0  0  0  0  0  0  0  0  0  0
  -22.0140   -4.2590   23.7810 C   0  0  0  0  0  3  0  0  0  0  0  0
  -22.2420   -5.0020   22.6100 C   0  0  0  0  0  0  0  0  0  0  0  0
  -22.8070   -4.4030   21.5340 F   0  0  0  0  0  0  0  0  0  0  0  0
  -21.1830   -4.1500   26.0180 F   0  0  0  0  0  0  0  0  0  0  0  0
  -23.1100  -13.6760   21.2410 C   0  0  0  0  0  0  0  0  0  0  0  0
  -22.4270  -12.9530   22.1210 N   0  0  0  0  0  0  0  0  0  0  0  0
  -22.6440  -14.7140   20.7710 O   0  0  0  0  0  0  0  0  0  0  0  0
  -22.8210  -12.1140   22.5230 H   0  0  0  0  0  0  0  0  0  0  0  0
  -21.5000  -13.2430   22.3970 H   0  0  0  0  0  0  0  0  0  0  0  0
  -25.6840  -15.3910   20.3770 N   0  0  0  0  0  0  0  0  0  0  0  0
  -24.9360  -16.0450   20.5730 H   0  0  0  0  0  0  0  0  0  0  0  0
  -26.5390  -15.8430   20.0730 H   0  0  0  0  0  0  0  0  0  0  0  0
  -28.3250  -25.7590   20.1920 O   0  0  0  0  0  0  0  0  0  0  0  0
  -24.7470  -31.9140   23.2630 C   0  0  0  0  0  0  0  0  0  0  0  0
  -27.3230  -26.9370   20.1860 C   0  0  0  0  0  0  0  0  0  0  0  0
  -23.5750  -30.5420   21.5930 C   0  0  0  0  0  3  0  0  0  0  0  0
  -25.0380  -28.9370   20.1550 C   0  0  0  0  0  0  0  0  0  0  0  0
  -26.1510  -30.7140   21.4810 C   0  0  0  0  0  2  0  0  0  0  0  0
  -26.2280  -29.2970   20.7980 C   0  0  0  0  0  0  0  0  0  0  0  0
  -27.3580  -28.3270   20.7780 C   0  0  0  0  0  3  0  0  0  0  0  0
  -26.0960  -26.7790   19.4950 C   0  0  0  0  0  3  0  0  0  0  0  0
  -25.0080  -27.7030   19.4800 C   0  0  0  0  0  3  0  0  0  0  0  0
  -23.8240  -29.8760   20.2090 C   0  0  0  0  0  2  0  0  0  0  0  0
  -24.8480  -31.0880   22.1660 N   0  0  0  0  0  0  0  0  0  0  0  0
  -23.6500  -32.1940   23.7760 O   0  0  0  0  0  0  0  0  0  0  0  0
  -22.8640  -29.5380   22.5400 C   0  0  0  0  0  0  0  0  0  0  0  0
  -21.5390  -29.3540   22.3860 N   0  0  0  0  0  0  0  0  0  0  0  0
  -23.5170  -28.9240   23.3860 O   0  0  0  0  0  0  0  0  0  0  0  0
  -21.0610  -29.9010   21.6830 H   0  0  0  0  0  0  0  0  0  0  0  0
  -18.1720  -28.0560   22.8120 C   0  0  0  0  0  0  0  0  0  0  0  0
  -20.7180  -28.3930   23.1330 C   0  0  0  0  0  3  0  0  0  0  0  0
  -20.8700  -26.9660   22.5550 C   0  0  0  0  0  2  0  0  0  0  0  0
  -19.8010  -26.6190   21.5140 C   0  0  0  0  0  2  0  0  0  0  0  0
  -18.4010  -26.7190   22.1260 C   0  0  0  0  0  2  0  0  0  0  0  0
  -19.2590  -28.8480   23.2700 C   0  0  0  0  0  0  0  0  0  0  0  0
  -18.9870  -30.0950   23.8740 C   0  0  0  0  0  3  0  0  0  0  0  0
  -17.6640  -30.5510   24.0210 C   0  0  0  0  0  3  0  0  0  0  0  0
  -16.5920  -29.7580   23.5760 C   0  0  0  0  0  3  0  0  0  0  0  0
  -16.8470  -28.5120   22.9780 C   0  0  0  0  0  3  0  0  0  0  0  0
  -26.0040  -32.5580   23.9210 C   0  0  0  0  0  3  0  0  0  0  0  0
  -25.6830  -33.9610   24.2490 N   0  0  0  0  0  0  0  0  0  0  0  0
  -25.9900  -35.0210   23.4880 C   0  0  0  0  0  0  0  0  0  0  0  0
  -26.6300  -34.9190   22.4380 O   0  0  0  0  0  0  0  0  0  0  0  0
  -25.1100  -34.1120   25.0650 H   0  0  0  0  0  0  0  0  0  0  0  0
  -24.2200  -36.7960   23.2290 C   0  0  0  0  0  1  0  0  0  0  0  0
  -25.5160  -36.4110   23.9620 C   0  0  0  0  0  3  0  0  0  0  0  0
  -27.6800  -37.3490   24.6550 C   0  0  0  0  0  1  0  0  0  0  0  0
  -26.5240  -37.4780   23.7700 N   0  0  0  0  0  0  0  0  0  0  0  0
  -26.1120  -38.3950   23.9190 H   0  0  0  0  0  0  0  0  0  0  0  0
  -26.4750  -31.8000   25.2260 C   0  0  1  0  0  0  0  0  0  0  0  0
  -25.3490  -31.5820   26.2640 C   0  0  0  0  0  1  0  0  0  0  0  0
  -27.0620  -30.4130   24.8800 C   0  0  0  0  0  1  0  0  0  0  0  0
  -27.6100  -32.5970   25.9130 C   0  0  0  0  0  1  0  0  0  0  0  0
  3  1  1  0
  4  2  1  0
  4  1  1  0
  5  8  1  0
  5  7  1  0
  5  6  1  0
  6 49  1  0
  6  2  1  0
  7  9  1  0
  7  4  1  0
 10 12  1  0
 12 11  2  0
 12  3  1  0
 13 19  1  0
 13 10  1  0
 14 19  1  0
 15 16  1  0
 15 14  1  0
 17 16  1  0
 17 24  1  0
 17 18  1  0
 19 18  1  0
 20 13  2  0
 21 22  2  0
 22 41  1  0
 23 22  1  0
 23 26  1  0
 24 25  1  0
 24 21  1  0
 25 23  2  0
 26 27  1  0
 27 28  2  0
 29 32  1  0
 29 28  1  0
 30 29  2  0
 31 30  1  0
 31 26  2  0
 32 33  1  0
 33 38  2  0
 33 34  1  0
 34 35  2  0
 35 36  1  0
 36 40  1  0
 37 36  2  0
 38 37  1  0
 39 38  1  0
 41 42  1  0
 42 45  1  0
 42 44  1  0
 43 41  2  0
 46 21  1  0
 46 47  1  0
 48 46  1  0
 50 61  2  0
 51 49  1  0
 51 56  1  0
 52 60  1  0
 52 62  1  0
 53 59  1  0
 53 55  1  0
 54 60  1  0
 55 54  1  0
 56 55  2  0
 57 51  2  0
 58 57  1  0
 58 53  2  0
 59 52  1  0
 60 50  1  0
 62 64  2  0
 63 62  1  0
 65 63  1  0
 66 75  2  0
 66 71  1  0
 67 63  1  0
 67 71  1  0
 68 67  1  0
 69 70  1  0
 69 68  1  0
 70 66  1  0
 71 72  2  0
 72 73  1  0
 74 73  2  0
 75 74  1  0
 76 50  1  0
 76 77  1  0
 76 86  1  0
 77 80  1  0
 78 82  1  0
 78 77  1  0
 79 78  2  0
 82 81  1  0
 84 85  1  0
 84 82  1  0
 84 83  1  0
 86 89  1  1
 86 87  1  0
 88 86  1  0
M  ISO  4   6 101  10 100  13 100  49 101
M  END
>  <TORSDO>  (37) 
F 16

>  <SCORE>  (37) 
-15.460

>  <name>  (37) 
36

>  <ligand_id>  (37) 
36

>  <original_smiles>  (37) 
[H]c1c([H])c([H])c2c(c1[H])C([H])([H])C([H])([H])C([H])([H])C2([H])N([H])C(=O)C1([H])N(C(=O)C([H])(N([H])C(=O)C([H])(N([H])C([H])([H])[H])C([H])([H])[H])C(C([H])([H])[H])(C([H])([H])[H])C([H])([H])[H])C([H])([H])c2c([H])c(OC3([H])C([H])([H])C4([H])C([H])([H])C([H])([H])S(=O)(=NC(=O)N5C([H])([H])C([H])([H])C([H])([H])C([H])(n6nc(-c7c([H])c([H])c(Oc8c([H])c([H])c(F)c([H])c8F)c([H])c7[H])c(C(=O)N([H])[H])c6N([H])[H])C5([H])[H])C4(C([H])([H])[H])C3([H])C([H])([H])[H])c([H])c([H])c2C1([H])[H]

>  <smiles>  (37) 
[H]c1c([H])c([H])c2c(c1[H])C([H])([H])C([H])([H])C([H])([H])C2([H])N([H])C(=O)C1([H])N(C(=O)C([H])(N([H])C(=O)C([H])(N([H])C([H])([H])[H])C([H])([H])[H])C(C([H])([H])[H])(C([H])([H])[H])C([H])([H])[H])C([H])([H])c2c([H])c(OC3([H])C([H])([H])C4([H])C([H])([H])C([H])([H])S(=O)(=NC(=O)N5C([H])([H])C([H])([H])C([H])([H])C([H])(n6nc(-c7c([H])c([H])c(Oc8c([H])c([H])c(F)c([H])c8F)c([H])c7[H])c(C(=O)N([H])[H])c6N([H])[H])C5([H])[H])C4(C([H])([H])[H])C3([H])C([H])([H])[H])c([H])c([H])c2C1([H])[H]

$$$$
37:0:0
     RDKit          3D

 93101  0  0  1  0  0  0  0  0999 V2000
  -29.7290  -24.4010   23.7660 C   0  0  0  0  0  3  0  0  0  0  0  0
  -28.9240  -25.5180   23.8760 C   0  0  0  0  0  3  0  0  0  0  0  0
  -29.7490  -23.7210   22.5550 C   0  0  0  0  0  3  0  0  0  0  0  0
  -28.2690  -26.0480   22.7510 C   0  0  0  0  0  0  0  0  0  0  0  0
  -29.0690  -24.1500   21.3790 C   0  0  0  0  0  0  0  0  0  0  0  0
  -28.4660  -25.5160   21.4160 C   0  0  0  0  0  0  0  0  0  0  0  0
  -27.3500  -27.1880   23.1510 C   0  0  0  0  0  1  0  0  0  0  0  0
  -28.2560  -26.3900   20.2900 O   0  0  0  0  0  0  0  0  0  0  0  0
  -24.6200  -31.9140   23.2010 C   0  0  0  0  0  0  0  0  0  0  0  0
  -27.1990  -27.3280   20.1760 C   0  0  0  0  0  0  0  0  0  0  0  0
  -23.3990  -30.5050   21.5820 C   0  0  0  0  0  3  0  0  0  0  0  0
  -24.8380  -28.9550   20.1350 C   0  0  0  0  0  0  0  0  0  0  0  0
  -25.9370  -30.8440   21.3480 C   0  0  0  0  0  2  0  0  0  0  0  0
  -26.0200  -29.4690   20.6810 C   0  0  0  0  0  0  0  0  0  0  0  0
  -27.2190  -28.6930   20.6240 C   0  0  0  0  0  3  0  0  0  0  0  0
  -26.0040  -26.8800   19.5810 C   0  0  0  0  0  3  0  0  0  0  0  0
  -24.8400  -27.6770   19.5490 C   0  0  0  0  0  3  0  0  0  0  0  0
  -23.5940  -29.8210   20.2030 C   0  0  0  0  0  2  0  0  0  0  0  0
  -24.6740  -31.1030   22.1020 N   0  0  0  0  0  0  0  0  0  0  0  0
  -23.5410  -32.1880   23.7490 O   0  0  0  0  0  0  0  0  0  0  0  0
  -22.7510  -29.4930   22.5560 C   0  0  0  0  0  0  0  0  0  0  0  0
  -21.4240  -29.3130   22.4470 N   0  0  0  0  0  0  0  0  0  0  0  0
  -23.4420  -28.8720   23.3700 O   0  0  0  0  0  0  0  0  0  0  0  0
  -20.9260  -29.8670   21.7650 H   0  0  0  0  0  0  0  0  0  0  0  0
  -18.0580  -28.0950   22.9760 C   0  0  0  0  0  0  0  0  0  0  0  0
  -20.6160  -28.3760   23.2300 C   0  0  0  0  0  3  0  0  0  0  0  0
  -20.7260  -26.9400   22.6670 C   0  0  0  0  0  2  0  0  0  0  0  0
  -19.6210  -26.6010   21.6610 C   0  0  0  0  0  2  0  0  0  0  0  0
  -18.2420  -26.7410   22.3100 C   0  0  0  0  0  2  0  0  0  0  0  0
  -19.1730  -28.8700   23.3940 C   0  0  0  0  0  0  0  0  0  0  0  0
  -18.9490  -30.1350   23.9760 C   0  0  0  0  0  3  0  0  0  0  0  0
  -17.6410  -30.6280   24.1460 C   0  0  0  0  0  3  0  0  0  0  0  0
  -16.5400  -29.8510   23.7450 C   0  0  0  0  0  3  0  0  0  0  0  0
  -16.7500  -28.5860   23.1660 C   0  0  0  0  0  3  0  0  0  0  0  0
  -25.9050  -32.5550   23.8090 C   0  0  0  0  0  3  0  0  0  0  0  0
  -25.5900  -33.9500   24.1500 N   0  0  0  0  0  0  0  0  0  0  0  0
  -25.9040  -35.0090   23.3930 C   0  0  0  0  0  0  0  0  0  0  0  0
  -26.5580  -34.9150   22.3520 O   0  0  0  0  0  0  0  0  0  0  0  0
  -25.0060  -34.0960   24.9610 H   0  0  0  0  0  0  0  0  0  0  0  0
  -24.1560  -36.7930   23.0840 C   0  0  0  0  0  1  0  0  0  0  0  0
  -25.4160  -36.3920   23.8670 C   0  0  0  0  0  3  0  0  0  0  0  0
  -27.5640  -37.2870   24.6560 C   0  0  0  0  0  1  0  0  0  0  0  0
  -26.4390  -37.4540   23.7390 N   0  0  0  0  0  0  0  0  0  0  0  0
  -26.0290  -38.3700   23.9040 H   0  0  0  0  0  0  0  0  0  0  0  0
  -26.4430  -31.7860   25.0780 C   0  0  1  0  0  0  0  0  0  0  0  0
  -25.3690  -31.5380   26.1620 C   0  0  0  0  0  1  0  0  0  0  0  0
  -27.0270  -30.4150   24.6740 C   0  0  0  0  0  1  0  0  0  0  0  0
  -27.5980  -32.5860   25.7270 C   0  0  0  0  0  1  0  0  0  0  0  0
  -28.9920  -22.9830   20.2720 C   0  0  0  0  0  2  0  0  0  0  0  0
  -31.2740  -21.7500   20.4520 C   0  0  0  0  0  1  0  0  0  0  0  0
  -29.7460  -21.5450   20.6060 C   0  0  0  0  0  3  0  0  0  0  0  0
  -29.4020  -20.2140   19.9130 N   0  0  0  0  0  4  0  0  0  0  0  0
  -28.4200  -20.2150   19.6860 H   0  0  0  0  0  0  0  0  0  0  0  0
  -29.9030  -20.1900   19.0410 H   0  0  0  0  0  0  0  0  0  0  0  0
  -29.6890  -18.9110   20.6980 C   0  0  0  0  0  3  0  0  0  0  0  0
  -29.8870  -17.4840   19.9500 C   0  0  0  0  0  3  0  0  0  0  0  0
  -29.8810  -16.1160   20.8270 C   0  0  0  0  0  2  0  0  0  0  0  0
  -30.5750  -14.7700   20.3020 C   0  0  0  0  0  0  0  0  0  0  0  0
  -30.3480  -12.4990   19.2790 C   0  0  0  0  0  2  0  0  0  0  0  0
  -29.4010  -12.6090   18.0640 C   0  0  0  0  0  2  0  0  0  0  0  0
  -27.9300  -12.4500   18.5010 C   0  0  0  0  0  2  0  0  0  0  0  0
  -27.5800  -13.3210   19.7390 C   0  0  0  0  0  3  0  0  0  0  0  0
  -28.6510  -13.1980   20.8460 C   0  0  0  0  0  2  0  0  0  0  0  0
  -29.9490  -13.5430   20.2530 N   0  0  0  0  0  0  0  0  0  0  0  0
  -31.7240  -14.8720   19.8630 O   0  0  0  0  0  0  0  0  0  0  0  0
  -25.2000  -13.9250   20.4850 C   0  0  0  0  0  0  0  0  0  0  0  0
  -24.1300  -13.1580   20.8620 C   0  0  0  0  0  0  0  0  0  0  0  0
  -24.5830  -11.8050   20.8250 C   0  0  0  0  0  0  0  0  0  0  0  0
  -26.2370  -13.0400   20.2390 N   0  0  0  0  0  0  0  0  0  0  0  0
  -25.8720  -11.7590   20.5040 N   0  0  0  0  0  0  0  0  0  0  0  0
  -23.8500  -10.5470   21.0210 C   0  0  0  0  0  0  0  0  0  0  0  0
  -24.3040   -9.5590   21.9230 C   0  0  0  0  0  3  0  0  0  0  0  0
  -23.5720   -8.3660   22.1070 C   0  0  0  0  0  3  0  0  0  0  0  0
  -22.3700   -8.1520   21.3890 C   0  0  0  0  0  0  0  0  0  0  0  0
  -21.9360   -9.1280   20.4750 C   0  0  0  0  0  3  0  0  0  0  0  0
  -22.6680  -10.3120   20.2890 C   0  0  0  0  0  3  0  0  0  0  0  0
  -21.6080   -7.0120   21.4830 O   0  0  0  0  0  0  0  0  0  0  0  0
  -21.6120   -6.2340   22.6120 C   0  0  0  0  0  0  0  0  0  0  0  0
  -21.2840   -6.7610   23.8800 C   0  0  0  0  0  3  0  0  0  0  0  0
  -21.2320   -5.9120   25.0030 C   0  0  0  0  0  3  0  0  0  0  0  0
  -21.4980   -4.5360   24.8610 C   0  0  0  0  0  0  0  0  0  0  0  0
  -21.8180   -4.0090   23.5970 C   0  0  0  0  0  3  0  0  0  0  0  0
  -21.8720   -4.8550   22.4760 C   0  0  0  0  0  0  0  0  0  0  0  0
  -22.1610   -4.3380   21.2570 F   0  0  0  0  0  0  0  0  0  0  0  0
  -21.4410   -3.7180   25.9380 F   0  0  0  0  0  0  0  0  0  0  0  0
  -22.7390  -13.6440   21.1460 C   0  0  0  0  0  0  0  0  0  0  0  0
  -22.0150  -12.9550   22.0210 N   0  0  0  0  0  0  0  0  0  0  0  0
  -22.3030  -14.6700   20.6260 O   0  0  0  0  0  0  0  0  0  0  0  0
  -22.3810  -12.1280   22.4680 H   0  0  0  0  0  0  0  0  0  0  0  0
  -21.0790  -13.2630   22.2470 H   0  0  0  0  0  0  0  0  0  0  0  0
  -25.3730  -15.2950   20.3110 N   0  0  0  0  0  0  0  0  0  0  0  0
  -24.6140  -15.9570   20.4280 H   0  0  0  0  0  0  0  0  0  0  0  0
  -26.2270  -15.7300   19.9890 H   0  0  0  0  0  0  0  0  0  0  0  0
  1  2  1  0
  3  1  2  0
  4  7  1  0
  4  2  2  0
  5  6  2  0
  5  3  1  0
  6  4  1  0
  8  6  1  0
  9 20  2  0
 10  8  1  0
 10 15  1  0
 11 19  1  0
 11 21  1  0
 12 18  1  0
 12 14  1  0
 13 19  1  0
 14 13  1  0
 15 14  2  0
 16 10  2  0
 17 16  1  0
 17 12  2  0
 18 11  1  0
 19  9  1  0
 21 23  2  0
 22 21  1  0
 24 22  1  0
 25 34  2  0
 25 30  1  0
 26 22  1  0
 26 30  1  0
 27 26  1  0
 28 29  1  0
 28 27  1  0
 29 25  1  0
 30 31  2  0
 31 32  1  0
 33 32  2  0
 34 33  1  0
 35  9  1  0
 35 36  1  0
 35 45  1  0
 36 39  1  0
 37 41  1  0
 37 36  1  0
 38 37  2  0
 41 40  1  0
 43 41  1  0
 43 44  1  0
 43 42  1  0
 45 48  1  1
 45 46  1  0
 47 45  1  0
 49 51  1  0
 49  5  1  0
 51 50  1  0
 52 51  1  0
 52 55  1  0
 53 52  1  0
 54 52  1  0
 56 55  2  0
 56 57  1  0
 58 57  1  0
 59 64  1  0
 60 61  1  0
 60 59  1  0
 62 61  1  0
 62 69  1  0
 62 63  1  0
 64 58  1  0
 64 63  1  0
 65 58  2  0
 66 67  2  0
 67 86  1  0
 68 67  1  0
 68 71  1  0
 69 66  1  0
 69 70  1  0
 70 68  2  0
 71 72  1  0
 72 73  2  0
 74 77  1  0
 74 73  1  0
 75 74  2  0
 76 75  1  0
 76 71  2  0
 77 78  1  0
 78 79  1  0
 79 80  2  0
 81 80  1  0
 81 85  1  0
 82 81  2  0
 83 78  2  0
 83 82  1  0
 84 83  1  0
 86 87  1  0
 87 90  1  0
 87 89  1  0
 88 86  2  0
 91 92  1  0
 91 66  1  0
 93 91  1  0
M  ISO  4   6 101   8 101  57 100  58 100
M  END
>  <TORSDO>  (38) 
F 22

>  <SCORE>  (38) 
-12.895

>  <name>  (38) 
37

>  <ligand_id>  (38) 
37

>  <original_smiles>  (38) 
[H]c1c([H])c([H])c2c(c1[H])C([H])([H])C([H])([H])C([H])([H])C2([H])N([H])C(=O)C1([H])N(C(=O)C([H])(N([H])C(=O)C([H])(N([H])C([H])([H])[H])C([H])([H])[H])C(C([H])([H])[H])(C([H])([H])[H])C([H])([H])[H])C([H])([H])c2c([H])c(Oc3c(C([H])([H])[H])c([H])c([H])c([H])c3C([H])([H])C([H])(C([H])([H])[H])[N+]([H])([H])C([H])([H])C([H])([H])C([H])([H])C(=O)N3C([H])([H])C([H])([H])C([H])([H])C([H])(n4nc(-c5c([H])c([H])c(Oc6c([H])c([H])c(F)c([H])c6F)c([H])c5[H])c(C(=O)N([H])[H])c4N([H])[H])C3([H])[H])c([H])c([H])c2C1([H])[H]

>  <smiles>  (38) 
[H]c1c([H])c([H])c2c(c1[H])C([H])([H])C([H])([H])C([H])([H])C2([H])N([H])C(=O)C1([H])N(C(=O)C([H])(N([H])C(=O)C([H])(N([H])C([H])([H])[H])C([H])([H])[H])C(C([H])([H])[H])(C([H])([H])[H])C([H])([H])[H])C([H])([H])c2c([H])c(Oc3c(C([H])([H])[H])c([H])c([H])c([H])c3C([H])([H])C([H])(C([H])([H])[H])[N+]([H])([H])C([H])([H])C([H])([H])C([H])([H])C(=O)N3C([H])([H])C([H])([H])C([H])([H])C([H])(n4nc(-c5c([H])c([H])c(Oc6c([H])c([H])c(F)c([H])c6F)c([H])c5[H])c(C(=O)N([H])[H])c4N([H])[H])C3([H])[H])c([H])c([H])c2C1([H])[H]

$$$$
38:0:0
     RDKit          3D

 95100  0  0  1  0  0  0  0  0999 V2000
  -24.4400  -15.7040   19.7500 C   0  0  0  0  0  2  0  0  0  0  0  0
  -24.7360  -14.0400   18.7870 C   0  0  0  0  0  3  0  0  0  0  0  0
  -27.4940  -16.1000   20.2870 C   0  0  0  0  0  1  0  0  0  0  0  0
  -25.8540  -16.8140   20.3150 C   0  0  0  0  0  2  0  0  0  0  0  0
  -26.5670  -13.4640   18.5470 C   0  0  0  0  0  3  0  0  0  0  0  0
  -27.9630  -14.5990   19.3560 C   0  0  0  0  0  1  0  0  0  0  0  0
  -26.8480  -12.4390   17.4710 C   0  0  0  0  0  1  0  0  0  0  0  0
  -25.8480  -18.4450   19.5850 C   0  0  0  0  0  0  0  0  0  0  0  0
  -26.8250  -19.6270   19.2930 N   0  0  0  0  0  0  0  0  0  0  0  0
  -24.7380  -18.6730   19.1000 O   0  0  0  0  0  0  0  0  0  0  0  0
  -27.6740  -19.4470   19.8110 H   0  0  0  0  0  0  0  0  0  0  0  0
  -27.1360  -20.9910   18.1620 C   0  0  0  0  0  2  0  0  0  0  0  0
  -27.2660  -22.9340   18.0190 C   0  0  0  0  0  2  0  0  0  0  0  0
  -27.0160  -24.3890   17.0180 O   0  0  0  0  0  0  0  0  0  0  0  0
  -24.8710  -30.1200   21.5110 C   0  0  0  0  0  0  0  0  0  0  0  0
  -26.3420  -25.7270   17.2740 C   0  0  0  0  0  0  0  0  0  0  0  0
  -23.3270  -28.9910   19.9810 C   0  0  0  0  0  3  0  0  0  0  0  0
  -24.3400  -27.7800   17.9400 C   0  0  0  0  0  0  0  0  0  0  0  0
  -25.7850  -29.2900   19.2650 C   0  0  0  0  0  2  0  0  0  0  0  0
  -25.6500  -28.0090   18.3730 C   0  0  0  0  0  0  0  0  0  0  0  0
  -26.6700  -27.0010   18.0050 C   0  0  0  0  0  3  0  0  0  0  0  0
  -25.0710  -25.7840   16.7080 C   0  0  0  0  0  3  0  0  0  0  0  0
  -24.0890  -26.7280   17.0550 C   0  0  0  0  0  3  0  0  0  0  0  0
  -23.2010  -28.6410   18.4740 C   0  0  0  0  0  2  0  0  0  0  0  0
  -24.6980  -29.5000   20.2980 N   0  0  0  0  0  0  0  0  0  0  0  0
  -23.9420  -30.2350   22.3270 O   0  0  0  0  0  0  0  0  0  0  0  0
  -22.9260  -27.7670   20.8490 C   0  0  0  0  0  0  0  0  0  0  0  0
  -21.6150  -27.5040   20.9930 N   0  0  0  0  0  0  0  0  0  0  0  0
  -23.7960  -27.0680   21.3750 O   0  0  0  0  0  0  0  0  0  0  0  0
  -20.9540  -28.1230   20.5430 H   0  0  0  0  0  0  0  0  0  0  0  0
  -18.5120  -25.9020   21.9820 C   0  0  0  0  0  0  0  0  0  0  0  0
  -21.0460  -26.3730   21.7360 C   0  0  0  0  0  3  0  0  0  0  0  0
  -21.0970  -25.0750   20.8970 C   0  0  0  0  0  2  0  0  0  0  0  0
  -19.8140  -24.8210   20.0990 C   0  0  0  0  0  2  0  0  0  0  0  0
  -18.6100  -24.7130   21.0390 C   0  0  0  0  0  2  0  0  0  0  0  0
  -19.6530  -26.6880   22.2980 C   0  0  0  0  0  0  0  0  0  0  0  0
  -19.5010  -27.7960   23.1600 C   0  0  0  0  0  3  0  0  0  0  0  0
  -18.2420  -28.1240   23.6980 C   0  0  0  0  0  3  0  0  0  0  0  0
  -17.1200  -27.3350   23.3920 C   0  0  0  0  0  3  0  0  0  0  0  0
  -17.2580  -26.2240   22.5420 C   0  0  0  0  0  3  0  0  0  0  0  0
  -26.2410  -30.7320   21.9290 C   0  0  0  0  0  3  0  0  0  0  0  0
  -25.9900  -31.7100   23.0060 N   0  0  0  0  0  0  0  0  0  0  0  0
  -25.9760  -33.0420   22.8560 C   0  0  0  0  0  0  0  0  0  0  0  0
  -26.2350  -33.5900   21.7820 O   0  0  0  0  0  0  0  0  0  0  0  0
  -25.7080  -31.3260   23.8960 H   0  0  0  0  0  0  0  0  0  0  0  0
  -24.1570  -34.3600   23.9980 C   0  0  0  0  0  1  0  0  0  0  0  0
  -25.6230  -33.9060   24.0860 C   0  0  0  0  0  3  0  0  0  0  0  0
  -27.8690  -34.7510   24.6180 C   0  0  0  0  0  1  0  0  0  0  0  0
  -26.4970  -35.0900   24.2480 N   0  0  0  0  0  0  0  0  0  0  0  0
  -26.1250  -35.7230   24.9520 H   0  0  0  0  0  0  0  0  0  0  0  0
  -27.2750  -29.6460   22.4270 C   0  0  1  0  0  0  0  0  0  0  0  0
  -26.7200  -28.7000   23.5200 C   0  0  0  0  0  1  0  0  0  0  0  0
  -27.7560  -28.7590   21.2570 C   0  0  0  0  0  1  0  0  0  0  0  0
  -28.5340  -30.3450   22.9890 C   0  0  0  0  0  1  0  0  0  0  0  0
  -29.4430  -14.6330   18.9500 C   0  0  0  0  0  2  0  0  0  0  0  0
  -31.4740  -16.2140   21.4800 C   0  0  0  0  0  2  0  0  0  0  0  0
  -31.3330  -16.1290   19.9650 C   0  0  0  0  0  2  0  0  0  0  0  0
  -30.4600  -15.0750   21.5990 C   0  0  0  0  0  2  0  0  0  0  0  0
  -30.5710  -14.7730   20.0600 C   0  0  1  0  0  0  0  0  0  0  0  0
  -31.5120  -13.5590   19.9060 C   0  0  0  0  0  0  0  0  0  0  0  0
  -31.3890  -11.1490   19.5350 C   0  0  0  0  0  2  0  0  0  0  0  0
  -30.1230  -10.7170   18.7550 C   0  0  0  0  0  2  0  0  0  0  0  0
  -28.9040  -10.5200   19.7300 C   0  0  0  0  0  2  0  0  0  0  0  0
  -28.7540  -11.7760   20.6220 C   0  0  0  0  0  3  0  0  0  0  0  0
  -30.0520  -12.1000   21.3530 C   0  0  0  0  0  2  0  0  0  0  0  0
  -31.0920  -12.3440   20.3380 N   0  0  0  0  0  0  0  0  0  0  0  0
  -32.5310  -13.7010   19.2290 O   0  0  0  0  0  0  0  0  0  0  0  0
  -26.8470  -13.4220   22.0650 C   0  0  0  0  0  3  0  0  0  0  0  0
  -25.6040  -12.4890   22.1770 C   0  0  0  0  0  0  0  0  0  0  0  0
  -25.6380  -11.1100   21.5710 C   0  0  0  0  0  0  0  0  0  0  0  0
  -27.4870  -12.1120   21.4040 N   0  0  0  0  0  0  0  0  0  0  0  0
  -26.8460  -10.9180   21.2420 N   0  0  0  0  0  0  0  0  0  0  0  0
  -24.6600   -9.9070   21.2470 C   0  0  0  0  0  0  0  0  0  0  0  0
  -24.9650   -8.5300   21.5270 C   0  0  0  0  0  3  0  0  0  0  0  0
  -24.0600   -7.4460   21.2790 C   0  0  0  0  0  3  0  0  0  0  0  0
  -22.7830   -7.6720   20.7090 C   0  0  0  0  0  0  0  0  0  0  0  0
  -22.4880   -9.0070   20.3580 C   0  0  0  0  0  3  0  0  0  0  0  0
  -23.3940  -10.0790   20.6120 C   0  0  0  0  0  3  0  0  0  0  0  0
  -21.8410   -6.6880   20.4150 O   0  0  0  0  0  0  0  0  0  0  0  0
  -21.8220   -5.4340   21.0010 C   0  0  0  0  0  0  0  0  0  0  0  0
  -21.6880   -5.2670   22.3980 C   0  0  0  0  0  3  0  0  0  0  0  0
  -21.6100   -3.9730   22.9600 C   0  0  0  0  0  3  0  0  0  0  0  0
  -21.6600   -2.8360   22.1330 C   0  0  0  0  0  0  0  0  0  0  0  0
  -21.7650   -2.9920   20.7400 C   0  0  0  0  0  3  0  0  0  0  0  0
  -21.8360   -4.2810   20.1780 C   0  0  0  0  0  0  0  0  0  0  0  0
  -21.9070   -4.4090   18.8300 F   0  0  0  0  0  0  0  0  0  0  0  0
  -21.6010   -1.5940   22.6740 F   0  0  0  0  0  0  0  0  0  0  0  0
  -24.1590  -12.7410   22.6260 C   0  0  0  0  0  0  0  0  0  0  0  0
  -23.4950  -11.7680   23.2540 N   0  0  0  0  0  0  0  0  0  0  0  0
  -23.5290  -13.7540   22.3760 O   0  0  0  0  0  0  0  0  0  0  0  0
  -23.9400  -10.8920   23.4860 H   0  0  0  0  0  0  0  0  0  0  0  0
  -22.5370  -11.9180   23.5350 H   0  0  0  0  0  0  0  0  0  0  0  0
  -27.4520  -15.9570   21.5570 N   0  0  0  0  0  1  0  0  0  0  0  0
  -26.5910  -16.4070   21.2830 H   0  0  0  0  0  0  0  0  0  0  0  0
  -28.0900  -15.9100   20.7750 H   0  0  0  0  0  0  0  0  0  0  0  0
  1  4  1  0
  2  1  1  0
  3 95  1  0
  5  2  2  0
  7  5  1  0
  8  4  1  0
  9  8  1  0
  9 11  1  0
 10  8  2  0
 12  9  1  0
 13 12  1  0
 14 16  1  0
 14 13  1  0
 15 26  2  0
 16 21  1  0
 17 25  1  0
 17 27  1  0
 18 20  1  0
 18 24  1  0
 19 25  1  0
 20 19  1  0
 21 20  2  0
 22 23  1  0
 22 16  2  0
 23 18  2  0
 24 17  1  0
 25 15  1  0
 27 28  1  0
 27 29  2  0
 30 28  1  0
 31 36  2  0
 31 40  1  0
 32 28  1  0
 32 36  1  0
 33 32  1  0
 34 33  1  0
 34 35  1  0
 35 31  1  0
 36 37  1  0
 37 38  2  0
 39 38  1  0
 40 39  2  0
 41 15  1  0
 41 51  1  0
 41 42  1  0
 42 45  1  0
 43 42  1  0
 43 47  1  0
 44 43  2  0
 47 46  1  0
 47 49  1  0
 49 48  1  0
 49 50  1  0
 51 54  1  1
 51 52  1  0
 53 51  1  0
 55  6  1  0
 59 55  1  6
 56 58  1  0
 57 59  1  0
 57 56  1  0
 59 58  1  0
 60 59  1  0
 60 66  1  0
 61 66  1  0
 62 61  1  0
 62 63  1  0
 64 63  1  0
 64 65  1  0
 64 71  1  0
 66 65  1  0
 67 60  2  0
 68 69  2  0
 69 88  1  0
 70 69  1  0
 71 68  1  0
 72 71  1  0
 72 70  2  0
 73 74  1  0
 73 70  1  0
 75 74  2  0
 76 75  1  0
 77 78  1  0
 77 76  2  0
 78 73  2  0
 79 76  1  0
 79 80  1  0
 80 81  1  0
 81 82  2  0
 83 87  1  0
 83 82  1  0
 84 83  2  0
 85 84  1  0
 85 80  2  0
 86 85  1  0
 88 89  1  0
 89 91  1  0
 89 92  1  0
 90 88  2  0
 94 93  1  0
M  ISO  4  13 101  14 101  59 100  60 100
M  END
>  <TORSDO>  (39) 
F 21

>  <SCORE>  (39) 
5.406

>  <name>  (39) 
38

>  <ligand_id>  (39) 
38

>  <original_smiles>  (39) 
[H]c1c([H])c([H])c2c(c1[H])C([H])([H])C([H])([H])C([H])([H])C2([H])N([H])C(=O)C1([H])N(C(=O)C([H])(N([H])C(=O)C([H])(N([H])C([H])([H])[H])C([H])([H])[H])C(C([H])([H])[H])(C([H])([H])[H])C([H])([H])[H])C([H])([H])c2c([H])c(OC([H])([H])C([H])([H])N([H])C(=O)c3c([H])c([H])c(C([H])([H])[H])c(C([H])([H])C4(C(=O)N5C([H])([H])C([H])([H])C([H])([H])C([H])(n6nc(-c7c([H])c([H])c(Oc8c([H])c([H])c(F)c([H])c8F)c([H])c7[H])c(C(=O)N([H])[H])c6N([H])[H])C5([H])[H])C([H])([H])C([H])([H])C4([H])[H])c3[H])c([H])c([H])c2C1([H])[H]

>  <smiles>  (39) 
[H]c1c([H])c([H])c2c(c1[H])C([H])([H])C([H])([H])C([H])([H])C2([H])N([H])C(=O)C1([H])N(C(=O)C([H])(N([H])C(=O)C([H])(N([H])C([H])([H])[H])C([H])([H])[H])C(C([H])([H])[H])(C([H])([H])[H])C([H])([H])[H])C([H])([H])c2c([H])c(OC([H])([H])C([H])([H])N([H])C(=O)c3c([H])c([H])c(C([H])([H])[H])c(C([H])([H])C4(C(=O)N5C([H])([H])C([H])([H])C([H])([H])C([H])(n6nc(-c7c([H])c([H])c(Oc8c([H])c([H])c(F)c([H])c8F)c([H])c7[H])c(C(=O)N([H])[H])c6N([H])[H])C5([H])[H])C([H])([H])C([H])([H])C4([H])[H])c3[H])c([H])c([H])c2C1([H])[H]

$$$$
39:0:0
     RDKit          3D

 95104  0  0  1  0  0  0  0  0999 V2000
  -30.1470  -18.5820   21.1250 C   0  0  0  0  0  3  0  0  0  0  0  0
  -29.7180  -20.0580   21.0560 C   0  0  0  0  0  0  0  0  0  0  0  0
  -29.8050  -17.3930   20.2630 C   0  0  0  0  0  0  0  0  0  0  0  0
  -28.9180  -20.7000   20.0210 C   0  0  0  0  0  0  0  0  0  0  0  0
  -28.9390  -18.0680   19.2640 C   0  0  0  0  0  0  0  0  0  0  0  0
  -28.5450  -19.5440   19.1600 C   0  0  0  0  0  0  0  0  0  0  0  0
  -30.1370  -21.1000   22.0690 C   0  0  0  0  0  0  0  0  0  0  0  0
  -28.5940  -22.4670   19.7240 C   0  0  0  0  0  2  0  0  0  0  0  0
  -29.0980  -22.2090   22.4850 C   0  0  0  0  0  2  0  0  0  0  0  0
  -29.1800  -23.6850   21.8940 C   0  0  0  0  0  2  0  0  0  0  0  0
  -28.2720  -24.0230   20.6590 C   0  0  0  0  0  3  0  0  0  0  0  0
  -28.4140  -17.1450   18.1670 C   0  0  0  0  0  1  0  0  0  0  0  0
  -31.2350  -21.0730   22.6290 O   0  0  0  0  0  0  0  0  0  0  0  0
  -30.4740  -15.7480   20.2500 C   0  0  0  0  0  0  0  0  0  0  0  0
  -30.5430  -13.2210   19.4240 C   0  0  0  0  0  2  0  0  0  0  0  0
  -29.6460  -12.8490   18.2110 C   0  0  0  0  0  2  0  0  0  0  0  0
  -28.2240  -12.4930   18.6680 C   0  0  0  0  0  2  0  0  0  0  0  0
  -27.7140  -13.4790   19.7440 C   0  0  0  0  0  3  0  0  0  0  0  0
  -28.7490  -13.7940   20.8450 C   0  0  0  0  0  2  0  0  0  0  0  0
  -29.9310  -14.3960   20.1910 N   0  0  0  0  0  0  0  0  0  0  0  0
  -31.7070  -15.6480   20.1130 O   0  0  0  0  0  0  0  0  0  0  0  0
  -25.3660  -13.9840   20.5640 C   0  0  0  0  0  0  0  0  0  0  0  0
  -24.3150  -13.1880   20.9230 C   0  0  0  0  0  0  0  0  0  0  0  0
  -24.7950  -11.8430   20.8560 C   0  0  0  0  0  0  0  0  0  0  0  0
  -26.4100  -13.1230   20.2800 N   0  0  0  0  0  0  0  0  0  0  0  0
  -26.0830  -11.8280   20.5250 N   0  0  0  0  0  0  0  0  0  0  0  0
  -24.0790  -10.5710   21.0260 C   0  0  0  0  0  0  0  0  0  0  0  0
  -24.4940   -9.6090   21.9730 C   0  0  0  0  0  3  0  0  0  0  0  0
  -23.7740   -8.4050   22.1350 C   0  0  0  0  0  3  0  0  0  0  0  0
  -22.6250   -8.1540   21.3470 C   0  0  0  0  0  0  0  0  0  0  0  0
  -22.2300   -9.1040   20.3880 C   0  0  0  0  0  3  0  0  0  0  0  0
  -22.9510  -10.2990   20.2260 C   0  0  0  0  0  3  0  0  0  0  0  0
  -21.8800   -7.0020   21.4150 O   0  0  0  0  0  0  0  0  0  0  0  0
  -21.7520   -6.2950   22.5840 C   0  0  0  0  0  0  0  0  0  0  0  0
  -21.2160   -6.8770   23.7530 C   0  0  0  0  0  3  0  0  0  0  0  0
  -21.0390   -6.0950   24.9120 C   0  0  0  0  0  3  0  0  0  0  0  0
  -21.3880   -4.7310   24.9020 C   0  0  0  0  0  0  0  0  0  0  0  0
  -21.9170   -4.1490   23.7380 C   0  0  0  0  0  3  0  0  0  0  0  0
  -22.0960   -4.9280   22.5820 C   0  0  0  0  0  0  0  0  0  0  0  0
  -22.5870   -4.3550   21.4560 F   0  0  0  0  0  0  0  0  0  0  0  0
  -21.2100   -3.9790   26.0140 F   0  0  0  0  0  0  0  0  0  0  0  0
  -22.9180  -13.6480   21.2140 C   0  0  0  0  0  0  0  0  0  0  0  0
  -22.1990  -12.9260   22.0660 N   0  0  0  0  0  0  0  0  0  0  0  0
  -22.4730  -14.6840   20.7200 O   0  0  0  0  0  0  0  0  0  0  0  0
  -22.5740  -12.0890   22.4870 H   0  0  0  0  0  0  0  0  0  0  0  0
  -21.2600  -13.2160   22.3010 H   0  0  0  0  0  0  0  0  0  0  0  0
  -25.5180  -15.3600   20.4220 N   0  0  0  0  0  0  0  0  0  0  0  0
  -24.7580  -16.0110   20.5870 H   0  0  0  0  0  0  0  0  0  0  0  0
  -26.3800  -15.8180   20.1570 H   0  0  0  0  0  0  0  0  0  0  0  0
  -28.3090  -25.7510   20.4040 O   0  0  0  0  0  0  0  0  0  0  0  0
  -24.7000  -31.9690   23.2850 C   0  0  0  0  0  0  0  0  0  0  0  0
  -27.2900  -26.9060   20.4000 C   0  0  0  0  0  0  0  0  0  0  0  0
  -23.5360  -30.5460   21.6510 C   0  0  0  0  0  3  0  0  0  0  0  0
  -25.0070  -28.8900   20.2850 C   0  0  0  0  0  0  0  0  0  0  0  0
  -26.1130  -30.7150   21.5510 C   0  0  0  0  0  2  0  0  0  0  0  0
  -26.1930  -29.2770   20.9200 C   0  0  0  0  0  0  0  0  0  0  0  0
  -27.3240  -28.3120   20.9390 C   0  0  0  0  0  3  0  0  0  0  0  0
  -26.0660  -26.7110   19.7160 C   0  0  0  0  0  3  0  0  0  0  0  0
  -24.9790  -27.6320   19.6590 C   0  0  0  0  0  3  0  0  0  0  0  0
  -23.7950  -29.8320   20.2940 C   0  0  0  0  0  2  0  0  0  0  0  0
  -24.8060  -31.1090   22.2160 N   0  0  0  0  0  0  0  0  0  0  0  0
  -23.6010  -32.2680   23.7810 O   0  0  0  0  0  0  0  0  0  0  0  0
  -22.8170  -29.5740   22.6260 C   0  0  0  0  0  0  0  0  0  0  0  0
  -21.4910  -29.3980   22.4760 N   0  0  0  0  0  0  0  0  0  0  0  0
  -23.4660  -28.9760   23.4870 O   0  0  0  0  0  0  0  0  0  0  0  0
  -21.0170  -29.9330   21.7610 H   0  0  0  0  0  0  0  0  0  0  0  0
  -18.1070  -28.1670   22.9590 C   0  0  0  0  0  0  0  0  0  0  0  0
  -20.6610  -28.4650   23.2490 C   0  0  0  0  0  3  0  0  0  0  0  0
  -20.7820  -27.0240   22.6970 C   0  0  0  0  0  2  0  0  0  0  0  0
  -19.6980  -26.6770   21.6720 C   0  0  0  0  0  2  0  0  0  0  0  0
  -18.3060  -26.8140   22.2970 C   0  0  0  0  0  2  0  0  0  0  0  0
  -19.2120  -28.9500   23.3910 C   0  0  0  0  0  0  0  0  0  0  0  0
  -18.9690  -30.2120   23.9740 C   0  0  0  0  0  3  0  0  0  0  0  0
  -17.6540  -30.6950   24.1250 C   0  0  0  0  0  3  0  0  0  0  0  0
  -16.5660  -29.9110   23.7060 C   0  0  0  0  0  3  0  0  0  0  0  0
  -16.7930  -28.6500   23.1290 C   0  0  0  0  0  3  0  0  0  0  0  0
  -25.9540  -32.6320   23.9310 C   0  0  0  0  0  3  0  0  0  0  0  0
  -26.4340  -31.8960   25.2430 C   0  0  1  0  0  0  0  0  0  0  0  0
  -25.3080  -31.6730   26.2820 C   0  0  0  0  0  1  0  0  0  0  0  0
  -27.0420  -30.5140   24.9140 C   0  0  0  0  0  1  0  0  0  0  0  0
  -27.5550  -32.7170   25.9240 C   0  0  0  0  0  1  0  0  0  0  0  0
  -25.6240  -34.0370   24.2380 N   0  0  0  0  0  0  0  0  0  0  0  0
  -25.9440  -35.0910   23.4730 C   0  0  0  0  0  0  0  0  0  0  0  0
  -26.6060  -34.9800   22.4380 O   0  0  0  0  0  0  0  0  0  0  0  0
  -25.0330  -34.1950   25.0410 H   0  0  0  0  0  0  0  0  0  0  0  0
  -24.1860  -36.8670   23.1480 C   0  0  0  0  0  1  0  0  0  0  0  0
  -25.4560  -36.4840   23.9240 C   0  0  0  0  0  3  0  0  0  0  0  0
  -27.6010  -37.4190   24.6770 C   0  0  0  0  0  1  0  0  0  0  0  0
  -26.4720  -37.5480   23.7580 N   0  0  0  0  0  0  0  0  0  0  0  0
  -26.0570  -38.4670   23.8930 H   0  0  0  0  0  0  0  0  0  0  0  0
  -27.6060  -19.9610   18.0220 C   0  0  0  0  0  2  0  0  0  0  0  0
  -26.2770  -20.5150   18.5700 C   0  0  0  0  0  2  0  0  0  0  0  0
  -25.6090  -21.5410   17.6410 C   0  0  0  0  0  2  0  0  0  0  0  0
  -24.0010  -23.5260   17.5250 C   0  0  0  0  0  1  0  0  0  0  0  0
  -24.5600  -22.3850   18.3810 C   0  0  0  0  0  2  0  0  0  0  0  0
  2  1  1  0
  2  7  1  0
  3  1  2  0
  4  2  2  0
  5  3  1  0
  6  5  2  0
  6  4  1  0
  7  9  1  0
  7 13  2  0
  8  4  1  0
  8 11  1  0
 10  9  1  0
 11 50  1  0
 11 10  1  0
 12  5  1  0
 14  3  1  0
 15 20  1  0
 16 17  1  0
 16 15  1  0
 18 17  1  0
 18 25  1  0
 18 19  1  0
 20 14  1  0
 20 19  1  0
 21 14  2  0
 22 23  2  0
 23 42  1  0
 24 23  1  0
 24 27  1  0
 25 26  1  0
 25 22  1  0
 26 24  2  0
 27 28  1  0
 28 29  2  0
 30 33  1  0
 30 29  1  0
 31 30  2  0
 32 31  1  0
 32 27  2  0
 33 34  1  0
 34 35  1  0
 35 36  2  0
 37 36  1  0
 37 41  1  0
 38 37  2  0
 39 34  2  0
 39 38  1  0
 40 39  1  0
 42 43  1  0
 43 46  1  0
 43 45  1  0
 44 42  2  0
 47 22  1  0
 47 48  1  0
 49 47  1  0
 51 62  2  0
 52 50  1  0
 52 57  1  0
 53 61  1  0
 53 63  1  0
 54 60  1  0
 54 56  1  0
 55 61  1  0
 56 57  2  0
 56 55  1  0
 58 52  2  0
 59 58  1  0
 59 54  2  0
 60 53  1  0
 61 51  1  0
 63 65  2  0
 64 63  1  0
 66 64  1  0
 67 76  2  0
 67 72  1  0
 68 64  1  0
 68 72  1  0
 69 68  1  0
 70 71  1  0
 70 69  1  0
 71 67  1  0
 72 73  2  0
 73 74  1  0
 75 74  2  0
 76 75  1  0
 77 51  1  0
 77 82  1  0
 77 78  1  0
 78 81  1  1
 78 79  1  0
 80 78  1  0
 82 85  1  0
 83 87  1  0
 83 82  1  0
 84 83  2  0
 87 86  1  0
 89 90  1  0
 89 87  1  0
 89 88  1  0
 91 92  1  0
 91  6  1  0
 93 95  1  0
 93 92  1  0
 94 95  1  0
M  ISO  4   3 100  11 101  14 100  50 101
M  END
>  <TORSDO>  (40) 
F 20

>  <SCORE>  (40) 
-15.183

>  <name>  (40) 
39

>  <ligand_id>  (40) 
39

>  <original_smiles>  (40) 
[H]c1c([H])c([H])c2c(c1[H])C([H])([H])C([H])([H])C([H])([H])C2([H])N([H])C(=O)C1([H])N(C(=O)C([H])(N([H])C(=O)C([H])(N([H])C([H])([H])[H])C([H])([H])[H])C(C([H])([H])[H])(C([H])([H])[H])C([H])([H])[H])C([H])([H])c2c([H])c(OC3([H])C([H])([H])c4c(c([H])c(C(=O)N5C([H])([H])C([H])([H])C([H])([H])C([H])(n6nc(-c7c([H])c([H])c(Oc8c([H])c([H])c(F)c([H])c8F)c([H])c7[H])c(C(=O)N([H])[H])c6N([H])[H])C5([H])[H])c(C([H])([H])[H])c4C([H])([H])C([H])([H])C([H])([H])C([H])([H])C([H])([H])[H])C(=O)C([H])([H])C3([H])[H])c([H])c([H])c2C1([H])[H]

>  <smiles>  (40) 
[H]c1c([H])c([H])c2c(c1[H])C([H])([H])C([H])([H])C([H])([H])C2([H])N([H])C(=O)C1([H])N(C(=O)C([H])(N([H])C(=O)C([H])(N([H])C([H])([H])[H])C([H])([H])[H])C(C([H])([H])[H])(C([H])([H])[H])C([H])([H])[H])C([H])([H])c2c([H])c(OC3([H])C([H])([H])c4c(c([H])c(C(=O)N5C([H])([H])C([H])([H])C([H])([H])C([H])(n6nc(-c7c([H])c([H])c(Oc8c([H])c([H])c(F)c([H])c8F)c([H])c7[H])c(C(=O)N([H])[H])c6N([H])[H])C5([H])[H])c(C([H])([H])[H])c4C([H])([H])C([H])([H])C([H])([H])C([H])([H])C([H])([H])[H])C(=O)C([H])([H])C3([H])[H])c([H])c([H])c2C1([H])[H]

$$$$
40:0:0
     RDKit          3D

 96105  0  0  1  0  0  0  0  0999 V2000
  -29.1820  -23.6170   21.7640 C   0  0  0  0  0  3  0  0  0  0  0  0
  -29.5730  -25.2540   19.9940 C   0  0  0  0  0  3  0  0  0  0  0  0
  -29.9910  -24.1090   20.7190 C   0  0  0  0  0  0  0  0  0  0  0  0
  -28.0010  -24.3030   22.0740 C   0  0  0  0  0  0  0  0  0  0  0  0
  -27.5990  -25.4550   21.4010 C   0  0  0  0  0  0  0  0  0  0  0  0
  -28.3620  -25.9300   20.2870 C   0  0  0  0  0  0  0  0  0  0  0  0
  -27.0230  -23.9160   23.1290 C   0  0  0  0  0  2  0  0  0  0  0  0
  -25.8870  -24.8990   22.8250 C   0  0  0  0  0  2  0  0  0  0  0  0
  -26.6750  -27.2290   22.7130 C   0  0  0  0  0  1  0  0  0  0  0  0
  -26.4320  -25.9810   21.9920 N   0  0  0  0  0  0  0  0  0  0  0  0
  -31.2810  -23.4500   20.3800 C   0  0  0  0  0  0  0  0  0  0  0  0
  -32.2370  -24.0460   19.8770 O   0  0  0  0  0  0  0  0  0  0  0  0
  -31.3640  -21.9390   20.6100 C   0  0  0  0  0  2  0  0  0  0  0  0
  -31.8960  -21.5190   22.0000 C   0  0  0  0  0  2  0  0  0  0  0  0
  -31.3120  -20.1730   22.4740 C   0  0  0  0  0  2  0  0  0  0  0  0
  -31.6970  -18.9950   21.5650 C   0  0  0  0  0  2  0  0  0  0  0  0
  -30.9550  -17.6930   21.9060 C   0  0  0  0  0  2  0  0  0  0  0  0
  -31.2910  -16.5860   20.8950 C   0  0  0  0  0  2  0  0  0  0  0  0
  -30.5110  -15.2650   21.0900 C   0  0  0  0  0  2  0  0  0  0  0  0
  -30.8740  -14.2060   20.0300 C   0  0  0  0  0  0  0  0  0  0  0  0
  -30.4100  -12.0790   18.8630 C   0  0  0  0  0  2  0  0  0  0  0  0
  -29.3730  -12.2760   17.7420 C   0  0  0  0  0  2  0  0  0  0  0  0
  -27.9450  -12.1390   18.3000 C   0  0  0  0  0  2  0  0  0  0  0  0
  -27.7170  -13.0060   19.5690 C   0  0  0  0  0  3  0  0  0  0  0  0
  -28.8590  -12.8060   20.5920 C   0  0  0  0  0  2  0  0  0  0  0  0
  -30.1370  -13.0700   19.9140 N   0  0  0  0  0  0  0  0  0  0  0  0
  -31.8440  -14.4280   19.2980 O   0  0  0  0  0  0  0  0  0  0  0  0
  -25.4040  -13.6360   20.5120 C   0  0  0  0  0  0  0  0  0  0  0  0
  -24.3550  -12.8710   20.9490 C   0  0  0  0  0  0  0  0  0  0  0  0
  -24.7790  -11.5130   20.8290 C   0  0  0  0  0  0  0  0  0  0  0  0
  -26.4040  -12.7430   20.1580 N   0  0  0  0  0  0  0  0  0  0  0  0
  -26.0340  -11.4590   20.4010 N   0  0  0  0  0  0  0  0  0  0  0  0
  -24.0440  -10.2600   21.0420 C   0  0  0  0  0  0  0  0  0  0  0  0
  -24.4660   -9.3090   21.9960 C   0  0  0  0  0  3  0  0  0  0  0  0
  -23.7320   -8.1190   22.1950 C   0  0  0  0  0  3  0  0  0  0  0  0
  -22.5610   -7.8730   21.4400 C   0  0  0  0  0  0  0  0  0  0  0  0
  -22.1570   -8.8120   20.4750 C   0  0  0  0  0  3  0  0  0  0  0  0
  -22.8910   -9.9930   20.2740 C   0  0  0  0  0  3  0  0  0  0  0  0
  -21.7990   -6.7350   21.5480 O   0  0  0  0  0  0  0  0  0  0  0  0
  -21.6680   -6.0660   22.7390 C   0  0  0  0  0  0  0  0  0  0  0  0
  -21.1130   -6.6830   23.8810 C   0  0  0  0  0  3  0  0  0  0  0  0
  -20.9310   -5.9400   25.0640 C   0  0  0  0  0  3  0  0  0  0  0  0
  -21.2940   -4.5800   25.1060 C   0  0  0  0  0  0  0  0  0  0  0  0
  -21.8420   -3.9620   23.9670 C   0  0  0  0  0  3  0  0  0  0  0  0
  -22.0250   -4.7040   22.7860 C   0  0  0  0  0  0  0  0  0  0  0  0
  -22.5330   -4.0990   21.6850 F   0  0  0  0  0  0  0  0  0  0  0  0
  -21.1130   -3.8630   26.2390 F   0  0  0  0  0  0  0  0  0  0  0  0
  -23.0000  -13.3670   21.3690 C   0  0  0  0  0  0  0  0  0  0  0  0
  -22.3380  -12.6510   22.2710 N   0  0  0  0  0  0  0  0  0  0  0  0
  -22.5420  -14.4220   20.9330 O   0  0  0  0  0  0  0  0  0  0  0  0
  -22.7240  -11.7960   22.6450 H   0  0  0  0  0  0  0  0  0  0  0  0
  -21.4330  -12.9630   22.5930 H   0  0  0  0  0  0  0  0  0  0  0  0
  -25.5830  -15.0080   20.3670 N   0  0  0  0  0  0  0  0  0  0  0  0
  -24.8470  -15.6750   20.5700 H   0  0  0  0  0  0  0  0  0  0  0  0
  -26.4200  -15.4420   19.9960 H   0  0  0  0  0  0  0  0  0  0  0  0
  -28.0380  -26.9450   19.4010 O   0  0  0  0  0  0  0  0  0  0  0  0
  -24.5310  -31.8690   23.0740 C   0  0  0  0  0  0  0  0  0  0  0  0
  -26.8890  -27.6810   19.5130 C   0  0  0  0  0  0  0  0  0  0  0  0
  -23.1920  -30.6170   21.4100 C   0  0  0  0  0  3  0  0  0  0  0  0
  -24.5230  -29.1860   19.7690 C   0  0  0  0  0  0  0  0  0  0  0  0
  -25.6960  -30.9790   21.0640 C   0  0  0  0  0  2  0  0  0  0  0  0
  -25.7200  -29.6620   20.3190 C   0  0  0  0  0  0  0  0  0  0  0  0
  -26.9090  -28.9180   20.1850 C   0  0  0  0  0  3  0  0  0  0  0  0
  -25.6900  -27.2210   18.9310 C   0  0  0  0  0  3  0  0  0  0  0  0
  -24.5020  -27.9660   19.0680 C   0  0  0  0  0  3  0  0  0  0  0  0
  -23.2970  -30.0450   19.9690 C   0  0  0  0  0  2  0  0  0  0  0  0
  -24.4960  -31.1620   21.9100 N   0  0  0  0  0  0  0  0  0  0  0  0
  -23.4940  -32.1130   23.7050 O   0  0  0  0  0  0  0  0  0  0  0  0
  -22.5890  -29.5320   22.3300 C   0  0  0  0  0  0  0  0  0  0  0  0
  -21.2630  -29.3440   22.2400 N   0  0  0  0  0  0  0  0  0  0  0  0
  -23.3070  -28.8660   23.0820 O   0  0  0  0  0  0  0  0  0  0  0  0
  -20.7430  -29.9340   21.6040 H   0  0  0  0  0  0  0  0  0  0  0  0
  -17.9280  -28.0610   22.7560 C   0  0  0  0  0  0  0  0  0  0  0  0
  -20.4850  -28.3570   22.9840 C   0  0  0  0  0  3  0  0  0  0  0  0
  -20.6030  -26.9580   22.3390 C   0  0  0  0  0  2  0  0  0  0  0  0
  -19.4860  -26.6620   21.3340 C   0  0  0  0  0  2  0  0  0  0  0  0
  -18.1150  -26.7490   22.0130 C   0  0  0  0  0  2  0  0  0  0  0  0
  -19.0410  -28.8230   23.1990 C   0  0  0  0  0  0  0  0  0  0  0  0
  -18.8110  -30.0510   23.8560 C   0  0  0  0  0  3  0  0  0  0  0  0
  -17.5020  -30.5180   24.0710 C   0  0  0  0  0  3  0  0  0  0  0  0
  -16.4030  -29.7530   23.6440 C   0  0  0  0  0  3  0  0  0  0  0  0
  -16.6170  -28.5250   22.9920 C   0  0  0  0  0  3  0  0  0  0  0  0
  -25.8690  -32.4290   23.6530 C   0  0  0  0  0  3  0  0  0  0  0  0
  -25.6130  -33.7990   24.1130 N   0  0  0  0  0  0  0  0  0  0  0  0
  -25.9020  -34.9040   23.4120 C   0  0  0  0  0  0  0  0  0  0  0  0
  -26.4910  -34.8750   22.3280 O   0  0  0  0  0  0  0  0  0  0  0  0
  -25.0880  -33.8960   24.9710 H   0  0  0  0  0  0  0  0  0  0  0  0
  -24.1720  -36.7270   23.3330 C   0  0  0  0  0  1  0  0  0  0  0  0
  -25.4690  -36.2560   24.0100 C   0  0  0  0  0  3  0  0  0  0  0  0
  -27.6690  -37.0700   24.7360 C   0  0  0  0  0  1  0  0  0  0  0  0
  -26.5000  -37.3080   23.8930 N   0  0  0  0  0  0  0  0  0  0  0  0
  -26.1160  -38.2170   24.1390 H   0  0  0  0  0  0  0  0  0  0  0  0
  -26.4590  -31.5470   24.8210 C   0  0  1  0  0  0  0  0  0  0  0  0
  -25.4370  -31.2350   25.9400 C   0  0  0  0  0  1  0  0  0  0  0  0
  -26.9820  -30.2000   24.2720 C   0  0  0  0  0  1  0  0  0  0  0  0
  -27.6700  -32.2670   25.4640 C   0  0  0  0  0  1  0  0  0  0  0  0
  1  4  1  0
  2  6  2  0
  2  3  1  0
  3  1  2  0
  4  7  1  0
  5 10  1  0
  5  4  2  0
  6  5  1  0
  8  7  1  0
 10  9  1  0
 10  8  1  0
 11 13  1  0
 11  3  1  0
 12 11  2  0
 13 14  1  0
 14 15  1  0
 16 17  1  0
 16 15  1  0
 18 19  1  0
 18 17  1  0
 20 19  1  0
 21 26  1  0
 22 23  1  0
 22 21  1  0
 24 23  1  0
 24 31  1  0
 24 25  1  0
 26 20  1  0
 26 25  1  0
 27 20  2  0
 28 29  2  0
 29 48  1  0
 30 29  1  0
 30 33  1  0
 31 32  1  0
 31 28  1  0
 32 30  2  0
 33 34  1  0
 34 35  2  0
 36 39  1  0
 36 35  1  0
 37 36  2  0
 38 37  1  0
 38 33  2  0
 39 40  1  0
 40 45  2  0
 40 41  1  0
 41 42  2  0
 42 43  1  0
 43 47  1  0
 44 43  2  0
 45 44  1  0
 46 45  1  0
 48 49  1  0
 49 52  1  0
 49 51  1  0
 50 48  2  0
 53 28  1  0
 53 54  1  0
 55 53  1  0
 56 58  1  0
 56  6  1  0
 57 68  2  0
 58 63  1  0
 59 67  1  0
 59 69  1  0
 60 66  1  0
 60 62  1  0
 61 67  1  0
 62 61  1  0
 63 62  2  0
 64 65  1  0
 64 58  2  0
 65 60  2  0
 66 59  1  0
 67 57  1  0
 69 71  2  0
 70 69  1  0
 72 70  1  0
 73 82  2  0
 73 78  1  0
 74 70  1  0
 74 78  1  0
 75 74  1  0
 76 77  1  0
 76 75  1  0
 77 73  1  0
 78 79  2  0
 79 80  1  0
 81 80  2  0
 82 81  1  0
 83 57  1  0
 83 84  1  0
 83 93  1  0
 84 87  1  0
 85 89  1  0
 85 84  1  0
 86 85  2  0
 89 88  1  0
 91 89  1  0
 91 92  1  0
 91 90  1  0
 93 96  1  1
 93 94  1  0
 95 93  1  0
M  ISO  4   6 101  19 100  20 100  56 101
M  END
>  <TORSDO>  (41) 
F 24

>  <SCORE>  (41) 
-10.551

>  <name>  (41) 
40

>  <ligand_id>  (41) 
40

>  <original_smiles>  (41) 
[H]c1c([H])c([H])c2c(c1[H])C([H])([H])C([H])([H])C([H])([H])C2([H])N([H])C(=O)C1([H])N(C(=O)C([H])(N([H])C(=O)C([H])(N([H])C([H])([H])[H])C([H])([H])[H])C(C([H])([H])[H])(C([H])([H])[H])C([H])([H])[H])C([H])([H])c2c([H])c(Oc3c([H])c(C(=O)C([H])([H])C([H])([H])C([H])([H])C([H])([H])C([H])([H])C([H])([H])C([H])([H])C(=O)N4C([H])([H])C([H])([H])C([H])([H])C([H])(n5nc(-c6c([H])c([H])c(Oc7c([H])c([H])c(F)c([H])c7F)c([H])c6[H])c(C(=O)N([H])[H])c5N([H])[H])C4([H])[H])c([H])c4c3N(C([H])([H])[H])C([H])([H])C4([H])[H])c([H])c([H])c2C1([H])[H]

>  <smiles>  (41) 
[H]c1c([H])c([H])c2c(c1[H])C([H])([H])C([H])([H])C([H])([H])C2([H])N([H])C(=O)C1([H])N(C(=O)C([H])(N([H])C(=O)C([H])(N([H])C([H])([H])[H])C([H])([H])[H])C(C([H])([H])[H])(C([H])([H])[H])C([H])([H])[H])C([H])([H])c2c([H])c(Oc3c([H])c(C(=O)C([H])([H])C([H])([H])C([H])([H])C([H])([H])C([H])([H])C([H])([H])C([H])([H])C(=O)N4C([H])([H])C([H])([H])C([H])([H])C([H])(n5nc(-c6c([H])c([H])c(Oc7c([H])c([H])c(F)c([H])c7F)c([H])c6[H])c(C(=O)N([H])[H])c5N([H])[H])C4([H])[H])c([H])c4c3N(C([H])([H])[H])C([H])([H])C4([H])[H])c([H])c([H])c2C1([H])[H]

$$$$
41:0:0
     RDKit          3D

 93102  0  0  1  0  0  0  0  0999 V2000
  -28.0200  -22.7640   21.3490 C   0  0  0  0  0  3  0  0  0  0  0  0
  -29.1850  -22.8640   19.2880 C   0  0  0  0  0  3  0  0  0  0  0  0
  -28.8060  -22.0430   20.3910 C   0  0  0  0  0  0  0  0  0  0  0  0
  -27.7170  -24.1800   21.2670 C   0  0  0  0  0  0  0  0  0  0  0  0
  -28.9090  -24.2810   19.1980 C   0  0  0  0  0  0  0  0  0  0  0  0
  -28.1770  -25.0150   20.1910 C   0  0  0  0  0  0  0  0  0  0  0  0
  -26.9770  -24.8170   22.4360 C   0  0  0  0  0  1  0  0  0  0  0  0
  -29.5250  -25.0600   18.0460 C   0  0  0  0  0  1  0  0  0  0  0  0
  -28.1620  -26.4630   20.1630 O   0  0  0  0  0  0  0  0  0  0  0  0
  -24.4960  -31.9480   23.2520 C   0  0  0  0  0  0  0  0  0  0  0  0
  -27.0410  -27.3260   20.1740 C   0  0  0  0  0  0  0  0  0  0  0  0
  -23.2660  -30.5580   21.6220 C   0  0  0  0  0  3  0  0  0  0  0  0
  -24.6910  -28.9840   20.1800 C   0  0  0  0  0  0  0  0  0  0  0  0
  -25.8070  -30.8490   21.4030 C   0  0  0  0  0  2  0  0  0  0  0  0
  -25.8690  -29.4620   20.7660 C   0  0  0  0  0  0  0  0  0  0  0  0
  -27.0420  -28.6430   20.7500 C   0  0  0  0  0  3  0  0  0  0  0  0
  -25.8360  -26.9130   19.5660 C   0  0  0  0  0  3  0  0  0  0  0  0
  -24.6770  -27.7180   19.5690 C   0  0  0  0  0  3  0  0  0  0  0  0
  -23.4650  -29.8770   20.2350 C   0  0  0  0  0  2  0  0  0  0  0  0
  -24.5430  -31.1400   22.1470 N   0  0  0  0  0  0  0  0  0  0  0  0
  -23.4220  -32.2280   23.8040 O   0  0  0  0  0  0  0  0  0  0  0  0
  -22.6140  -29.5440   22.5970 C   0  0  0  0  0  0  0  0  0  0  0  0
  -21.2920  -29.3430   22.4750 N   0  0  0  0  0  0  0  0  0  0  0  0
  -23.3010  -28.9370   23.4230 O   0  0  0  0  0  0  0  0  0  0  0  0
  -20.7880  -29.8910   21.7920 H   0  0  0  0  0  0  0  0  0  0  0  0
  -17.9450  -28.0670   22.9740 C   0  0  0  0  0  0  0  0  0  0  0  0
  -20.4940  -28.3990   23.2610 C   0  0  0  0  0  3  0  0  0  0  0  0
  -20.6380  -26.9580   22.7170 C   0  0  0  0  0  2  0  0  0  0  0  0
  -19.5550  -26.5880   21.6990 C   0  0  0  0  0  2  0  0  0  0  0  0
  -18.1630  -26.7120   22.3240 C   0  0  0  0  0  2  0  0  0  0  0  0
  -19.0400  -28.8640   23.4020 C   0  0  0  0  0  0  0  0  0  0  0  0
  -18.7810  -30.1320   23.9710 C   0  0  0  0  0  3  0  0  0  0  0  0
  -17.4640  -30.6050   24.1120 C   0  0  0  0  0  3  0  0  0  0  0  0
  -16.3850  -29.8050   23.6990 C   0  0  0  0  0  3  0  0  0  0  0  0
  -16.6250  -28.5360   23.1400 C   0  0  0  0  0  3  0  0  0  0  0  0
  -25.7890  -32.5810   23.8540 C   0  0  0  0  0  3  0  0  0  0  0  0
  -26.3280  -31.8110   25.1210 C   0  0  1  0  0  0  0  0  0  0  0  0
  -25.2490  -31.5800   26.2010 C   0  0  0  0  0  1  0  0  0  0  0  0
  -26.9060  -30.4330   24.7210 C   0  0  0  0  0  1  0  0  0  0  0  0
  -27.4860  -32.6060   25.7680 C   0  0  0  0  0  1  0  0  0  0  0  0
  -25.4860  -33.9800   24.1920 N   0  0  0  0  0  0  0  0  0  0  0  0
  -25.8030  -35.0350   23.4290 C   0  0  0  0  0  0  0  0  0  0  0  0
  -26.4470  -34.9370   22.3820 O   0  0  0  0  0  0  0  0  0  0  0  0
  -24.9130  -34.1310   25.0090 H   0  0  0  0  0  0  0  0  0  0  0  0
  -24.0580  -36.8190   23.1260 C   0  0  0  0  0  1  0  0  0  0  0  0
  -25.3250  -36.4200   23.9010 C   0  0  0  0  0  3  0  0  0  0  0  0
  -27.4800  -37.3080   24.6690 C   0  0  0  0  0  1  0  0  0  0  0  0
  -26.3500  -37.4770   23.7610 N   0  0  0  0  0  0  0  0  0  0  0  0
  -25.9420  -38.3960   23.9240 H   0  0  0  0  0  0  0  0  0  0  0  0
  -29.5190  -20.6130   20.6990 C   0  0  0  0  0  2  0  0  0  0  0  0
  -29.1070  -19.0850   20.2200 C   0  0  0  0  0  2  0  0  0  0  0  0
  -32.5460  -17.8800   21.0240 C   0  0  0  0  0  2  0  0  0  0  0  0
  -32.4960  -18.6870   19.7420 C   0  0  0  0  0  2  0  0  0  0  0  0
  -31.0800  -17.7640   21.4570 C   0  0  0  0  0  2  0  0  0  0  0  0
  -31.2210  -18.1840   19.0580 C   0  0  0  0  0  2  0  0  0  0  0  0
  -30.1980  -17.8220   20.1750 C   0  0  2  0  0  0  0  0  0  0  0  0
  -29.6050  -16.2850   19.9660 C   0  0  0  0  0  2  0  0  0  0  0  0
  -30.4740  -14.9030   19.8870 C   0  0  0  0  0  0  0  0  0  0  0  0
  -30.2800  -12.5840   18.9660 C   0  0  0  0  0  2  0  0  0  0  0  0
  -29.2740  -12.6210   17.7900 C   0  0  0  0  0  2  0  0  0  0  0  0
  -27.8310  -12.4320   18.2980 C   0  0  0  0  0  2  0  0  0  0  0  0
  -27.5080  -13.3410   19.5130 C   0  0  0  0  0  3  0  0  0  0  0  0
  -28.6290  -13.2840   20.5720 C   0  0  0  0  0  2  0  0  0  0  0  0
  -29.8920  -13.6520   19.9190 N   0  0  0  0  0  0  0  0  0  0  0  0
  -31.6600  -14.9730   19.5540 O   0  0  0  0  0  0  0  0  0  0  0  0
  -25.1840  -13.9080   20.4390 C   0  0  0  0  0  0  0  0  0  0  0  0
  -24.1470  -13.1230   20.8590 C   0  0  0  0  0  0  0  0  0  0  0  0
  -24.6040  -11.7730   20.7580 C   0  0  0  0  0  0  0  0  0  0  0  0
  -26.2050  -13.0350   20.0960 N   0  0  0  0  0  0  0  0  0  0  0  0
  -25.8690  -11.7460   20.3550 N   0  0  0  0  0  0  0  0  0  0  0  0
  -23.8900  -10.5080   20.9610 C   0  0  0  0  0  0  0  0  0  0  0  0
  -24.3540   -9.5330   21.8720 C   0  0  0  0  0  3  0  0  0  0  0  0
  -23.6380   -8.3310   22.0620 C   0  0  0  0  0  3  0  0  0  0  0  0
  -22.4450   -8.0950   21.3420 C   0  0  0  0  0  0  0  0  0  0  0  0
  -22.0010   -9.0560   20.4160 C   0  0  0  0  0  3  0  0  0  0  0  0
  -22.7190  -10.2490   20.2240 C   0  0  0  0  0  3  0  0  0  0  0  0
  -21.6950   -6.9470   21.4450 O   0  0  0  0  0  0  0  0  0  0  0  0
  -21.6530   -6.2160   22.6060 C   0  0  0  0  0  0  0  0  0  0  0  0
  -21.2220   -6.7820   23.8260 C   0  0  0  0  0  3  0  0  0  0  0  0
  -21.1250   -5.9760   24.9790 C   0  0  0  0  0  3  0  0  0  0  0  0
  -21.4500   -4.6080   24.9140 C   0  0  0  0  0  0  0  0  0  0  0  0
  -21.8720   -4.0430   23.6970 C   0  0  0  0  0  3  0  0  0  0  0  0
  -21.9710   -4.8460   22.5450 C   0  0  0  0  0  0  0  0  0  0  0  0
  -22.3590   -4.2900   21.3730 F   0  0  0  0  0  0  0  0  0  0  0  0
  -21.3510   -3.8330   26.0180 F   0  0  0  0  0  0  0  0  0  0  0  0
  -22.7720  -13.5920   21.2410 C   0  0  0  0  0  0  0  0  0  0  0  0
  -22.0990  -12.8700   22.1300 N   0  0  0  0  0  0  0  0  0  0  0  0
  -22.3040  -14.6320   20.7810 O   0  0  0  0  0  0  0  0  0  0  0  0
  -22.4890  -12.0290   22.5280 H   0  0  0  0  0  0  0  0  0  0  0  0
  -21.1770  -13.1650   22.4190 H   0  0  0  0  0  0  0  0  0  0  0  0
  -25.3390  -15.2830   20.2930 N   0  0  0  0  0  0  0  0  0  0  0  0
  -24.5860  -15.9320   20.4960 H   0  0  0  0  0  0  0  0  0  0  0  0
  -26.1670  -15.7330   19.9240 H   0  0  0  0  0  0  0  0  0  0  0  0
  2  3  1  0
  3 50  1  0
  3  1  2  0
  4  1  1  0
  4  7  1  0
  5  2  2  0
  5  6  1  0
  6  4  2  0
  8  5  1  0
  9 11  1  0
  9  6  1  0
 10 21  2  0
 11 16  1  0
 12 20  1  0
 12 22  1  0
 13 19  1  0
 13 15  1  0
 14 20  1  0
 15 14  1  0
 16 15  2  0
 17 18  1  0
 17 11  2  0
 18 13  2  0
 19 12  1  0
 20 10  1  0
 22 24  2  0
 23 22  1  0
 25 23  1  0
 26 35  2  0
 26 31  1  0
 27 23  1  0
 27 31  1  0
 28 27  1  0
 29 30  1  0
 29 28  1  0
 30 26  1  0
 31 32  2  0
 32 33  1  0
 34 33  2  0
 35 34  1  0
 36 10  1  0
 36 41  1  0
 36 37  1  0
 37 40  1  1
 37 38  1  0
 39 37  1  0
 41 44  1  0
 42 46  1  0
 42 41  1  0
 43 42  2  0
 46 45  1  0
 48 46  1  0
 48 49  1  0
 48 47  1  0
 51 50  1  0
 52 54  1  0
 53 52  1  0
 55 53  1  0
 55 56  1  0
 56 51  1  1
 56 54  1  0
 57 56  1  0
 58 64  1  0
 58 57  1  0
 59 64  1  0
 60 61  1  0
 60 59  1  0
 62 61  1  0
 62 69  1  0
 62 63  1  0
 64 63  1  0
 65 58  2  0
 66 67  2  0
 67 86  1  0
 68 67  1  0
 68 71  1  0
 69 70  1  0
 69 66  1  0
 70 68  2  0
 71 72  1  0
 72 73  2  0
 74 77  1  0
 74 73  1  0
 75 74  2  0
 76 75  1  0
 76 71  2  0
 77 78  1  0
 78 79  1  0
 79 80  2  0
 81 80  1  0
 81 85  1  0
 82 81  2  0
 83 78  2  0
 83 82  1  0
 84 83  1  0
 86 87  1  0
 87 90  1  0
 87 89  1  0
 88 86  2  0
 91 66  1  0
 91 92  1  0
 93 91  1  0
M  ISO  4   6 101   9 101  57 100  58 100
M  END
>  <TORSDO>  (42) 
F 20

>  <SCORE>  (42) 
-13.735

>  <name>  (42) 
41

>  <ligand_id>  (42) 
41

>  <original_smiles>  (42) 
[H]c1c([H])c([H])c2c(c1[H])C([H])([H])C([H])([H])C([H])([H])C2([H])N([H])C(=O)C1([H])N(C(=O)C([H])(N([H])C(=O)C([H])(N([H])C([H])([H])[H])C([H])([H])[H])C(C([H])([H])[H])(C([H])([H])[H])C([H])([H])[H])C([H])([H])c2c([H])c(Oc3c(C([H])([H])[H])c([H])c(C([H])([H])C([H])([H])C4(C([H])([H])C(=O)N5C([H])([H])C([H])([H])C([H])([H])C([H])(n6nc(-c7c([H])c([H])c(Oc8c([H])c([H])c(F)c([H])c8F)c([H])c7[H])c(C(=O)N([H])[H])c6N([H])[H])C5([H])[H])C([H])([H])C([H])([H])C([H])([H])C4([H])[H])c([H])c3C([H])([H])[H])c([H])c([H])c2C1([H])[H]

>  <smiles>  (42) 
[H]c1c([H])c([H])c2c(c1[H])C([H])([H])C([H])([H])C([H])([H])C2([H])N([H])C(=O)C1([H])N(C(=O)C([H])(N([H])C(=O)C([H])(N([H])C([H])([H])[H])C([H])([H])[H])C(C([H])([H])[H])(C([H])([H])[H])C([H])([H])[H])C([H])([H])c2c([H])c(Oc3c(C([H])([H])[H])c([H])c(C([H])([H])C([H])([H])C4(C([H])([H])C(=O)N5C([H])([H])C([H])([H])C([H])([H])C([H])(n6nc(-c7c([H])c([H])c(Oc8c([H])c([H])c(F)c([H])c8F)c([H])c7[H])c(C(=O)N([H])[H])c6N([H])[H])C5([H])[H])C([H])([H])C([H])([H])C([H])([H])C4([H])[H])c([H])c3C([H])([H])[H])c([H])c([H])c2C1([H])[H]

$$$$
42:0:0
     RDKit          3D

 95103  0  0  1  0  0  0  0  0999 V2000
  -27.6180  -21.9690   20.0840 C   0  0  0  0  0  3  0  0  0  0  0  0
  -29.1430  -23.7190   20.7980 C   0  0  0  0  0  3  0  0  0  0  0  0
  -26.9520  -24.3340   19.9990 C   0  0  0  0  0  3  0  0  0  0  0  0
  -28.8680  -22.2640   20.6460 C   0  0  0  0  0  0  0  0  0  0  0  0
  -26.6730  -22.9630   19.7370 C   0  0  0  0  0  0  0  0  0  0  0  0
  -28.2010  -24.8220   20.4730 C   0  0  0  0  0  0  0  0  0  0  0  0
  -24.1830  -23.0910   19.5860 C   0  0  0  0  0  1  0  0  0  0  0  0
  -25.4620  -22.5550   19.1300 N   0  0  0  0  0  0  0  0  0  0  0  0
  -25.2180  -20.4750   17.7950 C   0  0  0  0  0  1  0  0  0  0  0  0
  -25.5070  -21.9800   17.7830 C   0  0  0  0  0  2  0  0  0  0  0  0
  -28.4280  -26.2770   20.6090 O   0  0  0  0  0  0  0  0  0  0  0  0
  -24.9020  -32.0730   23.5120 C   0  0  0  0  0  0  0  0  0  0  0  0
  -27.4110  -27.3000   20.5270 C   0  0  0  0  0  0  0  0  0  0  0  0
  -23.6880  -30.6910   21.8690 C   0  0  0  0  0  3  0  0  0  0  0  0
  -25.1210  -29.0880   20.4580 C   0  0  0  0  0  0  0  0  0  0  0  0
  -26.2450  -30.9020   21.7340 C   0  0  0  0  0  2  0  0  0  0  0  0
  -26.2960  -29.5050   21.0990 C   0  0  0  0  0  0  0  0  0  0  0  0
  -27.4370  -28.6190   21.1300 C   0  0  0  0  0  3  0  0  0  0  0  0
  -26.2440  -27.0280   19.7750 C   0  0  0  0  0  3  0  0  0  0  0  0
  -25.1070  -27.8620   19.7820 C   0  0  0  0  0  3  0  0  0  0  0  0
  -23.9090  -30.0070   20.4940 C   0  0  0  0  0  2  0  0  0  0  0  0
  -24.9630  -31.2460   22.4240 N   0  0  0  0  0  0  0  0  0  0  0  0
  -23.8210  -32.3760   24.0370 O   0  0  0  0  0  0  0  0  0  0  0  0
  -22.9900  -29.6950   22.8300 C   0  0  0  0  0  0  0  0  0  0  0  0
  -21.6820  -29.4560   22.6240 N   0  0  0  0  0  0  0  0  0  0  0  0
  -23.6260  -29.1450   23.7320 O   0  0  0  0  0  0  0  0  0  0  0  0
  -21.2230  -29.9540   21.8730 H   0  0  0  0  0  0  0  0  0  0  0  0
  -18.3400  -28.1030   22.9310 C   0  0  0  0  0  0  0  0  0  0  0  0
  -20.8510  -28.5230   23.3880 C   0  0  0  0  0  3  0  0  0  0  0  0
  -21.0720  -27.0680   22.9130 C   0  0  0  0  0  2  0  0  0  0  0  0
  -20.0750  -26.6240   21.8370 C   0  0  0  0  0  2  0  0  0  0  0  0
  -18.6390  -26.7280   22.3570 C   0  0  0  0  0  2  0  0  0  0  0  0
  -19.3790  -28.9500   23.4000 C   0  0  0  0  0  0  0  0  0  0  0  0
  -19.0480  -30.2300   23.8980 C   0  0  0  0  0  3  0  0  0  0  0  0
  -17.7100  -30.6650   23.9330 C   0  0  0  0  0  3  0  0  0  0  0  0
  -16.6840  -29.8190   23.4780 C   0  0  0  0  0  3  0  0  0  0  0  0
  -16.9980  -28.5410   22.9830 C   0  0  0  0  0  3  0  0  0  0  0  0
  -26.1910  -32.6900   24.1370 C   0  0  0  0  0  3  0  0  0  0  0  0
  -26.6730  -31.9270   25.4320 C   0  0  1  0  0  0  0  0  0  0  0  0
  -25.5480  -31.6800   26.4640 C   0  0  0  0  0  1  0  0  0  0  0  0
  -27.2860  -30.5550   25.0720 C   0  0  0  0  0  1  0  0  0  0  0  0
  -27.7900  -32.7380   26.1330 C   0  0  0  0  0  1  0  0  0  0  0  0
  -25.9080  -34.0990   24.4520 N   0  0  0  0  0  0  0  0  0  0  0  0
  -26.2060  -35.1350   23.6580 C   0  0  0  0  0  0  0  0  0  0  0  0
  -26.8220  -35.0030   22.5970 O   0  0  0  0  0  0  0  0  0  0  0  0
  -25.3700  -34.2740   25.2900 H   0  0  0  0  0  0  0  0  0  0  0  0
  -24.4480  -36.9160   23.3890 C   0  0  0  0  0  1  0  0  0  0  0  0
  -25.7530  -36.5380   24.1110 C   0  0  0  0  0  3  0  0  0  0  0  0
  -27.9430  -37.4530   24.7410 C   0  0  0  0  0  1  0  0  0  0  0  0
  -26.7690  -37.5890   23.8840 N   0  0  0  0  0  0  0  0  0  0  0  0
  -26.3720  -38.5130   24.0370 H   0  0  0  0  0  0  0  0  0  0  0  0
  -29.7760  -20.9740   21.0960 C   0  0  0  0  0  3  0  0  0  0  0  0
  -29.9260  -21.0750   22.5550 N   0  0  0  0  0  4  0  0  0  0  0  0
  -30.1580  -22.0160   22.8100 H   0  0  0  0  0  0  0  0  0  0  0  0
  -30.6570  -20.4720   22.8840 H   0  0  0  0  0  0  0  0  0  0  0  0
  -29.0700  -20.8250   23.0150 H   0  0  0  0  0  0  0  0  0  0  0  0
  -29.3670  -19.3780   20.7250 C   0  0  0  0  0  2  0  0  0  0  0  0
  -30.3050  -18.0030   20.9740 C   0  0  0  0  0  3  0  0  0  0  0  0
  -29.7270  -16.4240   20.9130 C   0  0  0  0  0  3  0  0  0  0  0  0
  -30.6030  -15.0370   20.7000 C   0  0  0  0  0  0  0  0  0  0  0  0
  -30.5580  -12.6960   19.7240 C   0  0  0  0  0  2  0  0  0  0  0  0
  -29.6820  -12.6860   18.4520 C   0  0  0  0  0  2  0  0  0  0  0  0
  -28.1990  -12.4570   18.8110 C   0  0  0  0  0  2  0  0  0  0  0  0
  -27.7260  -13.3670   19.9740 C   0  0  0  0  0  3  0  0  0  0  0  0
  -28.7320  -13.3580   21.1450 C   0  0  0  0  0  2  0  0  0  0  0  0
  -30.0460  -13.7630   20.6260 N   0  0  0  0  0  0  0  0  0  0  0  0
  -31.8100  -15.1380   20.4430 O   0  0  0  0  0  0  0  0  0  0  0  0
  -25.3000  -13.9000   20.6100 C   0  0  0  0  0  0  0  0  0  0  0  0
  -24.2350  -13.1040   20.9350 C   0  0  0  0  0  0  0  0  0  0  0  0
  -24.7280  -11.7640   20.9340 C   0  0  0  0  0  0  0  0  0  0  0  0
  -26.3710  -13.0430   20.4140 N   0  0  0  0  0  0  0  0  0  0  0  0
  -26.0320  -11.7530   20.6790 N   0  0  0  0  0  0  0  0  0  0  0  0
  -24.0200  -10.4880   21.1010 C   0  0  0  0  0  0  0  0  0  0  0  0
  -24.4260   -9.5340   22.0600 C   0  0  0  0  0  3  0  0  0  0  0  0
  -23.7140   -8.3250   22.2120 C   0  0  0  0  0  3  0  0  0  0  0  0
  -22.5850   -8.0590   21.4020 C   0  0  0  0  0  0  0  0  0  0  0  0
  -22.1990   -9.0030   20.4340 C   0  0  0  0  0  3  0  0  0  0  0  0
  -22.9120  -10.2030   20.2800 C   0  0  0  0  0  3  0  0  0  0  0  0
  -21.8470   -6.9020   21.4620 O   0  0  0  0  0  0  0  0  0  0  0  0
  -21.7510   -6.1680   22.6170 C   0  0  0  0  0  0  0  0  0  0  0  0
  -21.2370   -6.7210   23.8100 C   0  0  0  0  0  3  0  0  0  0  0  0
  -21.0870   -5.9110   24.9540 C   0  0  0  0  0  3  0  0  0  0  0  0
  -21.4450   -4.5500   24.9070 C   0  0  0  0  0  0  0  0  0  0  0  0
  -21.9550   -3.9990   23.7190 C   0  0  0  0  0  3  0  0  0  0  0  0
  -22.1030   -4.8040   22.5770 C   0  0  0  0  0  0  0  0  0  0  0  0
  -22.5730   -4.2600   21.4290 F   0  0  0  0  0  0  0  0  0  0  0  0
  -21.2980   -3.7710   26.0040 F   0  0  0  0  0  0  0  0  0  0  0  0
  -22.8170  -13.5530   21.1350 C   0  0  0  0  0  0  0  0  0  0  0  0
  -22.0680  -12.8610   21.9870 N   0  0  0  0  0  0  0  0  0  0  0  0
  -22.3780  -14.5570   20.5760 O   0  0  0  0  0  0  0  0  0  0  0  0
  -22.4390  -12.0560   22.4710 H   0  0  0  0  0  0  0  0  0  0  0  0
  -21.1140  -13.1460   22.1590 H   0  0  0  0  0  0  0  0  0  0  0  0
  -25.4490  -15.2730   20.4400 N   0  0  0  0  0  0  0  0  0  0  0  0
  -24.6720  -15.9190   20.5280 H   0  0  0  0  0  0  0  0  0  0  0  0
  -26.3120  -15.7290   20.1750 H   0  0  0  0  0  0  0  0  0  0  0  0
  1  4  1  0
  3  6  2  0
  4  2  2  0
  4 52  1  0
  5  3  1  0
  5  1  2  0
  6 11  1  0
  6  2  1  0
  8  7  1  0
  8  5  1  0
 10  9  1  0
 10  8  1  0
 12 23  2  0
 13 11  1  0
 13 18  1  0
 14 22  1  0
 14 24  1  0
 15 21  1  0
 15 17  1  0
 16 22  1  0
 17 18  2  0
 17 16  1  0
 19 20  1  0
 19 13  2  0
 20 15  2  0
 21 14  1  0
 22 12  1  0
 24 26  2  0
 25 24  1  0
 27 25  1  0
 28 37  2  0
 28 33  1  0
 29 25  1  0
 29 33  1  0
 30 29  1  0
 31 32  1  0
 31 30  1  0
 32 28  1  0
 33 34  2  0
 34 35  1  0
 36 35  2  0
 37 36  1  0
 38 12  1  0
 38 43  1  0
 38 39  1  0
 39 42  1  1
 39 40  1  0
 41 39  1  0
 43 46  1  0
 44 48  1  0
 44 43  1  0
 45 44  2  0
 48 47  1  0
 50 51  1  0
 50 48  1  0
 50 49  1  0
 52 57  1  0
 52 53  1  0
 53 54  1  0
 53 55  1  0
 53 56  1  0
 57 58  1  0
 59 58  2  0
 60 59  1  0
 61 66  1  0
 62 63  1  0
 62 61  1  0
 64 63  1  0
 64 71  1  0
 64 65  1  0
 66 60  1  0
 66 65  1  0
 67 60  2  0
 68 69  2  0
 69 88  1  0
 70 69  1  0
 70 73  1  0
 71 68  1  0
 71 72  1  0
 72 70  2  0
 73 74  1  0
 74 75  2  0
 76 79  1  0
 76 75  1  0
 77 76  2  0
 78 77  1  0
 78 73  2  0
 79 80  1  0
 80 81  1  0
 81 82  2  0
 83 82  1  0
 83 87  1  0
 84 83  2  0
 85 80  2  0
 85 84  1  0
 86 85  1  0
 88 89  1  0
 89 92  1  0
 89 91  1  0
 90 88  2  0
 93 94  1  0
 93 68  1  0
 95 93  1  0
M  ISO  4   6 101  11 101  59 100  60 100
M  END
>  <TORSDO>  (43) 
F 23

>  <SCORE>  (43) 
-13.000

>  <name>  (43) 
42

>  <ligand_id>  (43) 
42

>  <original_smiles>  (43) 
[H]c1c([H])c([H])c2c(c1[H])C([H])([H])C([H])([H])C([H])([H])C2([H])N([H])C(=O)C1([H])N(C(=O)C([H])(N([H])C(=O)C([H])(N([H])C([H])([H])[H])C([H])([H])[H])C(C([H])([H])[H])(C([H])([H])[H])C([H])([H])[H])C([H])([H])c2c([H])c(Oc3c([H])c(N(C([H])([H])[H])C([H])([H])C([H])([H])[H])c([H])c(C([H])(C([H])([H])C([H])([H])C([H])([H])C(=O)N4C([H])([H])C([H])([H])C([H])([H])C([H])(n5nc(-c6c([H])c([H])c(Oc7c([H])c([H])c(F)c([H])c7F)c([H])c6[H])c(C(=O)N([H])[H])c5N([H])[H])C4([H])[H])[N+]([H])([H])[H])c3[H])c([H])c([H])c2C1([H])[H]

>  <smiles>  (43) 
[H]c1c([H])c([H])c2c(c1[H])C([H])([H])C([H])([H])C([H])([H])C2([H])N([H])C(=O)C1([H])N(C(=O)C([H])(N([H])C(=O)C([H])(N([H])C([H])([H])[H])C([H])([H])[H])C(C([H])([H])[H])(C([H])([H])[H])C([H])([H])[H])C([H])([H])c2c([H])c(Oc3c([H])c(N(C([H])([H])[H])C([H])([H])C([H])([H])[H])c([H])c(C([H])(C([H])([H])C([H])([H])C([H])([H])C(=O)N4C([H])([H])C([H])([H])C([H])([H])C([H])(n5nc(-c6c([H])c([H])c(Oc7c([H])c([H])c(F)c([H])c7F)c([H])c6[H])c(C(=O)N([H])[H])c5N([H])[H])C4([H])[H])[N+]([H])([H])[H])c3[H])c([H])c([H])c2C1([H])[H]

$$$$
43:0:0
     RDKit          3D

 91100  0  0  1  0  0  0  0  0999 V2000
  -30.2260  -22.9150   22.3690 C   0  0  0  0  0  3  0  0  0  0  0  0
  -30.1960  -21.5900   21.8890 C   0  0  0  0  0  3  0  0  0  0  0  0
  -29.5200  -23.9520   21.7340 C   0  0  0  0  0  3  0  0  0  0  0  0
  -28.7310  -22.3090   20.1100 C   0  0  0  0  0  3  0  0  0  0  0  0
  -29.4340  -21.2020   20.7570 C   0  0  0  0  0  0  0  0  0  0  0  0
  -28.7700  -23.7000   20.5740 C   0  0  0  0  0  0  0  0  0  0  0  0
  -30.5980  -14.8410   20.3070 C   0  0  0  0  0  0  0  0  0  0  0  0
  -30.4140  -12.5430   19.3390 C   0  0  0  0  0  2  0  0  0  0  0  0
  -29.4700  -12.5720   18.1200 C   0  0  0  0  0  2  0  0  0  0  0  0
  -28.0060  -12.3800   18.5660 C   0  0  0  0  0  2  0  0  0  0  0  0
  -27.6210  -13.2890   19.7660 C   0  0  0  0  0  3  0  0  0  0  0  0
  -28.6880  -13.2610   20.8800 C   0  0  0  0  0  2  0  0  0  0  0  0
  -29.9670  -13.6150   20.2590 N   0  0  0  0  0  0  0  0  0  0  0  0
  -31.8030  -14.9030   20.0500 O   0  0  0  0  0  0  0  0  0  0  0  0
  -28.4150  -17.7210   18.8820 C   0  0  0  0  0  2  0  0  0  0  0  0
  -28.2070  -18.9470   19.8460 C   0  0  0  0  0  2  0  0  0  0  0  0
  -30.3040  -18.5820   21.1620 C   0  0  0  0  0  2  0  0  0  0  0  0
  -29.6500  -16.7450   19.0160 C   0  0  0  0  0  2  0  0  0  0  0  0
  -29.8640  -17.0390   21.3940 C   0  0  0  0  0  2  0  0  0  0  0  0
  -29.5110  -19.6570   20.2610 C   0  0  0  0  0  3  0  0  0  0  0  0
  -29.8260  -16.0170   20.2930 N   0  0  0  0  0  0  0  0  0  0  0  0
  -25.2370  -13.8570   20.5250 C   0  0  0  0  0  0  0  0  0  0  0  0
  -24.1790  -13.0720   20.8970 C   0  0  0  0  0  0  0  0  0  0  0  0
  -24.6530  -11.7250   20.8570 C   0  0  0  0  0  0  0  0  0  0  0  0
  -26.2860  -12.9860   20.2750 N   0  0  0  0  0  0  0  0  0  0  0  0
  -25.9430  -11.6990   20.5410 N   0  0  0  0  0  0  0  0  0  0  0  0
  -23.9370  -10.4550   21.0460 C   0  0  0  0  0  0  0  0  0  0  0  0
  -24.3790   -9.4870   21.9740 C   0  0  0  0  0  3  0  0  0  0  0  0
  -23.6590   -8.2850   22.1530 C   0  0  0  0  0  3  0  0  0  0  0  0
  -22.4840   -8.0430   21.4020 C   0  0  0  0  0  0  0  0  0  0  0  0
  -22.0610   -9.0000   20.4630 C   0  0  0  0  0  3  0  0  0  0  0  0
  -22.7820  -10.1930   20.2830 C   0  0  0  0  0  3  0  0  0  0  0  0
  -21.7360   -6.8930   21.4900 O   0  0  0  0  0  0  0  0  0  0  0  0
  -21.6940   -6.1470   22.6390 C   0  0  0  0  0  0  0  0  0  0  0  0
  -21.2510   -6.6920   23.8660 C   0  0  0  0  0  3  0  0  0  0  0  0
  -21.1540   -5.8710   25.0070 C   0  0  0  0  0  3  0  0  0  0  0  0
  -21.4960   -4.5080   24.9240 C   0  0  0  0  0  0  0  0  0  0  0  0
  -21.9360   -3.9640   23.7040 C   0  0  0  0  0  3  0  0  0  0  0  0
  -22.0310   -4.7810   22.5650 C   0  0  0  0  0  0  0  0  0  0  0  0
  -22.4310   -4.2460   21.3870 F   0  0  0  0  0  0  0  0  0  0  0  0
  -21.3980   -3.7180   26.0190 F   0  0  0  0  0  0  0  0  0  0  0  0
  -22.7800  -13.5370   21.1750 C   0  0  0  0  0  0  0  0  0  0  0  0
  -22.0590  -12.8340   22.0410 N   0  0  0  0  0  0  0  0  0  0  0  0
  -22.3310  -14.5610   20.6590 O   0  0  0  0  0  0  0  0  0  0  0  0
  -22.4330  -12.0110   22.4880 H   0  0  0  0  0  0  0  0  0  0  0  0
  -21.1180  -13.1280   22.2630 H   0  0  0  0  0  0  0  0  0  0  0  0
  -25.3920  -15.2300   20.3530 N   0  0  0  0  0  0  0  0  0  0  0  0
  -24.6300  -15.8840   20.4940 H   0  0  0  0  0  0  0  0  0  0  0  0
  -26.2530  -15.6790   20.0670 H   0  0  0  0  0  0  0  0  0  0  0  0
  -27.9480  -24.9100   19.9480 C   0  0  0  0  0  2  0  0  0  0  0  0
  -28.2250  -26.3610   20.2860 O   0  0  0  0  0  0  0  0  0  0  0  0
  -24.6120  -31.9450   23.2370 C   0  0  0  0  0  0  0  0  0  0  0  0
  -27.1640  -27.2990   20.1920 C   0  0  0  0  0  0  0  0  0  0  0  0
  -23.3950  -30.5440   21.6130 C   0  0  0  0  0  3  0  0  0  0  0  0
  -24.8290  -28.9830   20.1810 C   0  0  0  0  0  0  0  0  0  0  0  0
  -25.9430  -30.8280   21.4240 C   0  0  0  0  0  2  0  0  0  0  0  0
  -26.0090  -29.4450   20.7770 C   0  0  0  0  0  0  0  0  0  0  0  0
  -27.1780  -28.6150   20.7760 C   0  0  0  0  0  3  0  0  0  0  0  0
  -25.9650  -26.9280   19.5380 C   0  0  0  0  0  3  0  0  0  0  0  0
  -24.8140  -27.7330   19.5500 C   0  0  0  0  0  3  0  0  0  0  0  0
  -23.6000  -29.8680   20.2330 C   0  0  0  0  0  2  0  0  0  0  0  0
  -24.6700  -31.1240   22.1460 N   0  0  0  0  0  0  0  0  0  0  0  0
  -23.5320  -32.2330   23.7730 O   0  0  0  0  0  0  0  0  0  0  0  0
  -22.7300  -29.5350   22.5790 C   0  0  0  0  0  0  0  0  0  0  0  0
  -21.4030  -29.3600   22.4560 N   0  0  0  0  0  0  0  0  0  0  0  0
  -23.4070  -28.9140   23.4020 O   0  0  0  0  0  0  0  0  0  0  0  0
  -20.9140  -29.9120   21.7650 H   0  0  0  0  0  0  0  0  0  0  0  0
  -18.0230  -28.1740   22.9730 C   0  0  0  0  0  0  0  0  0  0  0  0
  -20.5820  -28.4300   23.2350 C   0  0  0  0  0  3  0  0  0  0  0  0
  -20.6790  -26.9930   22.6730 C   0  0  0  0  0  2  0  0  0  0  0  0
  -19.5750  -26.6660   21.6630 C   0  0  0  0  0  2  0  0  0  0  0  0
  -18.1940  -26.8190   22.3090 C   0  0  0  0  0  2  0  0  0  0  0  0
  -19.1440  -28.9380   23.3940 C   0  0  0  0  0  0  0  0  0  0  0  0
  -18.9280  -30.2050   23.9770 C   0  0  0  0  0  3  0  0  0  0  0  0
  -17.6260  -30.7110   24.1400 C   0  0  0  0  0  3  0  0  0  0  0  0
  -16.5190  -29.9460   23.7360 C   0  0  0  0  0  3  0  0  0  0  0  0
  -16.7180  -28.6790   23.1590 C   0  0  0  0  0  3  0  0  0  0  0  0
  -25.8990  -32.5770   23.8480 C   0  0  0  0  0  3  0  0  0  0  0  0
  -25.5960  -33.9780   24.1720 N   0  0  0  0  0  0  0  0  0  0  0  0
  -25.9170  -35.0250   23.3990 C   0  0  0  0  0  0  0  0  0  0  0  0
  -26.5660  -34.9120   22.3570 O   0  0  0  0  0  0  0  0  0  0  0  0
  -25.0150  -34.1410   24.9810 H   0  0  0  0  0  0  0  0  0  0  0  0
  -24.1790  -36.8150   23.0730 C   0  0  0  0  0  1  0  0  0  0  0  0
  -25.4410  -36.4180   23.8570 C   0  0  0  0  0  3  0  0  0  0  0  0
  -27.5940  -37.3110   24.6270 C   0  0  0  0  0  1  0  0  0  0  0  0
  -26.4710  -37.4700   23.7080 N   0  0  0  0  0  0  0  0  0  0  0  0
  -26.0680  -38.3920   23.8550 H   0  0  0  0  0  0  0  0  0  0  0  0
  -26.4180  -31.8130   25.1290 C   0  0  1  0  0  0  0  0  0  0  0  0
  -25.3270  -31.5880   26.2030 C   0  0  0  0  0  1  0  0  0  0  0  0
  -26.9910  -30.4280   24.7480 C   0  0  0  0  0  1  0  0  0  0  0  0
  -27.5750  -32.6070   25.7800 C   0  0  0  0  0  1  0  0  0  0  0  0
  2  1  1  0
  3  1  2  0
  4  6  2  0
  4  5  1  0
  5  2  2  0
  6  3  1  0
  8 13  1  0
  9 10  1  0
  9  8  1  0
 11 10  1  0
 11 25  1  0
 11 12  1  0
 13  7  1  0
 13 12  1  0
 14  7  2  0
 15 18  1  0
 15 16  1  0
 16 20  1  0
 17 19  1  0
 18 21  1  0
 20  5  1  0
 20 17  1  0
 21  7  1  0
 21 19  1  0
 22 23  2  0
 23 42  1  0
 24 23  1  0
 24 27  1  0
 25 22  1  0
 25 26  1  0
 26 24  2  0
 27 28  1  0
 28 29  2  0
 30 33  1  0
 30 29  1  0
 31 30  2  0
 32 31  1  0
 32 27  2  0
 33 34  1  0
 34 35  1  0
 35 36  2  0
 37 36  1  0
 37 41  1  0
 38 37  2  0
 39 34  2  0
 39 38  1  0
 40 39  1  0
 42 43  1  0
 43 46  1  0
 43 45  1  0
 44 42  2  0
 47 48  1  0
 47 22  1  0
 49 47  1  0
 50 51  1  0
 50  6  1  0
 52 63  2  0
 53 51  1  0
 53 58  1  0
 54 62  1  0
 54 64  1  0
 55 61  1  0
 55 57  1  0
 56 62  1  0
 57 56  1  0
 58 57  2  0
 59 60  1  0
 59 53  2  0
 60 55  2  0
 61 54  1  0
 62 52  1  0
 64 66  2  0
 65 64  1  0
 67 65  1  0
 68 77  2  0
 68 73  1  0
 69 65  1  0
 69 73  1  0
 70 69  1  0
 71 72  1  0
 71 70  1  0
 72 68  1  0
 73 74  2  0
 74 75  1  0
 76 75  2  0
 77 76  1  0
 78 52  1  0
 78 79  1  0
 78 88  1  0
 79 82  1  0
 80 84  1  0
 80 79  1  0
 81 80  2  0
 84 83  1  0
 86 87  1  0
 86 84  1  0
 86 85  1  0
 88 91  1  1
 88 89  1  0
 90 88  1  0
M  ISO  4   7 100  21 100  50 101  51 101
M  END
>  <TORSDO>  (44) 
F 17

>  <SCORE>  (44) 
-15.559

>  <name>  (44) 
43

>  <ligand_id>  (44) 
43

>  <original_smiles>  (44) 
[H]c1c([H])c([H])c2c(c1[H])C([H])([H])C([H])([H])C([H])([H])C2([H])N([H])C(=O)C1([H])N(C(=O)C([H])(N([H])C(=O)C([H])(N([H])C([H])([H])[H])C([H])([H])[H])C(C([H])([H])[H])(C([H])([H])[H])C([H])([H])[H])C([H])([H])c2c([H])c(OC([H])([H])c3c([H])c([H])c([H])c(C4([H])C([H])([H])C([H])([H])N(C(=O)N5C([H])([H])C([H])([H])C([H])([H])C([H])(n6nc(-c7c([H])c([H])c(Oc8c([H])c([H])c(F)c([H])c8F)c([H])c7[H])c(C(=O)N([H])[H])c6N([H])[H])C5([H])[H])C([H])([H])C([H])([H])C4([H])[H])c3[H])c([H])c([H])c2C1([H])[H]

>  <smiles>  (44) 
[H]c1c([H])c([H])c2c(c1[H])C([H])([H])C([H])([H])C([H])([H])C2([H])N([H])C(=O)C1([H])N(C(=O)C([H])(N([H])C(=O)C([H])(N([H])C([H])([H])[H])C([H])([H])[H])C(C([H])([H])[H])(C([H])([H])[H])C([H])([H])[H])C([H])([H])c2c([H])c(OC([H])([H])c3c([H])c([H])c([H])c(C4([H])C([H])([H])C([H])([H])N(C(=O)N5C([H])([H])C([H])([H])C([H])([H])C([H])(n6nc(-c7c([H])c([H])c(Oc8c([H])c([H])c(F)c([H])c8F)c([H])c7[H])c(C(=O)N([H])[H])c6N([H])[H])C5([H])[H])C([H])([H])C([H])([H])C4([H])[H])c3[H])c([H])c([H])c2C1([H])[H]

$$$$
44:0:0
     RDKit          3D

 97106  0  0  1  0  0  0  0  0999 V2000
  -29.6000  -19.7440   20.4500 C   0  0  0  0  0  3  0  0  0  0  0  0
  -32.2170  -18.9350   19.8440 C   0  0  0  0  0  3  0  0  0  0  0  0
  -29.9930  -18.3970   20.6460 C   0  0  0  0  0  0  0  0  0  0  0  0
  -31.2970  -17.9770   20.3200 C   0  0  0  0  0  0  0  0  0  0  0  0
  -30.5080  -20.6970   19.9250 C   0  0  0  0  0  0  0  0  0  0  0  0
  -31.8320  -20.2770   19.6490 C   0  0  0  0  0  0  0  0  0  0  0  0
  -29.0230  -17.3710   21.1810 C   0  0  0  0  0  2  0  0  0  0  0  0
  -31.7420  -16.5180   20.4960 C   0  0  0  0  0  2  0  0  0  0  0  0
  -29.2080  -16.0200   20.4750 C   0  0  0  0  0  2  0  0  0  0  0  0
  -30.6270  -15.3770   20.6000 C   0  0  1  0  0  0  0  0  0  0  0  0
  -32.7430  -21.1600   19.1720 F   0  0  0  0  0  0  0  0  0  0  0  0
  -30.7970  -14.3010   19.4400 C   0  0  0  0  0  0  0  0  0  0  0  0
  -30.1280  -12.3060   18.1100 C   0  0  0  0  0  2  0  0  0  0  0  0
  -28.9770  -12.6310   17.1380 C   0  0  0  0  0  2  0  0  0  0  0  0
  -27.6120  -12.4600   17.8300 C   0  0  0  0  0  2  0  0  0  0  0  0
  -27.5600  -13.1820   19.1980 C   0  0  0  0  0  3  0  0  0  0  0  0
  -28.7990  -12.8250   20.0480 C   0  0  0  0  0  2  0  0  0  0  0  0
  -30.0070  -13.1900   19.2910 N   0  0  0  0  0  0  0  0  0  0  0  0
  -31.6860  -14.5050   18.6070 O   0  0  0  0  0  0  0  0  0  0  0  0
  -25.3820  -13.7810   20.4370 C   0  0  0  0  0  0  0  0  0  0  0  0
  -24.3760  -13.0030   20.9410 C   0  0  0  0  0  0  0  0  0  0  0  0
  -24.7560  -11.6500   20.6850 C   0  0  0  0  0  0  0  0  0  0  0  0
  -26.3170  -12.9000   19.9130 N   0  0  0  0  0  0  0  0  0  0  0  0
  -25.9530  -11.6090   20.1150 N   0  0  0  0  0  0  0  0  0  0  0  0
  -24.0240  -10.3960   20.8950 C   0  0  0  0  0  0  0  0  0  0  0  0
  -24.5050   -9.3960   21.7700 C   0  0  0  0  0  3  0  0  0  0  0  0
  -23.7740   -8.2060   21.9680 C   0  0  0  0  0  3  0  0  0  0  0  0
  -22.5490   -8.0050   21.2910 C   0  0  0  0  0  0  0  0  0  0  0  0
  -22.0850   -8.9920   20.4020 C   0  0  0  0  0  3  0  0  0  0  0  0
  -22.8160  -10.1750   20.2020 C   0  0  0  0  0  3  0  0  0  0  0  0
  -21.7830   -6.8680   21.4010 O   0  0  0  0  0  0  0  0  0  0  0  0
  -21.7140   -6.1600   22.5740 C   0  0  0  0  0  0  0  0  0  0  0  0
  -21.2860   -6.7560   23.7800 C   0  0  0  0  0  3  0  0  0  0  0  0
  -21.1620   -5.9740   24.9450 C   0  0  0  0  0  3  0  0  0  0  0  0
  -21.4560   -4.5980   24.9070 C   0  0  0  0  0  0  0  0  0  0  0  0
  -21.8760   -4.0010   23.7050 C   0  0  0  0  0  3  0  0  0  0  0  0
  -22.0010   -4.7800   22.5410 C   0  0  0  0  0  0  0  0  0  0  0  0
  -22.3870   -4.1960   21.3800 F   0  0  0  0  0  0  0  0  0  0  0  0
  -21.3290   -3.8450   26.0240 F   0  0  0  0  0  0  0  0  0  0  0  0
  -23.0860  -13.4850   21.5420 C   0  0  0  0  0  0  0  0  0  0  0  0
  -22.5430  -12.7480   22.5030 N   0  0  0  0  0  0  0  0  0  0  0  0
  -22.5760  -14.5500   21.1920 O   0  0  0  0  0  0  0  0  0  0  0  0
  -22.9700  -11.8850   22.8030 H   0  0  0  0  0  0  0  0  0  0  0  0
  -21.6860  -13.0510   22.9450 H   0  0  0  0  0  0  0  0  0  0  0  0
  -25.5720  -15.1580   20.3630 N   0  0  0  0  0  0  0  0  0  0  0  0
  -24.8660  -15.8150   20.6780 H   0  0  0  0  0  0  0  0  0  0  0  0
  -26.3490  -15.6050   19.8960 H   0  0  0  0  0  0  0  0  0  0  0  0
  -31.8760  -13.6550   22.1720 C   0  0  0  0  0  1  0  0  0  0  0  0
  -30.8030  -14.7520   22.0290 C   0  0  0  0  0  2  0  0  0  0  0  0
  -28.8450  -22.1230   18.6350 C   0  0  0  0  0  1  0  0  0  0  0  0
  -30.0660  -22.1300   19.5730 C   0  0  0  0  0  3  0  0  0  0  0  0
  -29.8510  -22.9810   20.7750 N   0  0  0  0  0  4  0  0  0  0  0  0
  -29.0420  -22.6710   21.2900 H   0  0  0  0  0  0  0  0  0  0  0  0
  -30.6450  -22.8040   21.3720 H   0  0  0  0  0  0  0  0  0  0  0  0
  -29.8250  -24.4630   20.5620 C   0  0  0  0  0  2  0  0  0  0  0  0
  -28.4410  -25.0500   20.1890 C   0  0  0  0  0  2  0  0  0  0  0  0
  -28.5280  -26.4780   20.0470 O   0  0  0  0  0  0  0  0  0  0  0  0
  -24.7330  -31.6770   23.0600 C   0  0  0  0  0  0  0  0  0  0  0  0
  -27.3400  -27.1840   20.0270 C   0  0  0  0  0  0  0  0  0  0  0  0
  -23.5000  -30.2320   21.4760 C   0  0  0  0  0  3  0  0  0  0  0  0
  -24.9320  -28.6740   20.0510 C   0  0  0  0  0  0  0  0  0  0  0  0
  -26.0170  -30.6080   21.2090 C   0  0  0  0  0  2  0  0  0  0  0  0
  -26.0980  -29.2230   20.5970 C   0  0  0  0  0  0  0  0  0  0  0  0
  -27.3060  -28.4890   20.5740 C   0  0  0  0  0  3  0  0  0  0  0  0
  -26.1540  -26.6490   19.4760 C   0  0  0  0  0  3  0  0  0  0  0  0
  -24.9540  -27.3880   19.4870 C   0  0  0  0  0  3  0  0  0  0  0  0
  -23.6830  -29.5250   20.1070 C   0  0  0  0  0  2  0  0  0  0  0  0
  -24.7690  -30.8550   21.9730 N   0  0  0  0  0  0  0  0  0  0  0  0
  -23.6630  -31.9540   23.6190 O   0  0  0  0  0  0  0  0  0  0  0  0
  -22.8780  -29.2280   22.4730 C   0  0  0  0  0  0  0  0  0  0  0  0
  -21.5630  -28.9910   22.3430 N   0  0  0  0  0  0  0  0  0  0  0  0
  -23.5770  -28.6610   23.3190 O   0  0  0  0  0  0  0  0  0  0  0  0
  -21.0580  -29.5030   21.6320 H   0  0  0  0  0  0  0  0  0  0  0  0
  -18.2360  -27.6710   22.8390 C   0  0  0  0  0  0  0  0  0  0  0  0
  -20.7740  -28.0560   23.1450 C   0  0  0  0  0  3  0  0  0  0  0  0
  -20.9510  -26.6050   22.6430 C   0  0  0  0  0  2  0  0  0  0  0  0
  -19.8850  -26.1840   21.6260 C   0  0  0  0  0  2  0  0  0  0  0  0
  -18.4850  -26.2990   22.2360 C   0  0  0  0  0  2  0  0  0  0  0  0
  -19.3110  -28.5020   23.2510 C   0  0  0  0  0  0  0  0  0  0  0  0
  -19.0250  -29.7830   23.7730 C   0  0  0  0  0  3  0  0  0  0  0  0
  -17.6970  -30.2340   23.8880 C   0  0  0  0  0  3  0  0  0  0  0  0
  -16.6360  -29.4010   23.4930 C   0  0  0  0  0  3  0  0  0  0  0  0
  -16.9070  -28.1220   22.9750 C   0  0  0  0  0  3  0  0  0  0  0  0
  -26.0290  -32.3300   23.6360 C   0  0  0  0  0  3  0  0  0  0  0  0
  -25.6880  -33.6940   24.0570 N   0  0  0  0  0  0  0  0  0  0  0  0
  -25.9470  -34.7970   23.3410 C   0  0  0  0  0  0  0  0  0  0  0  0
  -26.5690  -34.7740   22.2760 O   0  0  0  0  0  0  0  0  0  0  0  0
  -25.1290  -33.7840   24.8920 H   0  0  0  0  0  0  0  0  0  0  0  0
  -24.1490  -36.5460   23.1510 C   0  0  0  0  0  1  0  0  0  0  0  0
  -25.4320  -36.1390   23.8960 C   0  0  0  0  0  3  0  0  0  0  0  0
  -27.5620  -37.0490   24.7080 C   0  0  0  0  0  1  0  0  0  0  0  0
  -26.4240  -37.2310   23.8100 N   0  0  0  0  0  0  0  0  0  0  0  0
  -25.9940  -38.1270   24.0220 H   0  0  0  0  0  0  0  0  0  0  0  0
  -26.6560  -31.5160   24.8330 C   0  0  1  0  0  0  0  0  0  0  0  0
  -25.6280  -31.1130   25.9160 C   0  0  0  0  0  1  0  0  0  0  0  0
  -27.3330  -30.2240   24.3200 C   0  0  0  0  0  1  0  0  0  0  0  0
  -27.7630  -32.3560   25.5160 C   0  0  0  0  0  1  0  0  0  0  0  0
  1  3  1  0
  2  4  1  0
  3  7  1  0
  4  8  1  0
  4  3  2  0
  5  1  2  0
  6  2  2  0
  6  5  1  0
  8 10  1  0
  9 10  1  0
  9  7  1  0
 10 49  1  1
 11  6  1  0
 12 10  1  0
 13 18  1  0
 14 15  1  0
 14 13  1  0
 16 15  1  0
 16 23  1  0
 16 17  1  0
 18 12  1  0
 18 17  1  0
 19 12  2  0
 20 21  2  0
 21 40  1  0
 22 25  1  0
 22 21  1  0
 23 24  1  0
 23 20  1  0
 24 22  2  0
 25 26  1  0
 26 27  2  0
 28 31  1  0
 28 27  1  0
 29 28  2  0
 30 29  1  0
 30 25  2  0
 31 32  1  0
 32 33  1  0
 33 34  2  0
 35 34  1  0
 35 39  1  0
 36 35  2  0
 37 32  2  0
 37 36  1  0
 38 37  1  0
 40 41  1  0
 41 43  1  0
 41 44  1  0
 42 40  2  0
 45 20  1  0
 45 46  1  0
 47 45  1  0
 49 48  1  0
 51 50  1  0
 51  5  1  0
 51 52  1  0
 52 53  1  0
 52 54  1  0
 55 52  1  0
 56 55  1  0
 57 56  1  0
 58 69  2  0
 59 57  1  0
 59 64  1  0
 60 68  1  0
 60 70  1  0
 61 67  1  0
 61 63  1  0
 62 68  1  0
 63 62  1  0
 64 63  2  0
 65 66  1  0
 65 59  2  0
 66 61  2  0
 67 60  1  0
 68 58  1  0
 70 72  2  0
 71 70  1  0
 73 71  1  0
 74 83  2  0
 74 79  1  0
 75 71  1  0
 75 79  1  0
 76 75  1  0
 77 78  1  0
 77 76  1  0
 78 74  1  0
 79 80  2  0
 80 81  1  0
 82 81  2  0
 83 82  1  0
 84 58  1  0
 84 85  1  0
 84 94  1  0
 85 88  1  0
 86 90  1  0
 86 85  1  0
 87 86  2  0
 90 89  1  0
 92 90  1  0
 92 93  1  0
 92 91  1  0
 94 97  1  1
 94 95  1  0
 96 94  1  0
M  ISO  4  10 100  12 100  56 101  57 101
M  END
>  <TORSDO>  (45) 
F 21

>  <SCORE>  (45) 
-10.623

>  <name>  (45) 
44

>  <ligand_id>  (45) 
44

>  <original_smiles>  (45) 
[H]c1c([H])c([H])c2c(c1[H])C([H])([H])C([H])([H])C([H])([H])C2([H])N([H])C(=O)C1([H])N(C(=O)C([H])(N([H])C(=O)C([H])(N([H])C([H])([H])[H])C([H])([H])[H])C(C([H])([H])[H])(C([H])([H])[H])C([H])([H])[H])C([H])([H])c2c([H])c(OC([H])([H])C([H])([H])[N+]([H])([H])C([H])(c3c([H])c4c(c([H])c3F)C([H])([H])C(C(=O)N3C([H])([H])C([H])([H])C([H])([H])C([H])(n5nc(-c6c([H])c([H])c(Oc7c([H])c([H])c(F)c([H])c7F)c([H])c6[H])c(C(=O)N([H])[H])c5N([H])[H])C3([H])[H])(C([H])([H])C([H])([H])[H])C([H])([H])C4([H])[H])C([H])([H])[H])c([H])c([H])c2C1([H])[H]

>  <smiles>  (45) 
[H]c1c([H])c([H])c2c(c1[H])C([H])([H])C([H])([H])C([H])([H])C2([H])N([H])C(=O)C1([H])N(C(=O)C([H])(N([H])C(=O)C([H])(N([H])C([H])([H])[H])C([H])([H])[H])C(C([H])([H])[H])(C([H])([H])[H])C([H])([H])[H])C([H])([H])c2c([H])c(OC([H])([H])C([H])([H])[N+]([H])([H])C([H])(c3c([H])c4c(c([H])c3F)C([H])([H])C(C(=O)N3C([H])([H])C([H])([H])C([H])([H])C([H])(n5nc(-c6c([H])c([H])c(Oc7c([H])c([H])c(F)c([H])c7F)c([H])c6[H])c(C(=O)N([H])[H])c5N([H])[H])C3([H])[H])(C([H])([H])C([H])([H])[H])C([H])([H])C4([H])[H])C([H])([H])[H])c([H])c([H])c2C1([H])[H]

$$$$
45:0:0
     RDKit          3D

 93 97  0  0  1  0  0  0  0  0999 V2000
  -23.1140  -27.5310   19.6020 C   0  0  0  0  0  2  0  0  0  0  0  0
  -21.6020  -28.0140   20.5270 C   0  0  0  0  0  1  0  0  0  0  0  0
  -23.5680  -24.5550   20.5010 C   0  0  0  0  0  2  0  0  0  0  0  0
  -20.9550  -26.4020   21.8350 C   0  0  1  0  0  0  0  0  0  0  0  0
  -24.1570  -26.0610   19.7650 C   0  0  0  0  0  3  0  0  0  0  0  0
  -22.0230  -24.8050   21.5250 C   0  0  0  0  0  3  0  0  0  0  0  0
  -21.3280  -29.7710   21.4520 C   0  0  0  0  0 15  0  0  0  0  0  0
  -20.7380  -29.0260   23.7530 C   0  0  0  0  0  2  0  0  0  0  0  0
  -20.5440  -27.0730   23.3730 O   0  0  0  0  0  1  0  0  0  0  0  0
  -21.6700  -23.7310   22.2720 F   0  0  0  0  0  0  0  0  0  0  0  0
  -25.8130  -26.2320   19.8830 O   0  0  0  0  0  0  0  0  0  0  0  0
  -25.0330  -31.6210   23.4800 C   0  0  0  0  0  0  0  0  0  0  0  0
  -26.7770  -27.3290   19.7900 C   0  0  0  0  0  3  0  0  0  0  0  0
  -24.1660  -30.6650   21.4710 C   0  0  0  0  0  3  0  0  0  0  0  0
  -25.6560  -29.6950   19.6550 C   0  0  0  0  0  0  0  0  0  0  0  0
  -26.6520  -30.7610   21.6990 C   0  0  0  0  0  2  0  0  0  0  0  0
  -26.6360  -29.6210   20.6480 C   0  0  0  0  0  0  0  0  0  0  0  0
  -27.2200  -28.3230   20.7670 C   0  0  0  0  0  3  0  0  0  0  0  0
  -26.6230  -27.7810   18.5180 C   0  0  0  0  0  2  0  0  0  0  0  0
  -25.7350  -28.8510   18.5300 C   0  0  0  0  0  3  0  0  0  0  0  0
  -24.4810  -30.5930   19.9450 C   0  0  0  0  0  2  0  0  0  0  0  0
  -25.3100  -31.1410   22.2310 N   0  0  0  0  0  0  0  0  0  0  0  0
  -23.8660  -31.7940   23.8830 O   0  0  0  0  0  0  0  0  0  0  0  0
  -23.9750  -29.2880   22.1780 C   0  0  0  0  0  0  0  0  0  0  0  0
  -23.2910  -29.0650   23.2240 N   0  0  0  0  0  0  0  0  0  0  0  0
  -24.7700  -28.4040   22.1600 O   0  0  0  0  0  0  0  0  0  0  0  0
  -23.0050  -29.8980   23.7180 H   0  0  0  0  0  0  0  0  0  0  0  0
  -18.3780  -28.5380   22.4970 C   0  0  0  0  0  0  0  0  0  0  0  0
  -22.2410  -28.0120   23.1410 C   0  0  0  0  0  3  0  0  0  0  0  0
  -22.5230  -26.8400   21.9780 C   0  0  0  0  0  2  0  0  0  0  0  0
  -20.0720  -26.6090   20.3800 C   0  0  0  0  0  2  0  0  0  0  0  0
  -18.5180  -27.4820   21.1570 C   0  0  0  0  0  3  0  0  0  0  0  0
  -19.5260  -28.8460   23.3020 C   0  0  0  0  0  3  0  0  0  0  0  0
  -19.2200  -30.1810   24.0720 C   0  0  0  0  0  2  0  0  0  0  0  0
  -18.1030  -30.8620   24.4650 C   0  0  0  0  0  2  0  0  0  0  0  0
  -16.9930  -30.3090   23.8910 C   0  0  0  0  0  3  0  0  0  0  0  0
  -17.1450  -29.2480   22.9170 C   0  0  0  0  0  3  0  0  0  0  0  0
  -26.1770  -31.9480   24.4500 C   0  0  0  0  0  3  0  0  0  0  0  0
  -25.9170  -33.3110   24.9180 N   0  0  0  0  0  0  0  0  0  0  0  0
  -26.4830  -34.3990   24.3900 C   0  0  0  0  0  0  0  0  0  0  0  0
  -27.3490  -34.3390   23.5130 O   0  0  0  0  0  0  0  0  0  0  0  0
  -25.1790  -33.4300   25.5970 H   0  0  0  0  0  0  0  0  0  0  0  0
  -25.0820  -36.4350   23.9260 C   0  0  0  0  0  1  0  0  0  0  0  0
  -26.0290  -35.7650   24.9330 C   0  0  0  0  0  3  0  0  0  0  0  0
  -27.9790  -36.2030   26.3560 C   0  0  0  0  0  1  0  0  0  0  0  0
  -27.1550  -36.6700   25.2440 N   0  0  0  0  0  0  0  0  0  0  0  0
  -26.8140  -37.6010   25.4730 H   0  0  0  0  0  0  0  0  0  0  0  0
  -26.2760  -30.9500   25.6660 C   0  0  1  0  0  0  0  0  0  0  0  0
  -24.9400  -30.7150   26.4110 C   0  0  0  0  0  1  0  0  0  0  0  0
  -26.8150  -29.5710   25.2290 C   0  0  0  0  0  1  0  0  0  0  0  0
  -27.3050  -31.5020   26.6750 C   0  0  0  0  0  1  0  0  0  0  0  0
  -24.5620  -22.6100   20.2080 C   0  0  0  0  0 15  0  0  0  0  0  0
  -26.2520  -21.0870   19.6820 C   0  0  0  0  0 15  0  0  0  0  0  0
  -29.6420  -16.6360   19.4450 C   0  0  0  0  0  0  0  0  0  0  0  0
  -30.6500  -14.0000   18.8300 C   0  0  0  0  0  2  0  0  0  0  0  0
  -30.0040  -12.9980   17.7900 C   0  0  0  0  0  2  0  0  0  0  0  0
  -28.7070  -12.3980   18.3390 C   0  0  0  0  0  2  0  0  0  0  0  0
  -28.0180  -13.4840   19.1790 C   0  0  0  0  0  3  0  0  0  0  0  0
  -28.8810  -14.1510   20.2510 C   0  0  0  0  0  2  0  0  0  0  0  0
  -29.6590  -15.0950   19.4690 N   0  0  0  0  0  0  0  0  0  0  0  0
  -30.9030  -16.6820   19.1820 O   0  0  0  0  0  0  0  0  0  0  0  0
  -27.1630  -19.0860   19.7280 C   0  0  0  0  0  2  0  0  0  0  0  0
  -28.5940  -18.0740   19.5320 N   0  0  0  0  0  0  0  0  0  0  0  0
  -26.2330  -18.3360   20.0270 O   0  0  0  0  0  1  0  0  0  0  0  0
  -29.2800  -18.7900   19.3430 H   0  0  0  0  0  0  0  0  0  0  0  0
  -25.8240  -14.0310   20.1710 C   0  0  0  0  0  0  0  0  0  0  0  0
  -24.8090  -13.2640   20.6360 C   0  0  0  0  0  0  0  0  0  0  0  0
  -25.2490  -11.9090   20.5160 C   0  0  0  0  0  0  0  0  0  0  0  0
  -26.7840  -13.1330   19.7700 N   0  0  0  0  0  0  0  0  0  0  0  0
  -26.4870  -11.8500   20.0510 N   0  0  0  0  0  0  0  0  0  0  0  0
  -24.5340  -10.6590   20.7440 C   0  0  0  0  0  0  0  0  0  0  0  0
  -24.9170   -9.7620   21.7630 C   0  0  0  0  0  3  0  0  0  0  0  0
  -24.1900   -8.5710   21.9680 C   0  0  0  0  0  3  0  0  0  0  0  0
  -23.0720   -8.2770   21.1520 C   0  0  0  0  0  0  0  0  0  0  0  0
  -22.7150   -9.1640   20.1210 C   0  0  0  0  0  3  0  0  0  0  0  0
  -23.4420  -10.3440   19.9150 C   0  0  0  0  0  3  0  0  0  0  0  0
  -22.3170   -7.1370   21.2640 O   0  0  0  0  0  0  0  0  0  0  0  0
  -21.9660   -6.6280   22.4860 C   0  0  0  0  0  0  0  0  0  0  0  0
  -21.2550   -7.3940   23.4370 C   0  0  0  0  0  3  0  0  0  0  0  0
  -20.8540   -6.8060   24.6540 C   0  0  0  0  0  3  0  0  0  0  0  0
  -21.1530   -5.4560   24.9160 C   0  0  0  0  0  0  0  0  0  0  0  0
  -21.8560   -4.6920   23.9680 C   0  0  0  0  0  3  0  0  0  0  0  0
  -22.2590   -5.2770   22.7550 C   0  0  0  0  0  0  0  0  0  0  0  0
  -22.9190   -4.5320   21.8350 F   0  0  0  0  0  0  0  0  0  0  0  0
  -20.7600   -4.8880   26.0800 F   0  0  0  0  0  0  0  0  0  0  0  0
  -23.4690  -13.7680   21.0650 C   0  0  0  0  0  0  0  0  0  0  0  0
  -22.8420  -13.0910   22.0170 N   0  0  0  0  0  0  0  0  0  0  0  0
  -22.9970  -14.7990   20.5880 O   0  0  0  0  0  0  0  0  0  0  0  0
  -23.2450  -12.2590   22.4200 H   0  0  0  0  0  0  0  0  0  0  0  0
  -21.9440  -13.4110   22.3520 H   0  0  0  0  0  0  0  0  0  0  0  0
  -26.0120  -15.4040   20.0270 N   0  0  0  0  0  0  0  0  0  0  0  0
  -25.3330  -16.0890   20.3390 H   0  0  0  0  0  0  0  0  0  0  0  0
  -26.8590  -15.8390   19.6850 H   0  0  0  0  0  0  0  0  0  0  0  0
  1  2  1  0
  3  6  1  0
  4 30  1  0
  4  9  1  1
  5  1  1  0
  5 11  1  0
  5  3  1  0
  6  4  1  0
  6 10  1  0
 12 23  2  0
 13 19  1  0
 13 11  1  0
 13 18  1  0
 14 21  1  0
 14 24  1  0
 14 22  1  0
 15 21  1  0
 15 17  1  0
 16 22  1  0
 17 18  2  0
 17 16  1  0
 19 20  1  0
 20 15  2  0
 22 12  1  0
 24 25  1  0
 25 27  1  0
 26 24  2  0
 28 37  1  0
 28 33  1  0
 29 30  1  0
 29 25  1  0
 29  8  1  0
 31 32  1  0
 31  4  1  0
 32 28  2  0
 33  8  1  0
 33 34  1  0
 34 35  1  0
 36 35  1  0
 37 36  2  0
 38 12  1  0
 38 39  1  0
 38 48  1  0
 39 42  1  0
 40 39  1  0
 40 44  1  0
 41 40  2  0
 44 43  1  0
 44 46  1  0
 46 47  1  0
 46 45  1  0
 48 49  1  1
 48 51  1  0
 50 48  1  0
 54 60  1  0
 54 63  1  0
 55 60  1  0
 56 57  1  0
 56 55  1  0
 58 57  1  0
 58 69  1  0
 58 59  1  0
 60 59  1  0
 61 54  2  0
 62 64  1  0
 63 62  1  0
 65 63  1  0
 66 67  2  0
 67 86  1  0
 68 67  1  0
 68 71  1  0
 69 70  1  0
 69 66  1  0
 70 68  2  0
 71 72  1  0
 72 73  2  0
 74 77  1  0
 74 73  1  0
 75 74  2  0
 76 75  1  0
 76 71  2  0
 77 78  1  0
 78 83  2  0
 78 79  1  0
 79 80  2  0
 80 81  1  0
 81 85  1  0
 82 81  2  0
 83 82  1  0
 84 83  1  0
 86 87  1  0
 87 90  1  0
 87 89  1  0
 88 86  2  0
 91 66  1  0
 91 92  1  0
 93 91  1  0
M  ISO  4   5 101  11 101  54 100  63 100
M  END
>  <TORSDO>  (46) 
F 18

>  <SCORE>  (46) 
-10.147

>  <name>  (46) 
45

>  <ligand_id>  (46) 
45

>  <original_smiles>  (46) 
[H]c1c([H])c([H])c2c(c1[H])C([H])([H])C([H])([H])C([H])([H])C2([H])N([H])C(=O)C1([H])N(C(=O)C([H])(N([H])C(=O)C([H])(N([H])C([H])([H])[H])C([H])([H])[H])C(C([H])([H])[H])(C([H])([H])[H])C([H])([H])[H])C([H])([H])c2c([H])c(Oc3c([H])c4c(c(F)c3C([H])([H])C([H])([H])C(=O)N([H])C(=O)N3C([H])([H])C([H])([H])C([H])([H])C([H])(n5nc(-c6c([H])c([H])c(Oc7c([H])c([H])c(F)c([H])c7F)c([H])c6[H])c(C(=O)N([H])[H])c5N([H])[H])C3([H])[H])OC([H])([H])C4([H])[H])c([H])c([H])c2C1([H])[H]

>  <smiles>  (46) 
[H]c1c([H])c([H])c2c(c1[H])C([H])([H])C([H])([H])C([H])([H])C2([H])N([H])C(=O)C1([H])N(C(=O)C([H])(N([H])C(=O)C([H])(N([H])C([H])([H])[H])C([H])([H])[H])C(C([H])([H])[H])(C([H])([H])[H])C([H])([H])[H])C([H])([H])c2c([H])c(Oc3c([H])c4c(c(F)c3C([H])([H])C([H])([H])C(=O)N([H])C(=O)N3C([H])([H])C([H])([H])C([H])([H])C([H])(n5nc(-c6c([H])c([H])c(Oc7c([H])c([H])c(F)c([H])c7F)c([H])c6[H])c(C(=O)N([H])[H])c5N([H])[H])C3([H])[H])OC([H])([H])C4([H])[H])c([H])c([H])c2C1([H])[H]

$$$$
46:0:0
     RDKit          3D

 91100  0  0  1  0  0  0  0  0999 V2000
  -30.5290  -15.1150   20.3330 C   0  0  0  0  0  0  0  0  0  0  0  0
  -30.3920  -12.7200   19.4730 C   0  0  0  0  0  2  0  0  0  0  0  0
  -29.4740  -12.5870   18.2390 C   0  0  0  0  0  2  0  0  0  0  0  0
  -28.0190  -12.3190   18.6810 C   0  0  0  0  0  2  0  0  0  0  0  0
  -27.5570  -13.2780   19.8040 C   0  0  0  0  0  3  0  0  0  0  0  0
  -28.6210  -13.4450   20.9190 C   0  0  0  0  0  2  0  0  0  0  0  0
  -29.8830  -13.8660   20.2810 N   0  0  0  0  0  0  0  0  0  0  0  0
  -31.7630  -15.0840   20.2790 O   0  0  0  0  0  0  0  0  0  0  0  0
  -27.6340  -20.0360   18.6190 C   0  0  0  0  0  3  0  0  0  0  0  0
  -29.5980  -20.6520   20.4300 C   0  0  0  0  0  3  0  0  0  0  0  0
  -28.4570  -18.9900   19.0940 C   0  0  0  0  0  3  0  0  0  0  0  0
  -29.4480  -19.2170   20.0510 C   0  0  0  0  0  0  0  0  0  0  0  0
  -27.7700  -21.3930   19.0080 C   0  0  0  0  0  0  0  0  0  0  0  0
  -28.7910  -21.8070   19.9250 C   0  0  0  0  0  0  0  0  0  0  0  0
  -28.3450  -17.6110   18.4870 C   0  0  0  0  0  3  0  0  0  0  0  0
  -30.2820  -17.8750   20.5320 C   0  0  0  0  0  3  0  0  0  0  0  0
  -28.5970  -16.4190   19.4320 C   0  0  0  0  0  3  0  0  0  0  0  0
  -29.8320  -16.3840   20.2240 N   0  0  0  0  0  0  0  0  0  0  0  0
  -25.1820  -13.8860   20.5230 C   0  0  0  0  0  0  0  0  0  0  0  0
  -24.1100  -13.1240   20.8780 C   0  0  0  0  0  0  0  0  0  0  0  0
  -24.5720  -11.7710   20.8660 C   0  0  0  0  0  0  0  0  0  0  0  0
  -26.2250  -12.9970   20.3090 N   0  0  0  0  0  0  0  0  0  0  0  0
  -25.8680  -11.7220   20.5850 N   0  0  0  0  0  0  0  0  0  0  0  0
  -23.8430  -10.5150   21.0470 C   0  0  0  0  0  0  0  0  0  0  0  0
  -24.2630   -9.5530   21.9900 C   0  0  0  0  0  3  0  0  0  0  0  0
  -23.5360   -8.3580   22.1590 C   0  0  0  0  0  3  0  0  0  0  0  0
  -22.3770   -8.1160   21.3860 C   0  0  0  0  0  0  0  0  0  0  0  0
  -21.9760   -9.0680   20.4330 C   0  0  0  0  0  3  0  0  0  0  0  0
  -22.7040  -10.2560   20.2610 C   0  0  0  0  0  3  0  0  0  0  0  0
  -21.6220   -6.9720   21.4660 O   0  0  0  0  0  0  0  0  0  0  0  0
  -21.5560   -6.2380   22.6230 C   0  0  0  0  0  0  0  0  0  0  0  0
  -21.1020   -6.7990   23.8360 C   0  0  0  0  0  3  0  0  0  0  0  0
  -20.9860   -5.9910   24.9850 C   0  0  0  0  0  3  0  0  0  0  0  0
  -21.3080   -4.6220   24.9210 C   0  0  0  0  0  0  0  0  0  0  0  0
  -21.7550   -4.0620   23.7120 C   0  0  0  0  0  3  0  0  0  0  0  0
  -21.8770   -4.8680   22.5660 C   0  0  0  0  0  0  0  0  0  0  0  0
  -22.2890   -4.3190   21.3980 F   0  0  0  0  0  0  0  0  0  0  0  0
  -21.1890   -3.8430   26.0210 F   0  0  0  0  0  0  0  0  0  0  0  0
  -22.7100  -13.6070   21.1180 C   0  0  0  0  0  0  0  0  0  0  0  0
  -21.9660  -12.9220   21.9750 N   0  0  0  0  0  0  0  0  0  0  0  0
  -22.2860  -14.6340   20.5840 O   0  0  0  0  0  0  0  0  0  0  0  0
  -22.3240  -12.0940   22.4300 H   0  0  0  0  0  0  0  0  0  0  0  0
  -21.0290  -13.2340   22.1890 H   0  0  0  0  0  0  0  0  0  0  0  0
  -25.3430  -15.2540   20.3280 N   0  0  0  0  0  0  0  0  0  0  0  0
  -24.5600  -15.8940   20.3920 H   0  0  0  0  0  0  0  0  0  0  0  0
  -26.1880  -15.6830   19.9810 H   0  0  0  0  0  0  0  0  0  0  0  0
  -25.4970  -22.5420   19.2240 C   0  0  0  0  0  1  0  0  0  0  0  0
  -26.7600  -22.3400   18.3720 C   0  0  0  0  0  2  0  0  0  0  0  0
  -29.0160  -23.4060   20.3510 C   0  0  0  0  0  3  0  0  0  0  0  0
  -28.1570  -24.7830   19.8610 C   0  0  0  0  0  3  0  0  0  0  0  0
  -28.3010  -26.2660   20.3000 O   0  0  0  0  0  0  0  0  0  0  0  0
  -24.6330  -31.9330   23.2590 C   0  0  0  0  0  0  0  0  0  0  0  0
  -27.2230  -27.2270   20.2240 C   0  0  0  0  0  0  0  0  0  0  0  0
  -23.4310  -30.5340   21.6230 C   0  0  0  0  0  3  0  0  0  0  0  0
  -24.8800  -28.9550   20.2050 C   0  0  0  0  0  0  0  0  0  0  0  0
  -25.9840  -30.8080   21.4500 C   0  0  0  0  0  2  0  0  0  0  0  0
  -26.0600  -29.4130   20.8040 C   0  0  0  0  0  0  0  0  0  0  0  0
  -27.2300  -28.5630   20.8010 C   0  0  0  0  0  3  0  0  0  0  0  0
  -26.0090  -26.8690   19.5900 C   0  0  0  0  0  3  0  0  0  0  0  0
  -24.8650  -27.6950   19.5900 C   0  0  0  0  0  3  0  0  0  0  0  0
  -23.6440  -29.8390   20.2540 C   0  0  0  0  0  2  0  0  0  0  0  0
  -24.7030  -31.1130   22.1660 N   0  0  0  0  0  0  0  0  0  0  0  0
  -23.5480  -32.2200   23.7860 O   0  0  0  0  0  0  0  0  0  0  0  0
  -22.7510  -29.5330   22.5920 C   0  0  0  0  0  0  0  0  0  0  0  0
  -21.4250  -29.3620   22.4650 N   0  0  0  0  0  0  0  0  0  0  0  0
  -23.4200  -28.9110   23.4210 O   0  0  0  0  0  0  0  0  0  0  0  0
  -20.9390  -29.9130   21.7710 H   0  0  0  0  0  0  0  0  0  0  0  0
  -18.0420  -28.1630   22.9680 C   0  0  0  0  0  0  0  0  0  0  0  0
  -20.6010  -28.4260   23.2350 C   0  0  0  0  0  3  0  0  0  0  0  0
  -20.7040  -26.9940   22.6560 C   0  0  0  0  0  2  0  0  0  0  0  0
  -19.5990  -26.6770   21.6430 C   0  0  0  0  0  2  0  0  0  0  0  0
  -18.2210  -26.8130   22.2930 C   0  0  0  0  0  2  0  0  0  0  0  0
  -19.1610  -28.9260   23.3960 C   0  0  0  0  0  0  0  0  0  0  0  0
  -18.9390  -30.1920   23.9820 C   0  0  0  0  0  3  0  0  0  0  0  0
  -17.6340  -30.6920   24.1450 C   0  0  0  0  0  3  0  0  0  0  0  0
  -16.5300  -29.9250   23.7330 C   0  0  0  0  0  3  0  0  0  0  0  0
  -16.7360  -28.6600   23.1540 C   0  0  0  0  0  3  0  0  0  0  0  0
  -25.9120  -32.5680   23.8880 C   0  0  0  0  0  3  0  0  0  0  0  0
  -25.6040  -33.9690   24.2140 N   0  0  0  0  0  0  0  0  0  0  0  0
  -25.9340  -35.0200   23.4510 C   0  0  0  0  0  0  0  0  0  0  0  0
  -26.5940  -34.9120   22.4160 O   0  0  0  0  0  0  0  0  0  0  0  0
  -25.0140  -34.1280   25.0180 H   0  0  0  0  0  0  0  0  0  0  0  0
  -24.2040  -36.8150   23.1140 C   0  0  0  0  0  1  0  0  0  0  0  0
  -25.4560  -36.4130   23.9090 C   0  0  0  0  0  3  0  0  0  0  0  0
  -27.6030  -37.3010   24.7060 C   0  0  0  0  0  1  0  0  0  0  0  0
  -26.4890  -37.4630   23.7730 N   0  0  0  0  0  0  0  0  0  0  0  0
  -26.0890  -38.3870   23.9140 H   0  0  0  0  0  0  0  0  0  0  0  0
  -26.4160  -31.8030   25.1720 C   0  0  1  0  0  0  0  0  0  0  0  0
  -25.3130  -31.5770   26.2340 C   0  0  0  0  0  1  0  0  0  0  0  0
  -26.9970  -30.4210   24.7970 C   0  0  0  0  0  1  0  0  0  0  0  0
  -27.5710  -32.5910   25.8330 C   0  0  0  0  0  1  0  0  0  0  0  0
  2  7  1  0
  3  4  1  0
  3  2  1  0
  5  4  1  0
  5 22  1  0
  5  6  1  0
  7  1  1  0
  7  6  1  0
  8  1  2  0
  9 13  2  0
  9 11  1  0
 11 15  1  0
 11 12  1  0
 12 10  1  0
 12 16  2  0
 13 14  1  0
 14 49  1  0
 14 10  2  0
 15 17  2  0
 17 18  1  0
 18  1  1  0
 18 16  1  0
 19 20  2  0
 20 39  1  0
 21 20  1  0
 21 24  1  0
 22 19  1  0
 22 23  1  0
 23 21  2  0
 24 25  1  0
 25 26  2  0
 27 30  1  0
 27 26  1  0
 28 27  2  0
 29 28  1  0
 29 24  2  0
 30 31  1  0
 31 32  1  0
 32 33  2  0
 34 33  1  0
 34 38  1  0
 35 34  2  0
 36 31  2  0
 36 35  1  0
 37 36  1  0
 39 40  1  0
 40 43  1  0
 40 42  1  0
 41 39  2  0
 44 45  1  0
 44 19  1  0
 46 44  1  0
 48 13  1  0
 48 47  1  0
 50 51  1  0
 50 49  2  0
 52 63  2  0
 53 51  1  0
 53 58  1  0
 54 62  1  0
 54 64  1  0
 55 61  1  0
 55 57  1  0
 56 62  1  0
 57 56  1  0
 58 57  2  0
 59 53  2  0
 60 59  1  0
 60 55  2  0
 61 54  1  0
 62 52  1  0
 64 66  2  0
 65 64  1  0
 67 65  1  0
 68 77  2  0
 68 73  1  0
 69 65  1  0
 69 73  1  0
 70 69  1  0
 71 72  1  0
 71 70  1  0
 72 68  1  0
 73 74  2  0
 74 75  1  0
 76 75  2  0
 77 76  1  0
 78 52  1  0
 78 79  1  0
 78 88  1  0
 79 82  1  0
 80 84  1  0
 80 79  1  0
 81 80  2  0
 84 83  1  0
 86 84  1  0
 86 87  1  0
 86 85  1  0
 88 91  1  1
 88 89  1  0
 90 88  1  0
M  ISO  4   1 100  18 100  50 101  51 101
M  END
>  <TORSDO>  (47) 
F 18

>  <SCORE>  (47) 
-15.836

>  <name>  (47) 
46

>  <ligand_id>  (47) 
46

>  <original_smiles>  (47) 
[H]c1c([H])c([H])c2c(c1[H])C([H])([H])C([H])([H])C([H])([H])C2([H])N([H])C(=O)C1([H])N(C(=O)C([H])(N([H])C(=O)C([H])(N([H])C([H])([H])[H])C([H])([H])[H])C(C([H])([H])[H])(C([H])([H])[H])C([H])([H])[H])C([H])([H])c2c([H])c(OC([H])([H])C([H])([H])c3c([H])c4c(c([H])c3C([H])([H])C([H])([H])[H])C([H])([H])C([H])([H])N(C(=O)N3C([H])([H])C([H])([H])C([H])([H])C([H])(n5nc(-c6c([H])c([H])c(Oc7c([H])c([H])c(F)c([H])c7F)c([H])c6[H])c(C(=O)N([H])[H])c5N([H])[H])C3([H])[H])C4([H])[H])c([H])c([H])c2C1([H])[H]

>  <smiles>  (47) 
[H]c1c([H])c([H])c2c(c1[H])C([H])([H])C([H])([H])C([H])([H])C2([H])N([H])C(=O)C1([H])N(C(=O)C([H])(N([H])C(=O)C([H])(N([H])C([H])([H])[H])C([H])([H])[H])C(C([H])([H])[H])(C([H])([H])[H])C([H])([H])[H])C([H])([H])c2c([H])c(OC([H])([H])C([H])([H])c3c([H])c4c(c([H])c3C([H])([H])C([H])([H])[H])C([H])([H])C([H])([H])N(C(=O)N3C([H])([H])C([H])([H])C([H])([H])C([H])(n5nc(-c6c([H])c([H])c(Oc7c([H])c([H])c(F)c([H])c7F)c([H])c6[H])c(C(=O)N([H])[H])c5N([H])[H])C3([H])[H])C4([H])[H])c([H])c([H])c2C1([H])[H]

$$$$
47:0:0
     RDKit          3D

 95104  0  0  1  0  0  0  0  0999 V2000
  -31.0160  -14.5390   20.0250 C   0  0  0  0  0  0  0  0  0  0  0  0
  -30.6790  -12.3710   18.8760 C   0  0  0  0  0  2  0  0  0  0  0  0
  -29.7030  -12.5800   17.6990 C   0  0  0  0  0  2  0  0  0  0  0  0
  -28.2360  -12.4660   18.1690 C   0  0  0  0  0  2  0  0  0  0  0  0
  -27.9500  -13.3030   19.4450 C   0  0  0  0  0  3  0  0  0  0  0  0
  -29.0330  -13.0320   20.5110 C   0  0  0  0  0  2  0  0  0  0  0  0
  -30.3370  -13.3580   19.9140 N   0  0  0  0  0  0  0  0  0  0  0  0
  -32.1230  -14.6940   19.4970 O   0  0  0  0  0  0  0  0  0  0  0  0
  -30.1960  -19.4040   19.5270 C   0  0  0  0  0  3  0  0  0  0  0  0
  -30.8180  -20.7260   21.4730 C   0  0  0  0  0  3  0  0  0  0  0  0
  -30.3780  -20.6790   20.1300 C   0  0  0  0  0  0  0  0  0  0  0  0
  -30.4230  -18.2010   20.2470 C   0  0  0  0  0  0  0  0  0  0  0  0
  -30.8470  -18.2800   21.5890 C   0  0  0  0  0  0  0  0  0  0  0  0
  -31.0480  -19.5390   22.1960 C   0  0  0  0  0  0  0  0  0  0  0  0
  -31.0560  -16.9960   22.3730 C   0  0  0  0  0  2  0  0  0  0  0  0
  -30.2010  -16.8290   19.5840 C   0  0  0  0  0  2  0  0  0  0  0  0
  -30.1080  -15.8760   21.8940 C   0  0  0  0  0  3  0  0  0  0  0  0
  -28.6350  -16.2090   22.2330 C   0  0  0  0  0  1  0  0  0  0  0  0
  -30.2930  -15.6180   20.4500 N   0  0  0  0  0  0  0  0  0  0  0  0
  -31.4700  -19.6140   23.4810 F   0  0  0  0  0  0  0  0  0  0  0  0
  -25.5800  -13.9590   20.2080 C   0  0  0  0  0  0  0  0  0  0  0  0
  -24.5100  -13.2090   20.6140 C   0  0  0  0  0  0  0  0  0  0  0  0
  -24.9470  -11.8490   20.5830 C   0  0  0  0  0  0  0  0  0  0  0  0
  -26.6050  -13.0570   19.9600 N   0  0  0  0  0  0  0  0  0  0  0  0
  -26.2270  -11.7830   20.2390 N   0  0  0  0  0  0  0  0  0  0  0  0
  -24.2040  -10.6020   20.8040 C   0  0  0  0  0  0  0  0  0  0  0  0
  -24.6360   -9.6440   21.7470 C   0  0  0  0  0  3  0  0  0  0  0  0
  -23.8970   -8.4610   21.9550 C   0  0  0  0  0  3  0  0  0  0  0  0
  -22.7100   -8.2260   21.2200 C   0  0  0  0  0  0  0  0  0  0  0  0
  -22.2970   -9.1730   20.2670 C   0  0  0  0  0  3  0  0  0  0  0  0
  -23.0370  -10.3480   20.0570 C   0  0  0  0  0  3  0  0  0  0  0  0
  -21.9410   -7.0930   21.3380 O   0  0  0  0  0  0  0  0  0  0  0  0
  -21.8780   -6.3840   22.5100 C   0  0  0  0  0  0  0  0  0  0  0  0
  -21.4360   -6.9740   23.7150 C   0  0  0  0  0  3  0  0  0  0  0  0
  -21.3200   -6.1910   24.8800 C   0  0  0  0  0  3  0  0  0  0  0  0
  -21.6360   -4.8190   24.8420 C   0  0  0  0  0  0  0  0  0  0  0  0
  -22.0710   -4.2290   23.6420 C   0  0  0  0  0  3  0  0  0  0  0  0
  -22.1890   -5.0100   22.4790 C   0  0  0  0  0  0  0  0  0  0  0  0
  -22.5890   -4.4320   21.3210 F   0  0  0  0  0  0  0  0  0  0  0  0
  -21.5170   -4.0650   25.9600 F   0  0  0  0  0  0  0  0  0  0  0  0
  -23.1290  -13.7130   20.9230 C   0  0  0  0  0  0  0  0  0  0  0  0
  -22.4180  -13.0420   21.8220 N   0  0  0  0  0  0  0  0  0  0  0  0
  -22.6910  -14.7390   20.4030 O   0  0  0  0  0  0  0  0  0  0  0  0
  -22.7850  -12.2150   22.2680 H   0  0  0  0  0  0  0  0  0  0  0  0
  -21.4920  -13.3630   22.0700 H   0  0  0  0  0  0  0  0  0  0  0  0
  -25.7620  -15.3250   20.0120 N   0  0  0  0  0  0  0  0  0  0  0  0
  -25.0140  -15.9960   20.1480 H   0  0  0  0  0  0  0  0  0  0  0  0
  -26.6200  -15.7500   19.6830 H   0  0  0  0  0  0  0  0  0  0  0  0
  -30.1990  -21.9540   19.3280 C   0  0  0  0  0  0  0  0  0  0  0  0
  -29.7150  -23.0390   19.9640 N   0  0  0  0  0  0  0  0  0  0  0  0
  -30.4840  -21.9720   18.1290 O   0  0  0  0  0  0  0  0  0  0  0  0
  -29.4600  -22.9280   20.9350 H   0  0  0  0  0  0  0  0  0  0  0  0
  -29.6540  -24.4060   19.4050 C   0  0  0  0  0  2  0  0  0  0  0  0
  -28.4990  -25.2660   19.9760 C   0  0  0  0  0  2  0  0  0  0  0  0
  -28.5300  -26.6200   19.4690 O   0  0  0  0  0  0  0  0  0  0  0  0
  -24.6620  -31.5080   22.9550 C   0  0  0  0  0  0  0  0  0  0  0  0
  -27.3490  -27.3340   19.5430 C   0  0  0  0  0  0  0  0  0  0  0  0
  -23.4600  -30.1900   21.2440 C   0  0  0  0  0  3  0  0  0  0  0  0
  -24.9230  -28.7870   19.6940 C   0  0  0  0  0  0  0  0  0  0  0  0
  -25.9750  -30.6200   21.0290 C   0  0  0  0  0  2  0  0  0  0  0  0
  -26.0810  -29.2990   20.2930 C   0  0  0  0  0  0  0  0  0  0  0  0
  -27.3000  -28.5820   20.2090 C   0  0  0  0  0  3  0  0  0  0  0  0
  -26.1730  -26.8490   18.9280 C   0  0  0  0  0  3  0  0  0  0  0  0
  -24.9640  -27.5630   19.0090 C   0  0  0  0  0  3  0  0  0  0  0  0
  -23.6610  -29.6100   19.8190 C   0  0  0  0  0  2  0  0  0  0  0  0
  -24.7190  -30.7850   21.8020 N   0  0  0  0  0  0  0  0  0  0  0  0
  -23.5850  -31.7160   23.5320 O   0  0  0  0  0  0  0  0  0  0  0  0
  -22.8530  -29.0890   22.1440 C   0  0  0  0  0  0  0  0  0  0  0  0
  -21.5260  -28.9020   22.0490 N   0  0  0  0  0  0  0  0  0  0  0  0
  -23.5710  -28.4090   22.8820 O   0  0  0  0  0  0  0  0  0  0  0  0
  -21.0060  -29.5060   21.4280 H   0  0  0  0  0  0  0  0  0  0  0  0
  -18.1760  -27.6780   22.6260 C   0  0  0  0  0  0  0  0  0  0  0  0
  -20.7470  -27.8970   22.7720 C   0  0  0  0  0  3  0  0  0  0  0  0
  -20.8010  -26.5280   22.0550 C   0  0  0  0  0  2  0  0  0  0  0  0
  -19.6410  -26.3090   21.0800 C   0  0  0  0  0  2  0  0  0  0  0  0
  -18.3010  -26.3990   21.8140 C   0  0  0  0  0  2  0  0  0  0  0  0
  -19.3250  -28.3900   23.0610 C   0  0  0  0  0  0  0  0  0  0  0  0
  -19.1540  -29.5920   23.7820 C   0  0  0  0  0  3  0  0  0  0  0  0
  -17.8670  -30.0830   24.0690 C   0  0  0  0  0  3  0  0  0  0  0  0
  -16.7320  -29.3670   23.6480 C   0  0  0  0  0  3  0  0  0  0  0  0
  -16.8880  -28.1650   22.9340 C   0  0  0  0  0  3  0  0  0  0  0  0
  -25.9440  -32.1290   23.5940 C   0  0  0  0  0  3  0  0  0  0  0  0
  -25.6040  -33.4890   24.0330 N   0  0  0  0  0  0  0  0  0  0  0  0
  -25.9020  -34.6040   23.3520 C   0  0  0  0  0  0  0  0  0  0  0  0
  -26.5620  -34.5970   22.3090 O   0  0  0  0  0  0  0  0  0  0  0  0
  -25.0150  -33.5670   24.8490 H   0  0  0  0  0  0  0  0  0  0  0  0
  -24.1200  -36.3670   23.1570 C   0  0  0  0  0  1  0  0  0  0  0  0
  -25.3840  -35.9400   23.9190 C   0  0  0  0  0  3  0  0  0  0  0  0
  -27.5060  -36.8210   24.7870 C   0  0  0  0  0  1  0  0  0  0  0  0
  -26.3870  -37.0270   23.8710 N   0  0  0  0  0  0  0  0  0  0  0  0
  -25.9590  -37.9230   24.0900 H   0  0  0  0  0  0  0  0  0  0  0  0
  -26.5140  -31.2820   24.7970 C   0  0  1  0  0  0  0  0  0  0  0  0
  -25.4560  -30.9410   25.8720 C   0  0  0  0  0  1  0  0  0  0  0  0
  -27.1210  -29.9540   24.2900 C   0  0  0  0  0  1  0  0  0  0  0  0
  -27.6630  -32.0570   25.4860 C   0  0  0  0  0  1  0  0  0  0  0  0
  1 19  1  0
  2  7  1  0
  3  4  1  0
  3  2  1  0
  5  4  1  0
  5 24  1  0
  5  6  1  0
  7  1  1  0
  7  6  1  0
  8  1  2  0
  9 11  2  0
  9 12  1  0
 10 14  2  0
 11 10  1  0
 12 13  2  0
 13 14  1  0
 13 15  1  0
 14 20  1  0
 16 12  1  0
 16 19  1  0
 17 18  1  0
 17 15  1  0
 19 17  1  0
 21 22  2  0
 22 41  1  0
 23 22  1  0
 23 26  1  0
 24 21  1  0
 24 25  1  0
 25 23  2  0
 26 27  1  0
 27 28  2  0
 29 32  1  0
 29 28  1  0
 30 29  2  0
 31 30  1  0
 31 26  2  0
 32 33  1  0
 33 34  1  0
 34 35  2  0
 36 35  1  0
 36 40  1  0
 37 36  2  0
 38 33  2  0
 38 37  1  0
 39 38  1  0
 41 42  1  0
 42 45  1  0
 42 44  1  0
 43 41  2  0
 46 47  1  0
 46 21  1  0
 48 46  1  0
 49 50  1  0
 49 11  1  0
 50 52  1  0
 51 49  2  0
 53 50  1  0
 53 54  1  0
 55 57  1  0
 55 54  1  0
 56 67  2  0
 57 62  1  0
 58 66  1  0
 58 68  1  0
 59 65  1  0
 59 61  1  0
 60 66  1  0
 61 60  1  0
 62 61  2  0
 63 64  1  0
 63 57  2  0
 64 59  2  0
 65 58  1  0
 66 56  1  0
 68 70  2  0
 69 68  1  0
 71 69  1  0
 72 81  2  0
 72 77  1  0
 73 69  1  0
 73 77  1  0
 74 73  1  0
 75 76  1  0
 75 74  1  0
 76 72  1  0
 77 78  2  0
 78 79  1  0
 80 79  2  0
 81 80  1  0
 82 56  1  0
 82 83  1  0
 82 92  1  0
 83 86  1  0
 84 88  1  0
 84 83  1  0
 85 84  2  0
 88 87  1  0
 90 88  1  0
 90 91  1  0
 90 89  1  0
 92 95  1  1
 92 93  1  0
 94 92  1  0
M  ISO  4   1 100  19 100  54 101  55 101
M  END
>  <TORSDO>  (48) 
F 18

>  <SCORE>  (48) 
-11.043

>  <name>  (48) 
47

>  <ligand_id>  (48) 
47

>  <original_smiles>  (48) 
[H]c1c([H])c([H])c2c(c1[H])C([H])([H])C([H])([H])C([H])([H])C2([H])N([H])C(=O)C1([H])N(C(=O)C([H])(N([H])C(=O)C([H])(N([H])C([H])([H])[H])C([H])([H])[H])C(C([H])([H])[H])(C([H])([H])[H])C([H])([H])[H])C([H])([H])c2c([H])c(OC([H])([H])C([H])([H])N([H])C(=O)c3c([H])c(F)c4c(c3[H])C([H])([H])N(C(=O)N3C([H])([H])C([H])([H])C([H])([H])C([H])(n5nc(-c6c([H])c([H])c(Oc7c([H])c([H])c(F)c([H])c7F)c([H])c6[H])c(C(=O)N([H])[H])c5N([H])[H])C3([H])[H])C([H])(C([H])([H])[H])C4([H])[H])c([H])c([H])c2C1([H])[H]

>  <smiles>  (48) 
[H]c1c([H])c([H])c2c(c1[H])C([H])([H])C([H])([H])C([H])([H])C2([H])N([H])C(=O)C1([H])N(C(=O)C([H])(N([H])C(=O)C([H])(N([H])C([H])([H])[H])C([H])([H])[H])C(C([H])([H])[H])(C([H])([H])[H])C([H])([H])[H])C([H])([H])c2c([H])c(OC([H])([H])C([H])([H])N([H])C(=O)c3c([H])c(F)c4c(c3[H])C([H])([H])N(C(=O)N3C([H])([H])C([H])([H])C([H])([H])C([H])(n5nc(-c6c([H])c([H])c(Oc7c([H])c([H])c(F)c([H])c7F)c([H])c6[H])c(C(=O)N([H])[H])c5N([H])[H])C3([H])[H])C([H])(C([H])([H])[H])C4([H])[H])c([H])c([H])c2C1([H])[H]

$$$$
48:0:0
     RDKit          3D

 93102  0  0  1  0  0  0  0  0999 V2000
  -29.7630  -22.7780   19.4570 C   0  0  0  0  0  2  0  0  0  0  0  0
  -27.7150  -22.4660   20.6860 C   0  0  0  0  0  2  0  0  0  0  0  0
  -29.6200  -24.3510   19.7380 C   0  0  0  0  0  2  0  0  0  0  0  0
  -27.7000  -24.0680   20.9450 C   0  0  0  0  0  2  0  0  0  0  0  0
  -29.1190  -21.7490   20.4790 C   0  0  0  0  0  3  0  0  0  0  0  0
  -28.2380  -24.9030   19.8290 N   0  0  0  0  0  0  0  0  0  0  0  0
  -28.9180  -19.8930   18.6910 C   0  0  0  0  0  3  0  0  0  0  0  0
  -29.5040  -18.9510   20.8420 C   0  0  0  0  0  3  0  0  0  0  0  0
  -29.1820  -20.1620   20.0450 C   0  0  0  0  0  0  0  0  0  0  0  0
  -29.0260  -18.6070   18.1260 C   0  0  0  0  0  0  0  0  0  0  0  0
  -29.4270  -17.4730   18.8930 C   0  0  0  0  0  0  0  0  0  0  0  0
  -29.6330  -17.5700   20.3060 C   0  0  0  0  0  0  0  0  0  0  0  0
  -28.6500  -18.4810   16.6530 C   0  0  0  0  0  1  0  0  0  0  0  0
  -29.5710  -16.1350   18.1700 C   0  0  0  0  0  1  0  0  0  0  0  0
  -30.5900  -15.1360   21.0820 C   0  0  0  0  0  0  0  0  0  0  0  0
  -30.6630  -12.7240   20.3460 C   0  0  0  0  0  2  0  0  0  0  0  0
  -29.9000  -12.5720   19.0090 C   0  0  0  0  0  2  0  0  0  0  0  0
  -28.3920  -12.3710   19.2530 C   0  0  0  0  0  2  0  0  0  0  0  0
  -27.8160  -13.3420   20.3190 C   0  0  0  0  0  3  0  0  0  0  0  0
  -28.7180  -13.4510   21.5660 C   0  0  0  0  0  2  0  0  0  0  0  0
  -30.0520  -13.8530   21.1050 N   0  0  0  0  0  0  0  0  0  0  0  0
  -31.8090  -15.2400   20.9080 O   0  0  0  0  0  0  0  0  0  0  0  0
  -29.7480  -16.2770   21.1210 N   0  0  0  0  0  0  0  0  0  0  0  0
  -28.8860  -16.0610   21.5970 H   0  0  0  0  0  0  0  0  0  0  0  0
  -25.3530  -13.8830   20.7500 C   0  0  0  0  0  0  0  0  0  0  0  0
  -24.2690  -13.0900   21.0050 C   0  0  0  0  0  0  0  0  0  0  0  0
  -24.7630  -11.7520   21.0760 C   0  0  0  0  0  0  0  0  0  0  0  0
  -26.4360  -13.0240   20.6610 N   0  0  0  0  0  0  0  0  0  0  0  0
  -26.0820  -11.7420   20.9280 N   0  0  0  0  0  0  0  0  0  0  0  0
  -24.0480  -10.4770   21.2170 C   0  0  0  0  0  0  0  0  0  0  0  0
  -24.4100   -9.5310   22.2020 C   0  0  0  0  0  3  0  0  0  0  0  0
  -23.6940   -8.3220   22.3340 C   0  0  0  0  0  3  0  0  0  0  0  0
  -22.6030   -8.0470   21.4760 C   0  0  0  0  0  0  0  0  0  0  0  0
  -22.2620   -8.9800   20.4820 C   0  0  0  0  0  3  0  0  0  0  0  0
  -22.9760  -10.1830   20.3480 C   0  0  0  0  0  3  0  0  0  0  0  0
  -21.8720   -6.8850   21.5070 O   0  0  0  0  0  0  0  0  0  0  0  0
  -21.7590   -6.1360   22.6510 C   0  0  0  0  0  0  0  0  0  0  0  0
  -21.2450   -6.6840   23.8470 C   0  0  0  0  0  3  0  0  0  0  0  0
  -21.0820   -5.8650   24.9800 C   0  0  0  0  0  3  0  0  0  0  0  0
  -21.4200   -4.4990   24.9190 C   0  0  0  0  0  0  0  0  0  0  0  0
  -21.9290   -3.9520   23.7280 C   0  0  0  0  0  3  0  0  0  0  0  0
  -22.0970   -4.7690   22.5960 C   0  0  0  0  0  0  0  0  0  0  0  0
  -22.5690   -4.2330   21.4440 F   0  0  0  0  0  0  0  0  0  0  0  0
  -21.2530   -3.7080   26.0050 F   0  0  0  0  0  0  0  0  0  0  0  0
  -22.8380  -13.5360   21.0860 C   0  0  0  0  0  0  0  0  0  0  0  0
  -22.0250  -12.8590   21.8880 N   0  0  0  0  0  0  0  0  0  0  0  0
  -22.4420  -14.5250   20.4710 O   0  0  0  0  0  0  0  0  0  0  0  0
  -22.3530  -12.0650   22.4190 H   0  0  0  0  0  0  0  0  0  0  0  0
  -21.0630  -13.1500   21.9780 H   0  0  0  0  0  0  0  0  0  0  0  0
  -25.5130  -15.2550   20.5650 N   0  0  0  0  0  0  0  0  0  0  0  0
  -24.7300  -15.8980   20.6040 H   0  0  0  0  0  0  0  0  0  0  0  0
  -26.3980  -15.7170   20.4010 H   0  0  0  0  0  0  0  0  0  0  0  0
  -28.3500  -26.4370   20.1840 O   0  0  0  0  0  0  0  0  0  0  0  0
  -24.5810  -31.9620   23.1300 C   0  0  0  0  0  0  0  0  0  0  0  0
  -27.2280  -27.3190   20.0920 C   0  0  0  0  0  0  0  0  0  0  0  0
  -23.3950  -30.5390   21.5010 C   0  0  0  0  0  3  0  0  0  0  0  0
  -24.8590  -28.9850   20.0680 C   0  0  0  0  0  0  0  0  0  0  0  0
  -25.9370  -30.8590   21.3170 C   0  0  0  0  0  2  0  0  0  0  0  0
  -26.0270  -29.4670   20.6710 C   0  0  0  0  0  0  0  0  0  0  0  0
  -27.2080  -28.6470   20.6680 C   0  0  0  0  0  3  0  0  0  0  0  0
  -26.0360  -26.9200   19.4520 C   0  0  0  0  0  3  0  0  0  0  0  0
  -24.8730  -27.7250   19.4450 C   0  0  0  0  0  3  0  0  0  0  0  0
  -23.6160  -29.8600   20.1220 C   0  0  0  0  0  2  0  0  0  0  0  0
  -24.6580  -31.1430   22.0380 N   0  0  0  0  0  0  0  0  0  0  0  0
  -23.4940  -32.2290   23.6630 O   0  0  0  0  0  0  0  0  0  0  0  0
  -22.7420  -29.5240   22.4710 C   0  0  0  0  0  0  0  0  0  0  0  0
  -21.4160  -29.3330   22.3540 N   0  0  0  0  0  0  0  0  0  0  0  0
  -23.4290  -28.9110   23.2930 O   0  0  0  0  0  0  0  0  0  0  0  0
  -20.9200  -29.8780   21.6630 H   0  0  0  0  0  0  0  0  0  0  0  0
  -18.0570  -28.0850   22.8720 C   0  0  0  0  0  0  0  0  0  0  0  0
  -20.6130  -28.3880   23.1320 C   0  0  0  0  0  3  0  0  0  0  0  0
  -20.7360  -26.9550   22.5630 C   0  0  0  0  0  2  0  0  0  0  0  0
  -19.6360  -26.6110   21.5550 C   0  0  0  0  0  2  0  0  0  0  0  0
  -18.2530  -26.7370   22.2010 C   0  0  0  0  0  2  0  0  0  0  0  0
  -19.1640  -28.8690   23.2950 C   0  0  0  0  0  0  0  0  0  0  0  0
  -18.9250  -30.1300   23.8820 C   0  0  0  0  0  3  0  0  0  0  0  0
  -17.6100  -30.6080   24.0520 C   0  0  0  0  0  3  0  0  0  0  0  0
  -16.5190  -29.8220   23.6440 C   0  0  0  0  0  3  0  0  0  0  0  0
  -16.7430  -28.5630   23.0590 C   0  0  0  0  0  3  0  0  0  0  0  0
  -25.8530  -32.6200   23.7480 C   0  0  0  0  0  3  0  0  0  0  0  0
  -25.5110  -34.0060   24.1060 N   0  0  0  0  0  0  0  0  0  0  0  0
  -25.8390  -35.0850   23.3830 C   0  0  0  0  0  0  0  0  0  0  0  0
  -26.5240  -35.0190   22.3590 O   0  0  0  0  0  0  0  0  0  0  0  0
  -24.9050  -34.1300   24.9040 H   0  0  0  0  0  0  0  0  0  0  0  0
  -24.0990  -36.8690   23.0350 C   0  0  0  0  0  1  0  0  0  0  0  0
  -25.3230  -36.4550   23.8670 C   0  0  0  0  0  3  0  0  0  0  0  0
  -27.4270  -37.3350   24.7800 C   0  0  0  0  0  1  0  0  0  0  0  0
  -26.3450  -37.5220   23.8150 N   0  0  0  0  0  0  0  0  0  0  0  0
  -25.9260  -38.4320   23.9820 H   0  0  0  0  0  0  0  0  0  0  0  0
  -26.4000  -31.8470   25.0100 C   0  0  1  0  0  0  0  0  0  0  0  0
  -25.3240  -31.5740   26.0890 C   0  0  0  0  0  1  0  0  0  0  0  0
  -27.0050  -30.4850   24.5990 C   0  0  0  0  0  1  0  0  0  0  0  0
  -27.5430  -32.6570   25.6670 C   0  0  0  0  0  1  0  0  0  0  0  0
  1  3  1  0
  1  5  1  0
  2  4  1  0
  3  6  1  0
  5  9  1  0
  5  2  1  0
  6 53  1  0
  6  4  1  0
  7  9  1  0
  9  8  2  0
 10  7  2  0
 10 11  1  0
 11 12  2  0
 12  8  1  0
 12 23  1  0
 13 10  1  0
 14 11  1  0
 15 21  1  0
 15 23  1  0
 16 21  1  0
 17 18  1  0
 17 16  1  0
 19 18  1  0
 19 28  1  0
 19 20  1  0
 21 20  1  0
 22 15  2  0
 23 24  1  0
 25 26  2  0
 26 27  1  0
 26 45  1  0
 27 30  1  0
 28 25  1  0
 28 29  1  0
 29 27  2  0
 30 31  1  0
 31 32  2  0
 33 36  1  0
 33 32  1  0
 34 33  2  0
 35 34  1  0
 35 30  2  0
 36 37  1  0
 37 38  1  0
 38 39  2  0
 40 39  1  0
 40 44  1  0
 41 40  2  0
 42 37  2  0
 42 41  1  0
 43 42  1  0
 45 46  1  0
 46 49  1  0
 46 48  1  0
 47 45  2  0
 50 51  1  0
 50 25  1  0
 52 50  1  0
 54 65  2  0
 55 53  1  0
 55 60  1  0
 56 64  1  0
 56 66  1  0
 57 63  1  0
 57 59  1  0
 58 64  1  0
 59 58  1  0
 60 59  2  0
 61 55  2  0
 62 61  1  0
 62 57  2  0
 63 56  1  0
 64 54  1  0
 66 68  2  0
 67 66  1  0
 69 67  1  0
 70 79  2  0
 70 75  1  0
 71 67  1  0
 71 75  1  0
 72 71  1  0
 73 74  1  0
 73 72  1  0
 74 70  1  0
 75 76  2  0
 76 77  1  0
 78 77  2  0
 79 78  1  0
 80 54  1  0
 80 81  1  0
 80 90  1  0
 81 84  1  0
 82 86  1  0
 82 81  1  0
 83 82  2  0
 86 85  1  0
 88 86  1  0
 88 89  1  0
 88 87  1  0
 90 93  1  1
 90 91  1  0
 92 90  1  0
M  ISO  4   6 101  15 100  23 100  53 101
M  END
>  <TORSDO>  (49) 
F 17

>  <SCORE>  (49) 
-14.039

>  <name>  (49) 
48

>  <ligand_id>  (49) 
48

>  <original_smiles>  (49) 
[H]c1c([H])c([H])c2c(c1[H])C([H])([H])C([H])([H])C([H])([H])C2([H])N([H])C(=O)C1([H])N(C(=O)C([H])(N([H])C(=O)C([H])(N([H])C([H])([H])[H])C([H])([H])[H])C(C([H])([H])[H])(C([H])([H])[H])C([H])([H])[H])C([H])([H])c2c([H])c(ON3C([H])([H])C([H])([H])C([H])(c4c([H])c(N([H])C(=O)N5C([H])([H])C([H])([H])C([H])([H])C([H])(n6nc(-c7c([H])c([H])c(Oc8c([H])c([H])c(F)c([H])c8F)c([H])c7[H])c(C(=O)N([H])[H])c6N([H])[H])C5([H])[H])c(C([H])([H])[H])c(C([H])([H])[H])c4[H])C([H])([H])C3([H])[H])c([H])c([H])c2C1([H])[H]

>  <smiles>  (49) 
[H]c1c([H])c([H])c2c(c1[H])C([H])([H])C([H])([H])C([H])([H])C2([H])N([H])C(=O)C1([H])N(C(=O)C([H])(N([H])C(=O)C([H])(N([H])C([H])([H])[H])C([H])([H])[H])C(C([H])([H])[H])(C([H])([H])[H])C([H])([H])[H])C([H])([H])c2c([H])c(ON3C([H])([H])C([H])([H])C([H])(c4c([H])c(N([H])C(=O)N5C([H])([H])C([H])([H])C([H])([H])C([H])(n6nc(-c7c([H])c([H])c(Oc8c([H])c([H])c(F)c([H])c8F)c([H])c7[H])c(C(=O)N([H])[H])c6N([H])[H])C5([H])[H])c(C([H])([H])[H])c(C([H])([H])[H])c4[H])C([H])([H])C3([H])[H])c([H])c([H])c2C1([H])[H]

$$$$
49:0:0
     RDKit          3D

 96106  0  0  1  0  0  0  0  0999 V2000
  -27.9560  -22.9340   19.1510 C   0  0  0  0  0  3  0  0  0  0  0  0
  -29.4130  -24.8830   20.4870 C   0  0  0  0  0  3  0  0  0  0  0  0
  -28.8220  -22.4840   20.1820 C   0  0  0  0  0  0  0  0  0  0  0  0
  -29.6080  -23.4990   20.8010 C   0  0  0  0  0  0  0  0  0  0  0  0
  -27.8350  -24.3040   18.7700 C   0  0  0  0  0  0  0  0  0  0  0  0
  -28.4870  -25.3420   19.5130 C   0  0  0  0  0  0  0  0  0  0  0  0
  -30.6950  -23.1380   21.8040 C   0  0  0  0  0  2  0  0  0  0  0  0
  -30.1640  -22.6150   23.1440 C   0  0  0  0  0  2  0  0  0  0  0  0
  -29.6960  -21.1550   23.0880 C   0  0  0  0  0  2  0  0  0  0  0  0
  -28.4650  -20.9250   22.1950 C   0  0  0  0  0  2  0  0  0  0  0  0
  -28.7520  -20.9810   20.6760 C   0  0  0  0  0  3  0  0  0  0  0  0
  -27.0230  -24.5920   17.5140 C   0  0  0  0  0  1  0  0  0  0  0  0
  -29.5810  -18.5100   20.4850 C   0  0  0  0  0  3  0  0  0  0  0  0
  -29.7560  -19.8520   20.2180 C   0  0  0  0  0  0  0  0  0  0  0  0
  -30.5250  -17.3690   20.1210 C   0  0  0  0  0  0  0  0  0  0  0  0
  -30.9780  -20.3080   19.4400 C   0  0  0  0  0  2  0  0  0  0  0  0
  -31.7130  -17.8270   19.2550 C   0  0  0  0  0  2  0  0  0  0  0  0
  -31.5170  -19.1840   18.5440 C   0  0  0  0  0  2  0  0  0  0  0  0
  -30.3140  -16.1350   20.5370 N   0  0  0  0  0  0  0  0  0  0  0  0
  -31.1500  -15.0140   20.2300 C   0  0  0  0  0  0  0  0  0  0  0  0
  -30.8830  -12.8220   19.0860 C   0  0  0  0  0  2  0  0  0  0  0  0
  -29.9270  -13.0340   17.8890 C   0  0  0  0  0  2  0  0  0  0  0  0
  -28.4520  -12.9010   18.3240 C   0  0  0  0  0  2  0  0  0  0  0  0
  -28.1320  -13.6970   19.6180 C   0  0  0  0  0  3  0  0  0  0  0  0
  -29.2050  -13.4600   20.7010 C   0  0  0  0  0  2  0  0  0  0  0  0
  -30.5110  -13.8030   20.1240 N   0  0  0  0  0  0  0  0  0  0  0  0
  -32.3380  -15.0760   19.9130 O   0  0  0  0  0  0  0  0  0  0  0  0
  -25.7590  -14.3000   20.3860 C   0  0  0  0  0  0  0  0  0  0  0  0
  -24.6850  -13.5270   20.7380 C   0  0  0  0  0  0  0  0  0  0  0  0
  -25.1290  -12.1710   20.6570 C   0  0  0  0  0  0  0  0  0  0  0  0
  -26.7880  -13.4140   20.1100 N   0  0  0  0  0  0  0  0  0  0  0  0
  -26.4170  -12.1270   20.3360 N   0  0  0  0  0  0  0  0  0  0  0  0
  -24.3870  -10.9140   20.8090 C   0  0  0  0  0  0  0  0  0  0  0  0
  -24.7800   -9.9310   21.7440 C   0  0  0  0  0  3  0  0  0  0  0  0
  -24.0390   -8.7380   21.8840 C   0  0  0  0  0  3  0  0  0  0  0  0
  -22.8910   -8.5200   21.0850 C   0  0  0  0  0  0  0  0  0  0  0  0
  -22.5170   -9.4910   20.1380 C   0  0  0  0  0  3  0  0  0  0  0  0
  -23.2600  -10.6750   19.9980 C   0  0  0  0  0  3  0  0  0  0  0  0
  -22.1230   -7.3810   21.1320 O   0  0  0  0  0  0  0  0  0  0  0  0
  -21.9640   -6.6680   22.2940 C   0  0  0  0  0  0  0  0  0  0  0  0
  -21.4530   -7.2630   23.4690 C   0  0  0  0  0  3  0  0  0  0  0  0
  -21.2390   -6.4770   24.6190 C   0  0  0  0  0  3  0  0  0  0  0  0
  -21.5300   -5.1010   24.5960 C   0  0  0  0  0  0  0  0  0  0  0  0
  -22.0350   -4.5060   23.4270 C   0  0  0  0  0  3  0  0  0  0  0  0
  -22.2490   -5.2880   22.2780 C   0  0  0  0  0  0  0  0  0  0  0  0
  -22.7140   -4.7070   21.1450 F   0  0  0  0  0  0  0  0  0  0  0  0
  -21.3190   -4.3440   25.6990 F   0  0  0  0  0  0  0  0  0  0  0  0
  -23.2970  -14.0130   21.0380 C   0  0  0  0  0  0  0  0  0  0  0  0
  -22.5750  -13.3180   21.9110 N   0  0  0  0  0  0  0  0  0  0  0  0
  -22.8570  -15.0440   20.5320 O   0  0  0  0  0  0  0  0  0  0  0  0
  -22.9380  -12.4850   22.3460 H   0  0  0  0  0  0  0  0  0  0  0  0
  -21.6460  -13.6340   22.1510 H   0  0  0  0  0  0  0  0  0  0  0  0
  -25.9430  -15.6730   20.2570 N   0  0  0  0  0  0  0  0  0  0  0  0
  -25.2040  -16.3450   20.4260 H   0  0  0  0  0  0  0  0  0  0  0  0
  -26.8230  -16.0970   19.9870 H   0  0  0  0  0  0  0  0  0  0  0  0
  -28.3940  -26.7340   19.2520 O   0  0  0  0  0  0  0  0  0  0  0  0
  -24.6970  -31.7200   23.0090 C   0  0  0  0  0  0  0  0  0  0  0  0
  -27.2340  -27.4960   19.4620 C   0  0  0  0  0  0  0  0  0  0  0  0
  -23.4370  -30.4330   21.3250 C   0  0  0  0  0  3  0  0  0  0  0  0
  -24.8410  -29.0490   19.7070 C   0  0  0  0  0  0  0  0  0  0  0  0
  -25.9530  -30.8440   21.0280 C   0  0  0  0  0  2  0  0  0  0  0  0
  -26.0320  -29.5170   20.2780 C   0  0  0  0  0  0  0  0  0  0  0  0
  -27.2360  -28.7610   20.1350 C   0  0  0  0  0  3  0  0  0  0  0  0
  -25.9960  -27.0540   18.9480 C   0  0  0  0  0  3  0  0  0  0  0  0
  -24.8240  -27.8240   19.0320 C   0  0  0  0  0  3  0  0  0  0  0  0
  -23.5890  -29.8870   19.8840 C   0  0  0  0  0  2  0  0  0  0  0  0
  -24.7200  -31.0070   21.8460 N   0  0  0  0  0  0  0  0  0  0  0  0
  -23.6350  -31.9250   23.6160 O   0  0  0  0  0  0  0  0  0  0  0  0
  -22.8460  -29.3210   22.2250 C   0  0  0  0  0  0  0  0  0  0  0  0
  -21.5200  -29.1140   22.1400 N   0  0  0  0  0  0  0  0  0  0  0  0
  -23.5790  -28.6540   22.9570 O   0  0  0  0  0  0  0  0  0  0  0  0
  -20.9830  -29.7210   21.5370 H   0  0  0  0  0  0  0  0  0  0  0  0
  -18.2060  -27.7640   22.6610 C   0  0  0  0  0  0  0  0  0  0  0  0
  -20.7590  -28.0980   22.8710 C   0  0  0  0  0  3  0  0  0  0  0  0
  -20.8910  -26.7120   22.1980 C   0  0  0  0  0  2  0  0  0  0  0  0
  -19.7670  -26.4170   21.1980 C   0  0  0  0  0  2  0  0  0  0  0  0
  -18.4030  -26.4710   21.8900 C   0  0  0  0  0  2  0  0  0  0  0  0
  -19.3090  -28.5400   23.1060 C   0  0  0  0  0  0  0  0  0  0  0  0
  -19.0630  -29.7530   23.7840 C   0  0  0  0  0  3  0  0  0  0  0  0
  -17.7460  -30.1940   24.0190 C   0  0  0  0  0  3  0  0  0  0  0  0
  -16.6580  -29.4160   23.5830 C   0  0  0  0  0  3  0  0  0  0  0  0
  -16.8890  -28.2040   22.9130 C   0  0  0  0  0  3  0  0  0  0  0  0
  -25.9940  -32.3330   23.6200 C   0  0  0  0  0  3  0  0  0  0  0  0
  -25.6610  -33.6780   24.1070 N   0  0  0  0  0  0  0  0  0  0  0  0
  -25.9160  -34.8130   23.4410 C   0  0  0  0  0  0  0  0  0  0  0  0
  -26.5230  -34.8360   22.3650 O   0  0  0  0  0  0  0  0  0  0  0  0
  -25.1190  -33.7340   24.9570 H   0  0  0  0  0  0  0  0  0  0  0  0
  -24.1150  -36.5700   23.3790 C   0  0  0  0  0  1  0  0  0  0  0  0
  -25.4200  -36.1330   24.0620 C   0  0  0  0  0  3  0  0  0  0  0  0
  -27.5760  -37.0120   24.8380 C   0  0  0  0  0  1  0  0  0  0  0  0
  -26.4100  -37.2280   23.9890 N   0  0  0  0  0  0  0  0  0  0  0  0
  -25.9860  -38.1110   24.2530 H   0  0  0  0  0  0  0  0  0  0  0  0
  -26.6060  -31.4540   24.7780 C   0  0  1  0  0  0  0  0  0  0  0  0
  -25.5870  -31.0760   25.8780 C   0  0  0  0  0  1  0  0  0  0  0  0
  -27.1910  -30.1410   24.2080 C   0  0  0  0  0  1  0  0  0  0  0  0
  -27.7820  -32.2100   25.4440 C   0  0  0  0  0  1  0  0  0  0  0  0
  1  3  1  0
  2  4  1  0
  3 11  1  0
  3  4  2  0
  4  7  1  0
  5  1  2  0
  5  6  1  0
  6  2  2  0
  7  8  1  0
  9  8  1  0
 10  9  1  0
 11 14  1  0
 11 10  1  0
 12  5  1  0
 14 13  2  0
 15 13  1  0
 15 19  2  0
 16 14  1  0
 17 15  1  0
 18 17  1  0
 18 16  1  0
 20 19  1  0
 21 26  1  0
 22 23  1  0
 22 21  1  0
 24 23  1  0
 24 31  1  0
 24 25  1  0
 26 20  1  0
 26 25  1  0
 27 20  2  0
 28 29  2  0
 29 48  1  0
 30 29  1  0
 30 33  1  0
 31 32  1  0
 31 28  1  0
 32 30  2  0
 33 34  1  0
 34 35  2  0
 36 39  1  0
 36 35  1  0
 37 36  2  0
 38 37  1  0
 38 33  2  0
 39 40  1  0
 40 41  1  0
 41 42  2  0
 43 42  1  0
 43 47  1  0
 44 43  2  0
 45 40  2  0
 45 44  1  0
 46 45  1  0
 48 49  1  0
 49 52  1  0
 49 51  1  0
 50 48  2  0
 53 28  1  0
 53 54  1  0
 55 53  1  0
 56 58  1  0
 56  6  1  0
 57 68  2  0
 58 63  1  0
 59 67  1  0
 59 69  1  0
 60 66  1  0
 60 62  1  0
 61 67  1  0
 62 61  1  0
 63 62  2  0
 64 65  1  0
 64 58  2  0
 65 60  2  0
 66 59  1  0
 67 57  1  0
 69 71  2  0
 70 69  1  0
 72 70  1  0
 73 82  2  0
 73 78  1  0
 74 70  1  0
 74 78  1  0
 75 74  1  0
 76 77  1  0
 76 75  1  0
 77 73  1  0
 78 79  2  0
 79 80  1  0
 81 80  2  0
 82 81  1  0
 83 57  1  0
 83 84  1  0
 83 93  1  0
 84 87  1  0
 85 89  1  0
 85 84  1  0
 86 85  2  0
 89 88  1  0
 91 89  1  0
 91 92  1  0
 91 90  1  0
 93 96  1  1
 93 94  1  0
 95 93  1  0
M  ISO  4   6 101  19 100  20 100  56 101
M  END
>  <TORSDO>  (50) 
F 17

>  <SCORE>  (50) 
-12.917

>  <name>  (50) 
49

>  <ligand_id>  (50) 
49

>  <original_smiles>  (50) 
[H]C1=C(C2([H])c3c([H])c(C([H])([H])[H])c(Oc4c([H])c([H])c5c(c4[H])C([H])([H])N(C(=O)C([H])(N([H])C(=O)C([H])(N([H])C([H])([H])[H])C([H])([H])[H])C(C([H])([H])[H])(C([H])([H])[H])C([H])([H])[H])C([H])(C(=O)N([H])C4([H])c6c([H])c([H])c([H])c([H])c6C([H])([H])C([H])([H])C4([H])[H])C5([H])[H])c([H])c3C([H])([H])C([H])([H])C([H])([H])C2([H])[H])C([H])([H])C([H])([H])C([H])([H])C1=NC(=O)N1C([H])([H])C([H])([H])C([H])([H])C([H])(n2nc(-c3c([H])c([H])c(Oc4c([H])c([H])c(F)c([H])c4F)c([H])c3[H])c(C(=O)N([H])[H])c2N([H])[H])C1([H])[H]

>  <smiles>  (50) 
[H]C1=C(C2([H])c3c([H])c(C([H])([H])[H])c(Oc4c([H])c([H])c5c(c4[H])C([H])([H])N(C(=O)C([H])(N([H])C(=O)C([H])(N([H])C([H])([H])[H])C([H])([H])[H])C(C([H])([H])[H])(C([H])([H])[H])C([H])([H])[H])C([H])(C(=O)N([H])C4([H])c6c([H])c([H])c([H])c([H])c6C([H])([H])C([H])([H])C4([H])[H])C5([H])[H])c([H])c3C([H])([H])C([H])([H])C([H])([H])C2([H])[H])C([H])([H])C([H])([H])C([H])([H])C1=NC(=O)N1C([H])([H])C([H])([H])C([H])([H])C([H])(n2nc(-c3c([H])c([H])c(Oc4c([H])c([H])c(F)c([H])c4F)c([H])c3[H])c(C(=O)N([H])[H])c2N([H])[H])C1([H])[H]

$$$$
50:0:0
     RDKit          3D

 90 98  0  0  1  0  0  0  0  0999 V2000
  -29.6710  -17.3380   20.3010 C   0  0  0  0  0  0  0  0  0  0  0  0
  -28.6550  -18.0680   19.4850 C   0  0  0  0  0  0  0  0  0  0  0  0
  -30.2760  -18.4800   21.0330 C   0  0  0  0  0  0  0  0  0  0  0  0
  -28.3290  -19.5700   19.4360 C   0  0  0  0  0  0  0  0  0  0  0  0
  -28.9520  -20.7000   20.1760 C   0  0  0  0  0  0  0  0  0  0  0  0
  -29.9470  -19.9590   20.9750 C   0  0  0  0  0  0  0  0  0  0  0  0
  -27.8680  -17.1850   18.5220 C   0  0  0  0  0  1  0  0  0  0  0  0
  -27.2450  -20.0160   18.4650 C   0  0  0  0  0  1  0  0  0  0  0  0
  -30.7210  -20.7570   21.7500 F   0  0  0  0  0  0  0  0  0  0  0  0
  -30.2810  -15.6900   20.2230 C   0  0  0  0  0  0  0  0  0  0  0  0
  -30.3090  -13.1650   19.4450 C   0  0  0  0  0  2  0  0  0  0  0  0
  -29.4210  -12.8100   18.2210 C   0  0  0  0  0  2  0  0  0  0  0  0
  -27.9890  -12.4810   18.6690 C   0  0  0  0  0  2  0  0  0  0  0  0
  -27.4840  -13.4860   19.7290 C   0  0  0  0  0  3  0  0  0  0  0  0
  -28.5090  -13.7970   20.8410 C   0  0  0  0  0  2  0  0  0  0  0  0
  -29.7120  -14.3560   20.1920 N   0  0  0  0  0  0  0  0  0  0  0  0
  -31.5060  -15.5730   20.0480 O   0  0  0  0  0  0  0  0  0  0  0  0
  -25.1360  -14.0110   20.5440 C   0  0  0  0  0  0  0  0  0  0  0  0
  -24.0760  -13.2240   20.8930 C   0  0  0  0  0  0  0  0  0  0  0  0
  -24.5380  -11.8750   20.8120 C   0  0  0  0  0  0  0  0  0  0  0  0
  -26.1710  -13.1430   20.2550 N   0  0  0  0  0  0  0  0  0  0  0  0
  -25.8280  -11.8480   20.4860 N   0  0  0  0  0  0  0  0  0  0  0  0
  -23.8070  -10.6100   20.9650 C   0  0  0  0  0  0  0  0  0  0  0  0
  -24.2270   -9.6150   21.8760 C   0  0  0  0  0  3  0  0  0  0  0  0
  -23.4920   -8.4190   22.0210 C   0  0  0  0  0  3  0  0  0  0  0  0
  -22.3200   -8.2090   21.2550 C   0  0  0  0  0  0  0  0  0  0  0  0
  -21.9180   -9.1910   20.3330 C   0  0  0  0  0  3  0  0  0  0  0  0
  -22.6550  -10.3780   20.1870 C   0  0  0  0  0  3  0  0  0  0  0  0
  -21.5570   -7.0670   21.3110 O   0  0  0  0  0  0  0  0  0  0  0  0
  -21.4790   -6.3080   22.4510 C   0  0  0  0  0  0  0  0  0  0  0  0
  -21.0130   -6.8430   23.6720 C   0  0  0  0  0  3  0  0  0  0  0  0
  -20.8820   -6.0110   24.8010 C   0  0  0  0  0  3  0  0  0  0  0  0
  -21.2070   -4.6450   24.7110 C   0  0  0  0  0  0  0  0  0  0  0  0
  -21.6650   -4.1080   23.4940 C   0  0  0  0  0  3  0  0  0  0  0  0
  -21.7970   -4.9380   22.3670 C   0  0  0  0  0  0  0  0  0  0  0  0
  -22.2190   -4.4110   21.1920 F   0  0  0  0  0  0  0  0  0  0  0  0
  -21.0740   -3.8430   25.7930 F   0  0  0  0  0  0  0  0  0  0  0  0
  -22.6840  -13.6990   21.1860 C   0  0  0  0  0  0  0  0  0  0  0  0
  -21.9600  -12.9840   22.0380 N   0  0  0  0  0  0  0  0  0  0  0  0
  -22.2480  -14.7400   20.6940 O   0  0  0  0  0  0  0  0  0  0  0  0
  -22.3260  -12.1410   22.4560 H   0  0  0  0  0  0  0  0  0  0  0  0
  -21.0250  -13.2830   22.2770 H   0  0  0  0  0  0  0  0  0  0  0  0
  -25.3060  -15.3870   20.4190 N   0  0  0  0  0  0  0  0  0  0  0  0
  -24.5520  -16.0430   20.5900 H   0  0  0  0  0  0  0  0  0  0  0  0
  -26.1720  -15.8400   20.1600 H   0  0  0  0  0  0  0  0  0  0  0  0
  -32.7990  -18.4720   21.3830 C   0  0  0  0  0  1  0  0  0  0  0  0
  -31.4240  -18.1320   21.9760 C   0  0  0  0  0  2  0  0  0  0  0  0
  -28.8870  -22.5310   20.0140 C   0  0  0  0  0  3  0  0  0  0  0  0
  -27.7850  -24.0660   20.0400 C   0  0  0  0  0  3  0  0  0  0  0  0
  -27.9750  -25.7810   20.0210 O   0  0  0  0  0  0  0  0  0  0  0  0
  -24.5210  -31.9150   23.1220 C   0  0  0  0  0  0  0  0  0  0  0  0
  -26.9760  -26.9400   20.0160 C   0  0  0  0  0  0  0  0  0  0  0  0
  -23.2810  -30.5200   21.5210 C   0  0  0  0  0  3  0  0  0  0  0  0
  -24.6870  -28.9020   20.0490 C   0  0  0  0  0  0  0  0  0  0  0  0
  -25.8490  -30.7050   21.3000 C   0  0  0  0  0  2  0  0  0  0  0  0
  -25.8990  -29.2840   20.6360 C   0  0  0  0  0  0  0  0  0  0  0  0
  -27.0320  -28.3280   20.5870 C   0  0  0  0  0  3  0  0  0  0  0  0
  -25.7270  -26.7460   19.3800 C   0  0  0  0  0  3  0  0  0  0  0  0
  -24.6330  -27.6590   19.3970 C   0  0  0  0  0  3  0  0  0  0  0  0
  -23.4730  -29.8360   20.1380 C   0  0  0  0  0  2  0  0  0  0  0  0
  -24.5760  -31.0780   22.0330 N   0  0  0  0  0  0  0  0  0  0  0  0
  -23.4460  -32.2020   23.6770 O   0  0  0  0  0  0  0  0  0  0  0  0
  -22.6130  -29.5270   22.5090 C   0  0  0  0  0  0  0  0  0  0  0  0
  -21.2840  -29.3370   22.4080 N   0  0  0  0  0  0  0  0  0  0  0  0
  -23.3000  -28.9260   23.3380 O   0  0  0  0  0  0  0  0  0  0  0  0
  -20.7780  -29.8750   21.7170 H   0  0  0  0  0  0  0  0  0  0  0  0
  -17.9420  -28.0230   22.9560 C   0  0  0  0  0  0  0  0  0  0  0  0
  -20.4920  -28.3880   23.2010 C   0  0  0  0  0  3  0  0  0  0  0  0
  -20.6420  -26.9490   22.6540 C   0  0  0  0  0  2  0  0  0  0  0  0
  -19.5490  -26.5670   21.6510 C   0  0  0  0  0  2  0  0  0  0  0  0
  -18.1660  -26.6710   22.2990 C   0  0  0  0  0  2  0  0  0  0  0  0
  -19.0340  -28.8360   23.3640 C   0  0  0  0  0  0  0  0  0  0  0  0
  -18.7670  -30.0950   23.9430 C   0  0  0  0  0  3  0  0  0  0  0  0
  -17.4440  -30.5450   24.1150 C   0  0  0  0  0  3  0  0  0  0  0  0
  -16.3680  -29.7310   23.7200 C   0  0  0  0  0  3  0  0  0  0  0  0
  -16.6180  -28.4720   23.1470 C   0  0  0  0  0  3  0  0  0  0  0  0
  -25.8040  -32.5660   23.7200 C   0  0  0  0  0  3  0  0  0  0  0  0
  -26.3570  -31.7980   24.9850 C   0  0  1  0  0  0  0  0  0  0  0  0
  -25.2940  -31.5560   26.0840 C   0  0  0  0  0  1  0  0  0  0  0  0
  -26.9350  -30.4220   24.5880 C   0  0  0  0  0  1  0  0  0  0  0  0
  -27.5210  -32.5960   25.6150 C   0  0  0  0  0  1  0  0  0  0  0  0
  -25.4840  -33.9610   24.0820 N   0  0  0  0  0  0  0  0  0  0  0  0
  -25.8010  -35.0400   23.3520 C   0  0  0  0  0  0  0  0  0  0  0  0
  -26.4520  -34.9650   22.3070 O   0  0  0  0  0  0  0  0  0  0  0  0
  -24.9030  -34.0900   24.8970 H   0  0  0  0  0  0  0  0  0  0  0  0
  -24.0730  -36.8530   23.0780 C   0  0  0  0  0  1  0  0  0  0  0  0
  -25.3240  -36.4180   23.8580 C   0  0  0  0  0  3  0  0  0  0  0  0
  -27.4680  -37.2820   24.6900 C   0  0  0  0  0  1  0  0  0  0  0  0
  -26.3570  -37.4730   23.7620 N   0  0  0  0  0  0  0  0  0  0  0  0
  -25.9540  -38.3890   23.9360 H   0  0  0  0  0  0  0  0  0  0  0  0
  1  3  1  0
  2  1  2  0
  3 47  1  0
  4  2  1  0
  4  5  2  0
  5  6  1  0
  6  3  2  0
  6  9  1  0
  7  2  1  0
  8  4  1  0
 10  1  1  0
 11 16  1  0
 12 13  1  0
 12 11  1  0
 14 13  1  0
 14 21  1  0
 14 15  1  0
 16 10  1  0
 16 15  1  0
 17 10  2  0
 18 19  2  0
 19 38  1  0
 20 19  1  0
 20 23  1  0
 21 22  1  0
 21 18  1  0
 22 20  2  0
 23 24  1  0
 24 25  2  0
 26 29  1  0
 26 25  1  0
 27 26  2  0
 28 27  1  0
 28 23  2  0
 29 30  1  0
 30 31  1  0
 31 32  2  0
 33 32  1  0
 33 37  1  0
 34 33  2  0
 35 30  2  0
 35 34  1  0
 36 35  1  0
 38 39  1  0
 39 42  1  0
 39 41  1  0
 40 38  2  0
 43 18  1  0
 43 44  1  0
 45 43  1  0
 46 47  1  0
 48 49  2  0
 48  5  1  0
 50 49  1  0
 51 62  2  0
 52 50  1  0
 52 57  1  0
 53 61  1  0
 53 63  1  0
 54 60  1  0
 54 56  1  0
 55 61  1  0
 56 55  1  0
 57 56  2  0
 58 59  1  0
 58 52  2  0
 59 54  2  0
 60 53  1  0
 61 51  1  0
 63 65  2  0
 64 63  1  0
 66 64  1  0
 67 76  2  0
 67 72  1  0
 68 64  1  0
 68 72  1  0
 69 68  1  0
 70 71  1  0
 70 69  1  0
 71 67  1  0
 72 73  2  0
 73 74  1  0
 75 74  2  0
 76 75  1  0
 77 51  1  0
 77 82  1  0
 77 78  1  0
 78 81  1  1
 78 79  1  0
 80 78  1  0
 82 85  1  0
 83 87  1  0
 83 82  1  0
 84 83  2  0
 87 86  1  0
 89 87  1  0
 89 90  1  0
 89 88  1  0
M  ISO  4   1 100  10 100  49 101  50 101
M  END
>  <TORSDO>  (51) 
F 19

>  <SCORE>  (51) 
-16.009

>  <name>  (51) 
50

>  <ligand_id>  (51) 
50

>  <original_smiles>  (51) 
[H]c1c([H])c([H])c2c(c1[H])C([H])([H])C([H])([H])C([H])([H])C2([H])N([H])C(=O)C1([H])N(C(=O)C([H])(N([H])C(=O)C([H])(N([H])C([H])([H])[H])C([H])([H])[H])C(C([H])([H])[H])(C([H])([H])[H])C([H])([H])[H])C([H])([H])c2c([H])c(OC([H])([H])C([H])([H])c3c(F)c(C([H])([H])C([H])([H])[H])c(C(=O)N4C([H])([H])C([H])([H])C([H])([H])C([H])(n5nc(-c6c([H])c([H])c(Oc7c([H])c([H])c(F)c([H])c7F)c([H])c6[H])c(C(=O)N([H])[H])c5N([H])[H])C4([H])[H])c(C([H])([H])[H])c3C([H])([H])[H])c([H])c([H])c2C1([H])[H]

>  <smiles>  (51) 
[H]c1c([H])c([H])c2c(c1[H])C([H])([H])C([H])([H])C([H])([H])C2([H])N([H])C(=O)C1([H])N(C(=O)C([H])(N([H])C(=O)C([H])(N([H])C([H])([H])[H])C([H])([H])[H])C(C([H])([H])[H])(C([H])([H])[H])C([H])([H])[H])C([H])([H])c2c([H])c(OC([H])([H])C([H])([H])c3c(F)c(C([H])([H])C([H])([H])[H])c(C(=O)N4C([H])([H])C([H])([H])C([H])([H])C([H])(n5nc(-c6c([H])c([H])c(Oc7c([H])c([H])c(F)c([H])c7F)c([H])c6[H])c(C(=O)N([H])[H])c5N([H])[H])C4([H])[H])c(C([H])([H])[H])c3C([H])([H])[H])c([H])c([H])c2C1([H])[H]

$$$$
51:0:0
     RDKit          3D

 94104  0  0  1  0  0  0  0  0999 V2000
  -28.7070  -20.1510   19.7800 C   0  0  0  0  0  0  0  0  0  0  0  0
  -30.0490  -20.2760   19.3200 C   0  0  0  0  0  0  0  0  0  0  0  0
  -27.8110  -21.2400   19.9430 C   0  0  0  0  0  0  0  0  0  0  0  0
  -30.4150  -21.7030   18.9310 C   0  0  0  0  0  0  0  0  0  0  0  0
  -28.2590  -22.6050   19.7160 C   0  0  0  0  0  0  0  0  0  0  0  0
  -29.5590  -22.9660   19.1880 C   0  0  0  0  0  0  0  0  0  0  0  0
  -29.2120  -17.3250   21.6760 C   0  0  0  0  0  2  0  0  0  0  0  0
  -28.1800  -17.7320   20.6110 C   0  0  0  0  0  2  0  0  0  0  0  0
  -30.6970  -17.2760   21.2520 C   0  0  0  0  0  2  0  0  0  0  0  0
  -28.6360  -18.6510   19.4750 C   0  0  0  0  0  3  0  0  0  0  0  0
  -30.1620  -18.5770   18.9950 C   0  0  0  0  0  3  0  0  0  0  0  0
  -31.0340  -17.2140   19.7360 C   0  0  1  0  0  0  0  0  0  0  0  0
  -26.3450  -20.9130   20.2160 C   0  0  0  0  0  1  0  0  0  0  0  0
  -31.6870  -21.8440   18.1190 C   0  0  0  0  0  1  0  0  0  0  0  0
  -27.2570  -23.7440   19.8910 C   0  0  0  0  0  1  0  0  0  0  0  0
  -32.4700  -17.8210   19.6550 C   0  0  0  0  0  1  0  0  0  0  0  0
  -31.3430  -15.4850   19.3180 C   0  0  0  0  0  0  0  0  0  0  0  0
  -31.1220  -12.9780   18.6260 C   0  0  0  0  0  2  0  0  0  0  0  0
  -30.0950  -12.7470   17.4890 C   0  0  0  0  0  2  0  0  0  0  0  0
  -28.7080  -12.4960   18.0920 C   0  0  0  0  0  2  0  0  0  0  0  0
  -28.3840  -13.5040   19.2220 C   0  0  0  0  0  3  0  0  0  0  0  0
  -29.5500  -13.7290   20.2190 C   0  0  0  0  0  2  0  0  0  0  0  0
  -30.7190  -14.1970   19.4490 N   0  0  0  0  0  0  0  0  0  0  0  0
  -32.4470  -15.3020   18.7840 O   0  0  0  0  0  0  0  0  0  0  0  0
  -26.1650  -14.0670   20.3350 C   0  0  0  0  0  0  0  0  0  0  0  0
  -25.1470  -13.3040   20.8250 C   0  0  0  0  0  0  0  0  0  0  0  0
  -25.5420  -11.9480   20.6260 C   0  0  0  0  0  0  0  0  0  0  0  0
  -27.1310  -13.1840   19.8970 N   0  0  0  0  0  0  0  0  0  0  0  0
  -26.7750  -11.8930   20.1310 N   0  0  0  0  0  0  0  0  0  0  0  0
  -24.7840  -10.7050   20.8180 C   0  0  0  0  0  0  0  0  0  0  0  0
  -25.1590   -9.7470   21.7860 C   0  0  0  0  0  3  0  0  0  0  0  0
  -24.3940   -8.5750   21.9640 C   0  0  0  0  0  3  0  0  0  0  0  0
  -23.2400   -8.3520   21.1770 C   0  0  0  0  0  0  0  0  0  0  0  0
  -22.8860   -9.2970   20.1990 C   0  0  0  0  0  3  0  0  0  0  0  0
  -23.6510  -10.4610   20.0170 C   0  0  0  0  0  3  0  0  0  0  0  0
  -22.4540   -7.2300   21.2630 O   0  0  0  0  0  0  0  0  0  0  0  0
  -22.1430   -6.6640   22.4740 C   0  0  0  0  0  0  0  0  0  0  0  0
  -21.4690   -7.3850   23.4830 C   0  0  0  0  0  3  0  0  0  0  0  0
  -21.1080   -6.7430   24.6840 C   0  0  0  0  0  3  0  0  0  0  0  0
  -21.4100   -5.3810   24.8750 C   0  0  0  0  0  0  0  0  0  0  0  0
  -22.0760   -4.6600   23.8670 C   0  0  0  0  0  3  0  0  0  0  0  0
  -22.4370   -5.2990   22.6690 C   0  0  0  0  0  0  0  0  0  0  0  0
  -23.0610   -4.5940   21.6940 F   0  0  0  0  0  0  0  0  0  0  0  0
  -21.0550   -4.7620   26.0250 F   0  0  0  0  0  0  0  0  0  0  0  0
  -23.8340  -13.8170   21.3370 C   0  0  0  0  0  0  0  0  0  0  0  0
  -23.2280  -13.1040   22.2790 N   0  0  0  0  0  0  0  0  0  0  0  0
  -23.3670  -14.8860   20.9430 O   0  0  0  0  0  0  0  0  0  0  0  0
  -23.6290  -12.2420   22.6180 H   0  0  0  0  0  0  0  0  0  0  0  0
  -22.3530  -13.4240   22.6670 H   0  0  0  0  0  0  0  0  0  0  0  0
  -26.3230  -15.4340   20.1820 N   0  0  0  0  0  0  0  0  0  0  0  0
  -25.5530  -16.0700   20.3600 H   0  0  0  0  0  0  0  0  0  0  0  0
  -27.0590  -15.8470   19.6270 H   0  0  0  0  0  0  0  0  0  0  0  0
  -29.7640  -24.6290   18.6440 C   0  0  0  0  0  2  0  0  0  0  0  0
  -29.4480  -26.1270   19.2410 O   0  0  0  0  0  0  0  0  0  0  0  0
  -24.9430  -31.0410   22.7320 C   0  0  0  0  0  0  0  0  0  0  0  0
  -28.2760  -27.0440   19.1910 C   0  0  0  0  0  0  0  0  0  0  0  0
  -24.0050  -29.6670   20.9120 C   0  0  0  0  0  3  0  0  0  0  0  0
  -25.7010  -28.4990   19.3440 C   0  0  0  0  0  0  0  0  0  0  0  0
  -26.5060  -30.3080   20.8530 C   0  0  0  0  0  2  0  0  0  0  0  0
  -26.8030  -29.0200   20.0340 C   0  0  0  0  0  0  0  0  0  0  0  0
  -28.0790  -28.3040   19.9410 C   0  0  0  0  0  3  0  0  0  0  0  0
  -27.1290  -26.6920   18.4460 C   0  0  0  0  0  3  0  0  0  0  0  0
  -25.8820  -27.3630   18.5390 C   0  0  0  0  0  3  0  0  0  0  0  0
  -24.3480  -29.1910   19.4720 C   0  0  0  0  0  2  0  0  0  0  0  0
  -25.1670  -30.3670   21.5560 N   0  0  0  0  0  0  0  0  0  0  0  0
  -23.8150  -31.0910   23.2500 O   0  0  0  0  0  0  0  0  0  0  0  0
  -23.4740  -28.4730   21.7480 C   0  0  0  0  0  0  0  0  0  0  0  0
  -22.1850  -28.1200   21.5910 N   0  0  0  0  0  0  0  0  0  0  0  0
  -24.2330  -27.8610   22.5060 O   0  0  0  0  0  0  0  0  0  0  0  0
  -21.6180  -28.6770   20.9670 H   0  0  0  0  0  0  0  0  0  0  0  0
  -19.0140  -26.3810   21.9630 C   0  0  0  0  0  0  0  0  0  0  0  0
  -21.5190  -26.9760   22.2290 C   0  0  0  0  0  3  0  0  0  0  0  0
  -21.8020  -25.6650   21.4580 C   0  0  0  0  0  2  0  0  0  0  0  0
  -20.7260  -25.3330   20.4210 C   0  0  0  0  0  2  0  0  0  0  0  0
  -19.3570  -25.1800   21.0970 C   0  0  0  0  0  2  0  0  0  0  0  0
  -20.0270  -27.2330   22.4790 C   0  0  0  0  0  0  0  0  0  0  0  0
  -19.6530  -28.3490   23.2570 C   0  0  0  0  0  3  0  0  0  0  0  0
  -18.2960  -28.6210   23.5200 C   0  0  0  0  0  3  0  0  0  0  0  0
  -17.2980  -27.7680   23.0170 C   0  0  0  0  0  3  0  0  0  0  0  0
  -17.6570  -26.6500   22.2460 C   0  0  0  0  0  3  0  0  0  0  0  0
  -26.0830  -31.8070   23.4700 C   0  0  0  0  0  3  0  0  0  0  0  0
  -25.5370  -33.0940   23.9450 N   0  0  0  0  0  0  0  0  0  0  0  0
  -25.7120  -34.2750   23.3420 C   0  0  0  0  0  0  0  0  0  0  0  0
  -26.4120  -34.4100   22.3340 O   0  0  0  0  0  0  0  0  0  0  0  0
  -24.9190  -33.0520   24.7420 H   0  0  0  0  0  0  0  0  0  0  0  0
  -23.7320  -35.8180   23.1500 C   0  0  0  0  0  1  0  0  0  0  0  0
  -25.0080  -35.5080   23.9480 C   0  0  0  0  0  3  0  0  0  0  0  0
  -26.9550  -36.6100   24.9600 C   0  0  0  0  0  1  0  0  0  0  0  0
  -25.8640  -36.7150   23.9940 N   0  0  0  0  0  0  0  0  0  0  0  0
  -25.3150  -37.5380   24.2250 H   0  0  0  0  0  0  0  0  0  0  0  0
  -26.6870  -31.0000   24.6830 C   0  0  1  0  0  0  0  0  0  0  0  0
  -25.6290  -30.4870   25.6870 C   0  0  0  0  0  1  0  0  0  0  0  0
  -27.4900  -29.7780   24.1880 C   0  0  0  0  0  1  0  0  0  0  0  0
  -27.6870  -31.8950   25.4570 C   0  0  0  0  0  1  0  0  0  0  0  0
  1  3  1  0
  2  1  2  0
  3 13  1  0
  4  6  2  0
  4  2  1  0
  5 15  1  0
  5  3  2  0
  6  5  1  0
  8  7  1  0
  9  7  1  0
 10  1  1  0
 10  8  1  0
 11  2  1  0
 11 10  1  0
 11 12  1  0
 12 16  1  1
 12  9  1  0
 14  4  1  0
 17 23  1  0
 17 12  1  0
 18 23  1  0
 19 20  1  0
 19 18  1  0
 21 20  1  0
 21 28  1  0
 21 22  1  0
 23 22  1  0
 24 17  2  0
 25 26  2  0
 26 45  1  0
 27 30  1  0
 27 26  1  0
 28 29  1  0
 28 25  1  0
 29 27  2  0
 30 31  1  0
 31 32  2  0
 33 36  1  0
 33 32  1  0
 34 33  2  0
 35 34  1  0
 35 30  2  0
 36 37  1  0
 37 42  2  0
 37 38  1  0
 38 39  2  0
 39 40  1  0
 40 44  1  0
 41 40  2  0
 42 41  1  0
 43 42  1  0
 45 46  1  0
 46 48  1  0
 46 49  1  0
 47 45  2  0
 50 25  1  0
 50 51  1  0
 52 50  1  0
 53  6  1  0
 53 54  1  0
 55 66  2  0
 56 54  1  0
 56 61  1  0
 57 65  1  0
 57 67  1  0
 58 64  1  0
 58 60  1  0
 59 65  1  0
 60 59  1  0
 61 60  2  0
 62 63  1  0
 62 56  2  0
 63 58  2  0
 64 57  1  0
 65 55  1  0
 67 69  2  0
 68 67  1  0
 70 68  1  0
 71 80  2  0
 71 76  1  0
 72 68  1  0
 72 76  1  0
 73 72  1  0
 74 75  1  0
 74 73  1  0
 75 71  1  0
 76 77  2  0
 77 78  1  0
 79 78  2  0
 80 79  1  0
 81 55  1  0
 81 82  1  0
 81 91  1  0
 82 85  1  0
 83 82  1  0
 83 87  1  0
 84 83  2  0
 87 86  1  0
 87 89  1  0
 89 90  1  0
 89 88  1  0
 91 94  1  1
 91 92  1  0
 93 91  1  0
M  ISO  4  12 100  17 100  53 101  54 101
M  END
>  <TORSDO>  (52) 
F 17

>  <SCORE>  (52) 
-8.893

>  <name>  (52) 
51

>  <ligand_id>  (52) 
51

>  <original_smiles>  (52) 
[H]c1c([H])c([H])c2c(c1[H])C([H])([H])C([H])([H])C([H])([H])C2([H])N([H])C(=O)C1([H])N(C(=O)C([H])(N([H])C(=O)C([H])(N([H])C([H])([H])[H])C([H])([H])[H])C(C([H])([H])[H])(C([H])([H])[H])C([H])([H])[H])C([H])([H])c2c([H])c(OC([H])([H])c3c(C([H])([H])[H])c(C([H])([H])[H])c4c(c3C([H])([H])[H])C3([H])C4([H])C([H])([H])C([H])([H])C([H])([H])C3(C(=O)N3C([H])([H])C([H])([H])C([H])([H])C([H])(n4nc(-c5c([H])c([H])c(Oc6c([H])c([H])c(F)c([H])c6F)c([H])c5[H])c(C(=O)N([H])[H])c4N([H])[H])C3([H])[H])C([H])([H])[H])c([H])c([H])c2C1([H])[H]

>  <smiles>  (52) 
[H]c1c([H])c([H])c2c(c1[H])C([H])([H])C([H])([H])C([H])([H])C2([H])N([H])C(=O)C1([H])N(C(=O)C([H])(N([H])C(=O)C([H])(N([H])C([H])([H])[H])C([H])([H])[H])C(C([H])([H])[H])(C([H])([H])[H])C([H])([H])[H])C([H])([H])c2c([H])c(OC([H])([H])c3c(C([H])([H])[H])c(C([H])([H])[H])c4c(c3C([H])([H])[H])C3([H])C4([H])C([H])([H])C([H])([H])C([H])([H])C3(C(=O)N3C([H])([H])C([H])([H])C([H])([H])C([H])(n4nc(-c5c([H])c([H])c(Oc6c([H])c([H])c(F)c([H])c6F)c([H])c5[H])c(C(=O)N([H])[H])c4N([H])[H])C3([H])[H])C([H])([H])[H])c([H])c([H])c2C1([H])[H]

$$$$
52:0:0
     RDKit          3D

 92101  0  0  1  0  0  0  0  0999 V2000
  -30.5150  -22.6770   19.9130 C   0  0  0  0  0  3  0  0  0  0  0  0
  -31.4690  -21.6410   19.9320 C   0  0  0  0  0  3  0  0  0  0  0  0
  -28.7980  -21.0290   20.3660 C   0  0  0  0  0  3  0  0  0  0  0  0
  -29.1510  -22.4090   20.1220 C   0  0  0  0  0  0  0  0  0  0  0  0
  -29.7500  -19.9400   20.3900 C   0  0  0  0  0  0  0  0  0  0  0  0
  -31.1100  -20.2870   20.1530 C   0  0  0  0  0  0  0  0  0  0  0  0
  -27.8970  -24.5920   21.0040 C   0  0  0  0  0  2  0  0  0  0  0  0
  -28.1160  -23.5730   20.0060 C   0  0  0  0  0  3  0  0  0  0  0  0
  -28.3770  -25.1180   19.6210 C   0  0  0  0  0  3  0  0  0  0  0  0
  -28.3460  -26.5040   20.1780 O   0  0  0  0  0  0  0  0  0  0  0  0
  -24.6220  -31.8720   23.2430 C   0  0  0  0  0  0  0  0  0  0  0  0
  -27.2020  -27.3260   20.1380 C   0  0  0  0  0  0  0  0  0  0  0  0
  -23.4020  -30.4830   21.6110 C   0  0  0  0  0  3  0  0  0  0  0  0
  -24.8320  -28.9380   20.1620 C   0  0  0  0  0  0  0  0  0  0  0  0
  -25.9360  -30.8060   21.3920 C   0  0  0  0  0  2  0  0  0  0  0  0
  -26.0090  -29.4270   20.7470 C   0  0  0  0  0  0  0  0  0  0  0  0
  -27.1920  -28.6310   20.7240 C   0  0  0  0  0  3  0  0  0  0  0  0
  -25.9920  -26.8860   19.5470 C   0  0  0  0  0  3  0  0  0  0  0  0
  -24.8260  -27.6740   19.5550 C   0  0  0  0  0  3  0  0  0  0  0  0
  -23.5980  -29.8130   20.2250 C   0  0  0  0  0  2  0  0  0  0  0  0
  -24.6750  -31.0700   22.1410 N   0  0  0  0  0  0  0  0  0  0  0  0
  -23.5450  -32.1460   23.7910 O   0  0  0  0  0  0  0  0  0  0  0  0
  -22.7490  -29.4620   22.5720 C   0  0  0  0  0  0  0  0  0  0  0  0
  -21.4230  -29.2820   22.4520 N   0  0  0  0  0  0  0  0  0  0  0  0
  -23.4340  -28.8350   23.3850 O   0  0  0  0  0  0  0  0  0  0  0  0
  -20.9280  -29.8370   21.7680 H   0  0  0  0  0  0  0  0  0  0  0  0
  -18.0520  -28.0730   22.9580 C   0  0  0  0  0  0  0  0  0  0  0  0
  -20.6090  -28.3400   23.2240 C   0  0  0  0  0  3  0  0  0  0  0  0
  -20.7150  -26.9090   22.6490 C   0  0  0  0  0  2  0  0  0  0  0  0
  -19.6130  -26.5830   21.6360 C   0  0  0  0  0  2  0  0  0  0  0  0
  -18.2320  -26.7230   22.2820 C   0  0  0  0  0  2  0  0  0  0  0  0
  -19.1680  -28.8390   23.3860 C   0  0  0  0  0  0  0  0  0  0  0  0
  -18.9440  -30.1010   23.9770 C   0  0  0  0  0  3  0  0  0  0  0  0
  -17.6380  -30.5980   24.1440 C   0  0  0  0  0  3  0  0  0  0  0  0
  -16.5370  -29.8290   23.7320 C   0  0  0  0  0  3  0  0  0  0  0  0
  -16.7440  -28.5680   23.1440 C   0  0  0  0  0  3  0  0  0  0  0  0
  -25.9100  -32.5010   23.8560 C   0  0  0  0  0  3  0  0  0  0  0  0
  -26.4350  -31.7240   25.1260 C   0  0  1  0  0  0  0  0  0  0  0  0
  -25.3480  -31.4830   26.1990 C   0  0  0  0  0  1  0  0  0  0  0  0
  -27.0090  -30.3470   24.7190 C   0  0  0  0  0  1  0  0  0  0  0  0
  -27.5940  -32.5110   25.7820 C   0  0  0  0  0  1  0  0  0  0  0  0
  -25.6060  -33.9000   24.1950 N   0  0  0  0  0  0  0  0  0  0  0  0
  -25.9230  -34.9530   23.4300 C   0  0  0  0  0  0  0  0  0  0  0  0
  -26.5720  -34.8500   22.3840 O   0  0  0  0  0  0  0  0  0  0  0  0
  -25.0280  -34.0530   25.0080 H   0  0  0  0  0  0  0  0  0  0  0  0
  -24.1830  -36.7420   23.1120 C   0  0  0  0  0  1  0  0  0  0  0  0
  -25.4440  -36.3420   23.8950 C   0  0  0  0  0  3  0  0  0  0  0  0
  -27.5960  -37.2340   24.6730 C   0  0  0  0  0  1  0  0  0  0  0  0
  -26.4710  -37.3960   23.7550 N   0  0  0  0  0  0  0  0  0  0  0  0
  -26.0670  -38.3160   23.9070 H   0  0  0  0  0  0  0  0  0  0  0  0
  -33.1920  -19.4680   19.2920 C   0  0  0  0  0  1  0  0  0  0  0  0
  -32.0700  -19.3020   20.1530 O   0  0  0  0  0  0  0  0  0  0  0  0
  -29.2810  -18.4370   20.6300 C   0  0  0  0  0  3  0  0  0  0  0  0
  -30.3210  -17.2130   20.5870 C   0  0  0  0  0  3  0  0  0  0  0  0
  -30.5880  -14.6660   20.4290 C   0  0  0  0  0  0  0  0  0  0  0  0
  -30.3480  -12.4370   19.3590 C   0  0  0  0  0  2  0  0  0  0  0  0
  -29.3970  -12.5610   18.1490 C   0  0  0  0  0  2  0  0  0  0  0  0
  -27.9300  -12.4070   18.5890 C   0  0  0  0  0  2  0  0  0  0  0  0
  -27.5800  -13.2710   19.8280 C   0  0  0  0  0  3  0  0  0  0  0  0
  -28.6410  -13.1320   20.9400 C   0  0  0  0  0  2  0  0  0  0  0  0
  -29.9420  -13.4620   20.3450 N   0  0  0  0  0  0  0  0  0  0  0  0
  -31.7650  -14.7770   20.0730 O   0  0  0  0  0  0  0  0  0  0  0  0
  -29.8410  -15.7850   20.7080 N   0  0  0  0  0  0  0  0  0  0  0  0
  -28.8690  -15.6380   20.9410 H   0  0  0  0  0  0  0  0  0  0  0  0
  -25.1920  -13.8640   20.5640 C   0  0  0  0  0  0  0  0  0  0  0  0
  -24.1280  -13.0880   20.9290 C   0  0  0  0  0  0  0  0  0  0  0  0
  -24.5890  -11.7370   20.8850 C   0  0  0  0  0  0  0  0  0  0  0  0
  -26.2350  -12.9860   20.3180 N   0  0  0  0  0  0  0  0  0  0  0  0
  -25.8770  -11.7010   20.5730 N   0  0  0  0  0  0  0  0  0  0  0  0
  -23.8640  -10.4730   21.0660 C   0  0  0  0  0  0  0  0  0  0  0  0
  -24.3010   -9.4950   21.9860 C   0  0  0  0  0  3  0  0  0  0  0  0
  -23.5750   -8.2970   22.1560 C   0  0  0  0  0  3  0  0  0  0  0  0
  -22.3960   -8.0700   21.4070 C   0  0  0  0  0  0  0  0  0  0  0  0
  -21.9800   -9.0370   20.4740 C   0  0  0  0  0  3  0  0  0  0  0  0
  -22.7070  -10.2270   20.3010 C   0  0  0  0  0  3  0  0  0  0  0  0
  -21.6410   -6.9250   21.4840 O   0  0  0  0  0  0  0  0  0  0  0  0
  -21.5960   -6.1700   22.6280 C   0  0  0  0  0  0  0  0  0  0  0  0
  -21.1730   -6.7100   23.8620 C   0  0  0  0  0  3  0  0  0  0  0  0
  -21.0780   -5.8820   24.9980 C   0  0  0  0  0  3  0  0  0  0  0  0
  -21.3950   -4.5140   24.9020 C   0  0  0  0  0  0  0  0  0  0  0  0
  -21.8110   -3.9720   23.6720 C   0  0  0  0  0  3  0  0  0  0  0  0
  -21.9090   -4.7990   22.5390 C   0  0  0  0  0  0  0  0  0  0  0  0
  -22.2910   -4.2670   21.3530 F   0  0  0  0  0  0  0  0  0  0  0  0
  -21.2970   -3.7160   25.9920 F   0  0  0  0  0  0  0  0  0  0  0  0
  -22.7320  -13.5620   21.2100 C   0  0  0  0  0  0  0  0  0  0  0  0
  -22.0100  -12.8590   22.0740 N   0  0  0  0  0  0  0  0  0  0  0  0
  -22.2940  -14.5950   20.7020 O   0  0  0  0  0  0  0  0  0  0  0  0
  -22.3820  -12.0240   22.5030 H   0  0  0  0  0  0  0  0  0  0  0  0
  -21.0740  -13.1570   22.3100 H   0  0  0  0  0  0  0  0  0  0  0  0
  -25.3550  -15.2360   20.3950 N   0  0  0  0  0  0  0  0  0  0  0  0
  -24.5810  -15.8830   20.5030 H   0  0  0  0  0  0  0  0  0  0  0  0
  -26.1840  -15.6780   20.0190 H   0  0  0  0  0  0  0  0  0  0  0  0
  1  2  2  0
  1  4  1  0
  2  6  1  0
  3  5  1  0
  4  3  2  0
  5 53  1  0
  6 52  1  0
  6  5  2  0
  8  4  1  0
  8  7  1  0
  9  8  1  0
  9 10  1  0
  9  7  1  0
 11 22  2  0
 12 10  1  0
 12 17  1  0
 13 21  1  0
 13 23  1  0
 14 20  1  0
 14 16  1  0
 15 21  1  0
 16 15  1  0
 17 16  2  0
 18 19  1  0
 18 12  2  0
 19 14  2  0
 20 13  1  0
 21 11  1  0
 23 25  2  0
 24 23  1  0
 26 24  1  0
 27 36  2  0
 27 32  1  0
 28 24  1  0
 28 32  1  0
 29 28  1  0
 30 31  1  0
 30 29  1  0
 31 27  1  0
 32 33  2  0
 33 34  1  0
 35 34  2  0
 36 35  1  0
 37 11  1  0
 37 42  1  0
 37 38  1  0
 38 41  1  1
 38 39  1  0
 40 38  1  0
 42 45  1  0
 43 47  1  0
 43 42  1  0
 44 43  2  0
 47 46  1  0
 49 47  1  0
 49 50  1  0
 49 48  1  0
 51 52  1  0
 54 53  2  0
 54 63  1  0
 55 63  1  0
 56 61  1  0
 57 58  1  0
 57 56  1  0
 59 58  1  0
 59 68  1  0
 59 60  1  0
 61 55  1  0
 61 60  1  0
 62 55  2  0
 63 64  1  0
 65 66  2  0
 66 85  1  0
 67 66  1  0
 67 70  1  0
 68 65  1  0
 68 69  1  0
 69 67  2  0
 70 71  1  0
 71 72  2  0
 73 76  1  0
 73 72  1  0
 74 73  2  0
 75 74  1  0
 75 70  2  0
 76 77  1  0
 77 78  1  0
 78 79  2  0
 80 79  1  0
 80 84  1  0
 81 80  2  0
 82 77  2  0
 82 81  1  0
 83 82  1  0
 85 86  1  0
 86 89  1  0
 86 88  1  0
 87 85  2  0
 90 91  1  0
 90 65  1  0
 92 90  1  0
M  ISO  4   9 101  10 101  55 100  63 100
M  END
>  <TORSDO>  (53) 
F 20

>  <SCORE>  (53) 
-13.896

>  <name>  (53) 
52

>  <ligand_id>  (53) 
52

>  <original_smiles>  (53) 
[H]c1c([H])c([H])c2c(c1[H])C([H])([H])C([H])([H])C([H])([H])C2([H])N([H])C(=O)C1([H])N(C(=O)C([H])(N([H])C(=O)C([H])(N([H])C([H])([H])[H])C([H])([H])[H])C(C([H])([H])[H])(C([H])([H])[H])C([H])([H])[H])C([H])([H])c2c([H])c(OC3([H])C([H])([H])C3([H])c3c([H])c([H])c(OC([H])([H])[H])c(C([H])([H])C([H])([H])N([H])C(=O)N4C([H])([H])C([H])([H])C([H])([H])C([H])(n5nc(-c6c([H])c([H])c(Oc7c([H])c([H])c(F)c([H])c7F)c([H])c6[H])c(C(=O)N([H])[H])c5N([H])[H])C4([H])[H])c3[H])c([H])c([H])c2C1([H])[H]

>  <smiles>  (53) 
[H]c1c([H])c([H])c2c(c1[H])C([H])([H])C([H])([H])C([H])([H])C2([H])N([H])C(=O)C1([H])N(C(=O)C([H])(N([H])C(=O)C([H])(N([H])C([H])([H])[H])C([H])([H])[H])C(C([H])([H])[H])(C([H])([H])[H])C([H])([H])[H])C([H])([H])c2c([H])c(OC3([H])C([H])([H])C3([H])c3c([H])c([H])c(OC([H])([H])[H])c(C([H])([H])C([H])([H])N([H])C(=O)N4C([H])([H])C([H])([H])C([H])([H])C([H])(n5nc(-c6c([H])c([H])c(Oc7c([H])c([H])c(F)c([H])c7F)c([H])c6[H])c(C(=O)N([H])[H])c5N([H])[H])C4([H])[H])c3[H])c([H])c([H])c2C1([H])[H]

$$$$
53:0:0
     RDKit          3D

 93102  0  0  1  0  0  0  0  0999 V2000
  -28.9880  -22.7520   21.8410 C   0  0  0  0  0  3  0  0  0  0  0  0
  -28.3510  -23.8300   19.7730 C   0  0  0  0  0  3  0  0  0  0  0  0
  -29.4390  -25.7550   23.8530 C   0  0  0  0  0  3  0  0  0  0  0  0
  -28.8010  -25.2760   21.7090 C   0  0  0  0  0  0  0  0  0  0  0  0
  -28.6630  -22.5620   20.4910 C   0  0  0  0  0  0  0  0  0  0  0  0
  -29.0510  -24.0390   22.4110 C   0  0  0  0  0  0  0  0  0  0  0  0
  -28.3860  -25.2130   20.3340 C   0  0  0  0  0  0  0  0  0  0  0  0
  -29.1200  -26.3380   22.6530 C   0  0  0  0  0  0  0  0  0  0  0  0
  -29.3970  -24.3870   23.7030 N   0  0  0  0  0  0  0  0  0  0  0  0
  -29.6260  -23.7500   24.4570 H   0  0  0  0  0  0  0  0  0  0  0  0
  -29.1410  -27.6890   22.4510 O   0  0  0  0  0  0  0  0  0  0  0  0
  -29.3500  -28.1040   23.2810 H   0  0  0  0  0  0  0  0  0  0  0  0
  -28.2200  -26.4690   19.5810 O   0  0  0  0  0  0  0  0  0  0  0  0
  -24.7040  -31.8610   23.1040 C   0  0  0  0  0  0  0  0  0  0  0  0
  -27.1280  -27.3980   19.6730 C   0  0  0  0  0  0  0  0  0  0  0  0
  -23.4030  -30.5430   21.4740 C   0  0  0  0  0  3  0  0  0  0  0  0
  -24.7660  -29.0720   19.8630 C   0  0  0  0  0  0  0  0  0  0  0  0
  -25.9240  -30.8860   21.1250 C   0  0  0  0  0  2  0  0  0  0  0  0
  -25.9740  -29.5280   20.4030 C   0  0  0  0  0  0  0  0  0  0  0  0
  -27.1540  -28.7110   20.2830 C   0  0  0  0  0  3  0  0  0  0  0  0
  -25.9000  -27.0410   19.0780 C   0  0  0  0  0  3  0  0  0  0  0  0
  -24.7380  -27.8460   19.1790 C   0  0  0  0  0  3  0  0  0  0  0  0
  -23.5300  -29.9380   20.0500 C   0  0  0  0  0  2  0  0  0  0  0  0
  -24.7020  -31.1170   21.9550 N   0  0  0  0  0  0  0  0  0  0  0  0
  -23.6590  -32.0900   23.7310 O   0  0  0  0  0  0  0  0  0  0  0  0
  -22.8150  -29.4690   22.4250 C   0  0  0  0  0  0  0  0  0  0  0  0
  -21.4950  -29.2200   22.3270 N   0  0  0  0  0  0  0  0  0  0  0  0
  -23.5480  -28.8610   23.2080 O   0  0  0  0  0  0  0  0  0  0  0  0
  -20.9580  -29.7670   21.6630 H   0  0  0  0  0  0  0  0  0  0  0  0
  -18.2160  -27.7690   22.8460 C   0  0  0  0  0  0  0  0  0  0  0  0
  -20.7510  -28.2160   23.0940 C   0  0  0  0  0  3  0  0  0  0  0  0
  -20.9520  -26.8050   22.4930 C   0  0  0  0  0  2  0  0  0  0  0  0
  -19.8660  -26.4160   21.4850 C   0  0  0  0  0  2  0  0  0  0  0  0
  -18.4840  -26.4480   22.1450 C   0  0  0  0  0  2  0  0  0  0  0  0
  -19.2790  -28.6070   23.2770 C   0  0  0  0  0  0  0  0  0  0  0  0
  -18.9730  -29.8380   23.8930 C   0  0  0  0  0  3  0  0  0  0  0  0
  -17.6370  -30.2350   24.0870 C   0  0  0  0  0  3  0  0  0  0  0  0
  -16.5880  -29.3960   23.6690 C   0  0  0  0  0  3  0  0  0  0  0  0
  -16.8790  -28.1660   23.0540 C   0  0  0  0  0  3  0  0  0  0  0  0
  -26.0160  -32.4830   23.6730 C   0  0  0  0  0  3  0  0  0  0  0  0
  -25.7070  -33.8440   24.1400 N   0  0  0  0  0  0  0  0  0  0  0  0
  -25.9740  -34.9640   23.4560 C   0  0  0  0  0  0  0  0  0  0  0  0
  -26.5790  -34.9570   22.3790 O   0  0  0  0  0  0  0  0  0  0  0  0
  -25.1650  -33.9160   24.9880 H   0  0  0  0  0  0  0  0  0  0  0  0
  -24.2050  -36.7500   23.3550 C   0  0  0  0  0  1  0  0  0  0  0  0
  -25.4970  -36.3000   24.0570 C   0  0  0  0  0  3  0  0  0  0  0  0
  -27.6620  -37.1520   24.8400 C   0  0  0  0  0  1  0  0  0  0  0  0
  -26.5070  -37.3790   23.9740 N   0  0  0  0  0  0  0  0  0  0  0  0
  -26.0990  -38.2780   24.2220 H   0  0  0  0  0  0  0  0  0  0  0  0
  -26.6450  -31.6300   24.8430 C   0  0  1  0  0  0  0  0  0  0  0  0
  -25.6490  -31.2760   25.9740 C   0  0  0  0  0  1  0  0  0  0  0  0
  -27.2180  -30.2980   24.3050 C   0  0  0  0  0  1  0  0  0  0  0  0
  -27.8360  -32.3920   25.4720 C   0  0  0  0  0  1  0  0  0  0  0  0
  -28.7300  -21.0260   19.9040 C   0  0  0  0  0  2  0  0  0  0  0  0
  -29.0270  -19.6150   20.7880 C   0  0  0  0  0  2  0  0  0  0  0  0
  -29.6160  -18.1690   20.1320 C   0  0  0  0  0  3  0  0  0  0  0  0
  -29.5690  -16.6220   20.8160 C   0  0  0  0  0  3  0  0  0  0  0  0
  -30.4530  -15.2900   20.3600 C   0  0  0  0  0  0  0  0  0  0  0  0
  -30.4670  -12.9500   19.3650 C   0  0  0  0  0  2  0  0  0  0  0  0
  -29.5230  -12.9020   18.1330 C   0  0  0  0  0  2  0  0  0  0  0  0
  -28.0660  -12.6400   18.5540 C   0  0  0  0  0  2  0  0  0  0  0  0
  -27.6380  -13.5330   19.7450 C   0  0  0  0  0  3  0  0  0  0  0  0
  -28.6900  -13.5300   20.8760 C   0  0  0  0  0  2  0  0  0  0  0  0
  -29.9540  -13.9910   20.3010 N   0  0  0  0  0  0  0  0  0  0  0  0
  -31.6160  -15.4450   19.9620 O   0  0  0  0  0  0  0  0  0  0  0  0
  -25.2460  -14.0570   20.4950 C   0  0  0  0  0  0  0  0  0  0  0  0
  -24.1990  -13.2530   20.8610 C   0  0  0  0  0  0  0  0  0  0  0  0
  -24.6930  -11.9130   20.8180 C   0  0  0  0  0  0  0  0  0  0  0  0
  -26.3050  -13.2020   20.2400 N   0  0  0  0  0  0  0  0  0  0  0  0
  -25.9840  -11.9080   20.5020 N   0  0  0  0  0  0  0  0  0  0  0  0
  -23.9930  -10.6350   21.0060 C   0  0  0  0  0  0  0  0  0  0  0  0
  -24.4190   -9.6920   21.9670 C   0  0  0  0  0  3  0  0  0  0  0  0
  -23.7210   -8.4770   22.1360 C   0  0  0  0  0  3  0  0  0  0  0  0
  -22.5800   -8.2000   21.3440 C   0  0  0  0  0  0  0  0  0  0  0  0
  -22.1800   -9.1310   20.3700 C   0  0  0  0  0  3  0  0  0  0  0  0
  -22.8790  -10.3370   20.1990 C   0  0  0  0  0  3  0  0  0  0  0  0
  -21.8480   -7.0400   21.4220 O   0  0  0  0  0  0  0  0  0  0  0  0
  -21.7670   -6.3170   22.5850 C   0  0  0  0  0  0  0  0  0  0  0  0
  -21.2260   -6.8660   23.7690 C   0  0  0  0  0  3  0  0  0  0  0  0
  -21.0970   -6.0660   24.9220 C   0  0  0  0  0  3  0  0  0  0  0  0
  -21.5030   -4.7180   24.8900 C   0  0  0  0  0  0  0  0  0  0  0  0
  -22.0390   -4.1670   23.7120 C   0  0  0  0  0  3  0  0  0  0  0  0
  -22.1700   -4.9660   22.5630 C   0  0  0  0  0  0  0  0  0  0  0  0
  -22.6660   -4.4240   21.4250 F   0  0  0  0  0  0  0  0  0  0  0  0
  -21.3720   -3.9470   25.9960 F   0  0  0  0  0  0  0  0  0  0  0  0
  -22.7920  -13.6970   21.1370 C   0  0  0  0  0  0  0  0  0  0  0  0
  -22.0850  -12.9830   22.0070 N   0  0  0  0  0  0  0  0  0  0  0  0
  -22.3280  -14.7120   20.6200 O   0  0  0  0  0  0  0  0  0  0  0  0
  -22.4770  -12.1630   22.4450 H   0  0  0  0  0  0  0  0  0  0  0  0
  -21.1410  -13.2590   22.2350 H   0  0  0  0  0  0  0  0  0  0  0  0
  -25.3760  -15.4330   20.3250 N   0  0  0  0  0  0  0  0  0  0  0  0
  -24.5900  -16.0650   20.4360 H   0  0  0  0  0  0  0  0  0  0  0  0
  -26.2160  -15.8960   19.9980 H   0  0  0  0  0  0  0  0  0  0  0  0
  1  6  1  0
  2  7  2  0
  2  5  1  0
  4  6  2  0
  4  8  1  0
  5  1  2  0
  6  9  1  0
  7  4  1  0
  8  3  2  0
  9  3  1  0
  9 10  1  0
 11  8  1  0
 11 12  1  0
 13 15  1  0
 13  7  1  0
 14 25  2  0
 15 20  1  0
 16 24  1  0
 16 26  1  0
 17 23  1  0
 17 19  1  0
 18 24  1  0
 19 18  1  0
 20 19  2  0
 21 22  1  0
 21 15  2  0
 22 17  2  0
 23 16  1  0
 24 14  1  0
 26 28  2  0
 27 26  1  0
 29 27  1  0
 30 39  2  0
 30 35  1  0
 31 27  1  0
 31 35  1  0
 32 31  1  0
 33 34  1  0
 33 32  1  0
 34 30  1  0
 35 36  2  0
 36 37  1  0
 38 37  2  0
 39 38  1  0
 40 14  1  0
 40 41  1  0
 40 50  1  0
 41 44  1  0
 42 46  1  0
 42 41  1  0
 43 42  2  0
 46 45  1  0
 48 46  1  0
 48 49  1  0
 48 47  1  0
 50 53  1  1
 50 51  1  0
 52 50  1  0
 54  5  1  0
 54 55  1  0
 56 55  1  0
 56 57  2  0
 58 57  1  0
 59 64  1  0
 60 61  1  0
 60 59  1  0
 62 61  1  0
 62 69  1  0
 62 63  1  0
 64 58  1  0
 64 63  1  0
 65 58  2  0
 66 67  2  0
 67 86  1  0
 68 67  1  0
 68 71  1  0
 69 66  1  0
 69 70  1  0
 70 68  2  0
 71 72  1  0
 72 73  2  0
 74 77  1  0
 74 73  1  0
 75 74  2  0
 76 75  1  0
 76 71  2  0
 77 78  1  0
 78 79  1  0
 79 80  2  0
 81 80  1  0
 81 85  1  0
 82 81  2  0
 83 78  2  0
 83 82  1  0
 84 83  1  0
 86 87  1  0
 87 90  1  0
 87 89  1  0
 88 86  2  0
 91 92  1  0
 91 66  1  0
 93 91  1  0
M  ISO  4   7 101  13 101  57 100  58 100
M  END
>  <TORSDO>  (54) 
F 21

>  <SCORE>  (54) 
-13.488

>  <name>  (54) 
53

>  <ligand_id>  (54) 
53

>  <original_smiles>  (54) 
[H]Oc1c([H])n([H])c2c([H])c(C([H])([H])C([H])([H])C([H])([H])C([H])([H])C(=O)N3C([H])([H])C([H])([H])C([H])([H])C([H])(n4nc(-c5c([H])c([H])c(Oc6c([H])c([H])c(F)c([H])c6F)c([H])c5[H])c(C(=O)N([H])[H])c4N([H])[H])C3([H])[H])c([H])c(Oc3c([H])c([H])c4c(c3[H])C([H])([H])N(C(=O)C([H])(N([H])C(=O)C([H])(N([H])C([H])([H])[H])C([H])([H])[H])C(C([H])([H])[H])(C([H])([H])[H])C([H])([H])[H])C([H])(C(=O)N([H])C3([H])c5c([H])c([H])c([H])c([H])c5C([H])([H])C([H])([H])C3([H])[H])C4([H])[H])c12

>  <smiles>  (54) 
[H]Oc1c([H])n([H])c2c([H])c(C([H])([H])C([H])([H])C([H])([H])C([H])([H])C(=O)N3C([H])([H])C([H])([H])C([H])([H])C([H])(n4nc(-c5c([H])c([H])c(Oc6c([H])c([H])c(F)c([H])c6F)c([H])c5[H])c(C(=O)N([H])[H])c4N([H])[H])C3([H])[H])c([H])c(Oc3c([H])c([H])c4c(c3[H])C([H])([H])N(C(=O)C([H])(N([H])C(=O)C([H])(N([H])C([H])([H])[H])C([H])([H])[H])C(C([H])([H])[H])(C([H])([H])[H])C([H])([H])[H])C([H])(C(=O)N([H])C3([H])c5c([H])c([H])c([H])c([H])c5C([H])([H])C([H])([H])C3([H])[H])C4([H])[H])c12

$$$$
54:0:0
     RDKit          3D

100111  0  0  1  0  0  0  0  0999 V2000
  -32.2590  -22.4760   18.9030 C   0  0  0  0  0  3  0  0  0  0  0  0
  -32.3510  -23.7880   18.3940 C   0  0  0  0  0  3  0  0  0  0  0  0
  -30.1520  -22.1110   17.6890 C   0  0  0  0  0  3  0  0  0  0  0  0
  -31.1430  -21.6580   18.5940 C   0  0  0  0  0  0  0  0  0  0  0  0
  -31.3220  -24.2470   17.5550 C   0  0  0  0  0  0  0  0  0  0  0  0
  -30.2710  -23.4150   17.1800 C   0  0  0  0  0  0  0  0  0  0  0  0
  -29.2740  -24.1550   16.3260 C   0  0  0  0  0  2  0  0  0  0  0  0
  -30.6730  -26.8030   19.2550 C   0  0  0  0  0  2  0  0  0  0  0  0
  -31.5330  -26.7700   17.9880 C   0  0  0  0  0  2  0  0  0  0  0  0
  -28.6950  -25.9540   17.9090 C   0  0  0  0  0  2  0  0  0  0  0  0
  -29.5950  -25.6300   16.6890 C   0  0  0  0  0  3  0  0  0  0  0  0
  -29.1980  -27.0090   18.9000 C   0  0  0  0  0  3  0  0  0  0  0  0
  -31.1270  -25.6440   17.0090 C   0  0  2  0  0  0  0  0  0  0  0  0
  -31.9460  -25.7900   15.7130 C   0  0  0  0  0  1  0  0  0  0  0  0
  -31.0520  -20.3160   19.2090 C   0  0  0  0  0  0  0  0  0  0  0  0
  -32.0220  -19.5500   19.2610 O   0  0  0  0  0  0  0  0  0  0  0  0
  -29.7100  -19.9570   19.8820 C   0  0  0  0  0  2  0  0  0  0  0  0
  -30.3490  -16.6010   21.5790 C   0  0  0  0  0  3  0  0  0  0  0  0
  -29.3830  -16.2160   19.3700 C   0  0  0  0  0  3  0  0  0  0  0  0
  -30.1280  -17.9820   21.4280 C   0  0  0  0  0  3  0  0  0  0  0  0
  -29.1630  -17.5930   19.2150 C   0  0  0  0  0  3  0  0  0  0  0  0
  -30.0360  -15.7230   20.5210 C   0  0  0  0  0  0  0  0  0  0  0  0
  -29.6200  -18.4800   20.2070 C   0  0  0  0  0  0  0  0  0  0  0  0
  -30.7230  -14.4020   20.4300 C   0  0  0  0  0  0  0  0  0  0  0  0
  -30.3180  -12.2570   19.3410 C   0  0  0  0  0  2  0  0  0  0  0  0
  -29.4120  -12.5060   18.1200 C   0  0  0  0  0  2  0  0  0  0  0  0
  -27.9280  -12.4170   18.5360 C   0  0  0  0  0  2  0  0  0  0  0  0
  -27.5940  -13.2600   19.8000 C   0  0  0  0  0  3  0  0  0  0  0  0
  -28.6490  -13.0720   20.9140 C   0  0  0  0  0  2  0  0  0  0  0  0
  -29.9820  -13.2740   20.3390 N   0  0  0  0  0  0  0  0  0  0  0  0
  -31.9100  -14.4710   20.1090 O   0  0  0  0  0  0  0  0  0  0  0  0
  -25.2060  -13.8900   20.5170 C   0  0  0  0  0  0  0  0  0  0  0  0
  -24.1310  -13.1280   20.8810 C   0  0  0  0  0  0  0  0  0  0  0  0
  -24.5820  -11.7730   20.8550 C   0  0  0  0  0  0  0  0  0  0  0  0
  -26.2440  -12.9990   20.2860 N   0  0  0  0  0  0  0  0  0  0  0  0
  -25.8720  -11.7190   20.5510 N   0  0  0  0  0  0  0  0  0  0  0  0
  -23.8470  -10.5160   21.0440 C   0  0  0  0  0  0  0  0  0  0  0  0
  -24.2720   -9.5490   21.9810 C   0  0  0  0  0  3  0  0  0  0  0  0
  -23.5420   -8.3540   22.1560 C   0  0  0  0  0  3  0  0  0  0  0  0
  -22.3720   -8.1190   21.3960 C   0  0  0  0  0  0  0  0  0  0  0  0
  -21.9660   -9.0750   20.4490 C   0  0  0  0  0  3  0  0  0  0  0  0
  -22.6970  -10.2620   20.2710 C   0  0  0  0  0  3  0  0  0  0  0  0
  -21.6130   -6.9760   21.4810 O   0  0  0  0  0  0  0  0  0  0  0  0
  -21.5550   -6.2350   22.6340 C   0  0  0  0  0  0  0  0  0  0  0  0
  -21.1260   -6.7920   23.8590 C   0  0  0  0  0  3  0  0  0  0  0  0
  -21.0170   -5.9780   25.0030 C   0  0  0  0  0  3  0  0  0  0  0  0
  -21.3260   -4.6060   24.9240 C   0  0  0  0  0  0  0  0  0  0  0  0
  -21.7460   -4.0480   23.7030 C   0  0  0  0  0  3  0  0  0  0  0  0
  -21.8590   -4.8610   22.5610 C   0  0  0  0  0  0  0  0  0  0  0  0
  -22.2460   -4.3150   21.3840 F   0  0  0  0  0  0  0  0  0  0  0  0
  -21.2140   -3.8210   26.0200 F   0  0  0  0  0  0  0  0  0  0  0  0
  -22.7360  -13.6160   21.1460 C   0  0  0  0  0  0  0  0  0  0  0  0
  -21.9950  -12.9230   22.0020 N   0  0  0  0  0  0  0  0  0  0  0  0
  -22.3120  -14.6480   20.6260 O   0  0  0  0  0  0  0  0  0  0  0  0
  -22.3470  -12.0870   22.4440 H   0  0  0  0  0  0  0  0  0  0  0  0
  -21.0600  -13.2370   22.2190 H   0  0  0  0  0  0  0  0  0  0  0  0
  -25.3850  -15.2600   20.3410 N   0  0  0  0  0  0  0  0  0  0  0  0
  -24.6370  -15.9310   20.4760 H   0  0  0  0  0  0  0  0  0  0  0  0
  -26.2590  -15.6920   20.0680 H   0  0  0  0  0  0  0  0  0  0  0  0
  -28.4640  -26.8450   20.1110 O   0  0  0  0  0  0  0  0  0  0  0  0
  -24.6110  -31.8940   23.2430 C   0  0  0  0  0  0  0  0  0  0  0  0
  -27.2750  -27.5180   20.1500 C   0  0  0  0  0  0  0  0  0  0  0  0
  -23.4010  -30.4850   21.6050 C   0  0  0  0  0  3  0  0  0  0  0  0
  -24.8570  -28.9520   20.1830 C   0  0  0  0  0  0  0  0  0  0  0  0
  -25.9160  -30.8750   21.3870 C   0  0  0  0  0  2  0  0  0  0  0  0
  -26.0100  -29.5030   20.7580 C   0  0  0  0  0  0  0  0  0  0  0  0
  -27.2220  -28.7900   20.7460 C   0  0  0  0  0  3  0  0  0  0  0  0
  -26.1050  -26.9490   19.6060 C   0  0  0  0  0  3  0  0  0  0  0  0
  -24.8940  -27.6680   19.6100 C   0  0  0  0  0  3  0  0  0  0  0  0
  -23.6050  -29.7980   20.2280 C   0  0  0  0  0  2  0  0  0  0  0  0
  -24.6610  -31.0980   22.1380 N   0  0  0  0  0  0  0  0  0  0  0  0
  -23.5330  -32.1610   23.7900 O   0  0  0  0  0  0  0  0  0  0  0  0
  -22.7620  -29.4610   22.5700 C   0  0  0  0  0  0  0  0  0  0  0  0
  -21.4390  -29.2700   22.4440 N   0  0  0  0  0  0  0  0  0  0  0  0
  -23.4530  -28.8420   23.3850 O   0  0  0  0  0  0  0  0  0  0  0  0
  -20.9470  -29.8220   21.7570 H   0  0  0  0  0  0  0  0  0  0  0  0
  -18.0730  -28.0640   22.9400 C   0  0  0  0  0  0  0  0  0  0  0  0
  -20.6290  -28.3310   23.2180 C   0  0  0  0  0  3  0  0  0  0  0  0
  -20.7380  -26.8990   22.6460 C   0  0  0  0  0  2  0  0  0  0  0  0
  -19.6390  -26.5710   21.6290 C   0  0  0  0  0  2  0  0  0  0  0  0
  -18.2560  -26.7130   22.2700 C   0  0  0  0  0  2  0  0  0  0  0  0
  -19.1880  -28.8310   23.3710 C   0  0  0  0  0  0  0  0  0  0  0  0
  -18.9640  -30.0960   23.9560 C   0  0  0  0  0  3  0  0  0  0  0  0
  -17.6570  -30.5930   24.1170 C   0  0  0  0  0  3  0  0  0  0  0  0
  -16.5560  -29.8240   23.7030 C   0  0  0  0  0  3  0  0  0  0  0  0
  -16.7650  -28.5600   23.1220 C   0  0  0  0  0  3  0  0  0  0  0  0
  -25.8990  -32.5280   23.8550 C   0  0  0  0  0  3  0  0  0  0  0  0
  -26.4280  -31.7580   25.1280 C   0  0  1  0  0  0  0  0  0  0  0  0
  -25.3430  -31.5180   26.2040 C   0  0  0  0  0  1  0  0  0  0  0  0
  -27.0100  -30.3820   24.7270 C   0  0  0  0  0  1  0  0  0  0  0  0
  -27.5820  -32.5530   25.7820 C   0  0  0  0  0  1  0  0  0  0  0  0
  -25.5920  -33.9250   24.1810 N   0  0  0  0  0  0  0  0  0  0  0  0
  -25.9280  -34.9760   23.4210 C   0  0  0  0  0  0  0  0  0  0  0  0
  -26.6030  -34.8700   22.3920 O   0  0  0  0  0  0  0  0  0  0  0  0
  -24.9930  -34.0820   24.9800 H   0  0  0  0  0  0  0  0  0  0  0  0
  -24.2060  -36.7680   23.0450 C   0  0  0  0  0  1  0  0  0  0  0  0
  -25.4360  -36.3640   23.8720 C   0  0  0  0  0  3  0  0  0  0  0  0
  -27.5680  -37.2400   24.7210 C   0  0  0  0  0  1  0  0  0  0  0  0
  -26.4700  -37.4180   23.7740 N   0  0  0  0  0  0  0  0  0  0  0  0
  -26.0640  -38.3350   23.9330 H   0  0  0  0  0  0  0  0  0  0  0  0
  2  1  2  0
  3  4  2  0
  4  1  1  0
  4 15  1  0
  5  2  1  0
  6  5  2  0
  6  3  1  0
  7  6  1  0
  9  8  1  0
 10 12  1  0
 11  7  1  0
 11 13  1  0
 11 10  1  0
 12  8  1  0
 12 60  1  0
 13 14  1  6
 13  5  1  0
 13  9  1  0
 15 16  2  0
 15 17  1  0
 17 23  1  0
 19 22  1  0
 20 18  1  0
 21 19  2  0
 21 23  1  0
 22 18  2  0
 23 20  2  0
 24 22  1  0
 25 30  1  0
 26 27  1  0
 26 25  1  0
 28 27  1  0
 28 35  1  0
 28 29  1  0
 30 24  1  0
 30 29  1  0
 31 24  2  0
 32 33  2  0
 33 52  1  0
 34 33  1  0
 34 37  1  0
 35 32  1  0
 35 36  1  0
 36 34  2  0
 37 38  1  0
 38 39  2  0
 40 43  1  0
 40 39  1  0
 41 40  2  0
 42 41  1  0
 42 37  2  0
 43 44  1  0
 44 45  1  0
 45 46  2  0
 47 46  1  0
 47 51  1  0
 48 47  2  0
 49 44  2  0
 49 48  1  0
 50 49  1  0
 52 53  1  0
 53 56  1  0
 53 55  1  0
 54 52  2  0
 57 58  1  0
 57 32  1  0
 59 57  1  0
 60 62  1  0
 61 72  2  0
 62 67  1  0
 63 71  1  0
 63 73  1  0
 64 70  1  0
 64 66  1  0
 65 71  1  0
 66 65  1  0
 67 66  2  0
 68 69  1  0
 68 62  2  0
 69 64  2  0
 70 63  1  0
 71 61  1  0
 73 75  2  0
 74 73  1  0
 76 74  1  0
 77 86  2  0
 77 82  1  0
 78 74  1  0
 78 82  1  0
 79 78  1  0
 80 81  1  0
 80 79  1  0
 81 77  1  0
 82 83  2  0
 83 84  1  0
 85 84  2  0
 86 85  1  0
 87 61  1  0
 87 92  1  0
 87 88  1  0
 88 91  1  1
 88 89  1  0
 90 88  1  0
 92 95  1  0
 93 97  1  0
 93 92  1  0
 94 93  2  0
 97 96  1  0
 99 97  1  0
 99100  1  0
 99 98  1  0
M  ISO  4  12 101  22 100  24 100  60 101
M  END
>  <TORSDO>  (55) 
F 19

>  <SCORE>  (55) 
-14.466

>  <name>  (55) 
54

>  <ligand_id>  (55) 
54

>  <original_smiles>  (55) 
[H]c1c([H])c([H])c2c(c1[H])C([H])([H])C([H])([H])C([H])([H])C2([H])N([H])C(=O)C1([H])N(C(=O)C([H])(N([H])C(=O)C([H])(N([H])C([H])([H])[H])C([H])([H])[H])C(C([H])([H])[H])(C([H])([H])[H])C([H])([H])[H])C([H])([H])c2c([H])c(OC3([H])C([H])([H])C([H])([H])C4(C([H])([H])[H])c5c([H])c([H])c(C(=O)C([H])([H])c6c([H])c([H])c(C(=O)N7C([H])([H])C([H])([H])C([H])([H])C([H])(n8nc(-c9c([H])c([H])c(Oc%10c([H])c([H])c(F)c([H])c%10F)c([H])c9[H])c(C(=O)N([H])[H])c8N([H])[H])C7([H])[H])c([H])c6[H])c([H])c5C([H])([H])C4([H])C3([H])[H])c([H])c([H])c2C1([H])[H]

>  <smiles>  (55) 
[H]c1c([H])c([H])c2c(c1[H])C([H])([H])C([H])([H])C([H])([H])C2([H])N([H])C(=O)C1([H])N(C(=O)C([H])(N([H])C(=O)C([H])(N([H])C([H])([H])[H])C([H])([H])[H])C(C([H])([H])[H])(C([H])([H])[H])C([H])([H])[H])C([H])([H])c2c([H])c(OC3([H])C([H])([H])C([H])([H])C4(C([H])([H])[H])c5c([H])c([H])c(C(=O)C([H])([H])c6c([H])c([H])c(C(=O)N7C([H])([H])C([H])([H])C([H])([H])C([H])(n8nc(-c9c([H])c([H])c(Oc%10c([H])c([H])c(F)c([H])c%10F)c([H])c9[H])c(C(=O)N([H])[H])c8N([H])[H])C7([H])[H])c([H])c6[H])c([H])c5C([H])([H])C4([H])C3([H])[H])c([H])c([H])c2C1([H])[H]

$$$$
55:0:0
     RDKit          3D

 88 94  0  0  1  0  0  0  0  0999 V2000
  -28.2410  -20.7200   19.2110 C   0  0  0  0  0  3  0  0  0  0  0  0
  -27.9110  -22.2650   19.2300 C   0  0  0  0  0  3  0  0  0  0  0  0
  -29.5820  -20.9720   20.8470 C   0  0  0  0  0  3  0  0  0  0  0  0
  -29.1580  -19.7710   19.9980 C   0  0  0  0  0  3  0  0  0  0  0  0
  -29.2680  -22.5250   20.8760 C   0  0  0  0  0  0  0  0  0  0  0  0
  -28.3450  -23.4600   20.0830 C   0  0  0  0  0  0  0  0  0  0  0  0
  -27.8830  -17.4290   19.6500 C   0  0  0  0  0  1  0  0  0  0  0  0
  -29.3200  -17.6850   21.6980 C   0  0  0  0  0  1  0  0  0  0  0  0
  -29.2880  -17.7770   20.1600 C   0  0  0  0  0  2  0  0  0  0  0  0
  -30.1800  -16.0110   19.7680 C   0  0  0  0  0  2  0  0  0  0  0  0
  -30.3530  -13.3870   18.8940 C   0  0  0  0  0  2  0  0  0  0  0  0
  -29.3850  -12.8740   17.7730 C   0  0  0  0  0  2  0  0  0  0  0  0
  -28.0350  -12.4240   18.3510 C   0  0  0  0  0  2  0  0  0  0  0  0
  -27.5720  -13.4050   19.4450 C   0  0  0  0  0  3  0  0  0  0  0  0
  -28.6820  -13.8080   20.4540 C   0  0  0  0  0  2  0  0  0  0  0  0
  -29.7530  -14.5600   19.7260 N   0  0  0  0  0  0  0  0  0  0  0  0
  -31.3840  -15.9320   19.4260 O   0  0  0  0  0  1  0  0  0  0  0  0
  -25.3130  -13.8730   20.5000 C   0  0  0  0  0  0  0  0  0  0  0  0
  -24.2940  -13.0750   20.9310 C   0  0  0  0  0  0  0  0  0  0  0  0
  -24.7490  -11.7300   20.7700 C   0  0  0  0  0  0  0  0  0  0  0  0
  -26.3200  -13.0200   20.0880 N   0  0  0  0  0  0  0  0  0  0  0  0
  -26.0010  -11.7170   20.3130 N   0  0  0  0  0  0  0  0  0  0  0  0
  -24.0320  -10.4620   20.9650 C   0  0  0  0  0  0  0  0  0  0  0  0
  -24.5010   -9.4750   21.8570 C   0  0  0  0  0  3  0  0  0  0  0  0
  -23.7780   -8.2770   22.0460 C   0  0  0  0  0  3  0  0  0  0  0  0
  -22.5700   -8.0570   21.3410 C   0  0  0  0  0  0  0  0  0  0  0  0
  -22.1190   -9.0340   20.4360 C   0  0  0  0  0  3  0  0  0  0  0  0
  -22.8430  -10.2230   20.2450 C   0  0  0  0  0  3  0  0  0  0  0  0
  -21.8160   -6.9130   21.4400 O   0  0  0  0  0  0  0  0  0  0  0  0
  -21.7520   -6.1900   22.6040 C   0  0  0  0  0  0  0  0  0  0  0  0
  -21.2920   -6.7610   23.8130 C   0  0  0  0  0  3  0  0  0  0  0  0
  -21.1770   -5.9640   24.9690 C   0  0  0  0  0  3  0  0  0  0  0  0
  -21.5120   -4.5980   24.9190 C   0  0  0  0  0  0  0  0  0  0  0  0
  -21.9640   -4.0270   23.7180 C   0  0  0  0  0  3  0  0  0  0  0  0
  -22.0820   -4.8200   22.5640 C   0  0  0  0  0  0  0  0  0  0  0  0
  -22.4980   -4.2590   21.4020 F   0  0  0  0  0  0  0  0  0  0  0  0
  -21.3940   -3.8290   26.0290 F   0  0  0  0  0  0  0  0  0  0  0  0
  -22.9380  -13.5420   21.3690 C   0  0  0  0  0  0  0  0  0  0  0  0
  -22.2980  -12.8090   22.2730 N   0  0  0  0  0  0  0  0  0  0  0  0
  -22.4570  -14.5920   20.9430 O   0  0  0  0  0  0  0  0  0  0  0  0
  -22.7030  -11.9620   22.6420 H   0  0  0  0  0  0  0  0  0  0  0  0
  -21.3880  -13.1010   22.6010 H   0  0  0  0  0  0  0  0  0  0  0  0
  -25.4570  -15.2520   20.3950 N   0  0  0  0  0  0  0  0  0  0  0  0
  -24.7190  -15.8920   20.6620 H   0  0  0  0  0  0  0  0  0  0  0  0
  -26.2710  -15.7190   20.0240 H   0  0  0  0  0  0  0  0  0  0  0  0
  -31.5630  -23.2660   21.6940 C   0  0  0  0  0  1  0  0  0  0  0  0
  -30.0510  -23.2640   21.9520 C   0  0  0  0  0  2  0  0  0  0  0  0
  -28.1890  -25.1660   20.0750 O   0  0  0  0  0  0  0  0  0  0  0  0
  -24.6000  -31.6970   23.0210 C   0  0  0  0  0  0  0  0  0  0  0  0
  -27.1860  -26.4430   20.0670 C   0  0  0  0  0  0  0  0  0  0  0  0
  -23.4430  -30.2810   21.3790 C   0  0  0  0  0  3  0  0  0  0  0  0
  -24.9170  -28.6020   19.9880 C   0  0  0  0  0  0  0  0  0  0  0  0
  -26.0310  -30.3830   21.3000 C   0  0  0  0  0  2  0  0  0  0  0  0
  -26.1080  -28.9240   20.6470 C   0  0  0  0  0  0  0  0  0  0  0  0
  -27.2110  -27.8800   20.6470 C   0  0  0  0  0  3  0  0  0  0  0  0
  -25.9570  -26.3950   19.3410 C   0  0  0  0  0  3  0  0  0  0  0  0
  -24.8940  -27.3670   19.3120 C   0  0  0  0  0  3  0  0  0  0  0  0
  -23.7110  -29.5700   20.0170 C   0  0  0  0  0  2  0  0  0  0  0  0
  -24.7180  -30.8270   21.9510 N   0  0  0  0  0  0  0  0  0  0  0  0
  -23.4960  -31.9940   23.5130 O   0  0  0  0  0  0  0  0  0  0  0  0
  -22.7130  -29.3160   22.3530 C   0  0  0  0  0  0  0  0  0  0  0  0
  -21.3780  -29.1650   22.2290 N   0  0  0  0  0  0  0  0  0  0  0  0
  -23.3620  -28.6960   23.1980 O   0  0  0  0  0  0  0  0  0  0  0  0
  -20.8990  -29.7170   21.5310 H   0  0  0  0  0  0  0  0  0  0  0  0
  -17.9950  -27.9240   22.7370 C   0  0  0  0  0  0  0  0  0  0  0  0
  -20.5540  -28.2240   23.0000 C   0  0  0  0  0  3  0  0  0  0  0  0
  -20.6680  -26.7900   22.4280 C   0  0  0  0  0  2  0  0  0  0  0  0
  -19.5730  -26.4560   21.4110 C   0  0  0  0  0  2  0  0  0  0  0  0
  -18.1890  -26.5810   22.0530 C   0  0  0  0  0  2  0  0  0  0  0  0
  -19.1050  -28.7020   23.1670 C   0  0  0  0  0  0  0  0  0  0  0  0
  -18.8630  -29.9530   23.7750 C   0  0  0  0  0  3  0  0  0  0  0  0
  -17.5500  -30.4290   23.9520 C   0  0  0  0  0  3  0  0  0  0  0  0
  -16.4570  -29.6500   23.5340 C   0  0  0  0  0  3  0  0  0  0  0  0
  -16.6810  -28.3980   22.9330 C   0  0  0  0  0  3  0  0  0  0  0  0
  -25.8420  -32.3740   23.6770 C   0  0  0  0  0  3  0  0  0  0  0  0
  -25.4870  -33.7640   24.0330 N   0  0  0  0  0  0  0  0  0  0  0  0
  -25.7900  -34.8540   23.3130 C   0  0  0  0  0  0  0  0  0  0  0  0
  -26.4490  -34.7950   22.2730 O   0  0  0  0  0  0  0  0  0  0  0  0
  -24.8930  -33.8800   24.8420 H   0  0  0  0  0  0  0  0  0  0  0  0
  -24.0120  -36.6280   23.0670 C   0  0  0  0  0  1  0  0  0  0  0  0
  -25.2900  -36.2250   23.8230 C   0  0  0  0  0  3  0  0  0  0  0  0
  -27.4220  -37.1560   24.6140 C   0  0  0  0  0  1  0  0  0  0  0  0
  -26.2940  -37.3040   23.6970 N   0  0  0  0  0  0  0  0  0  0  0  0
  -25.8710  -38.2130   23.8600 H   0  0  0  0  0  0  0  0  0  0  0  0
  -26.3490  -31.6130   24.9660 C   0  0  1  0  0  0  0  0  0  0  0  0
  -25.2420  -31.3620   26.0180 C   0  0  0  0  0  1  0  0  0  0  0  0
  -26.9580  -30.2410   24.6020 C   0  0  0  0  0  1  0  0  0  0  0  0
  -27.4770  -32.4270   25.6450 C   0  0  0  0  0  1  0  0  0  0  0  0
  1  2  2  0
  1  4  1  0
  2  6  1  0
  3  5  1  0
  4  3  2  0
  5 47  1  0
  6  5  2  0
  7  9  1  0
  9  8  1  0
 11 16  1  0
 12 13  1  0
 12 11  1  0
 14 13  1  0
 14 21  1  0
 14 15  1  0
 16 10  1  0
 16 15  1  0
 17 10  1  0
 18 19  2  0
 19 38  1  0
 20 19  1  0
 20 23  1  0
 21 22  1  0
 21 18  1  0
 22 20  2  0
 23 24  1  0
 24 25  2  0
 26 29  1  0
 26 25  1  0
 27 26  2  0
 28 27  1  0
 28 23  2  0
 29 30  1  0
 30 31  1  0
 31 32  2  0
 33 32  1  0
 33 37  1  0
 34 33  2  0
 35 30  2  0
 35 34  1  0
 36 35  1  0
 38 39  1  0
 39 42  1  0
 39 41  1  0
 40 38  2  0
 43 18  1  0
 43 44  1  0
 45 43  1  0
 46 47  1  0
 48  6  1  0
 49 60  2  0
 50 48  1  0
 50 55  1  0
 51 59  1  0
 51 61  1  0
 52 58  1  0
 52 54  1  0
 53 59  1  0
 54 53  1  0
 55 54  2  0
 56 50  2  0
 57 56  1  0
 57 52  2  0
 58 51  1  0
 59 49  1  0
 61 63  2  0
 62 61  1  0
 64 62  1  0
 65 74  2  0
 65 70  1  0
 66 62  1  0
 66 70  1  0
 67 66  1  0
 68 69  1  0
 68 67  1  0
 69 65  1  0
 70 71  2  0
 71 72  1  0
 73 72  2  0
 74 73  1  0
 75 49  1  0
 75 76  1  0
 75 85  1  0
 76 79  1  0
 77 81  1  0
 77 76  1  0
 78 77  2  0
 81 80  1  0
 83 81  1  0
 83 84  1  0
 83 82  1  0
 85 88  1  1
 85 86  1  0
 87 85  1  0
M  ISO  4   6 101   9 100  10 100  48 101
M  END
>  <TORSDO>  (56) 
F 18

>  <SCORE>  (56) 
-14.604

>  <name>  (56) 
55

>  <ligand_id>  (56) 
55

>  <original_smiles>  (56) 
[H]c1c([H])c([H])c2c(c1[H])C([H])([H])C([H])([H])C([H])([H])C2([H])N([H])C(=O)C1([H])N(C(=O)C([H])(N([H])C(=O)C([H])(N([H])C([H])([H])[H])C([H])([H])[H])C(C([H])([H])[H])(C([H])([H])[H])C([H])([H])[H])C([H])([H])c2c([H])c(Oc3c([H])c([H])c(C(C(=O)N4C([H])([H])C([H])([H])C([H])([H])C([H])(n5nc(-c6c([H])c([H])c(Oc7c([H])c([H])c(F)c([H])c7F)c([H])c6[H])c(C(=O)N([H])[H])c5N([H])[H])C4([H])[H])(C([H])([H])[H])C([H])([H])[H])c([H])c3C([H])([H])C([H])([H])[H])c([H])c([H])c2C1([H])[H]

>  <smiles>  (56) 
[H]c1c([H])c([H])c2c(c1[H])C([H])([H])C([H])([H])C([H])([H])C2([H])N([H])C(=O)C1([H])N(C(=O)C([H])(N([H])C(=O)C([H])(N([H])C([H])([H])[H])C([H])([H])[H])C(C([H])([H])[H])(C([H])([H])[H])C([H])([H])[H])C([H])([H])c2c([H])c(Oc3c([H])c([H])c(C(C(=O)N4C([H])([H])C([H])([H])C([H])([H])C([H])(n5nc(-c6c([H])c([H])c(Oc7c([H])c([H])c(F)c([H])c7F)c([H])c6[H])c(C(=O)N([H])[H])c5N([H])[H])C4([H])[H])(C([H])([H])[H])C([H])([H])[H])c([H])c3C([H])([H])C([H])([H])[H])c([H])c([H])c2C1([H])[H]

$$$$
56:0:0
     RDKit          3D

 92100  0  0  1  0  0  0  0  0999 V2000
  -28.2220  -19.6710   18.0810 C   0  0  0  0  0  3  0  0  0  0  0  0
  -29.7200  -18.4870   19.8560 C   0  0  0  0  0  0  0  0  0  0  0  0
  -29.6190  -20.2020   20.2380 C   0  0  0  0  0  0  0  0  0  0  0  0
  -28.9160  -21.5310   19.5860 C   0  0  0  0  0  0  0  0  0  0  0  0
  -28.8760  -18.5200   18.6770 C   0  0  0  0  0  0  0  0  0  0  0  0
  -28.2480  -21.0640   18.4380 C   0  0  0  0  0  0  0  0  0  0  0  0
  -29.5720  -22.7020   21.4420 C   0  0  0  0  0  0  0  0  0  0  0  0
  -30.1310  -21.1070   21.4420 C   0  0  2  0  0  0  0  0  0  0  0  0
  -29.0030  -23.3810   20.1010 C   0  0  0  0  0  3  0  0  0  0  0  0
  -28.6650  -17.2280   17.8960 C   0  0  0  0  0  1  0  0  0  0  0  0
  -27.5740  -22.0650   17.5160 C   0  0  0  0  0  1  0  0  0  0  0  0
  -31.6730  -21.1320   21.4210 C   0  0  0  0  0  1  0  0  0  0  0  0
  -29.6850  -20.4420   22.7670 C   0  0  0  0  0  1  0  0  0  0  0  0
  -30.2600  -23.7870   19.2990 C   0  0  0  0  0  1  0  0  0  0  0  0
  -29.6210  -23.3720   22.4810 O   0  0  0  0  0  0  0  0  0  0  0  0
  -30.5560  -16.7300   20.1200 C   0  0  0  0  0  0  0  0  0  0  0  0
  -30.9780  -14.0440   19.3560 C   0  0  0  0  0  2  0  0  0  0  0  0
  -30.1710  -13.2850   18.2380 C   0  0  0  0  0  2  0  0  0  0  0  0
  -28.8520  -12.7140   18.7750 C   0  0  0  0  0  2  0  0  0  0  0  0
  -28.2180  -13.7150   19.7560 C   0  0  0  0  0  3  0  0  0  0  0  0
  -29.2030  -14.3600   20.7790 C   0  0  0  0  0  2  0  0  0  0  0  0
  -30.1930  -15.2280   20.0400 N   0  0  0  0  0  0  0  0  0  0  0  0
  -31.8100  -16.6120   20.0850 O   0  0  0  0  0  0  0  0  0  0  0  0
  -25.9150  -14.0610   20.7290 C   0  0  0  0  0  0  0  0  0  0  0  0
  -24.9050  -13.2200   21.0890 C   0  0  0  0  0  0  0  0  0  0  0  0
  -25.4070  -11.8940   20.9070 C   0  0  0  0  0  0  0  0  0  0  0  0
  -26.9680  -13.2540   20.3460 N   0  0  0  0  0  0  0  0  0  0  0  0
  -26.6810  -11.9330   20.5090 N   0  0  0  0  0  0  0  0  0  0  0  0
  -24.7170  -10.6000   21.0250 C   0  0  0  0  0  0  0  0  0  0  0  0
  -25.1060   -9.6370   21.9830 C   0  0  0  0  0  3  0  0  0  0  0  0
  -24.4050   -8.4160   22.0950 C   0  0  0  0  0  3  0  0  0  0  0  0
  -23.3000   -8.1470   21.2520 C   0  0  0  0  0  0  0  0  0  0  0  0
  -22.9310   -9.1000   20.2870 C   0  0  0  0  0  3  0  0  0  0  0  0
  -23.6330  -10.3120   20.1700 C   0  0  0  0  0  3  0  0  0  0  0  0
  -22.5800   -6.9760   21.2710 O   0  0  0  0  0  0  0  0  0  0  0  0
  -22.2690   -6.3410   22.4470 C   0  0  0  0  0  0  0  0  0  0  0  0
  -21.5280   -6.9800   23.4640 C   0  0  0  0  0  3  0  0  0  0  0  0
  -21.1750   -6.2710   24.6290 C   0  0  0  0  0  3  0  0  0  0  0  0
  -21.5460   -4.9220   24.7740 C   0  0  0  0  0  0  0  0  0  0  0  0
  -22.2770   -4.2800   23.7580 C   0  0  0  0  0  3  0  0  0  0  0  0
  -22.6360   -4.9870   22.5960 C   0  0  0  0  0  0  0  0  0  0  0  0
  -23.3210   -4.3590   21.6120 F   0  0  0  0  0  0  0  0  0  0  0  0
  -21.1990   -4.2370   25.8890 F   0  0  0  0  0  0  0  0  0  0  0  0
  -23.5170  -13.6350   21.4760 C   0  0  0  0  0  0  0  0  0  0  0  0
  -22.8670  -12.8670   22.3430 N   0  0  0  0  0  0  0  0  0  0  0  0
  -23.0220  -14.6760   21.0470 O   0  0  0  0  0  0  0  0  0  0  0  0
  -23.2810  -12.0220   22.7100 H   0  0  0  0  0  0  0  0  0  0  0  0
  -21.9380  -13.1240   22.6420 H   0  0  0  0  0  0  0  0  0  0  0  0
  -26.0230  -15.4470   20.6590 N   0  0  0  0  0  0  0  0  0  0  0  0
  -25.2410  -16.0560   20.8660 H   0  0  0  0  0  0  0  0  0  0  0  0
  -26.8310  -15.9450   20.3120 H   0  0  0  0  0  0  0  0  0  0  0  0
  -28.5200  -25.3220   19.9170 O   0  0  0  0  0  1  0  0  0  0  0  0
  -24.8330  -31.9090   23.1070 C   0  0  0  0  0  0  0  0  0  0  0  0
  -27.5020  -26.6520   19.9880 C   0  0  0  0  0  0  0  0  0  0  0  0
  -23.7170  -30.5470   21.3980 C   0  0  0  0  0  3  0  0  0  0  0  0
  -25.2230  -28.9010   19.9720 C   0  0  0  0  0  0  0  0  0  0  0  0
  -26.3110  -30.6300   21.3600 C   0  0  0  0  0  2  0  0  0  0  0  0
  -26.4100  -29.1790   20.6550 C   0  0  0  0  0  0  0  0  0  0  0  0
  -27.5140  -28.1040   20.6070 C   0  0  0  0  0  3  0  0  0  0  0  0
  -26.2630  -26.6890   19.2620 C   0  0  0  0  0  3  0  0  0  0  0  0
  -25.2130  -27.6880   19.2520 C   0  0  0  0  0  3  0  0  0  0  0  0
  -24.0200  -29.8860   20.0160 C   0  0  0  0  0  2  0  0  0  0  0  0
  -24.9820  -31.0700   22.0120 N   0  0  0  0  0  0  0  0  0  0  0  0
  -23.7160  -32.1810   23.5890 O   0  0  0  0  0  0  0  0  0  0  0  0
  -22.9650  -29.5490   22.3270 C   0  0  0  0  0  0  0  0  0  0  0  0
  -21.6350  -29.3830   22.1670 N   0  0  0  0  0  0  0  0  0  0  0  0
  -23.6000  -28.9180   23.1750 O   0  0  0  0  0  0  0  0  0  0  0  0
  -21.1610  -29.9600   21.4860 H   0  0  0  0  0  0  0  0  0  0  0  0
  -18.2490  -28.1110   22.6240 C   0  0  0  0  0  0  0  0  0  0  0  0
  -20.8100  -28.3980   22.8850 C   0  0  0  0  0  3  0  0  0  0  0  0
  -20.9210  -27.0000   22.2330 C   0  0  0  0  0  2  0  0  0  0  0  0
  -19.8210  -26.7240   21.2040 C   0  0  0  0  0  2  0  0  0  0  0  0
  -18.4400  -26.8090   21.8610 C   0  0  0  0  0  2  0  0  0  0  0  0
  -19.3620  -28.8640   23.0900 C   0  0  0  0  0  0  0  0  0  0  0  0
  -19.1250  -30.0740   23.7770 C   0  0  0  0  0  3  0  0  0  0  0  0
  -17.8140  -30.5390   23.9870 C   0  0  0  0  0  3  0  0  0  0  0  0
  -16.7180  -29.7870   23.5300 C   0  0  0  0  0  3  0  0  0  0  0  0
  -16.9360  -28.5720   22.8550 C   0  0  0  0  0  3  0  0  0  0  0  0
  -26.0490  -32.5780   23.8180 C   0  0  0  0  0  3  0  0  0  0  0  0
  -25.6740  -33.9550   24.2230 N   0  0  0  0  0  0  0  0  0  0  0  0
  -25.9710  -35.0760   23.5480 C   0  0  0  0  0  0  0  0  0  0  0  0
  -26.6380  -35.0610   22.5130 O   0  0  0  0  0  0  0  0  0  0  0  0
  -25.0800  -34.0360   25.0350 H   0  0  0  0  0  0  0  0  0  0  0  0
  -24.1840  -36.8480   23.3490 C   0  0  0  0  0  1  0  0  0  0  0  0
  -25.4540  -36.4230   24.1060 C   0  0  0  0  0  3  0  0  0  0  0  0
  -27.5740  -37.3370   24.9530 C   0  0  0  0  0  1  0  0  0  0  0  0
  -26.4520  -37.5140   24.0360 N   0  0  0  0  0  0  0  0  0  0  0  0
  -26.0190  -38.4120   24.2360 H   0  0  0  0  0  0  0  0  0  0  0  0
  -26.5340  -31.7770   25.0910 C   0  0  1  0  0  0  0  0  0  0  0  0
  -25.4120  -31.4890   26.1160 C   0  0  0  0  0  1  0  0  0  0  0  0
  -27.1550  -30.4220   24.6940 C   0  0  0  0  0  1  0  0  0  0  0  0
  -27.6500  -32.5710   25.8140 C   0  0  0  0  0  1  0  0  0  0  0  0
  1  6  2  0
  1  5  1  0
  2 16  1  0
  2  3  1  0
  3  8  1  0
  4  9  1  0
  4  3  2  0
  5  2  2  0
  6  4  1  0
  7 15  2  0
  8  7  1  0
  8 13  1  1
  9 14  1  0
  9  7  1  0
 10  5  1  0
 11  6  1  0
 12  8  1  0
 17 22  1  0
 18 19  1  0
 18 17  1  0
 20 19  1  0
 20 27  1  0
 20 21  1  0
 22 16  1  0
 22 21  1  0
 23 16  2  0
 24 25  2  0
 25 44  1  0
 26 29  1  0
 26 25  1  0
 27 28  1  0
 27 24  1  0
 28 26  2  0
 29 30  1  0
 30 31  2  0
 32 35  1  0
 32 31  1  0
 33 32  2  0
 34 33  1  0
 34 29  2  0
 35 36  1  0
 36 41  2  0
 36 37  1  0
 37 38  2  0
 38 39  1  0
 39 43  1  0
 40 39  2  0
 41 40  1  0
 42 41  1  0
 44 45  1  0
 45 48  1  0
 45 47  1  0
 46 44  2  0
 49 24  1  0
 49 50  1  0
 51 49  1  0
 52 54  1  0
 53 64  2  0
 54 59  1  0
 55 63  1  0
 55 65  1  0
 56 62  1  0
 56 58  1  0
 57 63  1  0
 58 57  1  0
 59 58  2  0
 60 54  2  0
 61 60  1  0
 61 56  2  0
 62 55  1  0
 63 53  1  0
 65 67  2  0
 66 65  1  0
 68 66  1  0
 69 78  2  0
 69 74  1  0
 70 66  1  0
 70 74  1  0
 71 70  1  0
 72 73  1  0
 72 71  1  0
 73 69  1  0
 74 75  2  0
 75 76  1  0
 77 76  2  0
 78 77  1  0
 79 53  1  0
 79 80  1  0
 79 89  1  0
 80 83  1  0
 81 85  1  0
 81 80  1  0
 82 81  2  0
 85 84  1  0
 87 85  1  0
 87 88  1  0
 87 86  1  0
 89 92  1  1
 89 90  1  0
 91 89  1  0
M  ISO  4   2 100   9 101  16 100  52 101
M  END
>  <TORSDO>  (57) 
F 16

>  <SCORE>  (57) 
-13.942

>  <name>  (57) 
56

>  <ligand_id>  (57) 
56

>  <original_smiles>  (57) 
[H]c1c([H])c([H])c2c(c1[H])C([H])([H])C([H])([H])C([H])([H])C2([H])N([H])C(=O)C1([H])N(C(=O)C([H])(N([H])C(=O)C([H])(N([H])C([H])([H])[H])C([H])([H])[H])C(C([H])([H])[H])(C([H])([H])[H])C([H])([H])[H])C([H])([H])c2c([H])c(OC3(C([H])([H])[H])C(=O)C(C([H])([H])[H])(C([H])([H])[H])c4c(C(=O)N5C([H])([H])C([H])([H])C([H])([H])C([H])(n6nc(-c7c([H])c([H])c(Oc8c([H])c([H])c(F)c([H])c8F)c([H])c7[H])c(C(=O)N([H])[H])c6N([H])[H])C5([H])[H])c(C([H])([H])[H])c([H])c(C([H])([H])[H])c43)c([H])c([H])c2C1([H])[H]

>  <smiles>  (57) 
[H]c1c([H])c([H])c2c(c1[H])C([H])([H])C([H])([H])C([H])([H])C2([H])N([H])C(=O)C1([H])N(C(=O)C([H])(N([H])C(=O)C([H])(N([H])C([H])([H])[H])C([H])([H])[H])C(C([H])([H])[H])(C([H])([H])[H])C([H])([H])[H])C([H])([H])c2c([H])c(OC3(C([H])([H])[H])C(=O)C(C([H])([H])[H])(C([H])([H])[H])c4c(C(=O)N5C([H])([H])C([H])([H])C([H])([H])C([H])(n6nc(-c7c([H])c([H])c(Oc8c([H])c([H])c(F)c([H])c8F)c([H])c7[H])c(C(=O)N([H])[H])c6N([H])[H])C5([H])[H])c(C([H])([H])[H])c([H])c(C([H])([H])[H])c43)c([H])c([H])c2C1([H])[H]

$$$$
57:0:0
     RDKit          3D

 96 95  0  0  1  0  0  0  0  0999 V2000
  -26.3350  -11.5690   20.6010 C   0  0  0  0  0 15  0  0  0  0  0  0
  -25.0190  -12.7560   19.1620 C   0  0  0  0  0 15  0  0  0  0  0  0
  -27.4670  -15.0570   21.9390 C   0  0  0  0  0 15  0  0  0  0  0  0
  -26.2650  -16.2320   20.5700 C   0  0  0  0  0  1  0  0  0  0  0  0
  -27.5960  -12.8870   22.0080 C   0  0  0  0  0  1  0  0  0  0  0  0
  -24.9180  -15.0050   19.1840 C   0  0  0  0  0  1  0  0  0  0  0  0
  -24.1050  -15.7130   18.1210 C   0  0  0  0  0  1  0  0  0  0  0  0
  -26.9480  -17.8590   19.8750 C   0  0  0  0  0  0  0  0  0  0  0  0
  -28.1610  -18.9670   19.8520 N   0  0  0  0  0  0  0  0  0  0  0  0
  -26.1380  -18.2120   19.0190 O   0  0  0  0  0  0  0  0  0  0  0  0
  -28.7820  -18.7190   20.6120 H   0  0  0  0  0  0  0  0  0  0  0  0
  -29.0110  -20.3870   18.8790 C   0  0  0  0  0  1  0  0  0  0  0  0
  -30.2080  -22.1310   18.8690 C   0  0  0  0  0 15  0  0  0  0  0  0
  -31.3780  -23.3600   17.9840 O   0  0  0  0  0  1  0  0  0  0  0  0
  -35.0910  -29.6220   20.9660 C   0  0  0  0  0  0  0  0  0  0  0  0
  -31.7360  -24.9090   18.1070 C   0  0  0  0  0  0  0  0  0  0  0  0
  -32.6710  -29.3140   20.9070 C   0  0  0  0  0  3  0  0  0  0  0  0
  -31.6680  -27.7600   19.0910 C   0  0  0  0  0  0  0  0  0  0  0  0
  -34.0560  -28.3640   18.9450 C   0  0  0  0  0  2  0  0  0  0  0  0
  -32.9140  -27.2870   18.6730 C   0  0  0  0  0  0  0  0  0  0  0  0
  -32.9450  -25.8740   18.1460 C   0  0  0  0  0  3  0  0  0  0  0  0
  -30.5910  -25.6860   18.2680 C   0  0  0  0  0  3  0  0  0  0  0  0
  -30.5380  -26.9950   18.7950 C   0  0  0  0  0  3  0  0  0  0  0  0
  -31.5440  -29.0710   19.8710 C   0  0  0  0  0  2  0  0  0  0  0  0
  -34.0090  -29.1180   20.2730 N   0  0  0  0  0  0  0  0  0  0  0  0
  -34.9640  -30.1590   22.0810 O   0  0  0  0  0  0  0  0  0  0  0  0
  -32.4710  -28.4140   22.1570 C   0  0  0  0  0  0  0  0  0  0  0  0
  -31.5870  -28.8130   23.0900 N   0  0  0  0  0  0  0  0  0  0  0  0
  -33.1150  -27.3690   22.2700 O   0  0  0  0  0  0  0  0  0  0  0  0
  -31.1060  -29.6890   22.9470 H   0  0  0  0  0  0  0  0  0  0  0  0
  -29.5330  -28.8570   26.0830 C   0  0  0  0  0  0  0  0  0  0  0  0
  -31.2370  -28.0660   24.3050 C   0  0  0  0  0  3  0  0  0  0  0  0
  -30.2260  -26.9400   23.9880 C   0  0  0  0  0  2  0  0  0  0  0  0
  -28.7680  -27.3700   24.1840 C   0  0  0  0  0  2  0  0  0  0  0  0
  -28.5270  -27.8130   25.6290 C   0  0  0  0  0  2  0  0  0  0  0  0
  -30.7990  -28.9870   25.4510 C   0  0  0  0  0  0  0  0  0  0  0  0
  -31.6850  -29.9910   25.8960 C   0  0  0  0  0  3  0  0  0  0  0  0
  -31.3260  -30.8560   26.9480 C   0  0  0  0  0  3  0  0  0  0  0  0
  -30.0770  -30.7140   27.5770 C   0  0  0  0  0  3  0  0  0  0  0  0
  -29.1860  -29.7150   27.1480 C   0  0  0  0  0  3  0  0  0  0  0  0
  -36.5370  -29.5640   20.3950 C   0  0  0  0  0  3  0  0  0  0  0  0
  -37.3570  -28.3180   20.9170 C   0  0  1  0  0  0  0  0  0  0  0  0
  -37.3580  -28.1740   22.4590 C   0  0  0  0  0  1  0  0  0  0  0  0
  -36.8100  -27.0000   20.3320 C   0  0  0  0  0  1  0  0  0  0  0  0
  -38.8250  -28.4200   20.4440 C   0  0  0  0  0  1  0  0  0  0  0  0
  -37.2380  -30.8070   20.7890 N   0  0  0  0  0  0  0  0  0  0  0  0
  -37.4410  -31.8730   20.0030 C   0  0  0  0  0  0  0  0  0  0  0  0
  -37.0870  -31.8950   18.8220 O   0  0  0  0  0  0  0  0  0  0  0  0
  -37.4990  -30.8810   21.7620 H   0  0  0  0  0  0  0  0  0  0  0  0
  -37.0980  -34.1650   20.9980 C   0  0  0  0  0  1  0  0  0  0  0  0
  -38.1430  -33.1050   20.6160 C   0  0  0  0  0  3  0  0  0  0  0  0
  -40.3310  -32.8670   19.5220 C   0  0  0  0  0  1  0  0  0  0  0  0
  -39.1580  -33.7120   19.7250 N   0  0  0  0  0  0  0  0  0  0  0  0
  -39.4710  -34.6070   20.0920 H   0  0  0  0  0  0  0  0  0  0  0  0
  -28.8830  -12.5230   22.8000 C   0  0  0  0  0  2  0  0  0  0  0  0
  -31.4450  -13.0190   19.2290 C   0  0  0  0  0  0  0  0  0  0  0  0
  -30.4280  -11.4300   17.5600 C   0  0  0  0  0  2  0  0  0  0  0  0
  -29.1360  -11.8890   16.7770 C   0  0  0  0  0  2  0  0  0  0  0  0
  -27.8450  -12.1530   17.6090 C   0  0  0  0  0  2  0  0  0  0  0  0
  -28.3130  -12.8260   18.8930 C   0  0  0  0  0  3  0  0  0  0  0  0
  -29.2490  -11.7910   19.5120 C   0  0  0  0  0  2  0  0  0  0  0  0
  -30.5380  -12.0450   18.8910 N   0  0  0  0  0  0  0  0  0  0  0  0
  -32.1320  -13.5850   18.3630 O   0  0  0  0  0  0  0  0  0  0  0  0
  -31.0020  -13.9850   21.4120 C   0  0  0  0  0  0  0  0  0  0  0  0
  -31.4160  -12.0380   21.5790 C   0  0  0  0  0  2  0  0  0  0  0  0
  -30.2030  -12.8710   22.0130 C   0  0  0  0  0  3  0  0  0  0  0  0
  -31.6880  -13.1340   20.5790 N   0  0  0  0  0  0  0  0  0  0  0  0
  -30.8730  -15.2130   21.4540 O   0  0  0  0  0  0  0  0  0  0  0  0
  -26.7010  -14.1420   20.0900 C   0  0  0  0  0  0  0  0  0  0  0  0
  -25.1880  -13.8010   21.2380 C   0  0  0  0  0  0  0  0  0  0  0  0
  -24.9500  -12.5400   21.6540 C   0  0  0  0  0  2  0  0  0  0  0  0
  -27.3030  -13.5040   19.8000 N   0  0  0  0  0  2  0  0  0  0  0  0
  -25.7810  -13.5190   20.8860 N   0  0  0  0  0  2  0  0  0  0  0  0
  -24.1050  -11.1900   21.4560 C   0  0  0  0  0  3  0  0  0  0  0  0
  -24.5910   -9.9360   21.9690 C   0  0  0  0  0  3  0  0  0  0  0  0
  -23.7670   -8.7860   22.1790 C   0  0  0  0  0  3  0  0  0  0  0  0
  -22.3880   -8.8270   21.8750 C   0  0  0  0  0  0  0  0  0  0  0  0
  -21.9210   -9.9970   21.2300 C   0  0  0  0  0  3  0  0  0  0  0  0
  -22.7560  -11.1310   21.0070 C   0  0  0  0  0  3  0  0  0  0  0  0
  -21.4870   -7.7970   22.1250 O   0  0  0  0  0  0  0  0  0  0  0  0
  -21.6800   -6.8270   23.0980 C   0  0  0  0  0  0  0  0  0  0  0  0
  -21.9770   -7.1470   24.4440 C   0  0  0  0  0  3  0  0  0  0  0  0
  -22.1160   -6.1260   25.4090 C   0  0  0  0  0  3  0  0  0  0  0  0
  -21.9450   -4.7760   25.0460 C   0  0  0  0  0  0  0  0  0  0  0  0
  -21.6260   -4.4500   23.7170 C   0  0  0  0  0  3  0  0  0  0  0  0
  -21.4870   -5.4680   22.7530 C   0  0  0  0  0  0  0  0  0  0  0  0
  -21.1560   -5.1340   21.4840 F   0  0  0  0  0  0  0  0  0  0  0  0
  -22.0850   -3.7940   25.9700 F   0  0  0  0  0  0  0  0  0  0  0  0
  -23.7870  -14.4840   21.8470 C   0  0  0  0  0  0  0  0  0  0  0  0
  -23.1130  -13.8460   22.8280 N   0  0  0  0  0  0  0  0  0  0  0  0
  -23.2940  -15.5150   21.4230 O   0  0  0  0  0  0  0  0  0  0  0  0
  -23.4510  -12.9830   23.2210 H   0  0  0  0  0  0  0  0  0  0  0  0
  -22.2620  -14.2460   23.2000 H   0  0  0  0  0  0  0  0  0  0  0  0
  -27.4090  -15.1240   19.2500 N   0  0  0  0  0  4  0  0  0  0  0  0
  -26.6730  -15.8010   19.0850 H   0  0  0  0  0  0  0  0  0  0  0  0
  -28.1040  -15.5790   19.8180 H   0  0  0  0  0  0  0  0  0  0  0  0
  5 55  1  0
  7  6  1  0
  8  4  1  0
  9  8  1  0
  9 11  1  0
 10  8  2  0
 12  9  1  0
 14 16  1  0
 15 26  2  0
 16 21  2  0
 16 22  1  0
 17 27  1  0
 18 24  1  0
 19 25  1  0
 20 19  1  0
 20 18  2  0
 21 20  1  0
 22 23  2  0
 23 18  1  0
 24 17  1  0
 25 17  1  0
 25 15  1  0
 27 29  2  0
 27 28  1  0
 30 28  1  0
 31 40  1  0
 32 28  1  0
 32 36  1  0
 33 34  1  0
 33 32  1  0
 34 35  1  0
 35 31  1  0
 36 37  1  0
 36 31  2  0
 37 38  2  0
 38 39  1  0
 40 39  2  0
 41 46  1  0
 41 42  1  0
 41 15  1  0
 42 43  1  1
 44 42  1  0
 45 42  1  0
 46 49  1  0
 47 51  1  0
 47 46  1  0
 48 47  2  0
 51 50  1  0
 52 53  1  0
 53 54  1  0
 53 51  1  0
 56 67  1  0
 57 62  1  0
 58 57  1  0
 58 59  1  0
 59 60  1  0
 60 61  1  0
 60 72  1  0
 62 56  1  0
 62 61  1  0
 63 56  2  0
 64 68  2  0
 64 66  1  0
 65 66  1  0
 66 55  1  0
 67 64  1  0
 67 65  1  0
 69 73  1  0
 70 71  2  0
 70 89  1  0
 72 69  1  0
 73 70  1  0
 74 75  1  0
 75 76  2  0
 77 80  1  0
 77 76  1  0
 78 77  2  0
 79 78  1  0
 79 74  2  0
 80 81  1  0
 81 82  1  0
 82 83  2  0
 84 83  1  0
 84 88  1  0
 85 84  2  0
 86 81  2  0
 86 85  1  0
 87 86  1  0
 89 90  1  0
 90 93  1  0
 90 92  1  0
 91 89  2  0
 94 96  1  0
 94 69  2  0
 95 94  1  0
M  ISO  4  13 101  14 101  56 100  67 100
M  END
>  <TORSDO>  (58) 
F 20

>  <SCORE>  (58) 
13.976

>  <name>  (58) 
57

>  <ligand_id>  (58) 
57

>  <original_smiles>  (58) 
[H]c1c([H])c([H])c2c(c1[H])C([H])([H])C([H])([H])C([H])([H])C2([H])N([H])C(=O)C1([H])N(C(=O)C([H])(N([H])C(=O)C([H])(N([H])C([H])([H])[H])C([H])([H])[H])C(C([H])([H])[H])(C([H])([H])[H])C([H])([H])[H])C([H])([H])c2c([H])c(OC([H])([H])C([H])([H])N([H])C(=O)c3c([H])c(C([H])([H])C4([H])C(=O)N(C(=O)N5C([H])([H])C([H])([H])C([H])([H])C([H])(n6nc(-c7c([H])c([H])c(Oc8c([H])c([H])c(F)c([H])c8F)c([H])c7[H])c(C(=O)N([H])[H])c6N([H])[H])C5([H])[H])C4([H])[H])c([H])c([H])c3C([H])([H])[H])c([H])c([H])c2C1([H])[H]

>  <smiles>  (58) 
[H]c1c([H])c([H])c2c(c1[H])C([H])([H])C([H])([H])C([H])([H])C2([H])N([H])C(=O)C1([H])N(C(=O)C([H])(N([H])C(=O)C([H])(N([H])C([H])([H])[H])C([H])([H])[H])C(C([H])([H])[H])(C([H])([H])[H])C([H])([H])[H])C([H])([H])c2c([H])c(OC([H])([H])C([H])([H])N([H])C(=O)c3c([H])c(C([H])([H])C4([H])C(=O)N(C(=O)N5C([H])([H])C([H])([H])C([H])([H])C([H])(n6nc(-c7c([H])c([H])c(Oc8c([H])c([H])c(F)c([H])c8F)c([H])c7[H])c(C(=O)N([H])[H])c6N([H])[H])C5([H])[H])C4([H])[H])c([H])c([H])c3C([H])([H])[H])c([H])c([H])c2C1([H])[H]

$$$$
58:0:0
     RDKit          3D

 99109  0  0  1  0  0  0  0  0999 V2000
  -28.1060  -23.5660   21.3620 C   0  0  0  0  0  3  0  0  0  0  0  0
  -29.4370  -22.5720   19.1190 C   0  0  0  0  0  3  0  0  0  0  0  0
  -28.8380  -24.4760   20.5670 C   0  0  0  0  0  0  0  0  0  0  0  0
  -29.5410  -23.9620   19.4480 C   0  0  0  0  0  0  0  0  0  0  0  0
  -28.0290  -22.1830   21.0550 C   0  0  0  0  0  0  0  0  0  0  0  0
  -28.6840  -21.6620   19.9080 C   0  0  0  0  0  0  0  0  0  0  0  0
  -31.6380  -26.0120   20.6160 C   0  0  0  0  0  0  0  0  0  0  0  0
  -30.4430  -26.1530   21.5840 C   0  0  0  0  0  2  0  0  0  0  0  0
  -29.0110  -25.9430   21.0530 C   0  0  0  0  0  3  0  0  0  0  0  0
  -30.4180  -24.9280   18.6440 C   0  0  0  0  0  3  0  0  0  0  0  0
  -27.2180  -21.2870   21.9790 C   0  0  0  0  0  1  0  0  0  0  0  0
  -30.9370  -24.3770   17.3060 C   0  0  0  0  0  1  0  0  0  0  0  0
  -31.5640  -25.4240   19.4090 N   0  0  0  0  0  0  0  0  0  0  0  0
  -32.7320  -26.4290   20.9950 O   0  0  0  0  0  0  0  0  0  0  0  0
  -32.4440  -25.3670   18.9200 H   0  0  0  0  0  0  0  0  0  0  0  0
  -28.7300  -27.0230   20.1300 O   0  0  0  0  0  0  0  0  0  0  0  0
  -24.6120  -32.0040   23.3210 C   0  0  0  0  0  0  0  0  0  0  0  0
  -27.5360  -27.7160   20.2330 C   0  0  0  0  0  0  0  0  0  0  0  0
  -23.5230  -30.6020   21.5980 C   0  0  0  0  0  3  0  0  0  0  0  0
  -25.0880  -29.1500   20.1980 C   0  0  0  0  0  0  0  0  0  0  0  0
  -26.0420  -31.0510   21.5080 C   0  0  0  0  0  2  0  0  0  0  0  0
  -26.2050  -29.6950   20.8450 C   0  0  0  0  0  0  0  0  0  0  0  0
  -27.4350  -28.9840   20.8600 C   0  0  0  0  0  3  0  0  0  0  0  0
  -26.4040  -27.1950   19.5830 C   0  0  0  0  0  3  0  0  0  0  0  0
  -25.1830  -27.8970   19.5660 C   0  0  0  0  0  3  0  0  0  0  0  0
  -23.8110  -29.9630   20.2140 C   0  0  0  0  0  2  0  0  0  0  0  0
  -24.7410  -31.2350   22.2010 N   0  0  0  0  0  0  0  0  0  0  0  0
  -23.5030  -32.2230   23.8250 O   0  0  0  0  0  0  0  0  0  0  0  0
  -22.8740  -29.5350   22.5090 C   0  0  0  0  0  0  0  0  0  0  0  0
  -21.5630  -29.3080   22.3270 N   0  0  0  0  0  0  0  0  0  0  0  0
  -23.5490  -28.9140   23.3350 O   0  0  0  0  0  0  0  0  0  0  0  0
  -21.0790  -29.8630   21.6340 H   0  0  0  0  0  0  0  0  0  0  0  0
  -18.2190  -27.9800   22.6720 C   0  0  0  0  0  0  0  0  0  0  0  0
  -20.7550  -28.3180   23.0380 C   0  0  0  0  0  3  0  0  0  0  0  0
  -20.9300  -26.9110   22.4210 C   0  0  0  0  0  2  0  0  0  0  0  0
  -19.8730  -26.5830   21.3620 C   0  0  0  0  0  2  0  0  0  0  0  0
  -18.4660  -26.6610   21.9610 C   0  0  0  0  0  2  0  0  0  0  0  0
  -19.2950  -28.7660   23.1640 C   0  0  0  0  0  0  0  0  0  0  0  0
  -19.0150  -30.0000   23.7900 C   0  0  0  0  0  3  0  0  0  0  0  0
  -17.6880  -30.4520   23.9270 C   0  0  0  0  0  3  0  0  0  0  0  0
  -16.6260  -29.6620   23.4550 C   0  0  0  0  0  3  0  0  0  0  0  0
  -16.8920  -28.4290   22.8330 C   0  0  0  0  0  3  0  0  0  0  0  0
  -25.8490  -32.6650   24.0070 C   0  0  0  0  0  3  0  0  0  0  0  0
  -25.5010  -34.0640   24.2930 N   0  0  0  0  0  0  0  0  0  0  0  0
  -25.8580  -35.1090   23.5340 C   0  0  0  0  0  0  0  0  0  0  0  0
  -26.5850  -34.9980   22.5430 O   0  0  0  0  0  0  0  0  0  0  0  0
  -24.8650  -34.2240   25.0600 H   0  0  0  0  0  0  0  0  0  0  0  0
  -24.1200  -36.8610   23.0560 C   0  0  0  0  0  1  0  0  0  0  0  0
  -25.3220  -36.4950   23.9400 C   0  0  0  0  0  3  0  0  0  0  0  0
  -27.3950  -37.4330   24.8620 C   0  0  0  0  0  1  0  0  0  0  0  0
  -26.3400  -37.5660   23.8610 N   0  0  0  0  0  0  0  0  0  0  0  0
  -25.9110  -38.4800   23.9730 H   0  0  0  0  0  0  0  0  0  0  0  0
  -26.3030  -31.9220   25.3210 C   0  0  1  0  0  0  0  0  0  0  0  0
  -25.1510  -31.6670   26.3210 C   0  0  0  0  0  1  0  0  0  0  0  0
  -26.9440  -30.5560   24.9840 C   0  0  0  0  0  1  0  0  0  0  0  0
  -27.3900  -32.7520   26.0450 C   0  0  0  0  0  1  0  0  0  0  0  0
  -28.4570  -20.1960   19.4300 C   0  0  0  0  0  2  0  0  0  0  0  0
  -31.2060  -14.9620   19.8030 C   0  0  0  0  0  0  0  0  0  0  0  0
  -30.8660  -12.6930   18.8810 C   0  0  0  0  0  2  0  0  0  0  0  0
  -29.8890  -12.7950   17.6910 C   0  0  0  0  0  2  0  0  0  0  0  0
  -28.4320  -12.6860   18.1840 C   0  0  0  0  0  2  0  0  0  0  0  0
  -28.1360  -13.6220   19.3900 C   0  0  0  0  0  3  0  0  0  0  0  0
  -29.2320  -13.5240   20.4710 C   0  0  0  0  0  2  0  0  0  0  0  0
  -30.5180  -13.7820   19.8120 N   0  0  0  0  0  0  0  0  0  0  0  0
  -32.3840  -15.0000   19.4300 O   0  0  0  0  0  0  0  0  0  0  0  0
  -29.7090  -18.1730   18.4380 C   0  0  0  0  0  2  0  0  0  0  0  0
  -29.2330  -18.0970   20.8390 C   0  0  0  0  0  2  0  0  0  0  0  0
  -30.7460  -17.0360   18.6310 C   0  0  0  0  0  2  0  0  0  0  0  0
  -30.2570  -16.9200   20.9910 C   0  0  0  0  0  2  0  0  0  0  0  0
  -29.5530  -19.0840   19.6750 C   0  0  0  0  0  3  0  0  0  0  0  0
  -30.4610  -16.1190   19.7640 N   0  0  0  0  0  0  0  0  0  0  0  0
  -25.8090  -14.2900   20.2380 C   0  0  0  0  0  0  0  0  0  0  0  0
  -24.7350  -13.5480   20.6540 C   0  0  0  0  0  0  0  0  0  0  0  0
  -25.1490  -12.1820   20.5850 C   0  0  0  0  0  0  0  0  0  0  0  0
  -26.8090  -13.3790   19.9420 N   0  0  0  0  0  0  0  0  0  0  0  0
  -26.4210  -12.1050   20.2120 N   0  0  0  0  0  0  0  0  0  0  0  0
  -24.3920  -10.9430   20.7990 C   0  0  0  0  0  0  0  0  0  0  0  0
  -24.7960   -9.9840   21.7550 C   0  0  0  0  0  3  0  0  0  0  0  0
  -24.0380   -8.8100   21.9550 C   0  0  0  0  0  3  0  0  0  0  0  0
  -22.8640   -8.5850   21.1970 C   0  0  0  0  0  0  0  0  0  0  0  0
  -22.4790   -9.5320   20.2310 C   0  0  0  0  0  3  0  0  0  0  0  0
  -23.2370  -10.6980   20.0310 C   0  0  0  0  0  3  0  0  0  0  0  0
  -22.0790   -7.4630   21.3060 O   0  0  0  0  0  0  0  0  0  0  0  0
  -21.9350   -6.7960   22.4960 C   0  0  0  0  0  0  0  0  0  0  0  0
  -21.4400   -7.4350   23.6530 C   0  0  0  0  0  3  0  0  0  0  0  0
  -21.2450   -6.6960   24.8360 C   0  0  0  0  0  3  0  0  0  0  0  0
  -21.5340   -5.3190   24.8610 C   0  0  0  0  0  0  0  0  0  0  0  0
  -22.0210   -4.6790   23.7090 C   0  0  0  0  0  3  0  0  0  0  0  0
  -22.2180   -5.4160   22.5280 C   0  0  0  0  0  0  0  0  0  0  0  0
  -22.6690   -4.7920   21.4140 F   0  0  0  0  0  0  0  0  0  0  0  0
  -21.3380   -4.6070   25.9960 F   0  0  0  0  0  0  0  0  0  0  0  0
  -23.3720  -14.0690   21.0060 C   0  0  0  0  0  0  0  0  0  0  0  0
  -22.6740  -13.3910   21.9110 N   0  0  0  0  0  0  0  0  0  0  0  0
  -22.9370  -15.1080   20.5110 O   0  0  0  0  0  0  0  0  0  0  0  0
  -23.0380  -12.5460   22.3250 H   0  0  0  0  0  0  0  0  0  0  0  0
  -21.7620  -13.7210   22.1940 H   0  0  0  0  0  0  0  0  0  0  0  0
  -26.0140  -15.6560   20.0660 N   0  0  0  0  0  0  0  0  0  0  0  0
  -25.2870  -16.3430   20.2240 H   0  0  0  0  0  0  0  0  0  0  0  0
  -26.8750  -16.0600   19.7200 H   0  0  0  0  0  0  0  0  0  0  0  0
  2  4  2  0
  2  6  1  0
  3  9  1  0
  3  1  2  0
  4  3  1  0
  5  1  1  0
  5 11  1  0
  6  5  2  0
  7 14  2  0
  7  8  1  0
  9 16  1  0
  9  8  1  0
 10 12  1  0
 10 13  1  0
 10  4  1  0
 13  7  1  0
 15 13  1  0
 16 18  1  0
 17 28  2  0
 18 23  1  0
 19 27  1  0
 19 29  1  0
 20 26  1  0
 20 22  1  0
 21 27  1  0
 22 23  2  0
 22 21  1  0
 24 18  2  0
 25 24  1  0
 25 20  2  0
 26 19  1  0
 27 17  1  0
 29 31  2  0
 30 29  1  0
 32 30  1  0
 33 42  2  0
 33 38  1  0
 34 30  1  0
 34 38  1  0
 35 34  1  0
 36 37  1  0
 36 35  1  0
 37 33  1  0
 38 39  2  0
 39 40  1  0
 41 40  2  0
 42 41  1  0
 43 17  1  0
 43 44  1  0
 43 53  1  0
 44 47  1  0
 45 49  1  0
 45 44  1  0
 46 45  2  0
 49 48  1  0
 51 49  1  0
 51 52  1  0
 51 50  1  0
 53 56  1  1
 53 54  1  0
 55 53  1  0
 57  6  1  0
 58 64  1  0
 59 64  1  0
 60 61  1  0
 60 59  1  0
 62 61  1  0
 62 75  1  0
 62 63  1  0
 64 63  1  0
 65 58  2  0
 66 68  1  0
 66 70  1  0
 67 69  1  0
 68 71  1  0
 70 57  1  0
 70 67  1  0
 71 58  1  0
 71 69  1  0
 72 73  2  0
 73 92  1  0
 74 73  1  0
 74 77  1  0
 75 76  1  0
 75 72  1  0
 76 74  2  0
 77 78  1  0
 78 79  2  0
 80 83  1  0
 80 79  1  0
 81 80  2  0
 82 81  1  0
 82 77  2  0
 83 84  1  0
 84 89  2  0
 84 85  1  0
 85 86  2  0
 86 87  1  0
 87 91  1  0
 88 87  2  0
 89 88  1  0
 90 89  1  0
 92 93  1  0
 93 96  1  0
 93 95  1  0
 94 92  2  0
 97 98  1  0
 97 72  1  0
 99 97  1  0
M  ISO  4   9 101  16 101  58 100  71 100
M  END
>  <TORSDO>  (59) 
F 17

>  <SCORE>  (59) 
-12.499

>  <name>  (59) 
58

>  <ligand_id>  (59) 
58

>  <original_smiles>  (59) 
[H]c1c([H])c([H])c2c(c1[H])C([H])([H])C([H])([H])C([H])([H])C2([H])N([H])C(=O)C1([H])N(C(=O)C([H])(N([H])C(=O)C([H])(N([H])C([H])([H])[H])C([H])([H])[H])C(C([H])([H])[H])(C([H])([H])[H])C([H])([H])[H])C([H])([H])c2c([H])c(OC3([H])c4c([H])c(C([H])([H])[H])c(C([H])([H])C5([H])C([H])([H])C([H])([H])N(C(=O)N6C([H])([H])C([H])([H])C([H])([H])C([H])(n7nc(-c8c([H])c([H])c(Oc9c([H])c([H])c(F)c([H])c9F)c([H])c8[H])c(C(=O)N([H])[H])c7N([H])[H])C6([H])[H])C([H])([H])C5([H])[H])c([H])c4C([H])(C([H])([H])[H])N([H])C(=O)C3([H])[H])c([H])c([H])c2C1([H])[H]

>  <smiles>  (59) 
[H]c1c([H])c([H])c2c(c1[H])C([H])([H])C([H])([H])C([H])([H])C2([H])N([H])C(=O)C1([H])N(C(=O)C([H])(N([H])C(=O)C([H])(N([H])C([H])([H])[H])C([H])([H])[H])C(C([H])([H])[H])(C([H])([H])[H])C([H])([H])[H])C([H])([H])c2c([H])c(OC3([H])c4c([H])c(C([H])([H])[H])c(C([H])([H])C5([H])C([H])([H])C([H])([H])N(C(=O)N6C([H])([H])C([H])([H])C([H])([H])C([H])(n7nc(-c8c([H])c([H])c(Oc9c([H])c([H])c(F)c([H])c9F)c([H])c8[H])c(C(=O)N([H])[H])c7N([H])[H])C6([H])[H])C([H])([H])C5([H])[H])c([H])c4C([H])(C([H])([H])[H])N([H])C(=O)C3([H])[H])c([H])c([H])c2C1([H])[H]

$$$$
59:0:0
     RDKit          3D

 94103  0  0  1  0  0  0  0  0999 V2000
  -28.2010  -19.3970   20.0560 C   0  0  0  0  0  0  0  0  0  0  0  0
  -27.7850  -21.2360   18.4950 C   0  0  0  0  0  2  0  0  0  0  0  0
  -29.4710  -19.6010   19.2460 C   0  0  0  0  0  3  0  0  0  0  0  0
  -27.1800  -20.4530   19.6800 C   0  0  0  0  0  3  0  0  0  0  0  0
  -29.3260  -21.3030   18.6760 C   0  0  1  0  0  0  0  0  0  0  0  0
  -26.7890  -21.3370   20.8800 C   0  0  0  0  0  1  0  0  0  0  0  0
  -30.0500  -21.3480   17.3180 C   0  0  0  0  0  1  0  0  0  0  0  0
  -27.9740  -18.4610   20.8730 N   0  0  0  0  0  0  0  0  0  0  0  0
  -28.7780  -17.8510   20.9600 H   0  0  0  0  0  0  0  0  0  0  0  0
  -30.6930  -16.7590   20.1360 C   0  0  0  0  0  3  0  0  0  0  0  0
  -30.9580  -16.9270   21.4590 C   0  0  0  0  0  3  0  0  0  0  0  0
  -31.2170  -18.3580   21.8740 C   0  0  0  0  0  2  0  0  0  0  0  0
  -31.5890  -19.0550   20.5650 C   0  0  0  0  0  2  0  0  0  0  0  0
  -30.7210  -18.3740   19.5010 C   0  0  0  0  0  3  0  0  0  0  0  0
  -31.2790  -15.9060   22.5500 C   0  0  0  0  0  1  0  0  0  0  0  0
  -31.2110  -15.3170   19.6290 C   0  0  0  0  0  0  0  0  0  0  0  0
  -30.9830  -12.8240   18.9710 C   0  0  0  0  0  2  0  0  0  0  0  0
  -30.0030  -12.6040   17.7930 C   0  0  0  0  0  2  0  0  0  0  0  0
  -28.5620  -12.4600   18.3030 C   0  0  0  0  0  2  0  0  0  0  0  0
  -28.2200  -13.5250   19.3750 C   0  0  0  0  0  3  0  0  0  0  0  0
  -29.3210  -13.6930   20.4410 C   0  0  0  0  0  2  0  0  0  0  0  0
  -30.5660  -14.0540   19.7430 N   0  0  0  0  0  0  0  0  0  0  0  0
  -32.3390  -15.2110   19.1260 O   0  0  0  0  0  0  0  0  0  0  0  0
  -25.9880  -14.2700   20.3580 C   0  0  0  0  0  0  0  0  0  0  0  0
  -24.8750  -13.5840   20.7550 C   0  0  0  0  0  0  0  0  0  0  0  0
  -25.1780  -12.1980   20.5740 C   0  0  0  0  0  0  0  0  0  0  0  0
  -26.9040  -13.3120   19.9620 N   0  0  0  0  0  0  0  0  0  0  0  0
  -26.4290  -12.0510   20.1520 N   0  0  0  0  0  0  0  0  0  0  0  0
  -24.3240  -11.0110   20.7250 C   0  0  0  0  0  0  0  0  0  0  0  0
  -24.6640   -9.9640   21.6100 C   0  0  0  0  0  3  0  0  0  0  0  0
  -23.8150   -8.8460   21.7550 C   0  0  0  0  0  3  0  0  0  0  0  0
  -22.6110   -8.7670   21.0160 C   0  0  0  0  0  0  0  0  0  0  0  0
  -22.2880   -9.8000   20.1220 C   0  0  0  0  0  3  0  0  0  0  0  0
  -23.1350  -10.9120   19.9750 C   0  0  0  0  0  3  0  0  0  0  0  0
  -21.7380   -7.7050   21.0740 O   0  0  0  0  0  0  0  0  0  0  0  0
  -21.5760   -6.9650   22.2170 C   0  0  0  0  0  0  0  0  0  0  0  0
  -21.1580   -7.5530   23.4300 C   0  0  0  0  0  3  0  0  0  0  0  0
  -20.9400   -6.7460   24.5650 C   0  0  0  0  0  3  0  0  0  0  0  0
  -21.1270   -5.3530   24.4870 C   0  0  0  0  0  0  0  0  0  0  0  0
  -21.5300   -4.7640   23.2760 C   0  0  0  0  0  3  0  0  0  0  0  0
  -21.7540   -5.5680   22.1440 C   0  0  0  0  0  0  0  0  0  0  0  0
  -22.1260   -4.9930   20.9750 F   0  0  0  0  0  0  0  0  0  0  0  0
  -20.9070   -4.5770   25.5750 F   0  0  0  0  0  0  0  0  0  0  0  0
  -23.5660  -14.1850   21.1800 C   0  0  0  0  0  0  0  0  0  0  0  0
  -22.8500  -13.5110   22.0720 N   0  0  0  0  0  0  0  0  0  0  0  0
  -23.1990  -15.2820   20.7580 O   0  0  0  0  0  0  0  0  0  0  0  0
  -23.1620  -12.6220   22.4360 H   0  0  0  0  0  0  0  0  0  0  0  0
  -21.9690  -13.8860   22.3940 H   0  0  0  0  0  0  0  0  0  0  0  0
  -26.2960  -15.6240   20.2780 N   0  0  0  0  0  0  0  0  0  0  0  0
  -25.6530  -16.3510   20.5650 H   0  0  0  0  0  0  0  0  0  0  0  0
  -27.2030  -15.9950   20.0160 H   0  0  0  0  0  0  0  0  0  0  0  0
  -29.5020  -22.9700   19.2750 C   0  0  0  0  0  3  0  0  0  0  0  0
  -28.6340  -24.4500   18.7850 C   0  0  0  0  0  3  0  0  0  0  0  0
  -28.7340  -26.0350   19.1260 O   0  0  0  0  0  0  0  0  0  0  0  0
  -24.7480  -31.1850   22.7950 C   0  0  0  0  0  0  0  0  0  0  0  0
  -27.6250  -27.0090   19.1660 C   0  0  0  0  0  0  0  0  0  0  0  0
  -23.6260  -29.8680   21.0430 C   0  0  0  0  0  3  0  0  0  0  0  0
  -25.1600  -28.6080   19.3940 C   0  0  0  0  0  0  0  0  0  0  0  0
  -26.1450  -30.3720   20.8400 C   0  0  0  0  0  2  0  0  0  0  0  0
  -26.3230  -29.0660   20.0240 C   0  0  0  0  0  0  0  0  0  0  0  0
  -27.5500  -28.2880   19.8900 C   0  0  0  0  0  3  0  0  0  0  0  0
  -26.4240  -26.6970   18.4900 C   0  0  0  0  0  3  0  0  0  0  0  0
  -25.2310  -27.4490   18.6060 C   0  0  0  0  0  3  0  0  0  0  0  0
  -23.8580  -29.3790   19.5880 C   0  0  0  0  0  2  0  0  0  0  0  0
  -24.8600  -30.4970   21.6140 N   0  0  0  0  0  0  0  0  0  0  0  0
  -23.6600  -31.3010   23.3810 O   0  0  0  0  0  0  0  0  0  0  0  0
  -23.0800  -28.7000   21.9060 C   0  0  0  0  0  0  0  0  0  0  0  0
  -21.7750  -28.3940   21.7810 N   0  0  0  0  0  0  0  0  0  0  0  0
  -23.8340  -28.0740   22.6530 O   0  0  0  0  0  0  0  0  0  0  0  0
  -21.2120  -28.9590   21.1610 H   0  0  0  0  0  0  0  0  0  0  0  0
  -18.5700  -26.7390   22.1780 C   0  0  0  0  0  0  0  0  0  0  0  0
  -21.0820  -27.2940   22.4610 C   0  0  0  0  0  3  0  0  0  0  0  0
  -21.3520  -25.9450   21.7530 C   0  0  0  0  0  2  0  0  0  0  0  0
  -20.2840  -25.5850   20.7160 C   0  0  0  0  0  2  0  0  0  0  0  0
  -18.9040  -25.4950   21.3720 C   0  0  0  0  0  2  0  0  0  0  0  0
  -19.5930  -27.5920   22.6750 C   0  0  0  0  0  0  0  0  0  0  0  0
  -19.2250  -28.7530   23.3890 C   0  0  0  0  0  3  0  0  0  0  0  0
  -17.8690  -29.0660   23.6080 C   0  0  0  0  0  3  0  0  0  0  0  0
  -16.8640  -28.2100   23.1240 C   0  0  0  0  0  3  0  0  0  0  0  0
  -17.2160  -27.0480   22.4160 C   0  0  0  0  0  3  0  0  0  0  0  0
  -25.9800  -31.8780   23.4540 C   0  0  0  0  0  3  0  0  0  0  0  0
  -26.5980  -31.0410   24.6410 C   0  0  1  0  0  0  0  0  0  0  0  0
  -25.5630  -30.6160   25.7090 C   0  0  0  0  0  1  0  0  0  0  0  0
  -27.2820  -29.7580   24.1180 C   0  0  0  0  0  1  0  0  0  0  0  0
  -27.6990  -31.8680   25.3480 C   0  0  0  0  0  1  0  0  0  0  0  0
  -25.5500  -33.2020   23.9340 N   0  0  0  0  0  0  0  0  0  0  0  0
  -25.7960  -34.3620   23.3100 C   0  0  0  0  0  0  0  0  0  0  0  0
  -26.4710  -34.4320   22.2790 O   0  0  0  0  0  0  0  0  0  0  0  0
  -24.9450  -33.2150   24.7420 H   0  0  0  0  0  0  0  0  0  0  0  0
  -23.9300  -36.0460   23.1530 C   0  0  0  0  0  1  0  0  0  0  0  0
  -25.1990  -35.6470   23.9210 C   0  0  0  0  0  3  0  0  0  0  0  0
  -27.2540  -36.5970   24.8740 C   0  0  0  0  0  1  0  0  0  0  0  0
  -26.1450  -36.7850   23.9430 N   0  0  0  0  0  0  0  0  0  0  0  0
  -25.6660  -37.6460   24.1930 H   0  0  0  0  0  0  0  0  0  0  0  0
  1  8  2  0
  2  5  1  0
  2  4  1  0
  3 14  1  0
  3  1  1  0
  4  1  1  0
  4  6  1  0
  5  7  1  6
  5  3  1  0
  5 52  1  0
  8  9  1  0
 10 16  1  0
 10 11  1  0
 11 12  1  0
 11 15  1  0
 13 12  1  0
 14 10  1  0
 14 13  1  0
 16 22  1  0
 17 22  1  0
 18 19  1  0
 18 17  1  0
 20 19  1  0
 20 27  1  0
 20 21  1  0
 22 21  1  0
 23 16  2  0
 24 25  2  0
 25 44  1  0
 26 29  1  0
 26 25  1  0
 27 28  1  0
 27 24  1  0
 28 26  2  0
 29 30  1  0
 30 31  2  0
 32 35  1  0
 32 31  1  0
 33 32  2  0
 34 33  1  0
 34 29  2  0
 35 36  1  0
 36 37  1  0
 37 38  2  0
 39 38  1  0
 39 43  1  0
 40 39  2  0
 41 36  2  0
 41 40  1  0
 42 41  1  0
 44 45  1  0
 45 48  1  0
 45 47  1  0
 46 44  2  0
 49 24  1  0
 49 50  1  0
 51 49  1  0
 53 54  1  0
 53 52  2  0
 54 56  1  0
 55 66  2  0
 56 61  1  0
 57 65  1  0
 57 67  1  0
 58 64  1  0
 58 60  1  0
 59 65  1  0
 60 59  1  0
 61 60  2  0
 62 63  1  0
 62 56  2  0
 63 58  2  0
 64 57  1  0
 65 55  1  0
 67 69  2  0
 68 67  1  0
 70 68  1  0
 71 80  2  0
 71 76  1  0
 72 68  1  0
 72 76  1  0
 73 72  1  0
 74 75  1  0
 74 73  1  0
 75 71  1  0
 76 77  2  0
 77 78  1  0
 79 78  2  0
 80 79  1  0
 81 55  1  0
 81 86  1  0
 81 82  1  0
 82 85  1  1
 82 83  1  0
 84 82  1  0
 86 89  1  0
 87 91  1  0
 87 86  1  0
 88 87  2  0
 91 90  1  0
 91 93  1  0
 93 94  1  0
 93 92  1  0
M  ISO  4  10 100  16 100  53 101  54 101
M  END
>  <TORSDO>  (60) 
F 19

>  <SCORE>  (60) 
-10.507

>  <name>  (60) 
59

>  <ligand_id>  (60) 
59

>  <original_smiles>  (60) 
[H]N=C1C([H])(C([H])([H])[H])C([H])([H])C(C([H])([H])[H])(C([H])([H])C([H])([H])Oc2c([H])c([H])c3c(c2[H])C([H])([H])N(C(=O)C([H])(N([H])C(=O)C([H])(N([H])C([H])([H])[H])C([H])([H])[H])C(C([H])([H])[H])(C([H])([H])[H])C([H])([H])[H])C([H])(C(=O)N([H])C2([H])c4c([H])c([H])c([H])c([H])c4C([H])([H])C([H])([H])C2([H])[H])C3([H])[H])C1([H])C1([H])C(C(=O)N2C([H])([H])C([H])([H])C([H])([H])C([H])(n3nc(-c4c([H])c([H])c(Oc5c([H])c([H])c(F)c([H])c5F)c([H])c4[H])c(C(=O)N([H])[H])c3N([H])[H])C2([H])[H])=C(C([H])([H])[H])C([H])([H])C1([H])[H]

>  <smiles>  (60) 
[H]N=C1C([H])(C([H])([H])[H])C([H])([H])C(C([H])([H])[H])(C([H])([H])C([H])([H])Oc2c([H])c([H])c3c(c2[H])C([H])([H])N(C(=O)C([H])(N([H])C(=O)C([H])(N([H])C([H])([H])[H])C([H])([H])[H])C(C([H])([H])[H])(C([H])([H])[H])C([H])([H])[H])C([H])(C(=O)N([H])C2([H])c4c([H])c([H])c([H])c([H])c4C([H])([H])C([H])([H])C2([H])[H])C3([H])[H])C1([H])C1([H])C(C(=O)N2C([H])([H])C([H])([H])C([H])([H])C([H])(n3nc(-c4c([H])c([H])c(Oc5c([H])c([H])c(F)c([H])c5F)c([H])c4[H])c(C(=O)N([H])[H])c3N([H])[H])C2([H])[H])=C(C([H])([H])[H])C([H])([H])C1([H])[H]

$$$$
60:0:0
     RDKit          3D

100109  0  0  1  0  0  0  0  0999 V2000
  -28.7140  -24.6520   19.9140 C   0  0  0  0  0  3  0  0  0  0  0  0
  -28.9470  -26.1990   21.7930 C   0  0  0  0  0  0  0  0  0  0  0  0
  -29.2140  -25.0910   22.6550 C   0  0  0  0  0  0  0  0  0  0  0  0
  -29.0980  -23.5770   20.7370 C   0  0  0  0  0  0  0  0  0  0  0  0
  -29.2760  -23.7780   22.1260 C   0  0  0  0  0  0  0  0  0  0  0  0
  -28.6140  -25.9630   20.4160 C   0  0  0  0  0  0  0  0  0  0  0  0
  -29.0880  -27.5620   22.3940 C   0  0  0  0  0  0  0  0  0  0  0  0
  -29.5210  -25.2790   24.1530 C   0  0  0  0  0  2  0  0  0  0  0  0
  -30.0880  -27.6670   23.5370 C   0  0  0  0  0  2  0  0  0  0  0  0
  -29.6470  -26.7250   24.6500 C   0  0  0  0  0  2  0  0  0  0  0  0
  -29.6460  -22.6090   23.0430 C   0  0  0  0  0  1  0  0  0  0  0  0
  -28.4620  -28.5680   22.0890 O   0  0  0  0  0  0  0  0  0  0  0  0
  -28.3450  -26.9400   19.4720 O   0  0  0  0  0  0  0  0  0  0  0  0
  -24.4850  -31.7140   22.9050 C   0  0  0  0  0  0  0  0  0  0  0  0
  -27.1340  -27.5900   19.4970 C   0  0  0  0  0  0  0  0  0  0  0  0
  -23.2360  -30.3510   21.2570 C   0  0  0  0  0  3  0  0  0  0  0  0
  -24.6650  -28.9510   19.6700 C   0  0  0  0  0  0  0  0  0  0  0  0
  -25.7180  -30.8570   20.9180 C   0  0  0  0  0  2  0  0  0  0  0  0
  -25.8250  -29.5340   20.1900 C   0  0  0  0  0  0  0  0  0  0  0  0
  -27.0610  -28.8830   20.0520 C   0  0  0  0  0  3  0  0  0  0  0  0
  -25.9650  -27.0110   18.9600 C   0  0  0  0  0  3  0  0  0  0  0  0
  -24.7300  -27.6950   19.0320 C   0  0  0  0  0  3  0  0  0  0  0  0
  -23.3860  -29.7420   19.8330 C   0  0  0  0  0  2  0  0  0  0  0  0
  -24.5020  -30.9840   21.7530 N   0  0  0  0  0  0  0  0  0  0  0  0
  -23.4270  -31.9090   23.5200 O   0  0  0  0  0  0  0  0  0  0  0  0
  -22.6860  -29.2570   22.2000 C   0  0  0  0  0  0  0  0  0  0  0  0
  -21.3660  -29.0220   22.1310 N   0  0  0  0  0  0  0  0  0  0  0  0
  -23.4380  -28.6220   22.9420 O   0  0  0  0  0  0  0  0  0  0  0  0
  -20.8180  -29.5870   21.5010 H   0  0  0  0  0  0  0  0  0  0  0  0
  -18.0770  -27.6450   22.6980 C   0  0  0  0  0  0  0  0  0  0  0  0
  -20.6290  -28.0160   22.8900 C   0  0  0  0  0  3  0  0  0  0  0  0
  -20.7810  -26.6160   22.2500 C   0  0  0  0  0  2  0  0  0  0  0  0
  -19.6580  -26.2830   21.2620 C   0  0  0  0  0  2  0  0  0  0  0  0
  -18.2940  -26.3350   21.9570 C   0  0  0  0  0  2  0  0  0  0  0  0
  -19.1740  -28.4420   23.1200 C   0  0  0  0  0  0  0  0  0  0  0  0
  -18.9170  -29.6720   23.7660 C   0  0  0  0  0  3  0  0  0  0  0  0
  -17.5970  -30.1020   23.9930 C   0  0  0  0  0  3  0  0  0  0  0  0
  -16.5160  -29.3000   23.5860 C   0  0  0  0  0  3  0  0  0  0  0  0
  -16.7560  -28.0720   22.9440 C   0  0  0  0  0  3  0  0  0  0  0  0
  -25.7810  -32.3610   23.4890 C   0  0  0  0  0  3  0  0  0  0  0  0
  -25.4320  -33.7110   23.9490 N   0  0  0  0  0  0  0  0  0  0  0  0
  -25.7470  -34.8390   23.2980 C   0  0  0  0  0  0  0  0  0  0  0  0
  -26.4300  -34.8520   22.2700 O   0  0  0  0  0  0  0  0  0  0  0  0
  -24.8310  -33.7760   24.7560 H   0  0  0  0  0  0  0  0  0  0  0  0
  -23.9890  -36.6180   23.0760 C   0  0  0  0  0  1  0  0  0  0  0  0
  -25.2180  -36.1640   23.8800 C   0  0  0  0  0  3  0  0  0  0  0  0
  -27.3100  -36.9950   24.8580 C   0  0  0  0  0  1  0  0  0  0  0  0
  -26.2300  -37.2430   23.9040 N   0  0  0  0  0  0  0  0  0  0  0  0
  -25.8000  -38.1350   24.1370 H   0  0  0  0  0  0  0  0  0  0  0  0
  -26.4220  -31.5240   24.6610 C   0  0  1  0  0  0  0  0  0  0  0  0
  -25.4230  -31.1520   25.7800 C   0  0  0  0  0  1  0  0  0  0  0  0
  -27.0230  -30.2140   24.1110 C   0  0  0  0  0  1  0  0  0  0  0  0
  -27.5910  -32.3110   25.2990 C   0  0  0  0  0  1  0  0  0  0  0  0
  -29.4720  -22.2540   20.0850 C   0  0  0  0  0  2  0  0  0  0  0  0
  -31.0130  -22.1290   20.0010 C   0  0  0  0  0  2  0  0  0  0  0  0
  -31.5160  -20.7010   20.2060 C   0  0  0  0  0  0  0  0  0  0  0  0
  -31.9660  -20.0420   19.1340 N   0  0  0  0  0  0  0  0  0  0  0  0
  -31.4700  -20.1940   21.3290 O   0  0  0  0  0  0  0  0  0  0  0  0
  -31.9790  -20.5320   18.2480 H   0  0  0  0  0  0  0  0  0  0  0  0
  -32.3150  -18.6210   19.1160 C   0  0  0  0  0  2  0  0  0  0  0  0
  -31.2440  -17.8110   18.3660 C   0  0  0  0  0  2  0  0  0  0  0  0
  -29.8340  -17.8710   18.9940 C   0  0  0  0  0  2  0  0  0  0  0  0
  -29.3400  -16.5630   19.6270 C   0  0  0  0  0  2  0  0  0  0  0  0
  -30.1300  -16.0050   20.8440 C   0  0  0  0  0  2  0  0  0  0  0  0
  -30.8970  -14.7240   20.4840 C   0  0  0  0  0  0  0  0  0  0  0  0
  -30.6250  -12.5540   19.3750 C   0  0  0  0  0  2  0  0  0  0  0  0
  -29.7100  -12.7710   18.1530 C   0  0  0  0  0  2  0  0  0  0  0  0
  -28.2240  -12.6350   18.5440 C   0  0  0  0  0  2  0  0  0  0  0  0
  -27.8560  -13.4550   19.8080 C   0  0  0  0  0  3  0  0  0  0  0  0
  -28.9010  -13.2590   20.9330 C   0  0  0  0  0  2  0  0  0  0  0  0
  -30.2390  -13.5380   20.3940 N   0  0  0  0  0  0  0  0  0  0  0  0
  -32.0600  -14.8700   20.0990 O   0  0  0  0  0  0  0  0  0  0  0  0
  -25.4400  -14.0660   20.4530 C   0  0  0  0  0  0  0  0  0  0  0  0
  -24.3680  -13.2910   20.8000 C   0  0  0  0  0  0  0  0  0  0  0  0
  -24.8400  -11.9450   20.7980 C   0  0  0  0  0  0  0  0  0  0  0  0
  -26.4980  -13.1860   20.2620 N   0  0  0  0  0  0  0  0  0  0  0  0
  -26.1380  -11.9070   20.5290 N   0  0  0  0  0  0  0  0  0  0  0  0
  -24.1220  -10.6800   20.9810 C   0  0  0  0  0  0  0  0  0  0  0  0
  -24.5190   -9.7420   21.9560 C   0  0  0  0  0  3  0  0  0  0  0  0
  -23.8020   -8.5390   22.1270 C   0  0  0  0  0  3  0  0  0  0  0  0
  -22.6720   -8.2670   21.3200 C   0  0  0  0  0  0  0  0  0  0  0  0
  -22.2930   -9.1970   20.3350 C   0  0  0  0  0  3  0  0  0  0  0  0
  -23.0120  -10.3900   20.1610 C   0  0  0  0  0  3  0  0  0  0  0  0
  -21.9300   -7.1150   21.3970 O   0  0  0  0  0  0  0  0  0  0  0  0
  -21.7920   -6.4230   22.5740 C   0  0  0  0  0  0  0  0  0  0  0  0
  -21.2400   -7.0220   23.7270 C   0  0  0  0  0  3  0  0  0  0  0  0
  -21.0440   -6.2540   24.8930 C   0  0  0  0  0  3  0  0  0  0  0  0
  -21.3960   -4.8920   24.9080 C   0  0  0  0  0  0  0  0  0  0  0  0
  -21.9470   -4.2950   23.7600 C   0  0  0  0  0  3  0  0  0  0  0  0
  -22.1380   -5.0570   22.5940 C   0  0  0  0  0  0  0  0  0  0  0  0
  -22.6460   -4.4700   21.4830 F   0  0  0  0  0  0  0  0  0  0  0  0
  -21.2060   -4.1530   26.0260 F   0  0  0  0  0  0  0  0  0  0  0  0
  -22.9610  -13.7640   21.0280 C   0  0  0  0  0  0  0  0  0  0  0  0
  -22.2190  -13.0790   21.8920 N   0  0  0  0  0  0  0  0  0  0  0  0
  -22.5240  -14.7700   20.4720 O   0  0  0  0  0  0  0  0  0  0  0  0
  -22.5870  -12.2660   22.3610 H   0  0  0  0  0  0  0  0  0  0  0  0
  -21.2740  -13.3770   22.0900 H   0  0  0  0  0  0  0  0  0  0  0  0
  -25.5930  -15.4360   20.2690 N   0  0  0  0  0  0  0  0  0  0  0  0
  -24.8140  -16.0800   20.3700 H   0  0  0  0  0  0  0  0  0  0  0  0
  -26.4450  -15.8930   19.9760 H   0  0  0  0  0  0  0  0  0  0  0  0
  1  6  2  0
  1  4  1  0
  2  7  1  0
  2  3  2  0
  3  8  1  0
  4  5  2  0
  5  3  1  0
  5 11  1  0
  6  2  1  0
  7  9  1  0
  8 10  1  0
  9 10  1  0
 12  7  2  0
 13 15  1  0
 13  6  1  0
 14 25  2  0
 15 20  1  0
 16 24  1  0
 16 26  1  0
 17 23  1  0
 17 19  1  0
 18 24  1  0
 19 18  1  0
 20 19  2  0
 21 22  1  0
 21 15  2  0
 22 17  2  0
 23 16  1  0
 24 14  1  0
 26 28  2  0
 27 26  1  0
 29 27  1  0
 30 39  2  0
 30 35  1  0
 31 27  1  0
 31 35  1  0
 32 31  1  0
 33 34  1  0
 33 32  1  0
 34 30  1  0
 35 36  2  0
 36 37  1  0
 38 37  2  0
 39 38  1  0
 40 14  1  0
 40 41  1  0
 40 50  1  0
 41 44  1  0
 42 46  1  0
 42 41  1  0
 43 42  2  0
 46 45  1  0
 46 48  1  0
 48 49  1  0
 48 47  1  0
 50 53  1  1
 50 51  1  0
 52 50  1  0
 54  4  1  0
 55 54  1  0
 55 56  1  0
 56 58  2  0
 57 56  1  0
 59 57  1  0
 60 57  1  0
 61 62  1  0
 61 60  1  0
 62 63  1  0
 63 64  1  0
 65 64  1  0
 66 71  1  0
 67 68  1  0
 67 66  1  0
 69 68  1  0
 69 76  1  0
 69 70  1  0
 71 65  1  0
 71 70  1  0
 72 65  2  0
 73 74  2  0
 74 93  1  0
 75 74  1  0
 75 78  1  0
 76 73  1  0
 76 77  1  0
 77 75  2  0
 78 79  1  0
 79 80  2  0
 81 84  1  0
 81 80  1  0
 82 81  2  0
 83 82  1  0
 83 78  2  0
 84 85  1  0
 85 90  2  0
 85 86  1  0
 86 87  2  0
 87 88  1  0
 88 92  1  0
 89 88  2  0
 90 89  1  0
 91 90  1  0
 93 94  1  0
 94 97  1  0
 94 96  1  0
 95 93  2  0
 98 99  1  0
 98 73  1  0
100 98  1  0
M  ISO  4   6 101  13 101  64 100  65 100
M  END
>  <TORSDO>  (61) 
F 24

>  <SCORE>  (61) 
-11.695

>  <name>  (61) 
60

>  <ligand_id>  (61) 
60

>  <original_smiles>  (61) 
[H]c1c([H])c([H])c2c(c1[H])C([H])([H])C([H])([H])C([H])([H])C2([H])N([H])C(=O)C1([H])N(C(=O)C([H])(N([H])C(=O)C([H])(N([H])C([H])([H])[H])C([H])([H])[H])C(C([H])([H])[H])(C([H])([H])[H])C([H])([H])[H])C([H])([H])c2c([H])c(Oc3c([H])c(C([H])([H])C([H])([H])C(=O)N([H])C([H])([H])C([H])([H])C([H])([H])C([H])([H])C([H])([H])C(=O)N4C([H])([H])C([H])([H])C([H])([H])C([H])(n5nc(-c6c([H])c([H])c(Oc7c([H])c([H])c(F)c([H])c7F)c([H])c6[H])c(C(=O)N([H])[H])c5N([H])[H])C4([H])[H])c(C([H])([H])[H])c4c3C(=O)C([H])([H])C([H])([H])C4([H])[H])c([H])c([H])c2C1([H])[H]

>  <smiles>  (61) 
[H]c1c([H])c([H])c2c(c1[H])C([H])([H])C([H])([H])C([H])([H])C2([H])N([H])C(=O)C1([H])N(C(=O)C([H])(N([H])C(=O)C([H])(N([H])C([H])([H])[H])C([H])([H])[H])C(C([H])([H])[H])(C([H])([H])[H])C([H])([H])[H])C([H])([H])c2c([H])c(Oc3c([H])c(C([H])([H])C([H])([H])C(=O)N([H])C([H])([H])C([H])([H])C([H])([H])C([H])([H])C([H])([H])C(=O)N4C([H])([H])C([H])([H])C([H])([H])C([H])(n5nc(-c6c([H])c([H])c(Oc7c([H])c([H])c(F)c([H])c7F)c([H])c6[H])c(C(=O)N([H])[H])c5N([H])[H])C4([H])[H])c(C([H])([H])[H])c4c3C(=O)C([H])([H])C([H])([H])C4([H])[H])c([H])c([H])c2C1([H])[H]

$$$$
61:0:0
     RDKit          3D

100110  0  0  1  0  0  0  0  0999 V2000
  -28.4330  -23.9510   20.3420 C   0  0  0  0  0  3  0  0  0  0  0  0
  -30.1040  -24.0240   18.1510 C   0  0  0  0  0  3  0  0  0  0  0  0
  -28.9520  -22.6670   19.8570 C   0  0  0  0  0  0  0  0  0  0  0  0
  -29.6220  -25.2580   18.6610 C   0  0  0  0  0  0  0  0  0  0  0  0
  -29.7660  -22.7610   18.6940 C   0  0  0  0  0  0  0  0  0  0  0  0
  -28.7230  -25.2630   19.7590 C   0  0  0  0  0  0  0  0  0  0  0  0
  -30.2550  -21.5400   17.9190 C   0  0  0  0  0  1  0  0  0  0  0  0
  -31.8910  -28.4410   18.4040 C   0  0  0  0  0  2  0  0  0  0  0  0
  -32.2400  -28.3920   16.9070 C   0  0  0  0  0  2  0  0  0  0  0  0
  -31.3610  -27.0850   18.8980 C   0  0  0  0  0  2  0  0  0  0  0  0
  -31.0250  -27.9480   16.0790 C   0  0  0  0  0  2  0  0  0  0  0  0
  -30.1420  -26.5930   18.0870 C   0  0  0  0  0  3  0  0  0  0  0  0
  -30.4750  -26.5940   16.5670 C   0  0  0  0  0  3  0  0  0  0  0  0
  -29.3760  -26.3050   15.8690 F   0  0  0  0  0  0  0  0  0  0  0  0
  -28.4680  -21.2900   20.4540 C   0  0  0  0  0  0  0  0  0  0  0  0
  -27.2970  -21.2580   20.8380 O   0  0  0  0  0  0  0  0  0  0  0  0
  -30.7370  -19.7890   21.1230 C   0  0  0  0  0  2  0  0  0  0  0  0
  -31.0780  -18.2620   21.1930 C   0  0  0  0  0  2  0  0  0  0  0  0
  -28.9930  -18.5130   19.9380 C   0  0  0  0  0  2  0  0  0  0  0  0
  -29.2540  -19.8840   20.7160 C   0  0  0  0  0  3  0  0  0  0  0  0
  -30.2130  -17.4940   20.1620 C   0  0  0  0  0  3  0  0  0  0  0  0
  -30.7570  -14.9060   20.3400 C   0  0  0  0  0  0  0  0  0  0  0  0
  -30.6170  -12.6140   19.3650 C   0  0  0  0  0  2  0  0  0  0  0  0
  -29.6690  -12.6530   18.1460 C   0  0  0  0  0  2  0  0  0  0  0  0
  -28.2030  -12.4630   18.5830 C   0  0  0  0  0  2  0  0  0  0  0  0
  -27.8180  -13.3570   19.7910 C   0  0  0  0  0  3  0  0  0  0  0  0
  -28.8800  -13.2920   20.9110 C   0  0  0  0  0  2  0  0  0  0  0  0
  -30.1670  -13.6610   20.3120 N   0  0  0  0  0  0  0  0  0  0  0  0
  -31.9390  -15.0260   20.0040 O   0  0  0  0  0  0  0  0  0  0  0  0
  -29.9490  -16.0230   20.5140 N   0  0  0  0  0  0  0  0  0  0  0  0
  -29.0010  -15.8060   20.7890 H   0  0  0  0  0  0  0  0  0  0  0  0
  -25.4280  -13.9210   20.5400 C   0  0  0  0  0  0  0  0  0  0  0  0
  -24.3710  -13.1350   20.9080 C   0  0  0  0  0  0  0  0  0  0  0  0
  -24.8420  -11.7890   20.8570 C   0  0  0  0  0  0  0  0  0  0  0  0
  -26.4770  -13.0530   20.2840 N   0  0  0  0  0  0  0  0  0  0  0  0
  -26.1320  -11.7640   20.5380 N   0  0  0  0  0  0  0  0  0  0  0  0
  -24.1260  -10.5190   21.0330 C   0  0  0  0  0  0  0  0  0  0  0  0
  -24.5390   -9.5620   21.9860 C   0  0  0  0  0  3  0  0  0  0  0  0
  -23.8230   -8.3570   22.1470 C   0  0  0  0  0  3  0  0  0  0  0  0
  -22.6780   -8.1000   21.3580 C   0  0  0  0  0  0  0  0  0  0  0  0
  -22.2820   -9.0450   20.3940 C   0  0  0  0  0  3  0  0  0  0  0  0
  -22.9990  -10.2420   20.2300 C   0  0  0  0  0  3  0  0  0  0  0  0
  -21.9330   -6.9480   21.4310 O   0  0  0  0  0  0  0  0  0  0  0  0
  -21.8180   -6.2370   22.5980 C   0  0  0  0  0  0  0  0  0  0  0  0
  -21.2630   -6.8060   23.7640 C   0  0  0  0  0  3  0  0  0  0  0  0
  -21.0990   -6.0200   24.9230 C   0  0  0  0  0  3  0  0  0  0  0  0
  -21.4810   -4.6650   24.9140 C   0  0  0  0  0  0  0  0  0  0  0  0
  -22.0300   -4.0950   23.7520 C   0  0  0  0  0  3  0  0  0  0  0  0
  -22.1950   -4.8780   22.5960 C   0  0  0  0  0  0  0  0  0  0  0  0
  -22.7040   -4.3180   21.4720 F   0  0  0  0  0  0  0  0  0  0  0  0
  -21.3180   -3.9080   26.0240 F   0  0  0  0  0  0  0  0  0  0  0  0
  -22.9700  -13.6010   21.1940 C   0  0  0  0  0  0  0  0  0  0  0  0
  -22.2490  -12.8880   22.0500 N   0  0  0  0  0  0  0  0  0  0  0  0
  -22.5270  -14.6320   20.6910 O   0  0  0  0  0  0  0  0  0  0  0  0
  -22.6180  -12.0530   22.4820 H   0  0  0  0  0  0  0  0  0  0  0  0
  -21.3100  -13.1850   22.2820 H   0  0  0  0  0  0  0  0  0  0  0  0
  -25.5820  -15.2950   20.3780 N   0  0  0  0  0  0  0  0  0  0  0  0
  -24.8060  -15.9380   20.4910 H   0  0  0  0  0  0  0  0  0  0  0  0
  -26.4040  -15.7360   19.9900 H   0  0  0  0  0  0  0  0  0  0  0  0
  -28.4220  -26.5430   20.3300 O   0  0  0  0  0  0  0  0  0  0  0  0
  -24.6150  -31.9400   23.2440 C   0  0  0  0  0  0  0  0  0  0  0  0
  -27.2750  -27.3650   20.1970 C   0  0  0  0  0  0  0  0  0  0  0  0
  -23.4190  -30.5250   21.6090 C   0  0  0  0  0  3  0  0  0  0  0  0
  -24.8820  -28.9700   20.1770 C   0  0  0  0  0  0  0  0  0  0  0  0
  -25.9540  -30.8590   21.4140 C   0  0  0  0  0  2  0  0  0  0  0  0
  -26.0450  -29.4720   20.7730 C   0  0  0  0  0  0  0  0  0  0  0  0
  -27.2340  -28.6810   20.7700 C   0  0  0  0  0  3  0  0  0  0  0  0
  -26.0910  -26.9150   19.5740 C   0  0  0  0  0  3  0  0  0  0  0  0
  -24.9140  -27.7010   19.5650 C   0  0  0  0  0  3  0  0  0  0  0  0
  -23.6320  -29.8340   20.2350 C   0  0  0  0  0  2  0  0  0  0  0  0
  -24.6840  -31.1300   22.1470 N   0  0  0  0  0  0  0  0  0  0  0  0
  -23.5300  -32.2130   23.7810 O   0  0  0  0  0  0  0  0  0  0  0  0
  -22.7640  -29.5190   22.5820 C   0  0  0  0  0  0  0  0  0  0  0  0
  -21.4400  -29.3210   22.4480 N   0  0  0  0  0  0  0  0  0  0  0  0
  -23.4450  -28.9160   23.4170 O   0  0  0  0  0  0  0  0  0  0  0  0
  -20.9530  -29.8460   21.7340 H   0  0  0  0  0  0  0  0  0  0  0  0
  -18.0790  -28.0720   22.9430 C   0  0  0  0  0  0  0  0  0  0  0  0
  -20.6310  -28.3800   23.2250 C   0  0  0  0  0  3  0  0  0  0  0  0
  -20.7610  -26.9460   22.6620 C   0  0  0  0  0  2  0  0  0  0  0  0
  -19.6690  -26.5960   21.6470 C   0  0  0  0  0  2  0  0  0  0  0  0
  -18.2810  -26.7230   22.2790 C   0  0  0  0  0  2  0  0  0  0  0  0
  -19.1820  -28.8570   23.3750 C   0  0  0  0  0  0  0  0  0  0  0  0
  -18.9360  -30.1190   23.9620 C   0  0  0  0  0  3  0  0  0  0  0  0
  -17.6220  -30.5960   24.1150 C   0  0  0  0  0  3  0  0  0  0  0  0
  -16.5330  -29.8100   23.6970 C   0  0  0  0  0  3  0  0  0  0  0  0
  -16.7610  -28.5490   23.1180 C   0  0  0  0  0  3  0  0  0  0  0  0
  -25.8940  -32.5840   23.8650 C   0  0  0  0  0  3  0  0  0  0  0  0
  -25.5790  -33.9850   24.1800 N   0  0  0  0  0  0  0  0  0  0  0  0
  -25.9210  -35.0340   23.4210 C   0  0  0  0  0  0  0  0  0  0  0  0
  -26.6080  -34.9230   22.4000 O   0  0  0  0  0  0  0  0  0  0  0  0
  -24.9640  -34.1440   24.9640 H   0  0  0  0  0  0  0  0  0  0  0  0
  -24.2100  -36.8340   23.0160 C   0  0  0  0  0  1  0  0  0  0  0  0
  -25.4280  -36.4260   23.8600 C   0  0  0  0  0  3  0  0  0  0  0  0
  -27.5430  -37.3050   24.7520 C   0  0  0  0  0  1  0  0  0  0  0  0
  -26.4700  -37.4740   23.7740 N   0  0  0  0  0  0  0  0  0  0  0  0
  -26.0630  -38.3960   23.9040 H   0  0  0  0  0  0  0  0  0  0  0  0
  -26.4040  -31.8300   25.1550 C   0  0  1  0  0  0  0  0  0  0  0  0
  -25.3010  -31.6020   26.2140 C   0  0  0  0  0  1  0  0  0  0  0  0
  -26.9980  -30.4490   24.7900 C   0  0  0  0  0  1  0  0  0  0  0  0
  -27.5470  -32.6390   25.8180 C   0  0  0  0  0  1  0  0  0  0  0  0
  2  4  2  0
  2  5  1  0
  3  1  1  0
  3 15  1  0
  4  6  1  0
  5  3  2  0
  6 60  1  0
  6  1  2  0
  7  5  1  0
  8 10  1  0
  9  8  1  0
 11 13  1  0
 11  9  1  0
 12  4  1  0
 12 10  1  0
 13 14  1  0
 13 12  1  0
 15 16  2  0
 17 18  1  0
 19 21  1  0
 19 20  1  0
 20 15  1  0
 20 17  1  0
 21 30  1  0
 21 18  1  0
 22 30  1  0
 23 28  1  0
 24 25  1  0
 24 23  1  0
 26 25  1  0
 26 35  1  0
 26 27  1  0
 28 22  1  0
 28 27  1  0
 29 22  2  0
 30 31  1  0
 32 33  2  0
 33 52  1  0
 34 33  1  0
 34 37  1  0
 35 36  1  0
 35 32  1  0
 36 34  2  0
 37 38  1  0
 38 39  2  0
 40 43  1  0
 40 39  1  0
 41 40  2  0
 42 41  1  0
 42 37  2  0
 43 44  1  0
 44 45  1  0
 45 46  2  0
 47 46  1  0
 47 51  1  0
 48 47  2  0
 49 44  2  0
 49 48  1  0
 50 49  1  0
 52 53  1  0
 53 56  1  0
 53 55  1  0
 54 52  2  0
 57 58  1  0
 57 32  1  0
 59 57  1  0
 61 72  2  0
 62 60  1  0
 62 67  1  0
 63 71  1  0
 63 73  1  0
 64 70  1  0
 64 66  1  0
 65 71  1  0
 66 65  1  0
 67 66  2  0
 68 62  2  0
 69 68  1  0
 69 64  2  0
 70 63  1  0
 71 61  1  0
 73 75  2  0
 74 73  1  0
 76 74  1  0
 77 86  2  0
 77 82  1  0
 78 74  1  0
 78 82  1  0
 79 78  1  0
 80 81  1  0
 80 79  1  0
 81 77  1  0
 82 83  2  0
 83 84  1  0
 85 84  2  0
 86 85  1  0
 87 61  1  0
 87 88  1  0
 87 97  1  0
 88 91  1  0
 89 93  1  0
 89 88  1  0
 90 89  2  0
 93 92  1  0
 95 93  1  0
 95 96  1  0
 95 94  1  0
 97100  1  1
 97 98  1  0
 99 97  1  0
M  ISO  4   6 101  22 100  30 100  60 101
M  END
>  <TORSDO>  (62) 
F 19

>  <SCORE>  (62) 
-14.364

>  <name>  (62) 
61

>  <ligand_id>  (62) 
61

>  <original_smiles>  (62) 
[H]c1c([H])c([H])c2c(c1[H])C([H])([H])C([H])([H])C([H])([H])C2([H])N([H])C(=O)C1([H])N(C(=O)C([H])(N([H])C(=O)C([H])(N([H])C([H])([H])[H])C([H])([H])[H])C(C([H])([H])[H])(C([H])([H])[H])C([H])([H])[H])C([H])([H])c2c([H])c(Oc3c([H])c(C(=O)C4([H])C([H])([H])C([H])([H])C([H])(N([H])C(=O)N5C([H])([H])C([H])([H])C([H])([H])C([H])(n6nc(-c7c([H])c([H])c(Oc8c([H])c([H])c(F)c([H])c8F)c([H])c7[H])c(C(=O)N([H])[H])c6N([H])[H])C5([H])[H])C4([H])[H])c(C([H])([H])[H])c([H])c3C3([H])C([H])([H])C([H])([H])C([H])([H])C([H])([H])C3([H])F)c([H])c([H])c2C1([H])[H]

>  <smiles>  (62) 
[H]c1c([H])c([H])c2c(c1[H])C([H])([H])C([H])([H])C([H])([H])C2([H])N([H])C(=O)C1([H])N(C(=O)C([H])(N([H])C(=O)C([H])(N([H])C([H])([H])[H])C([H])([H])[H])C(C([H])([H])[H])(C([H])([H])[H])C([H])([H])[H])C([H])([H])c2c([H])c(Oc3c([H])c(C(=O)C4([H])C([H])([H])C([H])([H])C([H])(N([H])C(=O)N5C([H])([H])C([H])([H])C([H])([H])C([H])(n6nc(-c7c([H])c([H])c(Oc8c([H])c([H])c(F)c([H])c8F)c([H])c7[H])c(C(=O)N([H])[H])c6N([H])[H])C5([H])[H])C4([H])[H])c(C([H])([H])[H])c([H])c3C3([H])C([H])([H])C([H])([H])C([H])([H])C([H])([H])C3([H])F)c([H])c([H])c2C1([H])[H]

$$$$
62:0:0
     RDKit          3D

 92101  0  0  1  0  0  0  0  0999 V2000
  -28.7420  -19.2140   20.1970 C   0  0  0  0  0  3  0  0  0  0  0  0
  -31.0330  -20.2590   21.1930 C   0  0  0  0  0  3  0  0  0  0  0  0
  -28.8310  -20.7190   20.3350 C   0  0  0  0  0  0  0  0  0  0  0  0
  -30.0270  -21.2320   20.8910 C   0  0  0  0  0  0  0  0  0  0  0  0
  -30.9410  -18.8240   21.0200 C   0  0  0  0  0  0  0  0  0  0  0  0
  -29.7800  -18.1680   20.4890 C   0  0  0  0  0  0  0  0  0  0  0  0
  -27.6700  -21.7810   20.0730 C   0  0  0  0  0  0  0  0  0  0  0  0
  -30.3160  -22.7750   21.1720 C   0  0  0  0  0  2  0  0  0  0  0  0
  -27.7440  -23.3580   19.5560 C   0  0  0  0  0  2  0  0  0  0  0  0
  -29.2380  -23.9430   21.4920 C   0  0  0  0  0  2  0  0  0  0  0  0
  -28.4620  -24.6400   20.2950 C   0  0  0  0  0  3  0  0  0  0  0  0
  -32.1430  -18.0150   21.4820 C   0  0  0  0  0  1  0  0  0  0  0  0
  -26.5170  -21.3680   20.2170 O   0  0  0  0  0  0  0  0  0  0  0  0
  -30.4390  -15.3690   20.1680 C   0  0  0  0  0  0  0  0  0  0  0  0
  -30.3740  -12.9800   19.1920 C   0  0  0  0  0  2  0  0  0  0  0  0
  -29.3990  -12.8370   17.9980 C   0  0  0  0  0  2  0  0  0  0  0  0
  -27.9710  -12.5470   18.4920 C   0  0  0  0  0  2  0  0  0  0  0  0
  -27.5660  -13.4760   19.6640 C   0  0  0  0  0  3  0  0  0  0  0  0
  -28.6570  -13.5710   20.7520 C   0  0  0  0  0  2  0  0  0  0  0  0
  -29.8720  -14.0770   20.0930 N   0  0  0  0  0  0  0  0  0  0  0  0
  -31.6370  -15.4040   19.8620 O   0  0  0  0  0  0  0  0  0  0  0  0
  -29.6330  -16.5810   20.3510 N   0  0  0  0  0  0  0  0  0  0  0  0
  -28.6640  -16.3070   20.3870 H   0  0  0  0  0  0  0  0  0  0  0  0
  -25.2210  -14.0010   20.5170 C   0  0  0  0  0  0  0  0  0  0  0  0
  -24.1830  -13.2040   20.9130 C   0  0  0  0  0  0  0  0  0  0  0  0
  -24.6570  -11.8590   20.8260 C   0  0  0  0  0  0  0  0  0  0  0  0
  -26.2600  -13.1400   20.2100 N   0  0  0  0  0  0  0  0  0  0  0  0
  -25.9350  -11.8460   20.4640 N   0  0  0  0  0  0  0  0  0  0  0  0
  -23.9480  -10.5870   21.0120 C   0  0  0  0  0  0  0  0  0  0  0  0
  -24.4050   -9.6140   21.9270 C   0  0  0  0  0  3  0  0  0  0  0  0
  -23.6950   -8.4060   22.1010 C   0  0  0  0  0  3  0  0  0  0  0  0
  -22.5140   -8.1660   21.3610 C   0  0  0  0  0  0  0  0  0  0  0  0
  -22.0770   -9.1270   20.4340 C   0  0  0  0  0  3  0  0  0  0  0  0
  -22.7860  -10.3260   20.2570 C   0  0  0  0  0  3  0  0  0  0  0  0
  -21.7720   -7.0120   21.4480 O   0  0  0  0  0  0  0  0  0  0  0  0
  -21.7190   -6.2750   22.6030 C   0  0  0  0  0  0  0  0  0  0  0  0
  -21.2250   -6.8150   23.8100 C   0  0  0  0  0  3  0  0  0  0  0  0
  -21.1240   -6.0010   24.9570 C   0  0  0  0  0  3  0  0  0  0  0  0
  -21.5060   -4.6480   24.8960 C   0  0  0  0  0  0  0  0  0  0  0  0
  -21.9950   -4.1070   23.6930 C   0  0  0  0  0  3  0  0  0  0  0  0
  -22.0980   -4.9180   22.5500 C   0  0  0  0  0  0  0  0  0  0  0  0
  -22.5490   -4.3870   21.3870 F   0  0  0  0  0  0  0  0  0  0  0  0
  -21.4030   -3.8620   25.9940 F   0  0  0  0  0  0  0  0  0  0  0  0
  -22.7940  -13.6630   21.2500 C   0  0  0  0  0  0  0  0  0  0  0  0
  -22.1070  -12.9420   22.1280 N   0  0  0  0  0  0  0  0  0  0  0  0
  -22.3270  -14.6960   20.7710 O   0  0  0  0  0  0  0  0  0  0  0  0
  -22.4980  -12.1050   22.5330 H   0  0  0  0  0  0  0  0  0  0  0  0
  -21.1770  -13.2330   22.4010 H   0  0  0  0  0  0  0  0  0  0  0  0
  -25.3550  -15.3760   20.3610 N   0  0  0  0  0  0  0  0  0  0  0  0
  -24.5560  -15.9930   20.4700 H   0  0  0  0  0  0  0  0  0  0  0  0
  -26.1370  -15.8210   19.8940 H   0  0  0  0  0  0  0  0  0  0  0  0
  -28.2720  -26.2570   20.2640 O   0  0  0  0  0  0  0  0  0  0  0  0
  -24.6220  -32.0010   23.2800 C   0  0  0  0  0  0  0  0  0  0  0  0
  -27.1630  -27.2170   20.2350 C   0  0  0  0  0  0  0  0  0  0  0  0
  -23.4130  -30.6280   21.6310 C   0  0  0  0  0  3  0  0  0  0  0  0
  -24.8460  -29.0340   20.1930 C   0  0  0  0  0  0  0  0  0  0  0  0
  -25.9660  -30.8660   21.4530 C   0  0  0  0  0  2  0  0  0  0  0  0
  -26.0300  -29.4640   20.8010 C   0  0  0  0  0  0  0  0  0  0  0  0
  -27.1830  -28.5770   20.7910 C   0  0  0  0  0  3  0  0  0  0  0  0
  -25.9450  -26.9040   19.5910 C   0  0  0  0  0  3  0  0  0  0  0  0
  -24.8210  -27.7730   19.5720 C   0  0  0  0  0  3  0  0  0  0  0  0
  -23.6290  -29.9550   20.2460 C   0  0  0  0  0  2  0  0  0  0  0  0
  -24.6880  -31.1910   22.1770 N   0  0  0  0  0  0  0  0  0  0  0  0
  -23.5390  -32.2820   23.8150 O   0  0  0  0  0  0  0  0  0  0  0  0
  -22.7270  -29.6220   22.5910 C   0  0  0  0  0  0  0  0  0  0  0  0
  -21.3990  -29.4470   22.4610 N   0  0  0  0  0  0  0  0  0  0  0  0
  -23.3960  -28.9980   23.4180 O   0  0  0  0  0  0  0  0  0  0  0  0
  -20.9100  -30.0000   21.7700 H   0  0  0  0  0  0  0  0  0  0  0  0
  -18.0240  -28.2110   22.9410 C   0  0  0  0  0  0  0  0  0  0  0  0
  -20.5810  -28.5010   23.2250 C   0  0  0  0  0  3  0  0  0  0  0  0
  -20.7030  -27.0720   22.6470 C   0  0  0  0  0  2  0  0  0  0  0  0
  -19.6120  -26.7380   21.6270 C   0  0  0  0  0  2  0  0  0  0  0  0
  -18.2230  -26.8680   22.2580 C   0  0  0  0  0  2  0  0  0  0  0  0
  -19.1330  -28.9840   23.3800 C   0  0  0  0  0  0  0  0  0  0  0  0
  -18.8970  -30.2390   23.9810 C   0  0  0  0  0  3  0  0  0  0  0  0
  -17.5860  -30.7240   24.1470 C   0  0  0  0  0  3  0  0  0  0  0  0
  -16.4920  -29.9530   23.7190 C   0  0  0  0  0  3  0  0  0  0  0  0
  -16.7110  -28.6980   23.1240 C   0  0  0  0  0  3  0  0  0  0  0  0
  -25.9030  -32.6300   23.9120 C   0  0  0  0  0  3  0  0  0  0  0  0
  -25.6070  -34.0360   24.2350 N   0  0  0  0  0  0  0  0  0  0  0  0
  -25.9220  -35.0840   23.4630 C   0  0  0  0  0  0  0  0  0  0  0  0
  -26.5580  -34.9680   22.4110 O   0  0  0  0  0  0  0  0  0  0  0  0
  -25.0510  -34.2000   25.0620 H   0  0  0  0  0  0  0  0  0  0  0  0
  -24.1840  -36.8780   23.1760 C   0  0  0  0  0  1  0  0  0  0  0  0
  -25.4630  -36.4790   23.9300 C   0  0  0  0  0  3  0  0  0  0  0  0
  -27.6310  -37.3810   24.6500 C   0  0  0  0  0  1  0  0  0  0  0  0
  -26.4890  -37.5300   23.7510 N   0  0  0  0  0  0  0  0  0  0  0  0
  -26.0880  -38.4510   23.9020 H   0  0  0  0  0  0  0  0  0  0  0  0
  -26.3930  -31.8670   25.2040 C   0  0  1  0  0  0  0  0  0  0  0  0
  -25.2830  -31.6600   26.2600 C   0  0  0  0  0  1  0  0  0  0  0  0
  -26.9630  -30.4800   24.8310 C   0  0  0  0  0  1  0  0  0  0  0  0
  -27.5490  -32.6500   25.8710 C   0  0  0  0  0  1  0  0  0  0  0  0
  1  3  2  0
  1  6  1  0
  3  4  1  0
  4  8  1  0
  4  2  2  0
  5  2  1  0
  5 12  1  0
  6  5  2  0
  7 13  2  0
  7  3  1  0
  8 10  1  0
  9  7  1  0
  9 11  1  0
 11 52  1  0
 11 10  1  0
 14 22  1  0
 15 20  1  0
 16 17  1  0
 16 15  1  0
 18 17  1  0
 18 27  1  0
 18 19  1  0
 20 14  1  0
 20 19  1  0
 21 14  2  0
 22 23  1  0
 22  6  1  0
 24 25  2  0
 25 44  1  0
 26 25  1  0
 26 29  1  0
 27 28  1  0
 27 24  1  0
 28 26  2  0
 29 30  1  0
 30 31  2  0
 32 35  1  0
 32 31  1  0
 33 32  2  0
 34 33  1  0
 34 29  2  0
 35 36  1  0
 36 37  1  0
 37 38  2  0
 39 38  1  0
 39 43  1  0
 40 39  2  0
 41 36  2  0
 41 40  1  0
 42 41  1  0
 44 45  1  0
 45 48  1  0
 45 47  1  0
 46 44  2  0
 49 50  1  0
 49 24  1  0
 51 49  1  0
 53 64  2  0
 54 52  1  0
 54 59  1  0
 55 63  1  0
 55 65  1  0
 56 62  1  0
 56 58  1  0
 57 63  1  0
 58 57  1  0
 59 58  2  0
 60 54  2  0
 61 60  1  0
 61 56  2  0
 62 55  1  0
 63 53  1  0
 65 67  2  0
 66 65  1  0
 68 66  1  0
 69 78  2  0
 69 74  1  0
 70 66  1  0
 70 74  1  0
 71 70  1  0
 72 73  1  0
 72 71  1  0
 73 69  1  0
 74 75  2  0
 75 76  1  0
 77 76  2  0
 78 77  1  0
 79 53  1  0
 79 80  1  0
 79 89  1  0
 80 83  1  0
 81 85  1  0
 81 80  1  0
 82 81  2  0
 85 84  1  0
 87 88  1  0
 87 85  1  0
 87 86  1  0
 89 92  1  1
 89 90  1  0
 91 89  1  0
M  ISO  4  11 101  14 100  22 100  52 101
M  END
>  <TORSDO>  (63) 
F 16

>  <SCORE>  (63) 
-14.880

>  <name>  (63) 
62

>  <ligand_id>  (63) 
62

>  <original_smiles>  (63) 
[H]c1c([H])c([H])c2c(c1[H])C([H])([H])C([H])([H])C([H])([H])C2([H])N([H])C(=O)C1([H])N(C(=O)C([H])(N([H])C(=O)C([H])(N([H])C([H])([H])[H])C([H])([H])[H])C(C([H])([H])[H])(C([H])([H])[H])C([H])([H])[H])C([H])([H])c2c([H])c(OC3([H])C([H])([H])C(=O)c4c([H])c(N([H])C(=O)N5C([H])([H])C([H])([H])C([H])([H])C([H])(n6nc(-c7c([H])c([H])c(Oc8c([H])c([H])c(F)c([H])c8F)c([H])c7[H])c(C(=O)N([H])[H])c6N([H])[H])C5([H])[H])c(C([H])([H])[H])c([H])c4C([H])([H])C3([H])[H])c([H])c([H])c2C1([H])[H]

>  <smiles>  (63) 
[H]c1c([H])c([H])c2c(c1[H])C([H])([H])C([H])([H])C([H])([H])C2([H])N([H])C(=O)C1([H])N(C(=O)C([H])(N([H])C(=O)C([H])(N([H])C([H])([H])[H])C([H])([H])[H])C(C([H])([H])[H])(C([H])([H])[H])C([H])([H])[H])C([H])([H])c2c([H])c(OC3([H])C([H])([H])C(=O)c4c([H])c(N([H])C(=O)N5C([H])([H])C([H])([H])C([H])([H])C([H])(n6nc(-c7c([H])c([H])c(Oc8c([H])c([H])c(F)c([H])c8F)c([H])c7[H])c(C(=O)N([H])[H])c6N([H])[H])C5([H])[H])c(C([H])([H])[H])c([H])c4C([H])([H])C3([H])[H])c([H])c([H])c2C1([H])[H]

$$$$
63:0:0
     RDKit          3D

100110  0  0  1  0  0  0  0  0999 V2000
  -27.0000  -19.4490   18.7010 C   0  0  0  0  0  3  0  0  0  0  0  0
  -25.0290  -18.2550   19.4320 C   0  0  0  0  0  3  0  0  0  0  0  0
  -27.8350  -18.6260   19.5150 C   0  0  0  0  0  0  0  0  0  0  0  0
  -27.2570  -17.3770   19.9850 C   0  0  0  0  0  0  0  0  0  0  0  0
  -25.6110  -19.1990   18.5820 C   0  0  0  0  0  0  0  0  0  0  0  0
  -25.8290  -17.3290   20.1230 C   0  0  0  0  0  0  0  0  0  0  0  0
  -31.5880  -19.3800   18.9870 C   0  0  0  0  0  0  0  0  0  0  0  0
  -27.9840  -15.9950   19.8370 C   0  0  0  0  0  2  0  0  0  0  0  0
  -31.6970  -18.3390   20.0950 C   0  0  0  0  0  2  0  0  0  0  0  0
  -30.1230  -19.6260   18.5900 C   0  0  0  0  0  2  0  0  0  0  0  0
  -29.9190  -16.7390   21.2580 C   0  0  0  0  0  2  0  0  0  0  0  0
  -29.0750  -15.4530   20.8130 C   0  0  0  0  0  3  0  0  0  0  0  0
  -30.2430  -17.8380   20.1590 C   0  0  0  0  0  3  0  0  0  0  0  0
  -29.3040  -19.1080   19.8190 C   0  0  2  0  0  0  0  0  0  0  0  0
  -24.7470  -19.8890   17.5320 C   0  0  0  0  0  1  0  0  0  0  0  0
  -25.0640  -16.2660   20.9120 C   0  0  0  0  0  1  0  0  0  0  0  0
  -32.5550  -19.9510   18.4770 O   0  0  0  0  0  0  0  0  0  0  0  0
  -29.8470  -14.0650   20.3940 C   0  0  0  0  0  0  0  0  0  0  0  0
  -29.8920  -11.6420   19.6770 C   0  0  0  0  0  2  0  0  0  0  0  0
  -28.9740  -11.4360   18.4490 C   0  0  0  0  0  2  0  0  0  0  0  0
  -27.5420  -11.1080   18.9050 C   0  0  0  0  0  2  0  0  0  0  0  0
  -27.0440  -12.1170   19.9670 C   0  0  0  0  0  3  0  0  0  0  0  0
  -28.0840  -12.3420   21.0980 C   0  0  0  0  0  2  0  0  0  0  0  0
  -29.3440  -12.7720   20.4770 N   0  0  0  0  0  0  0  0  0  0  0  0
  -30.9850  -14.1920   19.9280 O   0  0  0  0  0  0  0  0  0  0  0  0
  -24.6270  -12.5740   20.7030 C   0  0  0  0  0  0  0  0  0  0  0  0
  -23.6370  -11.7550   21.1520 C   0  0  0  0  0  0  0  0  0  0  0  0
  -24.1960  -10.4370   21.1710 C   0  0  0  0  0  0  0  0  0  0  0  0
  -25.7310  -11.7650   20.4890 N   0  0  0  0  0  0  0  0  0  0  0  0
  -25.4780  -10.4740   20.8290 N   0  0  0  0  0  0  0  0  0  0  0  0
  -23.5630   -9.1370   21.4270 C   0  0  0  0  0  0  0  0  0  0  0  0
  -24.1060   -8.2140   22.3480 C   0  0  0  0  0  3  0  0  0  0  0  0
  -23.4650   -6.9800   22.5820 C   0  0  0  0  0  3  0  0  0  0  0  0
  -22.2730   -6.6540   21.8900 C   0  0  0  0  0  0  0  0  0  0  0  0
  -21.7590   -7.5610   20.9490 C   0  0  0  0  0  3  0  0  0  0  0  0
  -22.3980   -8.7880   20.7130 C   0  0  0  0  0  3  0  0  0  0  0  0
  -21.5920   -5.4690   22.0350 O   0  0  0  0  0  0  0  0  0  0  0  0
  -21.6180   -4.7640   23.2120 C   0  0  0  0  0  0  0  0  0  0  0  0
  -21.2000   -5.3340   24.4350 C   0  0  0  0  0  3  0  0  0  0  0  0
  -21.1720   -4.5490   25.6050 C   0  0  0  0  0  3  0  0  0  0  0  0
  -21.5750   -3.2010   25.5560 C   0  0  0  0  0  0  0  0  0  0  0  0
  -21.9960   -2.6310   24.3420 C   0  0  0  0  0  3  0  0  0  0  0  0
  -22.0160   -3.4130   23.1740 C   0  0  0  0  0  0  0  0  0  0  0  0
  -22.3990   -2.8520   22.0010 F   0  0  0  0  0  0  0  0  0  0  0  0
  -21.5440   -2.4490   26.6810 F   0  0  0  0  0  0  0  0  0  0  0  0
  -22.2190  -12.1430   21.4520 C   0  0  0  0  0  0  0  0  0  0  0  0
  -21.5700  -11.4270   22.3610 N   0  0  0  0  0  0  0  0  0  0  0  0
  -21.6940  -13.1190   20.9090 O   0  0  0  0  0  0  0  0  0  0  0  0
  -22.0160  -10.6330   22.8040 H   0  0  0  0  0  0  0  0  0  0  0  0
  -20.6220  -11.6670   22.6140 H   0  0  0  0  0  0  0  0  0  0  0  0
  -24.6740  -13.9370   20.4210 N   0  0  0  0  0  0  0  0  0  0  0  0
  -23.8920  -14.5570   20.6050 H   0  0  0  0  0  0  0  0  0  0  0  0
  -25.4030  -14.3970   19.8920 H   0  0  0  0  0  0  0  0  0  0  0  0
  -29.3030  -20.4290   20.7840 C   0  0  0  0  0  0  0  0  0  0  0  0
  -28.7090  -21.6390   20.4180 N   0  0  0  0  0  0  0  0  0  0  0  0
  -29.9550  -20.3800   21.8270 O   0  0  0  0  0  0  0  0  0  0  0  0
  -28.1160  -21.5880   19.6010 H   0  0  0  0  0  0  0  0  0  0  0  0
  -28.9140  -23.0600   20.9730 C   0  0  0  0  0  3  0  0  0  0  0  0
  -27.8910  -24.2500   20.5550 C   0  0  0  0  0  3  0  0  0  0  0  0
  -28.1870  -25.7150   20.7690 O   0  0  0  0  0  0  0  0  0  0  0  0
  -24.6330  -31.5230   23.2940 C   0  0  0  0  0  0  0  0  0  0  0  0
  -27.1280  -26.6450   20.6160 C   0  0  0  0  0  0  0  0  0  0  0  0
  -23.4250  -30.0880   21.6920 C   0  0  0  0  0  3  0  0  0  0  0  0
  -24.8500  -28.3960   20.4040 C   0  0  0  0  0  0  0  0  0  0  0  0
  -25.9810  -30.2800   21.5800 C   0  0  0  0  0  2  0  0  0  0  0  0
  -26.0220  -28.8570   21.0170 C   0  0  0  0  0  0  0  0  0  0  0  0
  -27.1640  -27.9950   21.1070 C   0  0  0  0  0  3  0  0  0  0  0  0
  -25.9310  -26.2530   19.9710 C   0  0  0  0  0  3  0  0  0  0  0  0
  -24.8090  -27.0960   19.8750 C   0  0  0  0  0  3  0  0  0  0  0  0
  -23.6540  -29.3290   20.3590 C   0  0  0  0  0  2  0  0  0  0  0  0
  -24.6990  -30.6490   22.2460 N   0  0  0  0  0  0  0  0  0  0  0  0
  -23.5430  -31.8830   23.7640 O   0  0  0  0  0  0  0  0  0  0  0  0
  -22.6830  -29.1560   22.6810 C   0  0  0  0  0  0  0  0  0  0  0  0
  -21.3600  -29.0110   22.5000 N   0  0  0  0  0  0  0  0  0  0  0  0
  -23.2980  -28.5620   23.5680 O   0  0  0  0  0  0  0  0  0  0  0  0
  -20.9220  -29.5410   21.7630 H   0  0  0  0  0  0  0  0  0  0  0  0
  -17.9080  -28.0190   22.9650 C   0  0  0  0  0  0  0  0  0  0  0  0
  -20.4720  -28.1540   23.2870 C   0  0  0  0  0  3  0  0  0  0  0  0
  -20.5060  -26.6960   22.7780 C   0  0  0  0  0  2  0  0  0  0  0  0
  -19.4110  -26.3840   21.7520 C   0  0  0  0  0  2  0  0  0  0  0  0
  -18.0230  -26.6330   22.3510 C   0  0  0  0  0  2  0  0  0  0  0  0
  -19.0580  -28.7390   23.3850 C   0  0  0  0  0  0  0  0  0  0  0  0
  -18.8920  -30.0370   23.9140 C   0  0  0  0  0  3  0  0  0  0  0  0
  -17.6140  -30.6170   24.0210 C   0  0  0  0  0  3  0  0  0  0  0  0
  -16.4800  -29.8950   23.6100 C   0  0  0  0  0  3  0  0  0  0  0  0
  -16.6260  -28.5970   23.0900 C   0  0  0  0  0  3  0  0  0  0  0  0
  -25.9180  -32.1360   23.9280 C   0  0  0  0  0  3  0  0  0  0  0  0
  -26.3470  -31.4160   25.2640 C   0  0  1  0  0  0  0  0  0  0  0  0
  -25.1980  -31.2500   26.2870 C   0  0  0  0  0  1  0  0  0  0  0  0
  -26.9110  -30.0080   24.9650 C   0  0  0  0  0  1  0  0  0  0  0  0
  -27.4820  -32.2130   25.9480 C   0  0  0  0  0  1  0  0  0  0  0  0
  -25.6640  -33.5650   24.1650 N   0  0  0  0  0  0  0  0  0  0  0  0
  -26.0420  -34.5520   23.3420 C   0  0  0  0  0  0  0  0  0  0  0  0
  -26.7200  -34.3550   22.3300 O   0  0  0  0  0  0  0  0  0  0  0  0
  -25.0710  -33.7940   24.9500 H   0  0  0  0  0  0  0  0  0  0  0  0
  -24.3920  -36.3810   22.8470 C   0  0  0  0  0  1  0  0  0  0  0  0
  -25.6060  -35.9850   23.7010 C   0  0  0  0  0  3  0  0  0  0  0  0
  -27.7660  -36.8390   24.5010 C   0  0  0  0  0  1  0  0  0  0  0  0
  -26.6810  -36.9880   23.5350 N   0  0  0  0  0  0  0  0  0  0  0  0
  -26.3110  -37.9320   23.6140 H   0  0  0  0  0  0  0  0  0  0  0  0
  1  3  1  0
  2  6  2  0
  3 14  1  0
  3  4  2  0
  4  6  1  0
  5  1  2  0
  5  2  1  0
  6 16  1  0
  7  9  1  0
  8  4  1  0
  8 12  1  0
 10  7  1  0
 10 14  1  0
 12 18  1  0
 12 11  1  0
 13  9  1  0
 13 11  1  0
 14 13  1  0
 14 54  1  1
 15  5  1  0
 17  7  2  0
 18 24  1  0
 19 24  1  0
 20 21  1  0
 20 19  1  0
 22 21  1  0
 22 29  1  0
 22 23  1  0
 24 23  1  0
 25 18  2  0
 26 27  2  0
 27 28  1  0
 27 46  1  0
 28 31  1  0
 29 26  1  0
 29 30  1  0
 30 28  2  0
 31 32  1  0
 32 33  2  0
 34 37  1  0
 34 33  1  0
 35 34  2  0
 36 35  1  0
 36 31  2  0
 37 38  1  0
 38 39  1  0
 39 40  2  0
 41 40  1  0
 41 45  1  0
 42 41  2  0
 43 38  2  0
 43 42  1  0
 44 43  1  0
 46 47  1  0
 47 50  1  0
 47 49  1  0
 48 46  2  0
 51 52  1  0
 51 26  1  0
 53 51  1  0
 54 56  2  0
 55 54  1  0
 55 58  1  0
 57 55  1  0
 59 60  1  0
 59 58  2  0
 61 72  2  0
 62 60  1  0
 62 67  1  0
 63 71  1  0
 63 73  1  0
 64 66  1  0
 65 71  1  0
 66 67  2  0
 66 65  1  0
 68 62  2  0
 69 68  1  0
 69 64  2  0
 70 64  1  0
 70 63  1  0
 71 61  1  0
 73 75  2  0
 74 73  1  0
 76 74  1  0
 77 86  2  0
 77 82  1  0
 78 74  1  0
 78 82  1  0
 79 78  1  0
 80 81  1  0
 80 79  1  0
 81 77  1  0
 82 83  2  0
 83 84  1  0
 85 84  2  0
 86 85  1  0
 87 61  1  0
 87 92  1  0
 87 88  1  0
 88 91  1  1
 88 89  1  0
 90 88  1  0
 92 95  1  0
 93 97  1  0
 93 92  1  0
 94 93  2  0
 97 96  1  0
 99100  1  0
 99 97  1  0
 99 98  1  0
M  ISO  4  12 100  18 100  59 101  60 101
M  END
>  <TORSDO>  (64) 
F 19

>  <SCORE>  (64) 
-8.251

>  <name>  (64) 
63

>  <ligand_id>  (64) 
63

>  <original_smiles>  (64) 
[H]c1c([H])c([H])c2c(c1[H])C([H])([H])C([H])([H])C([H])([H])C2([H])N([H])C(=O)C1([H])N(C(=O)C([H])(N([H])C(=O)C([H])(N([H])C([H])([H])[H])C([H])([H])[H])C(C([H])([H])[H])(C([H])([H])[H])C([H])([H])[H])C([H])([H])c2c([H])c(OC([H])([H])C([H])([H])N([H])C(=O)C34c5c([H])c(C([H])([H])[H])c([H])c(C([H])([H])[H])c5C([H])([H])C([H])(C(=O)N5C([H])([H])C([H])([H])C([H])([H])C([H])(n6nc(-c7c([H])c([H])c(Oc8c([H])c([H])c(F)c([H])c8F)c([H])c7[H])c(C(=O)N([H])[H])c6N([H])[H])C5([H])[H])C([H])([H])C3([H])C([H])([H])C(=O)C4([H])[H])c([H])c([H])c2C1([H])[H]

>  <smiles>  (64) 
[H]c1c([H])c([H])c2c(c1[H])C([H])([H])C([H])([H])C([H])([H])C2([H])N([H])C(=O)C1([H])N(C(=O)C([H])(N([H])C(=O)C([H])(N([H])C([H])([H])[H])C([H])([H])[H])C(C([H])([H])[H])(C([H])([H])[H])C([H])([H])[H])C([H])([H])c2c([H])c(OC([H])([H])C([H])([H])N([H])C(=O)C34c5c([H])c(C([H])([H])[H])c([H])c(C([H])([H])[H])c5C([H])([H])C([H])(C(=O)N5C([H])([H])C([H])([H])C([H])([H])C([H])(n6nc(-c7c([H])c([H])c(Oc8c([H])c([H])c(F)c([H])c8F)c([H])c7[H])c(C(=O)N([H])[H])c6N([H])[H])C5([H])[H])C([H])([H])C3([H])C([H])([H])C(=O)C4([H])[H])c([H])c([H])c2C1([H])[H]

$$$$
64:0:0
     RDKit          3D

 94104  0  0  1  0  0  0  0  0999 V2000
  -28.4600  -22.0560   19.2710 C   0  0  0  0  0  2  0  0  0  0  0  0
  -28.1360  -23.5710   19.1870 C   0  0  0  0  0  2  0  0  0  0  0  0
  -29.4310  -23.1030   21.1730 C   0  0  0  0  0  2  0  0  0  0  0  0
  -29.6720  -21.9000   20.2080 C   0  0  0  0  0  3  0  0  0  0  0  0
  -28.9810  -24.2810   20.2640 C   0  0  0  0  0  3  0  0  0  0  0  0
  -30.6930  -14.5510   20.1130 C   0  0  0  0  0  0  0  0  0  0  0  0
  -30.3120  -12.3970   18.9480 C   0  0  0  0  0  2  0  0  0  0  0  0
  -29.3040  -12.5970   17.7970 C   0  0  0  0  0  2  0  0  0  0  0  0
  -27.8600  -12.4450   18.3100 C   0  0  0  0  0  2  0  0  0  0  0  0
  -27.5930  -13.2730   19.5950 C   0  0  0  0  0  3  0  0  0  0  0  0
  -28.7090  -13.0690   20.6420 C   0  0  0  0  0  2  0  0  0  0  0  0
  -29.9930  -13.3830   19.9970 N   0  0  0  0  0  0  0  0  0  0  0  0
  -31.8060  -14.6880   19.5910 O   0  0  0  0  0  0  0  0  0  0  0  0
  -29.3570  -19.3030   20.1380 C   0  0  0  0  0  3  0  0  0  0  0  0
  -31.2540  -18.8860   22.1870 C   0  0  0  0  0  3  0  0  0  0  0  0
  -29.7280  -17.9900   20.5440 C   0  0  0  0  0  0  0  0  0  0  0  0
  -29.9570  -20.4530   20.7560 C   0  0  0  0  0  0  0  0  0  0  0  0
  -30.6380  -17.7970   21.5550 C   0  0  0  0  0  0  0  0  0  0  0  0
  -30.9370  -20.2070   21.7750 C   0  0  0  0  0  0  0  0  0  0  0  0
  -29.3170  -16.6250   20.0030 C   0  0  0  0  0  3  0  0  0  0  0  0
  -30.8670  -16.3240   21.7990 C   0  0  0  0  0  3  0  0  0  0  0  0
  -31.7280  -21.3250   22.4320 C   0  0  0  0  0  1  0  0  0  0  0  0
  -30.0950  -15.5930   20.7620 N   0  0  0  0  0  0  0  0  0  0  0  0
  -25.2470  -13.8750   20.4520 C   0  0  0  0  0  0  0  0  0  0  0  0
  -24.1980  -13.0980   20.8630 C   0  0  0  0  0  0  0  0  0  0  0  0
  -24.6490  -11.7460   20.7790 C   0  0  0  0  0  0  0  0  0  0  0  0
  -26.2730  -12.9930   20.1460 N   0  0  0  0  0  0  0  0  0  0  0  0
  -25.9210  -11.7080   20.4030 N   0  0  0  0  0  0  0  0  0  0  0  0
  -23.9280  -10.4830   20.9810 C   0  0  0  0  0  0  0  0  0  0  0  0
  -24.3830   -9.5120   21.8990 C   0  0  0  0  0  3  0  0  0  0  0  0
  -23.6600   -8.3150   22.0900 C   0  0  0  0  0  3  0  0  0  0  0  0
  -22.4680   -8.0820   21.3630 C   0  0  0  0  0  0  0  0  0  0  0  0
  -22.0340   -9.0420   20.4320 C   0  0  0  0  0  3  0  0  0  0  0  0
  -22.7570  -10.2310   20.2390 C   0  0  0  0  0  3  0  0  0  0  0  0
  -21.7150   -6.9360   21.4630 O   0  0  0  0  0  0  0  0  0  0  0  0
  -21.6690   -6.2050   22.6220 C   0  0  0  0  0  0  0  0  0  0  0  0
  -21.2030   -6.7610   23.8350 C   0  0  0  0  0  3  0  0  0  0  0  0
  -21.1060   -5.9530   24.9870 C   0  0  0  0  0  3  0  0  0  0  0  0
  -21.4640   -4.5930   24.9270 C   0  0  0  0  0  0  0  0  0  0  0  0
  -21.9230   -4.0380   23.7190 C   0  0  0  0  0  3  0  0  0  0  0  0
  -22.0210   -4.8420   22.5700 C   0  0  0  0  0  0  0  0  0  0  0  0
  -22.4440   -4.2980   21.4030 F   0  0  0  0  0  0  0  0  0  0  0  0
  -21.3640   -3.8160   26.0310 F   0  0  0  0  0  0  0  0  0  0  0  0
  -22.8200  -13.5770   21.2210 C   0  0  0  0  0  0  0  0  0  0  0  0
  -22.1360  -12.8650   22.1100 N   0  0  0  0  0  0  0  0  0  0  0  0
  -22.3610  -14.6160   20.7470 O   0  0  0  0  0  0  0  0  0  0  0  0
  -22.5240  -12.0250   22.5130 H   0  0  0  0  0  0  0  0  0  0  0  0
  -21.2130  -13.1640   22.3910 H   0  0  0  0  0  0  0  0  0  0  0  0
  -25.4030  -15.2480   20.2900 N   0  0  0  0  0  0  0  0  0  0  0  0
  -24.6370  -15.8950   20.4420 H   0  0  0  0  0  0  0  0  0  0  0  0
  -26.2220  -15.6900   19.8930 H   0  0  0  0  0  0  0  0  0  0  0  0
  -28.2530  -25.3560   20.9660 N   0  0  0  0  0  0  0  0  0  0  0  0
  -28.6670  -25.5010   21.8810 H   0  0  0  0  0  0  0  0  0  0  0  0
  -28.4840  -26.6210   20.2440 O   0  0  0  0  0  0  0  0  0  0  0  0
  -24.6140  -31.8700   23.2420 C   0  0  0  0  0  0  0  0  0  0  0  0
  -27.3430  -27.4050   20.2370 C   0  0  0  0  0  0  0  0  0  0  0  0
  -23.4540  -30.4580   21.5740 C   0  0  0  0  0  3  0  0  0  0  0  0
  -24.9520  -28.9280   20.1790 C   0  0  0  0  0  0  0  0  0  0  0  0
  -25.9860  -30.8200   21.4400 C   0  0  0  0  0  2  0  0  0  0  0  0
  -26.0940  -29.4470   20.8060 C   0  0  0  0  0  0  0  0  0  0  0  0
  -27.2930  -28.6890   20.8380 C   0  0  0  0  0  3  0  0  0  0  0  0
  -26.1900  -26.9160   19.5940 C   0  0  0  0  0  3  0  0  0  0  0  0
  -24.9960  -27.6620   19.5700 C   0  0  0  0  0  3  0  0  0  0  0  0
  -23.7010  -29.7820   20.1990 C   0  0  0  0  0  2  0  0  0  0  0  0
  -24.7010  -31.0670   22.1410 N   0  0  0  0  0  0  0  0  0  0  0  0
  -23.5180  -32.1330   23.7580 O   0  0  0  0  0  0  0  0  0  0  0  0
  -22.7910  -29.4300   22.5220 C   0  0  0  0  0  0  0  0  0  0  0  0
  -21.4670  -29.2550   22.3850 N   0  0  0  0  0  0  0  0  0  0  0  0
  -23.4660  -28.7960   23.3370 O   0  0  0  0  0  0  0  0  0  0  0  0
  -20.9850  -29.8220   21.7020 H   0  0  0  0  0  0  0  0  0  0  0  0
  -18.0800  -28.0910   22.8710 C   0  0  0  0  0  0  0  0  0  0  0  0
  -20.6410  -28.3150   23.1430 C   0  0  0  0  0  3  0  0  0  0  0  0
  -20.7250  -26.8920   22.5460 C   0  0  0  0  0  2  0  0  0  0  0  0
  -19.6180  -26.6000   21.5270 C   0  0  0  0  0  2  0  0  0  0  0  0
  -18.2380  -26.7520   22.1700 C   0  0  0  0  0  2  0  0  0  0  0  0
  -19.2080  -28.8330   23.3120 C   0  0  0  0  0  0  0  0  0  0  0  0
  -19.0050  -30.0890   23.9230 C   0  0  0  0  0  3  0  0  0  0  0  0
  -17.7060  -30.6030   24.1000 C   0  0  0  0  0  3  0  0  0  0  0  0
  -16.5930  -29.8570   23.6770 C   0  0  0  0  0  3  0  0  0  0  0  0
  -16.7810  -28.6050   23.0670 C   0  0  0  0  0  3  0  0  0  0  0  0
  -25.8810  -32.5120   23.8870 C   0  0  0  0  0  3  0  0  0  0  0  0
  -25.5550  -33.9110   24.2020 N   0  0  0  0  0  0  0  0  0  0  0  0
  -25.8920  -34.9600   23.4420 C   0  0  0  0  0  0  0  0  0  0  0  0
  -26.5800  -34.8550   22.4240 O   0  0  0  0  0  0  0  0  0  0  0  0
  -24.9520  -34.0670   24.9970 H   0  0  0  0  0  0  0  0  0  0  0  0
  -24.1610  -36.7390   23.0400 C   0  0  0  0  0  1  0  0  0  0  0  0
  -25.3840  -36.3470   23.8840 C   0  0  0  0  0  3  0  0  0  0  0  0
  -27.4900  -37.2510   24.7660 C   0  0  0  0  0  1  0  0  0  0  0  0
  -26.4120  -37.4070   23.7920 N   0  0  0  0  0  0  0  0  0  0  0  0
  -25.9950  -38.3250   23.9220 H   0  0  0  0  0  0  0  0  0  0  0  0
  -26.3750  -31.7530   25.1790 C   0  0  1  0  0  0  0  0  0  0  0  0
  -25.2580  -31.5080   26.2220 C   0  0  0  0  0  1  0  0  0  0  0  0
  -26.9790  -30.3800   24.8050 C   0  0  0  0  0  1  0  0  0  0  0  0
  -27.5020  -32.5630   25.8620 C   0  0  0  0  0  1  0  0  0  0  0  0
  1  4  1  0
  2  1  1  0
  2  5  1  0
  4 17  1  0
  4  3  1  0
  5 52  1  0
  5  3  1  0
  6 23  1  0
  7 12  1  0
  8  9  1  0
  8  7  1  0
 10  9  1  0
 10 27  1  0
 10 11  1  0
 12  6  1  0
 12 11  1  0
 13  6  2  0
 14 16  1  0
 14 17  2  0
 16 18  1  0
 17 19  1  0
 18 21  2  0
 18 15  1  0
 19 15  2  0
 19 22  1  0
 20 16  2  0
 20 23  1  0
 23 21  1  0
 24 25  2  0
 25 44  1  0
 26 25  1  0
 26 29  1  0
 27 28  1  0
 27 24  1  0
 28 26  2  0
 29 30  1  0
 30 31  2  0
 32 35  1  0
 32 31  1  0
 33 32  2  0
 34 33  1  0
 34 29  2  0
 35 36  1  0
 36 37  1  0
 37 38  2  0
 39 38  1  0
 39 43  1  0
 40 39  2  0
 41 36  2  0
 41 40  1  0
 42 41  1  0
 44 45  1  0
 45 48  1  0
 45 47  1  0
 46 44  2  0
 49 50  1  0
 49 24  1  0
 51 49  1  0
 52 53  1  0
 54 52  1  0
 55 66  2  0
 56 54  1  0
 56 61  1  0
 57 65  1  0
 57 67  1  0
 58 64  1  0
 58 60  1  0
 59 65  1  0
 60 61  2  0
 60 59  1  0
 62 56  2  0
 63 62  1  0
 63 58  2  0
 64 57  1  0
 65 55  1  0
 67 69  2  0
 68 67  1  0
 70 68  1  0
 71 80  2  0
 71 76  1  0
 72 68  1  0
 72 76  1  0
 73 72  1  0
 74 75  1  0
 74 73  1  0
 75 71  1  0
 76 77  2  0
 77 78  1  0
 79 78  2  0
 80 79  1  0
 81 55  1  0
 81 82  1  0
 81 91  1  0
 82 85  1  0
 83 87  1  0
 83 82  1  0
 84 83  2  0
 87 86  1  0
 89 87  1  0
 89 90  1  0
 89 88  1  0
 91 94  1  1
 91 92  1  0
 93 91  1  0
M  ISO  4   6 100  23 100  52 101  54 101
M  END
>  <TORSDO>  (65) 
F 17

>  <SCORE>  (65) 
-15.657

>  <name>  (65) 
64

>  <ligand_id>  (65) 
64

>  <original_smiles>  (65) 
[H]c1c([H])c([H])c2c(c1[H])C([H])([H])C([H])([H])C([H])([H])C2([H])N([H])C(=O)C1([H])N(C(=O)C([H])(N([H])C(=O)C([H])(N([H])C([H])([H])[H])C([H])([H])[H])C(C([H])([H])[H])(C([H])([H])[H])C([H])([H])[H])C([H])([H])c2c([H])c(ON([H])C3([H])C([H])([H])C([H])([H])C([H])(c4c([H])c5c(c([H])c4C([H])([H])[H])C([H])([H])N(C(=O)N4C([H])([H])C([H])([H])C([H])([H])C([H])(n6nc(-c7c([H])c([H])c(Oc8c([H])c([H])c(F)c([H])c8F)c([H])c7[H])c(C(=O)N([H])[H])c6N([H])[H])C4([H])[H])C5([H])[H])C3([H])[H])c([H])c([H])c2C1([H])[H]

>  <smiles>  (65) 
[H]c1c([H])c([H])c2c(c1[H])C([H])([H])C([H])([H])C([H])([H])C2([H])N([H])C(=O)C1([H])N(C(=O)C([H])(N([H])C(=O)C([H])(N([H])C([H])([H])[H])C([H])([H])[H])C(C([H])([H])[H])(C([H])([H])[H])C([H])([H])[H])C([H])([H])c2c([H])c(ON([H])C3([H])C([H])([H])C([H])([H])C([H])(c4c([H])c5c(c([H])c4C([H])([H])[H])C([H])([H])N(C(=O)N4C([H])([H])C([H])([H])C([H])([H])C([H])(n6nc(-c7c([H])c([H])c(Oc8c([H])c([H])c(F)c([H])c8F)c([H])c7[H])c(C(=O)N([H])[H])c6N([H])[H])C4([H])[H])C5([H])[H])C3([H])[H])c([H])c([H])c2C1([H])[H]

$$$$
65:0:0
     RDKit          3D

 92101  0  0  1  0  0  0  0  0999 V2000
  -29.6310  -21.6630   20.9470 C   0  0  0  0  0  3  0  0  0  0  0  0
  -29.0200  -20.5240   20.2090 C   0  0  0  0  0  0  0  0  0  0  0  0
  -27.9880  -21.3310   19.4770 C   0  0  0  0  0  0  0  0  0  0  0  0
  -29.3290  -23.1610   20.9820 C   0  0  0  0  0  0  0  0  0  0  0  0
  -28.2900  -23.9730   20.2880 C   0  0  0  0  0  0  0  0  0  0  0  0
  -27.6590  -22.8470   19.5220 C   0  0  0  0  0  0  0  0  0  0  0  0
  -27.1850  -20.4980   18.4780 C   0  0  0  0  0  2  0  0  0  0  0  0
  -28.0190  -20.0070   17.2770 C   0  0  0  0  0  2  0  0  0  0  0  0
  -28.8300  -18.7130   17.5120 C   0  0  0  0  0  2  0  0  0  0  0  0
  -30.0570  -18.8520   18.4390 C   0  0  0  0  0  2  0  0  0  0  0  0
  -29.7180  -18.8050   19.9420 C   0  0  0  0  0  3  0  0  0  0  0  0
  -30.2900  -23.9950   21.8150 C   0  0  0  0  0  1  0  0  0  0  0  0
  -26.6630  -23.2540   18.6980 F   0  0  0  0  0  0  0  0  0  0  0  0
  -30.2510  -15.6910   20.1400 C   0  0  0  0  0  0  0  0  0  0  0  0
  -30.3270  -13.1420   19.3330 C   0  0  0  0  0  2  0  0  0  0  0  0
  -29.4160  -12.7750   18.1260 C   0  0  0  0  0  2  0  0  0  0  0  0
  -27.9970  -12.4270   18.5980 C   0  0  0  0  0  2  0  0  0  0  0  0
  -27.5160  -13.4020   19.6980 C   0  0  0  0  0  3  0  0  0  0  0  0
  -28.5700  -13.7050   20.7900 C   0  0  0  0  0  2  0  0  0  0  0  0
  -29.7300  -14.3230   20.1090 N   0  0  0  0  0  0  0  0  0  0  0  0
  -31.4720  -15.6270   19.9010 O   0  0  0  0  0  0  0  0  0  0  0  0
  -29.5050  -17.0620   20.2440 N   0  0  0  0  0  0  0  0  0  0  0  0
  -28.5390  -16.8800   20.4710 H   0  0  0  0  0  0  0  0  0  0  0  0
  -25.1790  -13.9070   20.5450 C   0  0  0  0  0  0  0  0  0  0  0  0
  -24.1370  -13.1160   20.9320 C   0  0  0  0  0  0  0  0  0  0  0  0
  -24.6130  -11.7690   20.8630 C   0  0  0  0  0  0  0  0  0  0  0  0
  -26.2190  -13.0470   20.2530 N   0  0  0  0  0  0  0  0  0  0  0  0
  -25.8960  -11.7520   20.5130 N   0  0  0  0  0  0  0  0  0  0  0  0
  -23.8950  -10.5010   21.0520 C   0  0  0  0  0  0  0  0  0  0  0  0
  -24.3500   -9.5220   21.9630 C   0  0  0  0  0  3  0  0  0  0  0  0
  -23.6290   -8.3220   22.1440 C   0  0  0  0  0  3  0  0  0  0  0  0
  -22.4380   -8.0930   21.4140 C   0  0  0  0  0  0  0  0  0  0  0  0
  -22.0030   -9.0590   20.4900 C   0  0  0  0  0  3  0  0  0  0  0  0
  -22.7250  -10.2500   20.3080 C   0  0  0  0  0  3  0  0  0  0  0  0
  -21.6850   -6.9460   21.5050 O   0  0  0  0  0  0  0  0  0  0  0  0
  -21.6570   -6.1910   22.6500 C   0  0  0  0  0  0  0  0  0  0  0  0
  -21.2370   -6.7290   23.8860 C   0  0  0  0  0  3  0  0  0  0  0  0
  -21.1570   -5.9010   25.0240 C   0  0  0  0  0  3  0  0  0  0  0  0
  -21.4880   -4.5360   24.9260 C   0  0  0  0  0  0  0  0  0  0  0  0
  -21.9010   -3.9970   23.6950 C   0  0  0  0  0  3  0  0  0  0  0  0
  -21.9820   -4.8230   22.5590 C   0  0  0  0  0  0  0  0  0  0  0  0
  -22.3610   -4.2950   21.3700 F   0  0  0  0  0  0  0  0  0  0  0  0
  -21.4050   -3.7380   26.0160 F   0  0  0  0  0  0  0  0  0  0  0  0
  -22.7460  -13.5810   21.2440 C   0  0  0  0  0  0  0  0  0  0  0  0
  -22.0440  -12.8690   22.1190 N   0  0  0  0  0  0  0  0  0  0  0  0
  -22.2910  -14.6100   20.7460 O   0  0  0  0  0  0  0  0  0  0  0  0
  -22.4310  -12.0380   22.5420 H   0  0  0  0  0  0  0  0  0  0  0  0
  -21.1070  -13.1570   22.3660 H   0  0  0  0  0  0  0  0  0  0  0  0
  -25.3240  -15.2820   20.3820 N   0  0  0  0  0  0  0  0  0  0  0  0
  -24.5420  -15.9170   20.5030 H   0  0  0  0  0  0  0  0  0  0  0  0
  -26.1360  -15.7250   19.9770 H   0  0  0  0  0  0  0  0  0  0  0  0
  -28.1830  -25.5950   20.2870 O   0  0  0  0  0  0  0  0  0  0  0  0
  -24.6580  -31.8810   23.2180 C   0  0  0  0  0  0  0  0  0  0  0  0
  -27.1600  -26.7610   20.2740 C   0  0  0  0  0  0  0  0  0  0  0  0
  -23.4610  -30.4670   21.6030 C   0  0  0  0  0  3  0  0  0  0  0  0
  -24.8940  -28.7930   20.2050 C   0  0  0  0  0  0  0  0  0  0  0  0
  -26.0370  -30.5990   21.4690 C   0  0  0  0  0  2  0  0  0  0  0  0
  -26.0910  -29.1580   20.8310 C   0  0  0  0  0  0  0  0  0  0  0  0
  -27.2060  -28.1660   20.8330 C   0  0  0  0  0  3  0  0  0  0  0  0
  -25.9290  -26.6060   19.5870 C   0  0  0  0  0  3  0  0  0  0  0  0
  -24.8500  -27.5430   19.5610 C   0  0  0  0  0  3  0  0  0  0  0  0
  -23.6910  -29.7490   20.2400 C   0  0  0  0  0  2  0  0  0  0  0  0
  -24.7430  -31.0170   22.1480 N   0  0  0  0  0  0  0  0  0  0  0  0
  -23.5690  -32.1930   23.7260 O   0  0  0  0  0  0  0  0  0  0  0  0
  -22.7450  -29.5050   22.5880 C   0  0  0  0  0  0  0  0  0  0  0  0
  -21.4130  -29.3490   22.4630 N   0  0  0  0  0  0  0  0  0  0  0  0
  -23.3990  -28.8940   23.4360 O   0  0  0  0  0  0  0  0  0  0  0  0
  -20.9350  -29.8900   21.7550 H   0  0  0  0  0  0  0  0  0  0  0  0
  -18.0280  -28.1300   22.9820 C   0  0  0  0  0  0  0  0  0  0  0  0
  -20.5850  -28.4260   23.2490 C   0  0  0  0  0  3  0  0  0  0  0  0
  -20.6980  -26.9810   22.7080 C   0  0  0  0  0  2  0  0  0  0  0  0
  -19.6050  -26.6290   21.6940 C   0  0  0  0  0  2  0  0  0  0  0  0
  -18.2190  -26.7730   22.3280 C   0  0  0  0  0  2  0  0  0  0  0  0
  -19.1370  -28.9120   23.4010 C   0  0  0  0  0  0  0  0  0  0  0  0
  -18.9010  -30.1780   23.9810 C   0  0  0  0  0  3  0  0  0  0  0  0
  -17.5900  -30.6650   24.1350 C   0  0  0  0  0  3  0  0  0  0  0  0
  -16.4950  -29.8810   23.7280 C   0  0  0  0  0  3  0  0  0  0  0  0
  -16.7160  -28.6140   23.1610 C   0  0  0  0  0  3  0  0  0  0  0  0
  -25.9250  -32.5350   23.8480 C   0  0  0  0  0  3  0  0  0  0  0  0
  -25.6040  -33.9380   24.1820 N   0  0  0  0  0  0  0  0  0  0  0  0
  -25.9170  -35.0040   23.4320 C   0  0  0  0  0  0  0  0  0  0  0  0
  -26.5650  -34.9100   22.3860 O   0  0  0  0  0  0  0  0  0  0  0  0
  -25.0270  -34.0840   24.9980 H   0  0  0  0  0  0  0  0  0  0  0  0
  -24.1680  -36.7960   23.1480 C   0  0  0  0  0  1  0  0  0  0  0  0
  -25.4390  -36.3910   23.9120 C   0  0  0  0  0  3  0  0  0  0  0  0
  -27.5960  -37.2900   24.6730 C   0  0  0  0  0  1  0  0  0  0  0  0
  -26.4620  -37.4510   23.7660 N   0  0  0  0  0  0  0  0  0  0  0  0
  -26.0580  -38.3690   23.9270 H   0  0  0  0  0  0  0  0  0  0  0  0
  -26.4310  -31.7820   25.1410 C   0  0  1  0  0  0  0  0  0  0  0  0
  -25.3330  -31.5690   26.2100 C   0  0  0  0  0  1  0  0  0  0  0  0
  -27.0080  -30.3940   24.7860 C   0  0  0  0  0  1  0  0  0  0  0  0
  -27.5850  -32.5790   25.7960 C   0  0  0  0  0  1  0  0  0  0  0  0
  1  4  1  0
  2  1  2  0
  3  6  2  0
  3  2  1  0
  4 12  1  0
  5  4  2  0
  6  5  1  0
  7  3  1  0
  8  9  1  0
  8  7  1  0
  9 10  1  0
 10 11  1  0
 11  2  1  0
 11 22  1  0
 13  6  1  0
 14 22  1  0
 15 20  1  0
 16 17  1  0
 16 15  1  0
 18 17  1  0
 18 27  1  0
 18 19  1  0
 20 14  1  0
 20 19  1  0
 21 14  2  0
 22 23  1  0
 24 25  2  0
 25 44  1  0
 26 25  1  0
 26 29  1  0
 27 28  1  0
 27 24  1  0
 28 26  2  0
 29 30  1  0
 30 31  2  0
 32 35  1  0
 32 31  1  0
 33 32  2  0
 34 33  1  0
 34 29  2  0
 35 36  1  0
 36 37  1  0
 37 38  2  0
 39 38  1  0
 39 43  1  0
 40 39  2  0
 41 36  2  0
 41 40  1  0
 42 41  1  0
 44 45  1  0
 45 48  1  0
 45 47  1  0
 46 44  2  0
 49 50  1  0
 49 24  1  0
 51 49  1  0
 52  5  1  0
 53 64  2  0
 54 52  1  0
 54 59  1  0
 55 63  1  0
 55 65  1  0
 56 62  1  0
 56 58  1  0
 57 63  1  0
 58 59  2  0
 58 57  1  0
 60 54  2  0
 61 60  1  0
 61 56  2  0
 62 55  1  0
 63 53  1  0
 65 67  2  0
 66 65  1  0
 68 66  1  0
 69 78  2  0
 69 74  1  0
 70 66  1  0
 70 74  1  0
 71 70  1  0
 72 73  1  0
 72 71  1  0
 73 69  1  0
 74 75  2  0
 75 76  1  0
 77 76  2  0
 78 77  1  0
 79 53  1  0
 79 80  1  0
 79 89  1  0
 80 83  1  0
 81 85  1  0
 81 80  1  0
 82 81  2  0
 85 84  1  0
 87 85  1  0
 87 88  1  0
 87 86  1  0
 89 92  1  1
 89 90  1  0
 91 89  1  0
M  ISO  4   5 101  14 100  22 100  52 101
M  END
>  <TORSDO>  (66) 
F 16

>  <SCORE>  (66) 
-16.391

>  <name>  (66) 
65

>  <ligand_id>  (66) 
65

>  <original_smiles>  (66) 
[H]c1c([H])c([H])c2c(c1[H])C([H])([H])C([H])([H])C([H])([H])C2([H])N([H])C(=O)C1([H])N(C(=O)C([H])(N([H])C(=O)C([H])(N([H])C([H])([H])[H])C([H])([H])[H])C(C([H])([H])[H])(C([H])([H])[H])C([H])([H])[H])C([H])([H])c2c([H])c(Oc3c(F)c4c(c([H])c3C([H])([H])[H])C([H])(N([H])C(=O)N3C([H])([H])C([H])([H])C([H])([H])C([H])(n5nc(-c6c([H])c([H])c(Oc7c([H])c([H])c(F)c([H])c7F)c([H])c6[H])c(C(=O)N([H])[H])c5N([H])[H])C3([H])[H])C([H])([H])C([H])([H])C([H])([H])C4([H])[H])c([H])c([H])c2C1([H])[H]

>  <smiles>  (66) 
[H]c1c([H])c([H])c2c(c1[H])C([H])([H])C([H])([H])C([H])([H])C2([H])N([H])C(=O)C1([H])N(C(=O)C([H])(N([H])C(=O)C([H])(N([H])C([H])([H])[H])C([H])([H])[H])C(C([H])([H])[H])(C([H])([H])[H])C([H])([H])[H])C([H])([H])c2c([H])c(Oc3c(F)c4c(c([H])c3C([H])([H])[H])C([H])(N([H])C(=O)N3C([H])([H])C([H])([H])C([H])([H])C([H])(n5nc(-c6c([H])c([H])c(Oc7c([H])c([H])c(F)c([H])c7F)c([H])c6[H])c(C(=O)N([H])[H])c5N([H])[H])C3([H])[H])C([H])([H])C([H])([H])C([H])([H])C4([H])[H])c([H])c([H])c2C1([H])[H]

$$$$
66:0:0
     RDKit          3D

 96105  0  0  1  0  0  0  0  0999 V2000
  -30.1210  -18.4750   19.2740 C   0  0  0  0  0  3  0  0  0  0  0  0
  -30.4190  -19.8540   19.2170 C   0  0  0  0  0  3  0  0  0  0  0  0
  -29.5800  -18.6950   21.6260 C   0  0  0  0  0  3  0  0  0  0  0  0
  -29.7030  -17.8800   20.4820 C   0  0  0  0  0  0  0  0  0  0  0  0
  -30.3220  -20.6800   20.3650 C   0  0  0  0  0  0  0  0  0  0  0  0
  -29.8870  -20.0770   21.5810 C   0  0  0  0  0  0  0  0  0  0  0  0
  -29.7540  -20.8780   22.8680 C   0  0  0  0  0  1  0  0  0  0  0  0
  -31.9430  -22.4290   19.3840 C   0  0  0  0  0  1  0  0  0  0  0  0
  -30.7210  -22.1740   20.2930 C   0  0  0  0  0  3  0  0  0  0  0  0
  -29.5710  -23.0290   19.8950 N   0  0  0  0  0  4  0  0  0  0  0  0
  -29.4070  -22.8900   18.9110 H   0  0  0  0  0  0  0  0  0  0  0  0
  -28.7630  -22.6700   20.3790 H   0  0  0  0  0  0  0  0  0  0  0  0
  -29.7060  -24.4880   20.1960 C   0  0  0  0  0  2  0  0  0  0  0  0
  -28.4570  -25.3020   19.7870 C   0  0  0  0  0  2  0  0  0  0  0  0
  -28.5760  -26.7020   20.1070 O   0  0  0  0  0  0  0  0  0  0  0  0
  -24.7750  -31.8250   23.2880 C   0  0  0  0  0  0  0  0  0  0  0  0
  -27.4150  -27.4550   20.0820 C   0  0  0  0  0  0  0  0  0  0  0  0
  -23.5820  -30.5060   21.5700 C   0  0  0  0  0  3  0  0  0  0  0  0
  -25.0440  -29.0100   20.1110 C   0  0  0  0  0  0  0  0  0  0  0  0
  -26.1190  -30.8330   21.4360 C   0  0  0  0  0  2  0  0  0  0  0  0
  -26.1980  -29.4870   20.7420 C   0  0  0  0  0  0  0  0  0  0  0  0
  -27.3860  -28.7180   20.7230 C   0  0  0  0  0  3  0  0  0  0  0  0
  -26.2350  -27.0020   19.4420 C   0  0  0  0  0  3  0  0  0  0  0  0
  -25.0570  -27.7670   19.4600 C   0  0  0  0  0  3  0  0  0  0  0  0
  -23.8110  -29.8820   20.1680 C   0  0  0  0  0  2  0  0  0  0  0  0
  -24.8430  -31.0660   22.1570 N   0  0  0  0  0  0  0  0  0  0  0  0
  -23.6860  -32.0900   23.8170 O   0  0  0  0  0  0  0  0  0  0  0  0
  -22.9020  -29.4530   22.4750 C   0  0  0  0  0  0  0  0  0  0  0  0
  -21.5770  -29.2930   22.3150 N   0  0  0  0  0  0  0  0  0  0  0  0
  -23.5620  -28.7860   23.2770 O   0  0  0  0  0  0  0  0  0  0  0  0
  -21.1090  -29.8850   21.6430 H   0  0  0  0  0  0  0  0  0  0  0  0
  -18.1750  -28.1390   22.7040 C   0  0  0  0  0  0  0  0  0  0  0  0
  -20.7310  -28.3380   23.0300 C   0  0  0  0  0  3  0  0  0  0  0  0
  -20.8190  -26.9310   22.3940 C   0  0  0  0  0  2  0  0  0  0  0  0
  -19.7290  -26.6730   21.3480 C   0  0  0  0  0  2  0  0  0  0  0  0
  -18.3380  -26.8170   21.9740 C   0  0  0  0  0  2  0  0  0  0  0  0
  -19.2990  -28.8600   23.1860 C   0  0  0  0  0  0  0  0  0  0  0  0
  -19.0920  -30.1020   23.8260 C   0  0  0  0  0  3  0  0  0  0  0  0
  -17.7950  -30.6200   23.9910 C   0  0  0  0  0  3  0  0  0  0  0  0
  -16.6840  -29.8930   23.5270 C   0  0  0  0  0  3  0  0  0  0  0  0
  -16.8750  -28.6560   22.8880 C   0  0  0  0  0  3  0  0  0  0  0  0
  -26.0560  -32.4120   23.9560 C   0  0  0  0  0  3  0  0  0  0  0  0
  -25.7490  -33.7880   24.3680 N   0  0  0  0  0  0  0  0  0  0  0  0
  -26.0830  -34.8820   23.6710 C   0  0  0  0  0  0  0  0  0  0  0  0
  -26.7530  -34.8380   22.6360 O   0  0  0  0  0  0  0  0  0  0  0  0
  -25.1570  -33.8980   25.1770 H   0  0  0  0  0  0  0  0  0  0  0  0
  -24.3560  -36.6910   23.4180 C   0  0  0  0  0  1  0  0  0  0  0  0
  -25.5940  -36.2410   24.2080 C   0  0  0  0  0  3  0  0  0  0  0  0
  -27.7240  -37.0710   25.0990 C   0  0  0  0  0  1  0  0  0  0  0  0
  -26.6280  -37.2980   24.1630 N   0  0  0  0  0  0  0  0  0  0  0  0
  -26.2220  -38.2070   24.3670 H   0  0  0  0  0  0  0  0  0  0  0  0
  -26.5620  -31.5620   25.1850 C   0  0  1  0  0  0  0  0  0  0  0  0
  -25.4580  -31.2540   26.2230 C   0  0  0  0  0  1  0  0  0  0  0  0
  -27.1530  -30.2150   24.7070 C   0  0  0  0  0  1  0  0  0  0  0  0
  -27.7060  -32.3130   25.9070 C   0  0  0  0  0  1  0  0  0  0  0  0
  -29.3540  -16.3870   20.5340 C   0  0  0  0  0  2  0  0  0  0  0  0
  -31.4950  -15.7510   22.7740 C   0  0  0  0  0  2  0  0  0  0  0  0
  -30.5150  -14.7030   22.2560 C   0  0  0  0  0  2  0  0  0  0  0  0
  -31.8880  -15.9830   21.3190 C   0  0  0  0  0  2  0  0  0  0  0  0
  -30.5130  -15.3970   20.8670 C   0  0  2  0  0  0  0  0  0  0  0  0
  -30.7230  -14.3840   19.6950 C   0  0  0  0  0  0  0  0  0  0  0  0
  -30.1310  -12.3610   18.3910 C   0  0  0  0  0  2  0  0  0  0  0  0
  -29.0580  -12.6590   17.3270 C   0  0  0  0  0  2  0  0  0  0  0  0
  -27.6500  -12.5030   17.9300 C   0  0  0  0  0  2  0  0  0  0  0  0
  -27.4920  -13.2810   19.2600 C   0  0  0  0  0  3  0  0  0  0  0  0
  -28.6680  -13.0000   20.2220 C   0  0  0  0  0  2  0  0  0  0  0  0
  -29.9330  -13.2840   19.5240 N   0  0  0  0  0  0  0  0  0  0  0  0
  -31.6530  -14.6190   18.9180 O   0  0  0  0  0  0  0  0  0  0  0  0
  -25.1870  -13.8830   20.2320 C   0  0  0  0  0  0  0  0  0  0  0  0
  -24.1720  -13.1090   20.7290 C   0  0  0  0  0  0  0  0  0  0  0  0
  -24.6370  -11.7600   20.6620 C   0  0  0  0  0  0  0  0  0  0  0  0
  -26.2040  -13.0050   19.8940 N   0  0  0  0  0  0  0  0  0  0  0  0
  -25.8850  -11.7240   20.2110 N   0  0  0  0  0  0  0  0  0  0  0  0
  -23.9460  -10.4950   20.9470 C   0  0  0  0  0  0  0  0  0  0  0  0
  -24.4490   -9.5770   21.8940 C   0  0  0  0  0  3  0  0  0  0  0  0
  -23.7580   -8.3760   22.1650 C   0  0  0  0  0  3  0  0  0  0  0  0
  -22.5500   -8.0850   21.4870 C   0  0  0  0  0  0  0  0  0  0  0  0
  -22.0650   -8.9930   20.5300 C   0  0  0  0  0  3  0  0  0  0  0  0
  -22.7570  -10.1850   20.2580 C   0  0  0  0  0  3  0  0  0  0  0  0
  -21.8230   -6.9330   21.6660 O   0  0  0  0  0  0  0  0  0  0  0  0
  -21.8050   -6.2730   22.8690 C   0  0  0  0  0  0  0  0  0  0  0  0
  -21.3860   -6.9050   24.0590 C   0  0  0  0  0  3  0  0  0  0  0  0
  -21.3160   -6.1710   25.2590 C   0  0  0  0  0  3  0  0  0  0  0  0
  -21.6550   -4.8040   25.2710 C   0  0  0  0  0  0  0  0  0  0  0  0
  -22.0670   -4.1710   24.0850 C   0  0  0  0  0  3  0  0  0  0  0  0
  -22.1390   -4.9040   22.8860 C   0  0  0  0  0  0  0  0  0  0  0  0
  -22.5170   -4.2840   21.7430 F   0  0  0  0  0  0  0  0  0  0  0  0
  -21.5810   -4.0960   26.4220 F   0  0  0  0  0  0  0  0  0  0  0  0
  -22.8100  -13.5800   21.1500 C   0  0  0  0  0  0  0  0  0  0  0  0
  -22.2070  -12.9160   22.1300 N   0  0  0  0  0  0  0  0  0  0  0  0
  -22.2930  -14.5750   20.6420 O   0  0  0  0  0  0  0  0  0  0  0  0
  -22.6400  -12.1120   22.5590 H   0  0  0  0  0  0  0  0  0  0  0  0
  -21.3000  -13.2160   22.4560 H   0  0  0  0  0  0  0  0  0  0  0  0
  -25.3190  -15.2530   20.0210 N   0  0  0  0  0  0  0  0  0  0  0  0
  -24.5570  -15.8980   20.2010 H   0  0  0  0  0  0  0  0  0  0  0  0
  -26.1150  -15.6940   19.5810 H   0  0  0  0  0  0  0  0  0  0  0  0
  1  4  1  0
  2  1  2  0
  2  5  1  0
  4 56  1  0
  4  3  2  0
  5  6  2  0
  6  3  1  0
  6  7  1  0
  9  8  1  0
  9  5  1  0
 10 13  1  0
 10  9  1  0
 10 12  1  0
 11 10  1  0
 14 15  1  0
 14 13  1  0
 16 27  2  0
 17 15  1  0
 17 22  1  0
 18 26  1  0
 18 28  1  0
 19 25  1  0
 19 21  1  0
 20 26  1  0
 21 20  1  0
 22 21  2  0
 23 24  1  0
 23 17  2  0
 24 19  2  0
 25 18  1  0
 26 16  1  0
 28 30  2  0
 29 28  1  0
 31 29  1  0
 32 41  2  0
 32 37  1  0
 33 29  1  0
 33 37  1  0
 34 33  1  0
 35 36  1  0
 35 34  1  0
 36 32  1  0
 37 38  2  0
 38 39  1  0
 40 39  2  0
 41 40  1  0
 42 16  1  0
 42 43  1  0
 42 52  1  0
 43 46  1  0
 44 48  1  0
 44 43  1  0
 45 44  2  0
 48 47  1  0
 50 48  1  0
 50 51  1  0
 50 49  1  0
 52 55  1  1
 52 53  1  0
 54 52  1  0
 60 56  1  6
 58 57  1  0
 59 57  1  0
 60 59  1  0
 60 58  1  0
 61 60  1  0
 62 67  1  0
 63 64  1  0
 63 62  1  0
 65 64  1  0
 65 72  1  0
 65 66  1  0
 67 61  1  0
 67 66  1  0
 68 61  2  0
 69 70  2  0
 70 89  1  0
 71 70  1  0
 71 74  1  0
 72 73  1  0
 72 69  1  0
 73 71  2  0
 74 75  1  0
 75 76  2  0
 77 80  1  0
 77 76  1  0
 78 77  2  0
 79 78  1  0
 79 74  2  0
 80 81  1  0
 81 86  2  0
 81 82  1  0
 82 83  2  0
 83 84  1  0
 84 88  1  0
 85 84  2  0
 86 85  1  0
 87 86  1  0
 89 90  1  0
 90 93  1  0
 90 92  1  0
 91 89  2  0
 94 95  1  0
 94 69  1  0
 96 94  1  0
M  ISO  4  14 101  15 101  60 100  61 100
M  END
>  <TORSDO>  (67) 
F 22

>  <SCORE>  (67) 
-8.640

>  <name>  (67) 
66

>  <ligand_id>  (67) 
66

>  <original_smiles>  (67) 
[H]c1c([H])c([H])c2c(c1[H])C([H])([H])C([H])([H])C([H])([H])C2([H])N([H])C(=O)C1([H])N(C(=O)C([H])(N([H])C(=O)C([H])(N([H])C([H])([H])[H])C([H])([H])[H])C(C([H])([H])[H])(C([H])([H])[H])C([H])([H])[H])C([H])([H])c2c([H])c(OC([H])([H])C([H])([H])[N+]([H])([H])C([H])(c3c([H])c([H])c(C([H])([H])C4(C(=O)N5C([H])([H])C([H])([H])C([H])([H])C([H])(n6nc(-c7c([H])c([H])c(Oc8c([H])c([H])c(F)c([H])c8F)c([H])c7[H])c(C(=O)N([H])[H])c6N([H])[H])C5([H])[H])C([H])([H])C([H])([H])C4([H])[H])c([H])c3C([H])([H])[H])C([H])([H])[H])c([H])c([H])c2C1([H])[H]

>  <smiles>  (67) 
[H]c1c([H])c([H])c2c(c1[H])C([H])([H])C([H])([H])C([H])([H])C2([H])N([H])C(=O)C1([H])N(C(=O)C([H])(N([H])C(=O)C([H])(N([H])C([H])([H])[H])C([H])([H])[H])C(C([H])([H])[H])(C([H])([H])[H])C([H])([H])[H])C([H])([H])c2c([H])c(OC([H])([H])C([H])([H])[N+]([H])([H])C([H])(c3c([H])c([H])c(C([H])([H])C4(C(=O)N5C([H])([H])C([H])([H])C([H])([H])C([H])(n6nc(-c7c([H])c([H])c(Oc8c([H])c([H])c(F)c([H])c8F)c([H])c7[H])c(C(=O)N([H])[H])c6N([H])[H])C5([H])[H])C([H])([H])C([H])([H])C4([H])[H])c([H])c3C([H])([H])[H])C([H])([H])[H])c([H])c([H])c2C1([H])[H]

$$$$
67:0:0
     RDKit          3D

 95104  0  0  1  0  0  0  0  0999 V2000
  -30.5350  -21.1810   20.7530 C   0  0  0  0  0  3  0  0  0  0  0  0
  -31.0500  -18.7090   20.7470 C   0  0  0  0  0  3  0  0  0  0  0  0
  -28.8730  -19.5450   20.1490 C   0  0  0  0  0  3  0  0  0  0  0  0
  -31.4170  -20.0730   20.9540 C   0  0  0  0  0  0  0  0  0  0  0  0
  -29.1950  -21.0600   20.3280 C   0  0  0  0  0  0  0  0  0  0  0  0
  -29.7640  -18.2850   20.3480 C   0  0  0  0  0  0  0  0  0  0  0  0
  -30.3250  -15.3920   20.1740 C   0  0  0  0  0  0  0  0  0  0  0  0
  -30.3130  -12.9450   19.2600 C   0  0  0  0  0  2  0  0  0  0  0  0
  -29.3650  -12.7140   18.0550 C   0  0  0  0  0  2  0  0  0  0  0  0
  -27.9360  -12.4110   18.5380 C   0  0  0  0  0  2  0  0  0  0  0  0
  -27.4980  -13.3730   19.6700 C   0  0  0  0  0  3  0  0  0  0  0  0
  -28.5700  -13.5390   20.7660 C   0  0  0  0  0  2  0  0  0  0  0  0
  -29.7690  -14.0770   20.1000 N   0  0  0  0  0  0  0  0  0  0  0  0
  -31.5480  -15.3830   19.9630 O   0  0  0  0  0  0  0  0  0  0  0  0
  -29.5380  -16.6680   20.2420 N   0  0  0  0  0  0  0  0  0  0  0  0
  -28.5560  -16.4390   20.2370 H   0  0  0  0  0  0  0  0  0  0  0  0
  -25.1490  -13.9170   20.4890 C   0  0  0  0  0  0  0  0  0  0  0  0
  -24.0980  -13.1340   20.8720 C   0  0  0  0  0  0  0  0  0  0  0  0
  -24.5660  -11.7850   20.8170 C   0  0  0  0  0  0  0  0  0  0  0  0
  -26.1870  -13.0470   20.2100 N   0  0  0  0  0  0  0  0  0  0  0  0
  -25.8510  -11.7580   20.4770 N   0  0  0  0  0  0  0  0  0  0  0  0
  -23.8470  -10.5200   21.0060 C   0  0  0  0  0  0  0  0  0  0  0  0
  -24.2820   -9.5540   21.9400 C   0  0  0  0  0  3  0  0  0  0  0  0
  -23.5600   -8.3540   22.1190 C   0  0  0  0  0  3  0  0  0  0  0  0
  -22.3870   -8.1120   21.3640 C   0  0  0  0  0  0  0  0  0  0  0  0
  -21.9710   -9.0670   20.4190 C   0  0  0  0  0  3  0  0  0  0  0  0
  -22.6940  -10.2580   20.2390 C   0  0  0  0  0  3  0  0  0  0  0  0
  -21.6360   -6.9650   21.4520 O   0  0  0  0  0  0  0  0  0  0  0  0
  -21.5770   -6.2310   22.6100 C   0  0  0  0  0  0  0  0  0  0  0  0
  -21.1170   -6.7880   23.8240 C   0  0  0  0  0  3  0  0  0  0  0  0
  -21.0070   -5.9810   24.9730 C   0  0  0  0  0  3  0  0  0  0  0  0
  -21.3460   -4.6160   24.9100 C   0  0  0  0  0  0  0  0  0  0  0  0
  -21.7990   -4.0570   23.7010 C   0  0  0  0  0  3  0  0  0  0  0  0
  -21.9110   -4.8630   22.5550 C   0  0  0  0  0  0  0  0  0  0  0  0
  -22.3270   -4.3160   21.3860 F   0  0  0  0  0  0  0  0  0  0  0  0
  -21.2340   -3.8370   26.0110 F   0  0  0  0  0  0  0  0  0  0  0  0
  -22.7050  -13.6060   21.1720 C   0  0  0  0  0  0  0  0  0  0  0  0
  -21.9910  -12.8980   22.0390 N   0  0  0  0  0  0  0  0  0  0  0  0
  -22.2590  -14.6380   20.6720 O   0  0  0  0  0  0  0  0  0  0  0  0
  -22.3650  -12.0630   22.4660 H   0  0  0  0  0  0  0  0  0  0  0  0
  -21.0570  -13.1980   22.2830 H   0  0  0  0  0  0  0  0  0  0  0  0
  -25.3010  -15.2910   20.3200 N   0  0  0  0  0  0  0  0  0  0  0  0
  -24.5270  -15.9350   20.4430 H   0  0  0  0  0  0  0  0  0  0  0  0
  -26.1230  -15.7310   19.9290 H   0  0  0  0  0  0  0  0  0  0  0  0
  -26.0400  -23.2840   20.7010 C   0  0  0  0  0  2  0  0  0  0  0  0
  -26.8410  -22.2450   19.8990 C   0  0  0  0  0  2  0  0  0  0  0  0
  -27.0230  -24.0550   21.5880 C   0  0  0  0  0  2  0  0  0  0  0  0
  -28.3440  -22.5810   19.9870 C   0  0  0  0  0  3  0  0  0  0  0  0
  -28.2720  -24.2500   20.7280 C   0  0  0  0  0  3  0  0  0  0  0  0
  -28.2720  -25.8750   20.2980 O   0  0  0  0  0  0  0  0  0  0  0  0
  -24.6600  -31.9040   23.2540 C   0  0  0  0  0  0  0  0  0  0  0  0
  -27.2390  -26.9660   20.3140 C   0  0  0  0  0  0  0  0  0  0  0  0
  -23.4860  -30.5030   21.6070 C   0  0  0  0  0  3  0  0  0  0  0  0
  -24.9500  -28.8760   20.2210 C   0  0  0  0  0  0  0  0  0  0  0  0
  -26.0560  -30.6920   21.5030 C   0  0  0  0  0  2  0  0  0  0  0  0
  -26.1310  -29.2730   20.8600 C   0  0  0  0  0  0  0  0  0  0  0  0
  -27.2710  -28.3420   20.8760 C   0  0  0  0  0  3  0  0  0  0  0  0
  -26.0330  -26.7380   19.6130 C   0  0  0  0  0  3  0  0  0  0  0  0
  -24.9260  -27.6270   19.5790 C   0  0  0  0  0  3  0  0  0  0  0  0
  -23.7370  -29.8070   20.2410 C   0  0  0  0  0  2  0  0  0  0  0  0
  -24.7560  -31.0610   22.1750 N   0  0  0  0  0  0  0  0  0  0  0  0
  -23.5630  -32.2050   23.7540 O   0  0  0  0  0  0  0  0  0  0  0  0
  -22.7690  -29.5200   22.5670 C   0  0  0  0  0  0  0  0  0  0  0  0
  -21.4380  -29.3720   22.4290 N   0  0  0  0  0  0  0  0  0  0  0  0
  -23.4160  -28.8900   23.4060 O   0  0  0  0  0  0  0  0  0  0  0  0
  -20.9670  -29.9340   21.7330 H   0  0  0  0  0  0  0  0  0  0  0  0
  -18.0340  -28.2190   22.9260 C   0  0  0  0  0  0  0  0  0  0  0  0
  -20.5980  -28.4440   23.1940 C   0  0  0  0  0  3  0  0  0  0  0  0
  -20.6770  -27.0140   22.6100 C   0  0  0  0  0  2  0  0  0  0  0  0
  -19.5700  -26.7160   21.5920 C   0  0  0  0  0  2  0  0  0  0  0  0
  -18.1900  -26.8730   22.2380 C   0  0  0  0  0  2  0  0  0  0  0  0
  -19.1650  -28.9620   23.3610 C   0  0  0  0  0  0  0  0  0  0  0  0
  -18.9630  -30.2190   23.9710 C   0  0  0  0  0  3  0  0  0  0  0  0
  -17.6640  -30.7340   24.1490 C   0  0  0  0  0  3  0  0  0  0  0  0
  -16.5490  -29.9880   23.7280 C   0  0  0  0  0  3  0  0  0  0  0  0
  -16.7350  -28.7330   23.1230 C   0  0  0  0  0  3  0  0  0  0  0  0
  -25.9220  -32.5450   23.9040 C   0  0  0  0  0  3  0  0  0  0  0  0
  -25.6050  -33.9490   24.2230 N   0  0  0  0  0  0  0  0  0  0  0  0
  -25.9320  -35.0030   23.4650 C   0  0  0  0  0  0  0  0  0  0  0  0
  -26.5920  -34.8990   22.4290 O   0  0  0  0  0  0  0  0  0  0  0  0
  -25.0110  -34.1050   25.0250 H   0  0  0  0  0  0  0  0  0  0  0  0
  -24.1870  -36.7950   23.1490 C   0  0  0  0  0  1  0  0  0  0  0  0
  -25.4530  -36.3950   23.9260 C   0  0  0  0  0  3  0  0  0  0  0  0
  -27.6020  -37.3060   24.6920 C   0  0  0  0  0  1  0  0  0  0  0  0
  -26.4750  -37.4540   23.7730 N   0  0  0  0  0  0  0  0  0  0  0  0
  -26.0670  -38.3730   23.9190 H   0  0  0  0  0  0  0  0  0  0  0  0
  -26.4000  -31.7880   25.2050 C   0  0  1  0  0  0  0  0  0  0  0  0
  -25.2780  -31.5710   26.2470 C   0  0  0  0  0  1  0  0  0  0  0  0
  -26.9840  -30.4000   24.8560 C   0  0  0  0  0  1  0  0  0  0  0  0
  -27.5380  -32.5850   25.8850 C   0  0  0  0  0  1  0  0  0  0  0  0
  -32.8300  -20.3520   21.3720 C   0  0  0  0  0  0  0  0  0  0  0  0
  -32.9860  -21.2800   22.3060 N   0  0  0  0  0  0  0  0  0  0  0  0
  -33.7810  -19.7210   20.9110 O   0  0  0  0  0  0  0  0  0  0  0  0
  -32.1740  -21.7390   22.6900 H   0  0  0  0  0  0  0  0  0  0  0  0
  -33.9040  -21.5110   22.6500 H   0  0  0  0  0  0  0  0  0  0  0  0
  1  4  1  0
  2  4  2  0
  3  5  1  0
  3  6  2  0
  4 91  1  0
  5  1  2  0
  6  2  1  0
  7 15  1  0
  8 13  1  0
  9 10  1  0
  9  8  1  0
 11 10  1  0
 11 20  1  0
 11 12  1  0
 13  7  1  0
 13 12  1  0
 14  7  2  0
 15  6  1  0
 16 15  1  0
 17 18  2  0
 18 37  1  0
 19 18  1  0
 19 22  1  0
 20 21  1  0
 20 17  1  0
 21 19  2  0
 22 23  1  0
 23 24  2  0
 25 28  1  0
 25 24  1  0
 26 25  2  0
 27 26  1  0
 27 22  2  0
 28 29  1  0
 29 30  1  0
 30 31  2  0
 32 31  1  0
 32 36  1  0
 33 32  2  0
 34 29  2  0
 34 33  1  0
 35 34  1  0
 37 38  1  0
 38 41  1  0
 38 40  1  0
 39 37  2  0
 42 43  1  0
 42 17  1  0
 44 42  1  0
 45 47  1  0
 46 48  1  0
 46 45  1  0
 48  5  1  0
 48 49  1  0
 49 50  1  0
 49 47  1  0
 50 52  1  0
 51 62  2  0
 52 57  1  0
 53 61  1  0
 53 63  1  0
 54 60  1  0
 54 56  1  0
 55 61  1  0
 56 57  2  0
 56 55  1  0
 58 52  2  0
 59 58  1  0
 59 54  2  0
 60 53  1  0
 61 51  1  0
 63 65  2  0
 64 63  1  0
 66 64  1  0
 67 76  2  0
 67 72  1  0
 68 64  1  0
 68 72  1  0
 69 68  1  0
 70 71  1  0
 70 69  1  0
 71 67  1  0
 72 73  2  0
 73 74  1  0
 75 74  2  0
 76 75  1  0
 77 51  1  0
 77 78  1  0
 77 87  1  0
 78 81  1  0
 79 83  1  0
 79 78  1  0
 80 79  2  0
 83 82  1  0
 85 86  1  0
 85 83  1  0
 85 84  1  0
 87 90  1  1
 87 88  1  0
 89 87  1  0
 91 92  1  0
 92 95  1  0
 92 94  1  0
 93 91  2  0
M  ISO  4   7 100  15 100  49 101  50 101
M  END
>  <TORSDO>  (68) 
F 18

>  <SCORE>  (68) 
-16.160

>  <name>  (68) 
67

>  <ligand_id>  (68) 
67

>  <original_smiles>  (68) 
[H]c1c([H])c([H])c2c(c1[H])C([H])([H])C([H])([H])C([H])([H])C2([H])N([H])C(=O)C1([H])N(C(=O)C([H])(N([H])C(=O)C([H])(N([H])C([H])([H])[H])C([H])([H])[H])C(C([H])([H])[H])(C([H])([H])[H])C([H])([H])[H])C([H])([H])c2c([H])c(OC3([H])C([H])([H])C([H])([H])C([H])([H])C3([H])c3c([H])c(C(=O)N([H])[H])c([H])c(N([H])C(=O)N4C([H])([H])C([H])([H])C([H])([H])C([H])(n5nc(-c6c([H])c([H])c(Oc7c([H])c([H])c(F)c([H])c7F)c([H])c6[H])c(C(=O)N([H])[H])c5N([H])[H])C4([H])[H])c3[H])c([H])c([H])c2C1([H])[H]

>  <smiles>  (68) 
[H]c1c([H])c([H])c2c(c1[H])C([H])([H])C([H])([H])C([H])([H])C2([H])N([H])C(=O)C1([H])N(C(=O)C([H])(N([H])C(=O)C([H])(N([H])C([H])([H])[H])C([H])([H])[H])C(C([H])([H])[H])(C([H])([H])[H])C([H])([H])[H])C([H])([H])c2c([H])c(OC3([H])C([H])([H])C([H])([H])C([H])([H])C3([H])c3c([H])c(C(=O)N([H])[H])c([H])c(N([H])C(=O)N4C([H])([H])C([H])([H])C([H])([H])C([H])(n5nc(-c6c([H])c([H])c(Oc7c([H])c([H])c(F)c([H])c7F)c([H])c6[H])c(C(=O)N([H])[H])c5N([H])[H])C4([H])[H])c3[H])c([H])c([H])c2C1([H])[H]

$$$$
68:0:0
     RDKit          3D

 88 96  0  0  1  0  0  0  0  0999 V2000
  -29.6290  -21.6460   21.0660 C   0  0  0  0  0  3  0  0  0  0  0  0
  -29.3070  -23.1390   21.0840 C   0  0  0  0  0  3  0  0  0  0  0  0
  -27.7320  -22.8180   19.5820 C   0  0  0  0  0  3  0  0  0  0  0  0
  -29.0800  -20.4850   20.3040 C   0  0  0  0  0  0  0  0  0  0  0  0
  -28.0510  -21.2970   19.5610 C   0  0  0  0  0  0  0  0  0  0  0  0
  -28.3140  -23.9710   20.3500 C   0  0  0  0  0  0  0  0  0  0  0  0
  -27.2070  -20.5000   18.5830 C   0  0  0  0  0  1  0  0  0  0  0  0
  -29.4290  -17.2500   20.1510 C   0  0  0  0  0  3  0  0  0  0  0  0
  -29.7100  -18.7580   20.3360 C   0  0  0  0  0  0  0  0  0  0  0  0
  -30.2620  -15.7360   20.1350 C   0  0  0  0  0  0  0  0  0  0  0  0
  -30.3660  -13.1830   19.3270 C   0  0  0  0  0  2  0  0  0  0  0  0
  -29.4660  -12.7830   18.1210 C   0  0  0  0  0  2  0  0  0  0  0  0
  -28.0480  -12.4200   18.5890 C   0  0  0  0  0  2  0  0  0  0  0  0
  -27.5420  -13.4170   19.6570 C   0  0  0  0  0  3  0  0  0  0  0  0
  -28.5810  -13.7390   20.7530 C   0  0  0  0  0  2  0  0  0  0  0  0
  -29.7500  -14.3620   20.0920 N   0  0  0  0  0  0  0  0  0  0  0  0
  -31.4960  -15.6410   19.9720 O   0  0  0  0  0  0  0  0  0  0  0  0
  -25.1950  -13.9210   20.4800 C   0  0  0  0  0  0  0  0  0  0  0  0
  -24.1490  -13.1290   20.8590 C   0  0  0  0  0  0  0  0  0  0  0  0
  -24.6310  -11.7840   20.8090 C   0  0  0  0  0  0  0  0  0  0  0  0
  -26.2400  -13.0620   20.2040 N   0  0  0  0  0  0  0  0  0  0  0  0
  -25.9180  -11.7680   20.4720 N   0  0  0  0  0  0  0  0  0  0  0  0
  -23.9170  -10.5130   21.0000 C   0  0  0  0  0  0  0  0  0  0  0  0
  -24.3540   -9.5500   21.9350 C   0  0  0  0  0  3  0  0  0  0  0  0
  -23.6330   -8.3490   22.1170 C   0  0  0  0  0  3  0  0  0  0  0  0
  -22.4620   -8.1030   21.3630 C   0  0  0  0  0  0  0  0  0  0  0  0
  -22.0440   -9.0540   20.4170 C   0  0  0  0  0  3  0  0  0  0  0  0
  -22.7650  -10.2460   20.2320 C   0  0  0  0  0  3  0  0  0  0  0  0
  -21.7150   -6.9530   21.4540 O   0  0  0  0  0  0  0  0  0  0  0  0
  -21.6520   -6.2240   22.6140 C   0  0  0  0  0  0  0  0  0  0  0  0
  -21.1840   -6.7850   23.8220 C   0  0  0  0  0  3  0  0  0  0  0  0
  -21.0700   -5.9810   24.9740 C   0  0  0  0  0  3  0  0  0  0  0  0
  -21.4140   -4.6170   24.9180 C   0  0  0  0  0  0  0  0  0  0  0  0
  -21.8750   -4.0550   23.7150 C   0  0  0  0  0  3  0  0  0  0  0  0
  -21.9900   -4.8560   22.5650 C   0  0  0  0  0  0  0  0  0  0  0  0
  -22.4130   -4.3040   21.4030 F   0  0  0  0  0  0  0  0  0  0  0  0
  -21.2980   -3.8430   26.0240 F   0  0  0  0  0  0  0  0  0  0  0  0
  -22.7520  -13.5920   21.1480 C   0  0  0  0  0  0  0  0  0  0  0  0
  -22.0430  -12.8920   22.0250 N   0  0  0  0  0  0  0  0  0  0  0  0
  -22.2970  -14.6120   20.6320 O   0  0  0  0  0  0  0  0  0  0  0  0
  -22.4250  -12.0680   22.4680 H   0  0  0  0  0  0  0  0  0  0  0  0
  -21.1070  -13.1860   22.2630 H   0  0  0  0  0  0  0  0  0  0  0  0
  -25.3390  -15.2960   20.3120 N   0  0  0  0  0  0  0  0  0  0  0  0
  -24.5670  -15.9400   20.4500 H   0  0  0  0  0  0  0  0  0  0  0  0
  -26.1790  -15.7500   19.9760 H   0  0  0  0  0  0  0  0  0  0  0  0
  -31.0030  -18.9290   20.6260 O   0  0  0  0  0  0  0  0  0  0  0  0
  -31.1470  -19.8610   20.7300 H   0  0  0  0  0  0  0  0  0  0  0  0
  -28.2100  -25.5980   20.3390 O   0  0  0  0  0  0  0  0  0  0  0  0
  -24.6720  -31.8900   23.2670 C   0  0  0  0  0  0  0  0  0  0  0  0
  -27.1930  -26.7760   20.3190 C   0  0  0  0  0  0  0  0  0  0  0  0
  -23.4890  -30.4920   21.6270 C   0  0  0  0  0  3  0  0  0  0  0  0
  -24.9340  -28.8250   20.2330 C   0  0  0  0  0  0  0  0  0  0  0  0
  -26.0680  -30.6160   21.5260 C   0  0  0  0  0  2  0  0  0  0  0  0
  -26.1250  -29.1770   20.8790 C   0  0  0  0  0  0  0  0  0  0  0  0
  -27.2340  -28.1790   20.8910 C   0  0  0  0  0  3  0  0  0  0  0  0
  -25.9720  -26.6380   19.6100 C   0  0  0  0  0  3  0  0  0  0  0  0
  -24.8960  -27.5810   19.5770 C   0  0  0  0  0  3  0  0  0  0  0  0
  -23.7350  -29.7860   20.2610 C   0  0  0  0  0  2  0  0  0  0  0  0
  -24.7670  -31.0340   22.1920 N   0  0  0  0  0  0  0  0  0  0  0  0
  -23.5770  -32.1980   23.7680 O   0  0  0  0  0  0  0  0  0  0  0  0
  -22.7600  -29.5230   22.5970 C   0  0  0  0  0  0  0  0  0  0  0  0
  -21.4280  -29.3740   22.4620 N   0  0  0  0  0  0  0  0  0  0  0  0
  -23.4050  -28.9010   23.4440 O   0  0  0  0  0  0  0  0  0  0  0  0
  -20.9570  -29.9250   21.7570 H   0  0  0  0  0  0  0  0  0  0  0  0
  -18.0320  -28.1780   22.9490 C   0  0  0  0  0  0  0  0  0  0  0  0
  -20.5910  -28.4460   23.2320 C   0  0  0  0  0  3  0  0  0  0  0  0
  -20.6940  -27.0100   22.6680 C   0  0  0  0  0  2  0  0  0  0  0  0
  -19.6020  -26.6820   21.6450 C   0  0  0  0  0  2  0  0  0  0  0  0
  -18.2140  -26.8280   22.2770 C   0  0  0  0  0  2  0  0  0  0  0  0
  -19.1470  -28.9450   23.3820 C   0  0  0  0  0  0  0  0  0  0  0  0
  -18.9180  -30.2050   23.9770 C   0  0  0  0  0  3  0  0  0  0  0  0
  -17.6110  -30.7000   24.1390 C   0  0  0  0  0  3  0  0  0  0  0  0
  -16.5110  -29.9320   23.7180 C   0  0  0  0  0  3  0  0  0  0  0  0
  -16.7230  -28.6720   23.1290 C   0  0  0  0  0  3  0  0  0  0  0  0
  -25.9340  -32.5360   23.9160 C   0  0  0  0  0  3  0  0  0  0  0  0
  -25.6110  -33.9370   24.2530 N   0  0  0  0  0  0  0  0  0  0  0  0
  -25.9240  -35.0030   23.5040 C   0  0  0  0  0  0  0  0  0  0  0  0
  -26.5680  -34.9100   22.4570 O   0  0  0  0  0  0  0  0  0  0  0  0
  -25.0320  -34.0800   25.0670 H   0  0  0  0  0  0  0  0  0  0  0  0
  -24.1680  -36.7930   23.2430 C   0  0  0  0  0  1  0  0  0  0  0  0
  -25.4520  -36.3910   23.9880 C   0  0  0  0  0  3  0  0  0  0  0  0
  -27.6090  -37.3090   24.7230 C   0  0  0  0  0  1  0  0  0  0  0  0
  -26.4730  -37.4500   23.8170 N   0  0  0  0  0  0  0  0  0  0  0  0
  -26.0670  -38.3710   23.9520 H   0  0  0  0  0  0  0  0  0  0  0  0
  -26.4210  -31.7750   25.2120 C   0  0  1  0  0  0  0  0  0  0  0  0
  -25.3060  -31.5540   26.2630 C   0  0  0  0  0  1  0  0  0  0  0  0
  -27.0040  -30.3890   24.8570 C   0  0  0  0  0  1  0  0  0  0  0  0
  -27.5640  -32.5680   25.8860 C   0  0  0  0  0  1  0  0  0  0  0  0
  1  2  1  0
  3  6  1  0
  4  9  1  0
  4  1  2  0
  5  3  2  0
  5  4  1  0
  6  2  2  0
  7  5  1  0
  8  9  2  0
  9 46  1  0
 10  8  1  0
 11 16  1  0
 12 13  1  0
 12 11  1  0
 14 13  1  0
 14 21  1  0
 14 15  1  0
 16 10  1  0
 16 15  1  0
 17 10  2  0
 18 19  2  0
 19 38  1  0
 20 19  1  0
 20 23  1  0
 21 22  1  0
 21 18  1  0
 22 20  2  0
 23 24  1  0
 24 25  2  0
 26 29  1  0
 26 25  1  0
 27 26  2  0
 28 27  1  0
 28 23  2  0
 29 30  1  0
 30 31  1  0
 31 32  2  0
 33 32  1  0
 33 37  1  0
 34 33  2  0
 35 30  2  0
 35 34  1  0
 36 35  1  0
 38 39  1  0
 39 42  1  0
 39 41  1  0
 40 38  2  0
 43 44  1  0
 43 18  1  0
 45 43  1  0
 46 47  1  0
 48  6  1  0
 49 60  2  0
 50 48  1  0
 50 55  1  0
 51 59  1  0
 51 61  1  0
 52 58  1  0
 52 54  1  0
 53 59  1  0
 54 55  2  0
 54 53  1  0
 56 50  2  0
 57 56  1  0
 57 52  2  0
 58 51  1  0
 59 49  1  0
 61 63  2  0
 62 61  1  0
 64 62  1  0
 65 74  2  0
 65 70  1  0
 66 62  1  0
 66 70  1  0
 67 66  1  0
 68 69  1  0
 68 67  1  0
 69 65  1  0
 70 71  2  0
 71 72  1  0
 73 72  2  0
 74 73  1  0
 75 49  1  0
 75 76  1  0
 75 85  1  0
 76 79  1  0
 77 81  1  0
 77 76  1  0
 78 77  2  0
 81 80  1  0
 83 84  1  0
 83 81  1  0
 83 82  1  0
 85 88  1  1
 85 86  1  0
 87 85  1  0
M  ISO  4   6 101   8 100  10 100  48 101
M  END
>  <TORSDO>  (69) 
F 18

>  <SCORE>  (69) 
-15.746

>  <name>  (69) 
68

>  <ligand_id>  (69) 
68

>  <original_smiles>  (69) 
[H]OC(=C([H])C(=O)N1C([H])([H])C([H])([H])C([H])([H])C([H])(n2nc(-c3c([H])c([H])c(Oc4c([H])c([H])c(F)c([H])c4F)c([H])c3[H])c(C(=O)N([H])[H])c2N([H])[H])C1([H])[H])c1c([H])c([H])c(Oc2c([H])c([H])c3c(c2[H])C([H])([H])N(C(=O)C([H])(N([H])C(=O)C([H])(N([H])C([H])([H])[H])C([H])([H])[H])C(C([H])([H])[H])(C([H])([H])[H])C([H])([H])[H])C([H])(C(=O)N([H])C2([H])c4c([H])c([H])c([H])c([H])c4C([H])([H])C([H])([H])C2([H])[H])C3([H])[H])c([H])c1C([H])([H])[H]

>  <smiles>  (69) 
[H]OC(=C([H])C(=O)N1C([H])([H])C([H])([H])C([H])([H])C([H])(n2nc(-c3c([H])c([H])c(Oc4c([H])c([H])c(F)c([H])c4F)c([H])c3[H])c(C(=O)N([H])[H])c2N([H])[H])C1([H])[H])c1c([H])c([H])c(Oc2c([H])c([H])c3c(c2[H])C([H])([H])N(C(=O)C([H])(N([H])C(=O)C([H])(N([H])C([H])([H])[H])C([H])([H])[H])C(C([H])([H])[H])(C([H])([H])[H])C([H])([H])[H])C([H])(C(=O)N([H])C2([H])c4c([H])c([H])c([H])c([H])c4C([H])([H])C([H])([H])C2([H])[H])C3([H])[H])c([H])c1C([H])([H])[H]

$$$$
69:0:0
     RDKit          3D

 93102  0  0  1  0  0  0  0  0999 V2000
  -29.0760  -23.5620   20.0230 C   0  0  0  0  0  3  0  0  0  0  0  0
  -27.1470  -24.6200   21.0570 C   0  0  0  0  0  3  0  0  0  0  0  0
  -28.7190  -22.1230   20.4560 C   0  0  0  0  0  0  0  0  0  0  0  0
  -26.7670  -23.3340   21.4840 C   0  0  0  0  0  0  0  0  0  0  0  0
  -28.3040  -24.8750   20.2920 C   0  0  0  0  0  0  0  0  0  0  0  0
  -27.5160  -22.1640   21.2160 C   0  0  0  0  0  0  0  0  0  0  0  0
  -27.0440  -21.0410   21.8000 F   0  0  0  0  0  0  0  0  0  0  0  0
  -31.0650  -15.7240   19.9010 C   0  0  0  0  0  0  0  0  0  0  0  0
  -30.9300  -13.3170   18.9840 C   0  0  0  0  0  2  0  0  0  0  0  0
  -29.9520  -13.1190   17.8030 C   0  0  0  0  0  2  0  0  0  0  0  0
  -28.5360  -12.8310   18.3250 C   0  0  0  0  0  2  0  0  0  0  0  0
  -28.1360  -13.7810   19.4830 C   0  0  0  0  0  3  0  0  0  0  0  0
  -29.2440  -13.9500   20.5440 C   0  0  0  0  0  2  0  0  0  0  0  0
  -30.4270  -14.4580   19.8330 N   0  0  0  0  0  0  0  0  0  0  0  0
  -32.2720  -15.6500   19.6260 O   0  0  0  0  0  0  0  0  0  0  0  0
  -28.5800  -19.1410   20.2310 C   0  0  0  0  0  3  0  0  0  0  0  0
  -30.6540  -19.9300   19.5800 C   0  0  0  0  0  3  0  0  0  0  0  0
  -29.1460  -17.6070   20.5310 C   0  0  0  0  0  2  0  0  0  0  0  0
  -31.2670  -18.3950   19.8600 C   0  0  0  0  0  3  0  0  0  0  0  0
  -29.4380  -20.5200   20.4440 C   0  0  0  0  0  0  0  0  0  0  0  0
  -30.4580  -17.0800   19.9790 N   0  0  0  0  0  0  0  0  0  0  0  0
  -25.8240  -14.2830   20.4340 C   0  0  0  0  0  0  0  0  0  0  0  0
  -24.7910  -13.4810   20.8250 C   0  0  0  0  0  0  0  0  0  0  0  0
  -25.2540  -12.1370   20.6790 C   0  0  0  0  0  0  0  0  0  0  0  0
  -26.8490  -13.4290   20.0660 N   0  0  0  0  0  0  0  0  0  0  0  0
  -26.5220  -12.1270   20.2820 N   0  0  0  0  0  0  0  0  0  0  0  0
  -24.5390  -10.8630   20.8360 C   0  0  0  0  0  0  0  0  0  0  0  0
  -24.9280   -9.9100   21.8030 C   0  0  0  0  0  3  0  0  0  0  0  0
  -24.2090   -8.7050   21.9490 C   0  0  0  0  0  3  0  0  0  0  0  0
  -23.0870   -8.4410   21.1260 C   0  0  0  0  0  0  0  0  0  0  0  0
  -22.7180   -9.3830   20.1490 C   0  0  0  0  0  3  0  0  0  0  0  0
  -23.4400  -10.5810   20.0010 C   0  0  0  0  0  3  0  0  0  0  0  0
  -22.3440   -7.2870   21.1790 O   0  0  0  0  0  0  0  0  0  0  0  0
  -22.0780   -6.6580   22.3690 C   0  0  0  0  0  0  0  0  0  0  0  0
  -21.3870   -7.3050   23.4170 C   0  0  0  0  0  3  0  0  0  0  0  0
  -21.0730   -6.5980   24.5950 C   0  0  0  0  0  3  0  0  0  0  0  0
  -21.4400   -5.2460   24.7240 C   0  0  0  0  0  0  0  0  0  0  0  0
  -22.1240   -4.5980   23.6820 C   0  0  0  0  0  3  0  0  0  0  0  0
  -22.4390   -5.3020   22.5050 C   0  0  0  0  0  0  0  0  0  0  0  0
  -23.0790   -4.6680   21.4940 F   0  0  0  0  0  0  0  0  0  0  0  0
  -21.1320   -4.5640   25.8540 F   0  0  0  0  0  0  0  0  0  0  0  0
  -23.4150  -13.9360   21.2130 C   0  0  0  0  0  0  0  0  0  0  0  0
  -22.7510  -13.1960   22.0940 N   0  0  0  0  0  0  0  0  0  0  0  0
  -22.9420  -14.9840   20.7740 O   0  0  0  0  0  0  0  0  0  0  0  0
  -23.1530  -12.3510   22.4730 H   0  0  0  0  0  0  0  0  0  0  0  0
  -21.8320  -13.4820   22.4010 H   0  0  0  0  0  0  0  0  0  0  0  0
  -25.9670  -15.6610   20.3280 N   0  0  0  0  0  0  0  0  0  0  0  0
  -25.1990  -16.2960   20.5190 H   0  0  0  0  0  0  0  0  0  0  0  0
  -26.7750  -16.1250   19.9330 H   0  0  0  0  0  0  0  0  0  0  0  0
  -25.6030  -23.2030   22.2430 N   0  0  0  0  0  0  0  0  0  0  0  0
  -24.8690  -23.8890   22.1090 H   0  0  0  0  0  0  0  0  0  0  0  0
  -25.2470  -22.2550   22.3260 H   0  0  0  0  0  0  0  0  0  0  0  0
  -28.5370  -26.3540   19.9910 O   0  0  0  0  0  0  0  0  0  0  0  0
  -24.9030  -32.0030   23.4000 C   0  0  0  0  0  0  0  0  0  0  0  0
  -27.5360  -27.4500   20.0270 C   0  0  0  0  0  0  0  0  0  0  0  0
  -23.7390  -30.7360   21.6390 C   0  0  0  0  0  3  0  0  0  0  0  0
  -25.2200  -29.2810   20.1010 C   0  0  0  0  0  0  0  0  0  0  0  0
  -26.3010  -30.9930   21.5400 C   0  0  0  0  0  2  0  0  0  0  0  0
  -26.3930  -29.6450   20.7770 C   0  0  0  0  0  0  0  0  0  0  0  0
  -27.5440  -28.7460   20.7300 C   0  0  0  0  0  3  0  0  0  0  0  0
  -26.3500  -27.2540   19.2840 C   0  0  0  0  0  3  0  0  0  0  0  0
  -25.2210  -28.1050   19.3360 C   0  0  0  0  0  3  0  0  0  0  0  0
  -23.9890  -30.1760   20.2120 C   0  0  0  0  0  2  0  0  0  0  0  0
  -25.0000  -31.2650   22.2480 N   0  0  0  0  0  0  0  0  0  0  0  0
  -23.8080  -32.2370   23.9340 O   0  0  0  0  0  0  0  0  0  0  0  0
  -23.0520  -29.6510   22.5110 C   0  0  0  0  0  0  0  0  0  0  0  0
  -21.7290  -29.4680   22.3460 N   0  0  0  0  0  0  0  0  0  0  0  0
  -23.7160  -28.9800   23.3030 O   0  0  0  0  0  0  0  0  0  0  0  0
  -21.2460  -30.0640   21.6880 H   0  0  0  0  0  0  0  0  0  0  0  0
  -18.3600  -28.1770   22.7190 C   0  0  0  0  0  0  0  0  0  0  0  0
  -20.9130  -28.4600   23.0290 C   0  0  0  0  0  3  0  0  0  0  0  0
  -21.0440  -27.0780   22.3440 C   0  0  0  0  0  2  0  0  0  0  0  0
  -19.9560  -26.8170   21.2980 C   0  0  0  0  0  2  0  0  0  0  0  0
  -18.5660  -26.8910   21.9360 C   0  0  0  0  0  2  0  0  0  0  0  0
  -19.4620  -28.9200   23.2200 C   0  0  0  0  0  0  0  0  0  0  0  0
  -19.2150  -30.1230   23.9170 C   0  0  0  0  0  3  0  0  0  0  0  0
  -17.9000  -30.5840   24.1140 C   0  0  0  0  0  3  0  0  0  0  0  0
  -16.8130  -29.8380   23.6270 C   0  0  0  0  0  3  0  0  0  0  0  0
  -17.0440  -28.6360   22.9360 C   0  0  0  0  0  3  0  0  0  0  0  0
  -26.1640  -32.6040   24.0930 C   0  0  0  0  0  3  0  0  0  0  0  0
  -25.8510  -33.9910   24.4750 N   0  0  0  0  0  0  0  0  0  0  0  0
  -26.1670  -35.0760   23.7550 C   0  0  0  0  0  0  0  0  0  0  0  0
  -26.8160  -35.0130   22.7080 O   0  0  0  0  0  0  0  0  0  0  0  0
  -25.2700  -34.1130   25.2910 H   0  0  0  0  0  0  0  0  0  0  0  0
  -24.4020  -36.8610   23.5420 C   0  0  0  0  0  1  0  0  0  0  0  0
  -25.6890  -36.4480   24.2760 C   0  0  0  0  0  3  0  0  0  0  0  0
  -27.8450  -37.3500   25.0300 C   0  0  0  0  0  1  0  0  0  0  0  0
  -26.7020  -37.5170   24.1370 N   0  0  0  0  0  0  0  0  0  0  0  0
  -26.2910  -38.4290   24.3150 H   0  0  0  0  0  0  0  0  0  0  0  0
  -26.6250  -31.7810   25.3590 C   0  0  1  0  0  0  0  0  0  0  0  0
  -25.4900  -31.5150   26.3760 C   0  0  0  0  0  1  0  0  0  0  0  0
  -27.2130  -30.4130   24.9470 C   0  0  0  0  0  1  0  0  0  0  0  0
  -27.7550  -32.5410   26.0930 C   0  0  0  0  0  1  0  0  0  0  0  0
  1  5  2  0
  1  3  1  0
  2  4  2  0
  3  6  2  0
  4 50  1  0
  5  2  1  0
  6  4  1  0
  6  7  1  0
  8 21  1  0
  9 14  1  0
 10 11  1  0
 10  9  1  0
 12 11  1  0
 12 25  1  0
 12 13  1  0
 14  8  1  0
 14 13  1  0
 15  8  2  0
 16 20  2  0
 16 18  1  0
 17 19  2  0
 17 20  1  0
 19 21  1  0
 20  3  1  0
 21 18  1  0
 22 23  2  0
 23 42  1  0
 24 23  1  0
 24 27  1  0
 25 26  1  0
 25 22  1  0
 26 24  2  0
 27 28  1  0
 28 29  2  0
 30 33  1  0
 30 29  1  0
 31 30  2  0
 32 31  1  0
 32 27  2  0
 33 34  1  0
 34 39  2  0
 34 35  1  0
 35 36  2  0
 36 37  1  0
 37 41  1  0
 38 37  2  0
 39 38  1  0
 40 39  1  0
 42 43  1  0
 43 46  1  0
 43 45  1  0
 44 42  2  0
 47 22  1  0
 47 48  1  0
 49 47  1  0
 50 52  1  0
 51 50  1  0
 53 55  1  0
 53  5  1  0
 54 65  2  0
 55 60  1  0
 56 64  1  0
 56 66  1  0
 57 63  1  0
 57 59  1  0
 58 64  1  0
 59 58  1  0
 60 59  2  0
 61 62  1  0
 61 55  2  0
 62 57  2  0
 63 56  1  0
 64 54  1  0
 66 68  2  0
 67 66  1  0
 69 67  1  0
 70 79  2  0
 70 75  1  0
 71 67  1  0
 71 75  1  0
 72 71  1  0
 73 74  1  0
 73 72  1  0
 74 70  1  0
 75 76  2  0
 76 77  1  0
 78 77  2  0
 79 78  1  0
 80 54  1  0
 80 81  1  0
 80 90  1  0
 81 84  1  0
 82 86  1  0
 82 81  1  0
 83 82  2  0
 86 85  1  0
 88 86  1  0
 88 89  1  0
 88 87  1  0
 90 93  1  1
 90 91  1  0
 92 90  1  0
M  ISO  4   5 101   8 100  21 100  53 101
M  END
>  <TORSDO>  (70) 
F 17

>  <SCORE>  (70) 
-13.559

>  <name>  (70) 
69

>  <ligand_id>  (70) 
69

>  <original_smiles>  (70) 
[H]c1c([H])c([H])c2c(c1[H])C([H])([H])C([H])([H])C([H])([H])C2([H])N([H])C(=O)C1([H])N(C(=O)C([H])(N([H])C(=O)C([H])(N([H])C([H])([H])[H])C([H])([H])[H])C(C([H])([H])[H])(C([H])([H])[H])C([H])([H])[H])C([H])([H])c2c([H])c(Oc3c([H])c(N([H])[H])c(F)c(C4([H])C([H])([H])C([H])([H])N(C(=O)N5C([H])([H])C([H])([H])C([H])([H])C([H])(n6nc(-c7c([H])c([H])c(Oc8c([H])c([H])c(F)c([H])c8F)c([H])c7[H])c(C(=O)N([H])[H])c6N([H])[H])C5([H])[H])C([H])([H])C4([H])[H])c3[H])c([H])c([H])c2C1([H])[H]

>  <smiles>  (70) 
[H]c1c([H])c([H])c2c(c1[H])C([H])([H])C([H])([H])C([H])([H])C2([H])N([H])C(=O)C1([H])N(C(=O)C([H])(N([H])C(=O)C([H])(N([H])C([H])([H])[H])C([H])([H])[H])C(C([H])([H])[H])(C([H])([H])[H])C([H])([H])[H])C([H])([H])c2c([H])c(Oc3c([H])c(N([H])[H])c(F)c(C4([H])C([H])([H])C([H])([H])N(C(=O)N5C([H])([H])C([H])([H])C([H])([H])C([H])(n6nc(-c7c([H])c([H])c(Oc8c([H])c([H])c(F)c([H])c8F)c([H])c7[H])c(C(=O)N([H])[H])c6N([H])[H])C5([H])[H])C([H])([H])C4([H])[H])c3[H])c([H])c([H])c2C1([H])[H]

$$$$
70:0:0
     RDKit          3D

 97105  0  0  1  0  0  0  0  0999 V2000
  -28.9650  -24.2340   23.4790 C   0  0  0  0  0  3  0  0  0  0  0  0
  -29.8230  -25.8060   21.8200 C   0  0  0  0  0  3  0  0  0  0  0  0
  -27.4820  -25.1510   21.7760 C   0  0  0  0  0  3  0  0  0  0  0  0
  -30.0420  -24.9940   22.9600 C   0  0  0  0  0  0  0  0  0  0  0  0
  -27.6870  -24.3230   22.8920 C   0  0  0  0  0  0  0  0  0  0  0  0
  -28.5490  -25.9010   21.2270 C   0  0  0  0  0  0  0  0  0  0  0  0
  -26.6280  -23.6190   23.3910 O   0  0  0  0  0  0  0  0  0  0  0  0
  -26.7920  -23.2230   24.2410 H   0  0  0  0  0  0  0  0  0  0  0  0
  -31.4160  -24.9300   23.5420 C   0  0  0  0  0  0  0  0  0  0  0  0
  -32.4230  -25.2050   22.8830 O   0  0  0  0  0  0  0  0  0  0  0  0
  -31.5790  -24.5940   25.0350 C   0  0  0  0  0  2  0  0  0  0  0  0
  -32.7870  -23.6900   25.3730 C   0  0  0  0  0  2  0  0  0  0  0  0
  -32.6860  -22.2620   24.8050 C   0  0  0  0  0  2  0  0  0  0  0  0
  -33.7740  -21.3220   25.3550 C   0  0  0  0  0  2  0  0  0  0  0  0
  -33.8910  -19.9800   24.6080 C   0  0  0  0  0  2  0  0  0  0  0  0
  -32.6140  -19.1150   24.5840 C   0  0  0  0  0  2  0  0  0  0  0  0
  -32.7950  -17.8850   23.6800 C   0  0  0  0  0  2  0  0  0  0  0  0
  -31.5120  -17.0700   23.4300 C   0  0  0  0  0  2  0  0  0  0  0  0
  -31.7010  -16.1450   22.2190 C   0  0  0  0  0  2  0  0  0  0  0  0
  -30.4940  -15.2420   21.8710 C   0  0  0  0  0  2  0  0  0  0  0  0
  -30.8070  -14.3230   20.6790 C   0  0  0  0  0  0  0  0  0  0  0  0
  -30.4010  -12.2720   19.3730 C   0  0  0  0  0  2  0  0  0  0  0  0
  -29.4640  -12.5230   18.1800 C   0  0  0  0  0  2  0  0  0  0  0  0
  -27.9970  -12.3720   18.6130 C   0  0  0  0  0  2  0  0  0  0  0  0
  -27.6670  -13.2010   19.8810 C   0  0  0  0  0  3  0  0  0  0  0  0
  -28.7140  -12.9590   20.9950 C   0  0  0  0  0  2  0  0  0  0  0  0
  -30.0530  -13.2200   20.4410 N   0  0  0  0  0  0  0  0  0  0  0  0
  -31.7900  -14.6020   19.9840 O   0  0  0  0  0  0  0  0  0  0  0  0
  -25.2620  -13.8180   20.5690 C   0  0  0  0  0  0  0  0  0  0  0  0
  -24.1850  -13.0460   20.9180 C   0  0  0  0  0  0  0  0  0  0  0  0
  -24.6390  -11.6920   20.8750 C   0  0  0  0  0  0  0  0  0  0  0  0
  -26.3060  -12.9330   20.3430 N   0  0  0  0  0  0  0  0  0  0  0  0
  -25.9320  -11.6490   20.5810 N   0  0  0  0  0  0  0  0  0  0  0  0
  -23.9050  -10.4310   21.0420 C   0  0  0  0  0  0  0  0  0  0  0  0
  -24.3600   -9.4220   21.9190 C   0  0  0  0  0  3  0  0  0  0  0  0
  -23.6290   -8.2250   22.0760 C   0  0  0  0  0  3  0  0  0  0  0  0
  -22.4280   -8.0290   21.3550 C   0  0  0  0  0  0  0  0  0  0  0  0
  -21.9910   -9.0250   20.4650 C   0  0  0  0  0  3  0  0  0  0  0  0
  -22.7230  -10.2140   20.3060 C   0  0  0  0  0  3  0  0  0  0  0  0
  -21.6640   -6.8890   21.4250 O   0  0  0  0  0  0  0  0  0  0  0  0
  -21.6840   -6.0740   22.5290 C   0  0  0  0  0  0  0  0  0  0  0  0
  -21.4000   -6.5640   23.8220 C   0  0  0  0  0  3  0  0  0  0  0  0
  -21.3650   -5.6790   24.9190 C   0  0  0  0  0  3  0  0  0  0  0  0
  -21.6050   -4.3060   24.7240 C   0  0  0  0  0  0  0  0  0  0  0  0
  -21.8810   -3.8160   23.4350 C   0  0  0  0  0  3  0  0  0  0  0  0
  -21.9200   -4.6980   22.3410 C   0  0  0  0  0  0  0  0  0  0  0  0
  -22.1660   -4.2160   21.0990 F   0  0  0  0  0  0  0  0  0  0  0  0
  -21.5630   -3.4540   25.7750 F   0  0  0  0  0  0  0  0  0  0  0  0
  -22.7880  -13.5280   21.1830 C   0  0  0  0  0  0  0  0  0  0  0  0
  -22.0470  -12.8260   22.0370 N   0  0  0  0  0  0  0  0  0  0  0  0
  -22.3580  -14.5580   20.6690 O   0  0  0  0  0  0  0  0  0  0  0  0
  -22.4030  -11.9900   22.4730 H   0  0  0  0  0  0  0  0  0  0  0  0
  -21.1100  -13.1340   22.2560 H   0  0  0  0  0  0  0  0  0  0  0  0
  -25.4390  -15.1880   20.4090 N   0  0  0  0  0  0  0  0  0  0  0  0
  -24.6820  -15.8530   20.5240 H   0  0  0  0  0  0  0  0  0  0  0  0
  -26.3040  -15.6200   20.1100 H   0  0  0  0  0  0  0  0  0  0  0  0
  -28.3780  -26.7130   20.1260 O   0  0  0  0  0  0  0  0  0  0  0  0
  -24.6110  -31.8700   23.2210 C   0  0  0  0  0  0  0  0  0  0  0  0
  -27.2410  -27.4760   20.0940 C   0  0  0  0  0  0  0  0  0  0  0  0
  -23.4030  -30.4960   21.5550 C   0  0  0  0  0  3  0  0  0  0  0  0
  -24.8560  -28.9730   20.1080 C   0  0  0  0  0  0  0  0  0  0  0  0
  -25.9300  -30.8400   21.3820 C   0  0  0  0  0  2  0  0  0  0  0  0
  -26.0080  -29.4830   20.7210 C   0  0  0  0  0  0  0  0  0  0  0  0
  -27.2050  -28.7380   20.7200 C   0  0  0  0  0  3  0  0  0  0  0  0
  -26.0880  -26.9810   19.4540 C   0  0  0  0  0  3  0  0  0  0  0  0
  -24.8900  -27.7200   19.4680 C   0  0  0  0  0  3  0  0  0  0  0  0
  -23.6170  -29.8370   20.1650 C   0  0  0  0  0  2  0  0  0  0  0  0
  -24.6640  -31.0850   22.1090 N   0  0  0  0  0  0  0  0  0  0  0  0
  -23.5310  -32.1400   23.7630 O   0  0  0  0  0  0  0  0  0  0  0  0
  -22.7430  -29.4650   22.5000 C   0  0  0  0  0  0  0  0  0  0  0  0
  -21.4160  -29.3050   22.3760 N   0  0  0  0  0  0  0  0  0  0  0  0
  -23.4220  -28.8160   23.3010 O   0  0  0  0  0  0  0  0  0  0  0  0
  -20.9320  -29.8870   21.7050 H   0  0  0  0  0  0  0  0  0  0  0  0
  -18.0270  -28.1390   22.8510 C   0  0  0  0  0  0  0  0  0  0  0  0
  -20.5870  -28.3670   23.1330 C   0  0  0  0  0  3  0  0  0  0  0  0
  -20.6760  -26.9400   22.5430 C   0  0  0  0  0  2  0  0  0  0  0  0
  -19.5720  -26.6320   21.5270 C   0  0  0  0  0  2  0  0  0  0  0  0
  -18.1900  -26.7930   22.1670 C   0  0  0  0  0  2  0  0  0  0  0  0
  -19.1530  -28.8850   23.2900 C   0  0  0  0  0  0  0  0  0  0  0  0
  -18.9450  -30.1470   23.8880 C   0  0  0  0  0  3  0  0  0  0  0  0
  -17.6450  -30.6610   24.0560 C   0  0  0  0  0  3  0  0  0  0  0  0
  -16.5330  -29.9110   23.6340 C   0  0  0  0  0  3  0  0  0  0  0  0
  -16.7260  -28.6520   23.0360 C   0  0  0  0  0  3  0  0  0  0  0  0
  -25.9020  -32.4830   23.8470 C   0  0  0  0  0  3  0  0  0  0  0  0
  -26.4520  -31.6640   25.0770 C   0  0  1  0  0  0  0  0  0  0  0  0
  -25.3850  -31.3710   26.1540 C   0  0  0  0  0  1  0  0  0  0  0  0
  -27.0370  -30.3070   24.6240 C   0  0  0  0  0  1  0  0  0  0  0  0
  -27.6110  -32.4460   25.7380 C   0  0  0  0  0  1  0  0  0  0  0  0
  -25.5890  -33.8620   24.2380 N   0  0  0  0  0  0  0  0  0  0  0  0
  -25.9010  -34.9490   23.5160 C   0  0  0  0  0  0  0  0  0  0  0  0
  -26.5560  -34.8950   22.4710 O   0  0  0  0  0  0  0  0  0  0  0  0
  -25.0090  -33.9790   25.0560 H   0  0  0  0  0  0  0  0  0  0  0  0
  -24.1430  -36.7310   23.2690 C   0  0  0  0  0  1  0  0  0  0  0  0
  -25.4070  -36.3120   24.0370 C   0  0  0  0  0  3  0  0  0  0  0  0
  -27.5560  -37.1840   24.8470 C   0  0  0  0  0  1  0  0  0  0  0  0
  -26.4240  -37.3830   23.9450 N   0  0  0  0  0  0  0  0  0  0  0  0
  -26.0130  -38.2900   24.1510 H   0  0  0  0  0  0  0  0  0  0  0  0
  2  4  2  0
  3  5  1  0
  4  1  1  0
  4  9  1  0
  5  7  1  0
  5  1  2  0
  6  3  2  0
  6  2  1  0
  7  8  1  0
  9 11  1  0
 10  9  2  0
 11 12  1  0
 13 14  1  0
 13 12  1  0
 15 14  1  0
 16 15  1  0
 17 16  1  0
 18 17  1  0
 19 18  1  0
 20 19  1  0
 21 20  1  0
 22 27  1  0
 23 24  1  0
 23 22  1  0
 25 24  1  0
 25 32  1  0
 25 26  1  0
 27 21  1  0
 27 26  1  0
 28 21  2  0
 29 30  2  0
 30 49  1  0
 31 30  1  0
 31 34  1  0
 32 29  1  0
 32 33  1  0
 33 31  2  0
 34 35  1  0
 35 36  2  0
 37 40  1  0
 37 36  1  0
 38 37  2  0
 39 38  1  0
 39 34  2  0
 40 41  1  0
 41 42  1  0
 42 43  2  0
 44 43  1  0
 44 48  1  0
 45 44  2  0
 46 41  2  0
 46 45  1  0
 47 46  1  0
 49 50  1  0
 50 53  1  0
 50 52  1  0
 51 49  2  0
 54 55  1  0
 54 29  1  0
 56 54  1  0
 57  6  1  0
 58 69  2  0
 59 57  1  0
 59 64  1  0
 60 68  1  0
 60 70  1  0
 61 67  1  0
 61 63  1  0
 62 68  1  0
 63 62  1  0
 64 63  2  0
 65 66  1  0
 65 59  2  0
 66 61  2  0
 67 60  1  0
 68 58  1  0
 70 72  2  0
 71 70  1  0
 73 71  1  0
 74 83  2  0
 74 79  1  0
 75 71  1  0
 75 79  1  0
 76 75  1  0
 77 78  1  0
 77 76  1  0
 78 74  1  0
 79 80  2  0
 80 81  1  0
 82 81  2  0
 83 82  1  0
 84 58  1  0
 84 89  1  0
 84 85  1  0
 85 88  1  1
 85 86  1  0
 87 85  1  0
 89 92  1  0
 90 94  1  0
 90 89  1  0
 91 90  2  0
 94 93  1  0
 96 94  1  0
 96 97  1  0
 96 95  1  0
M  ISO  4   6 101  20 100  21 100  57 101
M  END
>  <TORSDO>  (71) 
F 28

>  <SCORE>  (71) 
24.544

>  <name>  (71) 
70

>  <ligand_id>  (71) 
70

>  <original_smiles>  (71) 
[H]Oc1c([H])c(Oc2c([H])c([H])c3c(c2[H])C([H])([H])N(C(=O)C([H])(N([H])C(=O)C([H])(N([H])C([H])([H])[H])C([H])([H])[H])C(C([H])([H])[H])(C([H])([H])[H])C([H])([H])[H])C([H])(C(=O)N([H])C2([H])c4c([H])c([H])c([H])c([H])c4C([H])([H])C([H])([H])C2([H])[H])C3([H])[H])c([H])c(C(=O)C([H])([H])C([H])([H])C([H])([H])C([H])([H])C([H])([H])C([H])([H])C([H])([H])C([H])([H])C([H])([H])C([H])([H])C(=O)N2C([H])([H])C([H])([H])C([H])([H])C([H])(n3nc(-c4c([H])c([H])c(Oc5c([H])c([H])c(F)c([H])c5F)c([H])c4[H])c(C(=O)N([H])[H])c3N([H])[H])C2([H])[H])c1[H]

>  <smiles>  (71) 
[H]Oc1c([H])c(Oc2c([H])c([H])c3c(c2[H])C([H])([H])N(C(=O)C([H])(N([H])C(=O)C([H])(N([H])C([H])([H])[H])C([H])([H])[H])C(C([H])([H])[H])(C([H])([H])[H])C([H])([H])[H])C([H])(C(=O)N([H])C2([H])c4c([H])c([H])c([H])c([H])c4C([H])([H])C([H])([H])C2([H])[H])C3([H])[H])c([H])c(C(=O)C([H])([H])C([H])([H])C([H])([H])C([H])([H])C([H])([H])C([H])([H])C([H])([H])C([H])([H])C([H])([H])C([H])([H])C(=O)N2C([H])([H])C([H])([H])C([H])([H])C([H])(n3nc(-c4c([H])c([H])c(Oc5c([H])c([H])c(F)c([H])c5F)c([H])c4[H])c(C(=O)N([H])[H])c3N([H])[H])C2([H])[H])c1[H]

$$$$
71:0:0
     RDKit          3D

 94103  0  0  1  0  0  0  0  0999 V2000
  -28.9510  -23.3190   21.6470 C   0  0  0  0  0  3  0  0  0  0  0  0
  -29.6380  -23.2640   19.3300 C   0  0  0  0  0  0  0  0  0  0  0  0
  -29.1890  -24.6120   19.1800 C   0  0  0  0  0  0  0  0  0  0  0  0
  -29.5240  -22.5870   20.5750 C   0  0  0  0  0  0  0  0  0  0  0  0
  -28.5350  -24.6740   21.5130 C   0  0  0  0  0  0  0  0  0  0  0  0
  -28.6610  -25.3560   20.2730 C   0  0  0  0  0  0  0  0  0  0  0  0
  -30.2810  -22.6160   18.1080 C   0  0  0  0  0  2  0  0  0  0  0  0
  -29.3770  -25.2800   17.8210 C   0  0  0  0  0  2  0  0  0  0  0  0
  -29.3910  -22.8450   16.8800 C   0  0  0  0  0  2  0  0  0  0  0  0
  -29.1230  -24.3420   16.6160 C   0  0  0  0  0  3  0  0  0  0  0  0
  -28.0020  -25.3960   22.7370 C   0  0  0  0  0  1  0  0  0  0  0  0
  -29.8700  -24.7560   15.5920 F   0  0  0  0  0  0  0  0  0  0  0  0
  -28.5050  -26.7440   20.1650 O   0  0  0  0  0  0  0  0  0  0  0  0
  -24.6250  -31.9270   23.2460 C   0  0  0  0  0  0  0  0  0  0  0  0
  -27.2970  -27.4300   20.2170 C   0  0  0  0  0  0  0  0  0  0  0  0
  -23.4320  -30.5070   21.6090 C   0  0  0  0  0  3  0  0  0  0  0  0
  -24.8960  -28.9550   20.2020 C   0  0  0  0  0  0  0  0  0  0  0  0
  -25.9570  -30.8640   21.4180 C   0  0  0  0  0  2  0  0  0  0  0  0
  -26.0490  -29.4800   20.7970 C   0  0  0  0  0  0  0  0  0  0  0  0
  -27.2490  -28.7250   20.8010 C   0  0  0  0  0  3  0  0  0  0  0  0
  -26.1250  -26.9240   19.6150 C   0  0  0  0  0  3  0  0  0  0  0  0
  -24.9300  -27.6790   19.6070 C   0  0  0  0  0  3  0  0  0  0  0  0
  -23.6500  -29.8160   20.2340 C   0  0  0  0  0  2  0  0  0  0  0  0
  -24.6900  -31.1170   22.1500 N   0  0  0  0  0  0  0  0  0  0  0  0
  -23.5400  -32.1960   23.7800 O   0  0  0  0  0  0  0  0  0  0  0  0
  -22.7770  -29.4950   22.5770 C   0  0  0  0  0  0  0  0  0  0  0  0
  -21.4500  -29.3150   22.4520 N   0  0  0  0  0  0  0  0  0  0  0  0
  -23.4600  -28.8730   23.3940 O   0  0  0  0  0  0  0  0  0  0  0  0
  -20.9580  -29.8740   21.7700 H   0  0  0  0  0  0  0  0  0  0  0  0
  -18.0740  -28.1260   22.9580 C   0  0  0  0  0  0  0  0  0  0  0  0
  -20.6330  -28.3790   23.2260 C   0  0  0  0  0  3  0  0  0  0  0  0
  -20.7300  -26.9460   22.6510 C   0  0  0  0  0  2  0  0  0  0  0  0
  -19.6270  -26.6260   21.6370 C   0  0  0  0  0  2  0  0  0  0  0  0
  -18.2470  -26.7740   22.2840 C   0  0  0  0  0  2  0  0  0  0  0  0
  -19.1950  -28.8860   23.3860 C   0  0  0  0  0  0  0  0  0  0  0  0
  -18.9780  -30.1510   23.9750 C   0  0  0  0  0  3  0  0  0  0  0  0
  -17.6740  -30.6540   24.1410 C   0  0  0  0  0  3  0  0  0  0  0  0
  -16.5690  -29.8890   23.7300 C   0  0  0  0  0  3  0  0  0  0  0  0
  -16.7700  -28.6280   23.1430 C   0  0  0  0  0  3  0  0  0  0  0  0
  -25.9040  -32.5690   23.8690 C   0  0  0  0  0  3  0  0  0  0  0  0
  -25.5870  -33.9690   24.1900 N   0  0  0  0  0  0  0  0  0  0  0  0
  -25.9270  -35.0170   23.4270 C   0  0  0  0  0  0  0  0  0  0  0  0
  -26.6050  -34.9070   22.4020 O   0  0  0  0  0  0  0  0  0  0  0  0
  -24.9810  -34.1270   24.9800 H   0  0  0  0  0  0  0  0  0  0  0  0
  -24.1980  -36.8090   23.0560 C   0  0  0  0  0  1  0  0  0  0  0  0
  -25.4380  -36.4100   23.8720 C   0  0  0  0  0  3  0  0  0  0  0  0
  -27.5710  -37.3030   24.6980 C   0  0  0  0  0  1  0  0  0  0  0  0
  -26.4710  -37.4630   23.7510 N   0  0  0  0  0  0  0  0  0  0  0  0
  -26.0630  -38.3850   23.8900 H   0  0  0  0  0  0  0  0  0  0  0  0
  -26.4210  -31.8080   25.1510 C   0  0  1  0  0  0  0  0  0  0  0  0
  -25.3280  -31.5690   26.2190 C   0  0  0  0  0  1  0  0  0  0  0  0
  -27.0070  -30.4310   24.7610 C   0  0  0  0  0  1  0  0  0  0  0  0
  -27.5720  -32.6090   25.8050 C   0  0  0  0  0  1  0  0  0  0  0  0
  -30.1480  -21.1840   20.8570 C   0  0  0  0  0  2  0  0  0  0  0  0
  -29.4140  -19.8700   20.3980 C   0  0  0  0  0  2  0  0  0  0  0  0
  -30.1000  -18.5490   20.9270 C   0  0  0  0  0  3  0  0  0  0  0  0
  -29.6420  -17.1410   20.3730 C   0  0  0  0  0  3  0  0  0  0  0  0
  -30.1690  -15.8780   21.1750 C   0  0  0  0  0  2  0  0  0  0  0  0
  -30.7310  -14.6360   20.3870 C   0  0  0  0  0  0  0  0  0  0  0  0
  -30.4390  -12.4320   19.2640 C   0  0  0  0  0  2  0  0  0  0  0  0
  -29.5080  -12.5900   18.0410 C   0  0  0  0  0  2  0  0  0  0  0  0
  -28.0320  -12.4490   18.4590 C   0  0  0  0  0  2  0  0  0  0  0  0
  -27.6870  -13.3130   19.7030 C   0  0  0  0  0  3  0  0  0  0  0  0
  -28.7340  -13.1330   20.8210 C   0  0  0  0  0  2  0  0  0  0  0  0
  -30.0580  -13.4460   20.2670 N   0  0  0  0  0  0  0  0  0  0  0  0
  -31.8300  -14.7840   19.8440 O   0  0  0  0  0  0  0  0  0  0  0  0
  -25.2980  -13.9380   20.4140 C   0  0  0  0  0  0  0  0  0  0  0  0
  -24.2270  -13.1740   20.7930 C   0  0  0  0  0  0  0  0  0  0  0  0
  -24.6820  -11.8200   20.7790 C   0  0  0  0  0  0  0  0  0  0  0  0
  -26.3350  -13.0460   20.1900 N   0  0  0  0  0  0  0  0  0  0  0  0
  -25.9710  -11.7690   20.4720 N   0  0  0  0  0  0  0  0  0  0  0  0
  -23.9530  -10.5610   20.9840 C   0  0  0  0  0  0  0  0  0  0  0  0
  -24.3830   -9.5990   21.9230 C   0  0  0  0  0  3  0  0  0  0  0  0
  -23.6510   -8.4060   22.1160 C   0  0  0  0  0  3  0  0  0  0  0  0
  -22.4750   -8.1660   21.3650 C   0  0  0  0  0  0  0  0  0  0  0  0
  -22.0630   -9.1180   20.4160 C   0  0  0  0  0  3  0  0  0  0  0  0
  -22.7950  -10.3010   20.2230 C   0  0  0  0  0  3  0  0  0  0  0  0
  -21.7170   -7.0260   21.4620 O   0  0  0  0  0  0  0  0  0  0  0  0
  -21.6700   -6.2900   22.6190 C   0  0  0  0  0  0  0  0  0  0  0  0
  -21.2630   -6.8570   23.8450 C   0  0  0  0  0  3  0  0  0  0  0  0
  -21.1610   -6.0480   24.9950 C   0  0  0  0  0  3  0  0  0  0  0  0
  -21.4590   -4.6750   24.9190 C   0  0  0  0  0  0  0  0  0  0  0  0
  -21.8600   -4.1060   23.6980 C   0  0  0  0  0  3  0  0  0  0  0  0
  -21.9620   -4.9130   22.5500 C   0  0  0  0  0  0  0  0  0  0  0  0
  -22.3270   -4.3560   21.3690 F   0  0  0  0  0  0  0  0  0  0  0  0
  -21.3540   -3.8960   26.0220 F   0  0  0  0  0  0  0  0  0  0  0  0
  -22.8320  -13.6620   21.0590 C   0  0  0  0  0  0  0  0  0  0  0  0
  -22.1070  -12.9770   21.9370 N   0  0  0  0  0  0  0  0  0  0  0  0
  -22.3970  -14.6800   20.5270 O   0  0  0  0  0  0  0  0  0  0  0  0
  -22.4750  -12.1500   22.3850 H   0  0  0  0  0  0  0  0  0  0  0  0
  -21.1700  -13.2810   22.1580 H   0  0  0  0  0  0  0  0  0  0  0  0
  -25.4780  -15.3050   20.2200 N   0  0  0  0  0  0  0  0  0  0  0  0
  -24.7320  -15.9830   20.3400 H   0  0  0  0  0  0  0  0  0  0  0  0
  -26.3410  -15.7260   19.8980 H   0  0  0  0  0  0  0  0  0  0  0  0
  2  4  1  0
  3  2  2  0
  3  6  1  0
  4 54  1  0
  4  1  2  0
  5  1  1  0
  5 11  1  0
  6  5  2  0
  7  2  1  0
  8  3  1  0
  9  7  1  0
 10 12  1  0
 10  9  1  0
 10  8  1  0
 13 15  1  0
 13  6  1  0
 14 25  2  0
 15 20  1  0
 16 24  1  0
 16 26  1  0
 17 23  1  0
 17 19  1  0
 18 24  1  0
 19 20  2  0
 19 18  1  0
 21 15  2  0
 22 21  1  0
 22 17  2  0
 23 16  1  0
 24 14  1  0
 26 28  2  0
 27 26  1  0
 29 27  1  0
 30 39  2  0
 30 35  1  0
 31 27  1  0
 31 35  1  0
 32 31  1  0
 33 34  1  0
 33 32  1  0
 34 30  1  0
 35 36  2  0
 36 37  1  0
 38 37  2  0
 39 38  1  0
 40 14  1  0
 40 41  1  0
 40 50  1  0
 41 44  1  0
 42 46  1  0
 42 41  1  0
 43 42  2  0
 46 45  1  0
 48 46  1  0
 48 49  1  0
 48 47  1  0
 50 53  1  1
 50 51  1  0
 52 50  1  0
 55 54  1  0
 55 56  1  0
 57 56  2  0
 57 58  1  0
 59 58  1  0
 60 65  1  0
 61 62  1  0
 61 60  1  0
 63 62  1  0
 63 70  1  0
 63 64  1  0
 65 59  1  0
 65 64  1  0
 66 59  2  0
 67 68  2  0
 68 87  1  0
 69 68  1  0
 69 72  1  0
 70 67  1  0
 70 71  1  0
 71 69  2  0
 72 73  1  0
 73 74  2  0
 75 78  1  0
 75 74  1  0
 76 75  2  0
 77 76  1  0
 77 72  2  0
 78 79  1  0
 79 80  1  0
 80 81  2  0
 82 81  1  0
 82 86  1  0
 83 82  2  0
 84 79  2  0
 84 83  1  0
 85 84  1  0
 87 88  1  0
 88 91  1  0
 88 90  1  0
 89 87  2  0
 92 93  1  0
 92 67  1  0
 94 92  1  0
M  ISO  4   6 101  13 101  58 100  59 100
M  END
>  <TORSDO>  (72) 
F 21

>  <SCORE>  (72) 
-13.600

>  <name>  (72) 
71

>  <ligand_id>  (72) 
71

>  <original_smiles>  (72) 
[H]c1c([H])c([H])c2c(c1[H])C([H])([H])C([H])([H])C([H])([H])C2([H])N([H])C(=O)C1([H])N(C(=O)C([H])(N([H])C(=O)C([H])(N([H])C([H])([H])[H])C([H])([H])[H])C(C([H])([H])[H])(C([H])([H])[H])C([H])([H])[H])C([H])([H])c2c([H])c(Oc3c(C([H])([H])[H])c([H])c(C([H])([H])C([H])([H])C([H])([H])C([H])([H])C([H])([H])C(=O)N4C([H])([H])C([H])([H])C([H])([H])C([H])(n5nc(-c6c([H])c([H])c(Oc7c([H])c([H])c(F)c([H])c7F)c([H])c6[H])c(C(=O)N([H])[H])c5N([H])[H])C4([H])[H])c4c3C([H])([H])C([H])(F)C([H])([H])C4([H])[H])c([H])c([H])c2C1([H])[H]

>  <smiles>  (72) 
[H]c1c([H])c([H])c2c(c1[H])C([H])([H])C([H])([H])C([H])([H])C2([H])N([H])C(=O)C1([H])N(C(=O)C([H])(N([H])C(=O)C([H])(N([H])C([H])([H])[H])C([H])([H])[H])C(C([H])([H])[H])(C([H])([H])[H])C([H])([H])[H])C([H])([H])c2c([H])c(Oc3c(C([H])([H])[H])c([H])c(C([H])([H])C([H])([H])C([H])([H])C([H])([H])C([H])([H])C(=O)N4C([H])([H])C([H])([H])C([H])([H])C([H])(n5nc(-c6c([H])c([H])c(Oc7c([H])c([H])c(F)c([H])c7F)c([H])c6[H])c(C(=O)N([H])[H])c5N([H])[H])C4([H])[H])c4c3C([H])([H])C([H])(F)C([H])([H])C4([H])[H])c([H])c([H])c2C1([H])[H]

$$$$
72:0:0
     RDKit          3D

 89 98  0  0  1  0  0  0  0  0999 V2000
  -28.5240  -22.2950   20.3560 C   0  0  0  0  0  0  0  0  0  0  0  0
  -29.2640  -20.9630   20.6170 C   0  0  0  0  0  0  0  0  0  0  0  0
  -29.0690  -23.5470   20.8900 C   0  0  0  0  0  0  0  0  0  0  0  0
  -30.4150  -21.4060   21.2960 C   0  0  0  0  0  0  0  0  0  0  0  0
  -27.3820  -23.2660   19.8790 C   0  0  0  0  0  2  0  0  0  0  0  0
  -27.9180  -24.6040   20.7070 C   0  0  0  0  0  3  0  0  0  0  0  0
  -31.5480  -20.5500   21.7670 C   0  0  0  0  0  1  0  0  0  0  0  0
  -30.5270  -23.1740   21.7190 S   0  0  0  0  0  0  0  0  0  0  0  0
  -28.2070  -26.1100   20.2980 O   0  0  0  0  0  0  0  0  0  0  0  0
  -24.6080  -31.9190   23.2430 C   0  0  0  0  0  0  0  0  0  0  0  0
  -27.1690  -27.1310   20.2610 C   0  0  0  0  0  0  0  0  0  0  0  0
  -23.4070  -30.5150   21.6110 C   0  0  0  0  0  3  0  0  0  0  0  0
  -24.8560  -28.9190   20.2010 C   0  0  0  0  0  0  0  0  0  0  0  0
  -25.9660  -30.7640   21.4490 C   0  0  0  0  0  2  0  0  0  0  0  0
  -26.0400  -29.3600   20.8070 C   0  0  0  0  0  0  0  0  0  0  0  0
  -27.2000  -28.4870   20.8090 C   0  0  0  0  0  3  0  0  0  0  0  0
  -25.9570  -26.8010   19.6190 C   0  0  0  0  0  3  0  0  0  0  0  0
  -24.8320  -27.6570   19.5860 C   0  0  0  0  0  3  0  0  0  0  0  0
  -23.6310  -29.8260   20.2380 C   0  0  0  0  0  2  0  0  0  0  0  0
  -24.6810  -31.0890   22.1550 N   0  0  0  0  0  0  0  0  0  0  0  0
  -23.5200  -32.2090   23.7680 O   0  0  0  0  0  0  0  0  0  0  0  0
  -22.7210  -29.5190   22.5800 C   0  0  0  0  0  0  0  0  0  0  0  0
  -21.3930  -29.3510   22.4530 N   0  0  0  0  0  0  0  0  0  0  0  0
  -23.3900  -28.8960   23.4070 O   0  0  0  0  0  0  0  0  0  0  0  0
  -20.9080  -29.9040   21.7600 H   0  0  0  0  0  0  0  0  0  0  0  0
  -18.0090  -28.1610   22.9660 C   0  0  0  0  0  0  0  0  0  0  0  0
  -20.5690  -28.4200   23.2290 C   0  0  0  0  0  3  0  0  0  0  0  0
  -20.6660  -26.9850   22.6610 C   0  0  0  0  0  2  0  0  0  0  0  0
  -19.5620  -26.6590   21.6480 C   0  0  0  0  0  2  0  0  0  0  0  0
  -18.1820  -26.8100   22.2940 C   0  0  0  0  0  2  0  0  0  0  0  0
  -19.1290  -28.9240   23.3920 C   0  0  0  0  0  0  0  0  0  0  0  0
  -18.9130  -30.1860   23.9850 C   0  0  0  0  0  3  0  0  0  0  0  0
  -17.6090  -30.6910   24.1480 C   0  0  0  0  0  3  0  0  0  0  0  0
  -16.5030  -29.9260   23.7380 C   0  0  0  0  0  3  0  0  0  0  0  0
  -16.7040  -28.6620   23.1560 C   0  0  0  0  0  3  0  0  0  0  0  0
  -25.8840  -32.5570   23.8710 C   0  0  0  0  0  3  0  0  0  0  0  0
  -25.5710  -33.9560   24.2040 N   0  0  0  0  0  0  0  0  0  0  0  0
  -25.8900  -35.0120   23.4410 C   0  0  0  0  0  0  0  0  0  0  0  0
  -26.5420  -34.9100   22.4000 O   0  0  0  0  0  0  0  0  0  0  0  0
  -24.9830  -34.1090   25.0090 H   0  0  0  0  0  0  0  0  0  0  0  0
  -24.1480  -36.8040   23.1270 C   0  0  0  0  0  1  0  0  0  0  0  0
  -25.4080  -36.4010   23.9090 C   0  0  0  0  0  3  0  0  0  0  0  0
  -27.5540  -37.2990   24.6980 C   0  0  0  0  0  1  0  0  0  0  0  0
  -26.4350  -37.4570   23.7720 N   0  0  0  0  0  0  0  0  0  0  0  0
  -26.0270  -38.3770   23.9220 H   0  0  0  0  0  0  0  0  0  0  0  0
  -26.3940  -31.7900   25.1540 C   0  0  1  0  0  0  0  0  0  0  0  0
  -25.2950  -31.5560   26.2150 C   0  0  0  0  0  1  0  0  0  0  0  0
  -26.9810  -30.4110   24.7750 C   0  0  0  0  0  1  0  0  0  0  0  0
  -27.5450  -32.5830   25.8170 C   0  0  0  0  0  1  0  0  0  0  0  0
  -28.9630  -19.3090   20.3680 C   0  0  0  0  0  3  0  0  0  0  0  0
  -30.0280  -17.9340   20.4930 C   0  0  0  0  0  3  0  0  0  0  0  0
  -30.4430  -15.1260   20.3050 C   0  0  0  0  0  0  0  0  0  0  0  0
  -30.3470  -12.7460   19.3610 C   0  0  0  0  0  2  0  0  0  0  0  0
  -29.3950  -12.6190   18.1460 C   0  0  0  0  0  2  0  0  0  0  0  0
  -27.9420  -12.3910   18.6000 C   0  0  0  0  0  2  0  0  0  0  0  0
  -27.5380  -13.3300   19.7660 C   0  0  0  0  0  3  0  0  0  0  0  0
  -28.6070  -13.4040   20.8770 C   0  0  0  0  0  2  0  0  0  0  0  0
  -29.8510  -13.8550   20.2390 N   0  0  0  0  0  0  0  0  0  0  0  0
  -31.6550  -15.1600   20.0580 O   0  0  0  0  0  0  0  0  0  0  0  0
  -29.6780  -16.3500   20.4410 N   0  0  0  0  0  0  0  0  0  0  0  0
  -28.6910  -16.1640   20.5410 H   0  0  0  0  0  0  0  0  0  0  0  0
  -25.1780  -13.8910   20.5640 C   0  0  0  0  0  0  0  0  0  0  0  0
  -24.1220  -13.1130   20.9410 C   0  0  0  0  0  0  0  0  0  0  0  0
  -24.5830  -11.7610   20.8810 C   0  0  0  0  0  0  0  0  0  0  0  0
  -26.2150  -13.0180   20.2890 N   0  0  0  0  0  0  0  0  0  0  0  0
  -25.8700  -11.7290   20.5480 N   0  0  0  0  0  0  0  0  0  0  0  0
  -23.8560  -10.4990   21.0620 C   0  0  0  0  0  0  0  0  0  0  0  0
  -24.2830   -9.5270   21.9920 C   0  0  0  0  0  3  0  0  0  0  0  0
  -23.5570   -8.3280   22.1620 C   0  0  0  0  0  3  0  0  0  0  0  0
  -22.3870   -8.0940   21.4010 C   0  0  0  0  0  0  0  0  0  0  0  0
  -21.9800   -9.0540   20.4570 C   0  0  0  0  0  3  0  0  0  0  0  0
  -22.7060  -10.2440   20.2860 C   0  0  0  0  0  3  0  0  0  0  0  0
  -21.6280   -6.9510   21.4830 O   0  0  0  0  0  0  0  0  0  0  0  0
  -21.5560   -6.2160   22.6400 C   0  0  0  0  0  0  0  0  0  0  0  0
  -21.0710   -6.7690   23.8450 C   0  0  0  0  0  3  0  0  0  0  0  0
  -20.9460   -5.9570   24.9910 C   0  0  0  0  0  3  0  0  0  0  0  0
  -21.2970   -4.5960   24.9310 C   0  0  0  0  0  0  0  0  0  0  0  0
  -21.7730   -4.0410   23.7300 C   0  0  0  0  0  3  0  0  0  0  0  0
  -21.8990   -4.8490   22.5860 C   0  0  0  0  0  0  0  0  0  0  0  0
  -22.3390   -4.3060   21.4270 F   0  0  0  0  0  0  0  0  0  0  0  0
  -21.1700   -3.8150   26.0310 F   0  0  0  0  0  0  0  0  0  0  0  0
  -22.7290  -13.5850   21.2420 C   0  0  0  0  0  0  0  0  0  0  0  0
  -22.0170  -12.8710   22.1050 N   0  0  0  0  0  0  0  0  0  0  0  0
  -22.2850  -14.6200   20.7450 O   0  0  0  0  0  0  0  0  0  0  0  0
  -22.3990  -12.0390   22.5300 H   0  0  0  0  0  0  0  0  0  0  0  0
  -21.0760  -13.1530   22.3470 H   0  0  0  0  0  0  0  0  0  0  0  0
  -25.3380  -15.2650   20.4030 N   0  0  0  0  0  0  0  0  0  0  0  0
  -24.5640  -15.9090   20.5300 H   0  0  0  0  0  0  0  0  0  0  0  0
  -26.1600  -15.7090   20.0180 H   0  0  0  0  0  0  0  0  0  0  0  0
  1  2  1  0
  1  3  2  0
  2  4  2  0
  3  8  1  0
  4  8  1  0
  4  7  1  0
  5  1  1  0
  5  6  1  0
  6  9  1  0
  6  3  1  0
 10 21  2  0
 11  9  1  0
 11 16  1  0
 12 20  1  0
 12 22  1  0
 13 19  1  0
 13 15  1  0
 14 20  1  0
 15 16  2  0
 15 14  1  0
 17 11  2  0
 18 17  1  0
 18 13  2  0
 19 12  1  0
 20 10  1  0
 22 24  2  0
 23 22  1  0
 25 23  1  0
 26 35  2  0
 26 31  1  0
 27 23  1  0
 27 31  1  0
 28 27  1  0
 29 30  1  0
 29 28  1  0
 30 26  1  0
 31 32  2  0
 32 33  1  0
 34 33  2  0
 35 34  1  0
 36 10  1  0
 36 37  1  0
 36 46  1  0
 37 40  1  0
 38 42  1  0
 38 37  1  0
 39 38  2  0
 42 41  1  0
 44 42  1  0
 44 45  1  0
 44 43  1  0
 46 49  1  1
 46 47  1  0
 48 46  1  0
 50 51  2  0
 50  2  1  0
 52 60  1  0
 53 58  1  0
 54 55  1  0
 54 53  1  0
 56 55  1  0
 56 65  1  0
 56 57  1  0
 58 52  1  0
 58 57  1  0
 59 52  2  0
 60 51  1  0
 60 61  1  0
 62 63  2  0
 63 82  1  0
 64 63  1  0
 64 67  1  0
 65 66  1  0
 65 62  1  0
 66 64  2  0
 67 68  1  0
 68 69  2  0
 70 73  1  0
 70 69  1  0
 71 70  2  0
 72 71  1  0
 72 67  2  0
 73 74  1  0
 74 75  1  0
 75 76  2  0
 77 76  1  0
 77 81  1  0
 78 77  2  0
 79 74  2  0
 79 78  1  0
 80 79  1  0
 82 83  1  0
 83 86  1  0
 83 85  1  0
 84 82  2  0
 87 88  1  0
 87 62  1  0
 89 87  1  0
M  ISO  4   6 101   9 101  52 100  60 100
M  END
>  <TORSDO>  (73) 
F 18

>  <SCORE>  (73) 
-15.807

>  <name>  (73) 
72

>  <ligand_id>  (73) 
72

>  <original_smiles>  (73) 
[H]c1c([H])c([H])c2c(c1[H])C([H])([H])C([H])([H])C([H])([H])C2([H])N([H])C(=O)C1([H])N(C(=O)C([H])(N([H])C(=O)C([H])(N([H])C([H])([H])[H])C([H])([H])[H])C(C([H])([H])[H])(C([H])([H])[H])C([H])([H])[H])C([H])([H])c2c([H])c(OC3([H])c4sc(C([H])([H])[H])c(C([H])([H])C([H])([H])N([H])C(=O)N5C([H])([H])C([H])([H])C([H])([H])C([H])(n6nc(-c7c([H])c([H])c(Oc8c([H])c([H])c(F)c([H])c8F)c([H])c7[H])c(C(=O)N([H])[H])c6N([H])[H])C5([H])[H])c4C3([H])[H])c([H])c([H])c2C1([H])[H]

>  <smiles>  (73) 
[H]c1c([H])c([H])c2c(c1[H])C([H])([H])C([H])([H])C([H])([H])C2([H])N([H])C(=O)C1([H])N(C(=O)C([H])(N([H])C(=O)C([H])(N([H])C([H])([H])[H])C([H])([H])[H])C(C([H])([H])[H])(C([H])([H])[H])C([H])([H])[H])C([H])([H])c2c([H])c(OC3([H])c4sc(C([H])([H])[H])c(C([H])([H])C([H])([H])N([H])C(=O)N5C([H])([H])C([H])([H])C([H])([H])C([H])(n6nc(-c7c([H])c([H])c(Oc8c([H])c([H])c(F)c([H])c8F)c([H])c7[H])c(C(=O)N([H])[H])c6N([H])[H])C5([H])[H])c4C3([H])[H])c([H])c([H])c2C1([H])[H]

$$$$
73:0:0
     RDKit          3D

 97106  0  0  1  0  0  0  0  0999 V2000
  -30.3640  -16.1170   20.2740 C   0  0  0  0  0  0  0  0  0  0  0  0
  -30.0690  -18.2890   21.4790 C   0  0  0  0  0  0  0  0  0  0  0  0
  -29.3200  -18.8410   20.4050 C   0  0  0  0  0  0  0  0  0  0  0  0
  -30.5460  -16.9320   21.4370 C   0  0  0  0  0  0  0  0  0  0  0  0
  -29.7310  -16.7390   19.1440 C   0  0  0  0  0  0  0  0  0  0  0  0
  -29.1800  -18.0570   19.2270 C   0  0  0  0  0  0  0  0  0  0  0  0
  -30.3780  -19.2120   22.6630 C   0  0  0  0  0  2  0  0  0  0  0  0
  -28.5670  -20.2090   20.5630 C   0  0  0  0  0  2  0  0  0  0  0  0
  -31.0940  -20.5140   22.2370 C   0  0  0  0  0  2  0  0  0  0  0  0
  -30.1650  -21.7020   21.9160 C   0  0  0  0  0  2  0  0  0  0  0  0
  -29.3410  -21.5920   20.6040 C   0  0  0  0  0  3  0  0  0  0  0  0
  -31.3050  -16.3740   22.6430 C   0  0  0  0  0  1  0  0  0  0  0  0
  -29.6660  -16.0250   17.7890 C   0  0  0  0  0  1  0  0  0  0  0  0
  -28.4270  -18.6660   18.0400 C   0  0  0  0  0  1  0  0  0  0  0  0
  -31.0280  -14.7300   20.1230 C   0  0  0  0  0  0  0  0  0  0  0  0
  -30.6330  -12.5420   19.0470 C   0  0  0  0  0  2  0  0  0  0  0  0
  -29.6680  -12.7070   17.8520 C   0  0  0  0  0  2  0  0  0  0  0  0
  -28.2040  -12.6250   18.3140 C   0  0  0  0  0  2  0  0  0  0  0  0
  -27.9070  -13.4860   19.5730 C   0  0  0  0  0  3  0  0  0  0  0  0
  -28.9900  -13.3210   20.6570 C   0  0  0  0  0  2  0  0  0  0  0  0
  -30.2960  -13.5770   20.0440 N   0  0  0  0  0  0  0  0  0  0  0  0
  -32.2180  -14.7480   19.8020 O   0  0  0  0  0  0  0  0  0  0  0  0
  -25.5580  -14.1140   20.3970 C   0  0  0  0  0  0  0  0  0  0  0  0
  -24.4820  -13.3540   20.7690 C   0  0  0  0  0  0  0  0  0  0  0  0
  -24.9060  -11.9930   20.6790 C   0  0  0  0  0  0  0  0  0  0  0  0
  -26.5700  -13.2180   20.0990 N   0  0  0  0  0  0  0  0  0  0  0  0
  -26.1870  -11.9360   20.3350 N   0  0  0  0  0  0  0  0  0  0  0  0
  -24.1520  -10.7430   20.8440 C   0  0  0  0  0  0  0  0  0  0  0  0
  -24.5970   -9.7210   21.7120 C   0  0  0  0  0  3  0  0  0  0  0  0
  -23.8430   -8.5370   21.8690 C   0  0  0  0  0  3  0  0  0  0  0  0
  -22.6310   -8.3670   21.1590 C   0  0  0  0  0  0  0  0  0  0  0  0
  -22.2040   -9.3780   20.2790 C   0  0  0  0  0  3  0  0  0  0  0  0
  -22.9580  -10.5540   20.1200 C   0  0  0  0  0  3  0  0  0  0  0  0
  -21.8470   -7.2400   21.2290 O   0  0  0  0  0  0  0  0  0  0  0  0
  -21.8530   -6.4270   22.3320 C   0  0  0  0  0  0  0  0  0  0  0  0
  -21.5390   -6.9150   23.6190 C   0  0  0  0  0  3  0  0  0  0  0  0
  -21.4890   -6.0300   24.7160 C   0  0  0  0  0  3  0  0  0  0  0  0
  -21.7410   -4.6580   24.5260 C   0  0  0  0  0  0  0  0  0  0  0  0
  -22.0470   -4.1690   23.2440 C   0  0  0  0  0  3  0  0  0  0  0  0
  -22.0990   -5.0500   22.1500 C   0  0  0  0  0  0  0  0  0  0  0  0
  -22.3740   -4.5710   20.9130 F   0  0  0  0  0  0  0  0  0  0  0  0
  -21.6860   -3.8060   25.5760 F   0  0  0  0  0  0  0  0  0  0  0  0
  -23.1040  -13.8560   21.0930 C   0  0  0  0  0  0  0  0  0  0  0  0
  -22.3880  -13.1570   21.9670 N   0  0  0  0  0  0  0  0  0  0  0  0
  -22.6740  -14.9000   20.6070 O   0  0  0  0  0  0  0  0  0  0  0  0
  -22.7480  -12.3120   22.3830 H   0  0  0  0  0  0  0  0  0  0  0  0
  -21.4630  -13.4750   22.2210 H   0  0  0  0  0  0  0  0  0  0  0  0
  -25.7570  -15.4840   20.2650 N   0  0  0  0  0  0  0  0  0  0  0  0
  -25.0230  -16.1640   20.4360 H   0  0  0  0  0  0  0  0  0  0  0  0
  -26.6320  -15.9100   19.9790 H   0  0  0  0  0  0  0  0  0  0  0  0
  -28.4300  -22.8150   20.4120 N   0  0  1  0  0  4  0  0  0  0  0  0
  -28.1450  -22.7400   19.4450 H   0  0  0  0  0  0  0  0  0  0  0  0
  -26.0900  -23.7530   20.8510 C   0  0  0  0  0  1  0  0  0  0  0  0
  -27.1650  -22.7170   21.2120 C   0  0  0  0  0  2  0  0  0  0  0  0
  -29.0810  -24.1920   20.5350 C   0  0  0  0  0  2  0  0  0  0  0  0
  -28.6670  -25.2840   19.4610 C   0  0  0  0  0  2  0  0  0  0  0  0
  -28.6220  -26.7000   19.8820 O   0  0  0  0  0  0  0  0  0  0  0  0
  -24.7270  -31.7720   23.1610 C   0  0  0  0  0  0  0  0  0  0  0  0
  -27.4420  -27.4530   19.8730 C   0  0  0  0  0  0  0  0  0  0  0  0
  -23.5440  -30.4010   21.4840 C   0  0  0  0  0  3  0  0  0  0  0  0
  -25.0190  -28.9680   19.9730 C   0  0  0  0  0  0  0  0  0  0  0  0
  -26.0660  -30.8180   21.2770 C   0  0  0  0  0  2  0  0  0  0  0  0
  -26.1780  -29.4730   20.5740 C   0  0  0  0  0  0  0  0  0  0  0  0
  -27.3860  -28.7220   20.5230 C   0  0  0  0  0  3  0  0  0  0  0  0
  -26.2560  -27.0080   19.2400 C   0  0  0  0  0  3  0  0  0  0  0  0
  -25.0580  -27.7400   19.3020 C   0  0  0  0  0  3  0  0  0  0  0  0
  -23.7560  -29.7930   20.0730 C   0  0  0  0  0  2  0  0  0  0  0  0
  -24.7980  -31.0120   22.0310 N   0  0  0  0  0  0  0  0  0  0  0  0
  -23.6440  -31.9900   23.7230 O   0  0  0  0  0  0  0  0  0  0  0  0
  -22.9370  -29.3190   22.4080 C   0  0  0  0  0  0  0  0  0  0  0  0
  -21.6220  -29.0800   22.2740 N   0  0  0  0  0  0  0  0  0  0  0  0
  -23.6470  -28.7020   23.2070 O   0  0  0  0  0  0  0  0  0  0  0  0
  -21.1050  -29.6350   21.6060 H   0  0  0  0  0  0  0  0  0  0  0  0
  -18.3230  -27.6590   22.6780 C   0  0  0  0  0  0  0  0  0  0  0  0
  -20.8510  -28.0810   23.0150 C   0  0  0  0  0  3  0  0  0  0  0  0
  -21.0610  -26.6650   22.4290 C   0  0  0  0  0  2  0  0  0  0  0  0
  -20.0090  -26.2840   21.3820 C   0  0  0  0  0  2  0  0  0  0  0  0
  -18.6020  -26.3340   21.9890 C   0  0  0  0  0  2  0  0  0  0  0  0
  -19.3780  -28.4870   23.1450 C   0  0  0  0  0  0  0  0  0  0  0  0
  -19.0640  -29.7250   23.7450 C   0  0  0  0  0  3  0  0  0  0  0  0
  -17.7250  -30.1380   23.8830 C   0  0  0  0  0  3  0  0  0  0  0  0
  -16.6830  -29.3090   23.4340 C   0  0  0  0  0  3  0  0  0  0  0  0
  -16.9820  -28.0710   22.8370 C   0  0  0  0  0  3  0  0  0  0  0  0
  -25.9990  -32.4210   23.7890 C   0  0  0  0  0  3  0  0  0  0  0  0
  -26.5370  -31.6420   25.0520 C   0  0  1  0  0  0  0  0  0  0  0  0
  -25.4550  -31.3760   26.1240 C   0  0  0  0  0  1  0  0  0  0  0  0
  -27.1380  -30.2770   24.6400 C   0  0  0  0  0  1  0  0  0  0  0  0
  -27.6790  -32.4450   25.7160 C   0  0  0  0  0  1  0  0  0  0  0  0
  -25.6610  -33.8070   24.1420 N   0  0  0  0  0  0  0  0  0  0  0  0
  -25.9710  -34.8800   23.4010 C   0  0  0  0  0  0  0  0  0  0  0  0
  -26.6440  -34.8080   22.3690 O   0  0  0  0  0  0  0  0  0  0  0  0
  -25.0640  -33.9360   24.9450 H   0  0  0  0  0  0  0  0  0  0  0  0
  -24.1980  -36.6340   23.0820 C   0  0  0  0  0  1  0  0  0  0  0  0
  -25.4530  -36.2490   23.8810 C   0  0  0  0  0  3  0  0  0  0  0  0
  -27.5720  -37.1720   24.7110 C   0  0  0  0  0  1  0  0  0  0  0  0
  -26.4590  -37.3280   23.7770 N   0  0  0  0  0  0  0  0  0  0  0  0
  -26.0330  -38.2350   23.9410 H   0  0  0  0  0  0  0  0  0  0  0  0
  1  4  1  0
  2  7  1  0
  3  8  1  0
  3  2  1  0
  4  2  2  0
  4 12  1  0
  5  6  1  0
  5  1  2  0
  6  3  2  0
  8 11  1  0
  9  7  1  0
 10  9  1  0
 11 51  1  0
 11 10  1  0
 13  5  1  0
 14  6  1  0
 15  1  1  0
 16 21  1  0
 17 18  1  0
 17 16  1  0
 19 18  1  0
 19 26  1  0
 19 20  1  0
 21 15  1  0
 21 20  1  0
 22 15  2  0
 23 24  2  0
 24 43  1  0
 25 24  1  0
 25 28  1  0
 26 27  1  0
 26 23  1  0
 27 25  2  0
 28 29  1  0
 29 30  2  0
 31 34  1  0
 31 30  1  0
 32 31  2  0
 33 32  1  0
 33 28  2  0
 34 35  1  0
 35 36  1  0
 36 37  2  0
 38 37  1  0
 38 42  1  0
 39 38  2  0
 40 35  2  0
 40 39  1  0
 41 40  1  0
 43 44  1  0
 44 47  1  0
 44 46  1  0
 45 43  2  0
 48 23  1  0
 48 49  1  0
 50 48  1  0
 51 55  1  0
 51 54  1  0
 51 52  1  6
 53 54  1  0
 56 57  1  0
 56 55  1  0
 58 69  2  0
 59 57  1  0
 59 64  1  0
 60 68  1  0
 60 70  1  0
 61 67  1  0
 61 63  1  0
 62 68  1  0
 63 62  1  0
 64 63  2  0
 65 66  1  0
 65 59  2  0
 66 61  2  0
 67 60  1  0
 68 58  1  0
 70 72  2  0
 71 70  1  0
 73 71  1  0
 74 83  2  0
 74 79  1  0
 75 71  1  0
 75 79  1  0
 76 75  1  0
 77 78  1  0
 77 76  1  0
 78 74  1  0
 79 80  2  0
 80 81  1  0
 82 81  2  0
 83 82  1  0
 84 58  1  0
 84 89  1  0
 84 85  1  0
 85 88  1  1
 85 86  1  0
 87 85  1  0
 89 92  1  0
 90 94  1  0
 90 89  1  0
 91 90  2  0
 94 93  1  0
 96 94  1  0
 96 97  1  0
 96 95  1  0
M  ISO  4   1 100  15 100  56 101  57 101
M  END
>  <TORSDO>  (74) 
F 20

>  <SCORE>  (74) 
-11.391

>  <name>  (74) 
73

>  <ligand_id>  (74) 
73

>  <original_smiles>  (74) 
[H]c1c([H])c([H])c2c(c1[H])C([H])([H])C([H])([H])C([H])([H])C2([H])N([H])C(=O)C1([H])N(C(=O)C([H])(N([H])C(=O)C([H])(N([H])C([H])([H])[H])C([H])([H])[H])C(C([H])([H])[H])(C([H])([H])[H])C([H])([H])[H])C([H])([H])c2c([H])c(OC([H])([H])C([H])([H])[N+]([H])(C([H])([H])C([H])([H])[H])C3([H])C([H])([H])c4c(C([H])([H])[H])c(C([H])([H])[H])c(C(=O)N5C([H])([H])C([H])([H])C([H])([H])C([H])(n6nc(-c7c([H])c([H])c(Oc8c([H])c([H])c(F)c([H])c8F)c([H])c7[H])c(C(=O)N([H])[H])c6N([H])[H])C5([H])[H])c(C([H])([H])[H])c4C([H])([H])C([H])([H])C3([H])[H])c([H])c([H])c2C1([H])[H]

>  <smiles>  (74) 
[H]c1c([H])c([H])c2c(c1[H])C([H])([H])C([H])([H])C([H])([H])C2([H])N([H])C(=O)C1([H])N(C(=O)C([H])(N([H])C(=O)C([H])(N([H])C([H])([H])[H])C([H])([H])[H])C(C([H])([H])[H])(C([H])([H])[H])C([H])([H])[H])C([H])([H])c2c([H])c(OC([H])([H])C([H])([H])[N+]([H])(C([H])([H])C([H])([H])[H])C3([H])C([H])([H])c4c(C([H])([H])[H])c(C([H])([H])[H])c(C(=O)N5C([H])([H])C([H])([H])C([H])([H])C([H])(n6nc(-c7c([H])c([H])c(Oc8c([H])c([H])c(F)c([H])c8F)c([H])c7[H])c(C(=O)N([H])[H])c6N([H])[H])C5([H])[H])c(C([H])([H])[H])c4C([H])([H])C([H])([H])C3([H])[H])c([H])c([H])c2C1([H])[H]

$$$$
74:0:0
     RDKit          3D

 92100  0  0  1  0  0  0  0  0999 V2000
  -28.8780  -23.2860   20.8670 C   0  0  0  0  0  3  0  0  0  0  0  0
  -28.6480  -24.4330   20.0790 C   0  0  0  0  0  3  0  0  0  0  0  0
  -29.3560  -24.7100   22.7820 C   0  0  0  0  0  3  0  0  0  0  0  0
  -29.2480  -23.4180   22.2250 C   0  0  0  0  0  0  0  0  0  0  0  0
  -29.1480  -25.8600   21.9940 C   0  0  0  0  0  0  0  0  0  0  0  0
  -28.7790  -25.7230   20.6310 C   0  0  0  0  0  0  0  0  0  0  0  0
  -29.3510  -27.2210   22.6320 C   0  0  0  0  0  1  0  0  0  0  0  0
  -29.5030  -22.2360   23.0940 C   0  0  0  0  0  0  0  0  0  0  0  0
  -29.3930  -22.2700   24.3240 O   0  0  0  0  0  0  0  0  0  0  0  0
  -29.9770  -20.9470   22.4130 C   0  0  0  0  0  2  0  0  0  0  0  0
  -31.0710  -20.2160   23.2170 C   0  0  0  0  0  2  0  0  0  0  0  0
  -31.7020  -19.0490   22.4450 C   0  0  0  0  0  2  0  0  0  0  0  0
  -30.7390  -17.8700   22.2510 C   0  0  0  0  0  2  0  0  0  0  0  0
  -31.3610  -16.7450   21.4130 C   0  0  0  0  0  2  0  0  0  0  0  0
  -30.4020  -15.5520   21.2310 C   0  0  0  0  0  2  0  0  0  0  0  0
  -30.8860  -14.5080   20.2110 C   0  0  0  0  0  0  0  0  0  0  0  0
  -30.4550  -12.4230   18.9570 C   0  0  0  0  0  2  0  0  0  0  0  0
  -29.4760  -12.6790   17.7950 C   0  0  0  0  0  2  0  0  0  0  0  0
  -28.0160  -12.5750   18.2760 C   0  0  0  0  0  2  0  0  0  0  0  0
  -27.7500  -13.4100   19.5580 C   0  0  0  0  0  3  0  0  0  0  0  0
  -28.8300  -13.1280   20.6250 C   0  0  0  0  0  2  0  0  0  0  0  0
  -30.1490  -13.3840   20.0250 N   0  0  0  0  0  0  0  0  0  0  0  0
  -31.9190  -14.7360   19.5690 O   0  0  0  0  0  0  0  0  0  0  0  0
  -25.3860  -14.0820   20.3300 C   0  0  0  0  0  0  0  0  0  0  0  0
  -24.3110  -13.3370   20.7370 C   0  0  0  0  0  0  0  0  0  0  0  0
  -24.7390  -11.9750   20.7020 C   0  0  0  0  0  0  0  0  0  0  0  0
  -26.4040  -13.1750   20.0770 N   0  0  0  0  0  0  0  0  0  0  0  0
  -26.0180  -11.9020   20.3530 N   0  0  0  0  0  0  0  0  0  0  0  0
  -23.9900  -10.7310   20.9240 C   0  0  0  0  0  0  0  0  0  0  0  0
  -24.4320   -9.7580   21.8470 C   0  0  0  0  0  3  0  0  0  0  0  0
  -23.6860   -8.5770   22.0550 C   0  0  0  0  0  3  0  0  0  0  0  0
  -22.4830   -8.3640   21.3410 C   0  0  0  0  0  0  0  0  0  0  0  0
  -22.0600   -9.3250   20.4080 C   0  0  0  0  0  3  0  0  0  0  0  0
  -22.8060  -10.4960   20.1970 C   0  0  0  0  0  3  0  0  0  0  0  0
  -21.7070   -7.2360   21.4590 O   0  0  0  0  0  0  0  0  0  0  0  0
  -21.6790   -6.4980   22.6160 C   0  0  0  0  0  0  0  0  0  0  0  0
  -21.3250   -7.0740   23.8560 C   0  0  0  0  0  3  0  0  0  0  0  0
  -21.2400   -6.2660   25.0080 C   0  0  0  0  0  3  0  0  0  0  0  0
  -21.5000   -4.8850   24.9220 C   0  0  0  0  0  0  0  0  0  0  0  0
  -21.8490   -4.3110   23.6870 C   0  0  0  0  0  3  0  0  0  0  0  0
  -21.9350   -5.1150   22.5370 C   0  0  0  0  0  0  0  0  0  0  0  0
  -22.2500   -4.5530   21.3450 F   0  0  0  0  0  0  0  0  0  0  0  0
  -21.4130   -4.1080   26.0250 F   0  0  0  0  0  0  0  0  0  0  0  0
  -22.9350  -13.8480   21.0510 C   0  0  0  0  0  0  0  0  0  0  0  0
  -22.2220  -13.1790   21.9500 N   0  0  0  0  0  0  0  0  0  0  0  0
  -22.5000  -14.8770   20.5320 O   0  0  0  0  0  0  0  0  0  0  0  0
  -22.5860  -12.3480   22.3910 H   0  0  0  0  0  0  0  0  0  0  0  0
  -21.2980  -13.5040   22.2020 H   0  0  0  0  0  0  0  0  0  0  0  0
  -25.5780  -15.4460   20.1390 N   0  0  0  0  0  0  0  0  0  0  0  0
  -24.8360  -16.1250   20.2680 H   0  0  0  0  0  0  0  0  0  0  0  0
  -26.4380  -15.8600   19.7980 H   0  0  0  0  0  0  0  0  0  0  0  0
  -28.5870  -26.8060   19.8090 O   0  0  0  0  0  0  0  0  0  0  0  0
  -24.7310  -31.7420   23.1320 C   0  0  0  0  0  0  0  0  0  0  0  0
  -27.3870  -27.4660   19.8810 C   0  0  0  0  0  0  0  0  0  0  0  0
  -23.4990  -30.3360   21.5110 C   0  0  0  0  0  3  0  0  0  0  0  0
  -24.9390  -28.8630   20.0060 C   0  0  0  0  0  0  0  0  0  0  0  0
  -25.9970  -30.7860   21.2120 C   0  0  0  0  0  2  0  0  0  0  0  0
  -26.0990  -29.4310   20.5470 C   0  0  0  0  0  0  0  0  0  0  0  0
  -27.3260  -28.7460   20.4680 C   0  0  0  0  0  3  0  0  0  0  0  0
  -26.2160  -26.8970   19.3400 C   0  0  0  0  0  3  0  0  0  0  0  0
  -24.9900  -27.5940   19.3960 C   0  0  0  0  0  3  0  0  0  0  0  0
  -23.6730  -29.6790   20.1130 C   0  0  0  0  0  2  0  0  0  0  0  0
  -24.7640  -30.9660   22.0120 N   0  0  0  0  0  0  0  0  0  0  0  0
  -23.6670  -31.9740   23.7200 O   0  0  0  0  0  0  0  0  0  0  0  0
  -22.9170  -29.2800   22.4770 C   0  0  0  0  0  0  0  0  0  0  0  0
  -21.6070  -29.0200   22.3540 N   0  0  0  0  0  0  0  0  0  0  0  0
  -23.6400  -28.6980   23.2900 O   0  0  0  0  0  0  0  0  0  0  0  0
  -21.0840  -29.5460   21.6680 H   0  0  0  0  0  0  0  0  0  0  0  0
  -18.3330  -27.5510   22.7790 C   0  0  0  0  0  0  0  0  0  0  0  0
  -20.8470  -28.0380   23.1270 C   0  0  0  0  0  3  0  0  0  0  0  0
  -21.0930  -26.6050   22.6020 C   0  0  0  0  0  2  0  0  0  0  0  0
  -20.0600  -26.1580   21.5630 C   0  0  0  0  0  2  0  0  0  0  0  0
  -18.6490  -26.2020   22.1550 C   0  0  0  0  0  2  0  0  0  0  0  0
  -19.3660  -28.4190   23.2210 C   0  0  0  0  0  0  0  0  0  0  0  0
  -19.0190  -29.6770   23.7610 C   0  0  0  0  0  3  0  0  0  0  0  0
  -17.6720  -30.0690   23.8640 C   0  0  0  0  0  3  0  0  0  0  0  0
  -16.6530  -29.2000   23.4380 C   0  0  0  0  0  3  0  0  0  0  0  0
  -16.9830  -27.9430   22.9020 C   0  0  0  0  0  3  0  0  0  0  0  0
  -26.0250  -32.3940   23.7150 C   0  0  0  0  0  3  0  0  0  0  0  0
  -25.6870  -33.7690   24.1040 N   0  0  0  0  0  0  0  0  0  0  0  0
  -25.9690  -34.8570   23.3740 C   0  0  0  0  0  0  0  0  0  0  0  0
  -26.6130  -34.8080   22.3220 O   0  0  0  0  0  0  0  0  0  0  0  0
  -25.1080  -33.8770   24.9240 H   0  0  0  0  0  0  0  0  0  0  0  0
  -24.1800  -36.6080   23.1290 C   0  0  0  0  0  1  0  0  0  0  0  0
  -25.4550  -36.2130   23.8920 C   0  0  0  0  0  3  0  0  0  0  0  0
  -27.5900  -37.1290   24.6900 C   0  0  0  0  0  1  0  0  0  0  0  0
  -26.4540  -37.3000   23.7870 N   0  0  0  0  0  0  0  0  0  0  0  0
  -26.0290  -38.2020   23.9810 H   0  0  0  0  0  0  0  0  0  0  0  0
  -26.6270  -31.5970   24.9360 C   0  0  1  0  0  0  0  0  0  0  0  0
  -25.5960  -31.2870   26.0460 C   0  0  0  0  0  1  0  0  0  0  0  0
  -27.2320  -30.2550   24.4630 C   0  0  0  0  0  1  0  0  0  0  0  0
  -27.7850  -32.4060   25.5690 C   0  0  0  0  0  1  0  0  0  0  0  0
  1  4  1  0
  2  6  1  0
  2  1  2  0
  4  3  2  0
  4  8  1  0
  5  7  1  0
  5  3  1  0
  6  5  2  0
  8  9  2  0
 10  8  1  0
 10 11  1  0
 12 11  1  0
 13 12  1  0
 14 13  1  0
 15 14  1  0
 16 15  1  0
 17 22  1  0
 18 19  1  0
 18 17  1  0
 20 19  1  0
 20 27  1  0
 20 21  1  0
 22 16  1  0
 22 21  1  0
 23 16  2  0
 24 25  2  0
 25 44  1  0
 26 25  1  0
 26 29  1  0
 27 24  1  0
 27 28  1  0
 28 26  2  0
 29 30  1  0
 30 31  2  0
 32 35  1  0
 32 31  1  0
 33 32  2  0
 34 33  1  0
 34 29  2  0
 35 36  1  0
 36 37  1  0
 37 38  2  0
 39 38  1  0
 39 43  1  0
 40 39  2  0
 41 36  2  0
 41 40  1  0
 42 41  1  0
 44 45  1  0
 45 48  1  0
 45 47  1  0
 46 44  2  0
 49 50  1  0
 49 24  1  0
 51 49  1  0
 52 54  1  0
 52  6  1  0
 53 64  2  0
 54 59  1  0
 55 63  1  0
 55 65  1  0
 56 62  1  0
 56 58  1  0
 57 63  1  0
 58 57  1  0
 59 58  2  0
 60 61  1  0
 60 54  2  0
 61 56  2  0
 62 55  1  0
 63 53  1  0
 65 67  2  0
 66 65  1  0
 68 66  1  0
 69 78  2  0
 69 74  1  0
 70 66  1  0
 70 74  1  0
 71 70  1  0
 72 73  1  0
 72 71  1  0
 73 69  1  0
 74 75  2  0
 75 76  1  0
 77 76  2  0
 78 77  1  0
 79 53  1  0
 79 80  1  0
 79 89  1  0
 80 83  1  0
 81 85  1  0
 81 80  1  0
 82 81  2  0
 85 84  1  0
 87 85  1  0
 87 88  1  0
 87 86  1  0
 89 92  1  1
 89 90  1  0
 91 89  1  0
M  ISO  4   6 101  15 100  16 100  52 101
M  END
>  <TORSDO>  (75) 
F 23

>  <SCORE>  (75) 
-11.985

>  <name>  (75) 
74

>  <ligand_id>  (75) 
74

>  <original_smiles>  (75) 
[H]c1c([H])c([H])c2c(c1[H])C([H])([H])C([H])([H])C([H])([H])C2([H])N([H])C(=O)C1([H])N(C(=O)C([H])(N([H])C(=O)C([H])(N([H])C([H])([H])[H])C([H])([H])[H])C(C([H])([H])[H])(C([H])([H])[H])C([H])([H])[H])C([H])([H])c2c([H])c(Oc3c([H])c([H])c(C(=O)C([H])([H])C([H])([H])C([H])([H])C([H])([H])C([H])([H])C([H])([H])C(=O)N4C([H])([H])C([H])([H])C([H])([H])C([H])(n5nc(-c6c([H])c([H])c(Oc7c([H])c([H])c(F)c([H])c7F)c([H])c6[H])c(C(=O)N([H])[H])c5N([H])[H])C4([H])[H])c([H])c3C([H])([H])[H])c([H])c([H])c2C1([H])[H]

>  <smiles>  (75) 
[H]c1c([H])c([H])c2c(c1[H])C([H])([H])C([H])([H])C([H])([H])C2([H])N([H])C(=O)C1([H])N(C(=O)C([H])(N([H])C(=O)C([H])(N([H])C([H])([H])[H])C([H])([H])[H])C(C([H])([H])[H])(C([H])([H])[H])C([H])([H])[H])C([H])([H])c2c([H])c(Oc3c([H])c([H])c(C(=O)C([H])([H])C([H])([H])C([H])([H])C([H])([H])C([H])([H])C([H])([H])C(=O)N4C([H])([H])C([H])([H])C([H])([H])C([H])(n5nc(-c6c([H])c([H])c(Oc7c([H])c([H])c(F)c([H])c7F)c([H])c6[H])c(C(=O)N([H])[H])c5N([H])[H])C4([H])[H])c([H])c3C([H])([H])[H])c([H])c([H])c2C1([H])[H]

$$$$
75:0:0
     RDKit          3D

 98107  0  0  1  0  0  0  0  0999 V2000
  -26.2900  -22.7820   19.6280 C   0  0  0  0  0  2  0  0  0  0  0  0
  -26.8940  -21.7900   20.6220 C   0  0  0  0  0  2  0  0  0  0  0  0
  -27.1080  -24.5930   21.2600 C   0  0  0  0  0  2  0  0  0  0  0  0
  -29.2960  -22.4770   21.4260 C   0  0  0  0  0  2  0  0  0  0  0  0
  -28.1980  -25.5780   21.7720 C   0  0  0  0  0  3  0  0  0  0  0  0
  -30.0620  -23.8220   21.5410 C   0  0  0  0  0  3  0  0  0  0  0  0
  -27.4040  -23.7840   19.9570 C   0  0  1  0  0  0  0  0  0  0  0  0
  -28.3010  -22.3200   20.2480 C   0  0  2  0  0  0  0  0  0  0  0  0
  -29.4350  -24.9230   22.4670 C   0  0  2  0  0  0  0  0  0  0  0  0
  -27.4950  -26.6680   22.6200 C   0  0  0  0  0  1  0  0  0  0  0  0
  -29.0670  -24.3540   23.8590 C   0  0  0  0  0  1  0  0  0  0  0  0
  -30.5030  -26.0330   22.6970 C   0  0  0  0  0  1  0  0  0  0  0  0
  -31.3540  -23.4910   22.0310 O   0  0  0  0  0  0  0  0  0  0  0  0
  -31.8240  -24.3090   22.1580 H   0  0  0  0  0  0  0  0  0  0  0  0
  -28.9450  -21.0250   19.3580 C   0  0  0  0  0  2  0  0  0  0  0  0
  -29.4890  -19.5910   20.1060 C   0  0  0  0  0  2  0  0  0  0  0  0
  -28.1360  -17.8240   18.7140 C   0  0  0  0  0  1  0  0  0  0  0  0
  -29.2430  -17.9510   19.7710 C   0  0  0  0  0  3  0  0  0  0  0  0
  -30.9240  -15.6580   19.8940 C   0  0  0  0  0  0  0  0  0  0  0  0
  -30.7550  -13.2680   19.0890 C   0  0  0  0  0  2  0  0  0  0  0  0
  -29.8030  -13.0610   17.8980 C   0  0  0  0  0  2  0  0  0  0  0  0
  -28.3720  -12.8150   18.4040 C   0  0  0  0  0  2  0  0  0  0  0  0
  -27.9500  -13.8160   19.5130 C   0  0  0  0  0  3  0  0  0  0  0  0
  -29.0380  -14.0360   20.5800 C   0  0  0  0  0  2  0  0  0  0  0  0
  -30.2410  -14.4470   19.8480 N   0  0  0  0  0  0  0  0  0  0  0  0
  -32.1520  -15.5350   19.8190 O   0  0  0  0  0  0  0  0  0  0  0  0
  -31.3250  -17.6770   18.5740 C   0  0  0  0  0  1  0  0  0  0  0  0
  -30.4000  -16.9340   19.4540 N   0  0  0  0  0  0  0  0  0  0  0  0
  -25.6260  -14.3520   20.4240 C   0  0  0  0  0  0  0  0  0  0  0  0
  -24.5830  -13.5550   20.8070 C   0  0  0  0  0  0  0  0  0  0  0  0
  -25.0490  -12.2100   20.6910 C   0  0  0  0  0  0  0  0  0  0  0  0
  -26.6540  -13.4880   20.0880 N   0  0  0  0  0  0  0  0  0  0  0  0
  -26.3220  -12.1910   20.3170 N   0  0  0  0  0  0  0  0  0  0  0  0
  -24.3340  -10.9370   20.8580 C   0  0  0  0  0  0  0  0  0  0  0  0
  -24.7210   -9.9950   21.8360 C   0  0  0  0  0  3  0  0  0  0  0  0
  -24.0060   -8.7880   21.9890 C   0  0  0  0  0  3  0  0  0  0  0  0
  -22.8900   -8.5150   21.1620 C   0  0  0  0  0  0  0  0  0  0  0  0
  -22.5240   -9.4450   20.1730 C   0  0  0  0  0  3  0  0  0  0  0  0
  -23.2410  -10.6440   20.0180 C   0  0  0  0  0  3  0  0  0  0  0  0
  -22.1520   -7.3590   21.2230 O   0  0  0  0  0  0  0  0  0  0  0  0
  -21.9270   -6.7080   22.4100 C   0  0  0  0  0  0  0  0  0  0  0  0
  -21.1990   -7.3060   23.4610 C   0  0  0  0  0  3  0  0  0  0  0  0
  -20.9340   -6.5770   24.6380 C   0  0  0  0  0  3  0  0  0  0  0  0
  -21.3840   -5.2490   24.7610 C   0  0  0  0  0  0  0  0  0  0  0  0
  -22.1040   -4.6490   23.7120 C   0  0  0  0  0  3  0  0  0  0  0  0
  -22.3720   -5.3770   22.5390 C   0  0  0  0  0  0  0  0  0  0  0  0
  -23.0470   -4.7870   21.5240 F   0  0  0  0  0  0  0  0  0  0  0  0
  -21.1230   -4.5460   25.8880 F   0  0  0  0  0  0  0  0  0  0  0  0
  -23.2000  -14.0150   21.1650 C   0  0  0  0  0  0  0  0  0  0  0  0
  -22.5200  -13.2830   22.0390 N   0  0  0  0  0  0  0  0  0  0  0  0
  -22.7340  -15.0570   20.7060 O   0  0  0  0  0  0  0  0  0  0  0  0
  -22.9120  -12.4380   22.4280 H   0  0  0  0  0  0  0  0  0  0  0  0
  -21.5920  -13.5680   22.3230 H   0  0  0  0  0  0  0  0  0  0  0  0
  -25.7820  -15.7290   20.3040 N   0  0  0  0  0  0  0  0  0  0  0  0
  -25.0260  -16.3790   20.4920 H   0  0  0  0  0  0  0  0  0  0  0  0
  -26.6250  -16.1840   19.9800 H   0  0  0  0  0  0  0  0  0  0  0  0
  -27.4640  -25.0520   18.8560 C   0  0  0  0  0  2  0  0  0  0  0  0
  -27.5460  -26.5860   19.1500 O   0  0  0  0  0  0  0  0  0  0  0  0
  -24.5070  -31.9570   23.1190 C   0  0  0  0  0  0  0  0  0  0  0  0
  -26.4880  -27.5450   19.3060 C   0  0  0  0  0  0  0  0  0  0  0  0
  -23.0500  -30.7640   21.5260 C   0  0  0  0  0  3  0  0  0  0  0  0
  -24.2370  -29.3170   19.7620 C   0  0  0  0  0  0  0  0  0  0  0  0
  -25.5630  -30.9990   21.0400 C   0  0  0  0  0  2  0  0  0  0  0  0
  -25.4990  -29.6830   20.2460 C   0  0  0  0  0  0  0  0  0  0  0  0
  -26.6220  -28.8120   20.0000 C   0  0  0  0  0  3  0  0  0  0  0  0
  -25.2010  -27.2710   18.8030 C   0  0  0  0  0  3  0  0  0  0  0  0
  -24.0990  -28.1270   19.0270 C   0  0  0  0  0  3  0  0  0  0  0  0
  -23.0590  -30.2290   20.0690 C   0  0  0  0  0  2  0  0  0  0  0  0
  -24.4010  -31.2570   21.9480 N   0  0  0  0  0  0  0  0  0  0  0  0
  -23.5130  -32.2060   23.8170 O   0  0  0  0  0  0  0  0  0  0  0  0
  -22.4760  -29.6760   22.4660 C   0  0  0  0  0  0  0  0  0  0  0  0
  -21.1520  -29.4500   22.4050 N   0  0  0  0  0  0  0  0  0  0  0  0
  -23.2210  -29.0390   23.2160 O   0  0  0  0  0  0  0  0  0  0  0  0
  -20.6040  -30.0180   21.7730 H   0  0  0  0  0  0  0  0  0  0  0  0
  -17.8860  -27.9680   22.9130 C   0  0  0  0  0  0  0  0  0  0  0  0
  -20.4170  -28.4370   23.1670 C   0  0  0  0  0  3  0  0  0  0  0  0
  -20.6330  -27.0270   22.5660 C   0  0  0  0  0  2  0  0  0  0  0  0
  -19.5520  -26.6330   21.5560 C   0  0  0  0  0  2  0  0  0  0  0  0
  -18.1690  -26.6510   22.2110 C   0  0  0  0  0  2  0  0  0  0  0  0
  -18.9420  -28.8140   23.3480 C   0  0  0  0  0  0  0  0  0  0  0  0
  -18.6240  -30.0430   23.9660 C   0  0  0  0  0  3  0  0  0  0  0  0
  -17.2820  -30.4290   24.1540 C   0  0  0  0  0  3  0  0  0  0  0  0
  -16.2420  -29.5810   23.7360 C   0  0  0  0  0  3  0  0  0  0  0  0
  -16.5450  -28.3530   23.1200 C   0  0  0  0  0  3  0  0  0  0  0  0
  -25.8790  -32.4990   23.6270 C   0  0  0  0  0  3  0  0  0  0  0  0
  -25.6710  -33.8790   24.0910 N   0  0  0  0  0  0  0  0  0  0  0  0
  -26.0350  -34.9780   23.4170 C   0  0  0  0  0  0  0  0  0  0  0  0
  -26.6480  -34.9310   22.3480 O   0  0  0  0  0  0  0  0  0  0  0  0
  -25.1250  -33.9940   24.9320 H   0  0  0  0  0  0  0  0  0  0  0  0
  -24.4350  -36.9180   23.2920 C   0  0  0  0  0  1  0  0  0  0  0  0
  -25.6590  -36.3450   24.0240 C   0  0  0  0  0  3  0  0  0  0  0  0
  -27.8590  -37.0020   24.8950 C   0  0  0  0  0  1  0  0  0  0  0  0
  -26.7620  -37.3290   23.9880 N   0  0  0  0  0  0  0  0  0  0  0  0
  -26.4230  -38.2580   24.2230 H   0  0  0  0  0  0  0  0  0  0  0  0
  -26.5060  -31.6190   24.7780 C   0  0  1  0  0  0  0  0  0  0  0  0
  -25.5350  -31.3420   25.9490 C   0  0  0  0  0  1  0  0  0  0  0  0
  -26.9800  -30.2530   24.2290 C   0  0  0  0  0  1  0  0  0  0  0  0
  -27.7590  -32.3220   25.3490 C   0  0  0  0  0  1  0  0  0  0  0  0
  1  7  1  0
  1  2  1  0
  3  5  1  0
  4  6  1  0
  5  9  1  0
  5 10  1  0
  6 13  1  0
  6  9  1  0
  7 57  1  6
  7  8  1  0
  7  3  1  0
  8 15  1  6
  8  2  1  0
  8  4  1  0
  9 12  1  1
  9 11  1  0
 13 14  1  0
 15 16  1  0
 18 17  1  0
 18 16  1  0
 20 25  1  0
 21 22  1  0
 21 20  1  0
 23 22  1  0
 23 32  1  0
 23 24  1  0
 25 19  1  0
 25 24  1  0
 26 19  2  0
 27 28  1  0
 28 18  1  0
 28 19  1  0
 29 30  2  0
 30 49  1  0
 31 30  1  0
 31 34  1  0
 32 33  1  0
 32 29  1  0
 33 31  2  0
 34 35  1  0
 35 36  2  0
 37 40  1  0
 37 36  1  0
 38 37  2  0
 39 38  1  0
 39 34  2  0
 40 41  1  0
 41 46  2  0
 41 42  1  0
 42 43  2  0
 43 44  1  0
 44 48  1  0
 45 44  2  0
 46 45  1  0
 47 46  1  0
 49 50  1  0
 50 53  1  0
 50 52  1  0
 51 49  2  0
 54 29  1  0
 54 55  1  0
 56 54  1  0
 57 58  1  0
 58 60  1  0
 59 70  2  0
 60 65  1  0
 61 69  1  0
 61 71  1  0
 62 68  1  0
 62 64  1  0
 63 69  1  0
 64 63  1  0
 65 64  2  0
 66 67  1  0
 66 60  2  0
 67 62  2  0
 68 61  1  0
 69 59  1  0
 71 73  2  0
 72 71  1  0
 74 72  1  0
 75 84  2  0
 75 80  1  0
 76 72  1  0
 76 80  1  0
 77 76  1  0
 78 79  1  0
 78 77  1  0
 79 75  1  0
 80 81  2  0
 81 82  1  0
 83 82  2  0
 84 83  1  0
 85 59  1  0
 85 86  1  0
 85 95  1  0
 86 89  1  0
 87 91  1  0
 87 86  1  0
 88 87  2  0
 91 90  1  0
 93 91  1  0
 93 94  1  0
 93 92  1  0
 95 98  1  1
 95 96  1  0
 97 95  1  0
M  ISO  4  19 100  28 100  57 101  58 101
M  END
>  <TORSDO>  (76) 
F 21

>  <SCORE>  (76) 
-12.526

>  <name>  (76) 
75

>  <ligand_id>  (76) 
75

>  <original_smiles>  (76) 
[H]OC1([H])C([H])([H])C2(C([H])([H])C([H])([H])C([H])(N(C(=O)N3C([H])([H])C([H])([H])C([H])([H])C([H])(n4nc(-c5c([H])c([H])c(Oc6c([H])c([H])c(F)c([H])c6F)c([H])c5[H])c(C(=O)N([H])[H])c4N([H])[H])C3([H])[H])C([H])([H])[H])C([H])([H])[H])C([H])([H])C([H])([H])C2(C([H])([H])Oc2c([H])c([H])c3c(c2[H])C([H])([H])N(C(=O)C([H])(N([H])C(=O)C([H])(N([H])C([H])([H])[H])C([H])([H])[H])C(C([H])([H])[H])(C([H])([H])[H])C([H])([H])[H])C([H])(C(=O)N([H])C2([H])c4c([H])c([H])c([H])c([H])c4C([H])([H])C([H])([H])C2([H])[H])C3([H])[H])C([H])([H])C([H])(C([H])([H])[H])C1(C([H])([H])[H])C([H])([H])[H]

>  <smiles>  (76) 
[H]OC1([H])C([H])([H])C2(C([H])([H])C([H])([H])C([H])(N(C(=O)N3C([H])([H])C([H])([H])C([H])([H])C([H])(n4nc(-c5c([H])c([H])c(Oc6c([H])c([H])c(F)c([H])c6F)c([H])c5[H])c(C(=O)N([H])[H])c4N([H])[H])C3([H])[H])C([H])([H])[H])C([H])([H])[H])C([H])([H])C([H])([H])C2(C([H])([H])Oc2c([H])c([H])c3c(c2[H])C([H])([H])N(C(=O)C([H])(N([H])C(=O)C([H])(N([H])C([H])([H])[H])C([H])([H])[H])C(C([H])([H])[H])(C([H])([H])[H])C([H])([H])[H])C([H])(C(=O)N([H])C2([H])c4c([H])c([H])c([H])c([H])c4C([H])([H])C([H])([H])C2([H])[H])C3([H])[H])C([H])([H])C([H])(C([H])([H])[H])C1(C([H])([H])[H])C([H])([H])[H]

$$$$
76:0:0
     RDKit          3D

 95104  0  0  1  0  0  0  0  0999 V2000
  -28.6990  -21.6410   20.9920 C   0  0  0  0  0  3  0  0  0  0  0  0
  -28.8980  -20.4860   20.0510 C   0  0  0  0  0  0  0  0  0  0  0  0
  -28.2930  -23.1310   20.7870 C   0  0  0  0  0  0  0  0  0  0  0  0
  -28.1610  -22.7460   18.5940 C   0  0  0  0  0  0  0  0  0  0  0  0
  -27.9380  -23.8980   19.5280 C   0  0  0  0  0  0  0  0  0  0  0  0
  -28.5700  -21.2740   18.8200 C   0  0  0  0  0  0  0  0  0  0  0  0
  -28.0330  -23.1280   17.1320 C   0  0  0  0  0  1  0  0  0  0  0  0
  -28.6880  -20.5590   17.6750 F   0  0  0  0  0  0  0  0  0  0  0  0
  -30.1910  -15.9450   20.3610 C   0  0  0  0  0  0  0  0  0  0  0  0
  -30.4250  -13.3380   19.7060 C   0  0  0  0  0  2  0  0  0  0  0  0
  -29.6190  -12.7960   18.4880 C   0  0  0  0  0  2  0  0  0  0  0  0
  -28.2000  -12.3920   18.9100 C   0  0  0  0  0  2  0  0  0  0  0  0
  -27.5930  -13.4380   19.8700 C   0  0  0  0  0  3  0  0  0  0  0  0
  -28.5480  -13.9000   20.9990 C   0  0  0  0  0  2  0  0  0  0  0  0
  -29.7150  -14.5470   20.3510 N   0  0  0  0  0  0  0  0  0  0  0  0
  -31.4320  -15.8720   20.2490 O   0  0  0  0  0  0  0  0  0  0  0  0
  -29.6800  -18.8560   20.1530 C   0  0  0  0  0  0  0  0  0  0  0  0
  -29.4030  -17.3170   20.3280 N   0  0  0  0  0  0  0  0  0  0  0  0
  -30.8920  -19.0390   20.0130 O   0  0  0  0  0  0  0  0  0  0  0  0
  -28.4130  -17.1590   20.4240 H   0  0  0  0  0  0  0  0  0  0  0  0
  -25.2060  -13.9200   20.5770 C   0  0  0  0  0  0  0  0  0  0  0  0
  -24.1530  -13.1190   20.9140 C   0  0  0  0  0  0  0  0  0  0  0  0
  -24.6500  -11.7790   20.8970 C   0  0  0  0  0  0  0  0  0  0  0  0
  -26.2730  -13.0700   20.3600 N   0  0  0  0  0  0  0  0  0  0  0  0
  -25.9520  -11.7740   20.6200 N   0  0  0  0  0  0  0  0  0  0  0  0
  -23.9410  -10.5030   21.0680 C   0  0  0  0  0  0  0  0  0  0  0  0
  -24.3440   -9.5560   22.0350 C   0  0  0  0  0  3  0  0  0  0  0  0
  -23.6300   -8.3480   22.1950 C   0  0  0  0  0  3  0  0  0  0  0  0
  -22.5010   -8.0790   21.3860 C   0  0  0  0  0  0  0  0  0  0  0  0
  -22.1170   -9.0160   20.4100 C   0  0  0  0  0  3  0  0  0  0  0  0
  -22.8310  -10.2150   20.2500 C   0  0  0  0  0  3  0  0  0  0  0  0
  -21.7620   -6.9220   21.4540 O   0  0  0  0  0  0  0  0  0  0  0  0
  -21.6620   -6.1980   22.6160 C   0  0  0  0  0  0  0  0  0  0  0  0
  -21.1340   -6.7590   23.7990 C   0  0  0  0  0  3  0  0  0  0  0  0
  -20.9830   -5.9620   24.9500 C   0  0  0  0  0  3  0  0  0  0  0  0
  -21.3490   -4.6020   24.9190 C   0  0  0  0  0  0  0  0  0  0  0  0
  -21.8670   -4.0400   23.7380 C   0  0  0  0  0  3  0  0  0  0  0  0
  -22.0190   -4.8360   22.5900 C   0  0  0  0  0  0  0  0  0  0  0  0
  -22.5010   -4.2830   21.4500 F   0  0  0  0  0  0  0  0  0  0  0  0
  -21.1970   -3.8330   26.0220 F   0  0  0  0  0  0  0  0  0  0  0  0
  -22.7390  -13.5710   21.1320 C   0  0  0  0  0  0  0  0  0  0  0  0
  -21.9980  -12.8730   21.9840 N   0  0  0  0  0  0  0  0  0  0  0  0
  -22.3010  -14.5800   20.5830 O   0  0  0  0  0  0  0  0  0  0  0  0
  -22.3640  -12.0560   22.4500 H   0  0  0  0  0  0  0  0  0  0  0  0
  -21.0470  -13.1590   22.1720 H   0  0  0  0  0  0  0  0  0  0  0  0
  -25.3460  -15.2940   20.4020 N   0  0  0  0  0  0  0  0  0  0  0  0
  -24.5640  -15.9330   20.5020 H   0  0  0  0  0  0  0  0  0  0  0  0
  -26.1880  -15.7460   20.0700 H   0  0  0  0  0  0  0  0  0  0  0  0
  -28.6720  -26.2570   23.9510 C   0  0  0  0  0  2  0  0  0  0  0  0
  -27.3010  -25.6040   23.7100 C   0  0  0  0  0  2  0  0  0  0  0  0
  -29.8230  -25.2710   23.6900 C   0  0  0  0  0  2  0  0  0  0  0  0
  -27.2320  -24.9660   22.3150 C   0  0  0  0  0  2  0  0  0  0  0  0
  -29.7140  -24.6180   22.2980 C   0  0  0  0  0  2  0  0  0  0  0  0
  -28.3510  -23.9250   22.1030 C   0  0  0  0  0  3  0  0  0  0  0  0
  -27.7510  -25.4900   19.1460 O   0  0  0  0  0  0  0  0  0  0  0  0
  -24.6680  -31.7020   22.7650 C   0  0  0  0  0  0  0  0  0  0  0  0
  -26.7670  -26.7030   19.2890 C   0  0  0  0  0  0  0  0  0  0  0  0
  -23.2850  -30.3980   21.2090 C   0  0  0  0  0  3  0  0  0  0  0  0
  -24.5390  -28.7870   19.5770 C   0  0  0  0  0  0  0  0  0  0  0  0
  -25.8380  -30.5030   20.8110 C   0  0  0  0  0  2  0  0  0  0  0  0
  -25.8030  -29.0930   20.0930 C   0  0  0  0  0  0  0  0  0  0  0  0
  -26.8930  -28.0810   19.9230 C   0  0  0  0  0  3  0  0  0  0  0  0
  -25.4670  -26.6230   18.7250 C   0  0  0  0  0  3  0  0  0  0  0  0
  -24.4090  -27.5790   18.8660 C   0  0  0  0  0  3  0  0  0  0  0  0
  -23.3630  -29.7580   19.7920 C   0  0  0  0  0  2  0  0  0  0  0  0
  -24.6280  -30.8980   21.6460 N   0  0  0  0  0  0  0  0  0  0  0  0
  -23.6420  -31.9960   23.4030 O   0  0  0  0  0  0  0  0  0  0  0  0
  -22.6560  -29.3900   22.2100 C   0  0  0  0  0  0  0  0  0  0  0  0
  -21.3210  -29.2120   22.1760 N   0  0  0  0  0  0  0  0  0  0  0  0
  -23.3810  -28.7640   22.9860 O   0  0  0  0  0  0  0  0  0  0  0  0
  -20.7840  -29.7700   21.5280 H   0  0  0  0  0  0  0  0  0  0  0  0
  -18.0100  -27.8840   22.8710 C   0  0  0  0  0  0  0  0  0  0  0  0
  -20.5700  -28.2440   22.9860 C   0  0  0  0  0  3  0  0  0  0  0  0
  -20.6870  -26.8190   22.3950 C   0  0  0  0  0  2  0  0  0  0  0  0
  -19.5420  -26.4650   21.4410 C   0  0  0  0  0  2  0  0  0  0  0  0
  -18.1960  -26.5510   22.1670 C   0  0  0  0  0  2  0  0  0  0  0  0
  -19.1220  -28.6860   23.2410 C   0  0  0  0  0  0  0  0  0  0  0  0
  -18.8900  -29.9280   23.8700 C   0  0  0  0  0  3  0  0  0  0  0  0
  -17.5780  -30.3730   24.1250 C   0  0  0  0  0  3  0  0  0  0  0  0
  -16.4830  -29.5700   23.7660 C   0  0  0  0  0  3  0  0  0  0  0  0
  -16.6990  -28.3260   23.1470 C   0  0  0  0  0  3  0  0  0  0  0  0
  -26.0040  -32.3080   23.2950 C   0  0  0  0  0  3  0  0  0  0  0  0
  -25.7050  -33.6060   23.9340 N   0  0  0  0  0  0  0  0  0  0  0  0
  -25.9160  -34.8090   23.3800 C   0  0  0  0  0  0  0  0  0  0  0  0
  -26.4410  -34.9430   22.2720 O   0  0  0  0  0  0  0  0  0  0  0  0
  -25.2230  -33.5700   24.8210 H   0  0  0  0  0  0  0  0  0  0  0  0
  -24.1350  -36.5750   23.6360 C   0  0  0  0  0  1  0  0  0  0  0  0
  -25.4810  -36.0590   24.1750 C   0  0  0  0  0  3  0  0  0  0  0  0
  -27.6970  -36.8470   24.8880 C   0  0  0  0  0  1  0  0  0  0  0  0
  -26.4770  -37.1540   24.1470 N   0  0  0  0  0  0  0  0  0  0  0  0
  -26.0820  -38.0100   24.5290 H   0  0  0  0  0  0  0  0  0  0  0  0
  -26.7420  -31.3650   24.3260 C   0  0  1  0  0  0  0  0  0  0  0  0
  -25.8470  -30.9030   25.5000 C   0  0  0  0  0  1  0  0  0  0  0  0
  -27.2830  -30.0980   23.6280 C   0  0  0  0  0  1  0  0  0  0  0  0
  -27.9720  -32.0940   24.9190 C   0  0  0  0  0  1  0  0  0  0  0  0
  2 17  1  0
  2  1  2  0
  3  1  1  0
  3 54  1  0
  4  6  2  0
  4  5  1  0
  5  3  2  0
  6  2  1  0
  7  4  1  0
  8  6  1  0
 10 15  1  0
 11 12  1  0
 11 10  1  0
 13 12  1  0
 13 24  1  0
 13 14  1  0
 15  9  1  0
 15 14  1  0
 16  9  2  0
 17 18  1  0
 18  9  1  0
 18 20  1  0
 19 17  2  0
 21 22  2  0
 22 41  1  0
 23 22  1  0
 23 26  1  0
 24 21  1  0
 24 25  1  0
 25 23  2  0
 26 27  1  0
 27 28  2  0
 29 32  1  0
 29 28  1  0
 30 29  2  0
 31 30  1  0
 31 26  2  0
 32 33  1  0
 33 34  1  0
 34 35  2  0
 36 35  1  0
 36 40  1  0
 37 36  2  0
 38 33  2  0
 38 37  1  0
 39 38  1  0
 41 42  1  0
 42 45  1  0
 42 44  1  0
 43 41  2  0
 46 47  1  0
 46 21  1  0
 48 46  1  0
 50 49  1  0
 51 49  1  0
 52 50  1  0
 53 51  1  0
 54 53  1  0
 54 52  1  0
 55 57  1  0
 55  5  1  0
 56 67  2  0
 57 62  1  0
 58 66  1  0
 58 68  1  0
 59 65  1  0
 59 61  1  0
 60 66  1  0
 61 60  1  0
 62 61  2  0
 63 64  1  0
 63 57  2  0
 64 59  2  0
 65 58  1  0
 66 56  1  0
 68 70  2  0
 69 68  1  0
 71 69  1  0
 72 81  2  0
 72 77  1  0
 73 69  1  0
 73 77  1  0
 74 73  1  0
 75 76  1  0
 75 74  1  0
 76 72  1  0
 77 78  2  0
 78 79  1  0
 80 79  2  0
 81 80  1  0
 82 56  1  0
 82 83  1  0
 82 92  1  0
 83 86  1  0
 84 83  1  0
 84 88  1  0
 85 84  2  0
 88 87  1  0
 90 88  1  0
 90 91  1  0
 90 89  1  0
 92 95  1  1
 92 93  1  0
 94 92  1  0
M  ISO  4   5 101   9 100  18 100  55 101
M  END
>  <TORSDO>  (77) 
F 17

>  <SCORE>  (77) 
-13.934

>  <name>  (77) 
76

>  <ligand_id>  (77) 
76

>  <original_smiles>  (77) 
[H]c1c([H])c([H])c2c(c1[H])C([H])([H])C([H])([H])C([H])([H])C2([H])N([H])C(=O)C1([H])N(C(=O)C([H])(N([H])C(=O)C([H])(N([H])C([H])([H])[H])C([H])([H])[H])C(C([H])([H])[H])(C([H])([H])[H])C([H])([H])[H])C([H])([H])c2c([H])c(Oc3c(C([H])([H])[H])c(F)c(C(=O)N([H])C(=O)N4C([H])([H])C([H])([H])C([H])([H])C([H])(n5nc(-c6c([H])c([H])c(Oc7c([H])c([H])c(F)c([H])c7F)c([H])c6[H])c(C(=O)N([H])[H])c5N([H])[H])C4([H])[H])c([H])c3C3([H])C([H])([H])C([H])([H])C([H])([H])C([H])([H])C3([H])[H])c([H])c([H])c2C1([H])[H]

>  <smiles>  (77) 
[H]c1c([H])c([H])c2c(c1[H])C([H])([H])C([H])([H])C([H])([H])C2([H])N([H])C(=O)C1([H])N(C(=O)C([H])(N([H])C(=O)C([H])(N([H])C([H])([H])[H])C([H])([H])[H])C(C([H])([H])[H])(C([H])([H])[H])C([H])([H])[H])C([H])([H])c2c([H])c(Oc3c(C([H])([H])[H])c(F)c(C(=O)N([H])C(=O)N4C([H])([H])C([H])([H])C([H])([H])C([H])(n5nc(-c6c([H])c([H])c(Oc7c([H])c([H])c(F)c([H])c7F)c([H])c6[H])c(C(=O)N([H])[H])c5N([H])[H])C4([H])[H])c([H])c3C3([H])C([H])([H])C([H])([H])C([H])([H])C([H])([H])C3([H])[H])c([H])c([H])c2C1([H])[H]

$$$$
77:0:0
     RDKit          3D

 97107  0  0  1  0  0  0  0  0999 V2000
  -28.4940  -24.0770   20.9610 C   0  0  0  0  0  0  0  0  0  0  0  0
  -28.0210  -22.0410   19.1460 C   0  0  0  0  0  0  0  0  0  0  0  0
  -28.5930  -21.4890   20.3750 C   0  0  0  0  0  0  0  0  0  0  0  0
  -27.9190  -24.6250   19.7340 C   0  0  0  0  0  0  0  0  0  0  0  0
  -28.7970  -22.6410   21.2440 C   0  0  0  0  0  0  0  0  0  0  0  0
  -27.7310  -23.4760   18.8540 C   0  0  0  0  0  0  0  0  0  0  0  0
  -27.6750  -21.0590   18.0360 C   0  0  0  0  0  1  0  0  0  0  0  0
  -29.3200  -22.3380   22.4550 F   0  0  0  0  0  0  0  0  0  0  0  0
  -27.2480  -23.7560   17.6190 F   0  0  0  0  0  0  0  0  0  0  0  0
  -30.1130  -25.8910   21.6330 C   0  0  0  0  0  2  0  0  0  0  0  0
  -30.1880  -26.8200   22.8420 C   0  0  0  0  0  2  0  0  0  0  0  0
  -28.9740  -24.7610   23.5330 C   0  0  0  0  0  2  0  0  0  0  0  0
  -27.8280  -26.1050   22.5910 C   0  0  0  0  0  2  0  0  0  0  0  0
  -28.8690  -25.1060   22.0280 C   0  0  2  0  0  0  0  0  0  0  0  0
  -28.9720  -26.2990   23.5970 C   0  0  2  0  0  0  0  0  0  0  0  0
  -28.7200  -27.0300   24.9100 C   0  0  0  0  0  1  0  0  0  0  0  0
  -27.8260  -26.1050   19.3490 O   0  0  0  0  0  0  0  0  0  0  0  0
  -24.5440  -31.8210   22.9890 C   0  0  0  0  0  0  0  0  0  0  0  0
  -26.7820  -27.1420   19.4840 C   0  0  0  0  0  0  0  0  0  0  0  0
  -23.2030  -30.5380   21.3730 C   0  0  0  0  0  3  0  0  0  0  0  0
  -24.5060  -29.0070   19.7470 C   0  0  0  0  0  0  0  0  0  0  0  0
  -25.7490  -30.7410   21.0300 C   0  0  0  0  0  2  0  0  0  0  0  0
  -25.7420  -29.3760   20.2910 C   0  0  0  0  0  0  0  0  0  0  0  0
  -26.8730  -28.4640   20.1360 C   0  0  0  0  0  3  0  0  0  0  0  0
  -25.5140  -26.9110   18.9110 C   0  0  0  0  0  3  0  0  0  0  0  0
  -24.4120  -27.7960   19.0400 C   0  0  0  0  0  3  0  0  0  0  0  0
  -23.3090  -29.9330   19.9460 C   0  0  0  0  0  2  0  0  0  0  0  0
  -24.5250  -31.0560   21.8510 N   0  0  0  0  0  0  0  0  0  0  0  0
  -23.5040  -32.0910   23.6120 O   0  0  0  0  0  0  0  0  0  0  0  0
  -22.5760  -29.4920   22.3310 C   0  0  0  0  0  0  0  0  0  0  0  0
  -21.2440  -29.3090   22.2650 N   0  0  0  0  0  0  0  0  0  0  0  0
  -23.2920  -28.8460   23.1000 O   0  0  0  0  0  0  0  0  0  0  0  0
  -20.7180  -29.8820   21.6200 H   0  0  0  0  0  0  0  0  0  0  0  0
  -17.9140  -28.0000   22.8580 C   0  0  0  0  0  0  0  0  0  0  0  0
  -20.4740  -28.3300   23.0370 C   0  0  0  0  0  3  0  0  0  0  0  0
  -20.5930  -26.9160   22.4190 C   0  0  0  0  0  2  0  0  0  0  0  0
  -19.4630  -26.5920   21.4360 C   0  0  0  0  0  2  0  0  0  0  0  0
  -18.1020  -26.6770   22.1340 C   0  0  0  0  0  2  0  0  0  0  0  0
  -19.0270  -28.7830   23.2680 C   0  0  0  0  0  0  0  0  0  0  0  0
  -18.7930  -30.0170   23.9110 C   0  0  0  0  0  3  0  0  0  0  0  0
  -17.4820  -30.4720   24.1450 C   0  0  0  0  0  3  0  0  0  0  0  0
  -16.3850  -29.6870   23.7480 C   0  0  0  0  0  3  0  0  0  0  0  0
  -16.6020  -28.4520   23.1110 C   0  0  0  0  0  3  0  0  0  0  0  0
  -25.8720  -32.4120   23.5550 C   0  0  0  0  0  3  0  0  0  0  0  0
  -26.5080  -31.5200   24.6920 C   0  0  1  0  0  0  0  0  0  0  0  0
  -25.5260  -31.1740   25.8370 C   0  0  0  0  0  1  0  0  0  0  0  0
  -27.0430  -30.1890   24.1190 C   0  0  0  0  0  1  0  0  0  0  0  0
  -27.7220  -32.2530   25.3100 C   0  0  0  0  0  1  0  0  0  0  0  0
  -25.5830  -33.7630   24.0700 N   0  0  0  0  0  0  0  0  0  0  0  0
  -25.8840  -34.9060   23.4390 C   0  0  0  0  0  0  0  0  0  0  0  0
  -26.5000  -34.9340   22.3700 O   0  0  0  0  0  0  0  0  0  0  0  0
  -25.0270  -33.8110   24.9110 H   0  0  0  0  0  0  0  0  0  0  0  0
  -24.1690  -36.7500   23.4030 C   0  0  0  0  0  1  0  0  0  0  0  0
  -25.4380  -36.2280   24.0970 C   0  0  0  0  0  3  0  0  0  0  0  0
  -27.6120  -36.9910   24.9500 C   0  0  0  0  0  1  0  0  0  0  0  0
  -26.4790  -37.2800   24.0750 N   0  0  0  0  0  0  0  0  0  0  0  0
  -26.0900  -38.1790   24.3460 H   0  0  0  0  0  0  0  0  0  0  0  0
  -28.7000  -19.8180   20.8790 C   0  0  0  0  0  3  0  0  0  0  0  0
  -29.8860  -18.4920   20.8270 C   0  0  0  0  0  3  0  0  0  0  0  0
  -30.4900  -15.6340   21.0220 C   0  0  0  0  0  0  0  0  0  0  0  0
  -30.6410  -13.1860   20.2210 C   0  0  0  0  0  2  0  0  0  0  0  0
  -29.8750  -12.9510   18.8960 C   0  0  0  0  0  2  0  0  0  0  0  0
  -28.3880  -12.6550   19.1710 C   0  0  0  0  0  2  0  0  0  0  0  0
  -27.7870  -13.6210   20.2250 C   0  0  0  0  0  3  0  0  0  0  0  0
  -28.6920  -13.8030   21.4580 C   0  0  0  0  0  2  0  0  0  0  0  0
  -29.9770  -14.3170   20.9580 N   0  0  0  0  0  0  0  0  0  0  0  0
  -31.7250  -15.6890   20.9340 O   0  0  0  0  0  0  0  0  0  0  0  0
  -29.6640  -16.8540   20.9840 N   0  0  0  0  0  0  0  0  0  0  0  0
  -28.6840  -16.6120   21.0060 H   0  0  0  0  0  0  0  0  0  0  0  0
  -25.3390  -14.1240   20.7370 C   0  0  0  0  0  0  0  0  0  0  0  0
  -24.2620  -13.3200   20.9860 C   0  0  0  0  0  0  0  0  0  0  0  0
  -24.7580  -11.9820   20.9860 C   0  0  0  0  0  0  0  0  0  0  0  0
  -26.4200  -13.2730   20.5890 N   0  0  0  0  0  0  0  0  0  0  0  0
  -26.0760  -11.9780   20.8090 N   0  0  0  0  0  0  0  0  0  0  0  0
  -24.0450  -10.7010   21.0820 C   0  0  0  0  0  0  0  0  0  0  0  0
  -24.3650   -9.7480   22.0730 C   0  0  0  0  0  3  0  0  0  0  0  0
  -23.6470   -8.5350   22.1580 C   0  0  0  0  0  3  0  0  0  0  0  0
  -22.5960   -8.2680   21.2490 C   0  0  0  0  0  0  0  0  0  0  0  0
  -22.2970   -9.2110   20.2500 C   0  0  0  0  0  3  0  0  0  0  0  0
  -23.0160  -10.4150   20.1630 C   0  0  0  0  0  3  0  0  0  0  0  0
  -21.8630   -7.1060   21.2370 O   0  0  0  0  0  0  0  0  0  0  0  0
  -21.6190   -6.3970   22.3870 C   0  0  0  0  0  0  0  0  0  0  0  0
  -20.9140   -6.9590   23.4740 C   0  0  0  0  0  3  0  0  0  0  0  0
  -20.6240   -6.1730   24.6070 C   0  0  0  0  0  3  0  0  0  0  0  0
  -21.0330   -4.8260   24.6530 C   0  0  0  0  0  0  0  0  0  0  0  0
  -21.7320   -4.2650   23.5710 C   0  0  0  0  0  3  0  0  0  0  0  0
  -22.0220   -5.0480   22.4400 C   0  0  0  0  0  0  0  0  0  0  0  0
  -22.6760   -4.4950   21.3910 F   0  0  0  0  0  0  0  0  0  0  0  0
  -20.7490   -4.0690   25.7390 F   0  0  0  0  0  0  0  0  0  0  0  0
  -22.8340  -13.7660   21.1120 C   0  0  0  0  0  0  0  0  0  0  0  0
  -22.0330  -13.0520   21.8930 N   0  0  0  0  0  0  0  0  0  0  0  0
  -22.4340  -14.7850   20.5510 O   0  0  0  0  0  0  0  0  0  0  0  0
  -22.3670  -12.2310   22.3750 H   0  0  0  0  0  0  0  0  0  0  0  0
  -21.0710  -13.3370   22.0170 H   0  0  0  0  0  0  0  0  0  0  0  0
  -25.4880  -15.5000   20.5900 N   0  0  0  0  0  0  0  0  0  0  0  0
  -24.6980  -16.1330   20.6180 H   0  0  0  0  0  0  0  0  0  0  0  0
  -26.3440  -15.9510   20.2950 H   0  0  0  0  0  0  0  0  0  0  0  0
  1  5  1  0
  2  3  1  0
  3 58  1  0
  3  5  2  0
  4  1  2  0
  5  8  1  0
  6  2  2  0
  6  4  1  0
  7  2  1  0
  9  6  1  0
 10 14  1  0
 10 11  1  0
 11 15  1  0
 12 15  1  0
 13 15  1  0
 14  1  1  6
 14 13  1  0
 14 12  1  0
 15 16  1  1
 17 19  1  0
 17  4  1  0
 18 29  2  0
 19 24  1  0
 20 28  1  0
 20 30  1  0
 21 27  1  0
 21 23  1  0
 22 28  1  0
 23 22  1  0
 24 23  2  0
 25 26  1  0
 25 19  2  0
 26 21  2  0
 27 20  1  0
 28 18  1  0
 30 32  2  0
 31 30  1  0
 33 31  1  0
 34 43  2  0
 34 39  1  0
 35 31  1  0
 35 39  1  0
 36 35  1  0
 37 38  1  0
 37 36  1  0
 38 34  1  0
 39 40  2  0
 40 41  1  0
 42 41  2  0
 43 42  1  0
 44 18  1  0
 44 49  1  0
 44 45  1  0
 45 48  1  1
 45 46  1  0
 47 45  1  0
 49 52  1  0
 50 49  1  0
 50 54  1  0
 51 50  2  0
 54 53  1  0
 56 54  1  0
 56 57  1  0
 56 55  1  0
 59 58  2  0
 59 68  1  0
 61 66  1  0
 62 63  1  0
 62 61  1  0
 64 63  1  0
 64 73  1  0
 64 65  1  0
 66 60  1  0
 66 65  1  0
 67 60  2  0
 68 69  1  0
 68 60  1  0
 70 71  2  0
 71 90  1  0
 72 71  1  0
 72 75  1  0
 73 70  1  0
 73 74  1  0
 74 72  2  0
 75 76  1  0
 76 77  2  0
 78 77  1  0
 79 78  2  0
 80 79  1  0
 80 75  2  0
 81 78  1  0
 81 82  1  0
 82 87  2  0
 82 83  1  0
 83 84  2  0
 84 85  1  0
 85 89  1  0
 86 85  2  0
 87 86  1  0
 88 87  1  0
 90 91  1  0
 91 94  1  0
 91 93  1  0
 92 90  2  0
 95 96  1  0
 95 70  1  0
 97 95  1  0
M  ISO  4   4 101  17 101  60 100  68 100
M  END
>  <TORSDO>  (78) 
F 19

>  <SCORE>  (78) 
-14.624

>  <name>  (78) 
77

>  <ligand_id>  (78) 
77

>  <original_smiles>  (78) 
[H]c1c([H])c([H])c2c(c1[H])C([H])([H])C([H])([H])C([H])([H])C2([H])N([H])C(=O)C1([H])N(C(=O)C([H])(N([H])C(=O)C([H])(N([H])C([H])([H])[H])C([H])([H])[H])C(C([H])([H])[H])(C([H])([H])[H])C([H])([H])[H])C([H])([H])c2c([H])c(Oc3c(F)c(C([H])([H])[H])c(C([H])([H])C([H])([H])N([H])C(=O)N4C([H])([H])C([H])([H])C([H])([H])C([H])(n5nc(-c6c([H])c([H])c(Oc7c([H])c([H])c(F)c([H])c7F)c([H])c6[H])c(C(=O)N([H])[H])c5N([H])[H])C4([H])[H])c(F)c3C34C([H])([H])C([H])([H])C(C([H])([H])[H])(C3([H])[H])C4([H])[H])c([H])c([H])c2C1([H])[H]

>  <smiles>  (78) 
[H]c1c([H])c([H])c2c(c1[H])C([H])([H])C([H])([H])C([H])([H])C2([H])N([H])C(=O)C1([H])N(C(=O)C([H])(N([H])C(=O)C([H])(N([H])C([H])([H])[H])C([H])([H])[H])C(C([H])([H])[H])(C([H])([H])[H])C([H])([H])[H])C([H])([H])c2c([H])c(Oc3c(F)c(C([H])([H])[H])c(C([H])([H])C([H])([H])N([H])C(=O)N4C([H])([H])C([H])([H])C([H])([H])C([H])(n5nc(-c6c([H])c([H])c(Oc7c([H])c([H])c(F)c([H])c7F)c([H])c6[H])c(C(=O)N([H])[H])c5N([H])[H])C4([H])[H])c(F)c3C34C([H])([H])C([H])([H])C(C([H])([H])[H])(C3([H])[H])C4([H])[H])c([H])c([H])c2C1([H])[H]

$$$$
78:0:0
     RDKit          3D

 97107  0  0  1  0  0  0  0  0999 V2000
  -27.7630  -22.8940   19.9860 C   0  0  0  0  0  0  0  0  0  0  0  0
  -29.0250  -22.2380   20.1140 C   0  0  0  0  0  0  0  0  0  0  0  0
  -26.7370  -22.3650   19.1640 C   0  0  0  0  0  0  0  0  0  0  0  0
  -29.2040  -20.9660   19.4360 C   0  0  0  0  0  0  0  0  0  0  0  0
  -27.0260  -21.2880   18.2990 C   0  0  0  0  0  0  0  0  0  0  0  0
  -28.2720  -20.6150   18.4080 C   0  0  0  0  0  0  0  0  0  0  0  0
  -27.4960  -24.1980   20.7400 C   0  0  0  0  0  2  0  0  0  0  0  0
  -28.6890  -25.1190   20.6440 C   0  0  0  0  0  2  0  0  0  0  0  0
  -31.5730  -22.9050   20.5860 C   0  0  0  0  0  2  0  0  0  0  0  0
  -32.2370  -24.1630   21.1990 C   0  0  0  0  0  2  0  0  0  0  0  0
  -30.0930  -22.9460   21.0300 C   0  0  0  0  0  3  0  0  0  0  0  0
  -29.8860  -24.4840   21.3310 C   0  0  0  0  0  3  0  0  0  0  0  0
  -31.1840  -25.2430   20.9710 C   0  0  0  0  0  3  0  0  0  0  0  0
  -25.3340  -22.9820   19.1880 C   0  0  0  0  0  1  0  0  0  0  0  0
  -25.9660  -20.8680   17.2740 C   0  0  0  0  0  1  0  0  0  0  0  0
  -28.5980  -19.5120   17.4000 C   0  0  0  0  0  1  0  0  0  0  0  0
  -31.3770  -26.5210   21.6670 O   0  0  0  0  0  0  0  0  0  0  0  0
  -27.7580  -31.3510   25.5830 C   0  0  0  0  0  0  0  0  0  0  0  0
  -30.3120  -27.4220   21.7420 C   0  0  0  0  0  0  0  0  0  0  0  0
  -26.6380  -30.5370   23.5400 C   0  0  0  0  0  3  0  0  0  0  0  0
  -28.1000  -29.2150   21.9300 C   0  0  0  0  0  0  0  0  0  0  0  0
  -29.1980  -30.5950   23.6850 C   0  0  0  0  0  2  0  0  0  0  0  0
  -29.2300  -29.4150   22.7300 C   0  0  0  0  0  0  0  0  0  0  0  0
  -30.3430  -28.5370   22.6270 C   0  0  0  0  0  3  0  0  0  0  0  0
  -29.1600  -27.2760   20.9300 C   0  0  0  0  0  3  0  0  0  0  0  0
  -28.0660  -28.1490   21.0260 C   0  0  0  0  0  3  0  0  0  0  0  0
  -26.9530  -30.1870   22.0670 C   0  0  0  0  0  2  0  0  0  0  0  0
  -27.8800  -30.8290   24.3310 N   0  0  0  0  0  0  0  0  0  0  0  0
  -26.6480  -31.6150   26.0650 O   0  0  0  0  0  0  0  0  0  0  0  0
  -25.7750  -29.4050   24.1450 C   0  0  0  0  0  0  0  0  0  0  0  0
  -24.5800  -29.1790   23.5760 N   0  0  0  0  0  0  0  0  0  0  0  0
  -26.1920  -28.7330   25.0920 O   0  0  0  0  0  0  0  0  0  0  0  0
  -24.3060  -29.7750   22.8080 H   0  0  0  0  0  0  0  0  0  0  0  0
  -21.4050  -27.6620   22.7380 C   0  0  0  0  0  0  0  0  0  0  0  0
  -23.6270  -28.1410   23.9670 C   0  0  0  0  0  3  0  0  0  0  0  0
  -24.0900  -26.7490   23.4770 C   0  0  0  0  0  2  0  0  0  0  0  0
  -23.4850  -26.3550   22.1260 C   0  0  0  0  0  2  0  0  0  0  0  0
  -21.9560  -26.3520   22.2010 C   0  0  0  0  0  2  0  0  0  0  0  0
  -22.1970  -28.5070   23.5590 C   0  0  0  0  0  0  0  0  0  0  0  0
  -21.6530  -29.7240   24.0200 C   0  0  0  0  0  3  0  0  0  0  0  0
  -20.3450  -30.1050   23.6720 C   0  0  0  0  0  3  0  0  0  0  0  0
  -19.5590  -29.2620   22.8680 C   0  0  0  0  0  3  0  0  0  0  0  0
  -20.0860  -28.0400   22.4070 C   0  0  0  0  0  3  0  0  0  0  0  0
  -29.0070  -31.6610   26.4640 C   0  0  0  0  0  3  0  0  0  0  0  0
  -29.2210  -30.6200   27.6320 C   0  0  1  0  0  0  0  0  0  0  0  0
  -27.9240  -30.2600   28.3940 C   0  0  0  0  0  1  0  0  0  0  0  0
  -29.8250  -29.3050   27.0860 C   0  0  0  0  0  1  0  0  0  0  0  0
  -30.2350  -31.1860   28.6530 C   0  0  0  0  0  1  0  0  0  0  0  0
  -28.8440  -33.0200   27.0000 N   0  0  0  0  0  0  0  0  0  0  0  0
  -29.3270  -34.1280   26.4250 C   0  0  0  0  0  0  0  0  0  0  0  0
  -30.0310  -34.1010   25.4100 O   0  0  0  0  0  0  0  0  0  0  0  0
  -28.2310  -33.1220   27.7970 H   0  0  0  0  0  0  0  0  0  0  0  0
  -27.7610  -36.0960   26.3710 C   0  0  0  0  0  1  0  0  0  0  0  0
  -28.9780  -35.4790   27.0790 C   0  0  0  0  0  3  0  0  0  0  0  0
  -31.2350  -36.0130   27.8810 C   0  0  0  0  0  1  0  0  0  0  0  0
  -30.0990  -36.4440   27.0690 N   0  0  0  0  0  0  0  0  0  0  0  0
  -29.7930  -37.3550   27.4020 H   0  0  0  0  0  0  0  0  0  0  0  0
  -30.3430  -19.9410   19.7540 C   0  0  0  0  0  2  0  0  0  0  0  0
  -29.9080  -18.5400   20.3760 C   0  0  0  0  0  2  0  0  0  0  0  0
  -30.3730  -17.1970   19.6720 C   0  0  0  0  0  3  0  0  0  0  0  0
  -30.1030  -15.8620   20.4770 C   0  0  0  0  0  3  0  0  0  0  0  0
  -30.8010  -14.5370   19.9810 C   0  0  0  0  0  0  0  0  0  0  0  0
  -30.7110  -12.1140   19.4100 C   0  0  0  0  0  2  0  0  0  0  0  0
  -29.7560  -11.9080   18.2140 C   0  0  0  0  0  2  0  0  0  0  0  0
  -28.3000  -11.7610   18.6900 C   0  0  0  0  0  2  0  0  0  0  0  0
  -27.9010  -12.8650   19.7040 C   0  0  0  0  0  3  0  0  0  0  0  0
  -28.9640  -13.0020   20.8150 C   0  0  0  0  0  2  0  0  0  0  0  0
  -30.2490  -13.2990   20.1620 N   0  0  0  0  0  0  0  0  0  0  0  0
  -31.8790  -14.6560   19.3870 O   0  0  0  0  0  0  0  0  0  0  0  0
  -25.6020  -13.5510   20.6240 C   0  0  0  0  0  0  0  0  0  0  0  0
  -24.5180  -12.8200   21.0220 C   0  0  0  0  0  0  0  0  0  0  0  0
  -24.8860  -11.4500   20.8580 C   0  0  0  0  0  0  0  0  0  0  0  0
  -26.5690  -12.6330   20.2520 N   0  0  0  0  0  0  0  0  0  0  0  0
  -26.1440  -11.3590   20.4450 N   0  0  0  0  0  0  0  0  0  0  0  0
  -24.0970  -10.2220   21.0030 C   0  0  0  0  0  0  0  0  0  0  0  0
  -24.5250   -9.1610   21.8320 C   0  0  0  0  0  3  0  0  0  0  0  0
  -23.7370   -7.9990   21.9700 C   0  0  0  0  0  3  0  0  0  0  0  0
  -22.5050   -7.8900   21.2820 C   0  0  0  0  0  0  0  0  0  0  0  0
  -22.0930   -8.9420   20.4440 C   0  0  0  0  0  3  0  0  0  0  0  0
  -22.8810  -10.0950   20.3030 C   0  0  0  0  0  3  0  0  0  0  0  0
  -21.6860   -6.7900   21.3390 O   0  0  0  0  0  0  0  0  0  0  0  0
  -21.5200   -6.0740   22.4980 C   0  0  0  0  0  0  0  0  0  0  0  0
  -21.0370   -6.6740   23.6810 C   0  0  0  0  0  3  0  0  0  0  0  0
  -20.8160   -5.8860   24.8290 C   0  0  0  0  0  3  0  0  0  0  0  0
  -21.0690   -4.5010   24.7920 C   0  0  0  0  0  0  0  0  0  0  0  0
  -21.5460   -3.9030   23.6130 C   0  0  0  0  0  3  0  0  0  0  0  0
  -21.7670   -4.6890   22.4670 C   0  0  0  0  0  0  0  0  0  0  0  0
  -22.2070   -4.1020   21.3270 F   0  0  0  0  0  0  0  0  0  0  0  0
  -20.8480   -3.7430   25.8920 F   0  0  0  0  0  0  0  0  0  0  0  0
  -23.1800  -13.3570   21.4410 C   0  0  0  0  0  0  0  0  0  0  0  0
  -22.4800  -12.6410   22.3120 N   0  0  0  0  0  0  0  0  0  0  0  0
  -22.7700  -14.4440   21.0350 O   0  0  0  0  0  0  0  0  0  0  0  0
  -22.8270  -11.7580   22.6580 H   0  0  0  0  0  0  0  0  0  0  0  0
  -21.5830  -12.9740   22.6370 H   0  0  0  0  0  0  0  0  0  0  0  0
  -25.8400  -14.9150   20.5210 N   0  0  0  0  0  0  0  0  0  0  0  0
  -25.1110  -15.6000   20.6810 H   0  0  0  0  0  0  0  0  0  0  0  0
  -26.6790  -15.3090   20.1160 H   0  0  0  0  0  0  0  0  0  0  0  0
  1  2  1  0
  1  7  1  0
  2 11  1  0
  3 14  1  0
  3  1  2  0
  4 58  1  0
  4  2  2  0
  5  6  2  0
  5  3  1  0
  6  4  1  0
  8  7  1  0
  9 10  1  0
 11  9  1  0
 11 12  1  0
 12  8  1  0
 13 10  1  0
 13 12  1  0
 13 17  1  0
 15  5  1  0
 16  6  1  0
 17 19  1  0
 18 29  2  0
 19 24  1  0
 20 30  1  0
 20 28  1  0
 21 27  1  0
 21 23  1  0
 22 28  1  0
 23 22  1  0
 24 23  2  0
 25 26  1  0
 25 19  2  0
 26 21  2  0
 27 20  1  0
 28 18  1  0
 30 32  2  0
 31 30  1  0
 33 31  1  0
 34 39  1  0
 35 31  1  0
 36 35  1  0
 37 38  1  0
 37 36  1  0
 38 34  1  0
 39 35  1  0
 39 40  2  0
 41 40  1  0
 42 41  2  0
 43 34  2  0
 43 42  1  0
 44 18  1  0
 44 49  1  0
 44 45  1  0
 45 46  1  1
 45 48  1  0
 47 45  1  0
 49 52  1  0
 50 49  1  0
 50 54  1  0
 51 50  2  0
 54 53  1  0
 56 54  1  0
 56 57  1  0
 56 55  1  0
 58 59  1  0
 60 59  1  0
 60 61  2  0
 62 68  1  0
 62 61  1  0
 63 68  1  0
 64 65  1  0
 64 63  1  0
 66 65  1  0
 66 73  1  0
 66 67  1  0
 68 67  1  0
 69 62  2  0
 70 71  2  0
 71 90  1  0
 72 75  1  0
 72 71  1  0
 73 74  1  0
 73 70  1  0
 74 72  2  0
 75 76  1  0
 76 77  2  0
 78 81  1  0
 78 77  1  0
 79 78  2  0
 80 79  1  0
 80 75  2  0
 81 82  1  0
 82 83  1  0
 83 84  2  0
 85 84  1  0
 85 89  1  0
 86 85  2  0
 87 82  2  0
 87 86  1  0
 88 87  1  0
 90 91  1  0
 91 94  1  0
 91 93  1  0
 92 90  2  0
 95 70  1  0
 95 96  1  0
 97 95  1  0
M  ISO  4  13 101  17 101  61 100  62 100
M  END
>  <TORSDO>  (79) 
F 20

>  <SCORE>  (79) 
-9.716

>  <name>  (79) 
78

>  <ligand_id>  (79) 
78

>  <original_smiles>  (79) 
[H]c1c([H])c([H])c2c(c1[H])C([H])([H])C([H])([H])C([H])([H])C2([H])N([H])C(=O)C1([H])N(C(=O)C([H])(N([H])C(=O)C([H])(N([H])C([H])([H])[H])C([H])([H])[H])C(C([H])([H])[H])(C([H])([H])[H])C([H])([H])[H])C([H])([H])c2c([H])c(OC3([H])C([H])([H])C([H])([H])C4([H])c5c(C([H])([H])C([H])([H])C([H])([H])C([H])([H])C(=O)N6C([H])([H])C([H])([H])C([H])([H])C([H])(n7nc(-c8c([H])c([H])c(Oc9c([H])c([H])c(F)c([H])c9F)c([H])c8[H])c(C(=O)N([H])[H])c7N([H])[H])C6([H])[H])c(C([H])([H])[H])c(C([H])([H])[H])c(C([H])([H])[H])c5C([H])([H])C([H])([H])C34[H])c([H])c([H])c2C1([H])[H]

>  <smiles>  (79) 
[H]c1c([H])c([H])c2c(c1[H])C([H])([H])C([H])([H])C([H])([H])C2([H])N([H])C(=O)C1([H])N(C(=O)C([H])(N([H])C(=O)C([H])(N([H])C([H])([H])[H])C([H])([H])[H])C(C([H])([H])[H])(C([H])([H])[H])C([H])([H])[H])C([H])([H])c2c([H])c(OC3([H])C([H])([H])C([H])([H])C4([H])c5c(C([H])([H])C([H])([H])C([H])([H])C([H])([H])C(=O)N6C([H])([H])C([H])([H])C([H])([H])C([H])(n7nc(-c8c([H])c([H])c(Oc9c([H])c([H])c(F)c([H])c9F)c([H])c8[H])c(C(=O)N([H])[H])c7N([H])[H])C6([H])[H])c(C([H])([H])[H])c(C([H])([H])[H])c(C([H])([H])[H])c5C([H])([H])C([H])([H])C34[H])c([H])c([H])c2C1([H])[H]

$$$$
79:0:0
     RDKit          3D

 94103  0  0  1  0  0  0  0  0999 V2000
  -28.4940  -23.2710   19.6240 C   0  0  0  0  0  3  0  0  0  0  0  0
  -28.8300  -23.9390   21.9400 C   0  0  0  0  0  3  0  0  0  0  0  0
  -28.4930  -22.9490   20.9970 C   0  0  0  0  0  0  0  0  0  0  0  0
  -28.7830  -24.5840   19.1960 C   0  0  0  0  0  0  0  0  0  0  0  0
  -29.1160  -25.2550   21.5230 C   0  0  0  0  0  0  0  0  0  0  0  0
  -29.0630  -25.5930   20.1460 C   0  0  0  0  0  0  0  0  0  0  0  0
  -28.7570  -24.9140   17.7140 C   0  0  0  0  0  1  0  0  0  0  0  0
  -29.4370  -26.2980   22.5790 C   0  0  0  0  0  1  0  0  0  0  0  0
  -29.2090  -26.8970   19.7250 O   0  0  0  0  0  0  0  0  0  0  0  0
  -25.4590  -31.4170   23.7040 C   0  0  0  0  0  0  0  0  0  0  0  0
  -28.0790  -27.6760   19.8150 C   0  0  0  0  0  0  0  0  0  0  0  0
  -24.2590  -30.4150   21.7870 C   0  0  0  0  0  3  0  0  0  0  0  0
  -25.7130  -29.1830   20.0950 C   0  0  0  0  0  0  0  0  0  0  0  0
  -26.7930  -30.7600   21.7080 C   0  0  0  0  0  2  0  0  0  0  0  0
  -26.8670  -29.5550   20.7960 C   0  0  0  0  0  0  0  0  0  0  0  0
  -28.0570  -28.8090   20.6540 C   0  0  0  0  0  3  0  0  0  0  0  0
  -26.9110  -27.3180   19.1060 C   0  0  0  0  0  3  0  0  0  0  0  0
  -25.7290  -28.0640   19.2450 C   0  0  0  0  0  3  0  0  0  0  0  0
  -24.4830  -30.0360   20.2990 C   0  0  0  0  0  2  0  0  0  0  0  0
  -25.5210  -30.8640   22.4610 N   0  0  0  0  0  0  0  0  0  0  0  0
  -24.3720  -31.5960   24.2710 O   0  0  0  0  0  0  0  0  0  0  0  0
  -23.5740  -29.2290   22.5020 C   0  0  0  0  0  0  0  0  0  0  0  0
  -22.2540  -29.0900   22.2960 N   0  0  0  0  0  0  0  0  0  0  0  0
  -24.2260  -28.4460   23.1980 O   0  0  0  0  0  0  0  0  0  0  0  0
  -21.7930  -29.7780   21.7160 H   0  0  0  0  0  0  0  0  0  0  0  0
  -18.8700  -27.8230   22.3580 C   0  0  0  0  0  0  0  0  0  0  0  0
  -21.4020  -28.0290   22.8350 C   0  0  0  0  0  3  0  0  0  0  0  0
  -21.5580  -26.7240   22.0230 C   0  0  0  0  0  2  0  0  0  0  0  0
  -20.5260  -26.5860   20.9000 C   0  0  0  0  0  2  0  0  0  0  0  0
  -19.1050  -26.6140   21.4700 C   0  0  0  0  0  2  0  0  0  0  0  0
  -19.9500  -28.4970   22.9860 C   0  0  0  0  0  0  0  0  0  0  0  0
  -19.6790  -29.6380   23.7730 C   0  0  0  0  0  3  0  0  0  0  0  0
  -18.3620  -30.1020   23.9400 C   0  0  0  0  0  3  0  0  0  0  0  0
  -17.2940  -29.4210   23.3300 C   0  0  0  0  0  3  0  0  0  0  0  0
  -17.5490  -28.2830   22.5440 C   0  0  0  0  0  3  0  0  0  0  0  0
  -26.7450  -31.8750   24.4610 C   0  0  0  0  0  3  0  0  0  0  0  0
  -27.2060  -30.8550   25.5750 C   0  0  1  0  0  0  0  0  0  0  0  0
  -26.0780  -30.4520   26.5540 C   0  0  0  0  0  1  0  0  0  0  0  0
  -27.7600  -29.5610   24.9340 C   0  0  0  0  0  1  0  0  0  0  0  0
  -28.3580  -31.4690   26.4050 C   0  0  0  0  0  1  0  0  0  0  0  0
  -26.4670  -33.1930   25.0450 N   0  0  0  0  0  0  0  0  0  0  0  0
  -26.8990  -34.3550   24.5340 C   0  0  0  0  0  0  0  0  0  0  0  0
  -27.6450  -34.4200   23.5530 O   0  0  0  0  0  0  0  0  0  0  0  0
  -25.8190  -33.2200   25.8170 H   0  0  0  0  0  0  0  0  0  0  0  0
  -25.2770  -36.2710   24.4220 C   0  0  0  0  0  1  0  0  0  0  0  0
  -26.4300  -35.6500   25.2240 C   0  0  0  0  0  3  0  0  0  0  0  0
  -28.5280  -36.2360   26.3590 C   0  0  0  0  0  1  0  0  0  0  0  0
  -27.5080  -36.6480   25.3970 N   0  0  0  0  0  0  0  0  0  0  0  0
  -27.1280  -37.5410   25.6980 H   0  0  0  0  0  0  0  0  0  0  0  0
  -28.1080  -21.5520   21.4600 C   0  0  0  0  0  2  0  0  0  0  0  0
  -29.0430  -20.4660   20.9100 C   0  0  0  0  0  2  0  0  0  0  0  0
  -28.5970  -19.0320   21.2650 C   0  0  0  0  0  2  0  0  0  0  0  0
  -31.1940  -14.2690   19.3760 C   0  0  0  0  0  0  0  0  0  0  0  0
  -30.7430  -12.0330   18.4560 C   0  0  0  0  0  2  0  0  0  0  0  0
  -29.6410  -12.1300   17.3820 C   0  0  0  0  0  2  0  0  0  0  0  0
  -28.2480  -12.0070   18.0270 C   0  0  0  0  0  2  0  0  0  0  0  0
  -28.0680  -12.9560   19.2430 C   0  0  0  0  0  3  0  0  0  0  0  0
  -29.2700  -12.8480   20.2050 C   0  0  0  0  0  2  0  0  0  0  0  0
  -30.5010  -13.1010   19.4370 N   0  0  0  0  0  0  0  0  0  0  0  0
  -32.2050  -14.4020   18.6770 O   0  0  0  0  0  0  0  0  0  0  0  0
  -29.4810  -17.5490   19.3840 C   0  0  0  0  0  2  0  0  0  0  0  0
  -29.6070  -16.7020   21.7270 C   0  0  0  0  0  2  0  0  0  0  0  0
  -30.5760  -16.5530   18.9940 C   0  0  0  0  0  2  0  0  0  0  0  0
  -30.7070  -15.7110   21.2840 C   0  0  0  0  0  2  0  0  0  0  0  0
  -29.6380  -17.9720   20.8550 C   0  0  0  0  0  3  0  0  0  0  0  0
  -30.5650  -15.3640   19.8610 N   0  0  0  0  0  0  0  0  0  0  0  0
  -25.8810  -13.6140   20.4290 C   0  0  0  0  0  0  0  0  0  0  0  0
  -24.8430  -12.8640   20.9170 C   0  0  0  0  0  0  0  0  0  0  0  0
  -25.1960  -11.5000   20.6770 C   0  0  0  0  0  0  0  0  0  0  0  0
  -26.8040  -12.7070   19.9340 N   0  0  0  0  0  0  0  0  0  0  0  0
  -26.4040  -11.4250   20.1350 N   0  0  0  0  0  0  0  0  0  0  0  0
  -24.4280  -10.2660   20.8800 C   0  0  0  0  0  0  0  0  0  0  0  0
  -24.8510   -9.2730   21.7910 C   0  0  0  0  0  3  0  0  0  0  0  0
  -24.0860   -8.1030   21.9820 C   0  0  0  0  0  3  0  0  0  0  0  0
  -22.8820   -7.9160   21.2620 C   0  0  0  0  0  0  0  0  0  0  0  0
  -22.4790   -8.8960   20.3370 C   0  0  0  0  0  3  0  0  0  0  0  0
  -23.2430  -10.0580   20.1450 C   0  0  0  0  0  3  0  0  0  0  0  0
  -22.0880   -6.8000   21.3630 O   0  0  0  0  0  0  0  0  0  0  0  0
  -21.9050   -6.1530   22.5580 C   0  0  0  0  0  0  0  0  0  0  0  0
  -21.3680   -6.8100   23.6870 C   0  0  0  0  0  3  0  0  0  0  0  0
  -21.1310   -6.0890   24.8750 C   0  0  0  0  0  3  0  0  0  0  0  0
  -21.4240   -4.7140   24.9360 C   0  0  0  0  0  0  0  0  0  0  0  0
  -21.9530   -4.0560   23.8110 C   0  0  0  0  0  3  0  0  0  0  0  0
  -22.1900   -4.7740   22.6250 C   0  0  0  0  0  0  0  0  0  0  0  0
  -22.6810   -4.1310   21.5380 F   0  0  0  0  0  0  0  0  0  0  0  0
  -21.1890   -4.0190   26.0740 F   0  0  0  0  0  0  0  0  0  0  0  0
  -23.5530  -13.3810   21.4850 C   0  0  0  0  0  0  0  0  0  0  0  0
  -22.9620  -12.6570   22.4280 N   0  0  0  0  0  0  0  0  0  0  0  0
  -23.0860  -14.4620   21.1240 O   0  0  0  0  0  0  0  0  0  0  0  0
  -23.3550  -11.7770   22.7310 H   0  0  0  0  0  0  0  0  0  0  0  0
  -22.1030  -12.9830   22.8470 H   0  0  0  0  0  0  0  0  0  0  0  0
  -26.1110  -14.9840   20.3510 N   0  0  0  0  0  0  0  0  0  0  0  0
  -25.4300  -15.6710   20.6560 H   0  0  0  0  0  0  0  0  0  0  0  0
  -26.9430  -15.3980   19.9510 H   0  0  0  0  0  0  0  0  0  0  0  0
  1  3  1  0
  3 50  1  0
  3  2  2  0
  4  1  2  0
  4  6  1  0
  5  2  1  0
  5  8  1  0
  6  5  2  0
  7  4  1  0
  9 11  1  0
  9  6  1  0
 10 21  2  0
 11 16  1  0
 12 20  1  0
 12 22  1  0
 13 19  1  0
 13 15  1  0
 14 20  1  0
 15 14  1  0
 16 15  2  0
 17 18  1  0
 17 11  2  0
 18 13  2  0
 19 12  1  0
 20 10  1  0
 22 24  2  0
 23 22  1  0
 25 23  1  0
 26 35  2  0
 26 31  1  0
 27 23  1  0
 27 31  1  0
 28 27  1  0
 29 30  1  0
 29 28  1  0
 30 26  1  0
 31 32  2  0
 32 33  1  0
 34 33  2  0
 35 34  1  0
 36 10  1  0
 36 41  1  0
 36 37  1  0
 37 40  1  1
 37 38  1  0
 39 37  1  0
 41 44  1  0
 42 41  1  0
 42 46  1  0
 43 42  2  0
 46 45  1  0
 46 48  1  0
 48 49  1  0
 48 47  1  0
 51 52  1  0
 51 50  1  0
 53 59  1  0
 53 66  1  0
 54 59  1  0
 55 56  1  0
 55 54  1  0
 57 56  1  0
 57 70  1  0
 57 58  1  0
 59 58  1  0
 60 53  2  0
 61 65  1  0
 63 61  1  0
 63 66  1  0
 64 62  1  0
 65 52  1  0
 65 62  1  0
 66 64  1  0
 67 68  2  0
 68 87  1  0
 69 72  1  0
 69 68  1  0
 70 71  1  0
 70 67  1  0
 71 69  2  0
 72 73  1  0
 73 74  2  0
 75 78  1  0
 75 74  1  0
 76 75  2  0
 77 76  1  0
 77 72  2  0
 78 79  1  0
 79 84  2  0
 79 80  1  0
 80 81  2  0
 81 82  1  0
 82 86  1  0
 83 82  2  0
 84 83  1  0
 85 84  1  0
 87 88  1  0
 88 90  1  0
 88 91  1  0
 89 87  2  0
 92 67  1  0
 92 93  1  0
 94 92  1  0
M  ISO  4   6 101   9 101  53 100  66 100
M  END
>  <TORSDO>  (80) 
F 19

>  <SCORE>  (80) 
-9.846

>  <name>  (80) 
79

>  <ligand_id>  (80) 
79

>  <original_smiles>  (80) 
[H]c1c([H])c([H])c2c(c1[H])C([H])([H])C([H])([H])C([H])([H])C2([H])N([H])C(=O)C1([H])N(C(=O)C([H])(N([H])C(=O)C([H])(N([H])C([H])([H])[H])C([H])([H])[H])C(C([H])([H])[H])(C([H])([H])[H])C([H])([H])[H])C([H])([H])c2c([H])c(Oc3c(C([H])([H])[H])c([H])c(C([H])([H])C([H])([H])C([H])([H])C4([H])C([H])([H])C([H])([H])N(C(=O)N5C([H])([H])C([H])([H])C([H])([H])C([H])(n6nc(-c7c([H])c([H])c(Oc8c([H])c([H])c(F)c([H])c8F)c([H])c7[H])c(C(=O)N([H])[H])c6N([H])[H])C5([H])[H])C([H])([H])C4([H])[H])c([H])c3C([H])([H])[H])c([H])c([H])c2C1([H])[H]

>  <smiles>  (80) 
[H]c1c([H])c([H])c2c(c1[H])C([H])([H])C([H])([H])C([H])([H])C2([H])N([H])C(=O)C1([H])N(C(=O)C([H])(N([H])C(=O)C([H])(N([H])C([H])([H])[H])C([H])([H])[H])C(C([H])([H])[H])(C([H])([H])[H])C([H])([H])[H])C([H])([H])c2c([H])c(Oc3c(C([H])([H])[H])c([H])c(C([H])([H])C([H])([H])C([H])([H])C4([H])C([H])([H])C([H])([H])N(C(=O)N5C([H])([H])C([H])([H])C([H])([H])C([H])(n6nc(-c7c([H])c([H])c(Oc8c([H])c([H])c(F)c([H])c8F)c([H])c7[H])c(C(=O)N([H])[H])c6N([H])[H])C5([H])[H])C([H])([H])C4([H])[H])c([H])c3C([H])([H])[H])c([H])c([H])c2C1([H])[H]

$$$$
80:0:0
     RDKit          3D

 94103  0  0  1  0  0  0  0  0999 V2000
  -28.9980  -18.1230   17.8860 C   0  0  0  0  0  2  0  0  0  0  0  0
  -29.9670  -17.5190   20.3940 C   0  0  0  0  0  3  0  0  0  0  0  0
  -29.9400  -19.0130   18.4360 C   0  0  0  0  0  3  0  0  0  0  0  0
  -30.0960  -19.0350   19.8230 C   0  0  0  0  0  3  0  0  0  0  0  0
  -28.1380  -17.4840   18.8170 C   0  0  0  0  0  3  0  0  0  0  0  0
  -28.5860  -17.3690   20.1740 C   0  0  0  0  0  3  0  0  0  0  0  0
  -30.4050  -20.2690   17.7420 C   0  0  0  0  0  2  0  0  0  0  0  0
  -30.8770  -21.2160   18.8650 C   0  0  0  0  0  2  0  0  0  0  0  0
  -30.0990  -20.8500   20.1480 C   0  0  0  0  0  3  0  0  0  0  0  0
  -26.7290  -17.1730   18.3420 C   0  0  0  0  0  1  0  0  0  0  0  0
  -27.6830  -17.5570   21.3820 C   0  0  0  0  0  1  0  0  0  0  0  0
  -30.7420  -15.9350   20.1620 C   0  0  0  0  0  0  0  0  0  0  0  0
  -30.8220  -13.3870   19.3540 C   0  0  0  0  0  2  0  0  0  0  0  0
  -29.9160  -13.0340   18.1360 C   0  0  0  0  0  2  0  0  0  0  0  0
  -28.4900  -12.6840   18.5880 C   0  0  0  0  0  2  0  0  0  0  0  0
  -27.9920  -13.6600   19.6770 C   0  0  0  0  0  3  0  0  0  0  0  0
  -29.0380  -13.9410   20.7830 C   0  0  0  0  0  2  0  0  0  0  0  0
  -30.2310  -14.5580   20.1490 N   0  0  0  0  0  0  0  0  0  0  0  0
  -31.9610  -15.8720   19.9090 O   0  0  0  0  0  0  0  0  0  0  0  0
  -25.6240  -14.1510   20.4810 C   0  0  0  0  0  0  0  0  0  0  0  0
  -24.5700  -13.3730   20.8380 C   0  0  0  0  0  0  0  0  0  0  0  0
  -25.0410  -12.0300   20.7500 C   0  0  0  0  0  0  0  0  0  0  0  0
  -26.6770  -13.3030   20.1990 N   0  0  0  0  0  0  0  0  0  0  0  0
  -26.3330  -12.0070   20.4240 N   0  0  0  0  0  0  0  0  0  0  0  0
  -24.3040  -10.7730   20.8980 C   0  0  0  0  0  0  0  0  0  0  0  0
  -24.6850   -9.8030   21.8490 C   0  0  0  0  0  3  0  0  0  0  0  0
  -23.9410   -8.6130   21.9900 C   0  0  0  0  0  3  0  0  0  0  0  0
  -22.8020   -8.3870   21.1800 C   0  0  0  0  0  0  0  0  0  0  0  0
  -22.4400   -9.3490   20.2200 C   0  0  0  0  0  3  0  0  0  0  0  0
  -23.1860  -10.5300   20.0770 C   0  0  0  0  0  3  0  0  0  0  0  0
  -22.0360   -7.2490   21.2300 O   0  0  0  0  0  0  0  0  0  0  0  0
  -21.8620   -6.5520   22.3990 C   0  0  0  0  0  0  0  0  0  0  0  0
  -21.2410   -7.1320   23.5270 C   0  0  0  0  0  3  0  0  0  0  0  0
  -21.0190   -6.3580   24.6820 C   0  0  0  0  0  3  0  0  0  0  0  0
  -21.4080   -5.0050   24.7100 C   0  0  0  0  0  0  0  0  0  0  0  0
  -22.0220   -4.4250   23.5860 C   0  0  0  0  0  3  0  0  0  0  0  0
  -22.2460   -5.1960   22.4330 C   0  0  0  0  0  0  0  0  0  0  0  0
  -22.8190   -4.6290   21.3450 F   0  0  0  0  0  0  0  0  0  0  0  0
  -21.1870   -4.2590   25.8170 F   0  0  0  0  0  0  0  0  0  0  0  0
  -23.1820  -13.8590   21.1340 C   0  0  0  0  0  0  0  0  0  0  0  0
  -22.4610  -13.1560   21.9980 N   0  0  0  0  0  0  0  0  0  0  0  0
  -22.7500  -14.9030   20.6430 O   0  0  0  0  0  0  0  0  0  0  0  0
  -22.8260  -12.3140   22.4180 H   0  0  0  0  0  0  0  0  0  0  0  0
  -21.5310  -13.4640   22.2440 H   0  0  0  0  0  0  0  0  0  0  0  0
  -25.7400  -15.5140   20.3450 N   0  0  0  0  0  0  0  0  0  0  0  0
  -24.9480  -16.1300   20.4900 H   0  0  0  0  0  0  0  0  0  0  0  0
  -26.5810  -15.9920   20.0470 H   0  0  0  0  0  0  0  0  0  0  0  0
  -28.9370  -22.3660   20.3030 C   0  0  0  0  0  3  0  0  0  0  0  0
  -28.2310  -22.2130   21.5890 N   0  0  0  0  0  4  0  0  0  0  0  0
  -28.8010  -22.5420   22.3480 H   0  0  0  0  0  0  0  0  0  0  0  0
  -28.0030  -21.2490   21.7570 H   0  0  0  0  0  0  0  0  0  0  0  0
  -27.3740  -22.7390   21.5930 H   0  0  0  0  0  0  0  0  0  0  0  0
  -28.7620  -24.2270   19.8060 C   0  0  0  0  0  2  0  0  0  0  0  0
  -28.5600  -25.8850   20.3130 O   0  0  0  0  0  0  0  0  0  0  0  0
  -24.6120  -31.8550   23.1590 C   0  0  0  0  0  0  0  0  0  0  0  0
  -27.5140  -27.0110   20.1650 C   0  0  0  0  0  0  0  0  0  0  0  0
  -23.5490  -30.4270   21.4600 C   0  0  0  0  0  3  0  0  0  0  0  0
  -25.1280  -28.8860   20.0660 C   0  0  0  0  0  0  0  0  0  0  0  0
  -26.1160  -30.7150   21.4240 C   0  0  0  0  0  2  0  0  0  0  0  0
  -26.2750  -29.3040   20.7470 C   0  0  0  0  0  0  0  0  0  0  0  0
  -27.4470  -28.3890   20.7730 C   0  0  0  0  0  3  0  0  0  0  0  0
  -26.3250  -26.7930   19.4220 C   0  0  0  0  0  3  0  0  0  0  0  0
  -25.1870  -27.6570   19.3830 C   0  0  0  0  0  3  0  0  0  0  0  0
  -23.8670  -29.7650   20.0870 C   0  0  0  0  0  2  0  0  0  0  0  0
  -24.7780  -31.0310   22.0690 N   0  0  0  0  0  0  0  0  0  0  0  0
  -23.4910  -32.0910   23.6390 O   0  0  0  0  0  0  0  0  0  0  0  0
  -22.8540  -29.3990   22.3930 C   0  0  0  0  0  0  0  0  0  0  0  0
  -21.5310  -29.1960   22.2350 N   0  0  0  0  0  0  0  0  0  0  0  0
  -23.5160  -28.7830   23.2310 O   0  0  0  0  0  0  0  0  0  0  0  0
  -21.0450  -29.7460   21.5400 H   0  0  0  0  0  0  0  0  0  0  0  0
  -18.1790  -27.8650   22.6670 C   0  0  0  0  0  0  0  0  0  0  0  0
  -20.7250  -28.2120   22.9680 C   0  0  0  0  0  3  0  0  0  0  0  0
  -20.8800  -26.8000   22.3550 C   0  0  0  0  0  2  0  0  0  0  0  0
  -19.8030  -26.4720   21.3160 C   0  0  0  0  0  2  0  0  0  0  0  0
  -18.4100  -26.5470   21.9460 C   0  0  0  0  0  2  0  0  0  0  0  0
  -19.2650  -28.6530   23.1320 C   0  0  0  0  0  0  0  0  0  0  0  0
  -18.9920  -29.8830   23.7700 C   0  0  0  0  0  3  0  0  0  0  0  0
  -17.6670  -30.3260   23.9430 C   0  0  0  0  0  3  0  0  0  0  0  0
  -16.5960  -29.5370   23.4900 C   0  0  0  0  0  3  0  0  0  0  0  0
  -16.8530  -28.3070   22.8590 C   0  0  0  0  0  3  0  0  0  0  0  0
  -25.8220  -32.5540   23.8500 C   0  0  0  0  0  3  0  0  0  0  0  0
  -26.2840  -31.8260   25.1730 C   0  0  1  0  0  0  0  0  0  0  0  0
  -25.1370  -31.5690   26.1790 C   0  0  0  0  0  1  0  0  0  0  0  0
  -26.9370  -30.4620   24.8560 C   0  0  0  0  0  1  0  0  0  0  0  0
  -27.3650  -32.6710   25.8870 C   0  0  0  0  0  1  0  0  0  0  0  0
  -25.4360  -33.9460   24.1550 N   0  0  0  0  0  0  0  0  0  0  0  0
  -25.7530  -35.0160   23.4130 C   0  0  0  0  0  0  0  0  0  0  0  0
  -26.4580  -34.9370   22.4040 O   0  0  0  0  0  0  0  0  0  0  0  0
  -24.8080  -34.0760   24.9350 H   0  0  0  0  0  0  0  0  0  0  0  0
  -23.9710  -36.7540   23.0140 C   0  0  0  0  0  1  0  0  0  0  0  0
  -25.2040  -36.3890   23.8570 C   0  0  0  0  0  3  0  0  0  0  0  0
  -27.2730  -37.3660   24.7550 C   0  0  0  0  0  1  0  0  0  0  0  0
  -26.2010  -37.4800   23.7700 N   0  0  0  0  0  0  0  0  0  0  0  0
  -25.7550  -38.3860   23.8910 H   0  0  0  0  0  0  0  0  0  0  0  0
  1  3  1  0
  1  5  1  0
  2 12  1  0
  3  7  1  0
  3  4  1  0
  4  9  1  0
  4  2  1  0
  5  6  1  0
  6  2  1  0
  6 11  1  0
  7  8  1  0
  8  9  1  0
  9 48  1  0
 10  5  1  0
 13 18  1  0
 14 15  1  0
 14 13  1  0
 15 16  1  0
 16 23  1  0
 16 17  1  0
 18 12  1  0
 18 17  1  0
 19 12  2  0
 20 21  2  0
 21 40  1  0
 22 21  1  0
 22 25  1  0
 23 24  1  0
 23 20  1  0
 24 22  2  0
 25 26  1  0
 26 27  2  0
 28 31  1  0
 28 27  1  0
 29 28  2  0
 30 29  1  0
 30 25  2  0
 31 32  1  0
 32 37  2  0
 32 33  1  0
 33 34  2  0
 34 35  1  0
 35 39  1  0
 36 35  2  0
 37 36  1  0
 38 37  1  0
 40 41  1  0
 41 44  1  0
 41 43  1  0
 42 40  2  0
 45 20  1  0
 45 46  1  0
 47 45  1  0
 48 49  1  0
 49 52  1  0
 49 51  1  0
 49 50  1  0
 53 48  1  0
 53 54  1  0
 55 66  2  0
 55 81  1  0
 56 54  1  0
 56 61  1  0
 57 65  1  0
 57 67  1  0
 58 64  1  0
 58 60  1  0
 59 65  1  0
 60 61  2  0
 60 59  1  0
 62 56  2  0
 63 62  1  0
 63 58  2  0
 64 57  1  0
 65 55  1  0
 67 69  2  0
 68 67  1  0
 68 72  1  0
 70 68  1  0
 71 80  2  0
 71 76  1  0
 72 76  1  0
 73 72  1  0
 74 75  1  0
 74 73  1  0
 75 71  1  0
 76 77  2  0
 77 78  1  0
 79 78  2  0
 80 79  1  0
 81 86  1  0
 81 82  1  0
 82 85  1  1
 82 83  1  0
 84 82  1  0
 86 89  1  0
 87 91  1  0
 87 86  1  0
 88 87  2  0
 90 91  1  0
 93 91  1  0
 93 94  1  0
 93 92  1  0
M  ISO  4   2 100  12 100  53 101  54 101
M  END
>  <TORSDO>  (81) 
F 19

>  <SCORE>  (81) 
-13.283

>  <name>  (81) 
80

>  <ligand_id>  (81) 
80

>  <original_smiles>  (81) 
[H]c1c([H])c([H])c2c(c1[H])C([H])([H])C([H])([H])C([H])([H])C2([H])N([H])C(=O)C1([H])N(C(=O)C([H])(N([H])C(=O)C([H])(N([H])C([H])([H])[H])C([H])([H])[H])C(C([H])([H])[H])(C([H])([H])[H])C([H])([H])[H])C([H])([H])c2c([H])c(OC([H])([H])C([H])(C3([H])c4c(C(=O)N5C([H])([H])C([H])([H])C([H])([H])C([H])(n6nc(-c7c([H])c([H])c(Oc8c([H])c([H])c(F)c([H])c8F)c([H])c7[H])c(C(=O)N([H])[H])c6N([H])[H])C5([H])[H])c(C([H])([H])[H])c(C([H])([H])[H])c([H])c4C([H])([H])C3([H])[H])[N+]([H])([H])[H])c([H])c([H])c2C1([H])[H]

>  <smiles>  (81) 
[H]c1c([H])c([H])c2c(c1[H])C([H])([H])C([H])([H])C([H])([H])C2([H])N([H])C(=O)C1([H])N(C(=O)C([H])(N([H])C(=O)C([H])(N([H])C([H])([H])[H])C([H])([H])[H])C(C([H])([H])[H])(C([H])([H])[H])C([H])([H])[H])C([H])([H])c2c([H])c(OC([H])([H])C([H])(C3([H])c4c(C(=O)N5C([H])([H])C([H])([H])C([H])([H])C([H])(n6nc(-c7c([H])c([H])c(Oc8c([H])c([H])c(F)c([H])c8F)c([H])c7[H])c(C(=O)N([H])[H])c6N([H])[H])C5([H])[H])c(C([H])([H])[H])c(C([H])([H])[H])c([H])c4C([H])([H])C3([H])[H])[N+]([H])([H])[H])c([H])c([H])c2C1([H])[H]

$$$$
81:0:0
     RDKit          3D

 95104  0  0  1  0  0  0  0  0999 V2000
  -31.3880  -19.0700   21.0140 C   0  0  0  0  0  3  0  0  0  0  0  0
  -29.4020  -19.9600   19.9120 C   0  0  0  0  0  0  0  0  0  0  0  0
  -29.9480  -17.1930   20.1750 C   0  0  0  0  0  0  0  0  0  0  0  0
  -30.7590  -20.0990   20.2680 C   0  0  0  0  0  0  0  0  0  0  0  0
  -30.9370  -17.7230   21.0740 C   0  0  0  0  0  0  0  0  0  0  0  0
  -29.1430  -18.4270   19.6440 C   0  0  0  0  0  0  0  0  0  0  0  0
  -28.8360  -21.5230   19.4840 C   0  0  0  0  0  3  0  0  0  0  0  0
  -28.3580  -22.7940   20.1020 C   0  0  0  0  0  2  0  0  0  0  0  0
  -29.4050  -21.6970   18.1110 C   0  0  0  0  0  2  0  0  0  0  0  0
  -31.5990  -21.2480   19.6090 C   0  0  1  0  0  0  0  0  0  0  0  0
  -30.9770  -21.6640   18.1690 C   0  0  2  0  0  0  0  0  0  0  0  0
  -31.7090  -16.8290   22.0430 C   0  0  0  0  0  1  0  0  0  0  0  0
  -28.0700  -18.1140   18.6190 C   0  0  0  0  0  1  0  0  0  0  0  0
  -31.7280  -22.4550   20.5830 C   0  0  0  0  0  1  0  0  0  0  0  0
  -33.0720  -20.7860   19.4080 C   0  0  0  0  0  1  0  0  0  0  0  0
  -31.4550  -23.0680   17.7210 C   0  0  0  0  0  1  0  0  0  0  0  0
  -31.4080  -20.6610   17.0610 C   0  0  0  0  0  1  0  0  0  0  0  0
  -30.2240  -15.5340   19.7830 C   0  0  0  0  0  0  0  0  0  0  0  0
  -30.0680  -13.0700   18.9370 C   0  0  0  0  0  2  0  0  0  0  0  0
  -29.0770  -12.8270   17.7770 C   0  0  0  0  0  2  0  0  0  0  0  0
  -27.7000  -12.4780   18.3470 C   0  0  0  0  0  2  0  0  0  0  0  0
  -27.3020  -13.4370   19.4940 C   0  0  0  0  0  3  0  0  0  0  0  0
  -28.4290  -13.6840   20.5310 C   0  0  0  0  0  2  0  0  0  0  0  0
  -29.5860  -14.2380   19.8030 N   0  0  0  0  0  0  0  0  0  0  0  0
  -31.3710  -15.3680   19.3410 O   0  0  0  0  0  0  0  0  0  0  0  0
  -25.0000  -13.9000   20.4840 C   0  0  0  0  0  0  0  0  0  0  0  0
  -23.9880  -13.0870   20.9050 C   0  0  0  0  0  0  0  0  0  0  0  0
  -24.4740  -11.7490   20.7800 C   0  0  0  0  0  0  0  0  0  0  0  0
  -26.0350  -13.0620   20.1140 N   0  0  0  0  0  0  0  0  0  0  0  0
  -25.7350  -11.7560   20.3600 N   0  0  0  0  0  0  0  0  0  0  0  0
  -23.7850  -10.4650   20.9820 C   0  0  0  0  0  0  0  0  0  0  0  0
  -24.2800   -9.4950   21.8850 C   0  0  0  0  0  3  0  0  0  0  0  0
  -23.5910   -8.2790   22.0810 C   0  0  0  0  0  3  0  0  0  0  0  0
  -22.3890   -8.0270   21.3770 C   0  0  0  0  0  0  0  0  0  0  0  0
  -21.9130   -8.9830   20.4630 C   0  0  0  0  0  3  0  0  0  0  0  0
  -22.6030  -10.1890   20.2650 C   0  0  0  0  0  3  0  0  0  0  0  0
  -21.6680   -6.8600   21.4800 O   0  0  0  0  0  0  0  0  0  0  0  0
  -21.6680   -6.1130   22.6280 C   0  0  0  0  0  0  0  0  0  0  0  0
  -21.2290   -6.6370   23.8640 C   0  0  0  0  0  3  0  0  0  0  0  0
  -21.1840   -5.8110   25.0050 C   0  0  0  0  0  3  0  0  0  0  0  0
  -21.5730   -4.4610   24.9120 C   0  0  0  0  0  0  0  0  0  0  0  0
  -22.0080   -3.9360   23.6820 C   0  0  0  0  0  3  0  0  0  0  0  0
  -22.0540   -4.7600   22.5440 C   0  0  0  0  0  0  0  0  0  0  0  0
  -22.4540   -4.2410   21.3570 F   0  0  0  0  0  0  0  0  0  0  0  0
  -21.5220   -3.6620   26.0050 F   0  0  0  0  0  0  0  0  0  0  0  0
  -22.6070  -13.5280   21.2980 C   0  0  0  0  0  0  0  0  0  0  0  0
  -21.9560  -12.8000   22.1960 N   0  0  0  0  0  0  0  0  0  0  0  0
  -22.1140  -14.5610   20.8420 O   0  0  0  0  0  0  0  0  0  0  0  0
  -22.3650  -11.9690   22.5980 H   0  0  0  0  0  0  0  0  0  0  0  0
  -21.0330  -13.0850   22.4930 H   0  0  0  0  0  0  0  0  0  0  0  0
  -25.1160  -15.2800   20.3560 N   0  0  0  0  0  0  0  0  0  0  0  0
  -24.3370  -15.8980   20.5600 H   0  0  0  0  0  0  0  0  0  0  0  0
  -25.9370  -15.7660   20.0220 H   0  0  0  0  0  0  0  0  0  0  0  0
  -27.8740  -24.4110   19.5710 C   0  0  0  0  0  2  0  0  0  0  0  0
  -28.0640  -25.9660   20.1360 O   0  0  0  0  0  0  0  0  0  0  0  0
  -24.5660  -31.9420   23.2260 C   0  0  0  0  0  0  0  0  0  0  0  0
  -27.0830  -27.1060   20.0710 C   0  0  0  0  0  0  0  0  0  0  0  0
  -23.3610  -30.5850   21.5660 C   0  0  0  0  0  3  0  0  0  0  0  0
  -24.7960  -29.0120   20.0890 C   0  0  0  0  0  0  0  0  0  0  0  0
  -25.9270  -30.7870   21.4120 C   0  0  0  0  0  2  0  0  0  0  0  0
  -25.9870  -29.3890   20.7190 C   0  0  0  0  0  0  0  0  0  0  0  0
  -27.1220  -28.4560   20.6940 C   0  0  0  0  0  3  0  0  0  0  0  0
  -25.8740  -26.9010   19.3770 C   0  0  0  0  0  3  0  0  0  0  0  0
  -24.7660  -27.7900   19.3980 C   0  0  0  0  0  3  0  0  0  0  0  0
  -23.5770  -29.9330   20.1720 C   0  0  0  0  0  2  0  0  0  0  0  0
  -24.6410  -31.1320   22.1200 N   0  0  0  0  0  0  0  0  0  0  0  0
  -23.4820  -32.2170   23.7640 O   0  0  0  0  0  0  0  0  0  0  0  0
  -22.6760  -29.5640   22.5150 C   0  0  0  0  0  0  0  0  0  0  0  0
  -21.3530  -29.3730   22.3760 N   0  0  0  0  0  0  0  0  0  0  0  0
  -23.3460  -28.9460   23.3460 O   0  0  0  0  0  0  0  0  0  0  0  0
  -20.8620  -29.9200   21.6820 H   0  0  0  0  0  0  0  0  0  0  0  0
  -17.9930  -28.0870   22.8500 C   0  0  0  0  0  0  0  0  0  0  0  0
  -20.5450  -28.4120   23.1310 C   0  0  0  0  0  3  0  0  0  0  0  0
  -20.6840  -26.9870   22.5450 C   0  0  0  0  0  2  0  0  0  0  0  0
  -19.5950  -26.6490   21.5210 C   0  0  0  0  0  2  0  0  0  0  0  0
  -18.2060  -26.7530   22.1560 C   0  0  0  0  0  2  0  0  0  0  0  0
  -19.0920  -28.8740   23.2950 C   0  0  0  0  0  0  0  0  0  0  0  0
  -18.8350  -30.1200   23.9040 C   0  0  0  0  0  3  0  0  0  0  0  0
  -17.5160  -30.5820   24.0730 C   0  0  0  0  0  3  0  0  0  0  0  0
  -16.4330  -29.7930   23.6440 C   0  0  0  0  0  3  0  0  0  0  0  0
  -16.6740  -28.5490   23.0370 C   0  0  0  0  0  3  0  0  0  0  0  0
  -25.8410  -32.5760   23.8600 C   0  0  0  0  0  3  0  0  0  0  0  0
  -25.5520  -33.9900   24.1530 N   0  0  0  0  0  0  0  0  0  0  0  0
  -25.8950  -35.0240   23.3740 C   0  0  0  0  0  0  0  0  0  0  0  0
  -26.5550  -34.8880   22.3410 O   0  0  0  0  0  0  0  0  0  0  0  0
  -24.9760  -34.1710   24.9610 H   0  0  0  0  0  0  0  0  0  0  0  0
  -24.1910  -36.8420   23.0060 C   0  0  0  0  0  1  0  0  0  0  0  0
  -25.4390  -36.4350   23.8060 C   0  0  0  0  0  3  0  0  0  0  0  0
  -27.5890  -37.3180   24.5930 C   0  0  0  0  0  1  0  0  0  0  0  0
  -26.4830  -37.4690   23.6510 N   0  0  0  0  0  0  0  0  0  0  0  0
  -26.0920  -38.4000   23.7690 H   0  0  0  0  0  0  0  0  0  0  0  0
  -26.3070  -31.8370   25.1760 C   0  0  1  0  0  0  0  0  0  0  0  0
  -25.1800  -31.6510   26.2190 C   0  0  0  0  0  1  0  0  0  0  0  0
  -26.8810  -30.4370   24.8570 C   0  0  0  0  0  1  0  0  0  0  0  0
  -27.4470  -32.6380   25.8470 C   0  0  0  0  0  1  0  0  0  0  0  0
  1  5  1  0
  2  4  1  0
  3  5  2  0
  4  1  2  0
  5 12  1  0
  6  2  2  0
  6  3  1  0
  7  2  1  0
  7  8  1  0
  9 11  1  0
  9  7  1  0
 10  4  1  0
 10 14  1  1
 11 10  1  0
 13  6  1  0
 15 10  1  0
 11 16  1  6
 17 11  1  0
 18 24  1  0
 18  3  1  0
 19 24  1  0
 20 21  1  0
 20 19  1  0
 22 21  1  0
 22 29  1  0
 22 23  1  0
 24 23  1  0
 25 18  2  0
 26 27  2  0
 27 46  1  0
 28 27  1  0
 28 31  1  0
 29 30  1  0
 29 26  1  0
 30 28  2  0
 31 32  1  0
 32 33  2  0
 34 37  1  0
 34 33  1  0
 35 34  2  0
 36 35  1  0
 36 31  2  0
 37 38  1  0
 38 39  1  0
 39 40  2  0
 41 40  1  0
 41 45  1  0
 42 41  2  0
 43 38  2  0
 43 42  1  0
 44 43  1  0
 46 47  1  0
 47 50  1  0
 47 49  1  0
 48 46  2  0
 51 26  1  0
 51 52  1  0
 53 51  1  0
 54  8  1  0
 54 55  1  0
 56 67  2  0
 57 55  1  0
 57 62  1  0
 58 66  1  0
 58 68  1  0
 59 65  1  0
 59 61  1  0
 60 66  1  0
 61 60  1  0
 62 61  2  0
 63 64  1  0
 63 57  2  0
 64 59  2  0
 65 58  1  0
 66 56  1  0
 68 70  2  0
 69 68  1  0
 71 69  1  0
 72 81  2  0
 72 77  1  0
 73 69  1  0
 73 77  1  0
 74 73  1  0
 75 76  1  0
 75 74  1  0
 76 72  1  0
 77 78  2  0
 78 79  1  0
 80 79  2  0
 81 80  1  0
 82 56  1  0
 82 83  1  0
 82 92  1  0
 83 86  1  0
 84 88  1  0
 84 83  1  0
 85 84  2  0
 88 87  1  0
 90 91  1  0
 90 88  1  0
 90 89  1  0
 92 95  1  1
 92 93  1  0
 94 92  1  0
M  ISO  4   3 100  18 100  54 101  55 101
M  END
>  <TORSDO>  (82) 
F 17

>  <SCORE>  (82) 
-16.221

>  <name>  (82) 
81

>  <ligand_id>  (82) 
81

>  <original_smiles>  (82) 
[H]C(=C1c2c(C([H])([H])[H])c(C(=O)N3C([H])([H])C([H])([H])C([H])([H])C([H])(n4nc(-c5c([H])c([H])c(Oc6c([H])c([H])c(F)c([H])c6F)c([H])c5[H])c(C(=O)N([H])[H])c4N([H])[H])C3([H])[H])c(C([H])([H])[H])c([H])c2C(C([H])([H])[H])(C([H])([H])[H])C(C([H])([H])[H])(C([H])([H])[H])C1([H])[H])C([H])([H])Oc1c([H])c([H])c2c(c1[H])C([H])([H])N(C(=O)C([H])(N([H])C(=O)C([H])(N([H])C([H])([H])[H])C([H])([H])[H])C(C([H])([H])[H])(C([H])([H])[H])C([H])([H])[H])C([H])(C(=O)N([H])C1([H])c3c([H])c([H])c([H])c([H])c3C([H])([H])C([H])([H])C1([H])[H])C2([H])[H]

>  <smiles>  (82) 
[H]C(=C1c2c(C([H])([H])[H])c(C(=O)N3C([H])([H])C([H])([H])C([H])([H])C([H])(n4nc(-c5c([H])c([H])c(Oc6c([H])c([H])c(F)c([H])c6F)c([H])c5[H])c(C(=O)N([H])[H])c4N([H])[H])C3([H])[H])c(C([H])([H])[H])c([H])c2C(C([H])([H])[H])(C([H])([H])[H])C(C([H])([H])[H])(C([H])([H])[H])C1([H])[H])C([H])([H])Oc1c([H])c([H])c2c(c1[H])C([H])([H])N(C(=O)C([H])(N([H])C(=O)C([H])(N([H])C([H])([H])[H])C([H])([H])[H])C(C([H])([H])[H])(C([H])([H])[H])C([H])([H])[H])C([H])(C(=O)N([H])C1([H])c3c([H])c([H])c([H])c([H])c3C([H])([H])C([H])([H])C1([H])[H])C2([H])[H]

$$$$
82:0:0
     RDKit          3D

 99108  0  0  1  0  0  0  0  0999 V2000
  -29.9760  -16.4520   22.0660 C   0  0  0  0  0  3  0  0  0  0  0  0
  -29.4190  -17.6690   21.6580 C   0  0  0  0  0  3  0  0  0  0  0  0
  -30.3270  -15.4500   21.1380 C   0  0  0  0  0  0  0  0  0  0  0  0
  -30.1060  -15.6390   19.7350 C   0  0  0  0  0  0  0  0  0  0  0  0
  -29.2590  -17.9920   20.2970 C   0  0  0  0  0  0  0  0  0  0  0  0
  -29.6770  -16.9970   19.3260 C   0  0  0  0  0  0  0  0  0  0  0  0
  -29.5520  -20.0530   17.8340 C   0  0  0  0  0  2  0  0  0  0  0  0
  -30.3970  -18.7330   17.7660 C   0  0  0  0  0  2  0  0  0  0  0  0
  -28.4870  -19.3530   20.0130 C   0  0  0  0  0  3  0  0  0  0  0  0
  -29.1940  -20.5730   19.2580 C   0  0  0  0  0  3  0  0  0  0  0  0
  -27.0900  -19.0200   19.4450 C   0  0  0  0  0  1  0  0  0  0  0  0
  -29.6900  -17.4510   17.9910 N   0  0  0  0  0  0  0  0  0  0  0  0
  -29.9550  -16.7370   17.3170 H   0  0  0  0  0  0  0  0  0  0  0  0
  -30.4420  -14.4330   18.7830 C   0  0  0  0  0  0  0  0  0  0  0  0
  -29.9180  -12.1920   17.7720 C   0  0  0  0  0  2  0  0  0  0  0  0
  -28.7150  -12.3050   16.8100 C   0  0  0  0  0  2  0  0  0  0  0  0
  -27.3890  -12.1280   17.5740 C   0  0  0  0  0  2  0  0  0  0  0  0
  -27.3330  -13.0020   18.8530 C   0  0  0  0  0  3  0  0  0  0  0  0
  -28.6240  -12.8780   19.6890 C   0  0  0  0  0  2  0  0  0  0  0  0
  -29.7670  -13.2230   18.8280 N   0  0  0  0  0  0  0  0  0  0  0  0
  -31.3700  -14.5730   17.9800 O   0  0  0  0  0  0  0  0  0  0  0  0
  -25.2400  -13.6210   20.2050 C   0  0  0  0  0  0  0  0  0  0  0  0
  -24.2640  -12.8600   20.7880 C   0  0  0  0  0  0  0  0  0  0  0  0
  -24.6310  -11.4990   20.5530 C   0  0  0  0  0  0  0  0  0  0  0  0
  -26.1410  -12.7260   19.6500 N   0  0  0  0  0  0  0  0  0  0  0  0
  -25.7970  -11.4390   19.9200 N   0  0  0  0  0  0  0  0  0  0  0  0
  -23.9110  -10.2520   20.8470 C   0  0  0  0  0  0  0  0  0  0  0  0
  -24.4610   -9.2630   21.6910 C   0  0  0  0  0  3  0  0  0  0  0  0
  -23.7430   -8.0800   21.9740 C   0  0  0  0  0  3  0  0  0  0  0  0
  -22.4580   -7.8800   21.4130 C   0  0  0  0  0  0  0  0  0  0  0  0
  -21.9250   -8.8570   20.5550 C   0  0  0  0  0  3  0  0  0  0  0  0
  -22.6430  -10.0310   20.2710 C   0  0  0  0  0  3  0  0  0  0  0  0
  -21.6990   -6.7520   21.6100 O   0  0  0  0  0  0  0  0  0  0  0  0
  -21.7120   -6.0740   22.8020 C   0  0  0  0  0  0  0  0  0  0  0  0
  -21.3800   -6.7030   24.0210 C   0  0  0  0  0  3  0  0  0  0  0  0
  -21.3400   -5.9520   25.2140 C   0  0  0  0  0  3  0  0  0  0  0  0
  -21.6190   -4.5720   25.1870 C   0  0  0  0  0  0  0  0  0  0  0  0
  -21.9420   -3.9420   23.9720 C   0  0  0  0  0  3  0  0  0  0  0  0
  -21.9860   -4.6910   22.7830 C   0  0  0  0  0  0  0  0  0  0  0  0
  -22.2800   -4.0750   21.6130 F   0  0  0  0  0  0  0  0  0  0  0  0
  -21.5710   -3.8480   26.3300 F   0  0  0  0  0  0  0  0  0  0  0  0
  -23.0090  -13.3640   21.4400 C   0  0  0  0  0  0  0  0  0  0  0  0
  -22.5110  -12.6540   22.4450 N   0  0  0  0  0  0  0  0  0  0  0  0
  -22.4880  -14.4230   21.0910 O   0  0  0  0  0  0  0  0  0  0  0  0
  -22.9510  -11.7980   22.7490 H   0  0  0  0  0  0  0  0  0  0  0  0
  -21.6790  -12.9740   22.9210 H   0  0  0  0  0  0  0  0  0  0  0  0
  -25.4260  -14.9950   20.0820 N   0  0  0  0  0  0  0  0  0  0  0  0
  -24.7450  -15.6650   20.4250 H   0  0  0  0  0  0  0  0  0  0  0  0
  -26.1990  -15.4300   19.5940 H   0  0  0  0  0  0  0  0  0  0  0  0
  -28.3620  -21.8880   19.2600 N   0  0  0  0  0  4  0  0  0  0  0  0
  -27.8540  -21.8660   20.1310 H   0  0  0  0  0  0  0  0  0  0  0  0
  -27.6690  -21.8000   18.5340 H   0  0  0  0  0  0  0  0  0  0  0  0
  -28.9590  -23.3200   19.1880 C   0  0  0  0  0  3  0  0  0  0  0  0
  -27.9060  -24.5620   19.0440 C   0  0  0  0  0  3  0  0  0  0  0  0
  -28.2150  -26.0340   19.2450 O   0  0  0  0  0  0  0  0  0  0  0  0
  -24.7900  -31.1480   23.1430 C   0  0  0  0  0  0  0  0  0  0  0  0
  -27.1310  -26.9470   19.3700 C   0  0  0  0  0  0  0  0  0  0  0  0
  -23.4620  -29.9480   21.4490 C   0  0  0  0  0  3  0  0  0  0  0  0
  -24.7900  -28.5900   19.7350 C   0  0  0  0  0  0  0  0  0  0  0  0
  -25.9870  -30.2880   21.1090 C   0  0  0  0  0  2  0  0  0  0  0  0
  -26.0110  -28.9940   20.2920 C   0  0  0  0  0  0  0  0  0  0  0  0
  -27.1830  -28.1880   20.0960 C   0  0  0  0  0  3  0  0  0  0  0  0
  -25.8800  -26.6260   18.7880 C   0  0  0  0  0  3  0  0  0  0  0  0
  -24.7310  -27.4150   18.9740 C   0  0  0  0  0  3  0  0  0  0  0  0
  -23.5670  -29.4510   19.9850 C   0  0  0  0  0  2  0  0  0  0  0  0
  -24.7710  -30.4740   21.9550 N   0  0  0  0  0  0  0  0  0  0  0  0
  -23.7520  -31.3520   23.7890 O   0  0  0  0  0  0  0  0  0  0  0  0
  -22.8730  -28.8180   22.3280 C   0  0  0  0  0  0  0  0  0  0  0  0
  -21.5890  -28.4840   22.1110 N   0  0  0  0  0  0  0  0  0  0  0  0
  -23.5740  -28.2460   23.1670 O   0  0  0  0  0  0  0  0  0  0  0  0
  -21.0780  -29.0040   21.4130 H   0  0  0  0  0  0  0  0  0  0  0  0
  -18.4080  -26.7590   22.2520 C   0  0  0  0  0  0  0  0  0  0  0  0
  -20.8480  -27.4210   22.7970 C   0  0  0  0  0  3  0  0  0  0  0  0
  -21.2380  -26.0290   22.2500 C   0  0  0  0  0  2  0  0  0  0  0  0
  -20.3180  -25.5430   21.1250 C   0  0  0  0  0  2  0  0  0  0  0  0
  -18.8690  -25.4610   21.6120 C   0  0  0  0  0  2  0  0  0  0  0  0
  -19.3380  -27.6870   22.7940 C   0  0  0  0  0  0  0  0  0  0  0  0
  -18.8550  -28.8930   23.3460 C   0  0  0  0  0  3  0  0  0  0  0  0
  -17.4770  -29.1780   23.3660 C   0  0  0  0  0  3  0  0  0  0  0  0
  -16.5610  -28.2490   22.8390 C   0  0  0  0  0  3  0  0  0  0  0  0
  -17.0270  -27.0430   22.2880 C   0  0  0  0  0  3  0  0  0  0  0  0
  -26.1170  -31.7150   23.7360 C   0  0  0  0  0  3  0  0  0  0  0  0
  -25.8740  -33.1140   24.1110 N   0  0  0  0  0  0  0  0  0  0  0  0
  -26.2010  -34.1730   23.3570 C   0  0  0  0  0  0  0  0  0  0  0  0
  -26.8080  -34.0700   22.2870 O   0  0  0  0  0  0  0  0  0  0  0  0
  -25.3310  -33.2710   24.9470 H   0  0  0  0  0  0  0  0  0  0  0  0
  -24.5200  -36.0330   23.1410 C   0  0  0  0  0  1  0  0  0  0  0  0
  -25.7910  -35.5680   23.8700 C   0  0  0  0  0  3  0  0  0  0  0  0
  -27.9990  -36.3590   24.5940 C   0  0  0  0  0  1  0  0  0  0  0  0
  -26.8530  -36.5860   23.7180 N   0  0  0  0  0  0  0  0  0  0  0  0
  -26.4900  -37.5170   23.9060 H   0  0  0  0  0  0  0  0  0  0  0  0
  -26.6410  -30.8930   24.9770 C   0  0  1  0  0  0  0  0  0  0  0  0
  -25.5680  -30.6490   26.0630 C   0  0  0  0  0  1  0  0  0  0  0  0
  -27.1810  -29.5140   24.5340 C   0  0  0  0  0  1  0  0  0  0  0  0
  -27.8260  -31.6390   25.6330 C   0  0  0  0  0  1  0  0  0  0  0  0
  -31.0580  -14.2700   21.6960 C   0  0  0  0  0  0  0  0  0  0  0  0
  -32.2890  -14.1920   21.7270 O   0  0  0  0  0  0  0  0  0  0  0  0
  -30.7270  -11.7350   21.7860 C   0  0  0  0  0  1  0  0  0  0  0  0
  -30.2120  -13.1130   22.2380 C   0  0  0  0  0  2  0  0  0  0  0  0
  2  1  1  0
  3 96  1  0
  3  1  2  0
  4  3  1  0
  5  2  2  0
  6  4  2  0
  6  5  1  0
  7 10  1  0
  8  7  1  0
  8 12  1  0
  9 11  1  0
  9  5  1  0
 10 50  1  0
 10  9  1  0
 12  6  1  0
 13 12  1  0
 14 20  1  0
 14  4  1  0
 15 20  1  0
 16 17  1  0
 16 15  1  0
 18 17  1  0
 18 25  1  0
 18 19  1  0
 20 19  1  0
 21 14  2  0
 22 23  2  0
 23 42  1  0
 24 23  1  0
 24 27  1  0
 25 26  1  0
 25 22  1  0
 26 24  2  0
 27 28  1  0
 28 29  2  0
 30 33  1  0
 30 29  1  0
 31 30  2  0
 32 31  1  0
 32 27  2  0
 33 34  1  0
 34 35  1  0
 35 36  2  0
 37 36  1  0
 37 41  1  0
 38 37  2  0
 39 34  2  0
 39 38  1  0
 40 39  1  0
 42 43  1  0
 43 45  1  0
 43 46  1  0
 44 42  2  0
 47 22  1  0
 47 48  1  0
 49 47  1  0
 50 51  1  0
 52 50  1  0
 53 50  1  0
 54 53  2  0
 54 55  1  0
 55 57  1  0
 56 67  2  0
 57 62  1  0
 58 66  1  0
 58 68  1  0
 59 65  1  0
 59 61  1  0
 60 66  1  0
 61 60  1  0
 62 61  2  0
 63 64  1  0
 63 57  2  0
 64 59  2  0
 65 58  1  0
 66 56  1  0
 68 70  2  0
 69 68  1  0
 71 69  1  0
 72 81  2  0
 72 77  1  0
 73 69  1  0
 74 73  1  0
 75 76  1  0
 75 74  1  0
 76 72  1  0
 77 73  1  0
 77 78  2  0
 78 79  1  0
 80 79  2  0
 81 80  1  0
 82 56  1  0
 82 83  1  0
 82 92  1  0
 83 86  1  0
 84 88  1  0
 84 83  1  0
 85 84  2  0
 88 87  1  0
 90 88  1  0
 90 91  1  0
 90 89  1  0
 92 95  1  1
 92 93  1  0
 94 92  1  0
 96 97  2  0
 96 99  1  0
 98 99  1  0
M  ISO  4   4 100  14 100  54 101  55 101
M  END
>  <TORSDO>  (83) 
F 21

>  <SCORE>  (83) 
-7.569

>  <name>  (83) 
82

>  <ligand_id>  (83) 
82

>  <original_smiles>  (83) 
[H]c1c([H])c([H])c2c(c1[H])C([H])([H])C([H])([H])C([H])([H])C2([H])N([H])C(=O)C1([H])N(C(=O)C([H])(N([H])C(=O)C([H])(N([H])C([H])([H])[H])C([H])([H])[H])C(C([H])([H])[H])(C([H])([H])[H])C([H])([H])[H])C([H])([H])c2c([H])c(OC([H])([H])C([H])([H])[N+]([H])([H])C3([H])C([H])([H])C([H])([H])N([H])c4c(C(=O)N5C([H])([H])C([H])([H])C([H])([H])C([H])(n6nc(-c7c([H])c([H])c(Oc8c([H])c([H])c(F)c([H])c8F)c([H])c7[H])c(C(=O)N([H])[H])c6N([H])[H])C5([H])[H])c(C(=O)C([H])([H])C([H])([H])[H])c([H])c([H])c4C3([H])C([H])([H])[H])c([H])c([H])c2C1([H])[H]

>  <smiles>  (83) 
[H]c1c([H])c([H])c2c(c1[H])C([H])([H])C([H])([H])C([H])([H])C2([H])N([H])C(=O)C1([H])N(C(=O)C([H])(N([H])C(=O)C([H])(N([H])C([H])([H])[H])C([H])([H])[H])C(C([H])([H])[H])(C([H])([H])[H])C([H])([H])[H])C([H])([H])c2c([H])c(OC([H])([H])C([H])([H])[N+]([H])([H])C3([H])C([H])([H])C([H])([H])N([H])c4c(C(=O)N5C([H])([H])C([H])([H])C([H])([H])C([H])(n6nc(-c7c([H])c([H])c(Oc8c([H])c([H])c(F)c([H])c8F)c([H])c7[H])c(C(=O)N([H])[H])c6N([H])[H])C5([H])[H])c(C(=O)C([H])([H])C([H])([H])[H])c([H])c([H])c4C3([H])C([H])([H])[H])c([H])c([H])c2C1([H])[H]

$$$$
83:0:0
     RDKit          3D

 90 98  0  0  1  0  0  0  0  0999 V2000
  -28.9760  -22.8810   17.8310 C   0  0  0  0  0  3  0  0  0  0  0  0
  -27.0760  -23.5650   19.2160 C   0  0  0  0  0  3  0  0  0  0  0  0
  -29.6960  -22.5230   18.9940 C   0  0  0  0  0  0  0  0  0  0  0  0
  -28.9560  -22.4750   20.1930 C   0  0  0  0  0  0  0  0  0  0  0  0
  -27.6070  -23.2270   17.9470 C   0  0  0  0  0  0  0  0  0  0  0  0
  -28.0290  -23.8490   20.2110 C   0  0  0  0  0  0  0  0  0  0  0  0
  -31.0460  -21.8450   18.8550 C   0  0  0  0  0  1  0  0  0  0  0  0
  -26.8310  -23.2810   16.8250 O   0  0  0  0  0  0  0  0  0  0  0  0
  -25.9200  -23.4970   17.0020 H   0  0  0  0  0  0  0  0  0  0  0  0
  -28.1730  -25.4810   20.3350 O   0  0  0  0  0  0  0  0  0  0  0  0
  -24.7010  -31.8910   23.2240 C   0  0  0  0  0  0  0  0  0  0  0  0
  -27.2190  -26.7380   20.2720 C   0  0  0  0  0  0  0  0  0  0  0  0
  -23.5150  -30.4800   21.6000 C   0  0  0  0  0  3  0  0  0  0  0  0
  -24.9640  -28.8250   20.2010 C   0  0  0  0  0  0  0  0  0  0  0  0
  -26.0980  -30.5980   21.4950 C   0  0  0  0  0  2  0  0  0  0  0  0
  -26.1570  -29.1560   20.8540 C   0  0  0  0  0  0  0  0  0  0  0  0
  -27.2580  -28.1390   20.8710 C   0  0  0  0  0  3  0  0  0  0  0  0
  -26.0160  -26.6770   19.5110 C   0  0  0  0  0  3  0  0  0  0  0  0
  -24.9380  -27.6100   19.5040 C   0  0  0  0  0  3  0  0  0  0  0  0
  -23.7590  -29.7800   20.2340 C   0  0  0  0  0  2  0  0  0  0  0  0
  -24.7950  -31.0250   22.1570 N   0  0  0  0  0  0  0  0  0  0  0  0
  -23.6070  -32.1980   23.7280 O   0  0  0  0  0  0  0  0  0  0  0  0
  -22.7990  -29.5090   22.5780 C   0  0  0  0  0  0  0  0  0  0  0  0
  -21.4660  -29.3500   22.4540 N   0  0  0  0  0  0  0  0  0  0  0  0
  -23.4540  -28.8960   23.4240 O   0  0  0  0  0  0  0  0  0  0  0  0
  -20.9860  -29.8970   21.7520 H   0  0  0  0  0  0  0  0  0  0  0  0
  -18.0840  -28.1250   22.9740 C   0  0  0  0  0  0  0  0  0  0  0  0
  -20.6410  -28.4210   23.2370 C   0  0  0  0  0  3  0  0  0  0  0  0
  -20.7540  -26.9790   22.6870 C   0  0  0  0  0  2  0  0  0  0  0  0
  -19.6580  -26.6320   21.6730 C   0  0  0  0  0  2  0  0  0  0  0  0
  -18.2740  -26.7710   22.3120 C   0  0  0  0  0  2  0  0  0  0  0  0
  -19.1930  -28.9070   23.3930 C   0  0  0  0  0  0  0  0  0  0  0  0
  -18.9580  -30.1690   23.9800 C   0  0  0  0  0  3  0  0  0  0  0  0
  -17.6460  -30.6530   24.1460 C   0  0  0  0  0  3  0  0  0  0  0  0
  -16.5510  -29.8710   23.7380 C   0  0  0  0  0  3  0  0  0  0  0  0
  -16.7710  -28.6090   23.1590 C   0  0  0  0  0  3  0  0  0  0  0  0
  -25.9630  -32.5520   23.8570 C   0  0  0  0  0  3  0  0  0  0  0  0
  -26.4660  -31.8030   25.1540 C   0  0  1  0  0  0  0  0  0  0  0  0
  -25.3630  -31.5850   26.2170 C   0  0  0  0  0  1  0  0  0  0  0  0
  -27.0560  -30.4190   24.8080 C   0  0  0  0  0  1  0  0  0  0  0  0
  -27.6080  -32.6120   25.8140 C   0  0  0  0  0  1  0  0  0  0  0  0
  -25.6320  -33.9520   24.1880 N   0  0  0  0  0  0  0  0  0  0  0  0
  -25.9410  -35.0190   23.4370 C   0  0  0  0  0  0  0  0  0  0  0  0
  -26.5900  -34.9280   22.3930 O   0  0  0  0  0  0  0  0  0  0  0  0
  -25.0500  -34.0960   24.9990 H   0  0  0  0  0  0  0  0  0  0  0  0
  -24.1840  -36.8060   23.1580 C   0  0  0  0  0  1  0  0  0  0  0  0
  -25.4580  -36.4050   23.9180 C   0  0  0  0  0  3  0  0  0  0  0  0
  -27.6090  -37.3190   24.6760 C   0  0  0  0  0  1  0  0  0  0  0  0
  -26.4740  -37.4700   23.7700 N   0  0  0  0  0  0  0  0  0  0  0  0
  -26.0600  -38.3860   23.9290 H   0  0  0  0  0  0  0  0  0  0  0  0
  -28.8070  -20.6330   20.5620 C   0  0  0  0  0  3  0  0  0  0  0  0
  -29.7580  -18.9410   20.2370 C   0  0  0  0  0  3  0  0  0  0  0  0
  -30.2790  -15.7640   20.2210 C   0  0  0  0  0  0  0  0  0  0  0  0
  -30.3390  -13.2290   19.3430 C   0  0  0  0  0  2  0  0  0  0  0  0
  -29.4420  -12.8580   18.1280 C   0  0  0  0  0  2  0  0  0  0  0  0
  -28.0220  -12.4960   18.5840 C   0  0  0  0  0  2  0  0  0  0  0  0
  -27.5240  -13.4740   19.6700 C   0  0  0  0  0  3  0  0  0  0  0  0
  -28.5620  -13.7690   20.7800 C   0  0  0  0  0  2  0  0  0  0  0  0
  -29.7350  -14.4030   20.1310 N   0  0  0  0  0  0  0  0  0  0  0  0
  -31.5060  -15.6810   20.0140 O   0  0  0  0  0  0  0  0  0  0  0  0
  -29.5550  -17.1540   20.3520 N   0  0  0  0  0  0  0  0  0  0  0  0
  -28.5750  -16.9530   20.4990 H   0  0  0  0  0  0  0  0  0  0  0  0
  -25.1620  -13.9910   20.4410 C   0  0  0  0  0  0  0  0  0  0  0  0
  -24.1080  -13.2050   20.8100 C   0  0  0  0  0  0  0  0  0  0  0  0
  -24.5850  -11.8590   20.7790 C   0  0  0  0  0  0  0  0  0  0  0  0
  -26.2110  -13.1260   20.1930 N   0  0  0  0  0  0  0  0  0  0  0  0
  -25.8780  -11.8350   20.4630 N   0  0  0  0  0  0  0  0  0  0  0  0
  -23.8630  -10.5930   20.9690 C   0  0  0  0  0  0  0  0  0  0  0  0
  -24.2890   -9.6290   21.9090 C   0  0  0  0  0  3  0  0  0  0  0  0
  -23.5620   -8.4330   22.0890 C   0  0  0  0  0  3  0  0  0  0  0  0
  -22.3920   -8.1900   21.3290 C   0  0  0  0  0  0  0  0  0  0  0  0
  -21.9840   -9.1430   20.3790 C   0  0  0  0  0  3  0  0  0  0  0  0
  -22.7130  -10.3300   20.1960 C   0  0  0  0  0  3  0  0  0  0  0  0
  -21.6390   -7.0450   21.4180 O   0  0  0  0  0  0  0  0  0  0  0  0
  -21.5770   -6.3120   22.5760 C   0  0  0  0  0  0  0  0  0  0  0  0
  -21.1240   -6.8740   23.7900 C   0  0  0  0  0  3  0  0  0  0  0  0
  -21.0090   -6.0660   24.9390 C   0  0  0  0  0  3  0  0  0  0  0  0
  -21.3370   -4.6990   24.8760 C   0  0  0  0  0  0  0  0  0  0  0  0
  -21.7840   -4.1370   23.6670 C   0  0  0  0  0  3  0  0  0  0  0  0
  -21.9000   -4.9410   22.5200 C   0  0  0  0  0  0  0  0  0  0  0  0
  -22.3110   -4.3900   21.3520 F   0  0  0  0  0  0  0  0  0  0  0  0
  -21.2200   -3.9220   25.9780 F   0  0  0  0  0  0  0  0  0  0  0  0
  -22.7080  -13.6760   21.0740 C   0  0  0  0  0  0  0  0  0  0  0  0
  -21.9830  -12.9840   21.9440 N   0  0  0  0  0  0  0  0  0  0  0  0
  -22.2680  -14.6960   20.5440 O   0  0  0  0  0  0  0  0  0  0  0  0
  -22.3520  -12.1600   22.3940 H   0  0  0  0  0  0  0  0  0  0  0  0
  -21.0440  -13.2850   22.1650 H   0  0  0  0  0  0  0  0  0  0  0  0
  -25.3110  -15.3630   20.2600 N   0  0  0  0  0  0  0  0  0  0  0  0
  -24.5300  -16.0020   20.3650 H   0  0  0  0  0  0  0  0  0  0  0  0
  -26.1430  -15.8100   19.9000 H   0  0  0  0  0  0  0  0  0  0  0  0
  1  5  2  0
  1  3  1  0
  2  6  2  0
  3  4  2  0
  4  6  1  0
  4 51  1  0
  5  2  1  0
  6 10  1  0
  7  3  1  0
  8  9  1  0
  8  5  1  0
 11 22  2  0
 12 10  1  0
 12 17  1  0
 13 21  1  0
 13 23  1  0
 14 20  1  0
 14 16  1  0
 15 21  1  0
 16 17  2  0
 16 15  1  0
 18 12  2  0
 19 18  1  0
 19 14  2  0
 20 13  1  0
 21 11  1  0
 23 25  2  0
 24 23  1  0
 26 24  1  0
 27 36  2  0
 27 32  1  0
 28 24  1  0
 28 32  1  0
 29 28  1  0
 30 31  1  0
 30 29  1  0
 31 27  1  0
 32 33  2  0
 33 34  1  0
 35 34  2  0
 36 35  1  0
 37 11  1  0
 37 42  1  0
 37 38  1  0
 38 41  1  1
 38 39  1  0
 40 38  1  0
 42 45  1  0
 43 47  1  0
 43 42  1  0
 44 43  2  0
 47 46  1  0
 49 47  1  0
 49 50  1  0
 49 48  1  0
 52 61  1  0
 52 51  2  0
 53 61  1  0
 54 59  1  0
 55 56  1  0
 55 54  1  0
 57 56  1  0
 57 66  1  0
 57 58  1  0
 59 53  1  0
 59 58  1  0
 60 53  2  0
 61 62  1  0
 63 64  2  0
 64 83  1  0
 65 64  1  0
 65 68  1  0
 66 63  1  0
 66 67  1  0
 67 65  2  0
 68 69  1  0
 69 70  2  0
 71 74  1  0
 71 70  1  0
 72 71  2  0
 73 72  1  0
 73 68  2  0
 74 75  1  0
 75 76  1  0
 76 77  2  0
 78 77  1  0
 78 82  1  0
 79 78  2  0
 80 75  2  0
 80 79  1  0
 81 80  1  0
 83 84  1  0
 84 87  1  0
 84 86  1  0
 85 83  2  0
 88 89  1  0
 88 63  1  0
 90 88  1  0
M  ISO  4   6 101  10 101  53 100  61 100
M  END
>  <TORSDO>  (84) 
F 19

>  <SCORE>  (84) 
-15.184

>  <name>  (84) 
83

>  <ligand_id>  (84) 
83

>  <original_smiles>  (84) 
[H]Oc1c([H])c(Oc2c([H])c([H])c3c(c2[H])C([H])([H])N(C(=O)C([H])(N([H])C(=O)C([H])(N([H])C([H])([H])[H])C([H])([H])[H])C(C([H])([H])[H])(C([H])([H])[H])C([H])([H])[H])C([H])(C(=O)N([H])C2([H])c4c([H])c([H])c([H])c([H])c4C([H])([H])C([H])([H])C2([H])[H])C3([H])[H])c(C([H])([H])C([H])([H])N([H])C(=O)N2C([H])([H])C([H])([H])C([H])([H])C([H])(n3nc(-c4c([H])c([H])c(Oc5c([H])c([H])c(F)c([H])c5F)c([H])c4[H])c(C(=O)N([H])[H])c3N([H])[H])C2([H])[H])c(C([H])([H])[H])c1[H]

>  <smiles>  (84) 
[H]Oc1c([H])c(Oc2c([H])c([H])c3c(c2[H])C([H])([H])N(C(=O)C([H])(N([H])C(=O)C([H])(N([H])C([H])([H])[H])C([H])([H])[H])C(C([H])([H])[H])(C([H])([H])[H])C([H])([H])[H])C([H])(C(=O)N([H])C2([H])c4c([H])c([H])c([H])c([H])c4C([H])([H])C([H])([H])C2([H])[H])C3([H])[H])c(C([H])([H])C([H])([H])N([H])C(=O)N2C([H])([H])C([H])([H])C([H])([H])C([H])(n3nc(-c4c([H])c([H])c(Oc5c([H])c([H])c(F)c([H])c5F)c([H])c4[H])c(C(=O)N([H])[H])c3N([H])[H])C2([H])[H])c(C([H])([H])[H])c1[H]

$$$$
84:0:0
     RDKit          3D

 99108  0  0  1  0  0  0  0  0999 V2000
  -29.2070  -17.6340   19.7310 C   0  0  0  0  0  3  0  0  0  0  0  0
  -30.3200  -16.7480   20.0210 C   0  0  0  0  0  3  0  0  0  0  0  0
  -29.2990  -19.2640   19.3060 C   0  0  0  0  0  0  0  0  0  0  0  0
  -29.8370  -20.0520   21.5060 C   0  0  0  0  0  0  0  0  0  0  0  0
  -31.3730  -17.7430   20.6070 C   0  0  0  0  0  2  0  0  0  0  0  0
  -30.9050  -18.8700   21.6920 C   0  0  0  0  0  2  0  0  0  0  0  0
  -29.6090  -20.7230   20.1210 C   0  0  1  0  0  0  0  0  0  0  0  0
  -29.1350  -19.4820   18.1010 O   0  0  0  0  0  0  0  0  0  0  0  0
  -29.2080  -20.4570   22.4870 O   0  0  0  0  0  0  0  0  0  0  0  0
  -30.7910  -15.1290   20.0250 C   0  0  0  0  0  0  0  0  0  0  0  0
  -30.7600  -12.6600   19.1340 C   0  0  0  0  0  2  0  0  0  0  0  0
  -29.9460  -12.4070   17.8430 C   0  0  0  0  0  2  0  0  0  0  0  0
  -28.4940  -12.0700   18.2030 C   0  0  0  0  0  2  0  0  0  0  0  0
  -27.9430  -13.0200   19.2940 C   0  0  0  0  0  3  0  0  0  0  0  0
  -28.9120  -13.2820   20.4650 C   0  0  0  0  0  2  0  0  0  0  0  0
  -30.1520  -13.8410   19.8940 N   0  0  0  0  0  0  0  0  0  0  0  0
  -32.0130  -14.9190   19.9320 O   0  0  0  0  0  0  0  0  0  0  0  0
  -25.4850  -13.4340   19.7480 C   0  0  0  0  0  0  0  0  0  0  0  0
  -24.4520  -12.6520   20.1620 C   0  0  0  0  0  0  0  0  0  0  0  0
  -25.0190  -11.3620   20.3830 C   0  0  0  0  0  0  0  0  0  0  0  0
  -26.6100  -12.6430   19.7450 N   0  0  0  0  0  0  0  0  0  0  0  0
  -26.3360  -11.3910   20.1970 N   0  0  0  0  0  0  0  0  0  0  0  0
  -24.3630  -10.0910   20.6950 C   0  0  0  0  0  0  0  0  0  0  0  0
  -24.7400   -9.3230   21.8170 C   0  0  0  0  0  3  0  0  0  0  0  0
  -24.0790   -8.1120   22.1080 C   0  0  0  0  0  3  0  0  0  0  0  0
  -23.0240   -7.6610   21.2770 C   0  0  0  0  0  0  0  0  0  0  0  0
  -22.6690   -8.4200   20.1460 C   0  0  0  0  0  3  0  0  0  0  0  0
  -23.3340   -9.6210   19.8550 C   0  0  0  0  0  3  0  0  0  0  0  0
  -22.3450   -6.4830   21.4660 O   0  0  0  0  0  0  0  0  0  0  0  0
  -22.1220   -5.9770   22.7210 C   0  0  0  0  0  0  0  0  0  0  0  0
  -21.4430   -6.7170   23.7130 C   0  0  0  0  0  3  0  0  0  0  0  0
  -21.1750   -6.1320   24.9670 C   0  0  0  0  0  3  0  0  0  0  0  0
  -21.5760   -4.8080   25.2260 C   0  0  0  0  0  0  0  0  0  0  0  0
  -22.2500   -4.0690   24.2370 C   0  0  0  0  0  3  0  0  0  0  0  0
  -22.5200   -4.6540   22.9860 C   0  0  0  0  0  0  0  0  0  0  0  0
  -23.1500   -3.9290   22.0290 F   0  0  0  0  0  0  0  0  0  0  0  0
  -21.3150   -4.2410   26.4280 F   0  0  0  0  0  0  0  0  0  0  0  0
  -23.0090  -13.0570   20.2280 C   0  0  0  0  0  0  0  0  0  0  0  0
  -22.2500  -12.4650   21.1430 N   0  0  0  0  0  0  0  0  0  0  0  0
  -22.5550  -13.9390   19.5000 O   0  0  0  0  0  0  0  0  0  0  0  0
  -22.6220  -11.7610   21.7620 H   0  0  0  0  0  0  0  0  0  0  0  0
  -21.2770  -12.7260   21.2270 H   0  0  0  0  0  0  0  0  0  0  0  0
  -25.5620  -14.7390   19.3290 N   0  0  0  0  0  0  0  0  0  0  0  0
  -24.7790  -15.3750   19.3990 H   0  0  0  0  0  0  0  0  0  0  0  0
  -26.4370  -15.2240   19.1820 H   0  0  0  0  0  0  0  0  0  0  0  0
  -27.3610  -16.2260   20.6450 C   0  0  0  0  0  0  0  0  0  0  0  0
  -25.9230  -16.2190   20.7580 C   0  0  0  0  0  0  0  0  0  0  0  0
  -27.8150  -17.2370   19.8200 C   0  0  0  0  0  0  0  0  0  0  0  0
  -25.3290  -17.2850   20.1190 C   0  0  0  0  0  0  0  0  0  0  0  0
  -28.2460  -15.2970   21.4310 C   0  0  0  0  0  1  0  0  0  0  0  0
  -23.8740  -17.6340   20.0300 C   0  0  0  0  0  1  0  0  0  0  0  0
  -26.5050  -18.2900   19.3250 S   0  0  0  0  0  0  0  0  0  0  0  0
  -25.1480  -15.4790   23.0430 C   0  0  0  0  0  1  0  0  0  0  0  0
  -25.1390  -15.1910   21.5340 C   0  0  0  0  0  2  0  0  0  0  0  0
  -31.7000  -22.3120   20.4360 C   0  0  0  0  0  1  0  0  0  0  0  0
  -31.0210  -21.1870   19.6260 C   0  0  0  0  0  2  0  0  0  0  0  0
  -28.6530  -22.2770   19.8840 C   0  0  0  0  0  2  0  0  0  0  0  0
  -28.4780  -23.9590   20.5610 C   0  0  0  0  0  2  0  0  0  0  0  0
  -28.4510  -25.5590   20.1110 O   0  0  0  0  0  0  0  0  0  0  0  0
  -24.7900  -31.5320   23.0800 C   0  0  0  0  0  0  0  0  0  0  0  0
  -27.3970  -26.6190   20.1530 C   0  0  0  0  0  0  0  0  0  0  0  0
  -23.6250  -30.1230   21.4310 C   0  0  0  0  0  3  0  0  0  0  0  0
  -25.0930  -28.5030   20.0520 C   0  0  0  0  0  0  0  0  0  0  0  0
  -26.1920  -30.3320   21.3260 C   0  0  0  0  0  2  0  0  0  0  0  0
  -26.2730  -28.9140   20.6860 C   0  0  0  0  0  0  0  0  0  0  0  0
  -27.4220  -27.9990   20.7020 C   0  0  0  0  0  3  0  0  0  0  0  0
  -26.1830  -26.3590   19.4800 C   0  0  0  0  0  3  0  0  0  0  0  0
  -25.0740  -27.2440   19.4300 C   0  0  0  0  0  3  0  0  0  0  0  0
  -23.8760  -29.4270   20.0670 C   0  0  0  0  0  2  0  0  0  0  0  0
  -24.8900  -30.6900   22.0000 N   0  0  0  0  0  0  0  0  0  0  0  0
  -23.6910  -31.8260   23.5810 O   0  0  0  0  0  0  0  0  0  0  0  0
  -22.9120  -29.1360   22.3910 C   0  0  0  0  0  0  0  0  0  0  0  0
  -21.5830  -28.9780   22.2480 N   0  0  0  0  0  0  0  0  0  0  0  0
  -23.5620  -28.5100   23.2320 O   0  0  0  0  0  0  0  0  0  0  0  0
  -21.1090  -29.5330   21.5480 H   0  0  0  0  0  0  0  0  0  0  0  0
  -18.1850  -27.8030   22.7360 C   0  0  0  0  0  0  0  0  0  0  0  0
  -20.7460  -28.0450   23.0110 C   0  0  0  0  0  3  0  0  0  0  0  0
  -20.8390  -26.6140   22.4330 C   0  0  0  0  0  2  0  0  0  0  0  0
  -19.7390  -26.3050   21.4130 C   0  0  0  0  0  2  0  0  0  0  0  0
  -18.3560  -26.4570   22.0510 C   0  0  0  0  0  2  0  0  0  0  0  0
  -19.3070  -28.5560   23.1720 C   0  0  0  0  0  0  0  0  0  0  0  0
  -19.0920  -29.8140   23.7750 C   0  0  0  0  0  3  0  0  0  0  0  0
  -17.7880  -30.3200   23.9460 C   0  0  0  0  0  3  0  0  0  0  0  0
  -16.6810  -29.5610   23.5240 C   0  0  0  0  0  3  0  0  0  0  0  0
  -16.8810  -28.3060   22.9230 C   0  0  0  0  0  3  0  0  0  0  0  0
  -26.0500  -32.1790   23.7310 C   0  0  0  0  0  3  0  0  0  0  0  0
  -25.7160  -33.5690   24.0860 N   0  0  0  0  0  0  0  0  0  0  0  0
  -26.0510  -34.6480   23.3660 C   0  0  0  0  0  0  0  0  0  0  0  0
  -26.7360  -34.5780   22.3420 O   0  0  0  0  0  0  0  0  0  0  0  0
  -25.1070  -33.6970   24.8810 H   0  0  0  0  0  0  0  0  0  0  0  0
  -24.3090  -36.4380   23.0490 C   0  0  0  0  0  1  0  0  0  0  0  0
  -25.5510  -36.0220   23.8560 C   0  0  0  0  0  3  0  0  0  0  0  0
  -27.6740  -36.9060   24.7190 C   0  0  0  0  0  1  0  0  0  0  0  0
  -26.5740  -37.0880   23.7740 N   0  0  0  0  0  0  0  0  0  0  0  0
  -26.1600  -38.0000   23.9440 H   0  0  0  0  0  0  0  0  0  0  0  0
  -26.5540  -31.3980   25.0070 C   0  0  1  0  0  0  0  0  0  0  0  0
  -25.4480  -31.1380   26.0550 C   0  0  0  0  0  1  0  0  0  0  0  0
  -27.1580  -30.0300   24.6200 C   0  0  0  0  0  1  0  0  0  0  0  0
  -27.6860  -32.1970   25.6980 C   0  0  0  0  0  1  0  0  0  0  0  0
  1 48  1  0
  1  2  1  0
  2 10  1  0
  2  5  1  0
  3  1  1  0
  3  7  1  0
  4  6  1  0
  4  9  2  0
  5  6  1  0
  7 56  1  6
  7  4  1  0
  8  3  2  0
 11 16  1  0
 12 13  1  0
 12 11  1  0
 14 13  1  0
 14 21  1  0
 14 15  1  0
 16 10  1  0
 16 15  1  0
 17 10  2  0
 18 19  2  0
 19 38  1  0
 19 20  1  0
 20 23  1  0
 21 18  1  0
 21 22  1  0
 22 20  2  0
 23 24  1  0
 24 25  2  0
 26 29  1  0
 26 25  1  0
 27 26  2  0
 28 27  1  0
 28 23  2  0
 29 30  1  0
 30 35  2  0
 30 31  1  0
 31 32  2  0
 32 33  1  0
 33 37  1  0
 34 33  2  0
 35 34  1  0
 36 35  1  0
 38 39  1  0
 39 42  1  0
 39 41  1  0
 40 38  2  0
 43 44  1  0
 43 18  1  0
 45 43  1  0
 46 47  1  0
 46 50  1  0
 47 54  1  0
 48 46  2  0
 49 47  2  0
 51 49  1  0
 52 48  1  0
 52 49  1  0
 54 53  1  0
 56 55  1  0
 57  7  1  0
 57 58  1  0
 59 61  1  0
 59 58  1  0
 60 71  2  0
 61 66  1  0
 62 70  1  0
 62 72  1  0
 63 69  1  0
 63 65  1  0
 64 70  1  0
 65 66  2  0
 65 64  1  0
 67 61  2  0
 68 67  1  0
 68 63  2  0
 69 62  1  0
 70 60  1  0
 72 74  2  0
 73 72  1  0
 75 73  1  0
 76 85  2  0
 76 81  1  0
 77 73  1  0
 77 81  1  0
 78 77  1  0
 79 80  1  0
 79 78  1  0
 80 76  1  0
 81 82  2  0
 82 83  1  0
 84 83  2  0
 85 84  1  0
 86 60  1  0
 86 87  1  0
 86 96  1  0
 87 90  1  0
 88 92  1  0
 88 87  1  0
 89 88  2  0
 92 91  1  0
 94 92  1  0
 94 95  1  0
 94 93  1  0
 96 99  1  1
 96 97  1  0
 98 96  1  0
M  ISO  4   2 100  10 100  58 101  59 101
M  END
>  <TORSDO>  (85) 
F 21

>  <SCORE>  (85) 
-4.243

>  <name>  (85) 
84

>  <ligand_id>  (85) 
84

>  <original_smiles>  (85) 
[H]c1c([H])c([H])c2c(c1[H])C([H])([H])C([H])([H])C([H])([H])C2([H])N([H])C(=O)C1([H])N(C(=O)C([H])(N([H])C(=O)C([H])(N([H])C([H])([H])[H])C([H])([H])[H])C(C([H])([H])[H])(C([H])([H])[H])C([H])([H])[H])C([H])([H])c2c([H])c(OC([H])([H])C([H])([H])C3(C([H])([H])C([H])([H])[H])C(=O)C(c4sc(C([H])([H])[H])c(C([H])([H])C([H])([H])[H])c4C([H])([H])[H])=C(C(=O)N4C([H])([H])C([H])([H])C([H])([H])C([H])(n5nc(-c6c([H])c([H])c(Oc7c([H])c([H])c(F)c([H])c7F)c([H])c6[H])c(C(=O)N([H])[H])c5N([H])[H])C4([H])[H])C([H])([H])C([H])([H])C3=O)c([H])c([H])c2C1([H])[H]

>  <smiles>  (85) 
[H]c1c([H])c([H])c2c(c1[H])C([H])([H])C([H])([H])C([H])([H])C2([H])N([H])C(=O)C1([H])N(C(=O)C([H])(N([H])C(=O)C([H])(N([H])C([H])([H])[H])C([H])([H])[H])C(C([H])([H])[H])(C([H])([H])[H])C([H])([H])[H])C([H])([H])c2c([H])c(OC([H])([H])C([H])([H])C3(C([H])([H])C([H])([H])[H])C(=O)C(c4sc(C([H])([H])[H])c(C([H])([H])C([H])([H])[H])c4C([H])([H])[H])=C(C(=O)N4C([H])([H])C([H])([H])C([H])([H])C([H])(n5nc(-c6c([H])c([H])c(Oc7c([H])c([H])c(F)c([H])c7F)c([H])c6[H])c(C(=O)N([H])[H])c5N([H])[H])C4([H])[H])C([H])([H])C([H])([H])C3=O)c([H])c([H])c2C1([H])[H]

$$$$
85:0:0
     RDKit          3D

 94103  0  0  1  0  0  0  0  0999 V2000
  -30.1960  -25.1190   20.1350 C   0  0  0  0  0  3  0  0  0  0  0  0
  -27.9960  -24.6580   21.0310 C   0  0  0  0  0  3  0  0  0  0  0  0
  -30.6740  -23.8650   20.5780 C   0  0  0  0  0  0  0  0  0  0  0  0
  -29.7950  -22.9810   21.2630 C   0  0  0  0  0  0  0  0  0  0  0  0
  -28.8680  -25.5390   20.3530 C   0  0  0  0  0  0  0  0  0  0  0  0
  -28.4550  -23.3930   21.4730 C   0  0  0  0  0  0  0  0  0  0  0  0
  -32.1360  -23.5230   20.3220 C   0  0  0  0  0  1  0  0  0  0  0  0
  -27.6010  -22.5810   22.1410 F   0  0  0  0  0  0  0  0  0  0  0  0
  -28.5370  -26.8010   19.8890 O   0  0  0  0  0  0  0  0  0  0  0  0
  -24.5190  -31.7110   23.1620 C   0  0  0  0  0  0  0  0  0  0  0  0
  -27.3030  -27.3980   20.0270 C   0  0  0  0  0  0  0  0  0  0  0  0
  -23.3510  -30.2990   21.4980 C   0  0  0  0  0  3  0  0  0  0  0  0
  -24.8510  -28.8120   20.0650 C   0  0  0  0  0  0  0  0  0  0  0  0
  -25.8630  -30.7350   21.3040 C   0  0  0  0  0  2  0  0  0  0  0  0
  -25.9890  -29.3690   20.6610 C   0  0  0  0  0  0  0  0  0  0  0  0
  -27.2150  -28.6680   20.6440 C   0  0  0  0  0  3  0  0  0  0  0  0
  -26.1510  -26.8500   19.4250 C   0  0  0  0  0  3  0  0  0  0  0  0
  -24.9250  -27.5480   19.4490 C   0  0  0  0  0  3  0  0  0  0  0  0
  -23.5810  -29.6340   20.1120 C   0  0  0  0  0  2  0  0  0  0  0  0
  -24.5960  -30.9310   22.0460 N   0  0  0  0  0  0  0  0  0  0  0  0
  -23.4330  -31.9390   23.7110 O   0  0  0  0  0  0  0  0  0  0  0  0
  -22.7340  -29.2470   22.4470 C   0  0  0  0  0  0  0  0  0  0  0  0
  -21.4200  -29.0120   22.3040 N   0  0  0  0  0  0  0  0  0  0  0  0
  -23.4340  -28.6440   23.2640 O   0  0  0  0  0  0  0  0  0  0  0  0
  -20.9140  -29.5510   21.6150 H   0  0  0  0  0  0  0  0  0  0  0  0
  -18.1030  -27.6450   22.7240 C   0  0  0  0  0  0  0  0  0  0  0  0
  -20.6350  -28.0350   23.0590 C   0  0  0  0  0  3  0  0  0  0  0  0
  -20.8270  -26.6090   22.4910 C   0  0  0  0  0  2  0  0  0  0  0  0
  -19.7700  -26.2280   21.4510 C   0  0  0  0  0  2  0  0  0  0  0  0
  -18.3660  -26.3060   22.0590 C   0  0  0  0  0  2  0  0  0  0  0  0
  -19.1690  -28.4650   23.1810 C   0  0  0  0  0  0  0  0  0  0  0  0
  -18.8720  -29.7170   23.7620 C   0  0  0  0  0  3  0  0  0  0  0  0
  -17.5380  -30.1510   23.8930 C   0  0  0  0  0  3  0  0  0  0  0  0
  -16.4850  -29.3300   23.4540 C   0  0  0  0  0  3  0  0  0  0  0  0
  -16.7690  -28.0790   22.8770 C   0  0  0  0  0  3  0  0  0  0  0  0
  -25.7890  -32.3700   23.7890 C   0  0  0  0  0  3  0  0  0  0  0  0
  -26.3250  -31.6020   25.0590 C   0  0  1  0  0  0  0  0  0  0  0  0
  -25.2350  -31.3280   26.1200 C   0  0  0  0  0  1  0  0  0  0  0  0
  -26.9470  -30.2460   24.6530 C   0  0  0  0  0  1  0  0  0  0  0  0
  -27.4540  -32.4220   25.7280 C   0  0  0  0  0  1  0  0  0  0  0  0
  -25.4480  -33.7570   24.1290 N   0  0  0  0  0  0  0  0  0  0  0  0
  -25.7560  -34.8220   23.3780 C   0  0  0  0  0  0  0  0  0  0  0  0
  -26.4300  -34.7410   22.3470 O   0  0  0  0  0  0  0  0  0  0  0  0
  -24.8480  -33.8930   24.9290 H   0  0  0  0  0  0  0  0  0  0  0  0
  -23.9830  -36.5690   23.0270 C   0  0  0  0  0  1  0  0  0  0  0  0
  -25.2310  -36.1940   23.8410 C   0  0  0  0  0  3  0  0  0  0  0  0
  -27.3420  -37.1230   24.6800 C   0  0  0  0  0  1  0  0  0  0  0  0
  -26.2350  -37.2760   23.7410 N   0  0  0  0  0  0  0  0  0  0  0  0
  -25.8040  -38.1820   23.9030 H   0  0  0  0  0  0  0  0  0  0  0  0
  -30.2920  -21.6430   21.8450 C   0  0  0  0  0  2  0  0  0  0  0  0
  -29.6710  -20.3530   21.2430 C   0  0  0  0  0  2  0  0  0  0  0  0
  -31.6850  -18.8620   20.5840 C   0  0  0  0  0  2  0  0  0  0  0  0
  -31.9180  -17.3440   20.4860 C   0  0  0  0  0  2  0  0  0  0  0  0
  -29.7510  -17.7260   21.4710 C   0  0  0  0  0  2  0  0  0  0  0  0
  -30.5040  -19.0720   21.5430 C   0  0  0  0  0  3  0  0  0  0  0  0
  -30.8620  -16.6580   21.3790 C   0  0  0  0  0  3  0  0  0  0  0  0
  -30.9330  -14.3470   20.2370 C   0  0  0  0  0  0  0  0  0  0  0  0
  -30.5460  -12.1700   19.1260 C   0  0  0  0  0  2  0  0  0  0  0  0
  -29.5830  -12.3410   17.9360 C   0  0  0  0  0  2  0  0  0  0  0  0
  -28.1150  -12.2500   18.4010 C   0  0  0  0  0  2  0  0  0  0  0  0
  -27.8200  -13.1400   19.6380 C   0  0  0  0  0  3  0  0  0  0  0  0
  -28.8910  -12.9350   20.7320 C   0  0  0  0  0  2  0  0  0  0  0  0
  -30.2110  -13.1950   20.1300 N   0  0  0  0  0  0  0  0  0  0  0  0
  -32.0180  -14.4930   19.6690 O   0  0  0  0  0  0  0  0  0  0  0  0
  -30.3520  -15.3330   20.9550 N   0  0  0  0  0  0  0  0  0  0  0  0
  -29.4580  -15.0750   21.3470 H   0  0  0  0  0  0  0  0  0  0  0  0
  -25.4680  -13.8310   20.4250 C   0  0  0  0  0  0  0  0  0  0  0  0
  -24.3820  -13.0960   20.8180 C   0  0  0  0  0  0  0  0  0  0  0  0
  -24.7870  -11.7270   20.7570 C   0  0  0  0  0  0  0  0  0  0  0  0
  -26.4710  -12.9130   20.1530 N   0  0  0  0  0  0  0  0  0  0  0  0
  -26.0650  -11.6410   20.4060 N   0  0  0  0  0  0  0  0  0  0  0  0
  -24.0150  -10.4940   20.9570 C   0  0  0  0  0  0  0  0  0  0  0  0
  -24.4140   -9.5170   21.8960 C   0  0  0  0  0  3  0  0  0  0  0  0
  -23.6450   -8.3480   22.0840 C   0  0  0  0  0  3  0  0  0  0  0  0
  -22.4640   -8.1470   21.3320 C   0  0  0  0  0  0  0  0  0  0  0  0
  -22.0840   -9.1100   20.3810 C   0  0  0  0  0  3  0  0  0  0  0  0
  -22.8530  -10.2720   20.1910 C   0  0  0  0  0  3  0  0  0  0  0  0
  -21.6690   -7.0290   21.4260 O   0  0  0  0  0  0  0  0  0  0  0  0
  -21.5690   -6.3140   22.5920 C   0  0  0  0  0  0  0  0  0  0  0  0
  -21.1200   -6.9060   23.7920 C   0  0  0  0  0  3  0  0  0  0  0  0
  -20.9670   -6.1190   24.9500 C   0  0  0  0  0  3  0  0  0  0  0  0
  -21.2520   -4.7410   24.9110 C   0  0  0  0  0  0  0  0  0  0  0  0
  -21.6940   -4.1480   23.7140 C   0  0  0  0  0  3  0  0  0  0  0  0
  -21.8510   -4.9330   22.5580 C   0  0  0  0  0  0  0  0  0  0  0  0
  -22.2560   -4.3540   21.4020 F   0  0  0  0  0  0  0  0  0  0  0  0
  -21.0980   -3.9820   26.0200 F   0  0  0  0  0  0  0  0  0  0  0  0
  -23.0150  -13.6260   21.1450 C   0  0  0  0  0  0  0  0  0  0  0  0
  -22.2890  -12.9490   22.0260 N   0  0  0  0  0  0  0  0  0  0  0  0
  -22.6020  -14.6750   20.6510 O   0  0  0  0  0  0  0  0  0  0  0  0
  -22.6370  -12.1010   22.4490 H   0  0  0  0  0  0  0  0  0  0  0  0
  -21.3710  -13.2850   22.2830 H   0  0  0  0  0  0  0  0  0  0  0  0
  -25.6830  -15.1950   20.2600 N   0  0  0  0  0  0  0  0  0  0  0  0
  -24.9460  -15.8790   20.3950 H   0  0  0  0  0  0  0  0  0  0  0  0
  -26.5450  -15.6060   19.9230 H   0  0  0  0  0  0  0  0  0  0  0  0
  1  5  2  0
  1  3  1  0
  2  6  2  0
  3  4  2  0
  4  6  1  0
  4 50  1  0
  5  2  1  0
  6  8  1  0
  7  3  1  0
  9 11  1  0
  9  5  1  0
 10 21  2  0
 11 16  1  0
 12 20  1  0
 12 22  1  0
 13 19  1  0
 13 15  1  0
 14 20  1  0
 15 14  1  0
 16 15  2  0
 17 18  1  0
 17 11  2  0
 18 13  2  0
 19 12  1  0
 20 10  1  0
 22 24  2  0
 23 22  1  0
 25 23  1  0
 26 35  2  0
 26 31  1  0
 27 23  1  0
 27 31  1  0
 28 27  1  0
 29 30  1  0
 29 28  1  0
 30 26  1  0
 31 32  2  0
 32 33  1  0
 34 33  2  0
 35 34  1  0
 36 10  1  0
 36 41  1  0
 36 37  1  0
 37 40  1  1
 37 38  1  0
 39 37  1  0
 41 44  1  0
 42 46  1  0
 42 41  1  0
 43 42  2  0
 46 45  1  0
 48 46  1  0
 48 49  1  0
 48 47  1  0
 51 50  1  0
 52 55  1  0
 53 52  1  0
 53 56  1  0
 54 55  1  0
 55 51  1  0
 56 65  1  0
 56 54  1  0
 57 65  1  0
 58 63  1  0
 59 60  1  0
 59 58  1  0
 61 60  1  0
 61 70  1  0
 61 62  1  0
 63 57  1  0
 63 62  1  0
 64 57  2  0
 65 66  1  0
 67 68  2  0
 68 87  1  0
 69 68  1  0
 69 72  1  0
 70 71  1  0
 70 67  1  0
 71 69  2  0
 72 73  1  0
 73 74  2  0
 75 78  1  0
 75 74  1  0
 76 75  2  0
 77 76  1  0
 77 72  2  0
 78 79  1  0
 79 80  1  0
 80 81  2  0
 82 81  1  0
 82 86  1  0
 83 82  2  0
 84 79  2  0
 84 83  1  0
 85 84  1  0
 87 88  1  0
 88 91  1  0
 88 90  1  0
 89 87  2  0
 92 93  1  0
 92 67  1  0
 94 92  1  0
M  ISO  4   5 101   9 101  57 100  65 100
M  END
>  <TORSDO>  (86) 
F 19

>  <SCORE>  (86) 
-13.984

>  <name>  (86) 
85

>  <ligand_id>  (86) 
85

>  <original_smiles>  (86) 
[H]c1c([H])c([H])c2c(c1[H])C([H])([H])C([H])([H])C([H])([H])C2([H])N([H])C(=O)C1([H])N(C(=O)C([H])(N([H])C(=O)C([H])(N([H])C([H])([H])[H])C([H])([H])[H])C(C([H])([H])[H])(C([H])([H])[H])C([H])([H])[H])C([H])([H])c2c([H])c(Oc3c([H])c(F)c(C([H])([H])C([H])([H])C4([H])C([H])([H])C([H])([H])C([H])(N([H])C(=O)N5C([H])([H])C([H])([H])C([H])([H])C([H])(n6nc(-c7c([H])c([H])c(Oc8c([H])c([H])c(F)c([H])c8F)c([H])c7[H])c(C(=O)N([H])[H])c6N([H])[H])C5([H])[H])C4([H])[H])c(C([H])([H])[H])c3[H])c([H])c([H])c2C1([H])[H]

>  <smiles>  (86) 
[H]c1c([H])c([H])c2c(c1[H])C([H])([H])C([H])([H])C([H])([H])C2([H])N([H])C(=O)C1([H])N(C(=O)C([H])(N([H])C(=O)C([H])(N([H])C([H])([H])[H])C([H])([H])[H])C(C([H])([H])[H])(C([H])([H])[H])C([H])([H])[H])C([H])([H])c2c([H])c(Oc3c([H])c(F)c(C([H])([H])C([H])([H])C4([H])C([H])([H])C([H])([H])C([H])(N([H])C(=O)N5C([H])([H])C([H])([H])C([H])([H])C([H])(n6nc(-c7c([H])c([H])c(Oc8c([H])c([H])c(F)c([H])c8F)c([H])c7[H])c(C(=O)N([H])[H])c6N([H])[H])C5([H])[H])C4([H])[H])c(C([H])([H])[H])c3[H])c([H])c([H])c2C1([H])[H]

$$$$
86:0:0
     RDKit          3D

 98107  0  0  1  0  0  0  0  0999 V2000
  -30.0340  -21.4350   21.2520 C   0  0  0  0  0  2  0  0  0  0  0  0
  -29.0240  -23.1940   19.7390 C   0  0  0  0  0  3  0  0  0  0  0  0
  -28.6310  -24.5120   19.4380 C   0  0  0  0  0  3  0  0  0  0  0  0
  -28.9780  -25.1350   21.7580 C   0  0  0  0  0  3  0  0  0  0  0  0
  -29.4440  -22.8360   21.0390 C   0  0  0  0  0  0  0  0  0  0  0  0
  -29.3750  -23.8090   22.0700 C   0  0  0  0  0  0  0  0  0  0  0  0
  -28.6410  -25.5050   20.4370 C   0  0  0  0  0  0  0  0  0  0  0  0
  -29.7770  -23.4630   23.4940 C   0  0  0  0  0  1  0  0  0  0  0  0
  -28.4970  -26.8280   20.0850 O   0  0  0  0  0  0  0  0  0  0  0  0
  -24.6120  -31.8860   23.2310 C   0  0  0  0  0  0  0  0  0  0  0  0
  -27.2870  -27.4790   20.1520 C   0  0  0  0  0  0  0  0  0  0  0  0
  -23.4130  -30.4930   21.5720 C   0  0  0  0  0  3  0  0  0  0  0  0
  -24.8770  -28.9590   20.1510 C   0  0  0  0  0  0  0  0  0  0  0  0
  -25.9340  -30.8610   21.3860 C   0  0  0  0  0  2  0  0  0  0  0  0
  -26.0280  -29.4920   20.7470 C   0  0  0  0  0  0  0  0  0  0  0  0
  -27.2320  -28.7570   20.7480 C   0  0  0  0  0  3  0  0  0  0  0  0
  -26.1220  -26.9490   19.5540 C   0  0  0  0  0  3  0  0  0  0  0  0
  -24.9180  -27.6830   19.5590 C   0  0  0  0  0  3  0  0  0  0  0  0
  -23.6310  -29.8160   20.1910 C   0  0  0  0  0  2  0  0  0  0  0  0
  -24.6710  -31.0960   22.1230 N   0  0  0  0  0  0  0  0  0  0  0  0
  -23.5300  -32.1500   23.7750 O   0  0  0  0  0  0  0  0  0  0  0  0
  -22.7630  -29.4670   22.5250 C   0  0  0  0  0  0  0  0  0  0  0  0
  -21.4420  -29.2690   22.3870 N   0  0  0  0  0  0  0  0  0  0  0  0
  -23.4480  -28.8480   23.3430 O   0  0  0  0  0  0  0  0  0  0  0  0
  -20.9510  -29.8230   21.7000 H   0  0  0  0  0  0  0  0  0  0  0  0
  -18.0820  -28.0340   22.8450 C   0  0  0  0  0  0  0  0  0  0  0  0
  -20.6310  -28.3220   23.1480 C   0  0  0  0  0  3  0  0  0  0  0  0
  -20.7590  -26.8920   22.5750 C   0  0  0  0  0  2  0  0  0  0  0  0
  -19.6760  -26.5540   21.5470 C   0  0  0  0  0  2  0  0  0  0  0  0
  -18.2850  -26.6850   22.1730 C   0  0  0  0  0  2  0  0  0  0  0  0
  -19.1860  -28.8090   23.2890 C   0  0  0  0  0  0  0  0  0  0  0  0
  -18.9480  -30.0700   23.8750 C   0  0  0  0  0  3  0  0  0  0  0  0
  -17.6370  -30.5570   24.0250 C   0  0  0  0  0  3  0  0  0  0  0  0
  -16.5460  -29.7790   23.5990 C   0  0  0  0  0  3  0  0  0  0  0  0
  -16.7690  -28.5200   23.0150 C   0  0  0  0  0  3  0  0  0  0  0  0
  -25.8980  -32.5180   23.8540 C   0  0  0  0  0  3  0  0  0  0  0  0
  -26.4190  -31.7410   25.1240 C   0  0  1  0  0  0  0  0  0  0  0  0
  -25.3280  -31.4940   26.1920 C   0  0  0  0  0  1  0  0  0  0  0  0
  -27.0060  -30.3660   24.7250 C   0  0  0  0  0  1  0  0  0  0  0  0
  -27.5660  -32.5350   25.7930 C   0  0  0  0  0  1  0  0  0  0  0  0
  -25.5880  -33.9140   24.1890 N   0  0  0  0  0  0  0  0  0  0  0  0
  -25.9220  -34.9690   23.4320 C   0  0  0  0  0  0  0  0  0  0  0  0
  -26.5960  -34.8700   22.4010 O   0  0  0  0  0  0  0  0  0  0  0  0
  -24.9910  -34.0590   24.9900 H   0  0  0  0  0  0  0  0  0  0  0  0
  -24.1980  -36.7630   23.0710 C   0  0  0  0  0  1  0  0  0  0  0  0
  -25.4320  -36.3560   23.8920 C   0  0  0  0  0  3  0  0  0  0  0  0
  -27.5580  -37.2380   24.7460 C   0  0  0  0  0  1  0  0  0  0  0  0
  -26.4650  -37.4100   23.7920 N   0  0  0  0  0  0  0  0  0  0  0  0
  -26.0570  -38.3280   23.9420 H   0  0  0  0  0  0  0  0  0  0  0  0
  -29.0130  -20.3450   21.6380 C   0  0  0  0  0  2  0  0  0  0  0  0
  -29.8220  -18.0240   20.9720 C   0  0  0  0  0  0  0  0  0  0  0  0
  -29.1370  -19.1610   20.7860 N   0  0  0  0  0  0  0  0  0  0  0  0
  -30.4280  -17.7820   22.0170 O   0  0  0  0  0  0  0  0  0  0  0  0
  -28.6730  -19.2190   19.8880 H   0  0  0  0  0  0  0  0  0  0  0  0
  -29.5390  -18.4690   17.0990 C   0  0  0  0  0  2  0  0  0  0  0  0
  -30.8090  -18.5930   17.9490 C   0  0  0  0  0  2  0  0  0  0  0  0
  -28.3080  -18.2530   17.9830 C   0  0  0  0  0  2  0  0  0  0  0  0
  -31.0120  -17.3420   18.8220 C   0  0  0  0  0  2  0  0  0  0  0  0
  -28.5000  -17.0650   18.9580 C   0  0  0  0  0  2  0  0  0  0  0  0
  -29.8300  -17.0120   19.7870 C   0  0  2  0  0  0  0  0  0  0  0  0
  -30.7020  -14.5850   20.0660 C   0  0  0  0  0  0  0  0  0  0  0  0
  -30.3800  -12.4290   18.9420 C   0  0  0  0  0  2  0  0  0  0  0  0
  -29.3900  -12.6780   17.7820 C   0  0  0  0  0  2  0  0  0  0  0  0
  -27.9320  -12.5340   18.2630 C   0  0  0  0  0  2  0  0  0  0  0  0
  -27.6540  -13.3320   19.5650 C   0  0  0  0  0  3  0  0  0  0  0  0
  -28.7550  -13.0860   20.6230 C   0  0  0  0  0  2  0  0  0  0  0  0
  -30.0570  -13.3910   20.0050 N   0  0  0  0  0  0  0  0  0  0  0  0
  -31.8550  -14.7320   19.6500 O   0  0  0  0  0  0  0  0  0  0  0  0
  -29.8850  -15.6250   20.3380 N   0  0  0  0  0  0  0  0  0  0  0  0
  -29.0350  -15.3470   20.8040 H   0  0  0  0  0  0  0  0  0  0  0  0
  -25.2870  -13.9480   20.3680 C   0  0  0  0  0  0  0  0  0  0  0  0
  -24.2350  -13.1770   20.7800 C   0  0  0  0  0  0  0  0  0  0  0  0
  -24.6920  -11.8250   20.7220 C   0  0  0  0  0  0  0  0  0  0  0  0
  -26.3210  -13.0640   20.0940 N   0  0  0  0  0  0  0  0  0  0  0  0
  -25.9680  -11.7830   20.3620 N   0  0  0  0  0  0  0  0  0  0  0  0
  -23.9740  -10.5640   20.9310 C   0  0  0  0  0  0  0  0  0  0  0  0
  -24.4270   -9.6050   21.8620 C   0  0  0  0  0  3  0  0  0  0  0  0
  -23.7080   -8.4060   22.0590 C   0  0  0  0  0  3  0  0  0  0  0  0
  -22.5260   -8.1580   21.3220 C   0  0  0  0  0  0  0  0  0  0  0  0
  -22.0930   -9.1070   20.3770 C   0  0  0  0  0  3  0  0  0  0  0  0
  -22.8110  -10.2980   20.1790 C   0  0  0  0  0  3  0  0  0  0  0  0
  -21.7790   -7.0110   21.4290 O   0  0  0  0  0  0  0  0  0  0  0  0
  -21.7280   -6.2910   22.5960 C   0  0  0  0  0  0  0  0  0  0  0  0
  -21.2960   -6.8680   23.8100 C   0  0  0  0  0  3  0  0  0  0  0  0
  -21.1940   -6.0750   24.9700 C   0  0  0  0  0  3  0  0  0  0  0  0
  -21.5140   -4.7040   24.9170 C   0  0  0  0  0  0  0  0  0  0  0  0
  -21.9380   -4.1270   23.7070 C   0  0  0  0  0  3  0  0  0  0  0  0
  -22.0420   -4.9180   22.5490 C   0  0  0  0  0  0  0  0  0  0  0  0
  -22.4320   -4.3510   21.3820 F   0  0  0  0  0  0  0  0  0  0  0  0
  -21.4070   -3.9400   26.0280 F   0  0  0  0  0  0  0  0  0  0  0  0
  -22.8520  -13.6560   21.1150 C   0  0  0  0  0  0  0  0  0  0  0  0
  -22.1610  -12.9530   22.0060 N   0  0  0  0  0  0  0  0  0  0  0  0
  -22.3950  -14.6860   20.6240 O   0  0  0  0  0  0  0  0  0  0  0  0
  -22.5460  -12.1190   22.4250 H   0  0  0  0  0  0  0  0  0  0  0  0
  -21.2350  -13.2540   22.2760 H   0  0  0  0  0  0  0  0  0  0  0  0
  -25.4410  -15.3190   20.1890 N   0  0  0  0  0  0  0  0  0  0  0  0
  -24.6610  -15.9570   20.2950 H   0  0  0  0  0  0  0  0  0  0  0  0
  -26.2470  -15.7490   19.7600 H   0  0  0  0  0  0  0  0  0  0  0  0
  1 50  1  0
  2  5  1  0
  3  2  2  0
  3  7  1  0
  4  6  1  0
  5  1  1  0
  5  6  2  0
  6  8  1  0
  7  4  2  0
  9 11  1  0
  9  7  1  0
 10 21  2  0
 11 16  1  0
 12 20  1  0
 12 22  1  0
 13 19  1  0
 13 15  1  0
 14 20  1  0
 15 16  2  0
 15 14  1  0
 17 18  1  0
 17 11  2  0
 18 13  2  0
 19 12  1  0
 20 10  1  0
 22 24  2  0
 23 22  1  0
 25 23  1  0
 26 35  2  0
 26 31  1  0
 27 23  1  0
 27 31  1  0
 28 27  1  0
 29 30  1  0
 29 28  1  0
 30 26  1  0
 31 32  2  0
 32 33  1  0
 34 33  2  0
 35 34  1  0
 36 10  1  0
 36 41  1  0
 36 37  1  0
 37 40  1  1
 37 38  1  0
 39 37  1  0
 41 44  1  0
 42 46  1  0
 42 41  1  0
 43 42  2  0
 46 45  1  0
 48 46  1  0
 48 49  1  0
 48 47  1  0
 51 53  2  0
 52 51  1  0
 52 50  1  0
 54 52  1  0
 55 56  1  0
 55 57  1  0
 56 58  1  0
 57 59  1  0
 58 60  1  0
 59 60  1  0
 60 69  1  1
 60 51  1  0
 61 69  1  0
 62 67  1  0
 63 64  1  0
 63 62  1  0
 65 64  1  0
 65 74  1  0
 65 66  1  0
 67 61  1  0
 67 66  1  0
 68 61  2  0
 69 70  1  0
 71 72  2  0
 72 91  1  0
 73 72  1  0
 73 76  1  0
 74 75  1  0
 74 71  1  0
 75 73  2  0
 76 77  1  0
 77 78  2  0
 79 82  1  0
 79 78  1  0
 80 79  2  0
 81 80  1  0
 81 76  2  0
 82 83  1  0
 83 84  1  0
 84 85  2  0
 86 85  1  0
 86 90  1  0
 87 86  2  0
 88 83  2  0
 88 87  1  0
 89 88  1  0
 91 92  1  0
 92 95  1  0
 92 94  1  0
 93 91  2  0
 96 97  1  0
 96 71  1  0
 98 96  1  0
M  ISO  4   7 101   9 101  61 100  69 100
M  END
>  <TORSDO>  (87) 
F 20

>  <SCORE>  (87) 
-13.931

>  <name>  (87) 
86

>  <ligand_id>  (87) 
86

>  <original_smiles>  (87) 
[H]c1c([H])c([H])c2c(c1[H])C([H])([H])C([H])([H])C([H])([H])C2([H])N([H])C(=O)C1([H])N(C(=O)C([H])(N([H])C(=O)C([H])(N([H])C([H])([H])[H])C([H])([H])[H])C(C([H])([H])[H])(C([H])([H])[H])C([H])([H])[H])C([H])([H])c2c([H])c(Oc3c([H])c([H])c(C([H])([H])C([H])([H])N([H])C(=O)C4(N([H])C(=O)N5C([H])([H])C([H])([H])C([H])([H])C([H])(n6nc(-c7c([H])c([H])c(Oc8c([H])c([H])c(F)c([H])c8F)c([H])c7[H])c(C(=O)N([H])[H])c6N([H])[H])C5([H])[H])C([H])([H])C([H])([H])C([H])([H])C([H])([H])C4([H])[H])c(C([H])([H])[H])c3[H])c([H])c([H])c2C1([H])[H]

>  <smiles>  (87) 
[H]c1c([H])c([H])c2c(c1[H])C([H])([H])C([H])([H])C([H])([H])C2([H])N([H])C(=O)C1([H])N(C(=O)C([H])(N([H])C(=O)C([H])(N([H])C([H])([H])[H])C([H])([H])[H])C(C([H])([H])[H])(C([H])([H])[H])C([H])([H])[H])C([H])([H])c2c([H])c(Oc3c([H])c([H])c(C([H])([H])C([H])([H])N([H])C(=O)C4(N([H])C(=O)N5C([H])([H])C([H])([H])C([H])([H])C([H])(n6nc(-c7c([H])c([H])c(Oc8c([H])c([H])c(F)c([H])c8F)c([H])c7[H])c(C(=O)N([H])[H])c6N([H])[H])C5([H])[H])C([H])([H])C([H])([H])C([H])([H])C([H])([H])C4([H])[H])c(C([H])([H])[H])c3[H])c([H])c([H])c2C1([H])[H]

$$$$
87:0:0
     RDKit          3D

 89 97  0  0  1  0  0  0  0  0999 V2000
  -27.1260  -23.3260   20.7780 C   0  0  0  0  0  3  0  0  0  0  0  0
  -26.8690  -21.9310   21.0010 C   0  0  0  0  0  3  0  0  0  0  0  0
  -28.9840  -20.8760   20.0820 C   0  0  0  0  0  0  0  0  0  0  0  0
  -28.3040  -23.8610   20.2030 C   0  0  0  0  0  0  0  0  0  0  0  0
  -27.7000  -20.8010   20.6840 C   0  0  0  0  0  0  0  0  0  0  0  0
  -29.1960  -22.5050   19.8900 C   0  0  0  0  0  0  0  0  0  0  0  0
  -27.2130  -19.5720   20.9900 F   0  0  0  0  0  0  0  0  0  0  0  0
  -30.4000  -22.7990   19.3420 F   0  0  0  0  0  0  0  0  0  0  0  0
  -29.7000  -17.6410   19.9420 C   0  0  0  0  0  3  0  0  0  0  0  0
  -29.8350  -19.2110   19.8090 C   0  0  0  0  0  0  0  0  0  0  0  0
  -30.5510  -16.1010   19.6980 C   0  0  0  0  0  0  0  0  0  0  0  0
  -30.7230  -13.4990   18.9120 C   0  0  0  0  0  2  0  0  0  0  0  0
  -29.7750  -12.9930   17.7810 C   0  0  0  0  0  2  0  0  0  0  0  0
  -28.4170  -12.5610   18.3510 C   0  0  0  0  0  2  0  0  0  0  0  0
  -27.9340  -13.5600   19.4250 C   0  0  0  0  0  3  0  0  0  0  0  0
  -29.0220  -13.9760   20.4480 C   0  0  0  0  0  2  0  0  0  0  0  0
  -30.1070  -14.6780   19.7100 N   0  0  0  0  0  0  0  0  0  0  0  0
  -31.7580  -16.0210   19.3750 O   0  0  0  0  0  0  0  0  0  0  0  0
  -25.6650  -14.0120   20.4610 C   0  0  0  0  0  0  0  0  0  0  0  0
  -24.6500  -13.2030   20.8810 C   0  0  0  0  0  0  0  0  0  0  0  0
  -25.1130  -11.8610   20.7140 C   0  0  0  0  0  0  0  0  0  0  0  0
  -26.6790  -13.1690   20.0520 N   0  0  0  0  0  0  0  0  0  0  0  0
  -26.3690  -11.8600   20.2680 N   0  0  0  0  0  0  0  0  0  0  0  0
  -24.4070  -10.5840   20.8960 C   0  0  0  0  0  0  0  0  0  0  0  0
  -24.8320   -9.6300   21.8460 C   0  0  0  0  0  3  0  0  0  0  0  0
  -24.1190   -8.4240   22.0190 C   0  0  0  0  0  3  0  0  0  0  0  0
  -22.9640   -8.1630   21.2440 C   0  0  0  0  0  0  0  0  0  0  0  0
  -22.5550   -9.1080   20.2860 C   0  0  0  0  0  3  0  0  0  0  0  0
  -23.2690  -10.3050   20.1110 C   0  0  0  0  0  3  0  0  0  0  0  0
  -22.2250   -7.0060   21.3250 O   0  0  0  0  0  0  0  0  0  0  0  0
  -22.0170   -6.3650   22.5190 C   0  0  0  0  0  0  0  0  0  0  0  0
  -21.3920   -7.0080   23.6100 C   0  0  0  0  0  3  0  0  0  0  0  0
  -21.1350   -6.2920   24.7960 C   0  0  0  0  0  3  0  0  0  0  0  0
  -21.4920   -4.9330   24.8910 C   0  0  0  0  0  0  0  0  0  0  0  0
  -22.1100   -4.2900   23.8050 C   0  0  0  0  0  3  0  0  0  0  0  0
  -22.3690   -5.0030   22.6210 C   0  0  0  0  0  0  0  0  0  0  0  0
  -22.9440   -4.3730   21.5690 F   0  0  0  0  0  0  0  0  0  0  0  0
  -21.2400   -4.2430   26.0280 F   0  0  0  0  0  0  0  0  0  0  0  0
  -23.2870  -13.6550   21.3170 C   0  0  0  0  0  0  0  0  0  0  0  0
  -22.6490  -12.9060   22.2070 N   0  0  0  0  0  0  0  0  0  0  0  0
  -22.8020  -14.7070   20.9040 O   0  0  0  0  0  0  0  0  0  0  0  0
  -23.0590  -12.0540   22.5610 H   0  0  0  0  0  0  0  0  0  0  0  0
  -21.7390  -13.1920   22.5360 H   0  0  0  0  0  0  0  0  0  0  0  0
  -25.8020  -15.3930   20.3620 N   0  0  0  0  0  0  0  0  0  0  0  0
  -25.0390  -16.0180   20.6020 H   0  0  0  0  0  0  0  0  0  0  0  0
  -26.6080  -15.8770   19.9860 H   0  0  0  0  0  0  0  0  0  0  0  0
  -31.0320  -19.5400   19.3060 O   0  0  0  0  0  0  0  0  0  0  0  0
  -31.0440  -20.4840   19.1990 H   0  0  0  0  0  0  0  0  0  0  0  0
  -28.3910  -25.5260   20.1260 O   0  0  0  0  0  0  0  0  0  0  0  0
  -24.9040  -31.9070   23.2660 C   0  0  0  0  0  0  0  0  0  0  0  0
  -27.4190  -26.7920   20.1710 C   0  0  0  0  0  0  0  0  0  0  0  0
  -23.7150  -30.5370   21.6070 C   0  0  0  0  0  3  0  0  0  0  0  0
  -25.1580  -28.9010   20.1590 C   0  0  0  0  0  0  0  0  0  0  0  0
  -26.2960  -30.6570   21.4860 C   0  0  0  0  0  2  0  0  0  0  0  0
  -26.3590  -29.2210   20.8040 C   0  0  0  0  0  0  0  0  0  0  0  0
  -27.4650  -28.1990   20.7780 C   0  0  0  0  0  3  0  0  0  0  0  0
  -26.1850  -26.7210   19.4630 C   0  0  0  0  0  3  0  0  0  0  0  0
  -25.1170  -27.6800   19.4650 C   0  0  0  0  0  3  0  0  0  0  0  0
  -23.9550  -29.8630   20.2230 C   0  0  0  0  0  2  0  0  0  0  0  0
  -24.9970  -31.0690   22.1730 N   0  0  0  0  0  0  0  0  0  0  0  0
  -23.8110  -32.1960   23.7870 O   0  0  0  0  0  0  0  0  0  0  0  0
  -22.9980  -29.5480   22.5670 C   0  0  0  0  0  0  0  0  0  0  0  0
  -21.6690  -29.3750   22.4270 N   0  0  0  0  0  0  0  0  0  0  0  0
  -23.6530  -28.9330   23.4110 O   0  0  0  0  0  0  0  0  0  0  0  0
  -21.1910  -29.9180   21.7200 H   0  0  0  0  0  0  0  0  0  0  0  0
  -18.3010  -28.0690   22.9180 C   0  0  0  0  0  0  0  0  0  0  0  0
  -20.8550  -28.4030   23.1720 C   0  0  0  0  0  3  0  0  0  0  0  0
  -20.9960  -26.9880   22.5610 C   0  0  0  0  0  2  0  0  0  0  0  0
  -19.8870  -26.6430   21.5640 C   0  0  0  0  0  2  0  0  0  0  0  0
  -18.5170  -26.7260   22.2420 C   0  0  0  0  0  2  0  0  0  0  0  0
  -19.3990  -28.8610   23.3480 C   0  0  0  0  0  0  0  0  0  0  0  0
  -19.1410  -30.1060   23.9640 C   0  0  0  0  0  3  0  0  0  0  0  0
  -17.8210  -30.5610   24.1460 C   0  0  0  0  0  3  0  0  0  0  0  0
  -16.7400  -29.7700   23.7200 C   0  0  0  0  0  3  0  0  0  0  0  0
  -16.9810  -28.5250   23.1130 C   0  0  0  0  0  3  0  0  0  0  0  0
  -26.1650  -32.5560   23.9140 C   0  0  0  0  0  3  0  0  0  0  0  0
  -25.8380  -33.9510   24.2710 N   0  0  0  0  0  0  0  0  0  0  0  0
  -26.1500  -35.0320   23.5420 C   0  0  0  0  0  0  0  0  0  0  0  0
  -26.7980  -34.9610   22.4960 O   0  0  0  0  0  0  0  0  0  0  0  0
  -25.2570  -34.0810   25.0870 H   0  0  0  0  0  0  0  0  0  0  0  0
  -24.3990  -36.8310   23.2980 C   0  0  0  0  0  1  0  0  0  0  0  0
  -25.6710  -36.4100   24.0520 C   0  0  0  0  0  3  0  0  0  0  0  0
  -27.8230  -37.3040   24.8340 C   0  0  0  0  0  1  0  0  0  0  0  0
  -26.6910  -37.4760   23.9270 N   0  0  0  0  0  0  0  0  0  0  0  0
  -26.2810  -38.3890   24.1020 H   0  0  0  0  0  0  0  0  0  0  0  0
  -26.6650  -31.7820   25.1980 C   0  0  1  0  0  0  0  0  0  0  0  0
  -25.5580  -31.5370   26.2510 C   0  0  0  0  0  1  0  0  0  0  0  0
  -27.2590  -30.4070   24.8230 C   0  0  0  0  0  1  0  0  0  0  0  0
  -27.8030  -32.5800   25.8800 C   0  0  0  0  0  1  0  0  0  0  0  0
  1  2  1  0
  3  5  1  0
  4  1  2  0
  5  7  1  0
  5  2  2  0
  6  3  2  0
  6  4  1  0
  8  6  1  0
 10  9  2  0
 10  3  1  0
 11 17  1  0
 11  9  1  0
 12 17  1  0
 13 14  1  0
 13 12  1  0
 15 14  1  0
 15 22  1  0
 15 16  1  0
 17 16  1  0
 18 11  2  0
 19 20  2  0
 20 39  1  0
 21 20  1  0
 21 24  1  0
 22 23  1  0
 22 19  1  0
 23 21  2  0
 24 25  1  0
 25 26  2  0
 27 30  1  0
 27 26  1  0
 28 27  2  0
 29 28  1  0
 29 24  2  0
 30 31  1  0
 31 36  2  0
 31 32  1  0
 32 33  2  0
 33 34  1  0
 34 38  1  0
 35 34  2  0
 36 35  1  0
 37 36  1  0
 39 40  1  0
 40 43  1  0
 40 42  1  0
 41 39  2  0
 44 19  1  0
 44 45  1  0
 46 44  1  0
 47 10  1  0
 48 47  1  0
 49 51  1  0
 49  4  1  0
 50 61  2  0
 51 56  1  0
 52 60  1  0
 52 62  1  0
 53 59  1  0
 53 55  1  0
 54 60  1  0
 55 54  1  0
 56 55  2  0
 57 58  1  0
 57 51  2  0
 58 53  2  0
 59 52  1  0
 60 50  1  0
 62 64  2  0
 63 62  1  0
 65 63  1  0
 66 75  2  0
 66 71  1  0
 67 63  1  0
 67 71  1  0
 68 67  1  0
 69 70  1  0
 69 68  1  0
 70 66  1  0
 71 72  2  0
 72 73  1  0
 74 73  2  0
 75 74  1  0
 76 50  1  0
 76 77  1  0
 76 86  1  0
 77 80  1  0
 78 82  1  0
 78 77  1  0
 79 78  2  0
 82 81  1  0
 84 82  1  0
 84 85  1  0
 84 83  1  0
 86 89  1  1
 86 87  1  0
 88 86  1  0
M  ISO  4   4 101   9 100  11 100  49 101
M  END
>  <TORSDO>  (88) 
F 18

>  <SCORE>  (88) 
-13.992

>  <name>  (88) 
87

>  <ligand_id>  (88) 
87

>  <original_smiles>  (88) 
[H]OC(=C([H])C(=O)N1C([H])([H])C([H])([H])C([H])([H])C([H])(n2nc(-c3c([H])c([H])c(Oc4c([H])c([H])c(F)c([H])c4F)c([H])c3[H])c(C(=O)N([H])[H])c2N([H])[H])C1([H])[H])c1c(F)c([H])c([H])c(Oc2c([H])c([H])c3c(c2[H])C([H])([H])N(C(=O)C([H])(N([H])C(=O)C([H])(N([H])C([H])([H])[H])C([H])([H])[H])C(C([H])([H])[H])(C([H])([H])[H])C([H])([H])[H])C([H])(C(=O)N([H])C2([H])c4c([H])c([H])c([H])c([H])c4C([H])([H])C([H])([H])C2([H])[H])C3([H])[H])c1F

>  <smiles>  (88) 
[H]OC(=C([H])C(=O)N1C([H])([H])C([H])([H])C([H])([H])C([H])(n2nc(-c3c([H])c([H])c(Oc4c([H])c([H])c(F)c([H])c4F)c([H])c3[H])c(C(=O)N([H])[H])c2N([H])[H])C1([H])[H])c1c(F)c([H])c([H])c(Oc2c([H])c([H])c3c(c2[H])C([H])([H])N(C(=O)C([H])(N([H])C(=O)C([H])(N([H])C([H])([H])[H])C([H])([H])[H])C(C([H])([H])[H])(C([H])([H])[H])C([H])([H])[H])C([H])(C(=O)N([H])C2([H])c4c([H])c([H])c([H])c([H])c4C([H])([H])C([H])([H])C2([H])[H])C3([H])[H])c1F

$$$$
88:0:0
     RDKit          3D

 92101  0  0  1  0  0  0  0  0999 V2000
  -30.2230  -21.4960   21.0800 C   0  0  0  0  0  3  0  0  0  0  0  0
  -29.0800  -22.3370   18.7330 C   0  0  0  0  0  3  0  0  0  0  0  0
  -30.1130  -20.4700   20.0770 C   0  0  0  0  0  0  0  0  0  0  0  0
  -29.1370  -23.3470   19.7540 C   0  0  0  0  0  0  0  0  0  0  0  0
  -29.7510  -22.8600   20.9450 C   0  0  0  0  0  0  0  0  0  0  0  0
  -29.5320  -20.9710   18.8730 C   0  0  0  0  0  0  0  0  0  0  0  0
  -29.8300  -23.6780   22.0210 F   0  0  0  0  0  0  0  0  0  0  0  0
  -29.3210  -20.1170   17.8440 F   0  0  0  0  0  0  0  0  0  0  0  0
  -30.9550  -14.9170   19.5680 C   0  0  0  0  0  0  0  0  0  0  0  0
  -30.6710  -12.6470   18.4750 C   0  0  0  0  0  2  0  0  0  0  0  0
  -29.5500  -12.6830   17.4070 C   0  0  0  0  0  2  0  0  0  0  0  0
  -28.1570  -12.4740   18.0400 C   0  0  0  0  0  2  0  0  0  0  0  0
  -27.9670  -13.3130   19.3320 C   0  0  0  0  0  3  0  0  0  0  0  0
  -29.1880  -13.1140   20.2640 C   0  0  0  0  0  2  0  0  0  0  0  0
  -30.3410  -13.6560   19.5260 N   0  0  0  0  0  0  0  0  0  0  0  0
  -32.0850  -14.9810   19.0640 O   0  0  0  0  0  0  0  0  0  0  0  0
  -29.2830  -17.0980   21.9440 C   0  0  0  0  0  2  0  0  0  0  0  0
  -29.3740  -18.5800   21.5860 C   0  0  0  0  0  2  0  0  0  0  0  0
  -29.0330  -16.2710   20.6820 C   0  0  0  0  0  2  0  0  0  0  0  0
  -30.5470  -17.6070   19.4130 C   0  0  0  0  0  2  0  0  0  0  0  0
  -30.3650  -18.9000   20.4500 C   0  0  0  0  0  3  0  0  0  0  0  0
  -30.2600  -16.1370   19.8820 N   0  0  0  0  0  0  0  0  0  0  0  0
  -25.7230  -13.9290   20.4170 C   0  0  0  0  0  0  0  0  0  0  0  0
  -24.6960  -13.1660   20.8950 C   0  0  0  0  0  0  0  0  0  0  0  0
  -25.0960  -11.8070   20.7090 C   0  0  0  0  0  0  0  0  0  0  0  0
  -26.6960  -13.0380   19.9880 N   0  0  0  0  0  0  0  0  0  0  0  0
  -26.3280  -11.7510   20.2160 N   0  0  0  0  0  0  0  0  0  0  0  0
  -24.3550  -10.5580   20.9150 C   0  0  0  0  0  0  0  0  0  0  0  0
  -24.7730   -9.6020   21.8660 C   0  0  0  0  0  3  0  0  0  0  0  0
  -24.0310   -8.4170   22.0600 C   0  0  0  0  0  3  0  0  0  0  0  0
  -22.8580   -8.1820   21.3050 C   0  0  0  0  0  0  0  0  0  0  0  0
  -22.4600   -9.1270   20.3430 C   0  0  0  0  0  3  0  0  0  0  0  0
  -23.2020  -10.3040   20.1470 C   0  0  0  0  0  3  0  0  0  0  0  0
  -22.0900   -7.0480   21.4090 O   0  0  0  0  0  0  0  0  0  0  0  0
  -21.8740   -6.4340   22.6160 C   0  0  0  0  0  0  0  0  0  0  0  0
  -21.2800   -7.1150   23.7010 C   0  0  0  0  0  3  0  0  0  0  0  0
  -21.0110   -6.4270   24.9010 C   0  0  0  0  0  3  0  0  0  0  0  0
  -21.3270   -5.0610   25.0170 C   0  0  0  0  0  0  0  0  0  0  0  0
  -21.9150   -4.3790   23.9380 C   0  0  0  0  0  3  0  0  0  0  0  0
  -22.1850   -5.0640   22.7390 C   0  0  0  0  0  0  0  0  0  0  0  0
  -22.7320   -4.3990   21.6930 F   0  0  0  0  0  0  0  0  0  0  0  0
  -21.0620   -4.3970   26.1680 F   0  0  0  0  0  0  0  0  0  0  0  0
  -23.3730  -13.6640   21.4000 C   0  0  0  0  0  0  0  0  0  0  0  0
  -22.7640  -12.9450   22.3350 N   0  0  0  0  0  0  0  0  0  0  0  0
  -22.8950  -14.7260   21.0010 O   0  0  0  0  0  0  0  0  0  0  0  0
  -23.1680  -12.0840   22.6750 H   0  0  0  0  0  0  0  0  0  0  0  0
  -21.8850  -13.2600   22.7200 H   0  0  0  0  0  0  0  0  0  0  0  0
  -25.8960  -15.3030   20.2860 N   0  0  0  0  0  0  0  0  0  0  0  0
  -25.1530  -15.9590   20.5030 H   0  0  0  0  0  0  0  0  0  0  0  0
  -26.6650  -15.7230   19.7830 H   0  0  0  0  0  0  0  0  0  0  0  0
  -28.2580  -24.7070   19.5770 C   0  0  0  0  0  2  0  0  0  0  0  0
  -28.5820  -26.1800   19.8500 O   0  0  0  0  0  0  0  0  0  0  0  0
  -24.6890  -31.5910   22.9290 C   0  0  0  0  0  0  0  0  0  0  0  0
  -27.4830  -27.1060   19.7980 C   0  0  0  0  0  0  0  0  0  0  0  0
  -23.5500  -30.1640   21.2770 C   0  0  0  0  0  3  0  0  0  0  0  0
  -25.0650  -28.7080   19.8180 C   0  0  0  0  0  0  0  0  0  0  0  0
  -26.0850  -30.5740   21.1010 C   0  0  0  0  0  2  0  0  0  0  0  0
  -26.2260  -29.2060   20.4240 C   0  0  0  0  0  0  0  0  0  0  0  0
  -27.4380  -28.4210   20.4020 C   0  0  0  0  0  3  0  0  0  0  0  0
  -26.2830  -26.7080   19.1570 C   0  0  0  0  0  3  0  0  0  0  0  0
  -25.1040  -27.4700   19.1720 C   0  0  0  0  0  3  0  0  0  0  0  0
  -23.7920  -29.5290   19.8860 C   0  0  0  0  0  2  0  0  0  0  0  0
  -24.7940  -30.7950   21.8240 N   0  0  0  0  0  0  0  0  0  0  0  0
  -23.5930  -31.8120   23.4670 O   0  0  0  0  0  0  0  0  0  0  0  0
  -22.9370  -29.1000   22.2220 C   0  0  0  0  0  0  0  0  0  0  0  0
  -21.6130  -28.8810   22.1180 N   0  0  0  0  0  0  0  0  0  0  0  0
  -23.6490  -28.4780   23.0140 O   0  0  0  0  0  0  0  0  0  0  0  0
  -21.0930  -29.4360   21.4530 H   0  0  0  0  0  0  0  0  0  0  0  0
  -18.2800  -27.5910   22.7140 C   0  0  0  0  0  0  0  0  0  0  0  0
  -20.8440  -27.8950   22.8820 C   0  0  0  0  0  3  0  0  0  0  0  0
  -20.9470  -26.4910   22.2400 C   0  0  0  0  0  2  0  0  0  0  0  0
  -19.8070  -26.1860   21.2640 C   0  0  0  0  0  2  0  0  0  0  0  0
  -18.4560  -26.2720   21.9790 C   0  0  0  0  0  2  0  0  0  0  0  0
  -19.4010  -28.3610   23.1250 C   0  0  0  0  0  0  0  0  0  0  0  0
  -19.1840  -29.5940   23.7760 C   0  0  0  0  0  3  0  0  0  0  0  0
  -17.8780  -30.0590   24.0190 C   0  0  0  0  0  3  0  0  0  0  0  0
  -16.7710  -29.2860   23.6230 C   0  0  0  0  0  3  0  0  0  0  0  0
  -16.9730  -28.0550   22.9760 C   0  0  0  0  0  3  0  0  0  0  0  0
  -25.9380  -32.2790   23.5570 C   0  0  0  0  0  3  0  0  0  0  0  0
  -25.5410  -33.6350   23.9650 N   0  0  0  0  0  0  0  0  0  0  0  0
  -25.7960  -34.7490   23.2640 C   0  0  0  0  0  0  0  0  0  0  0  0
  -26.4580  -34.7450   22.2220 O   0  0  0  0  0  0  0  0  0  0  0  0
  -24.9430  -33.7060   24.7760 H   0  0  0  0  0  0  0  0  0  0  0  0
  -23.9640  -36.4570   23.0170 C   0  0  0  0  0  1  0  0  0  0  0  0
  -25.2280  -36.0750   23.8050 C   0  0  0  0  0  3  0  0  0  0  0  0
  -27.3040  -37.0380   24.6980 C   0  0  0  0  0  1  0  0  0  0  0  0
  -26.1980  -37.1920   23.7570 N   0  0  0  0  0  0  0  0  0  0  0  0
  -25.7370  -38.0770   23.9520 H   0  0  0  0  0  0  0  0  0  0  0  0
  -26.5300  -31.4850   24.7860 C   0  0  1  0  0  0  0  0  0  0  0  0
  -25.4730  -31.1030   25.8470 C   0  0  0  0  0  1  0  0  0  0  0  0
  -27.2220  -30.1820   24.3210 C   0  0  0  0  0  1  0  0  0  0  0  0
  -27.6180  -32.3380   25.4810 C   0  0  0  0  0  1  0  0  0  0  0  0
  2  6  2  0
  2  4  1  0
  3  1  2  0
  4  5  2  0
  5  1  1  0
  5  7  1  0
  6  3  1  0
  8  6  1  0
  9 22  1  0
 10 15  1  0
 11 12  1  0
 11 10  1  0
 13 12  1  0
 13 26  1  0
 13 14  1  0
 15  9  1  0
 15 14  1  0
 16  9  2  0
 18 17  1  0
 19 17  1  0
 20 22  1  0
 20 21  1  0
 21  3  1  0
 21 18  1  0
 22 19  1  0
 23 24  2  0
 24 43  1  0
 25 24  1  0
 25 28  1  0
 26 27  1  0
 26 23  1  0
 27 25  2  0
 28 29  1  0
 29 30  2  0
 31 34  1  0
 31 30  1  0
 32 31  2  0
 33 32  1  0
 33 28  2  0
 34 35  1  0
 35 40  2  0
 35 36  1  0
 36 37  2  0
 37 38  1  0
 38 42  1  0
 39 38  2  0
 40 39  1  0
 41 40  1  0
 43 44  1  0
 44 46  1  0
 44 47  1  0
 45 43  2  0
 48 23  1  0
 48 49  1  0
 50 48  1  0
 51  4  1  0
 51 52  1  0
 53 64  2  0
 54 52  1  0
 54 59  1  0
 55 63  1  0
 55 65  1  0
 56 62  1  0
 56 58  1  0
 57 63  1  0
 58 57  1  0
 59 58  2  0
 60 61  1  0
 60 54  2  0
 61 56  2  0
 62 55  1  0
 63 53  1  0
 65 67  2  0
 66 65  1  0
 68 66  1  0
 69 78  2  0
 69 74  1  0
 70 66  1  0
 70 74  1  0
 71 70  1  0
 72 73  1  0
 72 71  1  0
 73 69  1  0
 74 75  2  0
 75 76  1  0
 77 76  2  0
 78 77  1  0
 79 53  1  0
 79 80  1  0
 79 89  1  0
 80 83  1  0
 81 85  1  0
 81 80  1  0
 82 81  2  0
 85 84  1  0
 87 85  1  0
 87 88  1  0
 87 86  1  0
 89 92  1  1
 89 90  1  0
 91 89  1  0
M  ISO  4   9 100  22 100  51 101  52 101
M  END
>  <TORSDO>  (89) 
F 17

>  <SCORE>  (89) 
-11.829

>  <name>  (89) 
88

>  <ligand_id>  (89) 
88

>  <original_smiles>  (89) 
[H]c1c([H])c([H])c2c(c1[H])C([H])([H])C([H])([H])C([H])([H])C2([H])N([H])C(=O)C1([H])N(C(=O)C([H])(N([H])C(=O)C([H])(N([H])C([H])([H])[H])C([H])([H])[H])C(C([H])([H])[H])(C([H])([H])[H])C([H])([H])[H])C([H])([H])c2c([H])c(OC([H])([H])c3c([H])c(F)c(C4([H])C([H])([H])N(C(=O)N5C([H])([H])C([H])([H])C([H])([H])C([H])(n6nc(-c7c([H])c([H])c(Oc8c([H])c([H])c(F)c([H])c8F)c([H])c7[H])c(C(=O)N([H])[H])c6N([H])[H])C5([H])[H])C([H])([H])C([H])([H])C4([H])[H])c([H])c3F)c([H])c([H])c2C1([H])[H]

>  <smiles>  (89) 
[H]c1c([H])c([H])c2c(c1[H])C([H])([H])C([H])([H])C([H])([H])C2([H])N([H])C(=O)C1([H])N(C(=O)C([H])(N([H])C(=O)C([H])(N([H])C([H])([H])[H])C([H])([H])[H])C(C([H])([H])[H])(C([H])([H])[H])C([H])([H])[H])C([H])([H])c2c([H])c(OC([H])([H])c3c([H])c(F)c(C4([H])C([H])([H])N(C(=O)N5C([H])([H])C([H])([H])C([H])([H])C([H])(n6nc(-c7c([H])c([H])c(Oc8c([H])c([H])c(F)c([H])c8F)c([H])c7[H])c(C(=O)N([H])[H])c6N([H])[H])C5([H])[H])C([H])([H])C([H])([H])C4([H])[H])c([H])c3F)c([H])c([H])c2C1([H])[H]

$$$$
89:0:0
     RDKit          3D

 94103  0  0  1  0  0  0  0  0999 V2000
  -29.8340  -20.6770   22.5840 C   0  0  0  0  0  2  0  0  0  0  0  0
  -29.8200  -22.2050   22.3880 C   0  0  0  0  0  2  0  0  0  0  0  0
  -29.3170  -21.0740   20.2870 C   0  0  0  0  0  2  0  0  0  0  0  0
  -29.0280  -20.0720   21.4220 C   0  0  0  0  0  3  0  0  0  0  0  0
  -29.3560  -22.4660   20.9410 C   0  0  0  0  0  3  0  0  0  0  0  0
  -30.2950  -16.4240   21.7510 C   0  0  0  0  0  3  0  0  0  0  0  0
  -29.8690  -17.7300   22.0900 C   0  0  0  0  0  3  0  0  0  0  0  0
  -29.2350  -18.1170   19.7830 C   0  0  0  0  0  3  0  0  0  0  0  0
  -30.2450  -15.9700   20.4140 C   0  0  0  0  0  0  0  0  0  0  0  0
  -29.3780  -18.6090   21.0970 C   0  0  0  0  0  0  0  0  0  0  0  0
  -29.6860  -16.8300   19.4240 C   0  0  0  0  0  0  0  0  0  0  0  0
  -29.6060  -16.4540   17.9480 C   0  0  0  0  0  1  0  0  0  0  0  0
  -30.9550  -14.6950   20.0220 C   0  0  0  0  0  0  0  0  0  0  0  0
  -30.5780  -12.5260   18.9360 C   0  0  0  0  0  2  0  0  0  0  0  0
  -29.5800  -12.7270   17.7780 C   0  0  0  0  0  2  0  0  0  0  0  0
  -28.1270  -12.6190   18.2840 C   0  0  0  0  0  2  0  0  0  0  0  0
  -27.8590  -13.4510   19.5670 C   0  0  0  0  0  3  0  0  0  0  0  0
  -28.9750  -13.2610   20.6150 C   0  0  0  0  0  2  0  0  0  0  0  0
  -30.2650  -13.5260   19.9680 N   0  0  0  0  0  0  0  0  0  0  0  0
  -32.0860  -14.8280   19.5490 O   0  0  0  0  0  0  0  0  0  0  0  0
  -25.5160  -14.0510   20.4340 C   0  0  0  0  0  0  0  0  0  0  0  0
  -24.4650  -13.2740   20.8400 C   0  0  0  0  0  0  0  0  0  0  0  0
  -24.9140  -11.9210   20.7450 C   0  0  0  0  0  0  0  0  0  0  0  0
  -26.5390  -13.1700   20.1200 N   0  0  0  0  0  0  0  0  0  0  0  0
  -26.1840  -11.8830   20.3630 N   0  0  0  0  0  0  0  0  0  0  0  0
  -24.1920  -10.6580   20.9390 C   0  0  0  0  0  0  0  0  0  0  0  0
  -24.6360   -9.6900   21.8660 C   0  0  0  0  0  3  0  0  0  0  0  0
  -23.9140   -8.4900   22.0490 C   0  0  0  0  0  3  0  0  0  0  0  0
  -22.7350   -8.2510   21.3050 C   0  0  0  0  0  0  0  0  0  0  0  0
  -22.3090   -9.2080   20.3670 C   0  0  0  0  0  3  0  0  0  0  0  0
  -23.0310  -10.4000   20.1820 C   0  0  0  0  0  3  0  0  0  0  0  0
  -21.9830   -7.1050   21.3970 O   0  0  0  0  0  0  0  0  0  0  0  0
  -21.8830   -6.4040   22.5720 C   0  0  0  0  0  0  0  0  0  0  0  0
  -21.3990   -7.0020   23.7560 C   0  0  0  0  0  3  0  0  0  0  0  0
  -21.2460   -6.2270   24.9240 C   0  0  0  0  0  3  0  0  0  0  0  0
  -21.5640   -4.8560   24.9060 C   0  0  0  0  0  0  0  0  0  0  0  0
  -22.0400   -4.2580   23.7260 C   0  0  0  0  0  3  0  0  0  0  0  0
  -22.1950   -5.0300   22.5620 C   0  0  0  0  0  0  0  0  0  0  0  0
  -22.6330   -4.4440   21.4210 F   0  0  0  0  0  0  0  0  0  0  0  0
  -21.4100   -4.1090   26.0250 F   0  0  0  0  0  0  0  0  0  0  0  0
  -23.0900  -13.7510   21.2090 C   0  0  0  0  0  0  0  0  0  0  0  0
  -22.4160  -13.0370   22.1030 N   0  0  0  0  0  0  0  0  0  0  0  0
  -22.6250  -14.7900   20.7400 O   0  0  0  0  0  0  0  0  0  0  0  0
  -22.8060  -12.1960   22.5010 H   0  0  0  0  0  0  0  0  0  0  0  0
  -21.4960  -13.3370   22.3950 H   0  0  0  0  0  0  0  0  0  0  0  0
  -25.6850  -15.4240   20.2880 N   0  0  0  0  0  0  0  0  0  0  0  0
  -24.9450  -16.0910   20.4760 H   0  0  0  0  0  0  0  0  0  0  0  0
  -26.5490  -15.8640   19.9920 H   0  0  0  0  0  0  0  0  0  0  0  0
  -30.2250  -23.4160   20.1960 N   0  0  0  0  0  4  0  0  0  0  0  0
  -30.0740  -23.2890   19.2070 H   0  0  0  0  0  0  0  0  0  0  0  0
  -31.1830  -23.1560   20.3720 H   0  0  0  0  0  0  0  0  0  0  0  0
  -30.0780  -24.8640   20.5120 C   0  0  0  0  0  2  0  0  0  0  0  0
  -28.7700  -25.4810   19.9800 C   0  0  0  0  0  2  0  0  0  0  0  0
  -28.7990  -26.9100   20.1090 O   0  0  0  0  0  0  0  0  0  0  0  0
  -24.6750  -31.7790   23.2210 C   0  0  0  0  0  0  0  0  0  0  0  0
  -27.5850  -27.5660   20.0690 C   0  0  0  0  0  0  0  0  0  0  0  0
  -23.5660  -30.3640   21.5240 C   0  0  0  0  0  3  0  0  0  0  0  0
  -25.1140  -28.9490   20.0770 C   0  0  0  0  0  0  0  0  0  0  0  0
  -26.0700  -30.8630   21.3700 C   0  0  0  0  0  2  0  0  0  0  0  0
  -26.2350  -29.5170   20.6950 C   0  0  0  0  0  0  0  0  0  0  0  0
  -27.4730  -28.8350   20.6840 C   0  0  0  0  0  3  0  0  0  0  0  0
  -26.4430  -27.0140   19.4410 C   0  0  0  0  0  3  0  0  0  0  0  0
  -25.2140  -27.6980   19.4460 C   0  0  0  0  0  3  0  0  0  0  0  0
  -23.8260  -29.7370   20.1290 C   0  0  0  0  0  2  0  0  0  0  0  0
  -24.7880  -31.0160   22.0980 N   0  0  0  0  0  0  0  0  0  0  0  0
  -23.5740  -31.9790   23.7530 O   0  0  0  0  0  0  0  0  0  0  0  0
  -22.9580  -29.2820   22.4460 C   0  0  0  0  0  0  0  0  0  0  0  0
  -21.6500  -29.0260   22.2830 N   0  0  0  0  0  0  0  0  0  0  0  0
  -23.6600  -28.6780   23.2610 O   0  0  0  0  0  0  0  0  0  0  0  0
  -21.1430  -29.5700   21.5980 H   0  0  0  0  0  0  0  0  0  0  0  0
  -18.3400  -27.6280   22.6670 C   0  0  0  0  0  0  0  0  0  0  0  0
  -20.8710  -28.0250   23.0100 C   0  0  0  0  0  3  0  0  0  0  0  0
  -21.0710  -26.6160   22.4050 C   0  0  0  0  0  2  0  0  0  0  0  0
  -20.0130  -26.2550   21.3560 C   0  0  0  0  0  2  0  0  0  0  0  0
  -18.6110  -26.3070   21.9670 C   0  0  0  0  0  2  0  0  0  0  0  0
  -19.4030  -28.4420   23.1430 C   0  0  0  0  0  0  0  0  0  0  0  0
  -19.0980  -29.6780   23.7540 C   0  0  0  0  0  3  0  0  0  0  0  0
  -17.7630  -30.1000   23.8970 C   0  0  0  0  0  3  0  0  0  0  0  0
  -16.7150  -29.2840   23.4400 C   0  0  0  0  0  3  0  0  0  0  0  0
  -17.0050  -28.0490   22.8310 C   0  0  0  0  0  3  0  0  0  0  0  0
  -25.9190  -32.4580   23.8770 C   0  0  0  0  0  3  0  0  0  0  0  0
  -26.4310  -31.7020   25.1650 C   0  0  1  0  0  0  0  0  0  0  0  0
  -25.3180  -31.4150   26.2010 C   0  0  0  0  0  1  0  0  0  0  0  0
  -27.0810  -30.3520   24.7810 C   0  0  0  0  0  1  0  0  0  0  0  0
  -27.5290  -32.5400   25.8620 C   0  0  0  0  0  1  0  0  0  0  0  0
  -25.5470  -33.8410   24.1980 N   0  0  0  0  0  0  0  0  0  0  0  0
  -25.8530  -34.9040   23.4420 C   0  0  0  0  0  0  0  0  0  0  0  0
  -26.5480  -34.8260   22.4250 O   0  0  0  0  0  0  0  0  0  0  0  0
  -24.9290  -33.9730   24.9850 H   0  0  0  0  0  0  0  0  0  0  0  0
  -24.0520  -36.6170   23.0580 C   0  0  0  0  0  1  0  0  0  0  0  0
  -25.3010  -36.2720   23.8850 C   0  0  0  0  0  3  0  0  0  0  0  0
  -27.3850  -37.2550   24.7340 C   0  0  0  0  0  1  0  0  0  0  0  0
  -26.2880  -37.3690   23.7770 N   0  0  0  0  0  0  0  0  0  0  0  0
  -25.8410  -38.2720   23.9130 H   0  0  0  0  0  0  0  0  0  0  0  0
  2  1  1  0
  3  5  1  0
  3  4  1  0
  4 10  1  0
  4  1  1  0
  5 49  1  0
  5  2  1  0
  6  7  1  0
  8 10  1  0
  9  6  2  0
 10  7  2  0
 11  8  2  0
 11  9  1  0
 12 11  1  0
 13  9  1  0
 14 19  1  0
 15 16  1  0
 15 14  1  0
 17 16  1  0
 17 24  1  0
 17 18  1  0
 19 13  1  0
 19 18  1  0
 20 13  2  0
 21 22  2  0
 22 41  1  0
 23 22  1  0
 23 26  1  0
 24 25  1  0
 24 21  1  0
 25 23  2  0
 26 27  1  0
 27 28  2  0
 29 32  1  0
 29 28  1  0
 30 29  2  0
 31 30  1  0
 31 26  2  0
 32 33  1  0
 33 34  1  0
 34 35  2  0
 36 35  1  0
 36 40  1  0
 37 36  2  0
 38 33  2  0
 38 37  1  0
 39 38  1  0
 41 42  1  0
 42 45  1  0
 42 44  1  0
 43 41  2  0
 46 21  1  0
 46 47  1  0
 48 46  1  0
 49 51  1  0
 49 52  1  0
 50 49  1  0
 53 54  1  0
 53 52  1  0
 55 66  2  0
 56 54  1  0
 56 61  1  0
 57 65  1  0
 57 67  1  0
 58 64  1  0
 58 60  1  0
 59 65  1  0
 60 59  1  0
 61 60  2  0
 62 63  1  0
 62 56  2  0
 63 58  2  0
 64 57  1  0
 65 55  1  0
 67 69  2  0
 68 67  1  0
 70 68  1  0
 71 80  2  0
 71 76  1  0
 72 68  1  0
 72 76  1  0
 73 72  1  0
 74 75  1  0
 74 73  1  0
 75 71  1  0
 76 77  2  0
 77 78  1  0
 79 78  2  0
 80 79  1  0
 81 55  1  0
 81 86  1  0
 81 82  1  0
 82 85  1  1
 82 83  1  0
 84 82  1  0
 86 89  1  0
 87 91  1  0
 87 86  1  0
 88 87  2  0
 91 90  1  0
 93 91  1  0
 93 94  1  0
 93 92  1  0
M  ISO  4   9 100  13 100  53 101  54 101
M  END
>  <TORSDO>  (90) 
F 20

>  <SCORE>  (90) 
-11.479

>  <name>  (90) 
89

>  <ligand_id>  (90) 
89

>  <original_smiles>  (90) 
[H]c1c([H])c([H])c2c(c1[H])C([H])([H])C([H])([H])C([H])([H])C2([H])N([H])C(=O)C1([H])N(C(=O)C([H])(N([H])C(=O)C([H])(N([H])C([H])([H])[H])C([H])([H])[H])C(C([H])([H])[H])(C([H])([H])[H])C([H])([H])[H])C([H])([H])c2c([H])c(OC([H])([H])C([H])([H])[N+]([H])([H])C3([H])C([H])([H])C([H])([H])C([H])(c4c([H])c([H])c(C(=O)N5C([H])([H])C([H])([H])C([H])([H])C([H])(n6nc(-c7c([H])c([H])c(Oc8c([H])c([H])c(F)c([H])c8F)c([H])c7[H])c(C(=O)N([H])[H])c6N([H])[H])C5([H])[H])c(C([H])([H])[H])c4[H])C3([H])[H])c([H])c([H])c2C1([H])[H]

>  <smiles>  (90) 
[H]c1c([H])c([H])c2c(c1[H])C([H])([H])C([H])([H])C([H])([H])C2([H])N([H])C(=O)C1([H])N(C(=O)C([H])(N([H])C(=O)C([H])(N([H])C([H])([H])[H])C([H])([H])[H])C(C([H])([H])[H])(C([H])([H])[H])C([H])([H])[H])C([H])([H])c2c([H])c(OC([H])([H])C([H])([H])[N+]([H])([H])C3([H])C([H])([H])C([H])([H])C([H])(c4c([H])c([H])c(C(=O)N5C([H])([H])C([H])([H])C([H])([H])C([H])(n6nc(-c7c([H])c([H])c(Oc8c([H])c([H])c(F)c([H])c8F)c([H])c7[H])c(C(=O)N([H])[H])c6N([H])[H])C5([H])[H])c(C([H])([H])[H])c4[H])C3([H])[H])c([H])c([H])c2C1([H])[H]

$$$$
90:0:0
     RDKit          3D

100110  0  0  1  0  0  0  0  0999 V2000
  -30.0840  -16.7580   18.0540 C   0  0  0  0  0  3  0  0  0  0  0  0
  -30.5720  -17.2470   19.2730 C   0  0  0  0  0  0  0  0  0  0  0  0
  -31.1400  -18.5410   19.3060 C   0  0  0  0  0  0  0  0  0  0  0  0
  -30.1970  -17.5020   16.8690 C   0  0  0  0  0  0  0  0  0  0  0  0
  -31.3150  -19.3050   18.1050 C   0  0  0  0  0  0  0  0  0  0  0  0
  -30.8500  -18.7600   16.8750 C   0  0  0  0  0  0  0  0  0  0  0  0
  -32.0320  -21.1220   22.2050 C   0  0  0  0  0  2  0  0  0  0  0  0
  -29.6420  -20.9940   21.8270 C   0  0  0  0  0  2  0  0  0  0  0  0
  -32.3810  -19.9540   21.2140 C   0  0  0  0  0  2  0  0  0  0  0  0
  -29.8270  -19.8490   20.8170 C   0  0  0  0  0  2  0  0  0  0  0  0
  -31.2720  -17.6120   21.4690 C   0  0  0  0  0  2  0  0  0  0  0  0
  -30.8100  -21.9880   21.7920 C   0  0  0  0  0  3  0  0  0  0  0  0
  -30.4980  -16.5130   20.6370 C   0  0  1  0  0  0  0  0  0  0  0  0
  -31.1840  -19.0340   20.7520 C   0  0  1  0  0  0  0  0  0  0  0  0
  -29.5660  -16.9310   15.6090 C   0  0  0  0  0  1  0  0  0  0  0  0
  -31.9230  -20.7110   18.1030 C   0  0  0  0  0  1  0  0  0  0  0  0
  -31.0120  -19.5400   15.5710 C   0  0  0  0  0  1  0  0  0  0  0  0
  -29.1120  -16.5140   21.3160 C   0  0  0  0  0  1  0  0  0  0  0  0
  -31.1440  -15.0270   20.5110 C   0  0  0  0  0  0  0  0  0  0  0  0
  -30.7970  -12.8710   19.3180 C   0  0  0  0  0  2  0  0  0  0  0  0
  -29.8690  -13.0730   18.1000 C   0  0  0  0  0  2  0  0  0  0  0  0
  -28.3700  -13.0500   18.5010 C   0  0  0  0  0  2  0  0  0  0  0  0
  -28.0420  -13.7890   19.8260 C   0  0  0  0  0  3  0  0  0  0  0  0
  -29.1020  -13.4810   20.9000 C   0  0  0  0  0  2  0  0  0  0  0  0
  -30.4240  -13.8570   20.3560 N   0  0  0  0  0  0  0  0  0  0  0  0
  -32.3610  -14.9910   20.2960 O   0  0  0  0  0  0  0  0  0  0  0  0
  -25.6600  -14.4530   20.5380 C   0  0  0  0  0  0  0  0  0  0  0  0
  -24.5650  -13.7060   20.8580 C   0  0  0  0  0  0  0  0  0  0  0  0
  -24.9810  -12.3410   20.7630 C   0  0  0  0  0  0  0  0  0  0  0  0
  -26.6820  -13.5480   20.2840 N   0  0  0  0  0  0  0  0  0  0  0  0
  -26.2730  -12.2690   20.4750 N   0  0  0  0  0  0  0  0  0  0  0  0
  -24.2100  -11.1010   20.8620 C   0  0  0  0  0  0  0  0  0  0  0  0
  -24.6020  -10.0570   21.7250 C   0  0  0  0  0  3  0  0  0  0  0  0
  -23.8280   -8.8780   21.8160 C   0  0  0  0  0  3  0  0  0  0  0  0
  -22.6520   -8.7420   21.0390 C   0  0  0  0  0  0  0  0  0  0  0  0
  -22.2810   -9.7750   20.1620 C   0  0  0  0  0  3  0  0  0  0  0  0
  -23.0550  -10.9420   20.0720 C   0  0  0  0  0  3  0  0  0  0  0  0
  -21.8550   -7.6230   21.0410 O   0  0  0  0  0  0  0  0  0  0  0  0
  -21.8210   -6.7690   22.1130 C   0  0  0  0  0  0  0  0  0  0  0  0
  -21.4610   -7.2090   23.4060 C   0  0  0  0  0  3  0  0  0  0  0  0
  -21.3710   -6.2850   24.4640 C   0  0  0  0  0  3  0  0  0  0  0  0
  -21.6280   -4.9200   24.2320 C   0  0  0  0  0  0  0  0  0  0  0  0
  -21.9840   -4.4800   22.9440 C   0  0  0  0  0  3  0  0  0  0  0  0
  -22.0730   -5.4000   21.8880 C   0  0  0  0  0  0  0  0  0  0  0  0
  -22.3940   -4.9700   20.6440 F   0  0  0  0  0  0  0  0  0  0  0  0
  -21.5310   -4.0300   25.2460 F   0  0  0  0  0  0  0  0  0  0  0  0
  -23.1830  -14.2200   21.1370 C   0  0  0  0  0  0  0  0  0  0  0  0
  -22.4260  -13.5110   21.9650 N   0  0  0  0  0  0  0  0  0  0  0  0
  -22.7890  -15.2880   20.6690 O   0  0  0  0  0  0  0  0  0  0  0  0
  -22.7700  -12.6510   22.3680 H   0  0  0  0  0  0  0  0  0  0  0  0
  -21.5000  -13.8330   22.2080 H   0  0  0  0  0  0  0  0  0  0  0  0
  -25.8430  -15.8280   20.4140 N   0  0  0  0  0  0  0  0  0  0  0  0
  -25.0560  -16.4680   20.4690 H   0  0  0  0  0  0  0  0  0  0  0  0
  -26.6840  -16.2550   20.0510 H   0  0  0  0  0  0  0  0  0  0  0  0
  -30.5280  -23.1750   22.6770 N   0  0  0  0  0  4  0  0  0  0  0  0
  -31.2710  -23.2440   23.3560 H   0  0  0  0  0  0  0  0  0  0  0  0
  -29.6810  -22.9700   23.1860 H   0  0  0  0  0  0  0  0  0  0  0  0
  -30.3670  -24.5170   22.0050 C   0  0  0  0  0  2  0  0  0  0  0  0
  -29.6830  -25.6370   22.8760 C   0  0  0  0  0  2  0  0  0  0  0  0
  -29.7210  -26.9740   22.2950 O   0  0  0  0  0  0  0  0  0  0  0  0
  -25.2540  -32.2930   24.0900 C   0  0  0  0  0  0  0  0  0  0  0  0
  -28.5160  -27.6370   22.0750 C   0  0  0  0  0  0  0  0  0  0  0  0
  -24.3680  -30.6300   22.4900 C   0  0  0  0  0  3  0  0  0  0  0  0
  -26.0820  -29.0050   21.5100 C   0  0  0  0  0  0  0  0  0  0  0  0
  -26.8810  -31.1040   22.6110 C   0  0  0  0  0  2  0  0  0  0  0  0
  -27.1150  -29.6640   22.1860 C   0  0  0  0  0  0  0  0  0  0  0  0
  -28.3310  -28.9880   22.4600 C   0  0  0  0  0  3  0  0  0  0  0  0
  -27.4640  -26.9970   21.3860 C   0  0  0  0  0  3  0  0  0  0  0  0
  -26.2550  -27.6710   21.1000 C   0  0  0  0  0  3  0  0  0  0  0  0
  -24.8090  -29.7890   21.2600 C   0  0  0  0  0  2  0  0  0  0  0  0
  -25.5100  -31.3690   23.1200 N   0  0  0  0  0  0  0  0  0  0  0  0
  -24.0940  -32.5650   24.4290 O   0  0  0  0  0  0  0  0  0  0  0  0
  -23.6200  -29.7030   23.4750 C   0  0  0  0  0  0  0  0  0  0  0  0
  -22.3740  -29.3390   23.1290 N   0  0  0  0  0  0  0  0  0  0  0  0
  -24.1680  -29.3070   24.5080 O   0  0  0  0  0  0  0  0  0  0  0  0
  -21.9990  -29.7130   22.2680 H   0  0  0  0  0  0  0  0  0  0  0  0
  -19.1000  -27.8050   23.1610 C   0  0  0  0  0  0  0  0  0  0  0  0
  -21.5010  -28.4370   23.8780 C   0  0  0  0  0  3  0  0  0  0  0  0
  -21.8600  -26.9590   23.6070 C   0  0  0  0  0  2  0  0  0  0  0  0
  -21.0370  -26.3360   22.4740 C   0  0  0  0  0  2  0  0  0  0  0  0
  -19.5430  -26.3990   22.7940 C   0  0  0  0  0  2  0  0  0  0  0  0
  -20.0210  -28.7660   23.6550 C   0  0  0  0  0  0  0  0  0  0  0  0
  -19.5590  -30.0680   23.9470 C   0  0  0  0  0  3  0  0  0  0  0  0
  -18.2080  -30.4120   23.7590 C   0  0  0  0  0  3  0  0  0  0  0  0
  -17.2990  -29.4530   23.2780 C   0  0  0  0  0  3  0  0  0  0  0  0
  -17.7450  -28.1530   22.9830 C   0  0  0  0  0  3  0  0  0  0  0  0
  -26.4040  -33.0700   24.8030 C   0  0  0  0  0  3  0  0  0  0  0  0
  -26.7820  -32.4700   26.2120 C   0  0  1  0  0  0  0  0  0  0  0  0
  -25.5600  -32.1710   27.1120 C   0  0  0  0  0  1  0  0  0  0  0  0
  -27.5790  -31.1550   26.0470 C   0  0  0  0  0  1  0  0  0  0  0  0
  -27.7050  -33.4560   26.9690 C   0  0  0  0  0  1  0  0  0  0  0  0
  -25.9770  -34.4700   24.9300 N   0  0  0  0  0  0  0  0  0  0  0  0
  -26.3200  -35.4510   24.0860 C   0  0  0  0  0  0  0  0  0  0  0  0
  -27.0980  -35.2820   23.1430 O   0  0  0  0  0  0  0  0  0  0  0  0
  -25.2850  -34.6690   25.6370 H   0  0  0  0  0  0  0  0  0  0  0  0
  -24.5100  -37.0540   23.3760 C   0  0  0  0  0  1  0  0  0  0  0  0
  -25.7000  -36.8430   24.3250 C   0  0  0  0  0  3  0  0  0  0  0  0
  -27.6970  -37.9780   25.1930 C   0  0  0  0  0  1  0  0  0  0  0  0
  -26.6640  -37.9510   24.1600 N   0  0  0  0  0  0  0  0  0  0  0  0
  -26.1860  -38.8480   24.1600 H   0  0  0  0  0  0  0  0  0  0  0  0
  1  2  1  0
  2  3  2  0
  2 13  1  0
  3 14  1  0
  4  6  1  0
  4  1  2  0
  5  3  1  0
  6  5  2  0
  9  7  1  0
 10  8  1  0
 12  8  1  0
 12  7  1  0
 12 55  1  0
 13 18  1  1
 13 11  1  0
 14 10  1  1
 14  9  1  0
 14 11  1  0
 15  4  1  0
 16  5  1  0
 17  6  1  0
 19 13  1  0
 20 25  1  0
 21 22  1  0
 21 20  1  0
 23 22  1  0
 23 30  1  0
 23 24  1  0
 25 19  1  0
 25 24  1  0
 26 19  2  0
 27 28  2  0
 28 47  1  0
 29 28  1  0
 29 32  1  0
 30 31  1  0
 30 27  1  0
 31 29  2  0
 32 33  1  0
 33 34  2  0
 35 38  1  0
 35 34  1  0
 36 35  2  0
 37 36  1  0
 37 32  2  0
 38 39  1  0
 39 40  1  0
 40 41  2  0
 42 41  1  0
 42 46  1  0
 43 42  2  0
 44 39  2  0
 44 43  1  0
 45 44  1  0
 47 48  1  0
 48 51  1  0
 48 50  1  0
 49 47  2  0
 52 53  1  0
 52 27  1  0
 54 52  1  0
 55 57  1  0
 55 56  1  0
 58 55  1  0
 58 59  1  0
 60 59  1  0
 61 72  2  0
 62 60  1  0
 62 67  1  0
 63 71  1  0
 63 73  1  0
 64 66  1  0
 65 71  1  0
 66 67  2  0
 66 65  1  0
 68 62  2  0
 69 68  1  0
 69 64  2  0
 70 64  1  0
 70 63  1  0
 71 61  1  0
 73 75  2  0
 74 73  1  0
 76 74  1  0
 77 82  1  0
 78 74  1  0
 79 78  1  0
 80 81  1  0
 80 79  1  0
 81 77  1  0
 82 78  1  0
 82 83  2  0
 84 83  1  0
 85 84  2  0
 86 77  2  0
 86 85  1  0
 87 61  1  0
 87 92  1  0
 87 88  1  0
 88 91  1  1
 88 89  1  0
 90 88  1  0
 92 95  1  0
 93 97  1  0
 93 92  1  0
 94 93  2  0
 97 96  1  0
 99 97  1  0
 99 98  1  0
100 99  1  0
M  ISO  4  13 100  19 100  59 101  60 101
M  END
>  <TORSDO>  (91) 
F 19

>  <SCORE>  (91) 
-7.102

>  <name>  (91) 
90

>  <ligand_id>  (91) 
90

>  <original_smiles>  (91) 
[H]c1c([H])c([H])c2c(c1[H])C([H])([H])C([H])([H])C([H])([H])C2([H])N([H])C(=O)C1([H])N(C(=O)C([H])(N([H])C(=O)C([H])(N([H])C([H])([H])[H])C([H])([H])[H])C(C([H])([H])[H])(C([H])([H])[H])C([H])([H])[H])C([H])([H])c2c([H])c(OC([H])([H])C([H])([H])[N+]([H])([H])C3([H])C([H])([H])C([H])([H])C4(c5c(C([H])([H])[H])c(C([H])([H])[H])c(C([H])([H])[H])c([H])c5C(C(=O)N5C([H])([H])C([H])([H])C([H])([H])C([H])(n6nc(-c7c([H])c([H])c(Oc8c([H])c([H])c(F)c([H])c8F)c([H])c7[H])c(C(=O)N([H])[H])c6N([H])[H])C5([H])[H])(C([H])([H])[H])C4([H])[H])C([H])([H])C3([H])[H])c([H])c([H])c2C1([H])[H]

>  <smiles>  (91) 
[H]c1c([H])c([H])c2c(c1[H])C([H])([H])C([H])([H])C([H])([H])C2([H])N([H])C(=O)C1([H])N(C(=O)C([H])(N([H])C(=O)C([H])(N([H])C([H])([H])[H])C([H])([H])[H])C(C([H])([H])[H])(C([H])([H])[H])C([H])([H])[H])C([H])([H])c2c([H])c(OC([H])([H])C([H])([H])[N+]([H])([H])C3([H])C([H])([H])C([H])([H])C4(c5c(C([H])([H])[H])c(C([H])([H])[H])c(C([H])([H])[H])c([H])c5C(C(=O)N5C([H])([H])C([H])([H])C([H])([H])C([H])(n6nc(-c7c([H])c([H])c(Oc8c([H])c([H])c(F)c([H])c8F)c([H])c7[H])c(C(=O)N([H])[H])c6N([H])[H])C5([H])[H])(C([H])([H])[H])C4([H])[H])C([H])([H])C3([H])[H])c([H])c([H])c2C1([H])[H]

$$$$
91:0:0
     RDKit          3D

 92100  0  0  1  0  0  0  0  0999 V2000
  -27.3780  -22.3340   21.3060 C   0  0  0  0  0  3  0  0  0  0  0  0
  -28.8890  -23.9600   20.2980 C   0  0  0  0  0  3  0  0  0  0  0  0
  -26.8150  -24.7210   21.2900 C   0  0  0  0  0  3  0  0  0  0  0  0
  -28.6050  -22.5770   20.6550 C   0  0  0  0  0  0  0  0  0  0  0  0
  -26.5040  -23.3880   21.6290 C   0  0  0  0  0  0  0  0  0  0  0  0
  -27.9930  -25.0660   20.5760 C   0  0  0  0  0  0  0  0  0  0  0  0
  -29.6170  -21.4100   20.5210 C   0  0  0  0  0  0  0  0  0  0  0  0
  -29.1920  -20.0980   20.5030 N   0  0  0  0  0  0  0  0  0  0  0  0
  -30.8190  -21.6730   20.4920 O   0  0  0  0  0  0  0  0  0  0  0  0
  -28.1910  -19.9890   20.4130 H   0  0  0  0  0  0  0  0  0  0  0  0
  -29.9280  -18.8710   21.0210 C   0  0  0  0  0  2  0  0  0  0  0  0
  -30.0040  -17.4930   20.1910 C   0  0  0  0  0  2  0  0  0  0  0  0
  -30.0240  -16.1030   21.0160 C   0  0  0  0  0  2  0  0  0  0  0  0
  -30.6860  -14.7790   20.4100 C   0  0  0  0  0  0  0  0  0  0  0  0
  -30.4770  -12.5210   19.3590 C   0  0  0  0  0  2  0  0  0  0  0  0
  -29.5530  -12.6310   18.1280 C   0  0  0  0  0  2  0  0  0  0  0  0
  -28.0730  -12.4710   18.5300 C   0  0  0  0  0  2  0  0  0  0  0  0
  -27.6970  -13.3370   19.7630 C   0  0  0  0  0  3  0  0  0  0  0  0
  -28.7430  -13.2070   20.8910 C   0  0  0  0  0  2  0  0  0  0  0  0
  -30.0550  -13.5580   20.3280 N   0  0  0  0  0  0  0  0  0  0  0  0
  -31.8260  -14.8950   19.9510 O   0  0  0  0  0  0  0  0  0  0  0  0
  -25.2890  -13.9210   20.4330 C   0  0  0  0  0  0  0  0  0  0  0  0
  -24.2220  -13.1440   20.7950 C   0  0  0  0  0  0  0  0  0  0  0  0
  -24.6940  -11.7960   20.7950 C   0  0  0  0  0  0  0  0  0  0  0  0
  -26.3450  -13.0460   20.2320 N   0  0  0  0  0  0  0  0  0  0  0  0
  -25.9910  -11.7640   20.5100 N   0  0  0  0  0  0  0  0  0  0  0  0
  -23.9720  -10.5320   20.9900 C   0  0  0  0  0  0  0  0  0  0  0  0
  -24.3990   -9.5740   21.9370 C   0  0  0  0  0  3  0  0  0  0  0  0
  -23.6760   -8.3780   22.1230 C   0  0  0  0  0  3  0  0  0  0  0  0
  -22.5110   -8.1260   21.3600 C   0  0  0  0  0  0  0  0  0  0  0  0
  -22.1030   -9.0700   20.4010 C   0  0  0  0  0  3  0  0  0  0  0  0
  -22.8280  -10.2590   20.2130 C   0  0  0  0  0  3  0  0  0  0  0  0
  -21.7610   -6.9770   21.4540 O   0  0  0  0  0  0  0  0  0  0  0  0
  -21.7100   -6.2440   22.6110 C   0  0  0  0  0  0  0  0  0  0  0  0
  -21.2780   -6.8070   23.8320 C   0  0  0  0  0  3  0  0  0  0  0  0
  -21.1720   -5.9990   24.9810 C   0  0  0  0  0  3  0  0  0  0  0  0
  -21.4890   -4.6300   24.9140 C   0  0  0  0  0  0  0  0  0  0  0  0
  -21.9130   -4.0650   23.6970 C   0  0  0  0  0  3  0  0  0  0  0  0
  -22.0210   -4.8700   22.5500 C   0  0  0  0  0  0  0  0  0  0  0  0
  -22.4100   -4.3160   21.3760 F   0  0  0  0  0  0  0  0  0  0  0  0
  -21.3800   -3.8520   26.0160 F   0  0  0  0  0  0  0  0  0  0  0  0
  -22.8170  -13.6170   21.0380 C   0  0  0  0  0  0  0  0  0  0  0  0
  -22.0810  -12.9280   21.9040 N   0  0  0  0  0  0  0  0  0  0  0  0
  -22.3770  -14.6300   20.4940 O   0  0  0  0  0  0  0  0  0  0  0  0
  -22.4490  -12.1090   22.3640 H   0  0  0  0  0  0  0  0  0  0  0  0
  -21.1380  -13.2220   22.1120 H   0  0  0  0  0  0  0  0  0  0  0  0
  -25.4460  -15.2890   20.2350 N   0  0  0  0  0  0  0  0  0  0  0  0
  -24.6740  -15.9440   20.3130 H   0  0  0  0  0  0  0  0  0  0  0  0
  -26.3050  -15.7290   19.9290 H   0  0  0  0  0  0  0  0  0  0  0  0
  -25.3550  -23.1040   22.3070 O   0  0  0  0  0  0  0  0  0  0  0  0
  -24.9150  -23.8750   22.6490 H   0  0  0  0  0  0  0  0  0  0  0  0
  -28.2480  -26.4300   20.2190 O   0  0  0  0  0  0  0  0  0  0  0  0
  -24.6090  -31.9170   23.2250 C   0  0  0  0  0  0  0  0  0  0  0  0
  -27.1910  -27.3580   20.1430 C   0  0  0  0  0  0  0  0  0  0  0  0
  -23.3960  -30.5260   21.5790 C   0  0  0  0  0  3  0  0  0  0  0  0
  -24.8480  -28.9980   20.1250 C   0  0  0  0  0  0  0  0  0  0  0  0
  -25.9400  -30.8370   21.4030 C   0  0  0  0  0  2  0  0  0  0  0  0
  -26.0160  -29.4650   20.7460 C   0  0  0  0  0  0  0  0  0  0  0  0
  -27.1870  -28.6480   20.7620 C   0  0  0  0  0  3  0  0  0  0  0  0
  -26.0190  -26.9760   19.4550 C   0  0  0  0  0  3  0  0  0  0  0  0
  -24.8530  -27.7580   19.4730 C   0  0  0  0  0  3  0  0  0  0  0  0
  -23.6100  -29.8720   20.1890 C   0  0  0  0  0  2  0  0  0  0  0  0
  -24.6660  -31.1100   22.1250 N   0  0  0  0  0  0  0  0  0  0  0  0
  -23.5270  -32.1900   23.7640 O   0  0  0  0  0  0  0  0  0  0  0  0
  -22.7400  -29.5010   22.5360 C   0  0  0  0  0  0  0  0  0  0  0  0
  -21.4080  -29.3400   22.4270 N   0  0  0  0  0  0  0  0  0  0  0  0
  -23.4250  -28.8620   23.3370 O   0  0  0  0  0  0  0  0  0  0  0  0
  -20.9140  -29.9160   21.7610 H   0  0  0  0  0  0  0  0  0  0  0  0
  -18.0330  -28.1490   22.9410 C   0  0  0  0  0  0  0  0  0  0  0  0
  -20.5910  -28.3950   23.1900 C   0  0  0  0  0  3  0  0  0  0  0  0
  -20.6850  -26.9650   22.6000 C   0  0  0  0  0  2  0  0  0  0  0  0
  -19.5700  -26.6430   21.6000 C   0  0  0  0  0  2  0  0  0  0  0  0
  -18.1940  -26.8010   22.2600 C   0  0  0  0  0  2  0  0  0  0  0  0
  -19.1580  -28.9060   23.3640 C   0  0  0  0  0  0  0  0  0  0  0  0
  -18.9520  -30.1670   23.9640 C   0  0  0  0  0  3  0  0  0  0  0  0
  -17.6530  -30.6740   24.1470 C   0  0  0  0  0  3  0  0  0  0  0  0
  -16.5400  -29.9160   23.7420 C   0  0  0  0  0  3  0  0  0  0  0  0
  -16.7310  -28.6550   23.1450 C   0  0  0  0  0  3  0  0  0  0  0  0
  -25.8950  -32.5480   23.8450 C   0  0  0  0  0  3  0  0  0  0  0  0
  -25.5900  -33.9460   24.1790 N   0  0  0  0  0  0  0  0  0  0  0  0
  -25.9160  -35.0010   23.4210 C   0  0  0  0  0  0  0  0  0  0  0  0
  -26.5750  -34.9010   22.3830 O   0  0  0  0  0  0  0  0  0  0  0  0
  -25.0050  -34.0980   24.9860 H   0  0  0  0  0  0  0  0  0  0  0  0
  -24.1840  -36.7970   23.0870 C   0  0  0  0  0  1  0  0  0  0  0  0
  -25.4330  -36.3890   23.8850 C   0  0  0  0  0  3  0  0  0  0  0  0
  -27.5710  -37.2720   24.7030 C   0  0  0  0  0  1  0  0  0  0  0  0
  -26.4640  -37.4430   23.7680 N   0  0  0  0  0  0  0  0  0  0  0  0
  -26.0580  -38.3620   23.9230 H   0  0  0  0  0  0  0  0  0  0  0  0
  -26.4130  -31.7750   25.1190 C   0  0  1  0  0  0  0  0  0  0  0  0
  -25.3240  -31.5380   26.1900 C   0  0  0  0  0  1  0  0  0  0  0  0
  -26.9920  -30.3950   24.7290 C   0  0  0  0  0  1  0  0  0  0  0  0
  -27.5640  -32.5680   25.7810 C   0  0  0  0  0  1  0  0  0  0  0  0
  1  5  1  0
  2  6  2  0
  2  4  1  0
  3  5  2  0
  4  1  2  0
  5 50  1  0
  6  3  1  0
  7  4  1  0
  8  7  1  0
  8 11  1  0
  9  7  2  0
 10  8  1  0
 12 13  1  0
 12 11  1  0
 14 13  1  0
 15 20  1  0
 16 17  1  0
 16 15  1  0
 18 17  1  0
 18 25  1  0
 18 19  1  0
 20 14  1  0
 20 19  1  0
 21 14  2  0
 22 23  2  0
 23 24  1  0
 23 42  1  0
 24 27  1  0
 25 22  1  0
 25 26  1  0
 26 24  2  0
 27 28  1  0
 28 29  2  0
 30 33  1  0
 30 29  1  0
 31 30  2  0
 32 31  1  0
 32 27  2  0
 33 34  1  0
 34 35  1  0
 35 36  2  0
 37 36  1  0
 37 41  1  0
 38 37  2  0
 39 34  2  0
 39 38  1  0
 40 39  1  0
 42 43  1  0
 43 46  1  0
 43 45  1  0
 44 42  2  0
 47 48  1  0
 47 22  1  0
 49 47  1  0
 50 51  1  0
 52  6  1  0
 53 64  2  0
 54 52  1  0
 54 59  1  0
 55 63  1  0
 55 65  1  0
 56 62  1  0
 56 58  1  0
 57 63  1  0
 58 59  2  0
 58 57  1  0
 60 61  1  0
 60 54  2  0
 61 56  2  0
 62 55  1  0
 63 53  1  0
 65 67  2  0
 66 65  1  0
 68 66  1  0
 69 78  2  0
 69 74  1  0
 70 66  1  0
 70 74  1  0
 71 70  1  0
 72 73  1  0
 72 71  1  0
 73 69  1  0
 74 75  2  0
 75 76  1  0
 77 76  2  0
 78 77  1  0
 79 53  1  0
 79 80  1  0
 79 89  1  0
 80 83  1  0
 81 85  1  0
 81 80  1  0
 82 81  2  0
 85 84  1  0
 87 85  1  0
 87 88  1  0
 87 86  1  0
 89 92  1  1
 89 90  1  0
 91 89  1  0
M  ISO  4   6 101  13 100  14 100  52 101
M  END
>  <TORSDO>  (92) 
F 21

>  <SCORE>  (92) 
-13.972

>  <name>  (92) 
91

>  <ligand_id>  (92) 
91

>  <original_smiles>  (92) 
[H]Oc1c([H])c(Oc2c([H])c([H])c3c(c2[H])C([H])([H])N(C(=O)C([H])(N([H])C(=O)C([H])(N([H])C([H])([H])[H])C([H])([H])[H])C(C([H])([H])[H])(C([H])([H])[H])C([H])([H])[H])C([H])(C(=O)N([H])C2([H])c4c([H])c([H])c([H])c([H])c4C([H])([H])C([H])([H])C2([H])[H])C3([H])[H])c([H])c(C(=O)N([H])C([H])([H])C([H])([H])C([H])([H])C(=O)N2C([H])([H])C([H])([H])C([H])([H])C([H])(n3nc(-c4c([H])c([H])c(Oc5c([H])c([H])c(F)c([H])c5F)c([H])c4[H])c(C(=O)N([H])[H])c3N([H])[H])C2([H])[H])c1[H]

>  <smiles>  (92) 
[H]Oc1c([H])c(Oc2c([H])c([H])c3c(c2[H])C([H])([H])N(C(=O)C([H])(N([H])C(=O)C([H])(N([H])C([H])([H])[H])C([H])([H])[H])C(C([H])([H])[H])(C([H])([H])[H])C([H])([H])[H])C([H])(C(=O)N([H])C2([H])c4c([H])c([H])c([H])c([H])c4C([H])([H])C([H])([H])C2([H])[H])C3([H])[H])c([H])c(C(=O)N([H])C([H])([H])C([H])([H])C([H])([H])C(=O)N2C([H])([H])C([H])([H])C([H])([H])C([H])(n3nc(-c4c([H])c([H])c(Oc5c([H])c([H])c(F)c([H])c5F)c([H])c4[H])c(C(=O)N([H])[H])c3N([H])[H])C2([H])[H])c1[H]

$$$$
93:0:0
     RDKit          3D

 94103  0  0  1  0  0  0  0  0999 V2000
  -28.7490  -23.8760   17.5570 C   0  0  0  0  0  2  0  0  0  0  0  0
  -28.6330  -25.3050   18.1140 C   0  0  0  0  0  2  0  0  0  0  0  0
  -29.8920  -23.0930   18.2310 C   0  0  0  0  0  2  0  0  0  0  0  0
  -29.7060  -24.4970   20.2450 C   0  0  0  0  0  2  0  0  0  0  0  0
  -28.5160  -25.2810   19.6500 C   0  0  0  0  0  3  0  0  0  0  0  0
  -29.7570  -23.1020   19.7120 N   0  0  2  0  0  4  0  0  0  0  0  0
  -28.8640  -22.6870   19.9310 H   0  0  0  0  0  0  0  0  0  0  0  0
  -28.4840  -26.6220   20.1680 O   0  0  0  0  0  0  0  0  0  0  0  0
  -24.6260  -31.7570   23.2540 C   0  0  0  0  0  0  0  0  0  0  0  0
  -27.2940  -27.3340   20.1440 C   0  0  0  0  0  0  0  0  0  0  0  0
  -23.4350  -30.3730   21.5860 C   0  0  0  0  0  3  0  0  0  0  0  0
  -24.8960  -28.8470   20.1650 C   0  0  0  0  0  0  0  0  0  0  0  0
  -25.9640  -30.7240   21.4220 C   0  0  0  0  0  2  0  0  0  0  0  0
  -26.0510  -29.3590   20.7690 C   0  0  0  0  0  0  0  0  0  0  0  0
  -27.2500  -28.6110   20.7540 C   0  0  0  0  0  3  0  0  0  0  0  0
  -26.1110  -26.8410   19.5380 C   0  0  0  0  0  3  0  0  0  0  0  0
  -24.9220  -27.5890   19.5500 C   0  0  0  0  0  3  0  0  0  0  0  0
  -23.6570  -29.7070   20.2030 C   0  0  0  0  0  2  0  0  0  0  0  0
  -24.6930  -30.9660   22.1460 N   0  0  0  0  0  0  0  0  0  0  0  0
  -23.5390  -32.0260   23.7850 O   0  0  0  0  0  0  0  0  0  0  0  0
  -22.7750  -29.3420   22.5300 C   0  0  0  0  0  0  0  0  0  0  0  0
  -21.4570  -29.1380   22.3670 N   0  0  0  0  0  0  0  0  0  0  0  0
  -23.4460  -28.7230   23.3610 O   0  0  0  0  0  0  0  0  0  0  0  0
  -20.9790  -29.6850   21.6650 H   0  0  0  0  0  0  0  0  0  0  0  0
  -18.0970  -27.8600   22.7400 C   0  0  0  0  0  0  0  0  0  0  0  0
  -20.6330  -28.1880   23.1160 C   0  0  0  0  0  3  0  0  0  0  0  0
  -20.7980  -26.7540   22.5630 C   0  0  0  0  0  2  0  0  0  0  0  0
  -19.7500  -26.3890   21.5070 C   0  0  0  0  0  2  0  0  0  0  0  0
  -18.3390  -26.5080   22.0890 C   0  0  0  0  0  2  0  0  0  0  0  0
  -19.1770  -28.6560   23.2060 C   0  0  0  0  0  0  0  0  0  0  0  0
  -18.9010  -29.9210   23.7700 C   0  0  0  0  0  3  0  0  0  0  0  0
  -17.5790  -30.3950   23.8670 C   0  0  0  0  0  3  0  0  0  0  0  0
  -16.5130  -29.5950   23.4190 C   0  0  0  0  0  3  0  0  0  0  0  0
  -16.7730  -28.3290   22.8650 C   0  0  0  0  0  3  0  0  0  0  0  0
  -25.9060  -32.3830   23.8910 C   0  0  0  0  0  3  0  0  0  0  0  0
  -26.4090  -31.6090   25.1700 C   0  0  1  0  0  0  0  0  0  0  0  0
  -25.3010  -31.3650   26.2200 C   0  0  0  0  0  1  0  0  0  0  0  0
  -26.9870  -30.2320   24.7740 C   0  0  0  0  0  1  0  0  0  0  0  0
  -27.5570  -32.3950   25.8500 C   0  0  0  0  0  1  0  0  0  0  0  0
  -25.6010  -33.7810   24.2230 N   0  0  0  0  0  0  0  0  0  0  0  0
  -25.9170  -34.8310   23.4560 C   0  0  0  0  0  0  0  0  0  0  0  0
  -26.5740  -34.7290   22.4150 O   0  0  0  0  0  0  0  0  0  0  0  0
  -25.0300  -33.9350   25.0410 H   0  0  0  0  0  0  0  0  0  0  0  0
  -24.1620  -36.6000   23.1340 C   0  0  0  0  0  1  0  0  0  0  0  0
  -25.4270  -36.2170   23.9160 C   0  0  0  0  0  3  0  0  0  0  0  0
  -27.5710  -37.1290   24.6900 C   0  0  0  0  0  1  0  0  0  0  0  0
  -26.4450  -37.2810   23.7700 N   0  0  0  0  0  0  0  0  0  0  0  0
  -26.0340  -38.1970   23.9190 H   0  0  0  0  0  0  0  0  0  0  0  0
  -30.7670  -22.2360   20.3810 C   0  0  0  0  0  2  0  0  0  0  0  0
  -30.3190  -20.7550   20.5000 C   0  0  0  0  0  2  0  0  0  0  0  0
  -32.0090  -18.9380   19.7540 C   0  0  0  0  0  2  0  0  0  0  0  0
  -31.1720  -18.9390   22.1710 C   0  0  0  0  0  2  0  0  0  0  0  0
  -31.1880  -17.6510   19.5120 C   0  0  0  0  0  2  0  0  0  0  0  0
  -30.3970  -17.6400   21.8710 C   0  0  0  0  0  2  0  0  0  0  0  0
  -31.4740  -19.8050   20.9210 C   0  0  0  0  0  3  0  0  0  0  0  0
  -31.1280  -16.8050   20.8060 C   0  0  0  0  0  3  0  0  0  0  0  0
  -31.1440  -14.3830   20.1570 C   0  0  0  0  0  0  0  0  0  0  0  0
  -30.7410  -12.1740   19.1420 C   0  0  0  0  0  2  0  0  0  0  0  0
  -29.7850  -12.3210   17.9410 C   0  0  0  0  0  2  0  0  0  0  0  0
  -28.3190  -12.2410   18.4050 C   0  0  0  0  0  2  0  0  0  0  0  0
  -28.0180  -13.1680   19.6130 C   0  0  0  0  0  3  0  0  0  0  0  0
  -29.0920  -13.0140   20.7150 C   0  0  0  0  0  2  0  0  0  0  0  0
  -30.4110  -13.2390   20.1010 N   0  0  0  0  0  0  0  0  0  0  0  0
  -32.2750  -14.4720   19.6790 O   0  0  0  0  0  0  0  0  0  0  0  0
  -30.5210  -15.4710   20.6460 N   0  0  0  0  0  0  0  0  0  0  0  0
  -29.5750  -15.3440   20.9730 H   0  0  0  0  0  0  0  0  0  0  0  0
  -25.6690  -13.8690   20.3980 C   0  0  0  0  0  0  0  0  0  0  0  0
  -24.5790  -13.1400   20.7890 C   0  0  0  0  0  0  0  0  0  0  0  0
  -24.9790  -11.7700   20.7360 C   0  0  0  0  0  0  0  0  0  0  0  0
  -26.6690  -12.9460   20.1330 N   0  0  0  0  0  0  0  0  0  0  0  0
  -26.2580  -11.6780   20.3940 N   0  0  0  0  0  0  0  0  0  0  0  0
  -24.2030  -10.5370   20.9340 C   0  0  0  0  0  0  0  0  0  0  0  0
  -24.5940   -9.5640   21.8780 C   0  0  0  0  0  3  0  0  0  0  0  0
  -23.8210   -8.3980   22.0650 C   0  0  0  0  0  3  0  0  0  0  0  0
  -22.6440   -8.1970   21.3070 C   0  0  0  0  0  0  0  0  0  0  0  0
  -22.2720   -9.1590   20.3520 C   0  0  0  0  0  3  0  0  0  0  0  0
  -23.0440  -10.3170   20.1640 C   0  0  0  0  0  3  0  0  0  0  0  0
  -21.8470   -7.0810   21.4010 O   0  0  0  0  0  0  0  0  0  0  0  0
  -21.7230   -6.3830   22.5750 C   0  0  0  0  0  0  0  0  0  0  0  0
  -21.2540   -6.9930   23.7600 C   0  0  0  0  0  3  0  0  0  0  0  0
  -21.0760   -6.2220   24.9260 C   0  0  0  0  0  3  0  0  0  0  0  0
  -21.3560   -4.8410   24.9080 C   0  0  0  0  0  0  0  0  0  0  0  0
  -21.8180   -4.2320   23.7280 C   0  0  0  0  0  3  0  0  0  0  0  0
  -21.9970   -5.0010   22.5650 C   0  0  0  0  0  0  0  0  0  0  0  0
  -22.4210   -4.4030   21.4250 F   0  0  0  0  0  0  0  0  0  0  0  0
  -21.1780   -4.0990   26.0250 F   0  0  0  0  0  0  0  0  0  0  0  0
  -23.2110  -13.6750   21.1020 C   0  0  0  0  0  0  0  0  0  0  0  0
  -22.4790  -13.0080   21.9880 N   0  0  0  0  0  0  0  0  0  0  0  0
  -22.8020  -14.7200   20.5970 O   0  0  0  0  0  0  0  0  0  0  0  0
  -22.8230  -12.1620   22.4200 H   0  0  0  0  0  0  0  0  0  0  0  0
  -21.5620  -13.3480   22.2400 H   0  0  0  0  0  0  0  0  0  0  0  0
  -25.8880  -15.2330   20.2240 N   0  0  0  0  0  0  0  0  0  0  0  0
  -25.1520  -15.9180   20.3560 H   0  0  0  0  0  0  0  0  0  0  0  0
  -26.7450  -15.6350   19.8660 H   0  0  0  0  0  0  0  0  0  0  0  0
  1  2  1  0
  1  3  1  0
  2  5  1  0
  3  6  1  0
  5  8  1  0
  5  4  1  0
  6  7  1  6
  6  4  1  0
  6 49  1  0
  9 20  2  0
 10  8  1  0
 10 15  1  0
 11 19  1  0
 11 21  1  0
 12 18  1  0
 12 14  1  0
 13 19  1  0
 14 13  1  0
 15 14  2  0
 16 17  1  0
 16 10  2  0
 17 12  2  0
 18 11  1  0
 19  9  1  0
 21 23  2  0
 22 21  1  0
 24 22  1  0
 25 34  2  0
 25 30  1  0
 26 22  1  0
 26 30  1  0
 27 26  1  0
 28 29  1  0
 28 27  1  0
 29 25  1  0
 30 31  2  0
 31 32  1  0
 33 32  2  0
 34 33  1  0
 35  9  1  0
 35 40  1  0
 35 36  1  0
 36 39  1  1
 36 37  1  0
 38 36  1  0
 40 43  1  0
 41 45  1  0
 41 40  1  0
 42 41  2  0
 45 44  1  0
 47 45  1  0
 47 48  1  0
 47 46  1  0
 49 50  1  0
 51 55  1  0
 53 51  1  0
 53 56  1  0
 54 52  1  0
 55 50  1  0
 55 52  1  0
 56 65  1  0
 56 54  1  0
 57 65  1  0
 58 63  1  0
 59 60  1  0
 59 58  1  0
 61 60  1  0
 61 70  1  0
 61 62  1  0
 63 57  1  0
 63 62  1  0
 64 57  2  0
 65 66  1  0
 67 68  2  0
 68 87  1  0
 69 68  1  0
 69 72  1  0
 70 71  1  0
 70 67  1  0
 71 69  2  0
 72 73  1  0
 73 74  2  0
 75 78  1  0
 75 74  1  0
 76 75  2  0
 77 76  1  0
 77 72  2  0
 78 79  1  0
 79 80  1  0
 80 81  2  0
 82 81  1  0
 82 86  1  0
 83 82  2  0
 84 79  2  0
 84 83  1  0
 85 84  1  0
 87 88  1  0
 88 91  1  0
 88 90  1  0
 89 87  2  0
 92 93  1  0
 92 67  1  0
 94 92  1  0
M  ISO  4   5 101   8 101  57 100  65 100
M  END
>  <TORSDO>  (93) 
F 19

>  <SCORE>  (93) 
-14.017

>  <name>  (93) 
93

>  <ligand_id>  (93) 
93

>  <original_smiles>  (93) 
[H]c1c([H])c([H])c2c(c1[H])C([H])([H])C([H])([H])C([H])([H])C2([H])N([H])C(=O)C1([H])N(C(=O)C([H])(N([H])C(=O)C([H])(N([H])C([H])([H])[H])C([H])([H])[H])C(C([H])([H])[H])(C([H])([H])[H])C([H])([H])[H])C([H])([H])c2c([H])c(OC3([H])C([H])([H])C([H])([H])C([H])([H])[N+]([H])(C([H])([H])C([H])([H])C4([H])C([H])([H])C([H])([H])C([H])(N([H])C(=O)N5C([H])([H])C([H])([H])C([H])([H])C([H])(n6nc(-c7c([H])c([H])c(Oc8c([H])c([H])c(F)c([H])c8F)c([H])c7[H])c(C(=O)N([H])[H])c6N([H])[H])C5([H])[H])C([H])([H])C4([H])[H])C3([H])[H])c([H])c([H])c2C1([H])[H]

>  <smiles>  (93) 
[H]c1c([H])c([H])c2c(c1[H])C([H])([H])C([H])([H])C([H])([H])C2([H])N([H])C(=O)C1([H])N(C(=O)C([H])(N([H])C(=O)C([H])(N([H])C([H])([H])[H])C([H])([H])[H])C(C([H])([H])[H])(C([H])([H])[H])C([H])([H])[H])C([H])([H])c2c([H])c(OC3([H])C([H])([H])C([H])([H])C([H])([H])[N+]([H])(C([H])([H])C([H])([H])C4([H])C([H])([H])C([H])([H])C([H])(N([H])C(=O)N5C([H])([H])C([H])([H])C([H])([H])C([H])(n6nc(-c7c([H])c([H])c(Oc8c([H])c([H])c(F)c([H])c8F)c([H])c7[H])c(C(=O)N([H])[H])c6N([H])[H])C5([H])[H])C([H])([H])C4([H])[H])C3([H])[H])c([H])c([H])c2C1([H])[H]

$$$$
94:0:0
     RDKit          3D

 99108  0  0  1  0  0  0  0  0999 V2000
  -29.5840  -18.8310   20.1720 C   0  0  0  0  0  3  0  0  0  0  0  0
  -29.6420  -17.4520   20.7540 N   0  0  0  0  0  2  0  0  0  0  0  0
  -30.0120  -21.8090   20.9210 C   0  0  0  0  0  3  0  0  0  0  0  0
  -27.9280  -21.4730   20.3490 C   0  0  0  0  0  3  0  0  0  0  0  0
  -29.1630  -20.6280   20.5530 C   0  0  0  0  0  0  0  0  0  0  0  0
  -28.5110  -24.1470   20.7720 C   0  0  0  0  0  0  0  0  0  0  0  0
  -29.7390  -23.3200   21.0240 C   0  0  0  0  0  0  0  0  0  0  0  0
  -27.6260  -22.9890   20.4230 C   0  0  0  0  0  0  0  0  0  0  0  0
  -30.8230  -24.0390   21.4020 F   0  0  0  0  0  0  0  0  0  0  0  0
  -26.3560  -23.3290   20.0940 F   0  0  0  0  0  0  0  0  0  0  0  0
  -28.3920  -25.7840   20.8600 O   0  0  0  0  0  0  0  0  0  0  0  0
  -24.8250  -32.2070   23.4890 C   0  0  0  0  0  0  0  0  0  0  0  0
  -27.3850  -26.9720   20.7780 C   0  0  0  0  0  0  0  0  0  0  0  0
  -23.6700  -30.7590   21.8730 C   0  0  0  0  0  3  0  0  0  0  0  0
  -25.1330  -29.0310   20.5720 C   0  0  0  0  0  0  0  0  0  0  0  0
  -26.2490  -30.8680   21.8180 C   0  0  0  0  0  2  0  0  0  0  0  0
  -26.3120  -29.4020   21.2280 C   0  0  0  0  0  0  0  0  0  0  0  0
  -27.4160  -28.4000   21.2960 C   0  0  0  0  0  3  0  0  0  0  0  0
  -26.1760  -26.8210   20.0440 C   0  0  0  0  0  3  0  0  0  0  0  0
  -25.1030  -27.7640   19.9640 C   0  0  0  0  0  3  0  0  0  0  0  0
  -23.9430  -30.0030   20.5380 C   0  0  0  0  0  2  0  0  0  0  0  0
  -24.9380  -31.3170   22.4410 N   0  0  0  0  0  0  0  0  0  0  0  0
  -23.7220  -32.5330   23.9620 O   0  0  0  0  0  0  0  0  0  0  0  0
  -22.9240  -29.8250   22.8660 C   0  0  0  0  0  0  0  0  0  0  0  0
  -21.6090  -29.6090   22.6680 N   0  0  0  0  0  0  0  0  0  0  0  0
  -23.5440  -29.2840   23.7860 O   0  0  0  0  0  0  0  0  0  0  0  0
  -21.1550  -30.0990   21.9100 H   0  0  0  0  0  0  0  0  0  0  0  0
  -18.2400  -28.2930   23.0270 C   0  0  0  0  0  0  0  0  0  0  0  0
  -20.7630  -28.6980   23.4500 C   0  0  0  0  0  3  0  0  0  0  0  0
  -20.9640  -27.2320   22.9980 C   0  0  0  0  0  2  0  0  0  0  0  0
  -19.9550  -26.7850   21.9350 C   0  0  0  0  0  2  0  0  0  0  0  0
  -18.5230  -26.9100   22.4640 C   0  0  0  0  0  2  0  0  0  0  0  0
  -19.2920  -29.1400   23.4740 C   0  0  0  0  0  0  0  0  0  0  0  0
  -18.9690  -30.4260   23.9610 C   0  0  0  0  0  3  0  0  0  0  0  0
  -17.6340  -30.8680   24.0010 C   0  0  0  0  0  3  0  0  0  0  0  0
  -16.5980  -30.0210   23.5670 C   0  0  0  0  0  3  0  0  0  0  0  0
  -16.9050  -28.7350   23.0870 C   0  0  0  0  0  3  0  0  0  0  0  0
  -26.0740  -32.8700   24.1380 C   0  0  0  0  0  3  0  0  0  0  0  0
  -26.5020  -32.1850   25.4960 C   0  0  1  0  0  0  0  0  0  0  0  0
  -25.3350  -31.9950   26.4970 C   0  0  0  0  0  1  0  0  0  0  0  0
  -27.1250  -30.7950   25.2440 C   0  0  0  0  0  1  0  0  0  0  0  0
  -27.6000  -33.0320   26.1850 C   0  0  0  0  0  1  0  0  0  0  0  0
  -25.7700  -34.2940   24.3790 N   0  0  0  0  0  0  0  0  0  0  0  0
  -26.1180  -35.3070   23.5700 C   0  0  0  0  0  0  0  0  0  0  0  0
  -26.7860  -35.1370   22.5500 O   0  0  0  0  0  0  0  0  0  0  0  0
  -25.1720  -34.4910   25.1700 H   0  0  0  0  0  0  0  0  0  0  0  0
  -24.4070  -37.1060   23.1420 C   0  0  0  0  0  1  0  0  0  0  0  0
  -25.6560  -36.7310   23.9570 C   0  0  0  0  0  3  0  0  0  0  0  0
  -27.8150  -37.6450   24.6950 C   0  0  0  0  0  1  0  0  0  0  0  0
  -26.6970  -37.7630   23.7620 N   0  0  0  0  0  0  0  0  0  0  0  0
  -26.3030  -38.6940   23.8560 H   0  0  0  0  0  0  0  0  0  0  0  0
  -30.3490  -15.9800   20.4460 C   0  0  0  0  0  0  0  0  0  0  0  0
  -30.5670  -13.3970   19.7600 C   0  0  0  0  0  2  0  0  0  0  0  0
  -29.7550  -12.9290   18.5170 C   0  0  0  0  0  2  0  0  0  0  0  0
  -28.3410  -12.4990   18.9260 C   0  0  0  0  0  2  0  0  0  0  0  0
  -27.7410  -13.5020   19.9390 C   0  0  0  0  0  3  0  0  0  0  0  0
  -28.6980  -13.9280   21.0800 C   0  0  0  0  0  2  0  0  0  0  0  0
  -29.8780  -14.5850   20.4670 N   0  0  0  0  0  0  0  0  0  0  0  0
  -31.5500  -15.9030   20.1340 O   0  0  0  0  0  0  0  0  0  0  0  0
  -25.3540  -13.9460   20.6640 C   0  0  0  0  0  0  0  0  0  0  0  0
  -24.3140  -13.1320   21.0120 C   0  0  0  0  0  0  0  0  0  0  0  0
  -24.8320  -11.7990   20.9910 C   0  0  0  0  0  0  0  0  0  0  0  0
  -26.4300  -13.1120   20.4340 N   0  0  0  0  0  0  0  0  0  0  0  0
  -26.1280  -11.8110   20.6950 N   0  0  0  0  0  0  0  0  0  0  0  0
  -24.1420  -10.5110   21.1690 C   0  0  0  0  0  0  0  0  0  0  0  0
  -24.5550   -9.5800   22.1460 C   0  0  0  0  0  3  0  0  0  0  0  0
  -23.8620   -8.3620   22.3150 C   0  0  0  0  0  3  0  0  0  0  0  0
  -22.7400   -8.0640   21.5050 C   0  0  0  0  0  0  0  0  0  0  0  0
  -22.3470   -8.9840   20.5170 C   0  0  0  0  0  3  0  0  0  0  0  0
  -23.0420  -10.1930   20.3480 C   0  0  0  0  0  3  0  0  0  0  0  0
  -22.0210   -6.8940   21.5810 O   0  0  0  0  0  0  0  0  0  0  0  0
  -21.8840   -6.2090   22.7600 C   0  0  0  0  0  0  0  0  0  0  0  0
  -21.3140   -6.8020   23.9060 C   0  0  0  0  0  3  0  0  0  0  0  0
  -21.1300   -6.0400   25.0760 C   0  0  0  0  0  3  0  0  0  0  0  0
  -21.5000   -4.6830   25.1000 C   0  0  0  0  0  0  0  0  0  0  0  0
  -22.0590   -4.0860   23.9570 C   0  0  0  0  0  3  0  0  0  0  0  0
  -22.2460   -4.8470   22.7880 C   0  0  0  0  0  0  0  0  0  0  0  0
  -22.7690   -4.2610   21.6840 F   0  0  0  0  0  0  0  0  0  0  0  0
  -21.3130   -3.9470   26.2210 F   0  0  0  0  0  0  0  0  0  0  0  0
  -22.8970  -13.5670   21.2470 C   0  0  0  0  0  0  0  0  0  0  0  0
  -22.1740  -12.8540   22.1040 N   0  0  0  0  0  0  0  0  0  0  0  0
  -22.4350  -14.5690   20.7010 O   0  0  0  0  0  0  0  0  0  0  0  0
  -22.5520  -12.0440   22.5720 H   0  0  0  0  0  0  0  0  0  0  0  0
  -21.2210  -13.1220   22.3000 H   0  0  0  0  0  0  0  0  0  0  0  0
  -25.4750  -15.3200   20.4940 N   0  0  0  0  0  0  0  0  0  0  0  0
  -24.7060  -15.9600   20.6460 H   0  0  0  0  0  0  0  0  0  0  0  0
  -26.3540  -15.7810   20.2910 H   0  0  0  0  0  0  0  0  0  0  0  0
  -30.8900  -19.8010   18.0250 C   0  0  0  0  0  2  0  0  0  0  0  0
  -28.6320  -18.5930   17.8100 C   0  0  0  0  0  2  0  0  0  0  0  0
  -29.2550  -20.4460   16.1230 C   0  0  0  0  0  2  0  0  0  0  0  0
  -29.9360  -18.7230   18.6550 C   0  0  0  0  0  3  0  0  0  0  0  0
  -30.1620  -20.9600   17.2700 C   0  0  0  0  0  3  0  0  0  0  0  0
  -28.7650  -18.9900   16.3210 C   0  0  0  0  0  3  0  0  0  0  0  0
  -31.0910  -22.0170   16.7930 N   0  0  0  0  0  4  0  0  0  0  0  0
  -31.6790  -21.6930   16.0440 H   0  0  0  0  0  0  0  0  0  0  0  0
  -31.7090  -22.3250   17.5250 H   0  0  0  0  0  0  0  0  0  0  0  0
  -30.5990  -22.8280   16.4520 H   0  0  0  0  0  0  0  0  0  0  0  0
  -29.5840  -18.0680   15.6030 O   0  0  0  0  0  0  0  0  0  0  0  0
  -30.4830  -18.1120   15.9110 H   0  0  0  0  0  0  0  0  0  0  0  0
  1  5  1  0
  1  2  1  0
  3  7  1  0
  4  8  2  0
  4  5  1  0
  5  3  2  0
  6 11  1  0
  6  7  2  0
  7  9  1  0
  8  6  1  0
 10  8  1  0
 12 23  2  0
 13 11  1  0
 13 18  1  0
 14 22  1  0
 14 24  1  0
 15 17  1  0
 16 22  1  0
 17 18  2  0
 17 16  1  0
 19 13  2  0
 20 19  1  0
 20 15  2  0
 21 15  1  0
 21 14  1  0
 22 12  1  0
 24 26  2  0
 25 24  1  0
 27 25  1  0
 28 37  2  0
 28 33  1  0
 29 25  1  0
 29 33  1  0
 30 29  1  0
 31 32  1  0
 31 30  1  0
 32 28  1  0
 33 34  2  0
 34 35  1  0
 36 35  2  0
 37 36  1  0
 38 12  1  0
 38 43  1  0
 38 39  1  0
 39 42  1  1
 39 40  1  0
 41 39  1  0
 43 46  1  0
 44 48  1  0
 44 43  1  0
 45 44  2  0
 48 47  1  0
 50 51  1  0
 50 48  1  0
 50 49  1  0
 52 58  1  0
 52  2  1  0
 53 58  1  0
 54 55  1  0
 54 53  1  0
 56 55  1  0
 56 63  1  0
 56 57  1  0
 58 57  1  0
 59 52  2  0
 60 61  2  0
 61 80  1  0
 62 61  1  0
 62 65  1  0
 63 60  1  0
 63 64  1  0
 64 62  2  0
 65 66  1  0
 66 67  2  0
 68 71  1  0
 68 67  1  0
 69 68  2  0
 70 69  1  0
 70 65  2  0
 71 72  1  0
 72 77  2  0
 72 73  1  0
 73 74  2  0
 74 75  1  0
 75 79  1  0
 76 75  2  0
 77 76  1  0
 78 77  1  0
 80 81  1  0
 81 84  1  0
 81 83  1  0
 82 80  2  0
 85 86  1  0
 85 60  1  0
 87 85  1  0
 88 91  1  0
 89 91  1  0
 90 93  1  0
 90 92  1  0
 91  1  1  0
 92 94  1  0
 92 88  1  0
 93 98  1  0
 93 89  1  0
 94 96  1  0
 95 94  1  0
 97 94  1  0
 98 99  1  0
M  ISO  4   2 100   6 101  11 101  52 100
M  END
>  <TORSDO>  (94) 
F 20

>  <SCORE>  (94) 
-14.339

>  <name>  (94) 
94

>  <ligand_id>  (94) 
94

>  <original_smiles>  (94) 
[H]OC1([H])C([H])([H])C([H])(C(=NC(=O)N2C([H])([H])C([H])([H])C([H])([H])C([H])(n3nc(-c4c([H])c([H])c(Oc5c([H])c([H])c(F)c([H])c5F)c([H])c4[H])c(C(=O)N([H])[H])c3N([H])[H])C2([H])[H])c2c([H])c(F)c(Oc3c([H])c([H])c4c(c3[H])C([H])([H])N(C(=O)C([H])(N([H])C(=O)C([H])(N([H])C([H])([H])[H])C([H])([H])[H])C(C([H])([H])[H])(C([H])([H])[H])C([H])([H])[H])C([H])(C(=O)N([H])C3([H])c5c([H])c([H])c([H])c([H])c5C([H])([H])C([H])([H])C3([H])[H])C4([H])[H])c(F)c2[H])C([H])([H])C([H])([N+]([H])([H])[H])C1([H])[H]

>  <smiles>  (94) 
[H]OC1([H])C([H])([H])C([H])(C(=NC(=O)N2C([H])([H])C([H])([H])C([H])([H])C([H])(n3nc(-c4c([H])c([H])c(Oc5c([H])c([H])c(F)c([H])c5F)c([H])c4[H])c(C(=O)N([H])[H])c3N([H])[H])C2([H])[H])c2c([H])c(F)c(Oc3c([H])c([H])c4c(c3[H])C([H])([H])N(C(=O)C([H])(N([H])C(=O)C([H])(N([H])C([H])([H])[H])C([H])([H])[H])C(C([H])([H])[H])(C([H])([H])[H])C([H])([H])[H])C([H])(C(=O)N([H])C3([H])c5c([H])c([H])c([H])c([H])c5C([H])([H])C([H])([H])C3([H])[H])C4([H])[H])c(F)c2[H])C([H])([H])C([H])([N+]([H])([H])[H])C1([H])[H]

$$$$
95:0:0
     RDKit          3D

 93102  0  0  1  0  0  0  0  0999 V2000
  -28.4220  -22.0890   21.6840 C   0  0  0  0  0  3  0  0  0  0  0  0
  -27.7040  -22.9440   22.5250 C   0  0  0  0  0  3  0  0  0  0  0  0
  -27.6520  -24.5810   20.7670 C   0  0  0  0  0  3  0  0  0  0  0  0
  -28.7920  -22.3740   20.3420 C   0  0  0  0  0  0  0  0  0  0  0  0
  -28.3930  -23.7890   19.8520 C   0  0  0  0  0  0  0  0  0  0  0  0
  -27.2990  -24.2040   22.0680 C   0  0  0  0  0  0  0  0  0  0  0  0
  -30.9740  -20.7650   20.5840 C   0  0  0  0  0  2  0  0  0  0  0  0
  -31.1100  -19.2950   21.1810 C   0  0  0  0  0  2  0  0  0  0  0  0
  -29.0930  -19.4290   20.0180 C   0  0  0  0  0  2  0  0  0  0  0  0
  -29.6220  -21.0130   19.8280 C   0  0  0  0  0  3  0  0  0  0  0  0
  -30.2650  -18.3000   20.3530 C   0  0  0  0  0  3  0  0  0  0  0  0
  -30.8450  -15.6530   21.1900 C   0  0  0  0  0  0  0  0  0  0  0  0
  -30.9650  -13.1350   20.7920 C   0  0  0  0  0  2  0  0  0  0  0  0
  -30.2930  -12.7610   19.4490 C   0  0  0  0  0  2  0  0  0  0  0  0
  -28.7790  -12.5520   19.6380 C   0  0  0  0  0  2  0  0  0  0  0  0
  -28.1330  -13.6750   20.4890 C   0  0  0  0  0  3  0  0  0  0  0  0
  -28.9480  -13.9980   21.7600 C   0  0  0  0  0  2  0  0  0  0  0  0
  -30.2980  -14.3680   21.3180 N   0  0  0  0  0  0  0  0  0  0  0  0
  -32.0780  -15.7080   21.1110 O   0  0  0  0  0  0  0  0  0  0  0  0
  -30.0300  -16.8180   20.9480 N   0  0  0  0  0  0  0  0  0  0  0  0
  -29.0500  -16.6040   21.0680 H   0  0  0  0  0  0  0  0  0  0  0  0
  -25.6870  -14.3120   20.8710 C   0  0  0  0  0  0  0  0  0  0  0  0
  -24.5610  -13.5640   21.0750 C   0  0  0  0  0  0  0  0  0  0  0  0
  -24.9890  -12.2020   21.1080 C   0  0  0  0  0  0  0  0  0  0  0  0
  -26.7310  -13.4070   20.7840 N   0  0  0  0  0  0  0  0  0  0  0  0
  -26.3110  -12.1320   20.9940 N   0  0  0  0  0  0  0  0  0  0  0  0
  -24.2090  -10.9590   21.1800 C   0  0  0  0  0  0  0  0  0  0  0  0
  -24.5140   -9.9480   22.1180 C   0  0  0  0  0  3  0  0  0  0  0  0
  -23.7350   -8.7730   22.1820 C   0  0  0  0  0  3  0  0  0  0  0  0
  -22.6360   -8.5990   21.3060 C   0  0  0  0  0  0  0  0  0  0  0  0
  -22.3510   -9.6000   20.3590 C   0  0  0  0  0  3  0  0  0  0  0  0
  -23.1310  -10.7660   20.2930 C   0  0  0  0  0  3  0  0  0  0  0  0
  -21.8400   -7.4800   21.2780 O   0  0  0  0  0  0  0  0  0  0  0  0
  -21.7020   -6.6690   22.3760 C   0  0  0  0  0  0  0  0  0  0  0  0
  -21.2170   -7.1580   23.6080 C   0  0  0  0  0  3  0  0  0  0  0  0
  -21.0230   -6.2750   24.6890 C   0  0  0  0  0  3  0  0  0  0  0  0
  -21.3050   -4.9050   24.5390 C   0  0  0  0  0  0  0  0  0  0  0  0
  -21.7830   -4.4140   23.3110 C   0  0  0  0  0  3  0  0  0  0  0  0
  -21.9780   -5.2940   22.2310 C   0  0  0  0  0  0  0  0  0  0  0  0
  -22.4180   -4.8130   21.0440 F   0  0  0  0  0  0  0  0  0  0  0  0
  -21.1130   -4.0540   25.5750 F   0  0  0  0  0  0  0  0  0  0  0  0
  -23.1520  -14.0790   21.1330 C   0  0  0  0  0  0  0  0  0  0  0  0
  -22.2860  -13.4100   21.8850 N   0  0  0  0  0  0  0  0  0  0  0  0
  -22.8250  -15.1100   20.5460 O   0  0  0  0  0  0  0  0  0  0  0  0
  -22.5610  -12.5760   22.3830 H   0  0  0  0  0  0  0  0  0  0  0  0
  -21.3340  -13.7380   21.9670 H   0  0  0  0  0  0  0  0  0  0  0  0
  -25.9100  -15.6780   20.7230 N   0  0  0  0  0  0  0  0  0  0  0  0
  -25.1480  -16.3470   20.7150 H   0  0  0  0  0  0  0  0  0  0  0  0
  -26.8010  -16.0920   20.4850 H   0  0  0  0  0  0  0  0  0  0  0  0
  -26.2760  -24.7770   24.1630 C   0  0  0  0  0  1  0  0  0  0  0  0
  -26.5780  -25.1110   22.8140 O   0  0  0  0  0  0  0  0  0  0  0  0
  -28.5150  -24.7340   18.4970 C   0  0  0  0  0  2  0  0  0  0  0  0
  -28.4150  -26.3260   18.4920 O   0  0  0  0  0  0  0  0  0  0  0  0
  -24.6260  -31.2570   22.5140 C   0  0  0  0  0  0  0  0  0  0  0  0
  -27.2600  -27.2000   18.6350 C   0  0  0  0  0  0  0  0  0  0  0  0
  -23.3860  -29.9820   20.8070 C   0  0  0  0  0  3  0  0  0  0  0  0
  -24.8070  -28.7400   19.0520 C   0  0  0  0  0  0  0  0  0  0  0  0
  -25.8830  -30.4910   20.4590 C   0  0  0  0  0  2  0  0  0  0  0  0
  -26.0010  -29.2050   19.6130 C   0  0  0  0  0  0  0  0  0  0  0  0
  -27.2210  -28.4530   19.3880 C   0  0  0  0  0  3  0  0  0  0  0  0
  -26.0240  -26.8470   18.0530 C   0  0  0  0  0  3  0  0  0  0  0  0
  -24.8300  -27.5820   18.2560 C   0  0  0  0  0  3  0  0  0  0  0  0
  -23.5230  -29.5110   19.3330 C   0  0  0  0  0  2  0  0  0  0  0  0
  -24.6560  -30.5940   21.3160 N   0  0  0  0  0  0  0  0  0  0  0  0
  -23.5780  -31.3680   23.1700 O   0  0  0  0  0  0  0  0  0  0  0  0
  -22.8860  -28.8020   21.6790 C   0  0  0  0  0  0  0  0  0  0  0  0
  -21.5730  -28.5170   21.6330 N   0  0  0  0  0  0  0  0  0  0  0  0
  -23.6810  -28.1500   22.3610 O   0  0  0  0  0  0  0  0  0  0  0  0
  -20.9790  -29.1010   21.0610 H   0  0  0  0  0  0  0  0  0  0  0  0
  -18.3770  -26.9050   22.2040 C   0  0  0  0  0  0  0  0  0  0  0  0
  -20.9100  -27.4120   22.3330 C   0  0  0  0  0  3  0  0  0  0  0  0
  -21.1090  -26.0760   21.5770 C   0  0  0  0  0  2  0  0  0  0  0  0
  -19.9680  -25.7590   20.6050 C   0  0  0  0  0  2  0  0  0  0  0  0
  -18.6330  -25.6740   21.3510 C   0  0  0  0  0  2  0  0  0  0  0  0
  -19.4440  -27.7290   22.6520 C   0  0  0  0  0  0  0  0  0  0  0  0
  -19.1460  -28.8790   23.4160 C   0  0  0  0  0  3  0  0  0  0  0  0
  -17.8150  -29.2080   23.7330 C   0  0  0  0  0  3  0  0  0  0  0  0
  -16.7640  -28.3820   23.2980 C   0  0  0  0  0  3  0  0  0  0  0  0
  -17.0460  -27.2310   22.5400 C   0  0  0  0  0  3  0  0  0  0  0  0
  -25.9040  -31.9220   23.1120 C   0  0  0  0  0  3  0  0  0  0  0  0
  -26.6980  -30.9710   24.0900 C   0  0  1  0  0  0  0  0  0  0  0  0
  -25.8200  -30.3450   25.2000 C   0  0  0  0  0  1  0  0  0  0  0  0
  -27.3650  -29.8130   23.3130 C   0  0  0  0  0  1  0  0  0  0  0  0
  -27.8410  -31.7580   24.7730 C   0  0  0  0  0  1  0  0  0  0  0  0
  -25.4860  -33.1450   23.8180 N   0  0  0  0  0  0  0  0  0  0  0  0
  -25.6530  -34.3910   23.3540 C   0  0  0  0  0  0  0  0  0  0  0  0
  -26.2390  -34.6360   22.2970 O   0  0  0  0  0  0  0  0  0  0  0  0
  -24.9480  -33.0170   24.6620 H   0  0  0  0  0  0  0  0  0  0  0  0
  -23.7510  -36.0250   23.5850 C   0  0  0  0  0  1  0  0  0  0  0  0
  -25.0800  -35.5500   24.1950 C   0  0  0  0  0  3  0  0  0  0  0  0
  -27.1820  -36.4020   25.1360 C   0  0  0  0  0  1  0  0  0  0  0  0
  -26.0040  -36.6980   24.3250 N   0  0  0  0  0  0  0  0  0  0  0  0
  -25.5290  -37.4970   24.7340 H   0  0  0  0  0  0  0  0  0  0  0  0
  1  2  1  0
  3  6  1  0
  4  1  2  0
  5  4  1  0
  5  3  2  0
  6  2  2  0
  6 51  1  0
  7  8  1  0
  9 11  1  0
 10  9  1  0
 10  4  1  0
 10  7  1  0
 11 20  1  0
 11  8  1  0
 12 18  1  0
 13 18  1  0
 14 15  1  0
 14 13  1  0
 16 15  1  0
 16 25  1  0
 16 17  1  0
 18 17  1  0
 19 12  2  0
 20 21  1  0
 20 12  1  0
 22 23  2  0
 23 24  1  0
 23 42  1  0
 24 27  1  0
 25 22  1  0
 25 26  1  0
 26 24  2  0
 27 28  1  0
 28 29  2  0
 30 29  1  0
 31 30  2  0
 32 31  1  0
 32 27  2  0
 33 30  1  0
 33 34  1  0
 34 35  1  0
 35 36  2  0
 37 36  1  0
 37 41  1  0
 38 37  2  0
 39 34  2  0
 39 38  1  0
 40 39  1  0
 42 43  1  0
 43 46  1  0
 43 45  1  0
 44 42  2  0
 47 22  1  0
 48 47  1  0
 49 47  1  0
 51 50  1  0
 52  5  1  0
 53 52  1  0
 53 55  1  0
 54 65  2  0
 55 60  1  0
 56 64  1  0
 56 66  1  0
 57 63  1  0
 57 59  1  0
 58 64  1  0
 59 58  1  0
 60 59  2  0
 61 62  1  0
 61 55  2  0
 62 57  2  0
 63 56  1  0
 64 54  1  0
 66 68  2  0
 67 66  1  0
 69 67  1  0
 70 79  2  0
 70 75  1  0
 71 67  1  0
 71 75  1  0
 72 71  1  0
 73 74  1  0
 73 72  1  0
 74 70  1  0
 75 76  2  0
 76 77  1  0
 78 77  2  0
 79 78  1  0
 80 54  1  0
 80 85  1  0
 80 81  1  0
 81 84  1  1
 81 82  1  0
 83 81  1  0
 85 88  1  0
 86 85  1  0
 86 90  1  0
 87 86  2  0
 90 89  1  0
 90 92  1  0
 92 93  1  0
 92 91  1  0
M  ISO  4  12 100  20 100  52 101  53 101
M  END
>  <TORSDO>  (95) 
F 19

>  <SCORE>  (95) 
-7.982

>  <name>  (95) 
95

>  <ligand_id>  (95) 
95

>  <original_smiles>  (95) 
[H]c1c([H])c([H])c2c(c1[H])C([H])([H])C([H])([H])C([H])([H])C2([H])N([H])C(=O)C1([H])N(C(=O)C([H])(N([H])C(=O)C([H])(N([H])C([H])([H])[H])C([H])([H])[H])C(C([H])([H])[H])(C([H])([H])[H])C([H])([H])[H])C([H])([H])c2c([H])c(OC([H])([H])c3c([H])c(OC([H])([H])[H])c([H])c([H])c3C3([H])C([H])([H])C([H])([H])C([H])(N([H])C(=O)N4C([H])([H])C([H])([H])C([H])([H])C([H])(n5nc(-c6c([H])c([H])c(Oc7c([H])c([H])c(F)c([H])c7F)c([H])c6[H])c(C(=O)N([H])[H])c5N([H])[H])C4([H])[H])C3([H])[H])c([H])c([H])c2C1([H])[H]

>  <smiles>  (95) 
[H]c1c([H])c([H])c2c(c1[H])C([H])([H])C([H])([H])C([H])([H])C2([H])N([H])C(=O)C1([H])N(C(=O)C([H])(N([H])C(=O)C([H])(N([H])C([H])([H])[H])C([H])([H])[H])C(C([H])([H])[H])(C([H])([H])[H])C([H])([H])[H])C([H])([H])c2c([H])c(OC([H])([H])c3c([H])c(OC([H])([H])[H])c([H])c([H])c3C3([H])C([H])([H])C([H])([H])C([H])(N([H])C(=O)N4C([H])([H])C([H])([H])C([H])([H])C([H])(n5nc(-c6c([H])c([H])c(Oc7c([H])c([H])c(F)c([H])c7F)c([H])c6[H])c(C(=O)N([H])[H])c5N([H])[H])C4([H])[H])C3([H])[H])c([H])c([H])c2C1([H])[H]

$$$$
