0:0:0
     RDKit          3D

 93102  0  0  1  0  0  0  0  0999 V2000
  -28.3490  -23.8690   17.6040 C   0  0  0  0  0  3  0  0  0  0  0  0
  -28.6640  -22.7380   18.3800 C   0  0  0  0  0  3  0  0  0  0  0  0
  -28.2740  -25.1400   18.1960 C   0  0  0  0  0  3  0  0  0  0  0  0
  -28.8960  -22.8150   19.7750 C   0  0  0  0  0  0  0  0  0  0  0  0
  -28.7240  -24.1290   20.3800 C   0  0  0  0  0  0  0  0  0  0  0  0
  -28.4310  -25.2980   19.5870 C   0  0  0  0  0  0  0  0  0  0  0  0
  -28.8340  -24.3530   21.8820 C   0  0  0  0  0  1  0  0  0  0  0  0
  -29.3330  -21.4940   20.4510 C   0  0  0  0  0  0  0  0  0  0  0  0
  -30.3260  -21.6360   21.5990 C   0  0  0  0  0  1  0  0  0  0  0  0
  -28.9750  -20.3140   20.0260 N   0  0  0  0  0  0  0  0  0  0  0  0
  -30.7780  -14.7010   20.2600 C   0  0  0  0  0  0  0  0  0  0  0  0
  -30.4320  -12.4610   19.2330 C   0  0  0  0  0  2  0  0  0  0  0  0
  -29.4730  -12.5100   18.0310 C   0  0  0  0  0  2  0  0  0  0  0  0
  -28.0250  -12.3020   18.5060 C   0  0  0  0  0  2  0  0  0  0  0  0
  -27.6650  -13.2150   19.7010 C   0  0  0  0  0  3  0  0  0  0  0  0
  -28.7560  -13.1900   20.8000 C   0  0  0  0  0  2  0  0  0  0  0  0
  -30.0310  -13.5460   20.1630 N   0  0  0  0  0  0  0  0  0  0  0  0
  -31.9700  -14.6360   19.9560 O   0  0  0  0  0  0  0  0  0  0  0  0
  -30.7070  -18.4590   19.9780 C   0  0  0  0  0  2  0  0  0  0  0  0
  -28.3730  -17.8930   20.3530 C   0  0  0  0  0  2  0  0  0  0  0  0
  -31.1540  -17.1380   20.6700 C   0  0  0  0  0  2  0  0  0  0  0  0
  -28.8030  -16.3790   20.5010 C   0  0  0  0  0  2  0  0  0  0  0  0
  -29.4170  -19.0060   20.6100 C   0  0  0  0  0  3  0  0  0  0  0  0
  -30.2350  -15.9680   20.5080 N   0  0  0  0  0  0  0  0  0  0  0  0
  -25.3120  -13.8400   20.5000 C   0  0  0  0  0  0  0  0  0  0  0  0
  -24.2480  -13.0690   20.8810 C   0  0  0  0  0  0  0  0  0  0  0  0
  -24.7030  -11.7170   20.8280 C   0  0  0  0  0  0  0  0  0  0  0  0
  -26.3390  -12.9490   20.2310 N   0  0  0  0  0  0  0  0  0  0  0  0
  -25.9840  -11.6700   20.4950 N   0  0  0  0  0  0  0  0  0  0  0  0
  -23.9780  -10.4570   21.0120 C   0  0  0  0  0  0  0  0  0  0  0  0
  -24.4060   -9.4920   21.9500 C   0  0  0  0  0  3  0  0  0  0  0  0
  -23.6810   -8.2930   22.1190 C   0  0  0  0  0  3  0  0  0  0  0  0
  -22.5180   -8.0520   21.3510 C   0  0  0  0  0  0  0  0  0  0  0  0
  -22.1110   -9.0060   20.4020 C   0  0  0  0  0  3  0  0  0  0  0  0
  -22.8360  -10.1970   20.2290 C   0  0  0  0  0  3  0  0  0  0  0  0
  -21.7640   -6.9070   21.4350 O   0  0  0  0  0  0  0  0  0  0  0  0
  -21.6740   -6.1900   22.6010 C   0  0  0  0  0  0  0  0  0  0  0  0
  -21.1590   -6.7570   23.7880 C   0  0  0  0  0  3  0  0  0  0  0  0
  -21.0210   -5.9640   24.9430 C   0  0  0  0  0  3  0  0  0  0  0  0
  -21.3840   -4.6040   24.9130 C   0  0  0  0  0  0  0  0  0  0  0  0
  -21.8930   -4.0370   23.7330 C   0  0  0  0  0  3  0  0  0  0  0  0
  -22.0350   -4.8280   22.5790 C   0  0  0  0  0  0  0  0  0  0  0  0
  -22.5050   -4.2710   21.4370 F   0  0  0  0  0  0  0  0  0  0  0  0
  -21.2440   -3.8400   26.0220 F   0  0  0  0  0  0  0  0  0  0  0  0
  -22.8590  -13.5520   21.1820 C   0  0  0  0  0  0  0  0  0  0  0  0
  -22.1400  -12.8490   22.0490 N   0  0  0  0  0  0  0  0  0  0  0  0
  -22.4220  -14.5900   20.6840 O   0  0  0  0  0  0  0  0  0  0  0  0
  -22.5050  -12.0120   22.4790 H   0  0  0  0  0  0  0  0  0  0  0  0
  -21.2090  -13.1570   22.2920 H   0  0  0  0  0  0  0  0  0  0  0  0
  -25.4820  -15.2110   20.3350 N   0  0  0  0  0  0  0  0  0  0  0  0
  -24.7260  -15.8730   20.4710 H   0  0  0  0  0  0  0  0  0  0  0  0
  -26.3300  -15.6480   19.9990 H   0  0  0  0  0  0  0  0  0  0  0  0
  -28.3760  -26.5960   20.1250 O   0  0  0  0  0  0  0  0  0  0  0  0
  -24.5960  -31.8730   23.2300 C   0  0  0  0  0  0  0  0  0  0  0  0
  -27.2160  -27.3770   20.1160 C   0  0  0  0  0  0  0  0  0  0  0  0
  -23.3880  -30.4830   21.5810 C   0  0  0  0  0  3  0  0  0  0  0  0
  -24.8350  -28.9460   20.1470 C   0  0  0  0  0  0  0  0  0  0  0  0
  -25.9230  -30.8170   21.3910 C   0  0  0  0  0  2  0  0  0  0  0  0
  -26.0030  -29.4450   20.7380 C   0  0  0  0  0  0  0  0  0  0  0  0
  -27.1950  -28.6690   20.7160 C   0  0  0  0  0  3  0  0  0  0  0  0
  -26.0140  -26.9060   19.5390 C   0  0  0  0  0  3  0  0  0  0  0  0
  -24.8390  -27.6780   19.5450 C   0  0  0  0  0  3  0  0  0  0  0  0
  -23.5970  -29.8130   20.1990 C   0  0  0  0  0  2  0  0  0  0  0  0
  -24.6540  -31.0740   22.1250 N   0  0  0  0  0  0  0  0  0  0  0  0
  -23.5140  -32.1440   23.7700 O   0  0  0  0  0  0  0  0  0  0  0  0
  -22.7320  -29.4580   22.5360 C   0  0  0  0  0  0  0  0  0  0  0  0
  -21.4060  -29.2850   22.4110 N   0  0  0  0  0  0  0  0  0  0  0  0
  -23.4140  -28.8240   23.3450 O   0  0  0  0  0  0  0  0  0  0  0  0
  -20.9190  -29.8460   21.7280 H   0  0  0  0  0  0  0  0  0  0  0  0
  -18.0240  -28.1120   22.9240 C   0  0  0  0  0  0  0  0  0  0  0  0
  -20.5870  -28.3440   23.1760 C   0  0  0  0  0  3  0  0  0  0  0  0
  -20.6720  -26.9200   22.5800 C   0  0  0  0  0  2  0  0  0  0  0  0
  -19.5570  -26.6210   21.5710 C   0  0  0  0  0  2  0  0  0  0  0  0
  -18.1820  -26.7690   22.2290 C   0  0  0  0  0  2  0  0  0  0  0  0
  -19.1530  -28.8580   23.3550 C   0  0  0  0  0  0  0  0  0  0  0  0
  -18.9520  -30.1150   23.9640 C   0  0  0  0  0  3  0  0  0  0  0  0
  -17.6540  -30.6270   24.1480 C   0  0  0  0  0  3  0  0  0  0  0  0
  -16.5380  -29.8760   23.7340 C   0  0  0  0  0  3  0  0  0  0  0  0
  -16.7240  -28.6210   23.1280 C   0  0  0  0  0  3  0  0  0  0  0  0
  -25.8810  -32.4990   23.8530 C   0  0  0  0  0  3  0  0  0  0  0  0
  -25.5760  -33.8980   24.1810 N   0  0  0  0  0  0  0  0  0  0  0  0
  -25.9110  -34.9490   23.4200 C   0  0  0  0  0  0  0  0  0  0  0  0
  -26.5800  -34.8410   22.3880 O   0  0  0  0  0  0  0  0  0  0  0  0
  -24.9850  -34.0560   24.9840 H   0  0  0  0  0  0  0  0  0  0  0  0
  -24.1940  -36.7500   23.0550 C   0  0  0  0  0  1  0  0  0  0  0  0
  -25.4280  -36.3390   23.8740 C   0  0  0  0  0  3  0  0  0  0  0  0
  -27.5560  -37.2180   24.7270 C   0  0  0  0  0  1  0  0  0  0  0  0
  -26.4680  -37.3870   23.7680 N   0  0  0  0  0  0  0  0  0  0  0  0
  -26.0640  -38.3100   23.9050 H   0  0  0  0  0  0  0  0  0  0  0  0
  -26.3910  -31.7260   25.1310 C   0  0  1  0  0  0  0  0  0  0  0  0
  -25.2920  -31.4900   26.1940 C   0  0  0  0  0  1  0  0  0  0  0  0
  -26.9730  -30.3470   24.7410 C   0  0  0  0  0  1  0  0  0  0  0  0
  -27.5420  -32.5170   25.7970 C   0  0  0  0  0  1  0  0  0  0  0  0
  1  3  2  0
  1  2  1  0
  2  4  2  0
  3  6  1  0
  4  5  1  0
  4  8  1  0
  5  7  1  0
  6 53  1  0
  6  5  2  0
  8  9  1  0
 10  8  2  0
 11 24  1  0
 12 17  1  0
 13 14  1  0
 13 12  1  0
 15 14  1  0
 15 28  1  0
 15 16  1  0
 17 11  1  0
 17 16  1  0
 18 11  2  0
 19 23  1  0
 19 21  1  0
 20 22  1  0
 20 23  1  0
 22 24  1  0
 23 10  1  0
 24 21  1  0
 25 26  2  0
 26 45  1  0
 27 26  1  0
 27 30  1  0
 28 29  1  0
 28 25  1  0
 29 27  2  0
 30 31  1  0
 31 32  2  0
 33 36  1  0
 33 32  1  0
 34 33  2  0
 35 34  1  0
 35 30  2  0
 36 37  1  0
 37 38  1  0
 38 39  2  0
 40 39  1  0
 40 44  1  0
 41 40  2  0
 42 37  2  0
 42 41  1  0
 43 42  1  0
 45 46  1  0
 46 49  1  0
 46 48  1  0
 47 45  2  0
 50 51  1  0
 50 25  1  0
 52 50  1  0
 54 65  2  0
 55 53  1  0
 55 60  1  0
 56 64  1  0
 56 66  1  0
 57 63  1  0
 57 59  1  0
 58 64  1  0
 59 58  1  0
 60 59  2  0
 61 62  1  0
 61 55  2  0
 62 57  2  0
 63 56  1  0
 64 54  1  0
 66 68  2  0
 67 66  1  0
 69 67  1  0
 70 79  2  0
 70 75  1  0
 71 67  1  0
 71 75  1  0
 72 71  1  0
 73 74  1  0
 73 72  1  0
 74 70  1  0
 75 76  2  0
 76 77  1  0
 78 77  2  0
 79 78  1  0
 80 54  1  0
 80 81  1  0
 80 90  1  0
 81 84  1  0
 82 86  1  0
 82 81  1  0
 83 82  2  0
 86 85  1  0
 88 86  1  0
 88 89  1  0
 88 87  1  0
 90 93  1  1
 90 91  1  0
 92 90  1  0
M  ISO  4   6 101  11 100  24 100  53 101
M  END
>  <TORSDO>  (1) 
F 17

>  <SCORE>  (1) 
-15.444

>  <name>  (1) 
0

>  <ligand_id>  (1) 
0

>  <original_smiles>  (1) 
[H]c1c([H])c(Oc2c([H])c([H])c3c(c2[H])C([H])([H])N(C(=O)C([H])(N([H])C(=O)C([H])(N([H])C([H])([H])[H])C([H])([H])[H])C(C([H])([H])[H])(C([H])([H])[H])C([H])([H])[H])C([H])(C(=O)N([H])C2([H])c4c([H])c([H])c([H])c([H])c4C([H])([H])C([H])([H])C2([H])[H])C3([H])[H])c(C([H])([H])[H])c(C(=NC2([H])C([H])([H])C([H])([H])N(C(=O)N3C([H])([H])C([H])([H])C([H])([H])C([H])(n4nc(-c5c([H])c([H])c(Oc6c([H])c([H])c(F)c([H])c6F)c([H])c5[H])c(C(=O)N([H])[H])c4N([H])[H])C3([H])[H])C([H])([H])C2([H])[H])C([H])([H])[H])c1[H]

>  <smiles>  (1) 
[H]c1c([H])c(Oc2c([H])c([H])c3c(c2[H])C([H])([H])N(C(=O)C([H])(N([H])C(=O)C([H])(N([H])C([H])([H])[H])C([H])([H])[H])C(C([H])([H])[H])(C([H])([H])[H])C([H])([H])[H])C([H])(C(=O)N([H])C2([H])c4c([H])c([H])c([H])c([H])c4C([H])([H])C([H])([H])C2([H])[H])C3([H])[H])c(C([H])([H])[H])c(C(=NC2([H])C([H])([H])C([H])([H])N(C(=O)N3C([H])([H])C([H])([H])C([H])([H])C([H])(n4nc(-c5c([H])c([H])c(Oc6c([H])c([H])c(F)c([H])c6F)c([H])c5[H])c(C(=O)N([H])[H])c4N([H])[H])C3([H])[H])C([H])([H])C2([H])[H])C([H])([H])[H])c1[H]

$$$$
1:0:0
     RDKit          3D

 93102  0  0  1  0  0  0  0  0999 V2000
  -30.6930  -14.8550   20.5210 C   0  0  0  0  0  0  0  0  0  0  0  0
  -30.5090  -12.6050   19.4490 C   0  0  0  0  0  2  0  0  0  0  0  0
  -29.5920  -12.6720   18.2090 C   0  0  0  0  0  2  0  0  0  0  0  0
  -28.1170  -12.4880   18.6120 C   0  0  0  0  0  2  0  0  0  0  0  0
  -27.7090  -13.3450   19.8430 C   0  0  0  0  0  3  0  0  0  0  0  0
  -28.7530  -13.2730   20.9750 C   0  0  0  0  0  2  0  0  0  0  0  0
  -30.0390  -13.6490   20.3850 N   0  0  0  0  0  0  0  0  0  0  0  0
  -31.9270  -14.8570   20.4660 O   0  0  0  0  0  0  0  0  0  0  0  0
  -28.9360  -18.0830   17.7650 C   0  0  0  0  0  3  0  0  0  0  0  0
  -29.1280  -18.9740   18.7530 C   0  0  0  0  0  3  0  0  0  0  0  0
  -29.2620  -16.6140   17.7770 C   0  0  0  0  0  2  0  0  0  0  0  0
  -30.8650  -20.9390   20.3800 C   0  0  0  0  0  2  0  0  0  0  0  0
  -30.9720  -19.3950   20.4320 C   0  0  0  0  0  2  0  0  0  0  0  0
  -28.7370  -19.9690   20.9680 C   0  0  0  0  0  2  0  0  0  0  0  0
  -30.4640  -16.3260   18.6660 C   0  0  0  0  0  2  0  0  0  0  0  0
  -29.4960  -17.2350   20.7850 C   0  0  0  0  0  2  0  0  0  0  0  0
  -29.5290  -21.3750   21.0260 C   0  0  0  0  0  3  0  0  0  0  0  0
  -29.5640  -18.7980   20.2180 C   0  0  1  0  0  0  0  0  0  0  0  0
  -30.0420  -15.9970   20.0330 N   0  0  0  0  0  0  0  0  0  0  0  0
  -25.2810  -13.8740   20.4620 C   0  0  0  0  0  0  0  0  0  0  0  0
  -24.2310  -13.0770   20.8240 C   0  0  0  0  0  0  0  0  0  0  0  0
  -24.7440  -11.7440   20.8760 C   0  0  0  0  0  0  0  0  0  0  0  0
  -26.3640  -13.0250   20.3070 N   0  0  0  0  0  0  0  0  0  0  0  0
  -26.0470  -11.7430   20.6210 N   0  0  0  0  0  0  0  0  0  0  0  0
  -24.0570  -10.4640   21.0940 C   0  0  0  0  0  0  0  0  0  0  0  0
  -24.4910   -9.5500   22.0780 C   0  0  0  0  0  3  0  0  0  0  0  0
  -23.8010   -8.3350   22.2820 C   0  0  0  0  0  3  0  0  0  0  0  0
  -22.6630   -8.0260   21.4990 C   0  0  0  0  0  0  0  0  0  0  0  0
  -22.2490   -8.9290   20.5050 C   0  0  0  0  0  3  0  0  0  0  0  0
  -22.9400  -10.1350   20.3000 C   0  0  0  0  0  3  0  0  0  0  0  0
  -21.9460   -6.8590   21.6090 O   0  0  0  0  0  0  0  0  0  0  0  0
  -21.8920   -6.1560   22.7860 C   0  0  0  0  0  0  0  0  0  0  0  0
  -21.4290   -6.7420   23.9850 C   0  0  0  0  0  3  0  0  0  0  0  0
  -21.3240   -5.9640   25.1550 C   0  0  0  0  0  3  0  0  0  0  0  0
  -21.6720   -4.6000   25.1270 C   0  0  0  0  0  0  0  0  0  0  0  0
  -22.1280   -4.0130   23.9340 C   0  0  0  0  0  3  0  0  0  0  0  0
  -22.2340   -4.7890   22.7660 C   0  0  0  0  0  0  0  0  0  0  0  0
  -22.6540   -4.2130   21.6130 F   0  0  0  0  0  0  0  0  0  0  0  0
  -21.5650   -3.8500   26.2490 F   0  0  0  0  0  0  0  0  0  0  0  0
  -22.8060  -13.5110   21.0140 C   0  0  0  0  0  0  0  0  0  0  0  0
  -22.0730  -12.8370   21.8930 N   0  0  0  0  0  0  0  0  0  0  0  0
  -22.3510  -14.4840   20.4160 O   0  0  0  0  0  0  0  0  0  0  0  0
  -22.4530  -12.0500   22.3980 H   0  0  0  0  0  0  0  0  0  0  0  0
  -21.1160  -13.1120   22.0640 H   0  0  0  0  0  0  0  0  0  0  0  0
  -25.4050  -15.2410   20.2280 N   0  0  0  0  0  0  0  0  0  0  0  0
  -24.6140  -15.8730   20.2730 H   0  0  0  0  0  0  0  0  0  0  0  0
  -26.2570  -15.6900   19.9190 H   0  0  0  0  0  0  0  0  0  0  0  0
  -29.0290  -22.6850   20.3630 N   0  0  0  0  0  4  0  0  0  0  0  0
  -28.6650  -22.4410   19.4560 H   0  0  0  0  0  0  0  0  0  0  0  0
  -29.8650  -23.2150   20.1740 H   0  0  0  0  0  0  0  0  0  0  0  0
  -28.0500  -23.6980   20.9870 C   0  0  0  0  0  2  0  0  0  0  0  0
  -28.4950  -25.2280   21.3460 C   0  0  0  0  0  2  0  0  0  0  0  0
  -28.3870  -26.4670   20.5040 O   0  0  0  0  0  0  0  0  0  0  0  0
  -24.4180  -31.9590   23.2240 C   0  0  0  0  0  0  0  0  0  0  0  0
  -27.2410  -27.2900   20.5020 C   0  0  0  0  0  0  0  0  0  0  0  0
  -23.3090  -30.4530   21.6130 C   0  0  0  0  0  3  0  0  0  0  0  0
  -24.8480  -28.8630   20.3210 C   0  0  0  0  0  0  0  0  0  0  0  0
  -25.8470  -30.8190   21.5030 C   0  0  0  0  0  2  0  0  0  0  0  0
  -25.9830  -29.4070   20.9350 C   0  0  0  0  0  0  0  0  0  0  0  0
  -27.1870  -28.6320   21.0100 C   0  0  0  0  0  3  0  0  0  0  0  0
  -26.0820  -26.8030   19.8660 C   0  0  0  0  0  3  0  0  0  0  0  0
  -24.9010  -27.5700   19.7740 C   0  0  0  0  0  3  0  0  0  0  0  0
  -23.5910  -29.7150   20.2770 C   0  0  0  0  0  2  0  0  0  0  0  0
  -24.5410  -31.0990   22.1710 N   0  0  0  0  0  0  0  0  0  0  0  0
  -23.3090  -32.2340   23.7070 O   0  0  0  0  0  0  0  0  0  0  0  0
  -22.6350  -29.4690   22.5990 C   0  0  0  0  0  0  0  0  0  0  0  0
  -21.3140  -29.2730   22.4500 N   0  0  0  0  0  0  0  0  0  0  0  0
  -23.3020  -28.8830   23.4560 O   0  0  0  0  0  0  0  0  0  0  0  0
  -20.8350  -29.7950   21.7310 H   0  0  0  0  0  0  0  0  0  0  0  0
  -17.9320  -28.0890   22.9570 C   0  0  0  0  0  0  0  0  0  0  0  0
  -20.4880  -28.3540   23.2380 C   0  0  0  0  0  3  0  0  0  0  0  0
  -20.5940  -26.9100   22.6960 C   0  0  0  0  0  2  0  0  0  0  0  0
  -19.4990  -26.5630   21.6830 C   0  0  0  0  0  2  0  0  0  0  0  0
  -18.1120  -26.7240   22.3140 C   0  0  0  0  0  2  0  0  0  0  0  0
  -19.0480  -28.8600   23.3750 C   0  0  0  0  0  0  0  0  0  0  0  0
  -18.8260  -30.1370   23.9360 C   0  0  0  0  0  3  0  0  0  0  0  0
  -17.5210  -30.6440   24.0810 C   0  0  0  0  0  3  0  0  0  0  0  0
  -16.4190  -29.8690   23.6790 C   0  0  0  0  0  3  0  0  0  0  0  0
  -16.6250  -28.5940   23.1250 C   0  0  0  0  0  3  0  0  0  0  0  0
  -25.6630  -32.6520   23.8610 C   0  0  0  0  0  3  0  0  0  0  0  0
  -25.2960  -34.0460   24.1490 N   0  0  0  0  0  0  0  0  0  0  0  0
  -25.6140  -35.0930   23.3760 C   0  0  0  0  0  0  0  0  0  0  0  0
  -26.3130  -34.9900   22.3650 O   0  0  0  0  0  0  0  0  0  0  0  0
  -24.6730  -34.1970   24.9290 H   0  0  0  0  0  0  0  0  0  0  0  0
  -23.8310  -36.8150   22.9420 C   0  0  0  0  0  1  0  0  0  0  0  0
  -25.0690  -36.4740   23.7880 C   0  0  0  0  0  3  0  0  0  0  0  0
  -27.1560  -37.4520   24.6360 C   0  0  0  0  0  1  0  0  0  0  0  0
  -26.0660  -37.5610   23.6700 N   0  0  0  0  0  0  0  0  0  0  0  0
  -25.6260  -38.4690   23.7890 H   0  0  0  0  0  0  0  0  0  0  0  0
  -26.1750  -31.9310   25.1690 C   0  0  1  0  0  0  0  0  0  0  0  0
  -25.0590  -31.6480   26.2030 C   0  0  0  0  0  1  0  0  0  0  0  0
  -26.8460  -30.5810   24.8220 C   0  0  0  0  0  1  0  0  0  0  0  0
  -27.2580  -32.7980   25.8540 C   0  0  0  0  0  1  0  0  0  0  0  0
  2  7  1  0
  3  4  1  0
  3  2  1  0
  5  4  1  0
  5 23  1  0
  5  6  1  0
  7  1  1  0
  7  6  1  0
  8  1  2  0
  9 11  1  0
  9 10  2  0
 11 15  1  0
 12 13  1  0
 12 17  1  0
 14 17  1  0
 15 19  1  0
 17 48  1  0
 18 10  1  0
 18 13  1  6
 18 16  1  0
 18 14  1  0
 19  1  1  0
 19 16  1  0
 20 21  2  0
 21 22  1  0
 21 40  1  0
 22 25  1  0
 23 20  1  0
 23 24  1  0
 24 22  2  0
 25 26  1  0
 26 27  2  0
 28 31  1  0
 28 27  1  0
 29 28  2  0
 30 29  1  0
 30 25  2  0
 31 32  1  0
 32 33  1  0
 33 34  2  0
 35 34  1  0
 35 39  1  0
 36 35  2  0
 37 32  2  0
 37 36  1  0
 38 37  1  0
 40 41  1  0
 41 44  1  0
 41 43  1  0
 42 40  2  0
 45 46  1  0
 45 20  1  0
 47 45  1  0
 48 51  1  0
 49 48  1  0
 50 48  1  0
 51 52  1  0
 53 52  1  0
 54 65  2  0
 55 53  1  0
 55 60  1  0
 56 64  1  0
 56 66  1  0
 57 59  1  0
 58 64  1  0
 59 60  2  0
 59 58  1  0
 61 55  2  0
 62 61  1  0
 62 57  2  0
 63 57  1  0
 63 56  1  0
 64 54  1  0
 66 68  2  0
 67 66  1  0
 69 67  1  0
 70 79  2  0
 70 75  1  0
 71 67  1  0
 71 75  1  0
 72 71  1  0
 73 74  1  0
 73 72  1  0
 74 70  1  0
 75 76  2  0
 76 77  1  0
 78 77  2  0
 79 78  1  0
 80 54  1  0
 80 81  1  0
 80 90  1  0
 81 84  1  0
 82 86  1  0
 82 81  1  0
 83 82  2  0
 86 85  1  0
 88 86  1  0
 88 89  1  0
 88 87  1  0
 90 93  1  1
 90 91  1  0
 92 90  1  0
M  ISO  4   1 100  19 100  52 101  53 101
M  END
>  <TORSDO>  (2) 
F 18

>  <SCORE>  (2) 
-12.886

>  <name>  (2) 
1

>  <ligand_id>  (2) 
1

>  <original_smiles>  (2) 
[H]C1=C([H])C2(C([H])([H])N(C(=O)N3C([H])([H])C([H])([H])C([H])([H])C([H])(n4nc(-c5c([H])c([H])c(Oc6c([H])c([H])c(F)c([H])c6F)c([H])c5[H])c(C(=O)N([H])[H])c4N([H])[H])C3([H])[H])C([H])([H])C1([H])[H])C([H])([H])C([H])([H])C([H])([N+]([H])([H])C([H])([H])C([H])([H])Oc1c([H])c([H])c3c(c1[H])C([H])([H])N(C(=O)C([H])(N([H])C(=O)C([H])(N([H])C([H])([H])[H])C([H])([H])[H])C(C([H])([H])[H])(C([H])([H])[H])C([H])([H])[H])C([H])(C(=O)N([H])C1([H])c4c([H])c([H])c([H])c([H])c4C([H])([H])C([H])([H])C1([H])[H])C3([H])[H])C2([H])[H]

>  <smiles>  (2) 
[H]C1=C([H])C2(C([H])([H])N(C(=O)N3C([H])([H])C([H])([H])C([H])([H])C([H])(n4nc(-c5c([H])c([H])c(Oc6c([H])c([H])c(F)c([H])c6F)c([H])c5[H])c(C(=O)N([H])[H])c4N([H])[H])C3([H])[H])C([H])([H])C1([H])[H])C([H])([H])C([H])([H])C([H])([N+]([H])([H])C([H])([H])C([H])([H])Oc1c([H])c([H])c3c(c1[H])C([H])([H])N(C(=O)C([H])(N([H])C(=O)C([H])(N([H])C([H])([H])[H])C([H])([H])[H])C(C([H])([H])[H])(C([H])([H])[H])C([H])([H])[H])C([H])(C(=O)N([H])C1([H])c4c([H])c([H])c([H])c([H])c4C([H])([H])C([H])([H])C1([H])[H])C3([H])[H])C2([H])[H]

$$$$
2:0:0
     RDKit          3D

 99110  0  0  1  0  0  0  0  0999 V2000
  -29.4470  -23.0300   22.6620 C   0  0  0  0  0  3  0  0  0  0  0  0
  -29.1580  -22.4890   19.9620 C   0  0  0  0  0  3  0  0  0  0  0  0
  -28.8490  -23.9940   21.8370 C   0  0  0  0  0  0  0  0  0  0  0  0
  -28.7720  -23.8530   20.4310 C   0  0  0  0  0  0  0  0  0  0  0  0
  -29.6440  -21.3820   20.8170 C   0  0  0  0  0  0  0  0  0  0  0  0
  -29.8330  -21.7590   22.1850 C   0  0  0  0  0  0  0  0  0  0  0  0
  -28.0470  -25.0380   22.4980 C   0  0  0  0  0  0  0  0  0  0  0  0
  -25.9140  -23.5980   19.8910 C   0  0  0  0  0  0  0  0  0  0  0  0
  -26.6040  -25.0770   21.9910 C   0  0  0  0  0  2  0  0  0  0  0  0
  -26.4020  -23.4010   18.4570 C   0  0  0  0  0  2  0  0  0  0  0  0
  -27.5280  -24.4520   18.2610 C   0  0  0  0  0  2  0  0  0  0  0  0
  -26.5180  -24.8690   20.4610 C   0  0  0  0  0  3  0  0  0  0  0  0
  -27.8630  -25.0060   19.6720 C   0  0  1  0  0  0  0  0  0  0  0  0
  -30.3680  -20.8010   23.2490 C   0  0  0  0  0  1  0  0  0  0  0  0
  -28.4200  -25.7400   23.4430 O   0  0  0  0  0  0  0  0  0  0  0  0
  -25.1520  -22.8410   20.4910 O   0  0  0  0  0  0  0  0  0  0  0  0
  -31.0250  -15.3480   19.8770 C   0  0  0  0  0  0  0  0  0  0  0  0
  -30.7420  -13.0130   18.9760 C   0  0  0  0  0  2  0  0  0  0  0  0
  -29.7510  -12.9780   17.7950 C   0  0  0  0  0  2  0  0  0  0  0  0
  -28.3170  -12.7790   18.3180 C   0  0  0  0  0  2  0  0  0  0  0  0
  -27.9790  -13.7270   19.5030 C   0  0  0  0  0  3  0  0  0  0  0  0
  -29.1030  -13.7480   20.5620 C   0  0  0  0  0  2  0  0  0  0  0  0
  -30.3320  -14.1400   19.8610 N   0  0  0  0  0  0  0  0  0  0  0  0
  -32.2060  -15.2980   19.5210 O   0  0  0  0  0  0  0  0  0  0  0  0
  -28.9370  -18.6860   20.8160 C   0  0  0  0  0  2  0  0  0  0  0  0
  -30.5220  -19.2750   19.1220 C   0  0  0  0  0  2  0  0  0  0  0  0
  -29.4420  -17.1600   20.8940 C   0  0  0  0  0  2  0  0  0  0  0  0
  -31.1310  -17.7880   19.2010 C   0  0  0  0  0  2  0  0  0  0  0  0
  -29.9840  -19.8080   20.4730 C   0  0  0  0  0  3  0  0  0  0  0  0
  -30.4030  -16.6330   19.8750 N   0  0  0  0  0  0  0  0  0  0  0  0
  -25.6650  -14.3080   20.4300 C   0  0  0  0  0  0  0  0  0  0  0  0
  -24.6090  -13.5310   20.8240 C   0  0  0  0  0  0  0  0  0  0  0  0
  -25.0390  -12.1760   20.6830 C   0  0  0  0  0  0  0  0  0  0  0  0
  -26.6710  -13.4270   20.0730 N   0  0  0  0  0  0  0  0  0  0  0  0
  -26.3080  -12.1350   20.2890 N   0  0  0  0  0  0  0  0  0  0  0  0
  -24.2960  -10.9180   20.8450 C   0  0  0  0  0  0  0  0  0  0  0  0
  -24.6950   -9.9390   21.7820 C   0  0  0  0  0  3  0  0  0  0  0  0
  -23.9520   -8.7490   21.9340 C   0  0  0  0  0  3  0  0  0  0  0  0
  -22.7960   -8.5270   21.1470 C   0  0  0  0  0  0  0  0  0  0  0  0
  -22.4160   -9.4950   20.2000 C   0  0  0  0  0  3  0  0  0  0  0  0
  -23.1600  -10.6770   20.0470 C   0  0  0  0  0  3  0  0  0  0  0  0
  -22.0290   -7.3890   21.2090 O   0  0  0  0  0  0  0  0  0  0  0  0
  -21.7900   -6.7440   22.3950 C   0  0  0  0  0  0  0  0  0  0  0  0
  -21.1510   -7.3890   23.4780 C   0  0  0  0  0  3  0  0  0  0  0  0
  -20.8610   -6.6690   24.6540 C   0  0  0  0  0  3  0  0  0  0  0  0
  -21.2030   -5.3070   24.7490 C   0  0  0  0  0  0  0  0  0  0  0  0
  -21.8340   -4.6610   23.6710 C   0  0  0  0  0  3  0  0  0  0  0  0
  -22.1250   -5.3780   22.4960 C   0  0  0  0  0  0  0  0  0  0  0  0
  -22.7140   -4.7470   21.4520 F   0  0  0  0  0  0  0  0  0  0  0  0
  -20.9180   -4.6110   25.8750 F   0  0  0  0  0  0  0  0  0  0  0  0
  -23.2430  -14.0190   21.2140 C   0  0  0  0  0  0  0  0  0  0  0  0
  -22.5710  -13.3080   22.1110 N   0  0  0  0  0  0  0  0  0  0  0  0
  -22.7860  -15.0640   20.7580 O   0  0  0  0  0  0  0  0  0  0  0  0
  -22.9570  -12.4590   22.4990 H   0  0  0  0  0  0  0  0  0  0  0  0
  -21.6600  -13.6190   22.4130 H   0  0  0  0  0  0  0  0  0  0  0  0
  -25.8400  -15.6840   20.3170 N   0  0  0  0  0  0  0  0  0  0  0  0
  -25.0850  -16.3360   20.5010 H   0  0  0  0  0  0  0  0  0  0  0  0
  -26.6610  -16.1310   19.9280 H   0  0  0  0  0  0  0  0  0  0  0  0
  -28.2310  -26.5410   19.6490 O   0  0  0  0  0  0  0  0  0  0  0  0
  -24.6350  -31.8090   23.2900 C   0  0  0  0  0  0  0  0  0  0  0  0
  -27.2300  -27.5910   19.6300 C   0  0  0  0  0  0  0  0  0  0  0  0
  -23.4250  -30.5890   21.5300 C   0  0  0  0  0  3  0  0  0  0  0  0
  -24.8780  -29.2770   19.8740 C   0  0  0  0  0  0  0  0  0  0  0  0
  -25.9710  -30.9360   21.3520 C   0  0  0  0  0  2  0  0  0  0  0  0
  -26.0600  -29.6470   20.5310 C   0  0  0  0  0  0  0  0  0  0  0  0
  -27.2310  -28.8090   20.4210 C   0  0  0  0  0  3  0  0  0  0  0  0
  -26.0690  -27.4400   18.8360 C   0  0  0  0  0  3  0  0  0  0  0  0
  -24.8970  -28.1840   19.0120 C   0  0  0  0  0  3  0  0  0  0  0  0
  -23.6230  -30.1060   20.0720 C   0  0  0  0  0  2  0  0  0  0  0  0
  -24.6960  -31.1280   22.1100 N   0  0  0  0  0  0  0  0  0  0  0  0
  -23.5560  -31.9920   23.8740 O   0  0  0  0  0  0  0  0  0  0  0  0
  -22.8080  -29.4420   22.3710 C   0  0  0  0  0  0  0  0  0  0  0  0
  -21.4890  -29.2140   22.2250 N   0  0  0  0  0  0  0  0  0  0  0  0
  -23.5180  -28.7630   23.1170 O   0  0  0  0  0  0  0  0  0  0  0  0
  -20.9650  -29.8160   21.6040 H   0  0  0  0  0  0  0  0  0  0  0  0
  -18.1760  -27.7910   22.6170 C   0  0  0  0  0  0  0  0  0  0  0  0
  -20.7210  -28.1560   22.8880 C   0  0  0  0  0  3  0  0  0  0  0  0
  -20.8940  -26.7970   22.1640 C   0  0  0  0  0  2  0  0  0  0  0  0
  -19.7870  -26.5000   21.1460 C   0  0  0  0  0  2  0  0  0  0  0  0
  -18.4110  -26.5200   21.8220 C   0  0  0  0  0  2  0  0  0  0  0  0
  -19.2610  -28.5660   23.1090 C   0  0  0  0  0  0  0  0  0  0  0  0
  -18.9840  -29.7520   23.8180 C   0  0  0  0  0  3  0  0  0  0  0  0
  -17.6560  -30.1650   24.0440 C   0  0  0  0  0  3  0  0  0  0  0  0
  -16.5860  -29.3890   23.5660 C   0  0  0  0  0  3  0  0  0  0  0  0
  -16.8480  -28.2010   22.8570 C   0  0  0  0  0  3  0  0  0  0  0  0
  -25.9150  -32.4030   23.9510 C   0  0  0  0  0  3  0  0  0  0  0  0
  -25.6350  -33.8110   24.2710 N   0  0  0  0  0  0  0  0  0  0  0  0
  -25.9510  -34.8500   23.4870 C   0  0  0  0  0  0  0  0  0  0  0  0
  -26.5840  -34.7250   22.4340 O   0  0  0  0  0  0  0  0  0  0  0  0
  -25.0750  -33.9840   25.0940 H   0  0  0  0  0  0  0  0  0  0  0  0
  -24.2200  -36.6500   23.1990 C   0  0  0  0  0  1  0  0  0  0  0  0
  -25.5010  -36.2500   23.9480 C   0  0  0  0  0  3  0  0  0  0  0  0
  -27.6720  -37.1500   24.6570 C   0  0  0  0  0  1  0  0  0  0  0  0
  -26.5320  -37.2940   23.7560 N   0  0  0  0  0  0  0  0  0  0  0  0
  -26.1370  -38.2230   23.8860 H   0  0  0  0  0  0  0  0  0  0  0  0
  -26.3600  -31.6180   25.2470 C   0  0  1  0  0  0  0  0  0  0  0  0
  -25.2250  -31.4160   26.2780 C   0  0  0  0  0  1  0  0  0  0  0  0
  -26.9200  -30.2210   24.8870 C   0  0  0  0  0  1  0  0  0  0  0  0
  -27.5070  -32.3850   25.9430 C   0  0  0  0  0  1  0  0  0  0  0  0
  2  4  2  0
  2  5  1  0
  3  7  1  0
  3  1  2  0
  4  3  1  0
  5  6  2  0
  6  1  1  0
  6 14  1  0
  7 15  2  0
  8 12  1  0
  8 16  2  0
  9  7  1  0
 10  8  1  0
 11 10  1  0
 11 13  1  0
 12  9  1  0
 13 59  1  6
 13  4  1  0
 13 12  1  0
 18 23  1  0
 19 20  1  0
 19 18  1  0
 21 20  1  0
 21 34  1  0
 21 22  1  0
 23 17  1  0
 23 22  1  0
 24 17  2  0
 25 27  1  0
 26 28  1  0
 26 29  1  0
 28 30  1  0
 29 25  1  0
 29  5  1  0
 30 17  1  0
 30 27  1  0
 31 32  2  0
 32 51  1  0
 33 32  1  0
 33 36  1  0
 34 35  1  0
 34 31  1  0
 35 33  2  0
 36 37  1  0
 37 38  2  0
 39 42  1  0
 39 38  1  0
 40 39  2  0
 41 40  1  0
 41 36  2  0
 42 43  1  0
 43 48  2  0
 43 44  1  0
 44 45  2  0
 45 46  1  0
 46 50  1  0
 47 46  2  0
 48 47  1  0
 49 48  1  0
 51 52  1  0
 52 55  1  0
 52 54  1  0
 53 51  2  0
 56 31  1  0
 56 57  1  0
 58 56  1  0
 60 71  2  0
 61 59  1  0
 61 66  1  0
 62 70  1  0
 62 72  1  0
 63 69  1  0
 63 65  1  0
 64 70  1  0
 65 64  1  0
 66 65  2  0
 67 68  1  0
 67 61  2  0
 68 63  2  0
 69 62  1  0
 70 60  1  0
 72 74  2  0
 73 72  1  0
 75 73  1  0
 76 85  2  0
 76 81  1  0
 77 73  1  0
 77 81  1  0
 78 77  1  0
 79 80  1  0
 79 78  1  0
 80 76  1  0
 81 82  2  0
 82 83  1  0
 84 83  2  0
 85 84  1  0
 86 60  1  0
 86 87  1  0
 86 96  1  0
 87 90  1  0
 88 92  1  0
 88 87  1  0
 89 88  2  0
 92 91  1  0
 94 95  1  0
 94 92  1  0
 94 93  1  0
 96 99  1  1
 96 97  1  0
 98 96  1  0
M  ISO  4  13 101  17 100  30 100  59 101
M  END
>  <TORSDO>  (3) 
F 16

>  <SCORE>  (3) 
-14.879

>  <name>  (3) 
2

>  <ligand_id>  (3) 
2

>  <original_smiles>  (3) 
[H]c1c([H])c([H])c2c(c1[H])C([H])([H])C([H])([H])C([H])([H])C2([H])N([H])C(=O)C1([H])N(C(=O)C([H])(N([H])C(=O)C([H])(N([H])C([H])([H])[H])C([H])([H])[H])C(C([H])([H])[H])(C([H])([H])[H])C([H])([H])[H])C([H])([H])c2c([H])c(OC34c5c([H])c(C6([H])C([H])([H])C([H])([H])N(C(=O)N7C([H])([H])C([H])([H])C([H])([H])C([H])(n8nc(-c9c([H])c([H])c(Oc%10c([H])c([H])c(F)c([H])c%10F)c([H])c9[H])c(C(=O)N([H])[H])c8N([H])[H])C7([H])[H])C([H])([H])C6([H])[H])c(C([H])([H])[H])c([H])c5C(=O)C([H])([H])C3([H])C(=O)C([H])([H])C4([H])[H])c([H])c([H])c2C1([H])[H]

>  <smiles>  (3) 
[H]c1c([H])c([H])c2c(c1[H])C([H])([H])C([H])([H])C([H])([H])C2([H])N([H])C(=O)C1([H])N(C(=O)C([H])(N([H])C(=O)C([H])(N([H])C([H])([H])[H])C([H])([H])[H])C(C([H])([H])[H])(C([H])([H])[H])C([H])([H])[H])C([H])([H])c2c([H])c(OC34c5c([H])c(C6([H])C([H])([H])C([H])([H])N(C(=O)N7C([H])([H])C([H])([H])C([H])([H])C([H])(n8nc(-c9c([H])c([H])c(Oc%10c([H])c([H])c(F)c([H])c%10F)c([H])c9[H])c(C(=O)N([H])[H])c8N([H])[H])C7([H])[H])C([H])([H])C6([H])[H])c(C([H])([H])[H])c([H])c5C(=O)C([H])([H])C3([H])C(=O)C([H])([H])C4([H])[H])c([H])c([H])c2C1([H])[H]

$$$$
3:0:0
     RDKit          3D

 98108  0  0  1  0  0  0  0  0999 V2000
  -29.7910  -22.0720   22.6040 C   0  0  0  0  0  3  0  0  0  0  0  0
  -28.8370  -22.7370   21.8190 C   0  0  0  0  0  3  0  0  0  0  0  0
  -31.4450  -23.7380   21.9630 C   0  0  0  0  0  3  0  0  0  0  0  0
  -31.1260  -22.5200   22.6170 C   0  0  0  0  0  0  0  0  0  0  0  0
  -29.1960  -23.8450   21.0140 C   0  0  0  0  0  0  0  0  0  0  0  0
  -30.4940  -24.3890   21.1460 C   0  0  0  0  0  0  0  0  0  0  0  0
  -30.9200  -25.5840   20.3080 C   0  0  0  0  0  2  0  0  0  0  0  0
  -29.7310  -26.4550   19.8870 C   0  0  0  0  0  2  0  0  0  0  0  0
  -29.7520  -23.3480   17.9270 C   0  0  0  0  0  2  0  0  0  0  0  0
  -29.6870  -24.6740   17.1230 C   0  0  0  0  0  2  0  0  0  0  0  0
  -28.4880  -23.1160   18.7930 C   0  0  0  0  0  2  0  0  0  0  0  0
  -28.5700  -25.6890   19.2320 C   0  0  0  0  0  3  0  0  0  0  0  0
  -28.6280  -25.6380   17.6840 C   0  0  0  0  0  3  0  0  0  0  0  0
  -28.2740  -24.2540   19.8530 C   0  0  2  0  0  0  0  0  0  0  0  0
  -26.7920  -24.2370   20.3050 C   0  0  0  0  0  1  0  0  0  0  0  0
  -32.1630  -21.6590   23.2550 C   0  0  0  0  0  0  0  0  0  0  0  0
  -31.9900  -21.0580   24.3200 O   0  0  0  0  0  0  0  0  0  0  0  0
  -33.4600  -21.4620   22.4620 C   0  0  0  0  0  2  0  0  0  0  0  0
  -33.9050  -20.0030   22.2070 C   0  0  0  0  0  2  0  0  0  0  0  0
  -35.1840  -20.0180   21.3450 C   0  0  0  0  0  2  0  0  0  0  0  0
  -35.8330  -18.6530   21.0610 C   0  0  0  0  0  2  0  0  0  0  0  0
  -35.9520  -18.2950   19.5680 C   0  0  0  0  0  0  0  0  0  0  0  0
  -36.0030  -16.3190   18.1010 C   0  0  0  0  0  2  0  0  0  0  0  0
  -35.1650  -16.4280   16.8230 C   0  0  0  0  0  2  0  0  0  0  0  0
  -33.7250  -15.9700   17.1050 C   0  0  0  0  0  2  0  0  0  0  0  0
  -33.1100  -16.7030   18.3250 C   0  0  0  0  0  3  0  0  0  0  0  0
  -34.0540  -16.6670   19.5520 C   0  0  0  0  0  2  0  0  0  0  0  0
  -35.3830  -17.1430   19.1440 N   0  0  0  0  0  0  0  0  0  0  0  0
  -36.7590  -18.9340   18.8850 O   0  0  0  0  0  0  0  0  0  0  0  0
  -30.5780  -16.8350   18.7780 C   0  0  0  0  0  0  0  0  0  0  0  0
  -29.6390  -15.8680   19.0080 C   0  0  0  0  0  0  0  0  0  0  0  0
  -30.3400  -14.6220   18.9920 C   0  0  0  0  0  0  0  0  0  0  0  0
  -31.7870  -16.1690   18.6430 N   0  0  0  0  0  0  0  0  0  0  0  0
  -31.6410  -14.8310   18.8220 N   0  0  0  0  0  0  0  0  0  0  0  0
  -29.8390  -13.2450   19.0690 C   0  0  0  0  0  0  0  0  0  0  0  0
  -29.9070  -12.5030   20.2690 C   0  0  0  0  0  3  0  0  0  0  0  0
  -29.4010  -11.1860   20.3260 C   0  0  0  0  0  3  0  0  0  0  0  0
  -28.8140  -10.6000   19.1790 C   0  0  0  0  0  0  0  0  0  0  0  0
  -28.7700  -11.3350   17.9820 C   0  0  0  0  0  3  0  0  0  0  0  0
  -29.2780  -12.6430   17.9250 C   0  0  0  0  0  3  0  0  0  0  0  0
  -28.3200   -9.3190   19.1350 O   0  0  0  0  0  0  0  0  0  0  0  0
  -27.3710   -8.8820   20.0240 C   0  0  0  0  0  0  0  0  0  0  0  0
  -26.0610   -9.4090   20.0350 C   0  0  0  0  0  3  0  0  0  0  0  0
  -25.0980   -8.8800   20.9180 C   0  0  0  0  0  3  0  0  0  0  0  0
  -25.4380   -7.8240   21.7820 C   0  0  0  0  0  0  0  0  0  0  0  0
  -26.7400   -7.2920   21.7680 C   0  0  0  0  0  3  0  0  0  0  0  0
  -27.7030   -7.8210   20.8900 C   0  0  0  0  0  0  0  0  0  0  0  0
  -28.9500   -7.2920   20.8660 F   0  0  0  0  0  0  0  0  0  0  0  0
  -24.5110   -7.3100   22.6240 F   0  0  0  0  0  0  0  0  0  0  0  0
  -28.1560  -16.0740   19.1400 C   0  0  0  0  0  0  0  0  0  0  0  0
  -27.4760  -15.2100   19.8820 N   0  0  0  0  0  0  0  0  0  0  0  0
  -27.5980  -17.0380   18.6160 O   0  0  0  0  0  0  0  0  0  0  0  0
  -27.9360  -14.4330   20.3360 H   0  0  0  0  0  0  0  0  0  0  0  0
  -26.4790  -15.3270   20.0000 H   0  0  0  0  0  0  0  0  0  0  0  0
  -30.5010  -18.2190   18.6560 N   0  0  0  0  0  0  0  0  0  0  0  0
  -29.6140  -18.7060   18.7120 H   0  0  0  0  0  0  0  0  0  0  0  0
  -31.2820  -18.8330   18.4580 H   0  0  0  0  0  0  0  0  0  0  0  0
  -28.4460  -26.8720   16.9050 O   0  0  0  0  0  0  0  0  0  0  0  0
  -25.5370  -30.0080   22.5330 C   0  0  0  0  0  0  0  0  0  0  0  0
  -27.3420  -27.5830   17.3450 C   0  0  0  0  0  0  0  0  0  0  0  0
  -23.9940  -29.0070   20.8890 C   0  0  0  0  0  3  0  0  0  0  0  0
  -24.9880  -28.4840   18.6020 C   0  0  0  0  0  0  0  0  0  0  0  0
  -26.2470  -29.9720   20.1510 C   0  0  0  0  0  2  0  0  0  0  0  0
  -26.2340  -28.9750   19.0160 C   0  0  0  0  0  0  0  0  0  0  0  0
  -27.4260  -28.5160   18.4020 C   0  0  0  0  0  3  0  0  0  0  0  0
  -26.0630  -27.2440   16.8410 C   0  0  0  0  0  3  0  0  0  0  0  0
  -24.8960  -27.6250   17.5030 C   0  0  0  0  0  3  0  0  0  0  0  0
  -23.7650  -28.9450   19.3580 C   0  0  0  0  0  2  0  0  0  0  0  0
  -25.2960  -29.6600   21.2400 N   0  0  0  0  0  0  0  0  0  0  0  0
  -24.6860  -29.8250   23.4180 O   0  0  0  0  0  0  0  0  0  0  0  0
  -23.8430  -27.5870   21.4840 C   0  0  0  0  0  0  0  0  0  0  0  0
  -22.6610  -26.9790   21.2900 N   0  0  0  0  0  0  0  0  0  0  0  0
  -24.7740  -27.0490   22.0910 O   0  0  0  0  0  0  0  0  0  0  0  0
  -21.9430  -27.4940   20.8030 H   0  0  0  0  0  0  0  0  0  0  0  0
  -20.2050  -24.3650   20.9170 C   0  0  0  0  0  0  0  0  0  0  0  0
  -22.2920  -25.6430   21.7530 C   0  0  0  0  0  3  0  0  0  0  0  0
  -23.1180  -24.5470   21.0470 C   0  0  0  0  0  2  0  0  0  0  0  0
  -22.4450  -24.0080   19.7810 C   0  0  0  0  0  2  0  0  0  0  0  0
  -21.0680  -23.4240   20.0980 C   0  0  0  0  0  2  0  0  0  0  0  0
  -20.7780  -25.4230   21.6690 C   0  0  0  0  0  0  0  0  0  0  0  0
  -19.9260  -26.3070   22.3660 C   0  0  0  0  0  3  0  0  0  0  0  0
  -18.5280  -26.1290   22.3380 C   0  0  0  0  0  3  0  0  0  0  0  0
  -17.9690  -25.0660   21.6160 C   0  0  0  0  0  3  0  0  0  0  0  0
  -18.8030  -24.1860   20.9060 C   0  0  0  0  0  3  0  0  0  0  0  0
  -26.8780  -30.6820   22.9580 C   0  0  0  0  0  3  0  0  0  0  0  0
  -26.5470  -31.8020   23.8530 N   0  0  0  0  0  0  0  0  0  0  0  0
  -26.8890  -33.0770   23.6280 C   0  0  0  0  0  0  0  0  0  0  0  0
  -27.5810  -33.4270   22.6710 O   0  0  0  0  0  0  0  0  0  0  0  0
  -25.9370  -31.6070   24.6320 H   0  0  0  0  0  0  0  0  0  0  0  0
  -25.2570  -34.9620   23.9690 C   0  0  0  0  0  1  0  0  0  0  0  0
  -26.3730  -34.1320   24.6270 C   0  0  0  0  0  3  0  0  0  0  0  0
  -28.4100  -34.3490   25.9790 C   0  0  0  0  0  1  0  0  0  0  0  0
  -27.4340  -35.0290   25.1310 N   0  0  0  0  0  0  0  0  0  0  0  0
  -27.0370  -35.7990   25.6620 H   0  0  0  0  0  0  0  0  0  0  0  0
  -27.8830  -29.6790   23.6480 C   0  0  1  0  0  0  0  0  0  0  0  0
  -27.2580  -28.8670   24.8050 C   0  0  0  0  0  1  0  0  0  0  0  0
  -28.4420  -28.6650   22.6230 C   0  0  0  0  0  1  0  0  0  0  0  0
  -29.0950  -30.4570   24.2100 C   0  0  0  0  0  1  0  0  0  0  0  0
  1  4  1  0
  2  1  2  0
  3  4  2  0
  4 16  1  0
  5  6  2  0
  5  2  1  0
  6  3  1  0
  7  6  1  0
  8  7  1  0
  9 11  1  0
 10 13  1  0
 10  9  1  0
 11 14  1  0
 12 14  1  0
 12  8  1  0
 13 58  1  0
 13 12  1  0
 14 15  1  1
 14  5  1  0
 16 17  2  0
 18 16  1  0
 19 18  1  0
 20 19  1  0
 21 20  1  0
 22 21  1  0
 23 28  1  0
 24 25  1  0
 24 23  1  0
 26 25  1  0
 26 33  1  0
 26 27  1  0
 28 27  1  0
 28 22  1  0
 29 22  2  0
 30 31  2  0
 31 50  1  0
 32 31  1  0
 32 35  1  0
 33 30  1  0
 33 34  1  0
 34 32  2  0
 35 36  1  0
 36 37  2  0
 38 37  1  0
 39 38  2  0
 40 39  1  0
 40 35  2  0
 41 38  1  0
 41 42  1  0
 42 43  2  0
 42 47  1  0
 43 44  1  0
 44 45  2  0
 45 49  1  0
 46 45  1  0
 47 46  2  0
 48 47  1  0
 50 51  1  0
 51 54  1  0
 51 53  1  0
 52 50  2  0
 55 56  1  0
 55 30  1  0
 57 55  1  0
 58 60  1  0
 59 70  2  0
 60 65  1  0
 61 69  1  0
 61 71  1  0
 62 64  1  0
 62 68  1  0
 63 69  1  0
 64 63  1  0
 65 64  2  0
 66 60  2  0
 66 67  1  0
 67 62  2  0
 68 61  1  0
 69 59  1  0
 71 73  2  0
 72 71  1  0
 74 72  1  0
 75 80  1  0
 76 72  1  0
 77 76  1  0
 78 79  1  0
 78 77  1  0
 79 75  1  0
 80 76  1  0
 80 81  2  0
 82 81  1  0
 83 82  2  0
 84 75  2  0
 84 83  1  0
 85 59  1  0
 85 95  1  0
 85 86  1  0
 86 89  1  0
 87 86  1  0
 87 91  1  0
 88 87  2  0
 91 90  1  0
 91 93  1  0
 93 94  1  0
 93 92  1  0
 95 98  1  1
 95 96  1  0
 97 95  1  0
M  ISO  4  13 101  21 100  22 100  58 101
M  END
>  <TORSDO>  (4) 
F 21

>  <SCORE>  (4) 
-2.548

>  <name>  (4) 
3

>  <ligand_id>  (4) 
3

>  <original_smiles>  (4) 
[H]c1c([H])c([H])c2c(c1[H])C([H])([H])C([H])([H])C([H])([H])C2([H])N([H])C(=O)C1([H])N(C(=O)C([H])(N([H])C(=O)C([H])(N([H])C([H])([H])[H])C([H])([H])[H])C(C([H])([H])[H])(C([H])([H])[H])C([H])([H])[H])C([H])([H])c2c([H])c(OC3([H])C([H])([H])C([H])([H])C([H])([H])C4(C([H])([H])[H])c5c([H])c([H])c(C(=O)C([H])([H])C([H])([H])C([H])([H])C([H])([H])C(=O)N6C([H])([H])C([H])([H])C([H])([H])C([H])(n7nc(-c8c([H])c([H])c(Oc9c([H])c([H])c(F)c([H])c9F)c([H])c8[H])c(C(=O)N([H])[H])c7N([H])[H])C6([H])[H])c([H])c5C([H])([H])C([H])([H])C34[H])c([H])c([H])c2C1([H])[H]

>  <smiles>  (4) 
[H]c1c([H])c([H])c2c(c1[H])C([H])([H])C([H])([H])C([H])([H])C2([H])N([H])C(=O)C1([H])N(C(=O)C([H])(N([H])C(=O)C([H])(N([H])C([H])([H])[H])C([H])([H])[H])C(C([H])([H])[H])(C([H])([H])[H])C([H])([H])[H])C([H])([H])c2c([H])c(OC3([H])C([H])([H])C([H])([H])C([H])([H])C4(C([H])([H])[H])c5c([H])c([H])c(C(=O)C([H])([H])C([H])([H])C([H])([H])C([H])([H])C(=O)N6C([H])([H])C([H])([H])C([H])([H])C([H])(n7nc(-c8c([H])c([H])c(Oc9c([H])c([H])c(F)c([H])c9F)c([H])c8[H])c(C(=O)N([H])[H])c7N([H])[H])C6([H])[H])c([H])c5C([H])([H])C([H])([H])C34[H])c([H])c([H])c2C1([H])[H]

$$$$
4:0:0
     RDKit          3D

101111  0  0  1  0  0  0  0  0999 V2000
  -30.7060  -24.8240   20.6130 C   0  0  0  0  0  2  0  0  0  0  0  0
  -30.5500  -26.3240   20.9410 C   0  0  0  0  0  2  0  0  0  0  0  0
  -28.6700  -24.2720   21.9770 C   0  0  0  0  0  2  0  0  0  0  0  0
  -30.1610  -23.9590   21.7670 C   0  0  0  0  0  3  0  0  0  0  0  0
  -28.4840  -25.7610   22.3540 C   0  0  0  0  0  3  0  0  0  0  0  0
  -29.1060  -26.7310   21.3010 C   0  0  0  0  0  3  0  0  0  0  0  0
  -30.1650  -21.7800   20.4220 C   0  0  0  0  0  3  0  0  0  0  0  0
  -30.4810  -20.4120   20.3030 C   0  0  0  0  0  3  0  0  0  0  0  0
  -31.0070  -21.7500   22.7000 C   0  0  0  0  0  3  0  0  0  0  0  0
  -30.4460  -22.4660   21.6190 C   0  0  0  0  0  0  0  0  0  0  0  0
  -31.0750  -19.6990   21.3700 C   0  0  0  0  0  0  0  0  0  0  0  0
  -31.3230  -20.3790   22.5860 C   0  0  0  0  0  0  0  0  0  0  0  0
  -31.9420  -19.6660   23.7740 C   0  0  0  0  0  1  0  0  0  0  0  0
  -31.4930  -18.2410   21.1470 C   0  0  0  0  0  2  0  0  0  0  0  0
  -30.3160  -17.2220   21.1890 C   0  0  0  0  0  2  0  0  0  0  0  0
  -28.7390  -17.6360   18.5940 C   0  0  0  0  0  2  0  0  0  0  0  0
  -30.1440  -17.6920   17.9950 C   0  0  0  0  0  2  0  0  0  0  0  0
  -28.7400  -16.3470   19.4160 C   0  0  0  0  0  2  0  0  0  0  0  0
  -30.9170  -16.5680   18.7020 C   0  0  0  0  0  2  0  0  0  0  0  0
  -30.1480  -16.1850   20.0100 C   0  0  1  0  0  0  0  0  0  0  0  0
  -30.6340  -14.7370   20.4090 C   0  0  0  0  0  0  0  0  0  0  0  0
  -30.2370  -12.5820   19.3480 C   0  0  0  0  0  2  0  0  0  0  0  0
  -29.2940  -12.7630   18.1470 C   0  0  0  0  0  2  0  0  0  0  0  0
  -27.8280  -12.5820   18.5900 C   0  0  0  0  0  2  0  0  0  0  0  0
  -27.4630  -13.3840   19.8660 C   0  0  0  0  0  3  0  0  0  0  0  0
  -28.5640  -13.3370   20.9510 C   0  0  0  0  0  2  0  0  0  0  0  0
  -29.8720  -13.6050   20.3340 N   0  0  0  0  0  0  0  0  0  0  0  0
  -31.8580  -14.6510   20.4270 O   0  0  0  0  0  0  0  0  0  0  0  0
  -25.0760  -13.9360   20.6020 C   0  0  0  0  0  0  0  0  0  0  0  0
  -24.0290  -13.1360   20.9550 C   0  0  0  0  0  0  0  0  0  0  0  0
  -24.5310  -11.7990   20.9290 C   0  0  0  0  0  0  0  0  0  0  0  0
  -26.1420  -13.0760   20.3750 N   0  0  0  0  0  0  0  0  0  0  0  0
  -25.8230  -11.7910   20.6400 N   0  0  0  0  0  0  0  0  0  0  0  0
  -23.8470  -10.5170   21.1020 C   0  0  0  0  0  0  0  0  0  0  0  0
  -24.3100   -9.5590   22.0300 C   0  0  0  0  0  3  0  0  0  0  0  0
  -23.6240   -8.3370   22.1950 C   0  0  0  0  0  3  0  0  0  0  0  0
  -22.4650   -8.0660   21.4280 C   0  0  0  0  0  0  0  0  0  0  0  0
  -22.0270   -9.0140   20.4870 C   0  0  0  0  0  3  0  0  0  0  0  0
  -22.7120  -10.2280   20.3200 C   0  0  0  0  0  3  0  0  0  0  0  0
  -21.7510   -6.8960   21.5030 O   0  0  0  0  0  0  0  0  0  0  0  0
  -21.7270   -6.1440   22.6500 C   0  0  0  0  0  0  0  0  0  0  0  0
  -21.2850   -6.6770   23.8820 C   0  0  0  0  0  3  0  0  0  0  0  0
  -21.2090   -5.8480   25.0190 C   0  0  0  0  0  3  0  0  0  0  0  0
  -21.5630   -4.4890   24.9260 C   0  0  0  0  0  0  0  0  0  0  0  0
  -21.9990   -3.9570   23.6990 C   0  0  0  0  0  3  0  0  0  0  0  0
  -22.0790   -4.7830   22.5650 C   0  0  0  0  0  0  0  0  0  0  0  0
  -22.4810   -4.2590   21.3810 F   0  0  0  0  0  0  0  0  0  0  0  0
  -21.4820   -3.6910   26.0160 F   0  0  0  0  0  0  0  0  0  0  0  0
  -22.6160  -13.5730   21.2090 C   0  0  0  0  0  0  0  0  0  0  0  0
  -21.8970  -12.8510   22.0600 N   0  0  0  0  0  0  0  0  0  0  0  0
  -22.1580  -14.5900   20.6890 O   0  0  0  0  0  0  0  0  0  0  0  0
  -22.2840  -12.0270   22.4970 H   0  0  0  0  0  0  0  0  0  0  0  0
  -20.9500  -13.1270   22.2790 H   0  0  0  0  0  0  0  0  0  0  0  0
  -25.2010  -15.3120   20.4280 N   0  0  0  0  0  0  0  0  0  0  0  0
  -24.4150  -15.9460   20.5170 H   0  0  0  0  0  0  0  0  0  0  0  0
  -26.0500  -15.7730   20.1270 H   0  0  0  0  0  0  0  0  0  0  0  0
  -27.0680  -26.0700   22.6670 N   0  0  0  0  0  4  0  0  0  0  0  0
  -26.4930  -25.9850   21.8460 H   0  0  0  0  0  0  0  0  0  0  0  0
  -26.9710  -27.0080   23.0170 H   0  0  0  0  0  0  0  0  0  0  0  0
  -26.7090  -25.4470   23.3700 H   0  0  0  0  0  0  0  0  0  0  0  0
  -28.3420  -26.7720   20.0880 O   0  0  0  0  0  0  0  0  0  0  0  0
  -24.5100  -31.9280   23.1870 C   0  0  0  0  0  0  0  0  0  0  0  0
  -27.2070  -27.5520   20.0870 C   0  0  0  0  0  0  0  0  0  0  0  0
  -23.3160  -30.5200   21.5410 C   0  0  0  0  0  3  0  0  0  0  0  0
  -24.7840  -29.0020   20.1090 C   0  0  0  0  0  0  0  0  0  0  0  0
  -25.8310  -30.9170   21.3340 C   0  0  0  0  0  2  0  0  0  0  0  0
  -25.9320  -29.5500   20.6920 C   0  0  0  0  0  0  0  0  0  0  0  0
  -27.1470  -28.8380   20.6730 C   0  0  0  0  0  3  0  0  0  0  0  0
  -26.0470  -27.0180   19.4860 C   0  0  0  0  0  3  0  0  0  0  0  0
  -24.8340  -27.7350   19.5000 C   0  0  0  0  0  3  0  0  0  0  0  0
  -23.5280  -29.8440   20.1600 C   0  0  0  0  0  2  0  0  0  0  0  0
  -24.5710  -31.1340   22.0820 N   0  0  0  0  0  0  0  0  0  0  0  0
  -23.4270  -32.1870   23.7300 O   0  0  0  0  0  0  0  0  0  0  0  0
  -22.6780  -29.4870   22.4980 C   0  0  0  0  0  0  0  0  0  0  0  0
  -21.3560  -29.2940   22.3680 N   0  0  0  0  0  0  0  0  0  0  0  0
  -23.3690  -28.8620   23.3060 O   0  0  0  0  0  0  0  0  0  0  0  0
  -20.8610  -29.8510   21.6860 H   0  0  0  0  0  0  0  0  0  0  0  0
  -17.9900  -28.0750   22.8500 C   0  0  0  0  0  0  0  0  0  0  0  0
  -20.5440  -28.3470   23.1340 C   0  0  0  0  0  3  0  0  0  0  0  0
  -20.6590  -26.9190   22.5510 C   0  0  0  0  0  2  0  0  0  0  0  0
  -19.5630  -26.5930   21.5330 C   0  0  0  0  0  2  0  0  0  0  0  0
  -18.1770  -26.7280   22.1730 C   0  0  0  0  0  2  0  0  0  0  0  0
  -19.1010  -28.8420   23.2860 C   0  0  0  0  0  0  0  0  0  0  0  0
  -18.8720  -30.1040   23.8790 C   0  0  0  0  0  3  0  0  0  0  0  0
  -17.5630  -30.5960   24.0390 C   0  0  0  0  0  3  0  0  0  0  0  0
  -16.4670  -29.8250   23.6190 C   0  0  0  0  0  3  0  0  0  0  0  0
  -16.6800  -28.5650   23.0310 C   0  0  0  0  0  3  0  0  0  0  0  0
  -25.7920  -32.5650   23.8100 C   0  0  0  0  0  3  0  0  0  0  0  0
  -25.4740  -33.9590   24.1470 N   0  0  0  0  0  0  0  0  0  0  0  0
  -25.8130  -35.0180   23.3990 C   0  0  0  0  0  0  0  0  0  0  0  0
  -26.4980  -34.9250   22.3770 O   0  0  0  0  0  0  0  0  0  0  0  0
  -24.8590  -34.1020   24.9350 H   0  0  0  0  0  0  0  0  0  0  0  0
  -24.0840  -36.8060   23.0270 C   0  0  0  0  0  1  0  0  0  0  0  0
  -25.3110  -36.4000   23.8580 C   0  0  0  0  0  3  0  0  0  0  0  0
  -27.4270  -37.2810   24.7390 C   0  0  0  0  0  1  0  0  0  0  0  0
  -26.3430  -37.4560   23.7760 N   0  0  0  0  0  0  0  0  0  0  0  0
  -25.9310  -38.3730   23.9290 H   0  0  0  0  0  0  0  0  0  0  0  0
  -26.3230  -31.7880   25.0780 C   0  0  1  0  0  0  0  0  0  0  0  0
  -25.2350  -31.5280   26.1450 C   0  0  0  0  0  1  0  0  0  0  0  0
  -26.9180  -30.4220   24.6670 C   0  0  0  0  0  1  0  0  0  0  0  0
  -27.4690  -32.5870   25.7410 C   0  0  0  0  0  1  0  0  0  0  0  0
  1  2  1  0
  1  4  1  0
  2  6  1  0
  3  5  1  0
  4 10  1  0
  4  3  1  0
  5 57  1  0
  6 61  1  0
  6  5  1  0
  7 10  1  0
  8  7  2  0
  8 11  1  0
 10  9  2  0
 11 12  2  0
 12  9  1  0
 12 13  1  0
 14 15  1  0
 14 11  1  0
 16 18  1  0
 17 16  1  0
 17 19  1  0
 18 20  1  0
 19 20  1  0
 20 21  1  0
 20 15  1  1
 21 28  2  0
 22 27  1  0
 23 24  1  0
 23 22  1  0
 25 24  1  0
 25 32  1  0
 25 26  1  0
 27 21  1  0
 27 26  1  0
 29 30  2  0
 30 49  1  0
 31 30  1  0
 31 34  1  0
 32 29  1  0
 32 33  1  0
 33 31  2  0
 34 35  1  0
 35 36  2  0
 37 40  1  0
 37 36  1  0
 38 37  2  0
 39 38  1  0
 39 34  2  0
 40 41  1  0
 41 42  1  0
 42 43  2  0
 44 43  1  0
 44 48  1  0
 45 44  2  0
 46 41  2  0
 46 45  1  0
 47 46  1  0
 49 50  1  0
 50 53  1  0
 50 52  1  0
 51 49  2  0
 54 55  1  0
 54 29  1  0
 56 54  1  0
 57 59  1  0
 57 60  1  0
 58 57  1  0
 62 73  2  0
 63 61  1  0
 63 68  1  0
 64 72  1  0
 64 74  1  0
 65 71  1  0
 65 67  1  0
 66 72  1  0
 67 66  1  0
 68 67  2  0
 69 70  1  0
 69 63  2  0
 70 65  2  0
 71 64  1  0
 72 62  1  0
 74 76  2  0
 75 74  1  0
 77 75  1  0
 78 87  2  0
 78 83  1  0
 79 75  1  0
 79 83  1  0
 80 79  1  0
 81 82  1  0
 81 80  1  0
 82 78  1  0
 83 84  2  0
 84 85  1  0
 86 85  2  0
 87 86  1  0
 88 62  1  0
 88 89  1  0
 88 98  1  0
 89 92  1  0
 90 94  1  0
 90 89  1  0
 91 90  2  0
 94 93  1  0
 96 94  1  0
 96 97  1  0
 96 95  1  0
 98101  1  1
 98 99  1  0
100 98  1  0
M  ISO  4   6 101  20 100  21 100  61 101
M  END
>  <TORSDO>  (5) 
F 21

>  <SCORE>  (5) 
-14.237

>  <name>  (5) 
4

>  <ligand_id>  (5) 
4

>  <original_smiles>  (5) 
[H]c1c([H])c([H])c2c(c1[H])C([H])([H])C([H])([H])C([H])([H])C2([H])N([H])C(=O)C1([H])N(C(=O)C([H])(N([H])C(=O)C([H])(N([H])C([H])([H])[H])C([H])([H])[H])C(C([H])([H])[H])(C([H])([H])[H])C([H])([H])[H])C([H])([H])c2c([H])c(OC3([H])C([H])([H])C([H])([H])C([H])(c4c([H])c([H])c(C([H])([H])C([H])([H])C5(C(=O)N6C([H])([H])C([H])([H])C([H])([H])C([H])(n7nc(-c8c([H])c([H])c(Oc9c([H])c([H])c(F)c([H])c9F)c([H])c8[H])c(C(=O)N([H])[H])c7N([H])[H])C6([H])[H])C([H])([H])C([H])([H])C([H])([H])C5([H])[H])c(C([H])([H])[H])c4[H])C([H])([H])C3([H])[N+]([H])([H])[H])c([H])c([H])c2C1([H])[H]

>  <smiles>  (5) 
[H]c1c([H])c([H])c2c(c1[H])C([H])([H])C([H])([H])C([H])([H])C2([H])N([H])C(=O)C1([H])N(C(=O)C([H])(N([H])C(=O)C([H])(N([H])C([H])([H])[H])C([H])([H])[H])C(C([H])([H])[H])(C([H])([H])[H])C([H])([H])[H])C([H])([H])c2c([H])c(OC3([H])C([H])([H])C([H])([H])C([H])(c4c([H])c([H])c(C([H])([H])C([H])([H])C5(C(=O)N6C([H])([H])C([H])([H])C([H])([H])C([H])(n7nc(-c8c([H])c([H])c(Oc9c([H])c([H])c(F)c([H])c9F)c([H])c8[H])c(C(=O)N([H])[H])c7N([H])[H])C6([H])[H])C([H])([H])C([H])([H])C([H])([H])C5([H])[H])c(C([H])([H])[H])c4[H])C([H])([H])C3([H])[N+]([H])([H])[H])c([H])c([H])c2C1([H])[H]

$$$$
5:0:0
     RDKit          3D

 92100  0  0  1  0  0  0  0  0999 V2000
  -28.8420  -22.7130   18.9510 C   0  0  0  0  0  3  0  0  0  0  0  0
  -29.1210  -21.9460   20.1300 C   0  0  0  0  0  0  0  0  0  0  0  0
  -28.5160  -24.1250   18.9310 C   0  0  0  0  0  0  0  0  0  0  0  0
  -28.9700  -22.7350   21.3200 C   0  0  0  0  0  0  0  0  0  0  0  0
  -28.6100  -24.1570   21.3110 C   0  0  0  0  0  0  0  0  0  0  0  0
  -28.4010  -24.9300   20.1120 C   0  0  0  0  0  0  0  0  0  0  0  0
  -28.3630  -24.8050   17.5800 C   0  0  0  0  0  1  0  0  0  0  0  0
  -29.3060  -22.0240   22.6250 C   0  0  0  0  0  1  0  0  0  0  0  0
  -28.5160  -24.9160   22.6270 C   0  0  0  0  0  1  0  0  0  0  0  0
  -28.3590  -26.3870   20.0850 O   0  0  0  0  0  0  0  0  0  0  0  0
  -24.6770  -31.8920   23.2220 C   0  0  0  0  0  0  0  0  0  0  0  0
  -27.2300  -27.2590   20.1090 C   0  0  0  0  0  0  0  0  0  0  0  0
  -23.4520  -30.5070   21.5890 C   0  0  0  0  0  3  0  0  0  0  0  0
  -24.8780  -28.9410   20.1360 C   0  0  0  0  0  0  0  0  0  0  0  0
  -25.9960  -30.7950   21.3800 C   0  0  0  0  0  2  0  0  0  0  0  0
  -26.0610  -29.4080   20.7250 C   0  0  0  0  0  0  0  0  0  0  0  0
  -27.2340  -28.5800   20.6930 C   0  0  0  0  0  3  0  0  0  0  0  0
  -26.0200  -26.8640   19.5020 C   0  0  0  0  0  3  0  0  0  0  0  0
  -24.8650  -27.6800   19.5160 C   0  0  0  0  0  3  0  0  0  0  0  0
  -23.6500  -29.8340   20.2030 C   0  0  0  0  0  2  0  0  0  0  0  0
  -24.7290  -31.0860   22.1180 N   0  0  0  0  0  0  0  0  0  0  0  0
  -23.5990  -32.1670   23.7710 O   0  0  0  0  0  0  0  0  0  0  0  0
  -22.7950  -29.4910   22.5550 C   0  0  0  0  0  0  0  0  0  0  0  0
  -21.4690  -29.3030   22.4330 N   0  0  0  0  0  0  0  0  0  0  0  0
  -23.4790  -28.8740   23.3760 O   0  0  0  0  0  0  0  0  0  0  0  0
  -20.9750  -29.8520   21.7430 H   0  0  0  0  0  0  0  0  0  0  0  0
  -18.1070  -28.0570   22.9330 C   0  0  0  0  0  0  0  0  0  0  0  0
  -20.6600  -28.3590   23.2070 C   0  0  0  0  0  3  0  0  0  0  0  0
  -20.7870  -26.9260   22.6400 C   0  0  0  0  0  2  0  0  0  0  0  0
  -19.6930  -26.5830   21.6250 C   0  0  0  0  0  2  0  0  0  0  0  0
  -18.3070  -26.7080   22.2630 C   0  0  0  0  0  2  0  0  0  0  0  0
  -19.2120  -28.8390   23.3620 C   0  0  0  0  0  0  0  0  0  0  0  0
  -18.9690  -30.1010   23.9490 C   0  0  0  0  0  3  0  0  0  0  0  0
  -17.6540  -30.5790   24.1110 C   0  0  0  0  0  3  0  0  0  0  0  0
  -16.5650  -29.7940   23.6950 C   0  0  0  0  0  3  0  0  0  0  0  0
  -16.7910  -28.5350   23.1120 C   0  0  0  0  0  3  0  0  0  0  0  0
  -25.9630  -32.5250   23.8360 C   0  0  0  0  0  3  0  0  0  0  0  0
  -26.4980  -31.7380   25.0970 C   0  0  1  0  0  0  0  0  0  0  0  0
  -25.4210  -31.4880   26.1780 C   0  0  0  0  0  1  0  0  0  0  0  0
  -27.0770  -30.3670   24.6810 C   0  0  0  0  0  1  0  0  0  0  0  0
  -27.6610  -32.5240   25.7500 C   0  0  0  0  0  1  0  0  0  0  0  0
  -25.6540  -33.9160   24.1960 N   0  0  0  0  0  0  0  0  0  0  0  0
  -25.9460  -34.9830   23.4380 C   0  0  0  0  0  0  0  0  0  0  0  0
  -26.5710  -34.8980   22.3790 O   0  0  0  0  0  0  0  0  0  0  0  0
  -25.0940  -34.0550   25.0250 H   0  0  0  0  0  0  0  0  0  0  0  0
  -24.1750  -36.7530   23.2000 C   0  0  0  0  0  1  0  0  0  0  0  0
  -25.4670  -36.3630   23.9360 C   0  0  0  0  0  3  0  0  0  0  0  0
  -27.6350  -37.2700   24.6490 C   0  0  0  0  0  1  0  0  0  0  0  0
  -26.4790  -37.4310   23.7710 N   0  0  0  0  0  0  0  0  0  0  0  0
  -26.0700  -38.3460   23.9460 H   0  0  0  0  0  0  0  0  0  0  0  0
  -29.8600  -20.4790   20.0570 C   0  0  0  0  0  3  0  0  0  0  0  0
  -29.3370  -18.9430   20.4410 C   0  0  0  0  0  3  0  0  0  0  0  0
  -31.5730  -17.8700   21.2140 C   0  0  0  0  0  1  0  0  0  0  0  0
  -30.3590  -17.6280   20.2900 C   0  0  0  0  0  3  0  0  0  0  0  0
  -30.6010  -14.9330   20.1290 C   0  0  0  0  0  0  0  0  0  0  0  0
  -30.3540  -12.6470   19.0970 C   0  0  0  0  0  2  0  0  0  0  0  0
  -29.3810  -12.7050   17.8990 C   0  0  0  0  0  2  0  0  0  0  0  0
  -27.9320  -12.5030   18.3770 C   0  0  0  0  0  2  0  0  0  0  0  0
  -27.5910  -13.3740   19.6160 C   0  0  0  0  0  3  0  0  0  0  0  0
  -28.6900  -13.3190   20.7000 C   0  0  0  0  0  2  0  0  0  0  0  0
  -29.9520  -13.7090   20.0610 N   0  0  0  0  0  0  0  0  0  0  0  0
  -31.7750  -14.9770   19.7490 O   0  0  0  0  0  0  0  0  0  0  0  0
  -29.9060  -16.1290   20.4180 N   0  0  0  0  0  0  0  0  0  0  0  0
  -28.9410  -15.9920   20.6810 H   0  0  0  0  0  0  0  0  0  0  0  0
  -25.2340  -13.9370   20.4380 C   0  0  0  0  0  0  0  0  0  0  0  0
  -24.1850  -13.1540   20.8340 C   0  0  0  0  0  0  0  0  0  0  0  0
  -24.6550  -11.8060   20.7750 C   0  0  0  0  0  0  0  0  0  0  0  0
  -26.2710  -13.0670   20.1540 N   0  0  0  0  0  0  0  0  0  0  0  0
  -25.9350  -11.7790   20.4230 N   0  0  0  0  0  0  0  0  0  0  0  0
  -23.9400  -10.5380   20.9760 C   0  0  0  0  0  0  0  0  0  0  0  0
  -24.3920   -9.5720   21.9030 C   0  0  0  0  0  3  0  0  0  0  0  0
  -23.6770   -8.3710   22.0930 C   0  0  0  0  0  3  0  0  0  0  0  0
  -22.4940   -8.1250   21.3570 C   0  0  0  0  0  0  0  0  0  0  0  0
  -22.0580   -9.0790   20.4200 C   0  0  0  0  0  3  0  0  0  0  0  0
  -22.7750  -10.2720   20.2280 C   0  0  0  0  0  3  0  0  0  0  0  0
  -21.7490   -6.9750   21.4560 O   0  0  0  0  0  0  0  0  0  0  0  0
  -21.7050   -6.2430   22.6150 C   0  0  0  0  0  0  0  0  0  0  0  0
  -21.2600   -6.8030   23.8320 C   0  0  0  0  0  3  0  0  0  0  0  0
  -21.1660   -5.9980   24.9850 C   0  0  0  0  0  3  0  0  0  0  0  0
  -21.5040   -4.6320   24.9190 C   0  0  0  0  0  0  0  0  0  0  0  0
  -21.9400   -4.0720   23.7070 C   0  0  0  0  0  3  0  0  0  0  0  0
  -22.0380   -4.8750   22.5570 C   0  0  0  0  0  0  0  0  0  0  0  0
  -22.4390   -4.3260   21.3850 F   0  0  0  0  0  0  0  0  0  0  0  0
  -21.4040   -3.8550   26.0230 F   0  0  0  0  0  0  0  0  0  0  0  0
  -22.7970  -13.6230   21.1520 C   0  0  0  0  0  0  0  0  0  0  0  0
  -22.1010  -12.9210   22.0390 N   0  0  0  0  0  0  0  0  0  0  0  0
  -22.3360  -14.6480   20.6510 O   0  0  0  0  0  0  0  0  0  0  0  0
  -22.4880  -12.0920   22.4660 H   0  0  0  0  0  0  0  0  0  0  0  0
  -21.1700  -13.2160   22.2940 H   0  0  0  0  0  0  0  0  0  0  0  0
  -25.3840  -15.3110   20.2680 N   0  0  0  0  0  0  0  0  0  0  0  0
  -24.6090  -15.9520   20.3960 H   0  0  0  0  0  0  0  0  0  0  0  0
  -26.2120  -15.7580   19.8970 H   0  0  0  0  0  0  0  0  0  0  0  0
  1  2  1  0
  2  4  2  0
  3  1  2  0
  3  6  1  0
  4  8  1  0
  5  4  1  0
  5  9  1  0
  6  5  2  0
  7  3  1  0
 10 12  1  0
 10  6  1  0
 11 22  2  0
 12 17  1  0
 13 21  1  0
 13 23  1  0
 14 20  1  0
 14 16  1  0
 15 21  1  0
 16 15  1  0
 17 16  2  0
 18 19  1  0
 18 12  2  0
 19 14  2  0
 20 13  1  0
 21 11  1  0
 23 25  2  0
 24 23  1  0
 26 24  1  0
 27 36  2  0
 27 32  1  0
 28 24  1  0
 28 32  1  0
 29 28  1  0
 30 31  1  0
 30 29  1  0
 31 27  1  0
 32 33  2  0
 33 34  1  0
 35 34  2  0
 36 35  1  0
 37 11  1  0
 37 42  1  0
 37 38  1  0
 38 41  1  1
 38 39  1  0
 40 38  1  0
 42 45  1  0
 43 47  1  0
 43 42  1  0
 44 43  2  0
 47 46  1  0
 49 47  1  0
 49 50  1  0
 49 48  1  0
 51  2  1  0
 51 52  2  0
 54 63  1  0
 54 52  1  0
 54 53  1  0
 55 63  1  0
 56 61  1  0
 57 58  1  0
 57 56  1  0
 59 58  1  0
 59 68  1  0
 59 60  1  0
 61 55  1  0
 61 60  1  0
 62 55  2  0
 63 64  1  0
 65 66  2  0
 66 85  1  0
 67 66  1  0
 67 70  1  0
 68 69  1  0
 68 65  1  0
 69 67  2  0
 70 71  1  0
 71 72  2  0
 73 76  1  0
 73 72  1  0
 74 73  2  0
 75 74  1  0
 75 70  2  0
 76 77  1  0
 77 78  1  0
 78 79  2  0
 80 79  1  0
 80 84  1  0
 81 80  2  0
 82 77  2  0
 82 81  1  0
 83 82  1  0
 85 86  1  0
 86 89  1  0
 86 88  1  0
 87 85  2  0
 90 91  1  0
 90 65  1  0
 92 90  1  0
M  ISO  4   6 101  10 101  55 100  63 100
M  END
>  <TORSDO>  (6) 
F 19

>  <SCORE>  (6) 
-14.379

>  <name>  (6) 
5

>  <ligand_id>  (6) 
5

>  <original_smiles>  (6) 
[H]c1c([H])c([H])c2c(c1[H])C([H])([H])C([H])([H])C([H])([H])C2([H])N([H])C(=O)C1([H])N(C(=O)C([H])(N([H])C(=O)C([H])(N([H])C([H])([H])[H])C([H])([H])[H])C(C([H])([H])[H])(C([H])([H])[H])C([H])([H])[H])C([H])([H])c2c([H])c(Oc3c(C([H])([H])[H])c([H])c(C([H])([H])C([H])([H])C([H])(N([H])C(=O)N4C([H])([H])C([H])([H])C([H])([H])C([H])(n5nc(-c6c([H])c([H])c(Oc7c([H])c([H])c(F)c([H])c7F)c([H])c6[H])c(C(=O)N([H])[H])c5N([H])[H])C4([H])[H])C([H])([H])[H])c(C([H])([H])[H])c3C([H])([H])[H])c([H])c([H])c2C1([H])[H]

>  <smiles>  (6) 
[H]c1c([H])c([H])c2c(c1[H])C([H])([H])C([H])([H])C([H])([H])C2([H])N([H])C(=O)C1([H])N(C(=O)C([H])(N([H])C(=O)C([H])(N([H])C([H])([H])[H])C([H])([H])[H])C(C([H])([H])[H])(C([H])([H])[H])C([H])([H])[H])C([H])([H])c2c([H])c(Oc3c(C([H])([H])[H])c([H])c(C([H])([H])C([H])([H])C([H])(N([H])C(=O)N4C([H])([H])C([H])([H])C([H])([H])C([H])(n5nc(-c6c([H])c([H])c(Oc7c([H])c([H])c(F)c([H])c7F)c([H])c6[H])c(C(=O)N([H])[H])c5N([H])[H])C4([H])[H])C([H])([H])[H])c(C([H])([H])[H])c3C([H])([H])[H])c([H])c([H])c2C1([H])[H]

$$$$
6:0:0
     RDKit          3D

 97107  0  0  1  0  0  0  0  0999 V2000
  -30.0230  -20.3300   20.9990 C   0  0  0  0  0  3  0  0  0  0  0  0
  -28.6460  -19.5310   19.2470 C   0  0  0  0  0  3  0  0  0  0  0  0
  -29.6450  -21.7210   20.7430 C   0  0  0  0  0  0  0  0  0  0  0  0
  -28.7720  -22.0390   19.6470 C   0  0  0  0  0  0  0  0  0  0  0  0
  -29.5800  -19.1820   20.2600 C   0  0  0  0  0  0  0  0  0  0  0  0
  -28.2650  -20.8890   18.9430 C   0  0  0  0  0  0  0  0  0  0  0  0
  -28.5290  -23.5470   19.1070 C   0  0  0  0  0  2  0  0  0  0  0  0
  -27.6570  -25.6320   23.6910 C   0  0  0  0  0  2  0  0  0  0  0  0
  -29.0950  -26.1580   23.5200 C   0  0  0  0  0  2  0  0  0  0  0  0
  -27.0280  -25.2770   22.3370 C   0  0  0  0  0  2  0  0  0  0  0  0
  -29.9490  -25.3480   22.5150 C   0  0  0  0  0  2  0  0  0  0  0  0
  -27.8810  -24.3160   21.4560 C   0  0  0  0  0  3  0  0  0  0  0  0
  -29.2880  -24.0110   22.0960 C   0  0  0  0  0  3  0  0  0  0  0  0
  -27.7840  -24.7020   19.9450 C   0  0  0  0  0  3  0  0  0  0  0  0
  -30.2930  -22.8790   21.5750 C   0  0  1  0  0  0  0  0  0  0  0  0
  -27.3370  -21.0870   17.7560 C   0  0  0  0  0  1  0  0  0  0  0  0
  -30.9770  -22.3120   22.8550 C   0  0  0  0  0  1  0  0  0  0  0  0
  -31.4690  -23.4770   20.7570 C   0  0  0  0  0  1  0  0  0  0  0  0
  -27.9600  -26.1950   19.6000 O   0  0  0  0  0  0  0  0  0  0  0  0
  -24.4480  -31.6450   22.9950 C   0  0  0  0  0  0  0  0  0  0  0  0
  -26.8730  -27.1270   19.6330 C   0  0  0  0  0  0  0  0  0  0  0  0
  -23.1590  -30.3190   21.3630 C   0  0  0  0  0  3  0  0  0  0  0  0
  -24.5320  -28.8180   19.7960 C   0  0  0  0  0  0  0  0  0  0  0  0
  -25.6950  -30.6140   21.0710 C   0  0  0  0  0  2  0  0  0  0  0  0
  -25.7370  -29.2570   20.3580 C   0  0  0  0  0  0  0  0  0  0  0  0
  -26.9090  -28.4280   20.2600 C   0  0  0  0  0  3  0  0  0  0  0  0
  -25.6430  -26.7800   19.0290 C   0  0  0  0  0  3  0  0  0  0  0  0
  -24.4940  -27.5910   19.1170 C   0  0  0  0  0  3  0  0  0  0  0  0
  -23.3030  -29.7010   19.9460 C   0  0  0  0  0  2  0  0  0  0  0  0
  -24.4560  -30.8760   21.8660 N   0  0  0  0  0  0  0  0  0  0  0  0
  -23.3930  -31.9050   23.5950 O   0  0  0  0  0  0  0  0  0  0  0  0
  -22.5340  -29.2680   22.3140 C   0  0  0  0  0  0  0  0  0  0  0  0
  -21.2020  -29.0950   22.2430 N   0  0  0  0  0  0  0  0  0  0  0  0
  -23.2470  -28.6140   23.0790 O   0  0  0  0  0  0  0  0  0  0  0  0
  -20.6810  -29.6750   21.6010 H   0  0  0  0  0  0  0  0  0  0  0  0
  -17.8540  -27.8620   22.8500 C   0  0  0  0  0  0  0  0  0  0  0  0
  -20.4220  -28.1270   23.0170 C   0  0  0  0  0  3  0  0  0  0  0  0
  -20.5040  -26.7170   22.3890 C   0  0  0  0  0  2  0  0  0  0  0  0
  -19.3620  -26.4250   21.4120 C   0  0  0  0  0  2  0  0  0  0  0  0
  -18.0080  -26.5380   22.1200 C   0  0  0  0  0  2  0  0  0  0  0  0
  -18.9870  -28.6150   23.2580 C   0  0  0  0  0  0  0  0  0  0  0  0
  -18.7870  -29.8540   23.9040 C   0  0  0  0  0  3  0  0  0  0  0  0
  -17.4890  -30.3400   24.1460 C   0  0  0  0  0  3  0  0  0  0  0  0
  -16.3720  -29.5820   23.7540 C   0  0  0  0  0  3  0  0  0  0  0  0
  -16.5550  -28.3450   23.1110 C   0  0  0  0  0  3  0  0  0  0  0  0
  -25.7610  -32.2530   23.5780 C   0  0  0  0  0  3  0  0  0  0  0  0
  -25.4620  -33.6230   24.0230 N   0  0  0  0  0  0  0  0  0  0  0  0
  -25.7620  -34.7330   23.3340 C   0  0  0  0  0  0  0  0  0  0  0  0
  -26.3890  -34.7080   22.2710 O   0  0  0  0  0  0  0  0  0  0  0  0
  -24.8980  -33.7140   24.8560 H   0  0  0  0  0  0  0  0  0  0  0  0
  -24.0250  -36.5440   23.1820 C   0  0  0  0  0  1  0  0  0  0  0  0
  -25.2950  -36.0810   23.9140 C   0  0  0  0  0  3  0  0  0  0  0  0
  -27.4580  -36.9050   24.7340 C   0  0  0  0  0  1  0  0  0  0  0  0
  -26.3240  -37.1420   23.8430 N   0  0  0  0  0  0  0  0  0  0  0  0
  -25.9260  -38.0480   24.0730 H   0  0  0  0  0  0  0  0  0  0  0  0
  -26.3600  -31.4040   24.7670 C   0  0  1  0  0  0  0  0  0  0  0  0
  -25.3390  -31.0990   25.8880 C   0  0  0  0  0  1  0  0  0  0  0  0
  -26.9130  -30.0540   24.2550 C   0  0  0  0  0  1  0  0  0  0  0  0
  -27.5540  -32.1570   25.4000 C   0  0  0  0  0  1  0  0  0  0  0  0
  -30.3010  -17.7190   20.3450 C   0  0  0  0  0  3  0  0  0  0  0  0
  -29.6930  -16.2810   20.8720 C   0  0  0  0  0  3  0  0  0  0  0  0
  -30.5090  -14.8830   20.6290 C   0  0  0  0  0  0  0  0  0  0  0  0
  -30.3960  -12.5600   19.6660 C   0  0  0  0  0  2  0  0  0  0  0  0
  -29.5020  -12.5840   18.4050 C   0  0  0  0  0  2  0  0  0  0  0  0
  -28.0190  -12.3970   18.7800 C   0  0  0  0  0  2  0  0  0  0  0  0
  -27.5880  -13.3060   19.9600 C   0  0  0  0  0  3  0  0  0  0  0  0
  -28.6040  -13.2660   21.1210 C   0  0  0  0  0  2  0  0  0  0  0  0
  -29.9190  -13.6310   20.5790 N   0  0  0  0  0  0  0  0  0  0  0  0
  -31.7070  -14.9600   20.3350 O   0  0  0  0  0  0  0  0  0  0  0  0
  -25.1820  -13.8990   20.6170 C   0  0  0  0  0  0  0  0  0  0  0  0
  -24.1030  -13.1270   20.9490 C   0  0  0  0  0  0  0  0  0  0  0  0
  -24.5640  -11.7750   20.9320 C   0  0  0  0  0  0  0  0  0  0  0  0
  -26.2300  -13.0170   20.4100 N   0  0  0  0  0  0  0  0  0  0  0  0
  -25.8640  -11.7340   20.6660 N   0  0  0  0  0  0  0  0  0  0  0  0
  -23.8270  -10.5150   21.0940 C   0  0  0  0  0  0  0  0  0  0  0  0
  -24.2260   -9.5420   22.0380 C   0  0  0  0  0  3  0  0  0  0  0  0
  -23.4900   -8.3470   22.1880 C   0  0  0  0  0  3  0  0  0  0  0  0
  -22.3400   -8.1160   21.3950 C   0  0  0  0  0  0  0  0  0  0  0  0
  -21.9620   -9.0770   20.4410 C   0  0  0  0  0  3  0  0  0  0  0  0
  -22.6990  -10.2630   20.2880 C   0  0  0  0  0  3  0  0  0  0  0  0
  -21.5790   -6.9750   21.4550 O   0  0  0  0  0  0  0  0  0  0  0  0
  -21.4850   -6.2320   22.6050 C   0  0  0  0  0  0  0  0  0  0  0  0
  -21.0090   -6.7850   23.8130 C   0  0  0  0  0  3  0  0  0  0  0  0
  -20.8630   -5.9680   24.9520 C   0  0  0  0  0  3  0  0  0  0  0  0
  -21.1810   -4.5980   24.8820 C   0  0  0  0  0  0  0  0  0  0  0  0
  -21.6490   -4.0440   23.6780 C   0  0  0  0  0  3  0  0  0  0  0  0
  -21.7970   -4.8580   22.5420 C   0  0  0  0  0  0  0  0  0  0  0  0
  -22.2300   -4.3150   21.3780 F   0  0  0  0  0  0  0  0  0  0  0  0
  -21.0330   -3.8110   25.9740 F   0  0  0  0  0  0  0  0  0  0  0  0
  -22.6990  -13.6080   21.1710 C   0  0  0  0  0  0  0  0  0  0  0  0
  -21.9390  -12.9160   22.0130 N   0  0  0  0  0  0  0  0  0  0  0  0
  -22.2810  -14.6330   20.6320 O   0  0  0  0  0  0  0  0  0  0  0  0
  -22.2900  -12.0900   22.4730 H   0  0  0  0  0  0  0  0  0  0  0  0
  -20.9930  -13.2190   22.2020 H   0  0  0  0  0  0  0  0  0  0  0  0
  -25.3560  -15.2700   20.4520 N   0  0  0  0  0  0  0  0  0  0  0  0
  -24.5910  -15.9280   20.5460 H   0  0  0  0  0  0  0  0  0  0  0  0
  -26.2230  -15.7090   20.1690 H   0  0  0  0  0  0  0  0  0  0  0  0
  2  5  1  0
  3  1  1  0
  3 15  1  0
  4  3  2  0
  5 60  1  0
  5  1  2  0
  6  2  2  0
  6  4  1  0
  7  4  1  0
  7 14  1  0
  9  8  1  0
 10  8  1  0
 11  9  1  0
 12 13  1  0
 12 10  1  0
 13 11  1  0
 14 19  1  0
 14 12  1  0
 15 13  1  0
 15 17  1  1
 16  6  1  0
 18 15  1  0
 19 21  1  0
 20 31  2  0
 21 26  1  0
 22 30  1  0
 22 32  1  0
 23 29  1  0
 23 25  1  0
 24 30  1  0
 25 24  1  0
 26 25  2  0
 27 28  1  0
 27 21  2  0
 28 23  2  0
 29 22  1  0
 30 20  1  0
 32 34  2  0
 33 32  1  0
 35 33  1  0
 36 45  2  0
 36 41  1  0
 37 33  1  0
 37 41  1  0
 38 37  1  0
 39 40  1  0
 39 38  1  0
 40 36  1  0
 41 42  2  0
 42 43  1  0
 44 43  2  0
 45 44  1  0
 46 20  1  0
 46 47  1  0
 46 56  1  0
 47 50  1  0
 48 52  1  0
 48 47  1  0
 49 48  2  0
 52 51  1  0
 54 52  1  0
 54 55  1  0
 54 53  1  0
 56 59  1  1
 56 57  1  0
 58 56  1  0
 60 61  2  0
 62 61  1  0
 63 68  1  0
 64 65  1  0
 64 63  1  0
 66 65  1  0
 66 73  1  0
 66 67  1  0
 68 62  1  0
 68 67  1  0
 69 62  2  0
 70 71  2  0
 71 90  1  0
 72 71  1  0
 72 75  1  0
 73 70  1  0
 73 74  1  0
 74 72  2  0
 75 76  1  0
 76 77  2  0
 78 81  1  0
 78 77  1  0
 79 78  2  0
 80 79  1  0
 80 75  2  0
 81 82  1  0
 82 83  1  0
 83 84  2  0
 85 84  1  0
 85 89  1  0
 86 85  2  0
 87 82  2  0
 87 86  1  0
 88 87  1  0
 90 91  1  0
 91 94  1  0
 91 93  1  0
 92 90  2  0
 95 96  1  0
 95 70  1  0
 97 95  1  0
M  ISO  4  14 101  19 101  61 100  62 100
M  END
>  <TORSDO>  (7) 
F 18

>  <SCORE>  (7) 
-14.256

>  <name>  (7) 
6

>  <ligand_id>  (7) 
6

>  <original_smiles>  (7) 
[H]c1c([H])c([H])c2c(c1[H])C([H])([H])C([H])([H])C([H])([H])C2([H])N([H])C(=O)C1([H])N(C(=O)C([H])(N([H])C(=O)C([H])(N([H])C([H])([H])[H])C([H])([H])[H])C(C([H])([H])[H])(C([H])([H])[H])C([H])([H])[H])C([H])([H])c2c([H])c(OC3([H])C([H])([H])c4c(C([H])([H])[H])c([H])c(C([H])([H])C([H])([H])C(=O)N5C([H])([H])C([H])([H])C([H])([H])C([H])(n6nc(-c7c([H])c([H])c(Oc8c([H])c([H])c(F)c([H])c8F)c([H])c7[H])c(C(=O)N([H])[H])c6N([H])[H])C5([H])[H])c([H])c4C(C([H])([H])[H])(C([H])([H])[H])C4([H])C([H])([H])C([H])([H])C([H])([H])C([H])([H])C34[H])c([H])c([H])c2C1([H])[H]

>  <smiles>  (7) 
[H]c1c([H])c([H])c2c(c1[H])C([H])([H])C([H])([H])C([H])([H])C2([H])N([H])C(=O)C1([H])N(C(=O)C([H])(N([H])C(=O)C([H])(N([H])C([H])([H])[H])C([H])([H])[H])C(C([H])([H])[H])(C([H])([H])[H])C([H])([H])[H])C([H])([H])c2c([H])c(OC3([H])C([H])([H])c4c(C([H])([H])[H])c([H])c(C([H])([H])C([H])([H])C(=O)N5C([H])([H])C([H])([H])C([H])([H])C([H])(n6nc(-c7c([H])c([H])c(Oc8c([H])c([H])c(F)c([H])c8F)c([H])c7[H])c(C(=O)N([H])[H])c6N([H])[H])C5([H])[H])c([H])c4C(C([H])([H])[H])(C([H])([H])[H])C4([H])C([H])([H])C([H])([H])C([H])([H])C([H])([H])C34[H])c([H])c([H])c2C1([H])[H]

$$$$
7:0:0
     RDKit          3D

100110  0  0  1  0  0  0  0  0999 V2000
  -29.5490  -19.2980   18.1610 C   0  0  0  0  0  2  0  0  0  0  0  0
  -29.1150  -20.6140   17.3830 C   0  0  0  0  0  2  0  0  0  0  0  0
  -30.0090  -23.2920   20.0750 C   0  0  0  0  0  2  0  0  0  0  0  0
  -30.3180  -24.5480   19.2180 C   0  0  0  0  0  2  0  0  0  0  0  0
  -29.5750  -20.7800   20.2630 C   0  0  0  0  0  2  0  0  0  0  0  0
  -29.2670  -23.2850   17.2700 C   0  0  0  0  0  2  0  0  0  0  0  0
  -29.2870  -19.3260   19.6860 C   0  0  0  0  0  3  0  0  0  0  0  0
  -29.0840  -21.9880   18.1570 C   0  0  0  0  0  3  0  0  0  0  0  0
  -30.0700  -21.9280   19.3210 C   0  0  1  0  0  0  0  0  0  0  0  0
  -29.4250  -24.7070   17.9620 C   0  0  2  0  0  0  0  0  0  0  0  0
  -31.5390  -21.7030   18.8710 C   0  0  0  0  0  1  0  0  0  0  0  0
  -30.1420  -25.6580   16.9740 C   0  0  0  0  0  1  0  0  0  0  0  0
  -29.6470  -18.4930   22.0220 C   0  0  0  0  0  3  0  0  0  0  0  0
  -31.0610  -16.1980   21.4200 C   0  0  0  0  0  3  0  0  0  0  0  0
  -29.8200  -18.1810   20.6380 C   0  0  0  0  0  0  0  0  0  0  0  0
  -30.1930  -17.7320   23.0690 C   0  0  0  0  0  0  0  0  0  0  0  0
  -30.9770  -16.6050   22.7570 C   0  0  0  0  0  0  0  0  0  0  0  0
  -30.4470  -16.9000   20.3490 C   0  0  0  0  0  0  0  0  0  0  0  0
  -29.9460  -18.1750   24.5000 C   0  0  0  0  0  1  0  0  0  0  0  0
  -31.7620  -15.8110   23.7930 C   0  0  0  0  0  1  0  0  0  0  0  0
  -31.1230  -15.0500   18.7430 C   0  0  0  0  0  0  0  0  0  0  0  0
  -30.6750  -12.7430   17.9280 C   0  0  0  0  0  2  0  0  0  0  0  0
  -29.4850  -12.7150   16.9500 C   0  0  0  0  0  2  0  0  0  0  0  0
  -28.1600  -12.5750   17.7190 C   0  0  0  0  0  2  0  0  0  0  0  0
  -28.0450  -13.5770   18.8980 C   0  0  0  0  0  3  0  0  0  0  0  0
  -29.3250  -13.6010   19.7570 C   0  0  0  0  0  2  0  0  0  0  0  0
  -30.4610  -13.8640   18.8630 N   0  0  0  0  0  0  0  0  0  0  0  0
  -32.1900  -15.1280   18.1240 O   0  0  0  0  0  0  0  0  0  0  0  0
  -30.4450  -16.1970   19.0840 N   0  0  0  0  0  0  0  0  0  0  0  0
  -29.9100  -16.6240   18.3410 H   0  0  0  0  0  0  0  0  0  0  0  0
  -26.0220  -14.2350   20.3320 C   0  0  0  0  0  0  0  0  0  0  0  0
  -25.0020  -13.4940   20.8640 C   0  0  0  0  0  0  0  0  0  0  0  0
  -25.2810  -12.1330   20.5290 C   0  0  0  0  0  0  0  0  0  0  0  0
  -26.8550  -13.3250   19.7010 N   0  0  0  0  0  0  0  0  0  0  0  0
  -26.4350  -12.0450   19.8840 N   0  0  0  0  0  0  0  0  0  0  0  0
  -24.4860  -10.9150   20.7330 C   0  0  0  0  0  0  0  0  0  0  0  0
  -24.9690   -9.8470   21.5200 C   0  0  0  0  0  3  0  0  0  0  0  0
  -24.1830   -8.6950   21.7170 C   0  0  0  0  0  3  0  0  0  0  0  0
  -22.8940   -8.6040   21.1360 C   0  0  0  0  0  0  0  0  0  0  0  0
  -22.4290   -9.6620   20.3370 C   0  0  0  0  0  3  0  0  0  0  0  0
  -23.2170  -10.8070   20.1350 C   0  0  0  0  0  3  0  0  0  0  0  0
  -22.0670   -7.5160   21.2550 O   0  0  0  0  0  0  0  0  0  0  0  0
  -21.8930   -6.8720   22.4550 C   0  0  0  0  0  0  0  0  0  0  0  0
  -21.5630   -7.5710   23.6330 C   0  0  0  0  0  3  0  0  0  0  0  0
  -21.3290   -6.8630   24.8310 C   0  0  0  0  0  3  0  0  0  0  0  0
  -21.4110   -5.4580   24.8430 C   0  0  0  0  0  0  0  0  0  0  0  0
  -21.7340   -4.7560   23.6650 C   0  0  0  0  0  3  0  0  0  0  0  0
  -21.9700   -5.4650   22.4730 C   0  0  0  0  0  0  0  0  0  0  0  0
  -22.2600   -4.7840   21.3390 F   0  0  0  0  0  0  0  0  0  0  0  0
  -21.1770   -4.7740   25.9890 F   0  0  0  0  0  0  0  0  0  0  0  0
  -23.7820  -14.0250   21.5560 C   0  0  0  0  0  0  0  0  0  0  0  0
  -23.3470  -13.3610   22.6220 N   0  0  0  0  0  0  0  0  0  0  0  0
  -23.2370  -15.0610   21.1850 O   0  0  0  0  0  0  0  0  0  0  0  0
  -23.8000  -12.5150   22.9360 H   0  0  0  0  0  0  0  0  0  0  0  0
  -22.5490  -13.7070   23.1330 H   0  0  0  0  0  0  0  0  0  0  0  0
  -26.3080  -15.5990   20.3160 N   0  0  0  0  0  0  0  0  0  0  0  0
  -25.7160  -16.2820   20.7710 H   0  0  0  0  0  0  0  0  0  0  0  0
  -27.1660  -15.9910   19.9430 H   0  0  0  0  0  0  0  0  0  0  0  0
  -28.0600  -25.4230   18.2810 C   0  0  0  0  0  2  0  0  0  0  0  0
  -28.1470  -26.8070   18.7470 O   0  0  0  0  0  0  0  0  0  0  0  0
  -24.4560  -31.3920   22.8240 C   0  0  0  0  0  0  0  0  0  0  0  0
  -26.9750  -27.5420   18.9020 C   0  0  0  0  0  0  0  0  0  0  0  0
  -23.1770  -30.2580   21.0400 C   0  0  0  0  0  3  0  0  0  0  0  0
  -24.5670  -29.0150   19.2940 C   0  0  0  0  0  0  0  0  0  0  0  0
  -25.6830  -30.6980   20.7600 C   0  0  0  0  0  2  0  0  0  0  0  0
  -25.7550  -29.4510   19.8940 C   0  0  0  0  0  0  0  0  0  0  0  0
  -26.9600  -28.7270   19.6920 C   0  0  0  0  0  3  0  0  0  0  0  0
  -25.7550  -27.1330   18.3090 C   0  0  0  0  0  3  0  0  0  0  0  0
  -24.5690  -27.8590   18.4990 C   0  0  0  0  0  3  0  0  0  0  0  0
  -23.3160  -29.8300   19.5560 C   0  0  0  0  0  2  0  0  0  0  0  0
  -24.4600  -30.7900   21.6000 N   0  0  0  0  0  0  0  0  0  0  0  0
  -23.4080  -31.5370   23.4640 O   0  0  0  0  0  0  0  0  0  0  0  0
  -22.6070  -29.0710   21.8480 C   0  0  0  0  0  0  0  0  0  0  0  0
  -21.2730  -28.9110   21.8230 N   0  0  0  0  0  0  0  0  0  0  0  0
  -23.3560  -28.3040   22.4590 O   0  0  0  0  0  0  0  0  0  0  0  0
  -20.7270  -29.5870   21.3070 H   0  0  0  0  0  0  0  0  0  0  0  0
  -17.9370  -27.6660   22.4520 C   0  0  0  0  0  0  0  0  0  0  0  0
  -20.5170  -27.8390   22.4740 C   0  0  0  0  0  3  0  0  0  0  0  0
  -20.5070  -26.5560   21.6080 C   0  0  0  0  0  2  0  0  0  0  0  0
  -19.2890  -26.4580   20.6840 C   0  0  0  0  0  2  0  0  0  0  0  0
  -17.9950  -26.4810   21.5020 C   0  0  0  0  0  2  0  0  0  0  0  0
  -19.1220  -28.3120   22.8960 C   0  0  0  0  0  0  0  0  0  0  0  0
  -19.0100  -29.4290   23.7510 C   0  0  0  0  0  3  0  0  0  0  0  0
  -17.7490  -29.8990   24.1630 C   0  0  0  0  0  3  0  0  0  0  0  0
  -16.5820  -29.2430   23.7360 C   0  0  0  0  0  3  0  0  0  0  0  0
  -16.6770  -28.1280   22.8850 C   0  0  0  0  0  3  0  0  0  0  0  0
  -25.7660  -31.9440   23.4680 C   0  0  0  0  0  3  0  0  0  0  0  0
  -25.4850  -33.3060   23.9420 N   0  0  0  0  0  0  0  0  0  0  0  0
  -25.8440  -34.4250   23.2980 C   0  0  0  0  0  0  0  0  0  0  0  0
  -26.5240  -34.4160   22.2680 O   0  0  0  0  0  0  0  0  0  0  0  0
  -24.8800  -33.3880   24.7470 H   0  0  0  0  0  0  0  0  0  0  0  0
  -24.1570  -36.2830   23.1190 C   0  0  0  0  0  1  0  0  0  0  0  0
  -25.3800  -35.7680   23.8940 C   0  0  0  0  0  3  0  0  0  0  0  0
  -27.5130  -36.5280   24.8500 C   0  0  0  0  0  1  0  0  0  0  0  0
  -26.4370  -36.8030   23.9010 N   0  0  0  0  0  0  0  0  0  0  0  0
  -26.0450  -37.7170   24.1200 H   0  0  0  0  0  0  0  0  0  0  0  0
  -26.3090  -31.0440   24.6430 C   0  0  1  0  0  0  0  0  0  0  0  0
  -25.2500  -30.7310   25.7260 C   0  0  0  0  0  1  0  0  0  0  0  0
  -26.8370  -29.6980   24.1000 C   0  0  0  0  0  1  0  0  0  0  0  0
  -27.5050  -31.7430   25.3300 C   0  0  0  0  0  1  0  0  0  0  0  0
  1  7  1  0
  2  8  1  0
  2  1  1  0
  4  3  1  0
  6 10  1  0
  7  5  1  0
  7 15  1  0
  8  6  1  0
  8  9  1  0
  9 11  1  6
  9  3  1  0
  9  5  1  0
 10 12  1  6
 10 59  1  0
 10  4  1  0
 13 16  1  0
 14 17  1  0
 15 13  2  0
 16 19  1  0
 17 16  2  0
 17 20  1  0
 18 15  1  0
 18 14  2  0
 21 27  1  0
 21 29  1  0
 22 27  1  0
 23 24  1  0
 23 22  1  0
 25 24  1  0
 25 34  1  0
 25 26  1  0
 27 26  1  0
 28 21  2  0
 29 18  1  0
 30 29  1  0
 31 32  2  0
 32 51  1  0
 33 36  1  0
 33 32  1  0
 34 35  1  0
 34 31  1  0
 35 33  2  0
 36 37  1  0
 37 38  2  0
 39 42  1  0
 39 38  1  0
 40 39  2  0
 41 40  1  0
 41 36  2  0
 42 43  1  0
 43 48  2  0
 43 44  1  0
 44 45  2  0
 45 46  1  0
 46 50  1  0
 47 46  2  0
 48 47  1  0
 49 48  1  0
 51 52  1  0
 52 54  1  0
 52 55  1  0
 53 51  2  0
 56 31  1  0
 56 57  1  0
 58 56  1  0
 59 60  1  0
 60 62  1  0
 61 72  2  0
 62 67  1  0
 63 71  1  0
 63 73  1  0
 64 70  1  0
 64 66  1  0
 65 71  1  0
 66 65  1  0
 67 66  2  0
 68 69  1  0
 68 62  2  0
 69 64  2  0
 70 63  1  0
 71 61  1  0
 73 75  2  0
 74 73  1  0
 76 74  1  0
 77 86  2  0
 77 82  1  0
 78 74  1  0
 78 82  1  0
 79 78  1  0
 80 81  1  0
 80 79  1  0
 81 77  1  0
 82 83  2  0
 83 84  1  0
 85 84  2  0
 86 85  1  0
 87 61  1  0
 87 88  1  0
 87 97  1  0
 88 91  1  0
 89 93  1  0
 89 88  1  0
 90 89  2  0
 93 92  1  0
 93 95  1  0
 95 96  1  0
 95 94  1  0
 97100  1  1
 97 98  1  0
 99 97  1  0
M  ISO  4  21 100  29 100  59 101  60 101
M  END
>  <TORSDO>  (8) 
F 18

>  <SCORE>  (8) 
-3.280

>  <name>  (8) 
7

>  <ligand_id>  (8) 
7

>  <original_smiles>  (8) 
[H]c1c([H])c([H])c2c(c1[H])C([H])([H])C([H])([H])C([H])([H])C2([H])N([H])C(=O)C1([H])N(C(=O)C([H])(N([H])C(=O)C([H])(N([H])C([H])([H])[H])C([H])([H])[H])C(C([H])([H])[H])(C([H])([H])[H])C([H])([H])[H])C([H])([H])c2c([H])c(OC([H])([H])C3(C([H])([H])[H])C([H])([H])C([H])([H])C4(C([H])([H])[H])C([H])([H])C([H])(c5c([H])c(C([H])([H])[H])c(C([H])([H])[H])c([H])c5N([H])C(=O)N5C([H])([H])C([H])([H])C([H])([H])C([H])(n6nc(-c7c([H])c([H])c(Oc8c([H])c([H])c(F)c([H])c8F)c([H])c7[H])c(C(=O)N([H])[H])c6N([H])[H])C5([H])[H])C([H])([H])C([H])([H])C4([H])C3([H])[H])c([H])c([H])c2C1([H])[H]

>  <smiles>  (8) 
[H]c1c([H])c([H])c2c(c1[H])C([H])([H])C([H])([H])C([H])([H])C2([H])N([H])C(=O)C1([H])N(C(=O)C([H])(N([H])C(=O)C([H])(N([H])C([H])([H])[H])C([H])([H])[H])C(C([H])([H])[H])(C([H])([H])[H])C([H])([H])[H])C([H])([H])c2c([H])c(OC([H])([H])C3(C([H])([H])[H])C([H])([H])C([H])([H])C4(C([H])([H])[H])C([H])([H])C([H])(c5c([H])c(C([H])([H])[H])c(C([H])([H])[H])c([H])c5N([H])C(=O)N5C([H])([H])C([H])([H])C([H])([H])C([H])(n6nc(-c7c([H])c([H])c(Oc8c([H])c([H])c(F)c([H])c8F)c([H])c7[H])c(C(=O)N([H])[H])c6N([H])[H])C5([H])[H])C([H])([H])C([H])([H])C4([H])C3([H])[H])c([H])c([H])c2C1([H])[H]

$$$$
8:0:0
     RDKit          3D

 98107  0  0  1  0  0  0  0  0999 V2000
  -27.6780  -22.8510   22.8420 C   0  0  0  0  0  3  0  0  0  0  0  0
  -27.5630  -23.3850   20.0900 C   0  0  0  0  0  0  0  0  0  0  0  0
  -28.7890  -23.5780   20.7850 C   0  0  0  0  0  0  0  0  0  0  0  0
  -28.8270  -23.3310   22.1840 C   0  0  0  0  0  0  0  0  0  0  0  0
  -26.4780  -22.6220   22.1450 C   0  0  0  0  0  0  0  0  0  0  0  0
  -26.4040  -22.9040   20.7590 C   0  0  0  0  0  0  0  0  0  0  0  0
  -27.5040  -23.7000   18.6400 C   0  0  0  0  0  0  0  0  0  0  0  0
  -27.5220  -25.1840   18.2840 C   0  0  0  0  0  2  0  0  0  0  0  0
  -29.8460  -25.4280   19.2440 C   0  0  0  0  0  2  0  0  0  0  0  0
  -30.0450  -24.0120   20.0050 C   0  0  0  0  0  3  0  0  0  0  0  0
  -28.4050  -26.1200   19.1590 C   0  0  0  0  0  3  0  0  0  0  0  0
  -30.0790  -23.5650   23.0190 C   0  0  0  0  0  1  0  0  0  0  0  0
  -25.2870  -22.0800   22.9180 C   0  0  0  0  0  1  0  0  0  0  0  0
  -25.0910  -22.7120   19.9950 C   0  0  0  0  0  1  0  0  0  0  0  0
  -27.3660  -22.8510   17.7540 O   0  0  0  0  0  0  0  0  0  0  0  0
  -28.3760  -27.5860   18.7800 O   0  0  0  0  0  0  0  0  0  0  0  0
  -24.5400  -31.9360   23.1690 C   0  0  0  0  0  0  0  0  0  0  0  0
  -27.2240  -28.3680   19.0240 C   0  0  0  0  0  0  0  0  0  0  0  0
  -23.3180  -30.8030   21.3520 C   0  0  0  0  0  3  0  0  0  0  0  0
  -24.7590  -29.7480   19.5310 C   0  0  0  0  0  0  0  0  0  0  0  0
  -25.8080  -31.3810   21.0840 C   0  0  0  0  0  2  0  0  0  0  0  0
  -25.9360  -30.1790   20.1570 C   0  0  0  0  0  0  0  0  0  0  0  0
  -27.1690  -29.4910   19.9140 C   0  0  0  0  0  3  0  0  0  0  0  0
  -26.0370  -28.0920   18.3130 C   0  0  0  0  0  3  0  0  0  0  0  0
  -24.8120  -28.7080   18.6000 C   0  0  0  0  0  3  0  0  0  0  0  0
  -23.4660  -30.4660   19.8480 C   0  0  0  0  0  2  0  0  0  0  0  0
  -24.5760  -31.3820   21.9230 N   0  0  0  0  0  0  0  0  0  0  0  0
  -23.4860  -31.9920   23.8180 O   0  0  0  0  0  0  0  0  0  0  0  0
  -22.8250  -29.5450   22.1070 C   0  0  0  0  0  0  0  0  0  0  0  0
  -21.5450  -29.1830   21.9110 N   0  0  0  0  0  0  0  0  0  0  0  0
  -23.5920  -28.9030   22.8300 O   0  0  0  0  0  0  0  0  0  0  0  0
  -20.9770  -29.7660   21.3130 H   0  0  0  0  0  0  0  0  0  0  0  0
  -18.3710  -27.4710   22.2010 C   0  0  0  0  0  0  0  0  0  0  0  0
  -20.8830  -28.0140   22.4920 C   0  0  0  0  0  3  0  0  0  0  0  0
  -21.1500  -26.7450   21.6490 C   0  0  0  0  0  2  0  0  0  0  0  0
  -20.0640  -26.4760   20.6040 C   0  0  0  0  0  2  0  0  0  0  0  0
  -18.6970  -26.3110   21.2740 C   0  0  0  0  0  2  0  0  0  0  0  0
  -19.3960  -28.2800   22.7590 C   0  0  0  0  0  0  0  0  0  0  0  0
  -19.0360  -29.3660   23.5860 C   0  0  0  0  0  3  0  0  0  0  0  0
  -17.6840  -29.6460   23.8590 C   0  0  0  0  0  3  0  0  0  0  0  0
  -16.6750  -28.8320   23.3160 C   0  0  0  0  0  3  0  0  0  0  0  0
  -17.0190  -27.7450   22.4930 C   0  0  0  0  0  3  0  0  0  0  0  0
  -25.8160  -32.5470   23.8240 C   0  0  0  0  0  3  0  0  0  0  0  0
  -26.3310  -31.7230   25.0660 C   0  0  1  0  0  0  0  0  0  0  0  0
  -25.2140  -31.3430   26.0680 C   0  0  0  0  0  1  0  0  0  0  0  0
  -27.0180  -30.4140   24.6090 C   0  0  0  0  0  1  0  0  0  0  0  0
  -27.4030  -32.5380   25.8270 C   0  0  0  0  0  1  0  0  0  0  0  0
  -25.4950  -33.9270   24.2170 N   0  0  0  0  0  0  0  0  0  0  0  0
  -25.7750  -35.0130   23.4860 C   0  0  0  0  0  0  0  0  0  0  0  0
  -26.4020  -34.9600   22.4240 O   0  0  0  0  0  0  0  0  0  0  0  0
  -24.9400  -34.0400   25.0530 H   0  0  0  0  0  0  0  0  0  0  0  0
  -23.9960  -36.7790   23.2740 C   0  0  0  0  0  1  0  0  0  0  0  0
  -25.2810  -36.3740   24.0150 C   0  0  0  0  0  3  0  0  0  0  0  0
  -27.4380  -37.2660   24.7730 C   0  0  0  0  0  1  0  0  0  0  0  0
  -26.2850  -37.4530   23.8960 N   0  0  0  0  0  0  0  0  0  0  0  0
  -25.8710  -38.3560   24.1060 H   0  0  0  0  0  0  0  0  0  0  0  0
  -30.6750  -22.7460   19.2370 C   0  0  0  0  0  2  0  0  0  0  0  0
  -31.0340  -21.4340   20.0840 C   0  0  0  0  0  3  0  0  0  0  0  0
  -30.9900  -19.9850   19.4120 C   0  0  0  0  0  3  0  0  0  0  0  0
  -31.6330  -18.7820   20.2410 C   0  0  0  0  0  2  0  0  0  0  0  0
  -31.8700  -16.2430   19.7180 C   0  0  0  0  0  0  0  0  0  0  0  0
  -31.5990  -13.9490   18.7870 C   0  0  0  0  0  2  0  0  0  0  0  0
  -30.6670  -13.9890   17.5560 C   0  0  0  0  0  2  0  0  0  0  0  0
  -29.1910  -13.8830   17.9830 C   0  0  0  0  0  2  0  0  0  0  0  0
  -28.8330  -14.8460   19.1460 C   0  0  0  0  0  3  0  0  0  0  0  0
  -29.8790  -14.7760   20.2800 C   0  0  0  0  0  2  0  0  0  0  0  0
  -31.1950  -15.0500   19.6840 N   0  0  0  0  0  0  0  0  0  0  0  0
  -33.0470  -16.3220   19.3580 O   0  0  0  0  0  0  0  0  0  0  0  0
  -31.1480  -17.3720   20.0050 N   0  0  0  0  0  0  0  0  0  0  0  0
  -30.1740  -17.2030   20.2100 H   0  0  0  0  0  0  0  0  0  0  0  0
  -26.4620  -15.5360   19.8530 C   0  0  0  0  0  0  0  0  0  0  0  0
  -25.3690  -14.8060   20.2350 C   0  0  0  0  0  0  0  0  0  0  0  0
  -25.7860  -13.4400   20.2300 C   0  0  0  0  0  0  0  0  0  0  0  0
  -27.4760  -14.6180   19.6370 N   0  0  0  0  0  0  0  0  0  0  0  0
  -27.0750  -13.3530   19.9250 N   0  0  0  0  0  0  0  0  0  0  0  0
  -25.0180  -12.2070   20.4420 C   0  0  0  0  0  0  0  0  0  0  0  0
  -25.3710  -11.2780   21.4460 C   0  0  0  0  0  3  0  0  0  0  0  0
  -24.6040  -10.1090   21.6410 C   0  0  0  0  0  3  0  0  0  0  0  0
  -23.4710   -9.8590   20.8320 C   0  0  0  0  0  0  0  0  0  0  0  0
  -23.1380  -10.7750   19.8180 C   0  0  0  0  0  3  0  0  0  0  0  0
  -23.9040  -11.9350   19.6210 C   0  0  0  0  0  3  0  0  0  0  0  0
  -22.6830   -8.7380   20.9340 O   0  0  0  0  0  0  0  0  0  0  0  0
  -22.3750   -8.1820   22.1480 C   0  0  0  0  0  0  0  0  0  0  0  0
  -21.7410   -8.9250   23.1690 C   0  0  0  0  0  3  0  0  0  0  0  0
  -21.3800   -8.2960   24.3770 C   0  0  0  0  0  3  0  0  0  0  0  0
  -21.6430   -6.9250   24.5650 C   0  0  0  0  0  0  0  0  0  0  0  0
  -22.2680   -6.1840   23.5480 C   0  0  0  0  0  3  0  0  0  0  0  0
  -22.6310   -6.8090   22.3430 C   0  0  0  0  0  0  0  0  0  0  0  0
  -23.2140   -6.0840   21.3570 F   0  0  0  0  0  0  0  0  0  0  0  0
  -21.2880   -6.3200   25.7210 F   0  0  0  0  0  0  0  0  0  0  0  0
  -23.9880  -15.3350   20.4950 C   0  0  0  0  0  0  0  0  0  0  0  0
  -23.2410  -14.6880   21.3820 N   0  0  0  0  0  0  0  0  0  0  0  0
  -23.5820  -16.3580   19.9440 O   0  0  0  0  0  0  0  0  0  0  0  0
  -23.5840  -13.8600   21.8480 H   0  0  0  0  0  0  0  0  0  0  0  0
  -22.3130  -15.0240   21.5990 H   0  0  0  0  0  0  0  0  0  0  0  0
  -26.6730  -16.8970   19.6480 N   0  0  0  0  0  0  0  0  0  0  0  0
  -25.9250  -17.5760   19.7330 H   0  0  0  0  0  0  0  0  0  0  0  0
  -27.5290  -17.2940   19.2850 H   0  0  0  0  0  0  0  0  0  0  0  0
  2  6  2  0
  2  3  1  0
  3  4  2  0
  4  1  1  0
  4 12  1  0
  5  1  2  0
  5 13  1  0
  6  5  1  0
  7  2  1  0
  8  7  1  0
  8 11  1  0
  9 10  1  0
 10 57  1  0
 10  3  1  0
 11 16  1  0
 11  9  1  0
 14  6  1  0
 15  7  2  0
 16 18  1  0
 17 28  2  0
 18 23  1  0
 19 27  1  0
 19 29  1  0
 20 26  1  0
 20 22  1  0
 21 27  1  0
 22 21  1  0
 23 22  2  0
 24 25  1  0
 24 18  2  0
 25 20  2  0
 26 19  1  0
 27 17  1  0
 29 31  2  0
 30 29  1  0
 32 30  1  0
 33 42  2  0
 33 38  1  0
 34 30  1  0
 34 38  1  0
 35 34  1  0
 36 37  1  0
 36 35  1  0
 37 33  1  0
 38 39  2  0
 39 40  1  0
 41 40  2  0
 42 41  1  0
 43 17  1  0
 43 48  1  0
 43 44  1  0
 44 47  1  1
 44 45  1  0
 46 44  1  0
 48 51  1  0
 49 53  1  0
 49 48  1  0
 50 49  2  0
 53 52  1  0
 55 53  1  0
 55 56  1  0
 55 54  1  0
 57 58  1  0
 59 58  2  0
 59 60  1  0
 61 69  1  0
 62 67  1  0
 63 64  1  0
 63 62  1  0
 65 64  1  0
 65 74  1  0
 65 66  1  0
 67 61  1  0
 67 66  1  0
 68 61  2  0
 69 70  1  0
 69 60  1  0
 71 72  2  0
 72 91  1  0
 73 72  1  0
 73 76  1  0
 74 71  1  0
 74 75  1  0
 75 73  2  0
 76 77  1  0
 77 78  2  0
 79 82  1  0
 79 78  1  0
 80 79  2  0
 81 80  1  0
 81 76  2  0
 82 83  1  0
 83 88  2  0
 83 84  1  0
 84 85  2  0
 85 86  1  0
 86 90  1  0
 87 86  2  0
 88 87  1  0
 89 88  1  0
 91 92  1  0
 92 95  1  0
 92 94  1  0
 93 91  2  0
 96 97  1  0
 96 71  1  0
 98 96  1  0
M  ISO  4  11 101  16 101  61 100  69 100
M  END
>  <TORSDO>  (9) 
F 20

>  <SCORE>  (9) 
0.853

>  <name>  (9) 
8

>  <ligand_id>  (9) 
8

>  <original_smiles>  (9) 
[H]c1c([H])c([H])c2c(c1[H])C([H])([H])C([H])([H])C([H])([H])C2([H])N([H])C(=O)C1([H])N(C(=O)C([H])(N([H])C(=O)C([H])(N([H])C([H])([H])[H])C([H])([H])[H])C(C([H])([H])[H])(C([H])([H])[H])C([H])([H])[H])C([H])([H])c2c([H])c(OC3([H])C([H])([H])C(=O)c4c(C([H])([H])[H])c(C([H])([H])[H])c([H])c(C([H])([H])[H])c4C([H])(C([H])([H])C([H])([H])C([H])([H])C([H])([H])N([H])C(=O)N4C([H])([H])C([H])([H])C([H])([H])C([H])(n5nc(-c6c([H])c([H])c(Oc7c([H])c([H])c(F)c([H])c7F)c([H])c6[H])c(C(=O)N([H])[H])c5N([H])[H])C4([H])[H])C3([H])[H])c([H])c([H])c2C1([H])[H]

>  <smiles>  (9) 
[H]c1c([H])c([H])c2c(c1[H])C([H])([H])C([H])([H])C([H])([H])C2([H])N([H])C(=O)C1([H])N(C(=O)C([H])(N([H])C(=O)C([H])(N([H])C([H])([H])[H])C([H])([H])[H])C(C([H])([H])[H])(C([H])([H])[H])C([H])([H])[H])C([H])([H])c2c([H])c(OC3([H])C([H])([H])C(=O)c4c(C([H])([H])[H])c(C([H])([H])[H])c([H])c(C([H])([H])[H])c4C([H])(C([H])([H])C([H])([H])C([H])([H])C([H])([H])N([H])C(=O)N4C([H])([H])C([H])([H])C([H])([H])C([H])(n5nc(-c6c([H])c([H])c(Oc7c([H])c([H])c(F)c([H])c7F)c([H])c6[H])c(C(=O)N([H])[H])c5N([H])[H])C4([H])[H])C3([H])[H])c([H])c([H])c2C1([H])[H]

$$$$
9:0:0
     RDKit          3D

 92101  0  0  1  0  0  0  0  0999 V2000
  -30.1950  -18.2160   21.1680 C   0  0  0  0  0  3  0  0  0  0  0  0
  -29.6880  -19.6220   20.9550 C   0  0  0  0  0  0  0  0  0  0  0  0
  -29.7890  -16.9580   20.4780 C   0  0  0  0  0  0  0  0  0  0  0  0
  -28.6700  -19.9210   20.0140 C   0  0  0  0  0  0  0  0  0  0  0  0
  -28.8370  -17.3770   19.4590 C   0  0  0  0  0  0  0  0  0  0  0  0
  -28.2470  -18.7220   19.3140 C   0  0  0  0  0  0  0  0  0  0  0  0
  -30.2120  -20.9050   21.6280 C   0  0  0  0  0  0  0  0  0  0  0  0
  -28.0720  -21.4540   19.7470 C   0  0  0  0  0  2  0  0  0  0  0  0
  -29.4350  -22.3210   21.5740 C   0  0  0  0  0  2  0  0  0  0  0  0
  -28.7800  -22.8970   20.2320 C   0  0  1  0  0  0  0  0  0  0  0  0
  -28.5390  -16.4180   18.3140 C   0  0  0  0  0  1  0  0  0  0  0  0
  -27.1070  -18.8780   18.3100 C   0  0  0  0  0  1  0  0  0  0  0  0
  -29.8850  -23.1840   19.2060 C   0  0  0  0  0  1  0  0  0  0  0  0
  -31.2570  -20.8710   22.2830 O   0  0  0  0  0  0  0  0  0  0  0  0
  -30.5080  -15.4290   20.5730 C   0  0  0  0  0  0  0  0  0  0  0  0
  -30.5320  -12.9890   19.7090 C   0  0  0  0  0  2  0  0  0  0  0  0
  -29.6550  -12.7310   18.4560 C   0  0  0  0  0  2  0  0  0  0  0  0
  -28.1890  -12.4740   18.8470 C   0  0  0  0  0  2  0  0  0  0  0  0
  -27.6870  -13.4400   19.9480 C   0  0  0  0  0  3  0  0  0  0  0  0
  -28.6940  -13.6180   21.0980 C   0  0  0  0  0  2  0  0  0  0  0  0
  -29.9390  -14.1270   20.5040 N   0  0  0  0  0  0  0  0  0  0  0  0
  -31.7430  -15.3930   20.4890 O   0  0  0  0  0  0  0  0  0  0  0  0
  -25.2850  -13.9610   20.6240 C   0  0  0  0  0  0  0  0  0  0  0  0
  -24.2230  -13.1660   20.9490 C   0  0  0  0  0  0  0  0  0  0  0  0
  -24.7140  -11.8240   20.9400 C   0  0  0  0  0  0  0  0  0  0  0  0
  -26.3500  -13.1040   20.4210 N   0  0  0  0  0  0  0  0  0  0  0  0
  -26.0170  -11.8130   20.6800 N   0  0  0  0  0  0  0  0  0  0  0  0
  -24.0020  -10.5490   21.0990 C   0  0  0  0  0  0  0  0  0  0  0  0
  -24.3970   -9.5970   22.0650 C   0  0  0  0  0  3  0  0  0  0  0  0
  -23.6810   -8.3900   22.2130 C   0  0  0  0  0  3  0  0  0  0  0  0
  -22.5580   -8.1250   21.3950 C   0  0  0  0  0  0  0  0  0  0  0  0
  -22.1840   -9.0650   20.4160 C   0  0  0  0  0  3  0  0  0  0  0  0
  -22.9000  -10.2640   20.2670 C   0  0  0  0  0  3  0  0  0  0  0  0
  -21.8170   -6.9690   21.4510 O   0  0  0  0  0  0  0  0  0  0  0  0
  -21.6800   -6.2530   22.6130 C   0  0  0  0  0  0  0  0  0  0  0  0
  -21.0790   -6.8090   23.7630 C   0  0  0  0  0  3  0  0  0  0  0  0
  -20.8980   -6.0170   24.9150 C   0  0  0  0  0  3  0  0  0  0  0  0
  -21.3100   -4.6710   24.9160 C   0  0  0  0  0  0  0  0  0  0  0  0
  -21.9030   -4.1130   23.7690 C   0  0  0  0  0  3  0  0  0  0  0  0
  -22.0860   -4.9030   22.6200 C   0  0  0  0  0  0  0  0  0  0  0  0
  -22.6370   -4.3560   21.5090 F   0  0  0  0  0  0  0  0  0  0  0  0
  -21.1290   -3.9070   26.0190 F   0  0  0  0  0  0  0  0  0  0  0  0
  -22.8060  -13.6180   21.1580 C   0  0  0  0  0  0  0  0  0  0  0  0
  -22.0540  -12.9090   21.9890 N   0  0  0  0  0  0  0  0  0  0  0  0
  -22.3750  -14.6380   20.6190 O   0  0  0  0  0  0  0  0  0  0  0  0
  -22.4130  -12.0850   22.4490 H   0  0  0  0  0  0  0  0  0  0  0  0
  -21.1010  -13.1940   22.1700 H   0  0  0  0  0  0  0  0  0  0  0  0
  -25.4310  -15.3370   20.4580 N   0  0  0  0  0  0  0  0  0  0  0  0
  -24.6520  -15.9780   20.5480 H   0  0  0  0  0  0  0  0  0  0  0  0
  -26.2970  -15.8030   20.2200 H   0  0  0  0  0  0  0  0  0  0  0  0
  -27.8710  -24.4390   20.2720 C   0  0  0  0  0  2  0  0  0  0  0  0
  -28.2050  -26.0390   20.2710 O   0  0  0  0  0  0  0  0  0  0  0  0
  -24.6880  -32.0010   23.2250 C   0  0  0  0  0  0  0  0  0  0  0  0
  -27.2070  -27.1330   20.2120 C   0  0  0  0  0  0  0  0  0  0  0  0
  -23.4820  -30.6050   21.5960 C   0  0  0  0  0  3  0  0  0  0  0  0
  -24.9180  -29.0020   20.1680 C   0  0  0  0  0  0  0  0  0  0  0  0
  -26.0480  -30.8180   21.4360 C   0  0  0  0  0  2  0  0  0  0  0  0
  -26.1100  -29.4090   20.7830 C   0  0  0  0  0  0  0  0  0  0  0  0
  -27.2520  -28.4930   20.7810 C   0  0  0  0  0  3  0  0  0  0  0  0
  -25.9870  -26.8730   19.5490 C   0  0  0  0  0  3  0  0  0  0  0  0
  -24.8790  -27.7530   19.5320 C   0  0  0  0  0  3  0  0  0  0  0  0
  -23.7030  -29.9240   20.2190 C   0  0  0  0  0  2  0  0  0  0  0  0
  -24.7610  -31.1660   22.1400 N   0  0  0  0  0  0  0  0  0  0  0  0
  -23.6020  -32.2940   23.7490 O   0  0  0  0  0  0  0  0  0  0  0  0
  -22.7940  -29.6070   22.5640 C   0  0  0  0  0  0  0  0  0  0  0  0
  -21.4690  -29.4160   22.4190 N   0  0  0  0  0  0  0  0  0  0  0  0
  -23.4550  -29.0090   23.4150 O   0  0  0  0  0  0  0  0  0  0  0  0
  -20.9860  -29.9500   21.7110 H   0  0  0  0  0  0  0  0  0  0  0  0
  -18.0970  -28.1740   22.9060 C   0  0  0  0  0  0  0  0  0  0  0  0
  -20.6500  -28.4750   23.1910 C   0  0  0  0  0  3  0  0  0  0  0  0
  -20.7750  -27.0370   22.6350 C   0  0  0  0  0  2  0  0  0  0  0  0
  -19.6870  -26.6890   21.6140 C   0  0  0  0  0  2  0  0  0  0  0  0
  -18.2970  -26.8230   22.2420 C   0  0  0  0  0  2  0  0  0  0  0  0
  -19.2000  -28.9580   23.3370 C   0  0  0  0  0  0  0  0  0  0  0  0
  -18.9570  -30.2210   23.9180 C   0  0  0  0  0  3  0  0  0  0  0  0
  -17.6430  -30.7010   24.0730 C   0  0  0  0  0  3  0  0  0  0  0  0
  -16.5540  -29.9170   23.6560 C   0  0  0  0  0  3  0  0  0  0  0  0
  -16.7810  -28.6550   23.0790 C   0  0  0  0  0  3  0  0  0  0  0  0
  -25.9640  -32.6400   23.8490 C   0  0  0  0  0  3  0  0  0  0  0  0
  -25.6450  -34.0340   24.2060 N   0  0  0  0  0  0  0  0  0  0  0  0
  -25.9260  -35.1020   23.4470 C   0  0  0  0  0  0  0  0  0  0  0  0
  -26.5470  -35.0190   22.3840 O   0  0  0  0  0  0  0  0  0  0  0  0
  -25.0920  -34.1710   25.0400 H   0  0  0  0  0  0  0  0  0  0  0  0
  -24.1480  -36.8690   23.2220 C   0  0  0  0  0  1  0  0  0  0  0  0
  -25.4470  -36.4810   23.9460 C   0  0  0  0  0  3  0  0  0  0  0  0
  -27.6060  -37.4120   24.6520 C   0  0  0  0  0  1  0  0  0  0  0  0
  -26.4490  -37.5540   23.7720 N   0  0  0  0  0  0  0  0  0  0  0  0
  -26.0350  -38.4660   23.9400 H   0  0  0  0  0  0  0  0  0  0  0  0
  -26.4880  -31.8610   25.1180 C   0  0  1  0  0  0  0  0  0  0  0  0
  -25.3920  -31.5690   26.1690 C   0  0  0  0  0  1  0  0  0  0  0  0
  -27.1200  -30.5080   24.7160 C   0  0  0  0  0  1  0  0  0  0  0  0
  -27.6070  -32.6770   25.8090 C   0  0  0  0  0  1  0  0  0  0  0  0
  2  1  1  0
  2  7  1  0
  3 15  1  0
  3  1  2  0
  4  2  2  0
  5  3  1  0
  6  5  2  0
  6  4  1  0
  7 14  2  0
  8  4  1  0
  8 10  1  0
  9  7  1  0
 10 13  1  6
 10 51  1  0
 10  9  1  0
 11  5  1  0
 12  6  1  0
 16 21  1  0
 17 18  1  0
 17 16  1  0
 19 18  1  0
 19 26  1  0
 19 20  1  0
 21 15  1  0
 21 20  1  0
 22 15  2  0
 23 24  2  0
 24 43  1  0
 25 24  1  0
 25 28  1  0
 26 23  1  0
 26 27  1  0
 27 25  2  0
 28 29  1  0
 29 30  2  0
 31 34  1  0
 31 30  1  0
 32 31  2  0
 33 32  1  0
 33 28  2  0
 34 35  1  0
 35 40  2  0
 35 36  1  0
 36 37  2  0
 37 38  1  0
 38 42  1  0
 39 38  2  0
 40 39  1  0
 41 40  1  0
 43 44  1  0
 44 47  1  0
 44 46  1  0
 45 43  2  0
 48 49  1  0
 48 23  1  0
 50 48  1  0
 52 51  1  0
 53 64  2  0
 54 52  1  0
 54 59  1  0
 55 63  1  0
 55 65  1  0
 56 62  1  0
 56 58  1  0
 57 63  1  0
 58 57  1  0
 59 58  2  0
 60 54  2  0
 61 60  1  0
 61 56  2  0
 62 55  1  0
 63 53  1  0
 65 67  2  0
 66 65  1  0
 68 66  1  0
 69 78  2  0
 69 74  1  0
 70 66  1  0
 70 74  1  0
 71 70  1  0
 72 73  1  0
 72 71  1  0
 73 69  1  0
 74 75  2  0
 75 76  1  0
 77 76  2  0
 78 77  1  0
 79 53  1  0
 79 80  1  0
 79 89  1  0
 80 83  1  0
 81 85  1  0
 81 80  1  0
 82 81  2  0
 85 84  1  0
 87 88  1  0
 87 85  1  0
 87 86  1  0
 89 92  1  1
 89 90  1  0
 91 89  1  0
M  ISO  4   3 100  15 100  51 101  52 101
M  END
>  <TORSDO>  (10) 
F 17

>  <SCORE>  (10) 
-15.374

>  <name>  (10) 
9

>  <ligand_id>  (10) 
9

>  <original_smiles>  (10) 
[H]c1c([H])c([H])c2c(c1[H])C([H])([H])C([H])([H])C([H])([H])C2([H])N([H])C(=O)C1([H])N(C(=O)C([H])(N([H])C(=O)C([H])(N([H])C([H])([H])[H])C([H])([H])[H])C(C([H])([H])[H])(C([H])([H])[H])C([H])([H])[H])C([H])([H])c2c([H])c(OC([H])([H])C3(C([H])([H])[H])C([H])([H])C(=O)c4c([H])c(C(=O)N5C([H])([H])C([H])([H])C([H])([H])C([H])(n6nc(-c7c([H])c([H])c(Oc8c([H])c([H])c(F)c([H])c8F)c([H])c7[H])c(C(=O)N([H])[H])c6N([H])[H])C5([H])[H])c(C([H])([H])[H])c(C([H])([H])[H])c4C3([H])[H])c([H])c([H])c2C1([H])[H]

>  <smiles>  (10) 
[H]c1c([H])c([H])c2c(c1[H])C([H])([H])C([H])([H])C([H])([H])C2([H])N([H])C(=O)C1([H])N(C(=O)C([H])(N([H])C(=O)C([H])(N([H])C([H])([H])[H])C([H])([H])[H])C(C([H])([H])[H])(C([H])([H])[H])C([H])([H])[H])C([H])([H])c2c([H])c(OC([H])([H])C3(C([H])([H])[H])C([H])([H])C(=O)c4c([H])c(C(=O)N5C([H])([H])C([H])([H])C([H])([H])C([H])(n6nc(-c7c([H])c([H])c(Oc8c([H])c([H])c(F)c([H])c8F)c([H])c7[H])c(C(=O)N([H])[H])c6N([H])[H])C5([H])[H])c(C([H])([H])[H])c(C([H])([H])[H])c4C3([H])[H])c([H])c([H])c2C1([H])[H]

$$$$
10:0:0
     RDKit          3D

 92101  0  0  1  0  0  0  0  0999 V2000
  -28.6720  -21.4940   21.5230 C   0  0  0  0  0  3  0  0  0  0  0  0
  -28.4090  -23.0040   21.5430 C   0  0  0  0  0  3  0  0  0  0  0  0
  -29.3440  -21.6250   19.4380 C   0  0  0  0  0  3  0  0  0  0  0  0
  -29.2010  -20.5620   20.4820 C   0  0  0  0  0  0  0  0  0  0  0  0
  -29.0880  -23.1500   19.4330 C   0  0  0  0  0  0  0  0  0  0  0  0
  -28.5490  -24.0610   20.4990 C   0  0  0  0  0  0  0  0  0  0  0  0
  -29.4930  -23.8460   15.7200 C   0  0  0  0  0  2  0  0  0  0  0  0
  -30.9470  -23.7250   16.1900 C   0  0  0  0  0  2  0  0  0  0  0  0
  -28.6560  -23.3640   16.9040 C   0  0  0  0  0  2  0  0  0  0  0  0
  -30.9170  -23.7910   17.7260 C   0  0  0  0  0  2  0  0  0  0  0  0
  -29.4330  -23.8650   18.1270 C   0  0  0  0  0  3  0  0  0  0  0  0
  -29.6740  -17.2780   20.3520 C   0  0  0  0  0  0  0  0  0  0  0  0
  -29.1490  -18.7420   20.4320 C   0  0  0  0  0  0  0  0  0  0  0  0
  -30.5700  -15.8090   20.2550 C   0  0  0  0  0  0  0  0  0  0  0  0
  -30.7290  -13.2410   19.5110 C   0  0  0  0  0  2  0  0  0  0  0  0
  -29.8630  -12.8240   18.2870 C   0  0  0  0  0  2  0  0  0  0  0  0
  -28.4340  -12.4600   18.7190 C   0  0  0  0  0  2  0  0  0  0  0  0
  -27.8960  -13.4670   19.7610 C   0  0  0  0  0  3  0  0  0  0  0  0
  -28.9010  -13.8080   20.8820 C   0  0  0  0  0  2  0  0  0  0  0  0
  -30.0900  -14.4250   20.2500 N   0  0  0  0  0  0  0  0  0  0  0  0
  -31.8010  -15.7470   20.0620 O   0  0  0  0  0  0  0  0  0  0  0  0
  -25.5300  -13.9650   20.5340 C   0  0  0  0  0  0  0  0  0  0  0  0
  -24.4760  -13.1710   20.8840 C   0  0  0  0  0  0  0  0  0  0  0  0
  -24.9580  -11.8260   20.8310 C   0  0  0  0  0  0  0  0  0  0  0  0
  -26.5810  -13.1080   20.2740 N   0  0  0  0  0  0  0  0  0  0  0  0
  -26.2520  -11.8120   20.5220 N   0  0  0  0  0  0  0  0  0  0  0  0
  -24.2390  -10.5550   20.9990 C   0  0  0  0  0  0  0  0  0  0  0  0
  -24.6350   -9.6010   21.9630 C   0  0  0  0  0  3  0  0  0  0  0  0
  -23.9120   -8.3980   22.1200 C   0  0  0  0  0  3  0  0  0  0  0  0
  -22.7780   -8.1400   21.3120 C   0  0  0  0  0  0  0  0  0  0  0  0
  -22.4020   -9.0830   20.3390 C   0  0  0  0  0  3  0  0  0  0  0  0
  -23.1270  -10.2760   20.1810 C   0  0  0  0  0  3  0  0  0  0  0  0
  -22.0310   -6.9890   21.3760 O   0  0  0  0  0  0  0  0  0  0  0  0
  -21.8620   -6.3030   22.5530 C   0  0  0  0  0  0  0  0  0  0  0  0
  -21.2910   -6.9090   23.6930 C   0  0  0  0  0  3  0  0  0  0  0  0
  -21.0730   -6.1490   24.8590 C   0  0  0  0  0  3  0  0  0  0  0  0
  -21.4150   -4.7850   24.8850 C   0  0  0  0  0  0  0  0  0  0  0  0
  -21.9790   -4.1780   23.7490 C   0  0  0  0  0  3  0  0  0  0  0  0
  -22.1990   -4.9350   22.5850 C   0  0  0  0  0  0  0  0  0  0  0  0
  -22.7220   -4.3400   21.4860 F   0  0  0  0  0  0  0  0  0  0  0  0
  -21.1990   -4.0520   26.0030 F   0  0  0  0  0  0  0  0  0  0  0  0
  -23.0740  -13.6320   21.1520 C   0  0  0  0  0  0  0  0  0  0  0  0
  -22.3480  -12.9210   22.0070 N   0  0  0  0  0  0  0  0  0  0  0  0
  -22.6310  -14.6590   20.6390 O   0  0  0  0  0  0  0  0  0  0  0  0
  -22.7210  -12.0910   22.4440 H   0  0  0  0  0  0  0  0  0  0  0  0
  -21.4070  -13.2110   22.2300 H   0  0  0  0  0  0  0  0  0  0  0  0
  -25.6800  -15.3420   20.3860 N   0  0  0  0  0  0  0  0  0  0  0  0
  -24.9150  -15.9890   20.5330 H   0  0  0  0  0  0  0  0  0  0  0  0
  -26.5430  -15.8050   20.1240 H   0  0  0  0  0  0  0  0  0  0  0  0
  -27.8200  -18.6000   20.4870 O   0  0  0  0  0  0  0  0  0  0  0  0
  -27.4460  -19.4720   20.5240 H   0  0  0  0  0  0  0  0  0  0  0  0
  -28.4790  -25.6830   20.5980 O   0  0  0  0  0  0  0  0  0  0  0  0
  -24.8490  -31.9590   23.4170 C   0  0  0  0  0  0  0  0  0  0  0  0
  -27.4660  -26.8600   20.5440 C   0  0  0  0  0  0  0  0  0  0  0  0
  -23.7140  -30.5580   21.7450 C   0  0  0  0  0  3  0  0  0  0  0  0
  -25.2040  -28.8960   20.3920 C   0  0  0  0  0  0  0  0  0  0  0  0
  -26.2950  -30.6930   21.7130 C   0  0  0  0  0  2  0  0  0  0  0  0
  -26.3750  -29.2540   21.0700 C   0  0  0  0  0  0  0  0  0  0  0  0
  -27.4880  -28.2630   21.1140 C   0  0  0  0  0  3  0  0  0  0  0  0
  -26.2670  -26.7130   19.8020 C   0  0  0  0  0  3  0  0  0  0  0  0
  -25.1890  -27.6520   19.7360 C   0  0  0  0  0  3  0  0  0  0  0  0
  -24.0000  -29.8510   20.3860 C   0  0  0  0  0  2  0  0  0  0  0  0
  -24.9750  -31.1040   22.3450 N   0  0  0  0  0  0  0  0  0  0  0  0
  -23.7400  -32.2650   23.8880 O   0  0  0  0  0  0  0  0  0  0  0  0
  -22.9620  -29.5880   22.6940 C   0  0  0  0  0  0  0  0  0  0  0  0
  -21.6360  -29.4330   22.5200 N   0  0  0  0  0  0  0  0  0  0  0  0
  -23.5860  -28.9690   23.5620 O   0  0  0  0  0  0  0  0  0  0  0  0
  -21.1830  -29.9810   21.8020 H   0  0  0  0  0  0  0  0  0  0  0  0
  -18.2240  -28.2570   22.9450 C   0  0  0  0  0  0  0  0  0  0  0  0
  -20.7800  -28.5020   23.2670 C   0  0  0  0  0  3  0  0  0  0  0  0
  -20.8810  -27.0710   22.6890 C   0  0  0  0  0  2  0  0  0  0  0  0
  -19.8010  -26.7630   21.6470 C   0  0  0  0  0  2  0  0  0  0  0  0
  -18.4060  -26.9130   22.2600 C   0  0  0  0  0  2  0  0  0  0  0  0
  -19.3380  -29.0100   23.4040 C   0  0  0  0  0  0  0  0  0  0  0  0
  -19.1110  -30.2650   24.0090 C   0  0  0  0  0  3  0  0  0  0  0  0
  -17.8040  -30.7680   24.1560 C   0  0  0  0  0  3  0  0  0  0  0  0
  -16.7060  -30.0140   23.7100 C   0  0  0  0  0  3  0  0  0  0  0  0
  -16.9160  -28.7590   23.1120 C   0  0  0  0  0  3  0  0  0  0  0  0
  -26.0910  -32.6100   24.0980 C   0  0  0  0  0  3  0  0  0  0  0  0
  -26.5440  -31.8520   25.4090 C   0  0  1  0  0  0  0  0  0  0  0  0
  -25.3940  -31.5920   26.4100 C   0  0  0  0  0  1  0  0  0  0  0  0
  -27.1790  -30.4850   25.0680 C   0  0  0  0  0  1  0  0  0  0  0  0
  -27.6350  -32.6710   26.1370 C   0  0  0  0  0  1  0  0  0  0  0  0
  -25.7570  -34.0110   24.4240 N   0  0  0  0  0  0  0  0  0  0  0  0
  -26.0820  -35.0760   23.6790 C   0  0  0  0  0  0  0  0  0  0  0  0
  -26.7500  -34.9840   22.6470 O   0  0  0  0  0  0  0  0  0  0  0  0
  -25.1600  -34.1550   25.2250 H   0  0  0  0  0  0  0  0  0  0  0  0
  -24.3220  -36.8560   23.3750 C   0  0  0  0  0  1  0  0  0  0  0  0
  -25.5900  -36.4630   24.1490 C   0  0  0  0  0  3  0  0  0  0  0  0
  -27.7310  -37.3890   24.9240 C   0  0  0  0  0  1  0  0  0  0  0  0
  -26.6060  -37.5300   24.0040 N   0  0  0  0  0  0  0  0  0  0  0  0
  -26.1890  -38.4460   24.1520 H   0  0  0  0  0  0  0  0  0  0  0  0
  1  2  1  0
  3  4  1  0
  4  1  2  0
  5  3  2  0
  5  6  1  0
  6 52  1  0
  6  2  2  0
  7  8  1  0
  7  9  1  0
  8 10  1  0
  9 11  1  0
 10 11  1  0
 11  5  1  0
 12 13  2  0
 13  4  1  0
 13 50  1  0
 14 12  2  0
 15 20  1  0
 16 17  1  0
 16 15  1  0
 18 17  1  0
 18 25  1  0
 18 19  1  0
 20 14  1  0
 20 19  1  0
 21 14  2  0
 22 23  2  0
 23 42  1  0
 24 23  1  0
 24 27  1  0
 25 26  1  0
 25 22  1  0
 26 24  2  0
 27 28  1  0
 28 29  2  0
 30 33  1  0
 30 29  1  0
 31 30  2  0
 32 31  1  0
 32 27  2  0
 33 34  1  0
 34 39  2  0
 34 35  1  0
 35 36  2  0
 36 37  1  0
 37 41  1  0
 38 37  2  0
 39 38  1  0
 40 39  1  0
 42 43  1  0
 43 46  1  0
 43 45  1  0
 44 42  2  0
 47 48  1  0
 47 22  1  0
 49 47  1  0
 50 51  1  0
 53 64  2  0
 54 52  1  0
 54 59  1  0
 55 63  1  0
 55 65  1  0
 56 58  1  0
 57 63  1  0
 58 59  2  0
 58 57  1  0
 60 54  2  0
 61 60  1  0
 61 56  2  0
 62 56  1  0
 62 55  1  0
 63 53  1  0
 65 67  2  0
 66 65  1  0
 68 66  1  0
 69 78  2  0
 69 74  1  0
 70 66  1  0
 70 74  1  0
 71 70  1  0
 72 73  1  0
 72 71  1  0
 73 69  1  0
 74 75  2  0
 75 76  1  0
 77 76  2  0
 78 77  1  0
 79 53  1  0
 79 84  1  0
 79 80  1  0
 80 83  1  1
 80 81  1  0
 82 80  1  0
 84 87  1  0
 85 89  1  0
 85 84  1  0
 86 85  2  0
 89 88  1  0
 91 89  1  0
 91 92  1  0
 91 90  1  0
M  ISO  4   6 101  12 100  14 100  52 101
M  END
>  <TORSDO>  (11) 
F 19

>  <SCORE>  (11) 
-14.746

>  <name>  (11) 
10

>  <ligand_id>  (11) 
10

>  <original_smiles>  (11) 
[H]OC(=C([H])C(=O)N1C([H])([H])C([H])([H])C([H])([H])C([H])(n2nc(-c3c([H])c([H])c(Oc4c([H])c([H])c(F)c([H])c4F)c([H])c3[H])c(C(=O)N([H])[H])c2N([H])[H])C1([H])[H])c1c([H])c([H])c(Oc2c([H])c([H])c3c(c2[H])C([H])([H])N(C(=O)C([H])(N([H])C(=O)C([H])(N([H])C([H])([H])[H])C([H])([H])[H])C(C([H])([H])[H])(C([H])([H])[H])C([H])([H])[H])C([H])(C(=O)N([H])C2([H])c4c([H])c([H])c([H])c([H])c4C([H])([H])C([H])([H])C2([H])[H])C3([H])[H])c(C2([H])C([H])([H])C([H])([H])C([H])([H])C2([H])[H])c1[H]

>  <smiles>  (11) 
[H]OC(=C([H])C(=O)N1C([H])([H])C([H])([H])C([H])([H])C([H])(n2nc(-c3c([H])c([H])c(Oc4c([H])c([H])c(F)c([H])c4F)c([H])c3[H])c(C(=O)N([H])[H])c2N([H])[H])C1([H])[H])c1c([H])c([H])c(Oc2c([H])c([H])c3c(c2[H])C([H])([H])N(C(=O)C([H])(N([H])C(=O)C([H])(N([H])C([H])([H])[H])C([H])([H])[H])C(C([H])([H])[H])(C([H])([H])[H])C([H])([H])[H])C([H])(C(=O)N([H])C2([H])c4c([H])c([H])c([H])c([H])c4C([H])([H])C([H])([H])C2([H])[H])C3([H])[H])c(C2([H])C([H])([H])C([H])([H])C([H])([H])C2([H])[H])c1[H]

$$$$
11:0:0
     RDKit          3D

 99109  0  0  1  0  0  0  0  0999 V2000
  -27.6480  -20.1920   18.5500 C   0  0  0  0  0  2  0  0  0  0  0  0
  -28.4290  -16.7570   20.0980 C   0  0  0  0  0  3  0  0  0  0  0  0
  -29.7280  -16.4820   19.6110 C   0  0  0  0  0  0  0  0  0  0  0  0
  -27.7410  -17.9330   19.7570 C   0  0  0  0  0  0  0  0  0  0  0  0
  -30.2450  -17.3460   18.5910 C   0  0  0  0  0  0  0  0  0  0  0  0
  -29.4530  -18.4160   18.0900 C   0  0  0  0  0  0  0  0  0  0  0  0
  -28.2700  -18.8020   18.7750 C   0  0  0  0  0  0  0  0  0  0  0  0
  -26.4710  -18.2660   20.5260 C   0  0  0  0  0  1  0  0  0  0  0  0
  -31.6790  -17.2260   18.0750 C   0  0  0  0  0  1  0  0  0  0  0  0
  -29.9170  -19.1910   16.8580 C   0  0  0  0  0  1  0  0  0  0  0  0
  -31.2330  -16.1540   22.2640 C   0  0  0  0  0  2  0  0  0  0  0  0
  -31.9020  -15.9610   20.9080 C   0  0  0  0  0  2  0  0  0  0  0  0
  -30.2960  -15.0270   21.8430 C   0  0  0  0  0  2  0  0  0  0  0  0
  -30.5620  -15.3830   20.3440 C   0  0  1  0  0  0  0  0  0  0  0  0
  -30.8520  -14.1180   19.4640 C   0  0  0  0  0  0  0  0  0  0  0  0
  -30.1960  -12.0470   18.3010 C   0  0  0  0  0  2  0  0  0  0  0  0
  -29.0990  -12.2960   17.2500 C   0  0  0  0  0  2  0  0  0  0  0  0
  -27.7090  -12.1780   17.8960 C   0  0  0  0  0  2  0  0  0  0  0  0
  -27.5880  -13.0470   19.1750 C   0  0  0  0  0  3  0  0  0  0  0  0
  -28.7810  -12.8100   20.1220 C   0  0  0  0  0  2  0  0  0  0  0  0
  -30.0250  -13.0420   19.3760 N   0  0  0  0  0  0  0  0  0  0  0  0
  -31.8860  -14.1450   18.7900 O   0  0  0  0  0  0  0  0  0  0  0  0
  -25.3740  -13.7420   20.2790 C   0  0  0  0  0  0  0  0  0  0  0  0
  -24.3320  -13.0080   20.7780 C   0  0  0  0  0  0  0  0  0  0  0  0
  -24.7020  -11.6360   20.6240 C   0  0  0  0  0  0  0  0  0  0  0  0
  -26.3160  -12.8200   19.8530 N   0  0  0  0  0  0  0  0  0  0  0  0
  -25.9250  -11.5460   20.1180 N   0  0  0  0  0  0  0  0  0  0  0  0
  -23.9410  -10.4060   20.8730 C   0  0  0  0  0  0  0  0  0  0  0  0
  -24.3720   -9.4500   21.8190 C   0  0  0  0  0  3  0  0  0  0  0  0
  -23.6140   -8.2830   22.0530 C   0  0  0  0  0  3  0  0  0  0  0  0
  -22.4080   -8.0660   21.3430 C   0  0  0  0  0  0  0  0  0  0  0  0
  -21.9970   -9.0100   20.3850 C   0  0  0  0  0  3  0  0  0  0  0  0
  -22.7570  -10.1680   20.1490 C   0  0  0  0  0  3  0  0  0  0  0  0
  -21.6160   -6.9520   21.4880 O   0  0  0  0  0  0  0  0  0  0  0  0
  -21.4890   -6.3120   22.6960 C   0  0  0  0  0  0  0  0  0  0  0  0
  -20.9850   -6.9680   23.8390 C   0  0  0  0  0  3  0  0  0  0  0  0
  -20.8080   -6.2540   25.0410 C   0  0  0  0  0  3  0  0  0  0  0  0
  -21.1240   -4.8830   25.0990 C   0  0  0  0  0  0  0  0  0  0  0  0
  -21.6200   -4.2260   23.9580 C   0  0  0  0  0  3  0  0  0  0  0  0
  -21.8000   -4.9390   22.7600 C   0  0  0  0  0  0  0  0  0  0  0  0
  -22.2590   -4.2960   21.6590 F   0  0  0  0  0  0  0  0  0  0  0  0
  -20.9460   -4.1940   26.2500 F   0  0  0  0  0  0  0  0  0  0  0  0
  -23.0240  -13.5430   21.2870 C   0  0  0  0  0  0  0  0  0  0  0  0
  -22.4250  -12.8770   22.2660 N   0  0  0  0  0  0  0  0  0  0  0  0
  -22.5460  -14.5880   20.8430 O   0  0  0  0  0  0  0  0  0  0  0  0
  -22.8250  -12.0280   22.6380 H   0  0  0  0  0  0  0  0  0  0  0  0
  -21.5520  -13.2140   22.6440 H   0  0  0  0  0  0  0  0  0  0  0  0
  -25.5950  -15.1080   20.1320 N   0  0  0  0  0  0  0  0  0  0  0  0
  -24.9010  -15.8020   20.3860 H   0  0  0  0  0  0  0  0  0  0  0  0
  -26.4370  -15.5170   19.7460 H   0  0  0  0  0  0  0  0  0  0  0  0
  -29.0200  -23.1740   20.5400 C   0  0  0  0  0  0  0  0  0  0  0  0
  -28.9960  -24.4280   21.0320 C   0  0  0  0  0  3  0  0  0  0  0  0
  -30.2560  -22.3170   20.5080 C   0  0  0  0  0  2  0  0  0  0  0  0
  -27.8830  -22.4220   19.8660 C   0  0  0  0  0  2  0  0  0  0  0  0
  -29.8490  -21.0660   19.7290 C   0  0  0  0  0  2  0  0  0  0  0  0
  -28.5700  -21.4140   18.9170 C   0  0  1  0  0  0  0  0  0  0  0  0
  -28.9480  -22.1600   17.6160 C   0  0  0  0  0  1  0  0  0  0  0  0
  -27.7970  -25.3500   21.0870 C   0  0  0  0  0  2  0  0  0  0  0  0
  -27.9870  -26.5020   20.2610 O   0  0  0  0  0  0  0  0  0  0  0  0
  -24.3530  -31.8010   23.2510 C   0  0  0  0  0  0  0  0  0  0  0  0
  -26.8660  -27.2870   20.2140 C   0  0  0  0  0  0  0  0  0  0  0  0
  -23.1030  -30.4180   21.6180 C   0  0  0  0  0  3  0  0  0  0  0  0
  -24.5150  -28.8370   20.2010 C   0  0  0  0  0  0  0  0  0  0  0  0
  -25.6330  -30.7210   21.4090 C   0  0  0  0  0  2  0  0  0  0  0  0
  -25.6850  -29.3460   20.7800 C   0  0  0  0  0  0  0  0  0  0  0  0
  -26.8680  -28.5760   20.7840 C   0  0  0  0  0  3  0  0  0  0  0  0
  -25.6850  -26.7880   19.6240 C   0  0  0  0  0  3  0  0  0  0  0  0
  -24.5090  -27.5580   19.6190 C   0  0  0  0  0  3  0  0  0  0  0  0
  -23.2900  -29.7200   20.2430 C   0  0  0  0  0  2  0  0  0  0  0  0
  -24.3810  -30.9930   22.1520 N   0  0  0  0  0  0  0  0  0  0  0  0
  -23.2820  -32.1050   23.7950 O   0  0  0  0  0  0  0  0  0  0  0  0
  -22.4300  -29.4230   22.5910 C   0  0  0  0  0  0  0  0  0  0  0  0
  -21.1010  -29.2730   22.4690 N   0  0  0  0  0  0  0  0  0  0  0  0
  -23.1010  -28.7860   23.4080 O   0  0  0  0  0  0  0  0  0  0  0  0
  -20.6230  -29.8410   21.7840 H   0  0  0  0  0  0  0  0  0  0  0  0
  -17.7000  -28.1690   22.9790 C   0  0  0  0  0  0  0  0  0  0  0  0
  -20.2630  -28.3650   23.2500 C   0  0  0  0  0  3  0  0  0  0  0  0
  -20.3290  -26.9240   22.6930 C   0  0  0  0  0  2  0  0  0  0  0  0
  -19.2240  -26.6180   21.6780 C   0  0  0  0  0  2  0  0  0  0  0  0
  -17.8420  -26.8090   22.3150 C   0  0  0  0  0  2  0  0  0  0  0  0
  -18.8370  -28.9070   23.4010 C   0  0  0  0  0  0  0  0  0  0  0  0
  -18.6540  -30.1820   23.9790 C   0  0  0  0  0  3  0  0  0  0  0  0
  -17.3630  -30.7200   24.1390 C   0  0  0  0  0  3  0  0  0  0  0  0
  -16.2390  -29.9790   23.7340 C   0  0  0  0  0  3  0  0  0  0  0  0
  -16.4080  -28.7070   23.1610 C   0  0  0  0  0  3  0  0  0  0  0  0
  -25.6590  -32.4020   23.8580 C   0  0  0  0  0  3  0  0  0  0  0  0
  -26.1640  -31.6330   25.1400 C   0  0  1  0  0  0  0  0  0  0  0  0
  -25.0670  -31.4330   26.2110 C   0  0  0  0  0  1  0  0  0  0  0  0
  -26.7160  -30.2390   24.7580 C   0  0  0  0  0  1  0  0  0  0  0  0
  -27.3310  -32.4070   25.7960 C   0  0  0  0  0  1  0  0  0  0  0  0
  -25.3960  -33.8120   24.1690 N   0  0  0  0  0  0  0  0  0  0  0  0
  -25.7660  -34.8440   23.3980 C   0  0  0  0  0  0  0  0  0  0  0  0
  -26.4370  -34.7060   22.3710 O   0  0  0  0  0  0  0  0  0  0  0  0
  -24.8040  -33.9970   24.9660 H   0  0  0  0  0  0  0  0  0  0  0  0
  -24.1020  -36.6880   23.0030 C   0  0  0  0  0  1  0  0  0  0  0  0
  -25.3190  -36.2530   23.8350 C   0  0  0  0  0  3  0  0  0  0  0  0
  -27.4670  -37.0800   24.6910 C   0  0  0  0  0  1  0  0  0  0  0  0
  -26.3880  -37.2700   23.7270 N   0  0  0  0  0  0  0  0  0  0  0  0
  -26.0060  -38.2040   23.8610 H   0  0  0  0  0  0  0  0  0  0  0  0
  1  7  1  0
  1 56  1  0
  3  2  2  0
  3 14  1  0
  4  2  1  0
  4  8  1  0
  5  3  1  0
  6  5  2  0
  6  7  1  0
  7  4  2  0
  9  5  1  0
 10  6  1  0
 12 11  1  0
 13 11  1  0
 14 12  1  0
 14 13  1  0
 14 15  1  6
 16 21  1  0
 17 18  1  0
 17 16  1  0
 19 18  1  0
 19 26  1  0
 19 20  1  0
 21 15  1  0
 21 20  1  0
 22 15  2  0
 23 24  2  0
 24 43  1  0
 25 24  1  0
 25 28  1  0
 26 27  1  0
 26 23  1  0
 27 25  2  0
 28 29  1  0
 29 30  2  0
 31 34  1  0
 31 30  1  0
 32 31  2  0
 33 32  1  0
 33 28  2  0
 34 35  1  0
 35 40  2  0
 35 36  1  0
 36 37  2  0
 37 38  1  0
 38 42  1  0
 39 38  2  0
 40 39  1  0
 41 40  1  0
 43 44  1  0
 44 46  1  0
 44 47  1  0
 45 43  2  0
 48 23  1  0
 48 49  1  0
 50 48  1  0
 51 52  2  0
 52 58  1  0
 53 51  1  0
 54 51  1  0
 55 53  1  0
 56 57  1  6
 56 55  1  0
 56 54  1  0
 59 58  1  0
 60 71  2  0
 61 59  1  0
 61 66  1  0
 62 70  1  0
 62 72  1  0
 63 69  1  0
 63 65  1  0
 64 70  1  0
 65 66  2  0
 65 64  1  0
 67 61  2  0
 68 67  1  0
 68 63  2  0
 69 62  1  0
 70 60  1  0
 72 74  2  0
 73 72  1  0
 75 73  1  0
 76 85  2  0
 76 81  1  0
 77 73  1  0
 77 81  1  0
 78 77  1  0
 79 80  1  0
 79 78  1  0
 80 76  1  0
 81 82  2  0
 82 83  1  0
 84 83  2  0
 85 84  1  0
 86 60  1  0
 86 91  1  0
 86 87  1  0
 87 90  1  1
 87 88  1  0
 89 87  1  0
 91 94  1  0
 92 96  1  0
 92 91  1  0
 93 92  2  0
 96 95  1  0
 98 96  1  0
 98 99  1  0
 98 97  1  0
M  ISO  4  14 100  15 100  58 101  59 101
M  END
>  <TORSDO>  (12) 
F 20

>  <SCORE>  (12) 
-11.754

>  <name>  (12) 
11

>  <ligand_id>  (12) 
11

>  <original_smiles>  (12) 
[H]C(=C1C([H])([H])C([H])([H])C(C([H])([H])[H])(C([H])([H])c2c(C([H])([H])[H])c([H])c(C3(C(=O)N4C([H])([H])C([H])([H])C([H])([H])C([H])(n5nc(-c6c([H])c([H])c(Oc7c([H])c([H])c(F)c([H])c7F)c([H])c6[H])c(C(=O)N([H])[H])c5N([H])[H])C4([H])[H])C([H])([H])C([H])([H])C3([H])[H])c(C([H])([H])[H])c2C([H])([H])[H])C1([H])[H])C([H])([H])Oc1c([H])c([H])c2c(c1[H])C([H])([H])N(C(=O)C([H])(N([H])C(=O)C([H])(N([H])C([H])([H])[H])C([H])([H])[H])C(C([H])([H])[H])(C([H])([H])[H])C([H])([H])[H])C([H])(C(=O)N([H])C1([H])c3c([H])c([H])c([H])c([H])c3C([H])([H])C([H])([H])C1([H])[H])C2([H])[H]

>  <smiles>  (12) 
[H]C(=C1C([H])([H])C([H])([H])C(C([H])([H])[H])(C([H])([H])c2c(C([H])([H])[H])c([H])c(C3(C(=O)N4C([H])([H])C([H])([H])C([H])([H])C([H])(n5nc(-c6c([H])c([H])c(Oc7c([H])c([H])c(F)c([H])c7F)c([H])c6[H])c(C(=O)N([H])[H])c5N([H])[H])C4([H])[H])C([H])([H])C([H])([H])C3([H])[H])c(C([H])([H])[H])c2C([H])([H])[H])C1([H])[H])C([H])([H])Oc1c([H])c([H])c2c(c1[H])C([H])([H])N(C(=O)C([H])(N([H])C(=O)C([H])(N([H])C([H])([H])[H])C([H])([H])[H])C(C([H])([H])[H])(C([H])([H])[H])C([H])([H])[H])C([H])(C(=O)N([H])C1([H])c3c([H])c([H])c([H])c([H])c3C([H])([H])C([H])([H])C1([H])[H])C2([H])[H]

$$$$
12:0:0
     RDKit          3D

 96103  0  0  1  0  0  0  0  0999 V2000
  -28.7020  -17.6530   18.8930 C   0  0  0  0  0  3  0  0  0  0  0  0
  -29.4590  -18.2820   19.9120 C   0  0  0  0  0  0  0  0  0  0  0  0
  -29.0570  -20.0360   19.9390 C   0  0  0  0  0  3  0  0  0  0  0  0
  -27.9880  -20.4150   19.0000 C   0  0  0  0  0  0  0  0  0  0  0  0
  -27.5050  -19.5470   17.9850 C   0  0  0  0  0  0  0  0  0  0  0  0
  -27.8480  -18.2050   17.9600 C   0  0  0  0  0  0  0  0  0  0  0  0
  -31.4180  -20.6500   22.3360 C   0  0  0  0  0  0  0  0  0  0  0  0
  -27.1730  -21.7740   19.0990 C   0  0  0  0  0  2  0  0  0  0  0  0
  -29.9670  -20.7360   22.7880 C   0  0  0  0  0  2  0  0  0  0  0  0
  -31.7370  -21.0710   20.9030 C   0  0  0  0  0  2  0  0  0  0  0  0
  -27.8420  -23.1820   18.8520 C   0  0  0  0  0  2  0  0  0  0  0  0
  -29.1640  -21.8490   22.0960 C   0  0  0  0  0  2  0  0  0  0  0  0
  -30.8040  -22.1660   20.3380 C   0  0  0  0  0  2  0  0  0  0  0  0
  -28.4070  -23.7280   20.1660 C   0  0  0  0  0  1  0  0  0  0  0  0
  -29.3100  -21.8890   20.5610 C   0  0  0  0  0  2  0  0  0  0  0  0
  -26.5650  -19.9880   16.8630 C   0  0  0  0  0  1  0  0  0  0  0  0
  -32.3140  -20.2010   23.1040 N   0  0  0  0  0  0  0  0  0  0  0  0
  -27.3230  -17.3870   17.0160 F   0  0  0  0  0  0  0  0  0  0  0  0
  -31.9290  -19.9330   24.0060 H   0  0  0  0  0  0  0  0  0  0  0  0
  -30.4220  -16.7020   20.3420 C   0  0  0  0  0  0  0  0  0  0  0  0
  -30.8460  -14.0520   19.5910 C   0  0  0  0  0  2  0  0  0  0  0  0
  -30.0630  -13.4280   18.3830 C   0  0  0  0  0  2  0  0  0  0  0  0
  -28.6660  -12.9300   18.7930 C   0  0  0  0  0  2  0  0  0  0  0  0
  -28.0270  -13.9140   19.7910 C   0  0  0  0  0  3  0  0  0  0  0  0
  -28.9750  -14.4220   20.9100 C   0  0  0  0  0  2  0  0  0  0  0  0
  -30.0730  -15.2230   20.2780 N   0  0  0  0  0  0  0  0  0  0  0  0
  -31.6770  -16.6620   20.3590 O   0  0  0  0  0  0  0  0  0  0  0  0
  -25.6540  -14.3190   20.5630 C   0  0  0  0  0  0  0  0  0  0  0  0
  -24.6120  -13.4910   20.8740 C   0  0  0  0  0  0  0  0  0  0  0  0
  -25.1240  -12.1590   20.7940 C   0  0  0  0  0  0  0  0  0  0  0  0
  -26.7250  -13.4920   20.2900 N   0  0  0  0  0  0  0  0  0  0  0  0
  -26.4230  -12.1810   20.4960 N   0  0  0  0  0  0  0  0  0  0  0  0
  -24.4260  -10.8690   20.9180 C   0  0  0  0  0  0  0  0  0  0  0  0
  -24.7780   -9.9260   21.9080 C   0  0  0  0  0  3  0  0  0  0  0  0
  -24.0720   -8.7080   22.0190 C   0  0  0  0  0  3  0  0  0  0  0  0
  -23.0000   -8.4230   21.1380 C   0  0  0  0  0  0  0  0  0  0  0  0
  -22.6690   -9.3550   20.1390 C   0  0  0  0  0  3  0  0  0  0  0  0
  -23.3770  -10.5640   20.0270 C   0  0  0  0  0  3  0  0  0  0  0  0
  -22.2750   -7.2540   21.1570 O   0  0  0  0  0  0  0  0  0  0  0  0
  -21.9670   -6.6170   22.3330 C   0  0  0  0  0  0  0  0  0  0  0  0
  -21.2240   -7.2510   23.3540 C   0  0  0  0  0  3  0  0  0  0  0  0
  -20.8700   -6.5380   24.5160 C   0  0  0  0  0  3  0  0  0  0  0  0
  -21.2470   -5.1870   24.6560 C   0  0  0  0  0  0  0  0  0  0  0  0
  -21.9820   -4.5510   23.6380 C   0  0  0  0  0  3  0  0  0  0  0  0
  -22.3380   -5.2650   22.4790 C   0  0  0  0  0  0  0  0  0  0  0  0
  -23.0260   -4.6420   21.4930 F   0  0  0  0  0  0  0  0  0  0  0  0
  -20.9030   -4.4960   25.7660 F   0  0  0  0  0  0  0  0  0  0  0  0
  -23.1980  -13.9190   21.1330 C   0  0  0  0  0  0  0  0  0  0  0  0
  -22.4760  -13.1770   21.9640 N   0  0  0  0  0  0  0  0  0  0  0  0
  -22.7440  -14.9480   20.6340 O   0  0  0  0  0  0  0  0  0  0  0  0
  -22.8620  -12.3480   22.3890 H   0  0  0  0  0  0  0  0  0  0  0  0
  -21.5240  -13.4410   22.1770 H   0  0  0  0  0  0  0  0  0  0  0  0
  -25.7790  -15.6990   20.4490 N   0  0  0  0  0  0  0  0  0  0  0  0
  -24.9870  -16.3200   20.5640 H   0  0  0  0  0  0  0  0  0  0  0  0
  -26.6180  -16.1790   20.1530 H   0  0  0  0  0  0  0  0  0  0  0  0
  -28.4460  -25.6530   20.2140 O   0  0  0  0  0  1  0  0  0  0  0  0
  -24.9140  -32.1460   23.4530 C   0  0  0  0  0  0  0  0  0  0  0  0
  -27.4870  -26.9920   20.2340 C   0  0  0  0  0  0  0  0  0  0  0  0
  -23.7530  -30.8170   21.7470 C   0  0  0  0  0  3  0  0  0  0  0  0
  -25.2240  -29.1950   20.2740 C   0  0  0  0  0  0  0  0  0  0  0  0
  -26.3470  -30.9000   21.6720 C   0  0  0  0  0  2  0  0  0  0  0  0
  -26.4210  -29.4720   20.9440 C   0  0  0  0  0  0  0  0  0  0  0  0
  -27.5210  -28.4120   20.8810 C   0  0  0  0  0  3  0  0  0  0  0  0
  -26.2470  -27.0040   19.5200 C   0  0  0  0  0  3  0  0  0  0  0  0
  -25.1940  -27.9920   19.5410 C   0  0  0  0  0  3  0  0  0  0  0  0
  -24.0200  -30.1690   20.3520 C   0  0  0  0  0  2  0  0  0  0  0  0
  -25.0320  -31.3270   22.3430 N   0  0  0  0  0  0  0  0  0  0  0  0
  -23.8120  -32.4210   23.9640 O   0  0  0  0  0  0  0  0  0  0  0  0
  -23.0190  -29.8090   22.6750 C   0  0  0  0  0  0  0  0  0  0  0  0
  -21.6940  -29.6210   22.5050 N   0  0  0  0  0  0  0  0  0  0  0  0
  -23.6600  -29.1910   23.5260 O   0  0  0  0  0  0  0  0  0  0  0  0
  -21.2200  -30.1690   21.8030 H   0  0  0  0  0  0  0  0  0  0  0  0
  -18.3370  -28.2680   22.8850 C   0  0  0  0  0  0  0  0  0  0  0  0
  -20.8770  -28.6350   23.2260 C   0  0  0  0  0  3  0  0  0  0  0  0
  -21.0520  -27.2220   22.6220 C   0  0  0  0  0  2  0  0  0  0  0  0
  -19.9960  -26.8840   21.5650 C   0  0  0  0  0  2  0  0  0  0  0  0
  -18.5910  -26.9500   22.1710 C   0  0  0  0  0  2  0  0  0  0  0  0
  -19.4100  -29.0670   23.3660 C   0  0  0  0  0  0  0  0  0  0  0  0
  -19.1140  -30.2920   23.9990 C   0  0  0  0  0  3  0  0  0  0  0  0
  -17.7830  -30.7250   24.1520 C   0  0  0  0  0  3  0  0  0  0  0  0
  -16.7260  -29.9260   23.6840 C   0  0  0  0  0  3  0  0  0  0  0  0
  -17.0030  -28.6990   23.0550 C   0  0  0  0  0  3  0  0  0  0  0  0
  -26.1570  -32.7900   24.1390 C   0  0  0  0  0  3  0  0  0  0  0  0
  -25.8200  -34.1800   24.5140 N   0  0  0  0  0  0  0  0  0  0  0  0
  -26.1350  -35.2770   23.8110 C   0  0  0  0  0  0  0  0  0  0  0  0
  -26.7890  -35.2280   22.7670 O   0  0  0  0  0  0  0  0  0  0  0  0
  -25.2310  -34.2910   25.3270 H   0  0  0  0  0  0  0  0  0  0  0  0
  -24.3730  -37.0730   23.6060 C   0  0  0  0  0  1  0  0  0  0  0  0
  -25.6540  -36.6450   24.3430 C   0  0  0  0  0  3  0  0  0  0  0  0
  -27.8040  -37.5460   25.1230 C   0  0  0  0  0  1  0  0  0  0  0  0
  -26.6650  -37.7200   24.2240 N   0  0  0  0  0  0  0  0  0  0  0  0
  -26.2470  -38.6270   24.4120 H   0  0  0  0  0  0  0  0  0  0  0  0
  -26.6290  -32.0010   25.4250 C   0  0  1  0  0  0  0  0  0  0  0  0
  -25.5000  -31.7510   26.4510 C   0  0  0  0  0  1  0  0  0  0  0  0
  -27.2270  -30.6280   25.0530 C   0  0  0  0  0  1  0  0  0  0  0  0
  -27.7540  -32.7900   26.1380 C   0  0  0  0  0  1  0  0  0  0  0  0
  1  2  1  0
  2  3  2  0
  2 20  1  0
  4  8  1  0
  4  3  1  0
  5  4  2  0
  6  5  1  0
  6  1  2  0
  7  9  1  0
  7 17  2  0
 10  7  1  0
 11  8  1  0
 11 14  1  0
 12  9  1  0
 13 15  1  0
 13 10  1  0
 15 12  1  0
 16  5  1  0
 17 19  1  0
 18  6  1  0
 20 27  2  0
 21 26  1  0
 22 23  1  0
 22 21  1  0
 24 23  1  0
 24 31  1  0
 24 25  1  0
 26 20  1  0
 26 25  1  0
 28 29  2  0
 29 48  1  0
 30 29  1  0
 30 33  1  0
 31 32  1  0
 31 28  1  0
 32 30  2  0
 33 34  1  0
 34 35  2  0
 36 39  1  0
 36 35  1  0
 37 36  2  0
 38 37  1  0
 38 33  2  0
 39 40  1  0
 40 45  2  0
 40 41  1  0
 41 42  2  0
 42 43  1  0
 43 47  1  0
 44 43  2  0
 45 44  1  0
 46 45  1  0
 48 49  1  0
 49 52  1  0
 49 51  1  0
 50 48  2  0
 53 28  1  0
 53 54  1  0
 55 53  1  0
 56 58  1  0
 57 68  2  0
 58 63  1  0
 59 67  1  0
 59 69  1  0
 60 66  1  0
 60 62  1  0
 61 67  1  0
 62 61  1  0
 63 62  2  0
 64 65  1  0
 64 58  2  0
 65 60  2  0
 66 59  1  0
 67 57  1  0
 69 71  2  0
 70 69  1  0
 72 70  1  0
 73 82  2  0
 73 78  1  0
 74 70  1  0
 74 78  1  0
 75 74  1  0
 76 77  1  0
 76 75  1  0
 77 73  1  0
 78 79  2  0
 79 80  1  0
 81 80  2  0
 82 81  1  0
 83 57  1  0
 83 84  1  0
 83 93  1  0
 84 87  1  0
 85 89  1  0
 85 84  1  0
 86 85  2  0
 89 88  1  0
 91 89  1  0
 91 92  1  0
 91 90  1  0
 93 96  1  1
 93 94  1  0
 95 93  1  0
M  ISO  4   2 100  14 101  20 100  56 101
M  END
>  <TORSDO>  (13) 
F 16

>  <SCORE>  (13) 
-14.560

>  <name>  (13) 
12

>  <ligand_id>  (13) 
12

>  <original_smiles>  (13) 
[H]N=C1C([H])([H])C([H])([H])C2(c3c(C(=O)N4C([H])([H])C([H])([H])C([H])([H])C([H])(n5nc(-c6c([H])c([H])c(Oc7c([H])c([H])c(F)c([H])c7F)c([H])c6[H])c(C(=O)N([H])[H])c5N([H])[H])C4([H])[H])c([H])c(F)c(C([H])([H])[H])c3C([H])([H])C([H])([H])C2([H])Oc2c([H])c([H])c3c(c2[H])C([H])([H])N(C(=O)C([H])(N([H])C(=O)C([H])(N([H])C([H])([H])[H])C([H])([H])[H])C(C([H])([H])[H])(C([H])([H])[H])C([H])([H])[H])C([H])(C(=O)N([H])C2([H])c4c([H])c([H])c([H])c([H])c4C([H])([H])C([H])([H])C2([H])[H])C3([H])[H])C([H])([H])C1([H])[H]

>  <smiles>  (13) 
[H]N=C1C([H])([H])C([H])([H])C2(c3c(C(=O)N4C([H])([H])C([H])([H])C([H])([H])C([H])(n5nc(-c6c([H])c([H])c(Oc7c([H])c([H])c(F)c([H])c7F)c([H])c6[H])c(C(=O)N([H])[H])c5N([H])[H])C4([H])[H])c([H])c(F)c(C([H])([H])[H])c3C([H])([H])C([H])([H])C2([H])Oc2c([H])c([H])c3c(c2[H])C([H])([H])N(C(=O)C([H])(N([H])C(=O)C([H])(N([H])C([H])([H])[H])C([H])([H])[H])C(C([H])([H])[H])(C([H])([H])[H])C([H])([H])[H])C([H])(C(=O)N([H])C2([H])c4c([H])c([H])c([H])c([H])c4C([H])([H])C([H])([H])C2([H])[H])C3([H])[H])C([H])([H])C1([H])[H]

$$$$
13:0:0
     RDKit          3D

 92101  0  0  1  0  0  0  0  0999 V2000
  -30.5600  -15.2420   20.3510 C   0  0  0  0  0  0  0  0  0  0  0  0
  -30.4520  -12.8460   19.4280 C   0  0  0  0  0  2  0  0  0  0  0  0
  -29.5460  -12.6730   18.1860 C   0  0  0  0  0  2  0  0  0  0  0  0
  -28.0760  -12.4760   18.5990 C   0  0  0  0  0  2  0  0  0  0  0  0
  -27.6360  -13.4310   19.7390 C   0  0  0  0  0  3  0  0  0  0  0  0
  -28.6750  -13.5330   20.8750 C   0  0  0  0  0  2  0  0  0  0  0  0
  -29.9250  -13.9870   20.2510 N   0  0  0  0  0  0  0  0  0  0  0  0
  -31.7910  -15.1920   20.2120 O   0  0  0  0  0  0  0  0  0  0  0  0
  -29.6980  -21.4380   18.6380 C   0  0  0  0  0  3  0  0  0  0  0  0
  -28.8060  -21.8080   21.1820 C   0  0  0  0  0  3  0  0  0  0  0  0
  -29.6900  -20.2580   19.4540 C   0  0  0  0  0  0  0  0  0  0  0  0
  -29.2460  -20.4290   20.7750 C   0  0  0  0  0  0  0  0  0  0  0  0
  -29.2690  -22.7590   19.0480 C   0  0  0  0  0  0  0  0  0  0  0  0
  -28.7980  -23.0610   20.3660 C   0  0  0  0  0  0  0  0  0  0  0  0
  -29.2290  -19.0750   21.6640 C   0  0  0  0  0  2  0  0  0  0  0  0
  -30.2820  -18.8660   18.9690 C   0  0  0  0  0  2  0  0  0  0  0  0
  -30.1070  -17.6550   21.4310 C   0  0  0  0  0  2  0  0  0  0  0  0
  -29.5430  -17.4090   19.1200 C   0  0  2  0  0  0  0  0  0  0  0  0
  -29.2990  -23.8680   18.0120 C   0  0  0  0  0  1  0  0  0  0  0  0
  -29.8960  -16.6230   17.8330 C   0  0  0  0  0  1  0  0  0  0  0  0
  -28.0070  -17.5920   19.0390 C   0  0  0  0  0  1  0  0  0  0  0  0
  -29.8760  -16.5510   20.3600 N   0  0  0  0  0  0  0  0  0  0  0  0
  -25.2540  -14.0090   20.4500 C   0  0  0  0  0  0  0  0  0  0  0  0
  -24.1810  -13.2360   20.7990 C   0  0  0  0  0  0  0  0  0  0  0  0
  -24.6470  -11.8860   20.7890 C   0  0  0  0  0  0  0  0  0  0  0  0
  -26.2990  -13.1290   20.2310 N   0  0  0  0  0  0  0  0  0  0  0  0
  -25.9450  -11.8480   20.5080 N   0  0  0  0  0  0  0  0  0  0  0  0
  -23.9150  -10.6270   20.9750 C   0  0  0  0  0  0  0  0  0  0  0  0
  -24.3170   -9.6710   21.9330 C   0  0  0  0  0  3  0  0  0  0  0  0
  -23.5830   -8.4780   22.1060 C   0  0  0  0  0  3  0  0  0  0  0  0
  -22.4330   -8.2310   21.3200 C   0  0  0  0  0  0  0  0  0  0  0  0
  -22.0510   -9.1750   20.3500 C   0  0  0  0  0  3  0  0  0  0  0  0
  -22.7850  -10.3600   20.1760 C   0  0  0  0  0  3  0  0  0  0  0  0
  -21.6720   -7.0890   21.4000 O   0  0  0  0  0  0  0  0  0  0  0  0
  -21.5730   -6.3710   22.5650 C   0  0  0  0  0  0  0  0  0  0  0  0
  -21.0840   -6.9510   23.7570 C   0  0  0  0  0  3  0  0  0  0  0  0
  -20.9310   -6.1590   24.9130 C   0  0  0  0  0  3  0  0  0  0  0  0
  -21.2590   -4.7900   24.8780 C   0  0  0  0  0  0  0  0  0  0  0  0
  -21.7390   -4.2110   23.6900 C   0  0  0  0  0  3  0  0  0  0  0  0
  -21.8930   -4.9990   22.5360 C   0  0  0  0  0  0  0  0  0  0  0  0
  -22.3360   -4.4320   21.3890 F   0  0  0  0  0  0  0  0  0  0  0  0
  -21.1050   -4.0270   25.9850 F   0  0  0  0  0  0  0  0  0  0  0  0
  -22.7800  -13.7180   21.0300 C   0  0  0  0  0  0  0  0  0  0  0  0
  -22.0330  -13.0380   21.8930 N   0  0  0  0  0  0  0  0  0  0  0  0
  -22.3530  -14.7330   20.4810 O   0  0  0  0  0  0  0  0  0  0  0  0
  -22.3920  -12.2180   22.3600 H   0  0  0  0  0  0  0  0  0  0  0  0
  -21.0910  -13.3430   22.0920 H   0  0  0  0  0  0  0  0  0  0  0  0
  -25.4230  -15.3790   20.2730 N   0  0  0  0  0  0  0  0  0  0  0  0
  -24.6600  -16.0390   20.3870 H   0  0  0  0  0  0  0  0  0  0  0  0
  -26.2940  -15.8220   20.0160 H   0  0  0  0  0  0  0  0  0  0  0  0
  -28.1130  -24.5690   20.7970 C   0  0  0  0  0  2  0  0  0  0  0  0
  -28.4170  -26.0900   20.3770 O   0  0  0  0  0  0  0  0  0  0  0  0
  -24.7110  -31.9360   23.2650 C   0  0  0  0  0  0  0  0  0  0  0  0
  -27.3820  -27.1340   20.3400 C   0  0  0  0  0  0  0  0  0  0  0  0
  -23.5570  -30.5080   21.6250 C   0  0  0  0  0  3  0  0  0  0  0  0
  -25.0480  -28.9220   20.2410 C   0  0  0  0  0  0  0  0  0  0  0  0
  -26.1170  -30.7760   21.5040 C   0  0  0  0  0  2  0  0  0  0  0  0
  -26.2190  -29.3680   20.8690 C   0  0  0  0  0  0  0  0  0  0  0  0
  -27.3870  -28.4940   20.8930 C   0  0  0  0  0  3  0  0  0  0  0  0
  -26.1840  -26.8200   19.6610 C   0  0  0  0  0  3  0  0  0  0  0  0
  -25.0510  -27.6650   19.6180 C   0  0  0  0  0  3  0  0  0  0  0  0
  -23.8130  -29.8150   20.2580 C   0  0  0  0  0  2  0  0  0  0  0  0
  -24.8150  -31.0990   22.1840 N   0  0  0  0  0  0  0  0  0  0  0  0
  -23.6120  -32.2150   23.7700 O   0  0  0  0  0  0  0  0  0  0  0  0
  -22.8690  -29.5080   22.5890 C   0  0  0  0  0  0  0  0  0  0  0  0
  -21.5430  -29.3280   22.4510 N   0  0  0  0  0  0  0  0  0  0  0  0
  -23.5340  -28.8950   23.4290 O   0  0  0  0  0  0  0  0  0  0  0  0
  -21.0590  -29.8740   21.7510 H   0  0  0  0  0  0  0  0  0  0  0  0
  -18.1620  -28.1150   22.9520 C   0  0  0  0  0  0  0  0  0  0  0  0
  -20.7210  -28.3890   23.2220 C   0  0  0  0  0  3  0  0  0  0  0  0
  -20.8270  -26.9560   22.6490 C   0  0  0  0  0  2  0  0  0  0  0  0
  -19.7280  -26.6290   21.6330 C   0  0  0  0  0  2  0  0  0  0  0  0
  -18.3450  -26.7680   22.2740 C   0  0  0  0  0  2  0  0  0  0  0  0
  -19.2770  -28.8830   23.3830 C   0  0  0  0  0  0  0  0  0  0  0  0
  -19.0500  -30.1420   23.9790 C   0  0  0  0  0  3  0  0  0  0  0  0
  -17.7430  -30.6360   24.1470 C   0  0  0  0  0  3  0  0  0  0  0  0
  -16.6430  -29.8660   23.7310 C   0  0  0  0  0  3  0  0  0  0  0  0
  -16.8540  -28.6080   23.1400 C   0  0  0  0  0  3  0  0  0  0  0  0
  -25.9680  -32.5990   23.9070 C   0  0  0  0  0  3  0  0  0  0  0  0
  -25.6270  -33.9970   24.2240 N   0  0  0  0  0  0  0  0  0  0  0  0
  -25.9350  -35.0540   23.4610 C   0  0  0  0  0  0  0  0  0  0  0  0
  -26.6000  -34.9550   22.4270 O   0  0  0  0  0  0  0  0  0  0  0  0
  -25.0330  -34.1430   25.0270 H   0  0  0  0  0  0  0  0  0  0  0  0
  -24.1650  -36.8120   23.1220 C   0  0  0  0  0  1  0  0  0  0  0  0
  -25.4270  -36.4370   23.9150 C   0  0  0  0  0  3  0  0  0  0  0  0
  -27.5550  -37.3770   24.7050 C   0  0  0  0  0  1  0  0  0  0  0  0
  -26.4360  -37.5100   23.7750 N   0  0  0  0  0  0  0  0  0  0  0  0
  -26.0130  -38.4230   23.9160 H   0  0  0  0  0  0  0  0  0  0  0  0
  -26.4660  -31.8500   25.2030 C   0  0  1  0  0  0  0  0  0  0  0  0
  -25.3560  -31.6140   26.2530 C   0  0  0  0  0  1  0  0  0  0  0  0
  -27.0750  -30.4750   24.8480 C   0  0  0  0  0  1  0  0  0  0  0  0
  -27.5940  -32.6670   25.8770 C   0  0  0  0  0  1  0  0  0  0  0  0
  1 22  1  0
  2  7  1  0
  3  4  1  0
  3  2  1  0
  5  4  1  0
  5 26  1  0
  5  6  1  0
  7  1  1  0
  7  6  1  0
  8  1  2  0
  9 13  2  0
  9 11  1  0
 11 12  2  0
 12 10  1  0
 12 15  1  0
 13 14  1  0
 14 51  1  0
 14 10  2  0
 16 18  1  0
 16 11  1  0
 17 15  1  0
 18 22  1  0
 19 13  1  0
 18 20  1  6
 21 18  1  0
 22 17  1  0
 23 24  2  0
 24 43  1  0
 25 24  1  0
 25 28  1  0
 26 23  1  0
 26 27  1  0
 27 25  2  0
 28 29  1  0
 29 30  2  0
 31 34  1  0
 31 30  1  0
 32 31  2  0
 33 32  1  0
 33 28  2  0
 34 35  1  0
 35 36  1  0
 36 37  2  0
 38 37  1  0
 38 42  1  0
 39 38  2  0
 40 35  2  0
 40 39  1  0
 41 40  1  0
 43 44  1  0
 44 47  1  0
 44 46  1  0
 45 43  2  0
 48 49  1  0
 48 23  1  0
 50 48  1  0
 52 51  1  0
 53 64  2  0
 54 52  1  0
 54 59  1  0
 55 63  1  0
 55 65  1  0
 56 62  1  0
 56 58  1  0
 57 63  1  0
 58 59  2  0
 58 57  1  0
 60 54  2  0
 61 60  1  0
 61 56  2  0
 62 55  1  0
 63 53  1  0
 65 67  2  0
 66 65  1  0
 68 66  1  0
 69 78  2  0
 69 74  1  0
 70 66  1  0
 70 74  1  0
 71 70  1  0
 72 73  1  0
 72 71  1  0
 73 69  1  0
 74 75  2  0
 75 76  1  0
 77 76  2  0
 78 77  1  0
 79 53  1  0
 79 80  1  0
 79 89  1  0
 80 83  1  0
 81 85  1  0
 81 80  1  0
 82 81  2  0
 85 84  1  0
 87 85  1  0
 87 88  1  0
 87 86  1  0
 89 92  1  1
 89 90  1  0
 91 89  1  0
M  ISO  4   1 100  22 100  51 101  52 101
M  END
>  <TORSDO>  (14) 
F 16

>  <SCORE>  (14) 
-14.700

>  <name>  (14) 
13

>  <ligand_id>  (14) 
13

>  <original_smiles>  (14) 
[H]c1c([H])c([H])c2c(c1[H])C([H])([H])C([H])([H])C([H])([H])C2([H])N([H])C(=O)C1([H])N(C(=O)C([H])(N([H])C(=O)C([H])(N([H])C([H])([H])[H])C([H])([H])[H])C(C([H])([H])[H])(C([H])([H])[H])C([H])([H])[H])C([H])([H])c2c([H])c(OC([H])([H])c3c([H])c4c(c([H])c3C([H])([H])[H])C([H])([H])C(C([H])([H])[H])(C([H])([H])[H])N(C(=O)N3C([H])([H])C([H])([H])C([H])([H])C([H])(n5nc(-c6c([H])c([H])c(Oc7c([H])c([H])c(F)c([H])c7F)c([H])c6[H])c(C(=O)N([H])[H])c5N([H])[H])C3([H])[H])C([H])([H])C4([H])[H])c([H])c([H])c2C1([H])[H]

>  <smiles>  (14) 
[H]c1c([H])c([H])c2c(c1[H])C([H])([H])C([H])([H])C([H])([H])C2([H])N([H])C(=O)C1([H])N(C(=O)C([H])(N([H])C(=O)C([H])(N([H])C([H])([H])[H])C([H])([H])[H])C(C([H])([H])[H])(C([H])([H])[H])C([H])([H])[H])C([H])([H])c2c([H])c(OC([H])([H])c3c([H])c4c(c([H])c3C([H])([H])[H])C([H])([H])C(C([H])([H])[H])(C([H])([H])[H])N(C(=O)N3C([H])([H])C([H])([H])C([H])([H])C([H])(n5nc(-c6c([H])c([H])c(Oc7c([H])c([H])c(F)c([H])c7F)c([H])c6[H])c(C(=O)N([H])[H])c5N([H])[H])C3([H])[H])C([H])([H])C4([H])[H])c([H])c([H])c2C1([H])[H]

$$$$
14:0:0
     RDKit          3D

 97106  0  0  1  0  0  0  0  0999 V2000
  -27.1910  -23.5730   21.8430 C   0  0  0  0  0  2  0  0  0  0  0  0
  -28.2200  -24.0680   21.0940 C   0  0  0  0  0  3  0  0  0  0  0  0
  -25.6050  -24.2460   19.0860 C   0  0  0  0  0  2  0  0  0  0  0  0
  -25.2490  -23.3330   20.2850 C   0  0  0  0  0  2  0  0  0  0  0  0
  -27.1240  -24.5200   18.8650 C   0  0  0  0  0  2  0  0  0  0  0  0
  -25.6960  -23.8390   21.6860 C   0  0  0  0  0  3  0  0  0  0  0  0
  -27.8070  -25.2270   20.0790 C   0  0  0  0  0  3  0  0  0  0  0  0
  -29.6180  -22.4350   19.6830 C   0  0  0  0  0  3  0  0  0  0  0  0
  -29.9950  -21.0750   19.5000 C   0  0  0  0  0  3  0  0  0  0  0  0
  -30.1010  -20.7620   21.8690 C   0  0  0  0  0  3  0  0  0  0  0  0
  -29.3040  -22.9640   20.9640 C   0  0  0  0  0  0  0  0  0  0  0  0
  -30.1490  -20.1710   20.5830 C   0  0  0  0  0  0  0  0  0  0  0  0
  -29.7150  -22.1280   22.0650 C   0  0  0  0  0  0  0  0  0  0  0  0
  -29.6850  -22.6320   23.5000 C   0  0  0  0  0  1  0  0  0  0  0  0
  -30.2700  -18.6290   20.2840 C   0  0  0  0  0  2  0  0  0  0  0  0
  -30.5670  -17.5630   21.4160 C   0  0  0  0  0  2  0  0  0  0  0  0
  -30.9070  -15.0710   20.7120 C   0  0  0  0  0  0  0  0  0  0  0  0
  -30.7150  -12.8360   19.6270 C   0  0  0  0  0  2  0  0  0  0  0  0
  -29.8210  -12.9350   18.3730 C   0  0  0  0  0  2  0  0  0  0  0  0
  -28.3360  -12.7560   18.7450 C   0  0  0  0  0  2  0  0  0  0  0  0
  -27.9140  -13.6340   19.9530 C   0  0  0  0  0  3  0  0  0  0  0  0
  -28.9310  -13.5250   21.1120 C   0  0  0  0  0  2  0  0  0  0  0  0
  -30.2610  -13.8690   20.5820 N   0  0  0  0  0  0  0  0  0  0  0  0
  -32.0710  -15.2240   20.3370 O   0  0  0  0  0  0  0  0  0  0  0  0
  -30.1680  -16.1360   21.1350 N   0  0  0  0  0  0  0  0  0  0  0  0
  -29.2130  -15.9040   21.3680 H   0  0  0  0  0  0  0  0  0  0  0  0
  -25.4880  -14.1980   20.5920 C   0  0  0  0  0  0  0  0  0  0  0  0
  -24.4150  -13.4100   20.9080 C   0  0  0  0  0  0  0  0  0  0  0  0
  -24.8880  -12.0630   20.8710 C   0  0  0  0  0  0  0  0  0  0  0  0
  -26.5500  -13.3320   20.3850 N   0  0  0  0  0  0  0  0  0  0  0  0
  -26.1900  -12.0410   20.6110 N   0  0  0  0  0  0  0  0  0  0  0  0
  -24.1650  -10.7920   21.0120 C   0  0  0  0  0  0  0  0  0  0  0  0
  -24.5560   -9.8190   21.9580 C   0  0  0  0  0  3  0  0  0  0  0  0
  -23.8310   -8.6140   22.0870 C   0  0  0  0  0  3  0  0  0  0  0  0
  -22.7020   -8.3730   21.2690 C   0  0  0  0  0  0  0  0  0  0  0  0
  -22.3300   -9.3350   20.3130 C   0  0  0  0  0  3  0  0  0  0  0  0
  -23.0570  -10.5310   20.1820 C   0  0  0  0  0  3  0  0  0  0  0  0
  -21.9540   -7.2210   21.3060 O   0  0  0  0  0  0  0  0  0  0  0  0
  -21.8330   -6.4790   22.4540 C   0  0  0  0  0  0  0  0  0  0  0  0
  -21.2980   -7.0250   23.6410 C   0  0  0  0  0  3  0  0  0  0  0  0
  -21.1250   -6.2080   24.7760 C   0  0  0  0  0  3  0  0  0  0  0  0
  -21.4790   -4.8470   24.7260 C   0  0  0  0  0  0  0  0  0  0  0  0
  -22.0080   -4.3000   23.5430 C   0  0  0  0  0  3  0  0  0  0  0  0
  -22.1810   -5.1140   22.4090 C   0  0  0  0  0  0  0  0  0  0  0  0
  -22.6710   -4.5770   21.2660 F   0  0  0  0  0  0  0  0  0  0  0  0
  -21.3060   -4.0600   25.8130 F   0  0  0  0  0  0  0  0  0  0  0  0
  -23.0040  -13.8720   21.1370 C   0  0  0  0  0  0  0  0  0  0  0  0
  -22.2530  -13.1600   21.9700 N   0  0  0  0  0  0  0  0  0  0  0  0
  -22.5750  -14.9000   20.6140 O   0  0  0  0  0  0  0  0  0  0  0  0
  -22.6100  -12.3250   22.4120 H   0  0  0  0  0  0  0  0  0  0  0  0
  -21.3060  -13.4530   22.1680 H   0  0  0  0  0  0  0  0  0  0  0  0
  -25.6460  -15.5730   20.4440 N   0  0  0  0  0  0  0  0  0  0  0  0
  -24.8690  -16.2190   20.5340 H   0  0  0  0  0  0  0  0  0  0  0  0
  -26.5010  -16.0240   20.1420 H   0  0  0  0  0  0  0  0  0  0  0  0
  -23.7470  -23.6560   23.0620 C   0  0  0  0  0  1  0  0  0  0  0  0
  -25.0040  -23.1030   22.6880 O   0  0  0  0  0  0  0  0  0  0  0  0
  -28.2990  -26.6780   20.0620 O   0  0  0  0  0  0  0  0  0  0  0  0
  -24.6990  -32.0820   23.3900 C   0  0  0  0  0  0  0  0  0  0  0  0
  -27.2990  -27.6990   20.0250 C   0  0  0  0  0  0  0  0  0  0  0  0
  -23.5010  -30.7920   21.6690 C   0  0  0  0  0  3  0  0  0  0  0  0
  -24.9580  -29.3680   20.1390 C   0  0  0  0  0  0  0  0  0  0  0  0
  -26.0520  -31.1000   21.5290 C   0  0  0  0  0  2  0  0  0  0  0  0
  -26.1300  -29.7680   20.7940 C   0  0  0  0  0  0  0  0  0  0  0  0
  -27.2990  -28.9320   20.7610 C   0  0  0  0  0  3  0  0  0  0  0  0
  -26.1430  -27.4750   19.2500 C   0  0  0  0  0  3  0  0  0  0  0  0
  -24.9670  -28.2170   19.3590 C   0  0  0  0  0  3  0  0  0  0  0  0
  -23.7210  -30.2320   20.2460 C   0  0  0  0  0  2  0  0  0  0  0  0
  -24.7700  -31.3370   22.2520 N   0  0  0  0  0  0  0  0  0  0  0  0
  -23.6130  -32.3260   23.9360 O   0  0  0  0  0  0  0  0  0  0  0  0
  -22.8420  -29.7030   22.5500 C   0  0  0  0  0  0  0  0  0  0  0  0
  -21.5190  -29.5160   22.3970 N   0  0  0  0  0  0  0  0  0  0  0  0
  -23.5190  -29.0350   23.3370 O   0  0  0  0  0  0  0  0  0  0  0  0
  -21.0290  -30.1090   21.7410 H   0  0  0  0  0  0  0  0  0  0  0  0
  -18.1470  -28.2760   22.8200 C   0  0  0  0  0  0  0  0  0  0  0  0
  -20.7040  -28.5280   23.1060 C   0  0  0  0  0  3  0  0  0  0  0  0
  -20.8140  -27.1360   22.4440 C   0  0  0  0  0  2  0  0  0  0  0  0
  -19.7130  -26.8710   21.4120 C   0  0  0  0  0  2  0  0  0  0  0  0
  -18.3300  -26.9730   22.0620 C   0  0  0  0  0  2  0  0  0  0  0  0
  -19.2620  -29.0140   23.2970 C   0  0  0  0  0  0  0  0  0  0  0  0
  -19.0370  -30.2370   23.9660 C   0  0  0  0  0  3  0  0  0  0  0  0
  -17.7310  -30.7190   24.1660 C   0  0  0  0  0  3  0  0  0  0  0  0
  -16.6300  -29.9760   23.7060 C   0  0  0  0  0  3  0  0  0  0  0  0
  -16.8390  -28.7570   23.0370 C   0  0  0  0  0  3  0  0  0  0  0  0
  -25.9800  -32.6770   24.0470 C   0  0  0  0  0  3  0  0  0  0  0  0
  -26.4590  -31.8660   25.3120 C   0  0  1  0  0  0  0  0  0  0  0  0
  -25.3370  -31.6110   26.3450 C   0  0  0  0  0  1  0  0  0  0  0  0
  -27.0390  -30.4920   24.9040 C   0  0  0  0  0  1  0  0  0  0  0  0
  -27.6060  -32.6290   26.0170 C   0  0  0  0  0  1  0  0  0  0  0  0
  -25.6850  -34.0720   24.4040 N   0  0  0  0  0  0  0  0  0  0  0  0
  -26.0020  -35.1330   23.6510 C   0  0  0  0  0  0  0  0  0  0  0  0
  -26.6470  -35.0400   22.6020 O   0  0  0  0  0  0  0  0  0  0  0  0
  -25.1160  -34.2200   25.2240 H   0  0  0  0  0  0  0  0  0  0  0  0
  -24.2590  -36.9260   23.3790 C   0  0  0  0  0  1  0  0  0  0  0  0
  -25.5290  -36.5150   24.1390 C   0  0  0  0  0  3  0  0  0  0  0  0
  -27.6860  -37.3990   24.9060 C   0  0  0  0  0  1  0  0  0  0  0  0
  -26.5540  -37.5710   23.9980 N   0  0  0  0  0  0  0  0  0  0  0  0
  -26.1500  -38.4880   24.1690 H   0  0  0  0  0  0  0  0  0  0  0  0
  2 11  1  0
  2  1  1  0
  3  4  1  0
  4  6  1  0
  5  3  1  0
  5  7  1  0
  6  1  1  0
  6 56  1  0
  7 57  1  0
  7  2  1  0
  8 11  1  0
  9  8  2  0
  9 12  1  0
 10 13  1  0
 11 13  2  0
 12 10  2  0
 13 14  1  0
 15 12  1  0
 15 16  1  0
 17 25  1  0
 18 23  1  0
 19 20  1  0
 19 18  1  0
 21 20  1  0
 21 30  1  0
 21 22  1  0
 23 17  1  0
 23 22  1  0
 24 17  2  0
 25 26  1  0
 25 16  1  0
 27 28  2  0
 28 47  1  0
 29 28  1  0
 29 32  1  0
 30 27  1  0
 30 31  1  0
 31 29  2  0
 32 33  1  0
 33 34  2  0
 35 38  1  0
 35 34  1  0
 36 35  2  0
 37 36  1  0
 37 32  2  0
 38 39  1  0
 39 40  1  0
 40 41  2  0
 42 41  1  0
 42 46  1  0
 43 42  2  0
 44 39  2  0
 44 43  1  0
 45 44  1  0
 47 48  1  0
 48 51  1  0
 48 50  1  0
 49 47  2  0
 52 53  1  0
 52 27  1  0
 54 52  1  0
 56 55  1  0
 58 69  2  0
 59 57  1  0
 59 64  1  0
 60 68  1  0
 60 70  1  0
 61 67  1  0
 61 63  1  0
 62 68  1  0
 63 62  1  0
 64 63  2  0
 65 66  1  0
 65 59  2  0
 66 61  2  0
 67 60  1  0
 68 58  1  0
 70 72  2  0
 71 70  1  0
 73 71  1  0
 74 83  2  0
 74 79  1  0
 75 71  1  0
 75 79  1  0
 76 75  1  0
 77 78  1  0
 77 76  1  0
 78 74  1  0
 79 80  2  0
 80 81  1  0
 82 81  2  0
 83 82  1  0
 84 58  1  0
 84 89  1  0
 84 85  1  0
 85 88  1  1
 85 86  1  0
 87 85  1  0
 89 92  1  0
 90 94  1  0
 90 89  1  0
 91 90  2  0
 94 93  1  0
 96 94  1  0
 96 97  1  0
 96 95  1  0
M  ISO  4   7 101  17 100  25 100  57 101
M  END
>  <TORSDO>  (15) 
F 20

>  <SCORE>  (15) 
-13.622

>  <name>  (15) 
14

>  <ligand_id>  (15) 
14

>  <original_smiles>  (15) 
[H]C1=C(c2c([H])c([H])c(C([H])([H])C([H])([H])N([H])C(=O)N3C([H])([H])C([H])([H])C([H])([H])C([H])(n4nc(-c5c([H])c([H])c(Oc6c([H])c([H])c(F)c([H])c6F)c([H])c5[H])c(C(=O)N([H])[H])c4N([H])[H])C3([H])[H])c([H])c2C([H])([H])[H])C([H])(Oc2c([H])c([H])c3c(c2[H])C([H])([H])N(C(=O)C([H])(N([H])C(=O)C([H])(N([H])C([H])([H])[H])C([H])([H])[H])C(C([H])([H])[H])(C([H])([H])[H])C([H])([H])[H])C([H])(C(=O)N([H])C2([H])c4c([H])c([H])c([H])c([H])c4C([H])([H])C([H])([H])C2([H])[H])C3([H])[H])C([H])([H])C([H])([H])C([H])([H])C1([H])OC([H])([H])[H]

>  <smiles>  (15) 
[H]C1=C(c2c([H])c([H])c(C([H])([H])C([H])([H])N([H])C(=O)N3C([H])([H])C([H])([H])C([H])([H])C([H])(n4nc(-c5c([H])c([H])c(Oc6c([H])c([H])c(F)c([H])c6F)c([H])c5[H])c(C(=O)N([H])[H])c4N([H])[H])C3([H])[H])c([H])c2C([H])([H])[H])C([H])(Oc2c([H])c([H])c3c(c2[H])C([H])([H])N(C(=O)C([H])(N([H])C(=O)C([H])(N([H])C([H])([H])[H])C([H])([H])[H])C(C([H])([H])[H])(C([H])([H])[H])C([H])([H])[H])C([H])(C(=O)N([H])C2([H])c4c([H])c([H])c([H])c([H])c4C([H])([H])C([H])([H])C2([H])[H])C3([H])[H])C([H])([H])C([H])([H])C([H])([H])C1([H])OC([H])([H])[H]

$$$$
15:0:0
     RDKit          3D

 92101  0  0  1  0  0  0  0  0999 V2000
  -29.7800  -21.2090   20.9290 C   0  0  0  0  0  3  0  0  0  0  0  0
  -27.6580  -22.4600   19.6630 C   0  0  0  0  0  3  0  0  0  0  0  0
  -28.9370  -20.3060   20.1920 C   0  0  0  0  0  0  0  0  0  0  0  0
  -29.5500  -22.6490   21.0600 C   0  0  0  0  0  0  0  0  0  0  0  0
  -27.8590  -21.0310   19.5560 C   0  0  0  0  0  0  0  0  0  0  0  0
  -28.4600  -23.3530   20.4310 C   0  0  0  0  0  0  0  0  0  0  0  0
  -30.4750  -23.4330   21.9730 C   0  0  0  0  0  1  0  0  0  0  0  0
  -26.8080  -20.2830   18.7450 C   0  0  0  0  0  1  0  0  0  0  0  0
  -30.5240  -14.9300   20.4000 C   0  0  0  0  0  0  0  0  0  0  0  0
  -30.3850  -12.5950   19.4580 C   0  0  0  0  0  2  0  0  0  0  0  0
  -29.4610  -12.5510   18.2190 C   0  0  0  0  0  2  0  0  0  0  0  0
  -27.9930  -12.3470   18.6420 C   0  0  0  0  0  2  0  0  0  0  0  0
  -27.5730  -13.2810   19.8060 C   0  0  0  0  0  3  0  0  0  0  0  0
  -28.6170  -13.3090   20.9400 C   0  0  0  0  0  2  0  0  0  0  0  0
  -29.8980  -13.6920   20.3320 N   0  0  0  0  0  0  0  0  0  0  0  0
  -31.7510  -14.9670   20.2750 O   0  0  0  0  0  0  0  0  0  0  0  0
  -29.2990  -18.0030   18.7420 C   0  0  0  0  0  0  0  0  0  0  0  0
  -29.3920  -16.4720   18.8660 C   0  0  0  0  0  2  0  0  0  0  0  0
  -29.8890  -17.5280   20.9160 C   0  0  0  0  0  2  0  0  0  0  0  0
  -29.0460  -18.6520   20.0940 C   0  0  0  0  0  3  0  0  0  0  0  0
  -29.7640  -16.1220   20.2570 N   0  0  0  0  0  0  0  0  0  0  0  0
  -29.4530  -18.6110   17.6790 O   0  0  0  0  0  0  0  0  0  0  0  0
  -25.1800  -13.8760   20.4920 C   0  0  0  0  0  0  0  0  0  0  0  0
  -24.1080  -13.1050   20.8440 C   0  0  0  0  0  0  0  0  0  0  0  0
  -24.5750  -11.7540   20.8410 C   0  0  0  0  0  0  0  0  0  0  0  0
  -26.2280  -12.9940   20.2880 N   0  0  0  0  0  0  0  0  0  0  0  0
  -25.8720  -11.7140   20.5650 N   0  0  0  0  0  0  0  0  0  0  0  0
  -23.8460  -10.4940   21.0280 C   0  0  0  0  0  0  0  0  0  0  0  0
  -24.2640   -9.5350   21.9780 C   0  0  0  0  0  3  0  0  0  0  0  0
  -23.5370   -8.3380   22.1540 C   0  0  0  0  0  3  0  0  0  0  0  0
  -22.3780   -8.0930   21.3810 C   0  0  0  0  0  0  0  0  0  0  0  0
  -21.9800   -9.0400   20.4210 C   0  0  0  0  0  3  0  0  0  0  0  0
  -22.7080  -10.2280   20.2430 C   0  0  0  0  0  3  0  0  0  0  0  0
  -21.6240   -6.9470   21.4650 O   0  0  0  0  0  0  0  0  0  0  0  0
  -21.5590   -6.2120   22.6200 C   0  0  0  0  0  0  0  0  0  0  0  0
  -21.1140   -6.7750   23.8360 C   0  0  0  0  0  3  0  0  0  0  0  0
  -20.9970   -5.9670   24.9850 C   0  0  0  0  0  3  0  0  0  0  0  0
  -21.3130   -4.5960   24.9180 C   0  0  0  0  0  0  0  0  0  0  0  0
  -21.7520   -4.0340   23.7070 C   0  0  0  0  0  3  0  0  0  0  0  0
  -21.8710   -4.8390   22.5600 C   0  0  0  0  0  0  0  0  0  0  0  0
  -22.2740   -4.2870   21.3900 F   0  0  0  0  0  0  0  0  0  0  0  0
  -21.1940   -3.8180   26.0180 F   0  0  0  0  0  0  0  0  0  0  0  0
  -22.7040  -13.5850   21.0720 C   0  0  0  0  0  0  0  0  0  0  0  0
  -21.9550  -12.8970   21.9260 N   0  0  0  0  0  0  0  0  0  0  0  0
  -22.2800  -14.6050   20.5300 O   0  0  0  0  0  0  0  0  0  0  0  0
  -22.3120  -12.0730   22.3870 H   0  0  0  0  0  0  0  0  0  0  0  0
  -21.0110  -13.1990   22.1220 H   0  0  0  0  0  0  0  0  0  0  0  0
  -25.3500  -15.2450   20.3040 N   0  0  0  0  0  0  0  0  0  0  0  0
  -24.5850  -15.9030   20.4020 H   0  0  0  0  0  0  0  0  0  0  0  0
  -26.2200  -15.6830   20.0300 H   0  0  0  0  0  0  0  0  0  0  0  0
  -27.9090  -24.8540   20.8200 C   0  0  0  0  0  2  0  0  0  0  0  0
  -28.2430  -26.2300   20.2170 O   0  0  0  0  0  0  0  0  0  0  0  0
  -24.6180  -31.8770   23.2370 C   0  0  0  0  0  0  0  0  0  0  0  0
  -27.1990  -27.2120   20.1920 C   0  0  0  0  0  0  0  0  0  0  0  0
  -23.4160  -30.4830   21.5970 C   0  0  0  0  0  3  0  0  0  0  0  0
  -24.8650  -28.9220   20.1650 C   0  0  0  0  0  0  0  0  0  0  0  0
  -25.9660  -30.7660   21.4230 C   0  0  0  0  0  2  0  0  0  0  0  0
  -26.0430  -29.3790   20.7720 C   0  0  0  0  0  0  0  0  0  0  0  0
  -27.2170  -28.5390   20.7680 C   0  0  0  0  0  3  0  0  0  0  0  0
  -26.0010  -26.8500   19.5440 C   0  0  0  0  0  3  0  0  0  0  0  0
  -24.8530  -27.6670   19.5390 C   0  0  0  0  0  3  0  0  0  0  0  0
  -23.6340  -29.8120   20.2150 C   0  0  0  0  0  2  0  0  0  0  0  0
  -24.6870  -31.0630   22.1410 N   0  0  0  0  0  0  0  0  0  0  0  0
  -23.5320  -32.1570   23.7680 O   0  0  0  0  0  0  0  0  0  0  0  0
  -22.7450  -29.4690   22.5560 C   0  0  0  0  0  0  0  0  0  0  0  0
  -21.4180  -29.2920   22.4290 N   0  0  0  0  0  0  0  0  0  0  0  0
  -23.4200  -28.8440   23.3790 O   0  0  0  0  0  0  0  0  0  0  0  0
  -20.9310  -29.8490   21.7390 H   0  0  0  0  0  0  0  0  0  0  0  0
  -18.0420  -28.0750   22.9220 C   0  0  0  0  0  0  0  0  0  0  0  0
  -20.5980  -28.3500   23.1970 C   0  0  0  0  0  3  0  0  0  0  0  0
  -20.7090  -26.9190   22.6250 C   0  0  0  0  0  2  0  0  0  0  0  0
  -19.6120  -26.5880   21.6080 C   0  0  0  0  0  2  0  0  0  0  0  0
  -18.2270  -26.7270   22.2470 C   0  0  0  0  0  2  0  0  0  0  0  0
  -19.1550  -28.8440   23.3540 C   0  0  0  0  0  0  0  0  0  0  0  0
  -18.9290  -30.1040   23.9480 C   0  0  0  0  0  3  0  0  0  0  0  0
  -17.6210  -30.5980   24.1120 C   0  0  0  0  0  3  0  0  0  0  0  0
  -16.5220  -29.8270   23.6970 C   0  0  0  0  0  3  0  0  0  0  0  0
  -16.7320  -28.5670   23.1070 C   0  0  0  0  0  3  0  0  0  0  0  0
  -25.8960  -32.5120   23.8640 C   0  0  0  0  0  3  0  0  0  0  0  0
  -25.5850  -33.9120   24.1920 N   0  0  0  0  0  0  0  0  0  0  0  0
  -25.9120  -34.9660   23.4320 C   0  0  0  0  0  0  0  0  0  0  0  0
  -26.5750  -34.8620   22.3970 O   0  0  0  0  0  0  0  0  0  0  0  0
  -25.0000  -34.0670   24.9990 H   0  0  0  0  0  0  0  0  0  0  0  0
  -24.1810  -36.7600   23.0920 C   0  0  0  0  0  1  0  0  0  0  0  0
  -25.4280  -36.3550   23.8940 C   0  0  0  0  0  3  0  0  0  0  0  0
  -27.5670  -37.2400   24.7090 C   0  0  0  0  0  1  0  0  0  0  0  0
  -26.4590  -37.4080   23.7730 N   0  0  0  0  0  0  0  0  0  0  0  0
  -26.0540  -38.3280   23.9230 H   0  0  0  0  0  0  0  0  0  0  0  0
  -26.4040  -31.7470   25.1470 C   0  0  1  0  0  0  0  0  0  0  0  0
  -25.3040  -31.5200   26.2110 C   0  0  0  0  0  1  0  0  0  0  0  0
  -26.9850  -30.3650   24.7680 C   0  0  0  0  0  1  0  0  0  0  0  0
  -27.5530  -32.5420   25.8080 C   0  0  0  0  0  1  0  0  0  0  0  0
  1  4  1  0
  2  6  1  0
  3  1  2  0
  4  7  1  0
  5  2  2  0
  5  3  1  0
  6 51  1  0
  6  4  2  0
  8  5  1  0
 10 15  1  0
 11 12  1  0
 11 10  1  0
 13 12  1  0
 13 26  1  0
 13 14  1  0
 15  9  1  0
 15 14  1  0
 16  9  2  0
 17 18  1  0
 17 20  1  0
 18 21  1  0
 20  3  1  0
 20 19  1  0
 21  9  1  0
 21 19  1  0
 22 17  2  0
 23 24  2  0
 24 43  1  0
 25 24  1  0
 25 28  1  0
 26 23  1  0
 26 27  1  0
 27 25  2  0
 28 29  1  0
 29 30  2  0
 31 34  1  0
 31 30  1  0
 32 31  2  0
 33 32  1  0
 33 28  2  0
 34 35  1  0
 35 36  1  0
 36 37  2  0
 38 37  1  0
 38 42  1  0
 39 38  2  0
 40 35  2  0
 40 39  1  0
 41 40  1  0
 43 44  1  0
 44 47  1  0
 44 46  1  0
 45 43  2  0
 48 49  1  0
 48 23  1  0
 50 48  1  0
 52 51  1  0
 53 64  2  0
 54 52  1  0
 54 59  1  0
 55 63  1  0
 55 65  1  0
 56 62  1  0
 56 58  1  0
 57 63  1  0
 58 57  1  0
 59 58  2  0
 60 54  2  0
 61 60  1  0
 61 56  2  0
 62 55  1  0
 63 53  1  0
 65 67  2  0
 66 65  1  0
 68 66  1  0
 69 78  2  0
 69 74  1  0
 70 66  1  0
 70 74  1  0
 71 70  1  0
 72 73  1  0
 72 71  1  0
 73 69  1  0
 74 75  2  0
 75 76  1  0
 77 76  2  0
 78 77  1  0
 79 53  1  0
 79 80  1  0
 79 89  1  0
 80 83  1  0
 81 85  1  0
 81 80  1  0
 82 81  2  0
 85 84  1  0
 87 85  1  0
 87 88  1  0
 87 86  1  0
 89 92  1  1
 89 90  1  0
 91 89  1  0
M  ISO  4   9 100  21 100  51 101  52 101
M  END
>  <TORSDO>  (16) 
F 17

>  <SCORE>  (16) 
-15.132

>  <name>  (16) 
15

>  <ligand_id>  (16) 
15

>  <original_smiles>  (16) 
[H]c1c([H])c([H])c2c(c1[H])C([H])([H])C([H])([H])C([H])([H])C2([H])N([H])C(=O)C1([H])N(C(=O)C([H])(N([H])C(=O)C([H])(N([H])C([H])([H])[H])C([H])([H])[H])C(C([H])([H])[H])(C([H])([H])[H])C([H])([H])[H])C([H])([H])c2c([H])c(OC([H])([H])c3c([H])c(C([H])([H])[H])c(C4([H])C(=O)C([H])([H])N(C(=O)N5C([H])([H])C([H])([H])C([H])([H])C([H])(n6nc(-c7c([H])c([H])c(Oc8c([H])c([H])c(F)c([H])c8F)c([H])c7[H])c(C(=O)N([H])[H])c6N([H])[H])C5([H])[H])C4([H])[H])c([H])c3C([H])([H])[H])c([H])c([H])c2C1([H])[H]

>  <smiles>  (16) 
[H]c1c([H])c([H])c2c(c1[H])C([H])([H])C([H])([H])C([H])([H])C2([H])N([H])C(=O)C1([H])N(C(=O)C([H])(N([H])C(=O)C([H])(N([H])C([H])([H])[H])C([H])([H])[H])C(C([H])([H])[H])(C([H])([H])[H])C([H])([H])[H])C([H])([H])c2c([H])c(OC([H])([H])c3c([H])c(C([H])([H])[H])c(C4([H])C(=O)C([H])([H])N(C(=O)N5C([H])([H])C([H])([H])C([H])([H])C([H])(n6nc(-c7c([H])c([H])c(Oc8c([H])c([H])c(F)c([H])c8F)c([H])c7[H])c(C(=O)N([H])[H])c6N([H])[H])C5([H])[H])C4([H])[H])c([H])c3C([H])([H])[H])c([H])c([H])c2C1([H])[H]

$$$$
16:0:0
     RDKit          3D

100109  0  0  1  0  0  0  0  0999 V2000
  -30.6650  -22.6060   20.8720 C   0  0  0  0  0  3  0  0  0  0  0  0
  -30.1730  -23.9090   21.0840 C   0  0  0  0  0  0  0  0  0  0  0  0
  -28.8150  -24.2440   20.8190 C   0  0  0  0  0  0  0  0  0  0  0  0
  -29.8340  -21.5710   20.4150 C   0  0  0  0  0  0  0  0  0  0  0  0
  -27.9410  -23.1810   20.3940 C   0  0  0  0  0  0  0  0  0  0  0  0
  -28.4610  -21.8560   20.1730 C   0  0  0  0  0  0  0  0  0  0  0  0
  -31.1280  -24.9270   21.6790 C   0  0  0  0  0  2  0  0  0  0  0  0
  -30.3950  -25.8670   22.6330 C   0  0  0  0  0  2  0  0  0  0  0  0
  -29.3180  -26.6200   21.8590 C   0  0  0  0  0  2  0  0  0  0  0  0
  -28.3210  -25.7100   21.1000 C   0  0  0  0  0  3  0  0  0  0  0  0
  -25.8030  -23.2950   18.8840 C   0  0  0  0  0  1  0  0  0  0  0  0
  -26.4240  -23.4320   20.2850 C   0  0  0  0  0  2  0  0  0  0  0  0
  -28.0070  -26.4670   19.9150 O   0  0  0  0  0  0  0  0  0  0  0  0
  -24.3750  -31.7690   23.1200 C   0  0  0  0  0  0  0  0  0  0  0  0
  -26.9120  -27.3040   19.9760 C   0  0  0  0  0  0  0  0  0  0  0  0
  -23.1330  -30.4020   21.4770 C   0  0  0  0  0  3  0  0  0  0  0  0
  -24.5530  -28.8640   20.0190 C   0  0  0  0  0  0  0  0  0  0  0  0
  -25.6650  -30.7170   21.2660 C   0  0  0  0  0  2  0  0  0  0  0  0
  -25.7230  -29.3470   20.6220 C   0  0  0  0  0  0  0  0  0  0  0  0
  -26.9060  -28.5660   20.6180 C   0  0  0  0  0  3  0  0  0  0  0  0
  -25.7460  -26.8750   19.3180 C   0  0  0  0  0  3  0  0  0  0  0  0
  -24.5590  -27.6210   19.3660 C   0  0  0  0  0  3  0  0  0  0  0  0
  -23.3220  -29.7400   20.0860 C   0  0  0  0  0  2  0  0  0  0  0  0
  -24.4100  -30.9770   22.0120 N   0  0  0  0  0  0  0  0  0  0  0  0
  -23.3030  -32.0540   23.6720 O   0  0  0  0  0  0  0  0  0  0  0  0
  -22.4770  -29.3780   22.4310 C   0  0  0  0  0  0  0  0  0  0  0  0
  -21.1460  -29.2280   22.3250 N   0  0  0  0  0  0  0  0  0  0  0  0
  -23.1610  -28.7240   23.2230 O   0  0  0  0  0  0  0  0  0  0  0  0
  -20.6570  -29.8080   21.6580 H   0  0  0  0  0  0  0  0  0  0  0  0
  -17.7490  -28.1440   22.9100 C   0  0  0  0  0  0  0  0  0  0  0  0
  -20.3220  -28.2970   23.0960 C   0  0  0  0  0  3  0  0  0  0  0  0
  -20.3490  -26.8830   22.4730 C   0  0  0  0  0  2  0  0  0  0  0  0
  -19.2000  -26.6330   21.4910 C   0  0  0  0  0  2  0  0  0  0  0  0
  -17.8490  -26.8110   22.1890 C   0  0  0  0  0  2  0  0  0  0  0  0
  -18.9110  -28.8490   23.3220 C   0  0  0  0  0  0  0  0  0  0  0  0
  -18.7610  -30.1020   23.9560 C   0  0  0  0  0  3  0  0  0  0  0  0
  -17.4850  -30.6470   24.1840 C   0  0  0  0  0  3  0  0  0  0  0  0
  -16.3370  -29.9370   23.7880 C   0  0  0  0  0  3  0  0  0  0  0  0
  -16.4710  -28.6880   23.1580 C   0  0  0  0  0  3  0  0  0  0  0  0
  -25.6770  -32.3750   23.7300 C   0  0  0  0  0  3  0  0  0  0  0  0
  -25.3930  -33.7740   24.0770 N   0  0  0  0  0  0  0  0  0  0  0  0
  -25.7460  -34.8280   23.3300 C   0  0  0  0  0  0  0  0  0  0  0  0
  -26.4150  -34.7250   22.2980 O   0  0  0  0  0  0  0  0  0  0  0  0
  -24.8030  -33.9300   24.8810 H   0  0  0  0  0  0  0  0  0  0  0  0
  -24.0530  -36.6550   22.9870 C   0  0  0  0  0  1  0  0  0  0  0  0
  -25.2810  -36.2190   23.8020 C   0  0  0  0  0  3  0  0  0  0  0  0
  -27.4230  -37.0550   24.6620 C   0  0  0  0  0  1  0  0  0  0  0  0
  -26.3330  -37.2540   23.7090 N   0  0  0  0  0  0  0  0  0  0  0  0
  -25.9420  -38.1800   23.8640 H   0  0  0  0  0  0  0  0  0  0  0  0
  -26.2000  -31.5810   24.9900 C   0  0  1  0  0  0  0  0  0  0  0  0
  -25.1170  -31.3400   26.0660 C   0  0  0  0  0  1  0  0  0  0  0  0
  -26.7660  -30.2040   24.5720 C   0  0  0  0  0  1  0  0  0  0  0  0
  -27.3650  -32.3560   25.6500 C   0  0  0  0  0  1  0  0  0  0  0  0
  -30.4590  -20.1760   20.1960 C   0  0  0  0  0  2  0  0  0  0  0  0
  -30.5460  -19.2870   21.4640 C   0  0  0  0  0  2  0  0  0  0  0  0
  -30.0870  -17.8040   21.2950 C   0  0  0  0  0  2  0  0  0  0  0  0
  -31.3440  -14.4700   20.0510 C   0  0  0  0  0  0  0  0  0  0  0  0
  -30.9300  -12.2730   18.9970 C   0  0  0  0  0  2  0  0  0  0  0  0
  -29.9690  -12.4520   17.8050 C   0  0  0  0  0  2  0  0  0  0  0  0
  -28.5020  -12.3810   18.2720 C   0  0  0  0  0  2  0  0  0  0  0  0
  -28.2220  -13.2890   19.4990 C   0  0  0  0  0  3  0  0  0  0  0  0
  -29.2950  -13.0880   20.5950 C   0  0  0  0  0  2  0  0  0  0  0  0
  -30.6170  -13.3180   19.9850 N   0  0  0  0  0  0  0  0  0  0  0  0
  -32.4550  -14.5600   19.5180 O   0  0  0  0  0  0  0  0  0  0  0  0
  -31.1130  -16.8090   20.7180 C   0  0  0  0  0  0  0  0  0  0  0  0
  -30.7080  -15.5200   20.6190 N   0  0  0  0  0  0  0  0  0  0  0  0
  -32.2260  -17.2250   20.3820 O   0  0  0  0  0  0  0  0  0  0  0  0
  -29.7860  -15.3190   20.9720 H   0  0  0  0  0  0  0  0  0  0  0  0
  -25.8890  -14.0200   20.3020 C   0  0  0  0  0  0  0  0  0  0  0  0
  -24.7900  -13.3030   20.6930 C   0  0  0  0  0  0  0  0  0  0  0  0
  -25.1670  -11.9270   20.6170 C   0  0  0  0  0  0  0  0  0  0  0  0
  -26.8710  -13.0840   20.0180 N   0  0  0  0  0  0  0  0  0  0  0  0
  -26.4420  -11.8190   20.2630 N   0  0  0  0  0  0  0  0  0  0  0  0
  -24.3740  -10.7070   20.8050 C   0  0  0  0  0  0  0  0  0  0  0  0
  -24.7340   -9.7320   21.7630 C   0  0  0  0  0  3  0  0  0  0  0  0
  -23.9450   -8.5750   21.9390 C   0  0  0  0  0  3  0  0  0  0  0  0
  -22.7810   -8.3840   21.1560 C   0  0  0  0  0  0  0  0  0  0  0  0
  -22.4400   -9.3460   20.1890 C   0  0  0  0  0  3  0  0  0  0  0  0
  -23.2290  -10.4950   20.0110 C   0  0  0  0  0  3  0  0  0  0  0  0
  -21.9680   -7.2800   21.2390 O   0  0  0  0  0  0  0  0  0  0  0  0
  -21.7820   -6.6110   22.4220 C   0  0  0  0  0  0  0  0  0  0  0  0
  -21.2600   -7.2510   23.5670 C   0  0  0  0  0  3  0  0  0  0  0  0
  -21.0210   -6.5090   24.7420 C   0  0  0  0  0  3  0  0  0  0  0  0
  -21.2920   -5.1290   24.7710 C   0  0  0  0  0  0  0  0  0  0  0  0
  -21.8080   -4.4880   23.6300 C   0  0  0  0  0  3  0  0  0  0  0  0
  -22.0490   -5.2260   22.4580 C   0  0  0  0  0  0  0  0  0  0  0  0
  -22.5250   -4.6000   21.3550 F   0  0  0  0  0  0  0  0  0  0  0  0
  -21.0550   -4.4140   25.8950 F   0  0  0  0  0  0  0  0  0  0  0  0
  -23.4330  -13.8550   21.0240 C   0  0  0  0  0  0  0  0  0  0  0  0
  -22.7030  -13.1940   21.9160 N   0  0  0  0  0  0  0  0  0  0  0  0
  -23.0330  -14.9080   20.5290 O   0  0  0  0  0  0  0  0  0  0  0  0
  -23.0410  -12.3410   22.3380 H   0  0  0  0  0  0  0  0  0  0  0  0
  -21.7950  -13.5450   22.1810 H   0  0  0  0  0  0  0  0  0  0  0  0
  -26.1290  -15.3810   20.1460 N   0  0  0  0  0  0  0  0  0  0  0  0
  -25.4000  -16.0730   20.2800 H   0  0  0  0  0  0  0  0  0  0  0  0
  -26.9810  -15.7730   19.7640 H   0  0  0  0  0  0  0  0  0  0  0  0
  -27.5650  -20.7050   19.6960 C   0  0  0  0  0  2  0  0  0  0  0  0
  -27.5300  -20.5570   18.1580 C   0  0  0  0  0  2  0  0  0  0  0  0
  -26.4570  -19.3770   16.1670 C   0  0  0  0  0  1  0  0  0  0  0  0
  -26.5430  -19.4760   17.6950 C   0  0  0  0  0  2  0  0  0  0  0  0
  1  2  1  0
  2  7  1  0
  3  2  2  0
  3 10  1  0
  4  1  2  0
  5  3  1  0
  6  5  2  0
  6  4  1  0
  7  8  1  0
  9  8  1  0
 10 13  1  0
 10  9  1  0
 11 12  1  0
 12  5  1  0
 13 15  1  0
 14 25  2  0
 15 20  1  0
 16 24  1  0
 16 26  1  0
 17 23  1  0
 17 19  1  0
 18 24  1  0
 19 18  1  0
 20 19  2  0
 21 22  1  0
 21 15  2  0
 22 17  2  0
 23 16  1  0
 24 14  1  0
 26 28  2  0
 27 26  1  0
 29 27  1  0
 30 39  2  0
 30 35  1  0
 31 27  1  0
 31 35  1  0
 32 31  1  0
 33 34  1  0
 33 32  1  0
 34 30  1  0
 35 36  2  0
 36 37  1  0
 38 37  2  0
 39 38  1  0
 40 14  1  0
 40 41  1  0
 40 50  1  0
 41 44  1  0
 42 46  1  0
 42 41  1  0
 43 42  2  0
 46 45  1  0
 48 46  1  0
 48 49  1  0
 48 47  1  0
 50 53  1  1
 50 51  1  0
 52 50  1  0
 54  4  1  0
 54 55  1  0
 56 55  1  0
 57 66  1  0
 58 63  1  0
 59 60  1  0
 59 58  1  0
 61 60  1  0
 61 72  1  0
 61 62  1  0
 63 57  1  0
 63 62  1  0
 64 57  2  0
 65 56  1  0
 66 65  1  0
 66 68  1  0
 67 65  2  0
 69 70  2  0
 70 89  1  0
 71 70  1  0
 71 74  1  0
 72 73  1  0
 72 69  1  0
 73 71  2  0
 74 75  1  0
 75 76  2  0
 77 80  1  0
 77 76  1  0
 78 77  2  0
 79 78  1  0
 79 74  2  0
 80 81  1  0
 81 86  2  0
 81 82  1  0
 82 83  2  0
 83 84  1  0
 84 88  1  0
 85 84  2  0
 86 85  1  0
 87 86  1  0
 89 90  1  0
 90 93  1  0
 90 92  1  0
 91 89  2  0
 94 95  1  0
 94 69  1  0
 96 94  1  0
 97  6  1  0
 98 97  1  0
 99100  1  0
100 98  1  0
M  ISO  4  10 101  13 101  57 100  66 100
M  END
>  <TORSDO>  (17) 
F 23

>  <SCORE>  (17) 
-11.240

>  <name>  (17) 
16

>  <ligand_id>  (17) 
16

>  <original_smiles>  (17) 
[H]c1c([H])c([H])c2c(c1[H])C([H])([H])C([H])([H])C([H])([H])C2([H])N([H])C(=O)C1([H])N(C(=O)C([H])(N([H])C(=O)C([H])(N([H])C([H])([H])[H])C([H])([H])[H])C(C([H])([H])[H])(C([H])([H])[H])C([H])([H])[H])C([H])([H])c2c([H])c(OC3([H])c4c(C([H])([H])C([H])([H])[H])c(C([H])([H])C([H])([H])C([H])([H])C([H])([H])[H])c(C([H])([H])C([H])([H])C([H])([H])C(=O)N([H])C(=O)N5C([H])([H])C([H])([H])C([H])([H])C([H])(n6nc(-c7c([H])c([H])c(Oc8c([H])c([H])c(F)c([H])c8F)c([H])c7[H])c(C(=O)N([H])[H])c6N([H])[H])C5([H])[H])c([H])c4C([H])([H])C([H])([H])C3([H])[H])c([H])c([H])c2C1([H])[H]

>  <smiles>  (17) 
[H]c1c([H])c([H])c2c(c1[H])C([H])([H])C([H])([H])C([H])([H])C2([H])N([H])C(=O)C1([H])N(C(=O)C([H])(N([H])C(=O)C([H])(N([H])C([H])([H])[H])C([H])([H])[H])C(C([H])([H])[H])(C([H])([H])[H])C([H])([H])[H])C([H])([H])c2c([H])c(OC3([H])c4c(C([H])([H])C([H])([H])[H])c(C([H])([H])C([H])([H])C([H])([H])C([H])([H])[H])c(C([H])([H])C([H])([H])C([H])([H])C(=O)N([H])C(=O)N5C([H])([H])C([H])([H])C([H])([H])C([H])(n6nc(-c7c([H])c([H])c(Oc8c([H])c([H])c(F)c([H])c8F)c([H])c7[H])c(C(=O)N([H])[H])c6N([H])[H])C5([H])[H])c([H])c4C([H])([H])C([H])([H])C3([H])[H])c([H])c([H])c2C1([H])[H]

$$$$
17:0:0
     RDKit          3D

 96106  0  0  1  0  0  0  0  0999 V2000
  -30.5770  -15.2050   20.3690 C   0  0  0  0  0  0  0  0  0  0  0  0
  -30.4510  -12.8000   19.4800 C   0  0  0  0  0  2  0  0  0  0  0  0
  -29.5660  -12.6270   18.2260 C   0  0  0  0  0  2  0  0  0  0  0  0
  -28.1050  -12.3830   18.6360 C   0  0  0  0  0  2  0  0  0  0  0  0
  -27.6390  -13.3520   19.7520 C   0  0  0  0  0  3  0  0  0  0  0  0
  -28.6640  -13.5030   20.8970 C   0  0  0  0  0  2  0  0  0  0  0  0
  -29.9150  -13.9600   20.2760 N   0  0  0  0  0  0  0  0  0  0  0  0
  -31.8010  -15.1070   20.1940 O   0  0  0  0  0  0  0  0  0  0  0  0
  -31.1590  -21.7970   20.3680 C   0  0  0  0  0  3  0  0  0  0  0  0
  -27.3560  -23.5790   20.1580 C   0  0  0  0  0  3  0  0  0  0  0  0
  -29.8540  -22.3640   20.3010 C   0  0  0  0  0  0  0  0  0  0  0  0
  -28.7920  -21.3890   20.2640 C   0  0  0  0  0  0  0  0  0  0  0  0
  -29.1000  -19.8850   20.2950 C   0  0  0  0  0  0  0  0  0  0  0  0
  -30.4430  -19.3870   20.3280 C   0  0  0  0  0  0  0  0  0  0  0  0
  -31.4490  -20.3980   20.3720 C   0  0  0  0  0  0  0  0  0  0  0  0
  -27.5280  -22.1100   20.1840 C   0  0  0  0  0  3  0  0  0  0  0  0
  -28.4060  -24.5760   20.1900 C   0  0  0  0  0  0  0  0  0  0  0  0
  -29.6650  -23.8410   20.2670 C   0  0  0  0  0  0  0  0  0  0  0  0
  -28.1430  -18.6350   20.2330 C   0  0  0  0  0  3  0  0  0  0  0  0
  -30.8880  -17.8160   20.2600 C   0  0  0  0  0  3  0  0  0  0  0  0
  -28.6250  -17.1210   20.6870 C   0  0  0  0  0  3  0  0  0  0  0  0
  -32.9160  -19.9910   20.4190 C   0  0  0  0  0  1  0  0  0  0  0  0
  -30.0000  -16.5650   20.3830 N   0  0  0  0  0  0  0  0  0  0  0  0
  -25.2440  -13.9040   20.4320 C   0  0  0  0  0  0  0  0  0  0  0  0
  -24.1820  -13.1240   20.7910 C   0  0  0  0  0  0  0  0  0  0  0  0
  -24.6630  -11.7800   20.8030 C   0  0  0  0  0  0  0  0  0  0  0  0
  -26.3030  -13.0360   20.2370 N   0  0  0  0  0  0  0  0  0  0  0  0
  -25.9640  -11.7540   20.5300 N   0  0  0  0  0  0  0  0  0  0  0  0
  -23.9440  -10.5150   20.9980 C   0  0  0  0  0  0  0  0  0  0  0  0
  -24.3620   -9.5650   21.9570 C   0  0  0  0  0  3  0  0  0  0  0  0
  -23.6390   -8.3670   22.1410 C   0  0  0  0  0  3  0  0  0  0  0  0
  -22.4830   -8.1090   21.3660 C   0  0  0  0  0  0  0  0  0  0  0  0
  -22.0840   -9.0460   20.3970 C   0  0  0  0  0  3  0  0  0  0  0  0
  -22.8090  -10.2360   20.2110 C   0  0  0  0  0  3  0  0  0  0  0  0
  -21.7330   -6.9620   21.4580 O   0  0  0  0  0  0  0  0  0  0  0  0
  -21.6690   -6.2360   22.6210 C   0  0  0  0  0  0  0  0  0  0  0  0
  -21.2150   -6.8050   23.8300 C   0  0  0  0  0  3  0  0  0  0  0  0
  -21.0990   -6.0040   24.9840 C   0  0  0  0  0  3  0  0  0  0  0  0
  -21.4260   -4.6350   24.9290 C   0  0  0  0  0  0  0  0  0  0  0  0
  -21.8710   -4.0660   23.7230 C   0  0  0  0  0  3  0  0  0  0  0  0
  -21.9890   -4.8630   22.5720 C   0  0  0  0  0  0  0  0  0  0  0  0
  -22.3990   -4.3050   21.4080 F   0  0  0  0  0  0  0  0  0  0  0  0
  -21.3070   -3.8650   26.0360 F   0  0  0  0  0  0  0  0  0  0  0  0
  -22.7730  -13.5940   21.0050 C   0  0  0  0  0  0  0  0  0  0  0  0
  -22.0280  -12.9200   21.8750 N   0  0  0  0  0  0  0  0  0  0  0  0
  -22.3400  -14.5950   20.4360 O   0  0  0  0  0  0  0  0  0  0  0  0
  -22.3930  -12.1120   22.3580 H   0  0  0  0  0  0  0  0  0  0  0  0
  -21.0810  -13.2190   22.0620 H   0  0  0  0  0  0  0  0  0  0  0  0
  -25.3880  -15.2710   20.2220 N   0  0  0  0  0  0  0  0  0  0  0  0
  -24.6000  -15.9070   20.2890 H   0  0  0  0  0  0  0  0  0  0  0  0
  -26.2240  -15.7100   19.8620 H   0  0  0  0  0  0  0  0  0  0  0  0
  -26.3860  -21.3690   20.1120 O   0  0  0  0  0  0  0  0  0  0  0  0
  -26.5710  -20.4400   20.0450 H   0  0  0  0  0  0  0  0  0  0  0  0
  -30.7800  -24.6310   20.3060 O   0  0  0  0  0  0  0  0  0  0  0  0
  -31.5820  -24.1240   20.3680 H   0  0  0  0  0  0  0  0  0  0  0  0
  -28.3550  -26.0930   20.1550 O   0  0  0  0  0  0  0  0  0  0  0  0
  -24.7320  -31.8610   23.2390 C   0  0  0  0  0  0  0  0  0  0  0  0
  -27.2810  -27.0930   20.1490 C   0  0  0  0  0  0  0  0  0  0  0  0
  -23.5380  -30.5120   21.5590 C   0  0  0  0  0  3  0  0  0  0  0  0
  -24.9840  -28.9320   20.1170 C   0  0  0  0  0  0  0  0  0  0  0  0
  -26.1000  -30.7250   21.4350 C   0  0  0  0  0  2  0  0  0  0  0  0
  -26.1620  -29.3330   20.7590 C   0  0  0  0  0  0  0  0  0  0  0  0
  -27.3040  -28.4310   20.7550 C   0  0  0  0  0  3  0  0  0  0  0  0
  -26.0820  -26.8240   19.4560 C   0  0  0  0  0  3  0  0  0  0  0  0
  -24.9630  -27.6950   19.4500 C   0  0  0  0  0  3  0  0  0  0  0  0
  -23.7700  -29.8550   20.1690 C   0  0  0  0  0  2  0  0  0  0  0  0
  -24.8100  -31.0580   22.1320 N   0  0  0  0  0  0  0  0  0  0  0  0
  -23.6420  -32.1480   23.7600 O   0  0  0  0  0  0  0  0  0  0  0  0
  -22.8330  -29.4980   22.4950 C   0  0  0  0  0  0  0  0  0  0  0  0
  -21.5010  -29.3570   22.3650 N   0  0  0  0  0  0  0  0  0  0  0  0
  -23.4900  -28.8380   23.3050 O   0  0  0  0  0  0  0  0  0  0  0  0
  -21.0270  -29.9400   21.6880 H   0  0  0  0  0  0  0  0  0  0  0  0
  -18.0950  -28.2170   22.8540 C   0  0  0  0  0  0  0  0  0  0  0  0
  -20.6620  -28.4140   23.1090 C   0  0  0  0  0  3  0  0  0  0  0  0
  -20.7260  -27.0010   22.4850 C   0  0  0  0  0  2  0  0  0  0  0  0
  -19.6100  -26.7390   21.4680 C   0  0  0  0  0  2  0  0  0  0  0  0
  -18.2370  -26.8910   22.1280 C   0  0  0  0  0  2  0  0  0  0  0  0
  -19.2340  -28.9410   23.3010 C   0  0  0  0  0  0  0  0  0  0  0  0
  -19.0450  -30.1830   23.9430 C   0  0  0  0  0  3  0  0  0  0  0  0
  -17.7520  -30.7040   24.1390 C   0  0  0  0  0  3  0  0  0  0  0  0
  -16.6290  -29.9790   23.7070 C   0  0  0  0  0  3  0  0  0  0  0  0
  -16.8010  -28.7360   23.0700 C   0  0  0  0  0  3  0  0  0  0  0  0
  -26.0060  -32.4740   23.8950 C   0  0  0  0  0  3  0  0  0  0  0  0
  -25.6900  -33.8570   24.2890 N   0  0  0  0  0  0  0  0  0  0  0  0
  -26.0000  -34.9480   23.5760 C   0  0  0  0  0  0  0  0  0  0  0  0
  -26.6480  -34.8960   22.5280 O   0  0  0  0  0  0  0  0  0  0  0  0
  -25.1100  -33.9700   25.1080 H   0  0  0  0  0  0  0  0  0  0  0  0
  -24.2410  -36.7380   23.3670 C   0  0  0  0  0  1  0  0  0  0  0  0
  -25.5180  -36.3130   24.1090 C   0  0  0  0  0  3  0  0  0  0  0  0
  -27.6740  -37.1940   24.8900 C   0  0  0  0  0  1  0  0  0  0  0  0
  -26.5350  -37.3830   23.9980 N   0  0  0  0  0  0  0  0  0  0  0  0
  -26.1250  -38.2920   24.1940 H   0  0  0  0  0  0  0  0  0  0  0  0
  -26.5160  -31.6550   25.1460 C   0  0  1  0  0  0  0  0  0  0  0  0
  -25.4180  -31.3820   26.2010 C   0  0  0  0  0  1  0  0  0  0  0  0
  -27.0970  -30.2890   24.7130 C   0  0  0  0  0  1  0  0  0  0  0  0
  -27.6660  -32.4210   25.8420 C   0  0  0  0  0  1  0  0  0  0  0  0
  1 23  1  0
  2  7  1  0
  3  4  1  0
  3  2  1  0
  5  4  1  0
  5 27  1  0
  5  6  1  0
  7  1  1  0
  7  6  1  0
  8  1  2  0
  9 15  2  0
 10 16  1  0
 10 17  2  0
 11  9  1  0
 12 13  2  0
 12 11  1  0
 13 14  1  0
 14 15  1  0
 15 22  1  0
 16 52  1  0
 16 12  1  0
 17 18  1  0
 18 11  2  0
 18 54  1  0
 19 13  1  0
 19 21  2  0
 20 14  2  0
 20 23  1  0
 23 21  1  0
 24 25  2  0
 25 26  1  0
 25 44  1  0
 26 29  1  0
 27 24  1  0
 27 28  1  0
 28 26  2  0
 29 30  1  0
 30 31  2  0
 32 35  1  0
 32 31  1  0
 33 32  2  0
 34 33  1  0
 34 29  2  0
 35 36  1  0
 36 37  1  0
 37 38  2  0
 39 38  1  0
 39 43  1  0
 40 39  2  0
 41 36  2  0
 41 40  1  0
 42 41  1  0
 44 45  1  0
 45 48  1  0
 45 47  1  0
 46 44  2  0
 49 50  1  0
 49 24  1  0
 51 49  1  0
 53 52  1  0
 54 55  1  0
 56 17  1  0
 57 68  2  0
 58 56  1  0
 58 63  1  0
 59 67  1  0
 59 69  1  0
 60 66  1  0
 60 62  1  0
 61 67  1  0
 62 61  1  0
 63 62  2  0
 64 58  2  0
 65 64  1  0
 65 60  2  0
 66 59  1  0
 67 57  1  0
 69 71  2  0
 70 69  1  0
 72 70  1  0
 73 82  2  0
 73 78  1  0
 74 70  1  0
 74 78  1  0
 75 74  1  0
 76 77  1  0
 76 75  1  0
 77 73  1  0
 78 79  2  0
 79 80  1  0
 81 80  2  0
 82 81  1  0
 83 57  1  0
 83 84  1  0
 83 93  1  0
 84 87  1  0
 85 89  1  0
 85 84  1  0
 86 85  2  0
 89 88  1  0
 91 89  1  0
 91 92  1  0
 91 90  1  0
 93 96  1  1
 93 94  1  0
 95 93  1  0
M  ISO  4   1 100  17 101  23 100  56 101
M  END
>  <TORSDO>  (18) 
F 17

>  <SCORE>  (18) 
-15.377

>  <name>  (18) 
17

>  <ligand_id>  (18) 
17

>  <original_smiles>  (18) 
[H]Oc1c(Oc2c([H])c([H])c3c(c2[H])C([H])([H])N(C(=O)C([H])(N([H])C(=O)C([H])(N([H])C([H])([H])[H])C([H])([H])[H])C(C([H])([H])[H])(C([H])([H])[H])C([H])([H])[H])C([H])(C(=O)N([H])C2([H])c4c([H])c([H])c([H])c([H])c4C([H])([H])C([H])([H])C2([H])[H])C3([H])[H])c([H])c(O[H])c2c3c(c(C([H])([H])[H])c([H])c12)C([H])([H])N(C(=O)N1C([H])([H])C([H])([H])C([H])([H])C([H])(n2nc(-c4c([H])c([H])c(Oc5c([H])c([H])c(F)c([H])c5F)c([H])c4[H])c(C(=O)N([H])[H])c2N([H])[H])C1([H])[H])C([H])([H])C3([H])[H]

>  <smiles>  (18) 
[H]Oc1c(Oc2c([H])c([H])c3c(c2[H])C([H])([H])N(C(=O)C([H])(N([H])C(=O)C([H])(N([H])C([H])([H])[H])C([H])([H])[H])C(C([H])([H])[H])(C([H])([H])[H])C([H])([H])[H])C([H])(C(=O)N([H])C2([H])c4c([H])c([H])c([H])c([H])c4C([H])([H])C([H])([H])C2([H])[H])C3([H])[H])c([H])c(O[H])c2c3c(c(C([H])([H])[H])c([H])c12)C([H])([H])N(C(=O)N1C([H])([H])C([H])([H])C([H])([H])C([H])(n2nc(-c4c([H])c([H])c(Oc5c([H])c([H])c(F)c([H])c5F)c([H])c4[H])c(C(=O)N([H])[H])c2N([H])[H])C1([H])[H])C([H])([H])C3([H])[H]

$$$$
18:0:0
     RDKit          3D

 94103  0  0  1  0  0  0  0  0999 V2000
  -31.3700  -23.3430   19.1440 C   0  0  0  0  0  3  0  0  0  0  0  0
  -30.6730  -24.2780   19.9280 C   0  0  0  0  0  0  0  0  0  0  0  0
  -29.5740  -23.8590   20.7210 C   0  0  0  0  0  0  0  0  0  0  0  0
  -30.9860  -21.9910   19.1140 C   0  0  0  0  0  0  0  0  0  0  0  0
  -29.2130  -22.4810   20.7400 C   0  0  0  0  0  0  0  0  0  0  0  0
  -29.9010  -21.5460   19.9110 C   0  0  0  0  0  0  0  0  0  0  0  0
  -31.1190  -25.7320   19.8640 C   0  0  0  0  0  2  0  0  0  0  0  0
  -28.7970  -24.8870   21.5570 C   0  0  0  0  0  2  0  0  0  0  0  0
  -30.5740  -26.6030   21.0010 C   0  0  0  0  0  2  0  0  0  0  0  0
  -29.0790  -26.3680   21.2260 C   0  0  0  0  0  3  0  0  0  0  0  0
  -31.7520  -21.0520   18.1910 C   0  0  0  0  0  1  0  0  0  0  0  0
  -28.0740  -22.0070   21.6410 C   0  0  0  0  0  1  0  0  0  0  0  0
  -28.3990  -26.7170   20.0210 O   0  0  0  0  0  0  0  0  0  0  0  0
  -24.6210  -31.8760   23.2370 C   0  0  0  0  0  0  0  0  0  0  0  0
  -27.2450  -27.4550   20.1320 C   0  0  0  0  0  0  0  0  0  0  0  0
  -23.3970  -30.4750   21.6030 C   0  0  0  0  0  3  0  0  0  0  0  0
  -24.8410  -28.9330   20.1720 C   0  0  0  0  0  0  0  0  0  0  0  0
  -25.9180  -30.8370   21.3840 C   0  0  0  0  0  2  0  0  0  0  0  0
  -26.0000  -29.4640   20.7540 C   0  0  0  0  0  0  0  0  0  0  0  0
  -27.2040  -28.7290   20.7430 C   0  0  0  0  0  3  0  0  0  0  0  0
  -26.0760  -26.9360   19.5410 C   0  0  0  0  0  3  0  0  0  0  0  0
  -24.8710  -27.6640   19.5670 C   0  0  0  0  0  3  0  0  0  0  0  0
  -23.5950  -29.7890   20.2230 C   0  0  0  0  0  2  0  0  0  0  0  0
  -24.6640  -31.0770   22.1340 N   0  0  0  0  0  0  0  0  0  0  0  0
  -23.5460  -32.1480   23.7880 O   0  0  0  0  0  0  0  0  0  0  0  0
  -22.7550  -29.4550   22.5700 C   0  0  0  0  0  0  0  0  0  0  0  0
  -21.4290  -29.2740   22.4520 N   0  0  0  0  0  0  0  0  0  0  0  0
  -23.4460  -28.8280   23.3780 O   0  0  0  0  0  0  0  0  0  0  0  0
  -20.9350  -29.8320   21.7700 H   0  0  0  0  0  0  0  0  0  0  0  0
  -18.0590  -28.0810   22.9640 C   0  0  0  0  0  0  0  0  0  0  0  0
  -20.6170  -28.3370   23.2260 C   0  0  0  0  0  3  0  0  0  0  0  0
  -20.7180  -26.9050   22.6520 C   0  0  0  0  0  2  0  0  0  0  0  0
  -19.6130  -26.5820   21.6420 C   0  0  0  0  0  2  0  0  0  0  0  0
  -18.2330  -26.7300   22.2890 C   0  0  0  0  0  2  0  0  0  0  0  0
  -19.1790  -28.8420   23.3890 C   0  0  0  0  0  0  0  0  0  0  0  0
  -18.9630  -30.1080   23.9760 C   0  0  0  0  0  3  0  0  0  0  0  0
  -17.6600  -30.6120   24.1440 C   0  0  0  0  0  3  0  0  0  0  0  0
  -16.5540  -29.8460   23.7380 C   0  0  0  0  0  3  0  0  0  0  0  0
  -16.7540  -28.5830   23.1520 C   0  0  0  0  0  3  0  0  0  0  0  0
  -25.9160  -32.5020   23.8450 C   0  0  0  0  0  3  0  0  0  0  0  0
  -25.6110  -33.8980   24.1910 N   0  0  0  0  0  0  0  0  0  0  0  0
  -25.9300  -34.9550   23.4340 C   0  0  0  0  0  0  0  0  0  0  0  0
  -26.5820  -34.8590   22.3900 O   0  0  0  0  0  0  0  0  0  0  0  0
  -25.0330  -34.0460   25.0060 H   0  0  0  0  0  0  0  0  0  0  0  0
  -24.1850  -36.7390   23.1210 C   0  0  0  0  0  1  0  0  0  0  0  0
  -25.4440  -36.3380   23.9070 C   0  0  0  0  0  3  0  0  0  0  0  0
  -27.5920  -37.2240   24.7000 C   0  0  0  0  0  1  0  0  0  0  0  0
  -26.4700  -37.3970   23.7810 N   0  0  0  0  0  0  0  0  0  0  0  0
  -26.0640  -38.3140   23.9470 H   0  0  0  0  0  0  0  0  0  0  0  0
  -26.4540  -31.7180   25.1050 C   0  0  1  0  0  0  0  0  0  0  0  0
  -25.3800  -31.4650   26.1860 C   0  0  0  0  0  1  0  0  0  0  0  0
  -27.0330  -30.3460   24.6860 C   0  0  0  0  0  1  0  0  0  0  0  0
  -27.6120  -32.5080   25.7600 C   0  0  0  0  0  1  0  0  0  0  0  0
  -29.4740  -20.0740   19.8440 C   0  0  0  0  0  2  0  0  0  0  0  0
  -30.3210  -19.1510   20.7410 C   0  0  0  0  0  2  0  0  0  0  0  0
  -29.9950  -17.6610   20.5380 C   0  0  0  0  0  2  0  0  0  0  0  0
  -30.8290  -16.7440   21.4540 C   0  0  0  0  0  2  0  0  0  0  0  0
  -30.3140  -15.2880   21.5090 C   0  0  0  0  0  2  0  0  0  0  0  0
  -30.7430  -14.3620   20.3500 C   0  0  0  0  0  0  0  0  0  0  0  0
  -30.3370  -12.3340   18.9850 C   0  0  0  0  0  2  0  0  0  0  0  0
  -29.3410  -12.6200   17.8460 C   0  0  0  0  0  2  0  0  0  0  0  0
  -27.8860  -12.4840   18.3340 C   0  0  0  0  0  2  0  0  0  0  0  0
  -27.6260  -13.2560   19.6560 C   0  0  0  0  0  3  0  0  0  0  0  0
  -28.7160  -12.9100   20.6960 C   0  0  0  0  0  2  0  0  0  0  0  0
  -30.0240  -13.2360   20.1030 N   0  0  0  0  0  0  0  0  0  0  0  0
  -31.7470  -14.6560   19.6920 O   0  0  0  0  0  0  0  0  0  0  0  0
  -25.2470  -13.8850   20.4220 C   0  0  0  0  0  0  0  0  0  0  0  0
  -24.1830  -13.1220   20.8210 C   0  0  0  0  0  0  0  0  0  0  0  0
  -24.6340  -11.7670   20.7760 C   0  0  0  0  0  0  0  0  0  0  0  0
  -26.2820  -12.9970   20.1680 N   0  0  0  0  0  0  0  0  0  0  0  0
  -25.9140  -11.7170   20.4320 N   0  0  0  0  0  0  0  0  0  0  0  0
  -23.9050  -10.5090   20.9890 C   0  0  0  0  0  0  0  0  0  0  0  0
  -24.3670   -9.5320   21.8990 C   0  0  0  0  0  3  0  0  0  0  0  0
  -23.6390   -8.3390   22.0970 C   0  0  0  0  0  3  0  0  0  0  0  0
  -22.4350   -8.1160   21.3860 C   0  0  0  0  0  0  0  0  0  0  0  0
  -21.9930   -9.0810   20.4650 C   0  0  0  0  0  3  0  0  0  0  0  0
  -22.7220  -10.2640   20.2640 C   0  0  0  0  0  3  0  0  0  0  0  0
  -21.6750   -6.9770   21.4980 O   0  0  0  0  0  0  0  0  0  0  0  0
  -21.6740   -6.2210   22.6430 C   0  0  0  0  0  0  0  0  0  0  0  0
  -21.3260   -6.7680   23.8960 C   0  0  0  0  0  3  0  0  0  0  0  0
  -21.2710   -5.9400   25.0350 C   0  0  0  0  0  3  0  0  0  0  0  0
  -21.5530   -4.5650   24.9200 C   0  0  0  0  0  0  0  0  0  0  0  0
  -21.8960   -4.0180   23.6710 C   0  0  0  0  0  3  0  0  0  0  0  0
  -21.9530   -4.8440   22.5350 C   0  0  0  0  0  0  0  0  0  0  0  0
  -22.2620   -4.3070   21.3290 F   0  0  0  0  0  0  0  0  0  0  0  0
  -21.4930   -3.7670   26.0120 F   0  0  0  0  0  0  0  0  0  0  0  0
  -22.7990  -13.6070   21.1400 C   0  0  0  0  0  0  0  0  0  0  0  0
  -22.0940  -12.9150   22.0280 N   0  0  0  0  0  0  0  0  0  0  0  0
  -22.3500  -14.6370   20.6360 O   0  0  0  0  0  0  0  0  0  0  0  0
  -22.4690  -12.0790   22.4530 H   0  0  0  0  0  0  0  0  0  0  0  0
  -21.1700  -13.2260   22.2900 H   0  0  0  0  0  0  0  0  0  0  0  0
  -25.4160  -15.2550   20.2390 N   0  0  0  0  0  0  0  0  0  0  0  0
  -24.6570  -15.9170   20.3620 H   0  0  0  0  0  0  0  0  0  0  0  0
  -26.2700  -15.6910   19.9140 H   0  0  0  0  0  0  0  0  0  0  0  0
  1  2  1  0
  2  3  2  0
  3  5  1  0
  3  8  1  0
  4  1  2  0
  4  6  1  0
  5 12  1  0
  6  5  2  0
  7  2  1  0
  7  9  1  0
  9 10  1  0
 10 13  1  0
 10  8  1  0
 11  4  1  0
 13 15  1  0
 14 25  2  0
 15 20  1  0
 16 24  1  0
 16 26  1  0
 17 23  1  0
 17 19  1  0
 18 24  1  0
 19 18  1  0
 20 19  2  0
 21 22  1  0
 21 15  2  0
 22 17  2  0
 23 16  1  0
 24 14  1  0
 26 28  2  0
 27 26  1  0
 29 27  1  0
 30 39  2  0
 30 35  1  0
 31 27  1  0
 31 35  1  0
 32 31  1  0
 33 34  1  0
 33 32  1  0
 34 30  1  0
 35 36  2  0
 36 37  1  0
 38 37  2  0
 39 38  1  0
 40 14  1  0
 40 41  1  0
 40 50  1  0
 41 44  1  0
 42 46  1  0
 42 41  1  0
 43 42  2  0
 46 45  1  0
 48 46  1  0
 48 49  1  0
 48 47  1  0
 50 53  1  1
 50 51  1  0
 52 50  1  0
 54  6  1  0
 54 55  1  0
 56 55  1  0
 56 57  1  0
 57 58  1  0
 59 58  1  0
 60 65  1  0
 61 62  1  0
 61 60  1  0
 63 62  1  0
 63 70  1  0
 63 64  1  0
 65 59  1  0
 65 64  1  0
 66 59  2  0
 67 68  2  0
 68 87  1  0
 69 68  1  0
 69 72  1  0
 70 67  1  0
 70 71  1  0
 71 69  2  0
 72 73  1  0
 73 74  2  0
 75 78  1  0
 75 74  1  0
 76 75  2  0
 77 76  1  0
 77 72  2  0
 78 79  1  0
 79 80  1  0
 80 81  2  0
 82 81  1  0
 82 86  1  0
 83 82  2  0
 84 79  2  0
 84 83  1  0
 85 84  1  0
 87 88  1  0
 88 91  1  0
 88 90  1  0
 89 87  2  0
 92 93  1  0
 92 67  1  0
 94 92  1  0
M  ISO  4  10 101  13 101  58 100  59 100
M  END
>  <TORSDO>  (19) 
F 21

>  <SCORE>  (19) 
-13.607

>  <name>  (19) 
18

>  <ligand_id>  (19) 
18

>  <original_smiles>  (19) 
[H]c1c([H])c([H])c2c(c1[H])C([H])([H])C([H])([H])C([H])([H])C2([H])N([H])C(=O)C1([H])N(C(=O)C([H])(N([H])C(=O)C([H])(N([H])C([H])([H])[H])C([H])([H])[H])C(C([H])([H])[H])(C([H])([H])[H])C([H])([H])[H])C([H])([H])c2c([H])c(OC3([H])C([H])([H])c4c(C([H])([H])[H])c(C([H])([H])C([H])([H])C([H])([H])C([H])([H])C([H])([H])C(=O)N5C([H])([H])C([H])([H])C([H])([H])C([H])(n6nc(-c7c([H])c([H])c(Oc8c([H])c([H])c(F)c([H])c8F)c([H])c7[H])c(C(=O)N([H])[H])c6N([H])[H])C5([H])[H])c(C([H])([H])[H])c([H])c4C([H])([H])C3([H])[H])c([H])c([H])c2C1([H])[H]

>  <smiles>  (19) 
[H]c1c([H])c([H])c2c(c1[H])C([H])([H])C([H])([H])C([H])([H])C2([H])N([H])C(=O)C1([H])N(C(=O)C([H])(N([H])C(=O)C([H])(N([H])C([H])([H])[H])C([H])([H])[H])C(C([H])([H])[H])(C([H])([H])[H])C([H])([H])[H])C([H])([H])c2c([H])c(OC3([H])C([H])([H])c4c(C([H])([H])[H])c(C([H])([H])C([H])([H])C([H])([H])C([H])([H])C([H])([H])C(=O)N5C([H])([H])C([H])([H])C([H])([H])C([H])(n6nc(-c7c([H])c([H])c(Oc8c([H])c([H])c(F)c([H])c8F)c([H])c7[H])c(C(=O)N([H])[H])c6N([H])[H])C5([H])[H])c(C([H])([H])[H])c([H])c4C([H])([H])C3([H])[H])c([H])c([H])c2C1([H])[H]

$$$$
19:0:0
     RDKit          3D

 95105  0  0  1  0  0  0  0  0999 V2000
  -28.3660  -22.8920   21.5180 C   0  0  0  0  0  3  0  0  0  0  0  0
  -29.1180  -21.9710   19.3940 C   0  0  0  0  0  3  0  0  0  0  0  0
  -28.3170  -24.1830   20.9470 C   0  0  0  0  0  3  0  0  0  0  0  0
  -29.0720  -23.2650   18.8280 C   0  0  0  0  0  3  0  0  0  0  0  0
  -28.8400  -21.7890   20.7700 C   0  0  0  0  0  0  0  0  0  0  0  0
  -28.7400  -24.3880   19.6170 C   0  0  0  0  0  0  0  0  0  0  0  0
  -29.5780  -18.0560   20.6650 C   0  0  0  0  0  0  0  0  0  0  0  0
  -29.4160  -16.6110   20.6840 C   0  0  0  0  0  0  0  0  0  0  0  0
  -30.7980  -18.4160   20.1820 C   0  0  0  0  0  0  0  0  0  0  0  0
  -30.4290  -15.9260   19.9960 C   0  0  0  0  0  0  0  0  0  0  0  0
  -31.4110  -19.7190   20.2920 C   0  0  0  0  0  0  0  0  0  0  0  0
  -28.6290  -19.1590   21.1390 C   0  0  0  0  0  2  0  0  0  0  0  0
  -30.8680  -20.5280   21.4620 C   0  0  0  0  0  2  0  0  0  0  0  0
  -29.3170  -20.5280   21.5060 C   0  0  0  0  0  3  0  0  0  0  0  0
  -28.2760  -15.9930   21.4260 C   0  0  0  0  0  1  0  0  0  0  0  0
  -32.3330  -20.1290   19.5830 O   0  0  0  0  0  0  0  0  0  0  0  0
  -31.6440  -17.1040   19.4740 S   0  0  0  0  0  0  0  0  0  0  0  0
  -30.8980  -14.5180   19.6180 C   0  0  0  0  0  0  0  0  0  0  0  0
  -30.4030  -12.3500   18.5500 C   0  0  0  0  0  2  0  0  0  0  0  0
  -29.3430  -12.5650   17.4520 C   0  0  0  0  0  2  0  0  0  0  0  0
  -27.9260  -12.4250   18.0380 C   0  0  0  0  0  2  0  0  0  0  0  0
  -27.7360  -13.2450   19.3440 C   0  0  0  0  0  3  0  0  0  0  0  0
  -28.9240  -13.0240   20.3100 C   0  0  0  0  0  2  0  0  0  0  0  0
  -30.1550  -13.3680   19.5970 N   0  0  0  0  0  0  0  0  0  0  0  0
  -32.0190  -14.4750   19.1000 O   0  0  0  0  0  0  0  0  0  0  0  0
  -25.4430  -13.8160   20.3660 C   0  0  0  0  0  0  0  0  0  0  0  0
  -24.4310  -13.0290   20.8400 C   0  0  0  0  0  0  0  0  0  0  0  0
  -24.8720  -11.6810   20.6760 C   0  0  0  0  0  0  0  0  0  0  0  0
  -26.4520  -12.9490   19.9750 N   0  0  0  0  0  0  0  0  0  0  0  0
  -26.1140  -11.6550   20.2130 N   0  0  0  0  0  0  0  0  0  0  0  0
  -24.1560  -10.4150   20.8800 C   0  0  0  0  0  0  0  0  0  0  0  0
  -24.6120   -9.4530   21.8060 C   0  0  0  0  0  3  0  0  0  0  0  0
  -23.8960   -8.2540   22.0030 C   0  0  0  0  0  3  0  0  0  0  0  0
  -22.7090   -8.0090   21.2710 C   0  0  0  0  0  0  0  0  0  0  0  0
  -22.2720   -8.9590   20.3320 C   0  0  0  0  0  3  0  0  0  0  0  0
  -22.9890  -10.1500   20.1330 C   0  0  0  0  0  3  0  0  0  0  0  0
  -21.9640   -6.8590   21.3730 O   0  0  0  0  0  0  0  0  0  0  0  0
  -21.8310   -6.1910   22.5640 C   0  0  0  0  0  0  0  0  0  0  0  0
  -21.3000   -6.8160   23.7140 C   0  0  0  0  0  3  0  0  0  0  0  0
  -21.1160   -6.0720   24.8950 C   0  0  0  0  0  3  0  0  0  0  0  0
  -21.4530   -4.7050   24.9270 C   0  0  0  0  0  0  0  0  0  0  0  0
  -21.9800   -4.0820   23.7830 C   0  0  0  0  0  3  0  0  0  0  0  0
  -22.1650   -4.8230   22.6020 C   0  0  0  0  0  0  0  0  0  0  0  0
  -22.6490   -4.2120   21.4940 F   0  0  0  0  0  0  0  0  0  0  0  0
  -21.2720   -3.9870   26.0610 F   0  0  0  0  0  0  0  0  0  0  0  0
  -23.0870  -13.4960   21.3200 C   0  0  0  0  0  0  0  0  0  0  0  0
  -22.4840  -12.7730   22.2580 N   0  0  0  0  0  0  0  0  0  0  0  0
  -22.5860  -14.5380   20.9000 O   0  0  0  0  0  0  0  0  0  0  0  0
  -22.8980  -11.9280   22.6250 H   0  0  0  0  0  0  0  0  0  0  0  0
  -21.5850  -13.0670   22.6110 H   0  0  0  0  0  0  0  0  0  0  0  0
  -25.5630  -15.1950   20.2230 N   0  0  0  0  0  0  0  0  0  0  0  0
  -24.7960  -15.8100   20.4740 H   0  0  0  0  0  0  0  0  0  0  0  0
  -26.3530  -15.6830   19.8250 H   0  0  0  0  0  0  0  0  0  0  0  0
  -28.9470  -25.7890   19.0430 C   0  0  0  0  0  2  0  0  0  0  0  0
  -28.7270  -26.8690   19.9620 O   0  0  0  0  0  0  0  0  0  0  0  0
  -24.6120  -31.7240   23.1580 C   0  0  0  0  0  0  0  0  0  0  0  0
  -27.4930  -27.4870   19.9960 C   0  0  0  0  0  0  0  0  0  0  0  0
  -23.4890  -30.2920   21.4860 C   0  0  0  0  0  3  0  0  0  0  0  0
  -25.0210  -28.8600   20.0440 C   0  0  0  0  0  0  0  0  0  0  0  0
  -25.9920  -30.7870   21.3060 C   0  0  0  0  0  2  0  0  0  0  0  0
  -26.1500  -29.4330   20.6440 C   0  0  0  0  0  0  0  0  0  0  0  0
  -27.3860  -28.7510   20.6220 C   0  0  0  0  0  3  0  0  0  0  0  0
  -26.3330  -26.9130   19.4270 C   0  0  0  0  0  3  0  0  0  0  0  0
  -25.1060  -27.5970   19.4400 C   0  0  0  0  0  3  0  0  0  0  0  0
  -23.7360  -29.6510   20.0950 C   0  0  0  0  0  2  0  0  0  0  0  0
  -24.7160  -30.9500   22.0410 N   0  0  0  0  0  0  0  0  0  0  0  0
  -23.5150  -31.9260   23.6970 O   0  0  0  0  0  0  0  0  0  0  0  0
  -22.8940  -29.2180   22.4240 C   0  0  0  0  0  0  0  0  0  0  0  0
  -21.5980  -28.9170   22.2420 N   0  0  0  0  0  0  0  0  0  0  0  0
  -23.5940  -28.6560   23.2710 O   0  0  0  0  0  0  0  0  0  0  0  0
  -21.0980  -29.4030   21.5120 H   0  0  0  0  0  0  0  0  0  0  0  0
  -18.3290  -27.4290   22.6030 C   0  0  0  0  0  0  0  0  0  0  0  0
  -20.8350  -27.9230   22.9950 C   0  0  0  0  0  3  0  0  0  0  0  0
  -21.0900  -26.4930   22.4600 C   0  0  0  0  0  2  0  0  0  0  0  0
  -20.0820  -26.0690   21.3870 C   0  0  0  0  0  2  0  0  0  0  0  0
  -18.6630  -26.0940   21.9620 C   0  0  0  0  0  2  0  0  0  0  0  0
  -19.3510  -28.2940   23.0750 C   0  0  0  0  0  0  0  0  0  0  0  0
  -18.9900  -29.5400   23.6310 C   0  0  0  0  0  3  0  0  0  0  0  0
  -17.6380  -29.9230   23.7230 C   0  0  0  0  0  3  0  0  0  0  0  0
  -16.6280  -29.0550   23.2700 C   0  0  0  0  0  3  0  0  0  0  0  0
  -16.9740  -27.8090   22.7180 C   0  0  0  0  0  3  0  0  0  0  0  0
  -25.8600  -32.4130   23.7940 C   0  0  0  0  0  3  0  0  0  0  0  0
  -25.4770  -33.7910   24.1300 N   0  0  0  0  0  0  0  0  0  0  0  0
  -25.7590  -34.8630   23.3770 C   0  0  0  0  0  0  0  0  0  0  0  0
  -26.4400  -34.8000   22.3510 O   0  0  0  0  0  0  0  0  0  0  0  0
  -24.8710  -33.9110   24.9280 H   0  0  0  0  0  0  0  0  0  0  0  0
  -23.9470  -36.5680   23.0140 C   0  0  0  0  0  1  0  0  0  0  0  0
  -25.1970  -36.2210   23.8370 C   0  0  0  0  0  3  0  0  0  0  0  0
  -27.2750  -37.2060   24.7000 C   0  0  0  0  0  1  0  0  0  0  0  0
  -26.1780  -37.3250   23.7420 N   0  0  0  0  0  0  0  0  0  0  0  0
  -25.7250  -38.2230   23.8880 H   0  0  0  0  0  0  0  0  0  0  0  0
  -26.4070  -31.6570   25.0660 C   0  0  1  0  0  0  0  0  0  0  0  0
  -25.3180  -31.3240   26.1110 C   0  0  0  0  0  1  0  0  0  0  0  0
  -27.0920  -30.3310   24.6580 C   0  0  0  0  0  1  0  0  0  0  0  0
  -27.4890  -32.5180   25.7620 C   0  0  0  0  0  1  0  0  0  0  0  0
  2  5  1  0
  3  1  1  0
  4  2  2  0
  4  6  1  0
  5  1  2  0
  6  3  2  0
  7  8  1  0
  7 12  1  0
  8 15  1  0
  9 11  1  0
  9  7  2  0
 10  8  2  0
 11 13  1  0
 12 14  1  0
 13 14  1  0
 14  5  1  0
 16 11  2  0
 17 10  1  0
 17  9  1  0
 18 10  1  0
 19 24  1  0
 20 21  1  0
 20 19  1  0
 22 21  1  0
 22 29  1  0
 22 23  1  0
 24 18  1  0
 24 23  1  0
 25 18  2  0
 26 27  2  0
 27 46  1  0
 28 27  1  0
 28 31  1  0
 29 30  1  0
 29 26  1  0
 30 28  2  0
 31 32  1  0
 32 33  2  0
 34 37  1  0
 34 33  1  0
 35 34  2  0
 36 35  1  0
 36 31  2  0
 37 38  1  0
 38 43  2  0
 38 39  1  0
 39 40  2  0
 40 41  1  0
 41 45  1  0
 42 41  2  0
 43 42  1  0
 44 43  1  0
 46 47  1  0
 47 50  1  0
 47 49  1  0
 48 46  2  0
 51 26  1  0
 51 52  1  0
 53 51  1  0
 54  6  1  0
 54 55  1  0
 55 57  1  0
 56 67  2  0
 57 62  1  0
 58 66  1  0
 58 68  1  0
 59 65  1  0
 59 61  1  0
 60 66  1  0
 61 60  1  0
 62 61  2  0
 63 64  1  0
 63 57  2  0
 64 59  2  0
 65 58  1  0
 66 56  1  0
 68 70  2  0
 69 68  1  0
 71 69  1  0
 72 81  2  0
 72 77  1  0
 73 69  1  0
 73 77  1  0
 74 73  1  0
 75 76  1  0
 75 74  1  0
 76 72  1  0
 77 78  2  0
 78 79  1  0
 80 79  2  0
 81 80  1  0
 82 56  1  0
 82 83  1  0
 82 92  1  0
 83 86  1  0
 84 88  1  0
 84 83  1  0
 85 84  2  0
 88 87  1  0
 90 88  1  0
 90 91  1  0
 90 89  1  0
 92 95  1  1
 92 93  1  0
 94 92  1  0
M  ISO  4  10 100  18 100  54 101  55 101
M  END
>  <TORSDO>  (20) 
F 18

>  <SCORE>  (20) 
-12.425

>  <name>  (20) 
19

>  <ligand_id>  (20) 
19

>  <original_smiles>  (20) 
[H]c1c([H])c([H])c2c(c1[H])C([H])([H])C([H])([H])C([H])([H])C2([H])N([H])C(=O)C1([H])N(C(=O)C([H])(N([H])C(=O)C([H])(N([H])C([H])([H])[H])C([H])([H])[H])C(C([H])([H])[H])(C([H])([H])[H])C([H])([H])[H])C([H])([H])c2c([H])c(OC([H])([H])c3c([H])c([H])c(C4([H])C([H])([H])C(=O)c5sc(C(=O)N6C([H])([H])C([H])([H])C([H])([H])C([H])(n7nc(-c8c([H])c([H])c(Oc9c([H])c([H])c(F)c([H])c9F)c([H])c8[H])c(C(=O)N([H])[H])c7N([H])[H])C6([H])[H])c(C([H])([H])[H])c5C4([H])[H])c([H])c3[H])c([H])c([H])c2C1([H])[H]

>  <smiles>  (20) 
[H]c1c([H])c([H])c2c(c1[H])C([H])([H])C([H])([H])C([H])([H])C2([H])N([H])C(=O)C1([H])N(C(=O)C([H])(N([H])C(=O)C([H])(N([H])C([H])([H])[H])C([H])([H])[H])C(C([H])([H])[H])(C([H])([H])[H])C([H])([H])[H])C([H])([H])c2c([H])c(OC([H])([H])c3c([H])c([H])c(C4([H])C([H])([H])C(=O)c5sc(C(=O)N6C([H])([H])C([H])([H])C([H])([H])C([H])(n7nc(-c8c([H])c([H])c(Oc9c([H])c([H])c(F)c([H])c9F)c([H])c8[H])c(C(=O)N([H])[H])c7N([H])[H])C6([H])[H])c(C([H])([H])[H])c5C4([H])[H])c([H])c3[H])c([H])c([H])c2C1([H])[H]

$$$$
20:0:0
     RDKit          3D

 92101  0  0  1  0  0  0  0  0999 V2000
  -28.4760  -20.7300   18.2440 C   0  0  0  0  0  3  0  0  0  0  0  0
  -29.3460  -20.7200   19.3490 C   0  0  0  0  0  0  0  0  0  0  0  0
  -27.8730  -21.8950   17.6650 C   0  0  0  0  0  0  0  0  0  0  0  0
  -29.3640  -22.2920   19.8410 C   0  0  0  0  0  0  0  0  0  0  0  0
  -28.0010  -23.2700   18.1160 C   0  0  0  0  0  0  0  0  0  0  0  0
  -28.6500  -23.6820   19.3300 C   0  0  0  0  0  0  0  0  0  0  0  0
  -27.0530  -21.6110   16.4090 C   0  0  0  0  0  1  0  0  0  0  0  0
  -30.2810  -22.5350   21.0200 C   0  0  0  0  0  1  0  0  0  0  0  0
  -27.4950  -24.3450   17.1560 C   0  0  0  0  0  1  0  0  0  0  0  0
  -30.7610  -15.7970   19.3240 C   0  0  0  0  0  0  0  0  0  0  0  0
  -30.8220  -13.2180   18.4720 C   0  0  0  0  0  2  0  0  0  0  0  0
  -29.7720  -12.7220   17.4320 C   0  0  0  0  0  2  0  0  0  0  0  0
  -28.4570  -12.3100   18.1100 C   0  0  0  0  0  2  0  0  0  0  0  0
  -28.0900  -13.2970   19.2400 C   0  0  0  0  0  3  0  0  0  0  0  0
  -29.2830  -13.6520   20.1630 C   0  0  0  0  0  2  0  0  0  0  0  0
  -30.2690  -14.3910   19.3140 N   0  0  0  0  0  0  0  0  0  0  0  0
  -31.9650  -15.7120   18.9860 O   0  0  0  0  0  0  0  0  0  0  0  0
  -30.0380  -18.9200   21.2630 C   0  0  0  0  0  2  0  0  0  0  0  0
  -28.7280  -17.1410   20.1740 C   0  0  0  0  0  2  0  0  0  0  0  0
  -30.1540  -19.0190   19.7400 C   0  0  0  0  0  3  0  0  0  0  0  0
  -28.9620  -17.8490   21.5220 C   0  0  0  0  0  3  0  0  0  0  0  0
  -27.6740  -18.4150   22.1310 C   0  0  0  0  0  1  0  0  0  0  0  0
  -30.0050  -17.2110   19.4900 N   0  0  0  0  0  0  0  0  0  0  0  0
  -25.9480  -13.7770   20.5140 C   0  0  0  0  0  0  0  0  0  0  0  0
  -24.9390  -12.9860   20.9810 C   0  0  0  0  0  0  0  0  0  0  0  0
  -25.3180  -11.6420   20.6760 C   0  0  0  0  0  0  0  0  0  0  0  0
  -26.8810  -12.9210   19.9610 N   0  0  0  0  0  0  0  0  0  0  0  0
  -26.5250  -11.6180   20.1150 N   0  0  0  0  0  0  0  0  0  0  0  0
  -24.5640  -10.3910   20.8300 C   0  0  0  0  0  0  0  0  0  0  0  0
  -24.9960   -9.3690   21.7040 C   0  0  0  0  0  3  0  0  0  0  0  0
  -24.2390   -8.1870   21.8550 C   0  0  0  0  0  3  0  0  0  0  0  0
  -23.0350   -8.0200   21.1310 C   0  0  0  0  0  0  0  0  0  0  0  0
  -22.6200   -9.0290   20.2440 C   0  0  0  0  0  3  0  0  0  0  0  0
  -23.3780  -10.2020   20.0920 C   0  0  0  0  0  3  0  0  0  0  0  0
  -22.2450   -6.8970   21.1960 O   0  0  0  0  0  0  0  0  0  0  0  0
  -22.0290   -6.2370   22.3780 C   0  0  0  0  0  0  0  0  0  0  0  0
  -21.4520   -6.8790   23.4960 C   0  0  0  0  0  3  0  0  0  0  0  0
  -21.1860   -6.1450   24.6690 C   0  0  0  0  0  3  0  0  0  0  0  0
  -21.4840   -4.7700   24.7240 C   0  0  0  0  0  0  0  0  0  0  0  0
  -22.0520   -4.1280   23.6090 C   0  0  0  0  0  3  0  0  0  0  0  0
  -22.3210   -4.8590   22.4390 C   0  0  0  0  0  0  0  0  0  0  0  0
  -22.8490   -4.2310   21.3610 F   0  0  0  0  0  0  0  0  0  0  0  0
  -21.2210   -4.0620   25.8480 F   0  0  0  0  0  0  0  0  0  0  0  0
  -23.6470  -13.4640   21.5740 C   0  0  0  0  0  0  0  0  0  0  0  0
  -23.0730  -12.6940   22.4890 N   0  0  0  0  0  0  0  0  0  0  0  0
  -23.1670  -14.5540   21.2630 O   0  0  0  0  0  0  0  0  0  0  0  0
  -23.4830  -11.8110   22.7570 H   0  0  0  0  0  0  0  0  0  0  0  0
  -22.2140  -12.9900   22.9280 H   0  0  0  0  0  0  0  0  0  0  0  0
  -26.1280  -15.1540   20.4820 N   0  0  0  0  0  0  0  0  0  0  0  0
  -25.4210  -15.7970   20.8190 H   0  0  0  0  0  0  0  0  0  0  0  0
  -26.8880  -15.6180   20.0040 H   0  0  0  0  0  0  0  0  0  0  0  0
  -28.6730  -25.3120   19.6710 O   0  0  0  0  0  0  0  0  0  0  0  0
  -25.3330  -31.5060   23.2370 C   0  0  0  0  0  0  0  0  0  0  0  0
  -27.7110  -26.5790   19.7460 C   0  0  0  0  0  0  0  0  0  0  0  0
  -24.0820  -30.2500   21.5380 C   0  0  0  0  0  3  0  0  0  0  0  0
  -25.4660  -28.6940   19.9540 C   0  0  0  0  0  0  0  0  0  0  0  0
  -26.6620  -30.3530   21.3480 C   0  0  0  0  0  2  0  0  0  0  0  0
  -26.6910  -28.9680   20.5710 C   0  0  0  0  0  0  0  0  0  0  0  0
  -27.7890  -27.9440   20.4370 C   0  0  0  0  0  3  0  0  0  0  0  0
  -26.4320  -26.5410   19.1230 C   0  0  0  0  0  3  0  0  0  0  0  0
  -25.3810  -27.5080   19.2080 C   0  0  0  0  0  3  0  0  0  0  0  0
  -24.2740  -29.6570   20.1110 C   0  0  0  0  0  2  0  0  0  0  0  0
  -25.3860  -30.7340   22.0940 N   0  0  0  0  0  0  0  0  0  0  0  0
  -24.2590  -31.7760   23.8030 O   0  0  0  0  0  0  0  0  0  0  0  0
  -23.3790  -29.2110   22.4570 C   0  0  0  0  0  0  0  0  0  0  0  0
  -22.0520  -29.0280   22.3170 N   0  0  0  0  0  0  0  0  0  0  0  0
  -24.0450  -28.5670   23.2700 O   0  0  0  0  0  0  0  0  0  0  0  0
  -21.5590  -29.6020   21.6460 H   0  0  0  0  0  0  0  0  0  0  0  0
  -18.7050  -27.6610   22.7250 C   0  0  0  0  0  0  0  0  0  0  0  0
  -21.2480  -28.0290   23.0360 C   0  0  0  0  0  3  0  0  0  0  0  0
  -21.4170  -26.6240   22.4120 C   0  0  0  0  0  2  0  0  0  0  0  0
  -20.3460  -26.2970   21.3640 C   0  0  0  0  0  2  0  0  0  0  0  0
  -18.9500  -26.3530   21.9910 C   0  0  0  0  0  2  0  0  0  0  0  0
  -19.7830  -28.4550   23.2010 C   0  0  0  0  0  0  0  0  0  0  0  0
  -19.4970  -29.6740   23.8520 C   0  0  0  0  0  3  0  0  0  0  0  0
  -18.1670  -30.1050   24.0250 C   0  0  0  0  0  3  0  0  0  0  0  0
  -17.1050  -29.3100   23.5600 C   0  0  0  0  0  3  0  0  0  0  0  0
  -17.3740  -28.0880   22.9180 C   0  0  0  0  0  3  0  0  0  0  0  0
  -26.6180  -32.1010   23.8880 C   0  0  0  0  0  3  0  0  0  0  0  0
  -26.3380  -33.4980   24.2780 N   0  0  0  0  0  0  0  0  0  0  0  0
  -26.6540  -34.5830   23.5570 C   0  0  0  0  0  0  0  0  0  0  0  0
  -27.2660  -34.5100   22.4880 O   0  0  0  0  0  0  0  0  0  0  0  0
  -25.7860  -33.6290   25.1140 H   0  0  0  0  0  0  0  0  0  0  0  0
  -24.9410  -36.4270   23.3960 C   0  0  0  0  0  1  0  0  0  0  0  0
  -26.2280  -35.9650   24.1010 C   0  0  0  0  0  3  0  0  0  0  0  0
  -28.4250  -36.7950   24.8210 C   0  0  0  0  0  1  0  0  0  0  0  0
  -27.2690  -37.0070   23.9550 N   0  0  0  0  0  0  0  0  0  0  0  0
  -26.8870  -37.9270   24.1540 H   0  0  0  0  0  0  0  0  0  0  0  0
  -27.1030  -31.2860   25.1520 C   0  0  1  0  0  0  0  0  0  0  0  0
  -26.0020  -31.0710   26.2180 C   0  0  0  0  0  1  0  0  0  0  0  0
  -27.6330  -29.8920   24.7480 C   0  0  0  0  0  1  0  0  0  0  0  0
  -28.2850  -32.0220   25.8280 C   0  0  0  0  0  1  0  0  0  0  0  0
  1  2  1  0
  2  4  2  0
  3  5  1  0
  3  1  2  0
  4  8  1  0
  5  6  2  0
  6 52  1  0
  6  4  1  0
  7  3  1  0
  9  5  1  0
 10 23  1  0
 11 16  1  0
 12 13  1  0
 12 11  1  0
 14 13  1  0
 14 27  1  0
 14 15  1  0
 16 10  1  0
 16 15  1  0
 17 10  2  0
 18 21  1  0
 19 21  1  0
 20  2  1  0
 20 18  1  0
 21 22  1  0
 23 20  1  0
 23 19  1  0
 24 25  2  0
 25 44  1  0
 26 29  1  0
 26 25  1  0
 27 28  1  0
 27 24  1  0
 28 26  2  0
 29 30  1  0
 30 31  2  0
 32 35  1  0
 32 31  1  0
 33 32  2  0
 34 33  1  0
 34 29  2  0
 35 36  1  0
 36 41  2  0
 36 37  1  0
 37 38  2  0
 38 39  1  0
 39 43  1  0
 40 39  2  0
 41 40  1  0
 42 41  1  0
 44 45  1  0
 45 47  1  0
 45 48  1  0
 46 44  2  0
 49 24  1  0
 49 50  1  0
 51 49  1  0
 52 54  1  0
 53 64  2  0
 54 59  1  0
 55 63  1  0
 55 65  1  0
 56 62  1  0
 56 58  1  0
 57 63  1  0
 58 57  1  0
 59 58  2  0
 60 61  1  0
 60 54  2  0
 61 56  2  0
 62 55  1  0
 63 53  1  0
 65 67  2  0
 66 65  1  0
 68 66  1  0
 69 78  2  0
 69 74  1  0
 70 66  1  0
 70 74  1  0
 71 70  1  0
 72 73  1  0
 72 71  1  0
 73 69  1  0
 74 75  2  0
 75 76  1  0
 77 76  2  0
 78 77  1  0
 79 53  1  0
 79 80  1  0
 79 89  1  0
 80 83  1  0
 81 85  1  0
 81 80  1  0
 82 81  2  0
 85 84  1  0
 87 85  1  0
 87 88  1  0
 87 86  1  0
 89 92  1  1
 89 90  1  0
 91 89  1  0
M  ISO  4   6 101  10 100  23 100  52 101
M  END
>  <TORSDO>  (21) 
F 16

>  <SCORE>  (21) 
-4.158

>  <name>  (21) 
20

>  <ligand_id>  (21) 
20

>  <original_smiles>  (21) 
[H]c1c([H])c([H])c2c(c1[H])C([H])([H])C([H])([H])C([H])([H])C2([H])N([H])C(=O)C1([H])N(C(=O)C([H])(N([H])C(=O)C([H])(N([H])C([H])([H])[H])C([H])([H])[H])C(C([H])([H])[H])(C([H])([H])[H])C([H])([H])[H])C([H])([H])c2c([H])c(Oc3c(C([H])([H])[H])c(C([H])([H])[H])c([H])c(C4([H])N(C(=O)N5C([H])([H])C([H])([H])C([H])([H])C([H])(n6nc(-c7c([H])c([H])c(Oc8c([H])c([H])c(F)c([H])c8F)c([H])c7[H])c(C(=O)N([H])[H])c6N([H])[H])C5([H])[H])C([H])([H])C([H])(C([H])([H])[H])C4([H])[H])c3C([H])([H])[H])c([H])c([H])c2C1([H])[H]

>  <smiles>  (21) 
[H]c1c([H])c([H])c2c(c1[H])C([H])([H])C([H])([H])C([H])([H])C2([H])N([H])C(=O)C1([H])N(C(=O)C([H])(N([H])C(=O)C([H])(N([H])C([H])([H])[H])C([H])([H])[H])C(C([H])([H])[H])(C([H])([H])[H])C([H])([H])[H])C([H])([H])c2c([H])c(Oc3c(C([H])([H])[H])c(C([H])([H])[H])c([H])c(C4([H])N(C(=O)N5C([H])([H])C([H])([H])C([H])([H])C([H])(n6nc(-c7c([H])c([H])c(Oc8c([H])c([H])c(F)c([H])c8F)c([H])c7[H])c(C(=O)N([H])[H])c6N([H])[H])C5([H])[H])C([H])([H])C([H])(C([H])([H])[H])C4([H])[H])c3C([H])([H])[H])c([H])c([H])c2C1([H])[H]

$$$$
21:0:0
     RDKit          3D

 97105  0  0  1  0  0  0  0  0999 V2000
  -28.6200  -24.2720   22.6200 C   0  0  0  0  0  3  0  0  0  0  0  0
  -30.7370  -25.0820   21.7720 C   0  0  0  0  0  3  0  0  0  0  0  0
  -29.9480  -24.0130   22.2300 C   0  0  0  0  0  0  0  0  0  0  0  0
  -28.0390  -25.5480   22.4590 C   0  0  0  0  0  0  0  0  0  0  0  0
  -30.1750  -26.3640   21.6070 C   0  0  0  0  0  0  0  0  0  0  0  0
  -28.8070  -26.6060   21.8670 C   0  0  0  0  0  0  0  0  0  0  0  0
  -26.5970  -25.6670   22.9380 C   0  0  0  0  0  1  0  0  0  0  0  0
  -31.0660  -27.5010   21.1430 C   0  0  0  0  0  1  0  0  0  0  0  0
  -29.9210  -21.7560   23.4130 C   0  0  0  0  0  1  0  0  0  0  0  0
  -30.5050  -22.5920   22.2570 C   0  0  0  0  0  3  0  0  0  0  0  0
  -30.2930  -21.9840   20.9220 N   0  0  0  0  0  4  0  0  0  0  0  0
  -29.3050  -21.8210   20.7970 H   0  0  0  0  0  0  0  0  0  0  0  0
  -30.5670  -22.6730   20.2400 H   0  0  0  0  0  0  0  0  0  0  0  0
  -31.0220  -20.7270   20.6340 C   0  0  0  0  0  2  0  0  0  0  0  0
  -31.4520  -20.6430   19.1550 C   0  0  0  0  0  2  0  0  0  0  0  0
  -31.6880  -19.2020   18.6650 C   0  0  0  0  0  2  0  0  0  0  0  0
  -32.4810  -19.1420   17.3480 C   0  0  0  0  0  2  0  0  0  0  0  0
  -34.0060  -19.1900   17.5580 C   0  0  0  0  0  2  0  0  0  0  0  0
  -35.8880  -19.8660   16.1500 C   0  0  0  0  0  0  0  0  0  0  0  0
  -37.1690  -19.5010   14.0870 C   0  0  0  0  0  2  0  0  0  0  0  0
  -36.7500  -20.5490   13.0360 C   0  0  0  0  0  2  0  0  0  0  0  0
  -35.5100  -20.0830   12.2490 C   0  0  0  0  0  2  0  0  0  0  0  0
  -34.3700  -19.5570   13.1630 C   0  0  0  0  0  3  0  0  0  0  0  0
  -34.9230  -18.5710   14.2160 C   0  0  0  0  0  2  0  0  0  0  0  0
  -36.0090  -19.2450   14.9490 N   0  0  0  0  0  0  0  0  0  0  0  0
  -36.8120  -20.4520   16.7140 O   0  0  0  0  0  0  0  0  0  0  0  0
  -34.6350  -20.0540   16.5710 N   0  0  0  0  0  0  0  0  0  0  0  0
  -34.5200  -21.0140   16.8580 H   0  0  0  0  0  0  0  0  0  0  0  0
  -31.9420  -19.2950   12.3400 C   0  0  0  0  0  0  0  0  0  0  0  0
  -31.3810  -18.4810   11.3930 C   0  0  0  0  0  0  0  0  0  0  0  0
  -32.4480  -17.6790   10.8810 C   0  0  0  0  0  0  0  0  0  0  0  0
  -33.2880  -18.9620   12.3790 N   0  0  0  0  0  0  0  0  0  0  0  0
  -33.5750  -17.9460   11.5260 N   0  0  0  0  0  0  0  0  0  0  0  0
  -32.4720  -16.7180    9.7710 C   0  0  0  0  0  0  0  0  0  0  0  0
  -32.9600  -15.4060    9.9420 C   0  0  0  0  0  3  0  0  0  0  0  0
  -32.9540  -14.4930    8.8670 C   0  0  0  0  0  3  0  0  0  0  0  0
  -32.4540  -14.8870    7.6030 C   0  0  0  0  0  0  0  0  0  0  0  0
  -31.9940  -16.2060    7.4300 C   0  0  0  0  0  3  0  0  0  0  0  0
  -32.0060  -17.1150    8.5010 C   0  0  0  0  0  3  0  0  0  0  0  0
  -32.4290  -14.0760    6.4940 O   0  0  0  0  0  0  0  0  0  0  0  0
  -32.3610  -12.7090    6.6050 C   0  0  0  0  0  0  0  0  0  0  0  0
  -31.3100  -12.0670    7.2960 C   0  0  0  0  0  3  0  0  0  0  0  0
  -31.2380  -10.6600    7.3180 C   0  0  0  0  0  3  0  0  0  0  0  0
  -32.2130   -9.8920    6.6530 C   0  0  0  0  0  0  0  0  0  0  0  0
  -33.2610  -10.5310    5.9630 C   0  0  0  0  0  3  0  0  0  0  0  0
  -33.3310  -11.9350    5.9380 C   0  0  0  0  0  0  0  0  0  0  0  0
  -34.3280  -12.5450    5.2510 F   0  0  0  0  0  0  0  0  0  0  0  0
  -32.1450   -8.5410    6.6710 F   0  0  0  0  0  0  0  0  0  0  0  0
  -29.9560  -18.5040   10.9180 C   0  0  0  0  0  0  0  0  0  0  0  0
  -29.4230  -17.3600   10.5030 N   0  0  0  0  0  0  0  0  0  0  0  0
  -29.2890  -19.5370   10.9560 O   0  0  0  0  0  0  0  0  0  0  0  0
  -29.9550  -16.5020   10.4880 H   0  0  0  0  0  0  0  0  0  0  0  0
  -28.4610  -17.3400   10.1910 H   0  0  0  0  0  0  0  0  0  0  0  0
  -31.4240  -20.2940   13.1590 N   0  0  0  0  0  0  0  0  0  0  0  0
  -30.4540  -20.5870   13.1210 H   0  0  0  0  0  0  0  0  0  0  0  0
  -31.9740  -20.8310   13.8170 H   0  0  0  0  0  0  0  0  0  0  0  0
  -28.3420  -27.8440   21.4360 O   0  0  0  0  0  0  0  0  0  0  0  0
  -24.1810  -28.6010   27.0920 C   0  0  0  0  0  0  0  0  0  0  0  0
  -27.1910  -28.3820   21.9290 C   0  0  0  0  0  0  0  0  0  0  0  0
  -23.1440  -29.1310   24.9080 C   0  0  0  0  0  3  0  0  0  0  0  0
  -24.7520  -29.3420   22.9420 C   0  0  0  0  0  0  0  0  0  0  0  0
  -25.6540  -29.4480   25.2730 C   0  0  0  0  0  2  0  0  0  0  0  0
  -25.8380  -29.1460   23.8040 C   0  0  0  0  0  0  0  0  0  0  0  0
  -27.0640  -28.6630   23.3030 C   0  0  0  0  0  3  0  0  0  0  0  0
  -26.1140  -28.6390   21.0570 C   0  0  0  0  0  3  0  0  0  0  0  0
  -24.8810  -29.0860   21.5640 C   0  0  0  0  0  3  0  0  0  0  0  0
  -23.4690  -29.8380   23.5660 C   0  0  0  0  0  2  0  0  0  0  0  0
  -24.3400  -29.0210   25.8040 N   0  0  0  0  0  0  0  0  0  0  0  0
  -23.0580  -28.3550   27.5530 O   0  0  0  0  0  0  0  0  0  0  0  0
  -22.4790  -27.7710   24.5990 C   0  0  0  0  0  0  0  0  0  0  0  0
  -21.4810  -27.7860   23.7000 N   0  0  0  0  0  0  0  0  0  0  0  0
  -22.8700  -26.7370   25.1420 O   0  0  0  0  0  0  0  0  0  0  0  0
  -21.2120  -28.6760   23.3050 H   0  0  0  0  0  0  0  0  0  0  0  0
  -19.4120  -26.5640   21.0060 C   0  0  0  0  0  0  0  0  0  0  0  0
  -20.7320  -26.6230   23.2260 C   0  0  0  0  0  3  0  0  0  0  0  0
  -21.6710  -25.5810   22.5780 C   0  0  0  0  0  2  0  0  0  0  0  0
  -21.8050  -25.7540   21.0620 C   0  0  0  0  0  2  0  0  0  0  0  0
  -20.4380  -25.6360   20.3830 C   0  0  0  0  0  2  0  0  0  0  0  0
  -19.5570  -27.0400   22.3350 C   0  0  0  0  0  0  0  0  0  0  0  0
  -18.5930  -27.9320   22.8530 C   0  0  0  0  0  3  0  0  0  0  0  0
  -17.4950  -28.3380   22.0710 C   0  0  0  0  0  3  0  0  0  0  0  0
  -17.3450  -27.8510   20.7610 C   0  0  0  0  0  3  0  0  0  0  0  0
  -18.3010  -26.9650   20.2330 C   0  0  0  0  0  3  0  0  0  0  0  0
  -25.3990  -28.4360   28.0530 C   0  0  0  0  0  3  0  0  0  0  0  0
  -24.8780  -28.3770   29.4260 N   0  0  0  0  0  0  0  0  0  0  0  0
  -24.9840  -29.3700   30.3200 C   0  0  0  0  0  0  0  0  0  0  0  0
  -25.6070  -30.4120   30.0940 O   0  0  0  0  0  0  0  0  0  0  0  0
  -24.3100  -27.5760   29.6610 H   0  0  0  0  0  0  0  0  0  0  0  0
  -22.9520  -29.9320   31.6900 C   0  0  0  0  0  1  0  0  0  0  0  0
  -24.2900  -29.1750   31.6820 C   0  0  0  0  0  3  0  0  0  0  0  0
  -26.2820  -28.7560   33.0540 C   0  0  0  0  0  1  0  0  0  0  0  0
  -25.1160  -29.6060   32.8300 N   0  0  0  0  0  0  0  0  0  0  0  0
  -24.5660  -29.6210   33.6850 H   0  0  0  0  0  0  0  0  0  0  0  0
  -26.2780  -27.1640   27.7340 C   0  0  1  0  0  0  0  0  0  0  0  0
  -25.4670  -25.8500   27.6660 C   0  0  0  0  0  1  0  0  0  0  0  0
  -27.0140  -27.3380   26.3830 C   0  0  0  0  0  1  0  0  0  0  0  0
  -27.3740  -26.9960   28.8130 C   0  0  0  0  0  1  0  0  0  0  0  0
  2  3  1  0
  3 10  1  0
  3  1  2  0
  4  1  1  0
  4  7  1  0
  5  2  2  0
  5  6  1  0
  6  4  2  0
  8  5  1  0
 10  9  1  0
 11 10  1  0
 12 11  1  0
 13 11  1  0
 14 11  1  0
 15 14  1  0
 16 15  1  0
 17 18  1  0
 17 16  1  0
 19 27  1  0
 19 26  2  0
 20 25  1  0
 21 20  1  0
 22 21  1  0
 23 22  1  0
 23 24  1  0
 24 25  1  0
 25 19  1  0
 27 28  1  0
 27 18  1  0
 29 32  1  0
 29 54  1  0
 30 29  2  0
 31 30  1  0
 31 33  2  0
 32 23  1  0
 33 32  1  0
 34 35  1  0
 34 31  1  0
 36 35  2  0
 37 36  1  0
 38 37  2  0
 38 39  1  0
 39 34  2  0
 40 41  1  0
 40 37  1  0
 41 42  1  0
 42 43  2  0
 44 48  1  0
 44 43  1  0
 45 44  2  0
 46 45  1  0
 46 41  2  0
 47 46  1  0
 49 51  2  0
 49 30  1  0
 50 49  1  0
 52 50  1  0
 53 50  1  0
 54 56  1  0
 55 54  1  0
 57  6  1  0
 57 59  1  0
 58 69  2  0
 59 64  1  0
 60 70  1  0
 60 68  1  0
 61 67  1  0
 61 63  1  0
 62 68  1  0
 63 62  1  0
 64 63  2  0
 65 66  1  0
 65 59  2  0
 66 61  2  0
 67 60  1  0
 68 58  1  0
 70 72  2  0
 71 70  1  0
 73 71  1  0
 74 79  1  0
 75 71  1  0
 76 75  1  0
 77 76  1  0
 78 74  1  0
 78 77  1  0
 79 80  2  0
 79 75  1  0
 81 80  1  0
 82 81  2  0
 83 82  1  0
 83 74  2  0
 84 58  1  0
 84 85  1  0
 85 88  1  0
 85 86  1  0
 86 90  1  0
 87 86  2  0
 90 89  1  0
 90 92  1  0
 92 91  1  0
 92 93  1  0
 94 84  1  0
 94 97  1  1
 95 94  1  0
 96 94  1  0
M  ISO  4   6 101  19 100  27 100  57 101
M  END
>  <TORSDO>  (22) 
F 23

>  <SCORE>  (22) 
-3.472

>  <name>  (22) 
21

>  <ligand_id>  (22) 
21

>  <original_smiles>  (22) 
[H]c1c([H])c([H])c2c(c1[H])C([H])([H])C([H])([H])C([H])([H])C2([H])N([H])C(=O)C1([H])N(C(=O)C([H])(N([H])C(=O)C([H])(N([H])C([H])([H])[H])C([H])([H])[H])C(C([H])([H])[H])(C([H])([H])[H])C([H])([H])[H])C([H])([H])c2c([H])c(Oc3c(C([H])([H])[H])c([H])c(C([H])(C([H])([H])[H])[N+]([H])([H])C([H])([H])C([H])([H])C([H])([H])C([H])([H])C([H])([H])N([H])C(=O)N4C([H])([H])C([H])([H])C([H])([H])C([H])(n5nc(-c6c([H])c([H])c(Oc7c([H])c([H])c(F)c([H])c7F)c([H])c6[H])c(C(=O)N([H])[H])c5N([H])[H])C4([H])[H])c([H])c3C([H])([H])[H])c([H])c([H])c2C1([H])[H]

>  <smiles>  (22) 
[H]c1c([H])c([H])c2c(c1[H])C([H])([H])C([H])([H])C([H])([H])C2([H])N([H])C(=O)C1([H])N(C(=O)C([H])(N([H])C(=O)C([H])(N([H])C([H])([H])[H])C([H])([H])[H])C(C([H])([H])[H])(C([H])([H])[H])C([H])([H])[H])C([H])([H])c2c([H])c(Oc3c(C([H])([H])[H])c([H])c(C([H])(C([H])([H])[H])[N+]([H])([H])C([H])([H])C([H])([H])C([H])([H])C([H])([H])C([H])([H])N([H])C(=O)N4C([H])([H])C([H])([H])C([H])([H])C([H])(n5nc(-c6c([H])c([H])c(Oc7c([H])c([H])c(F)c([H])c7F)c([H])c6[H])c(C(=O)N([H])[H])c5N([H])[H])C4([H])[H])c([H])c3C([H])([H])[H])c([H])c([H])c2C1([H])[H]

$$$$
22:0:0
     RDKit          3D

 91100  0  0  1  0  0  0  0  0999 V2000
  -28.2290  -21.9160   20.1200 C   0  0  0  0  0  3  0  0  0  0  0  0
  -28.6860  -23.2230   20.3090 C   0  0  0  0  0  0  0  0  0  0  0  0
  -29.1930  -20.7290   20.4250 C   0  0  0  0  0  0  0  0  0  0  0  0
  -30.4430  -21.5170   20.8330 C   0  0  0  0  0  2  0  0  0  0  0  0
  -29.8370  -25.0040   17.9940 C   0  0  0  0  0  2  0  0  0  0  0  0
  -30.8220  -23.8990   18.4390 C   0  0  0  0  0  2  0  0  0  0  0  0
  -28.3470  -24.7440   18.2970 C   0  0  0  0  0  2  0  0  0  0  0  0
  -31.1110  -23.8900   19.9560 C   0  0  0  0  0  2  0  0  0  0  0  0
  -28.0030  -24.6550   19.7990 C   0  0  0  0  0  3  0  0  0  0  0  0
  -30.1140  -23.0920   20.8340 C   0  0  1  0  0  0  0  0  0  0  0  0
  -30.1760  -23.6260   22.2770 C   0  0  0  0  0  1  0  0  0  0  0  0
  -29.0140  -19.3770   20.3250 N   0  0  0  0  0  0  0  0  0  0  0  0
  -28.1890  -26.1230   20.3390 O   0  0  0  0  0  0  0  0  0  0  0  0
  -24.5800  -31.8980   23.2620 C   0  0  0  0  0  0  0  0  0  0  0  0
  -27.1570  -27.1470   20.2360 C   0  0  0  0  0  0  0  0  0  0  0  0
  -23.3870  -30.5100   21.6150 C   0  0  0  0  0  3  0  0  0  0  0  0
  -24.8400  -28.9340   20.1950 C   0  0  0  0  0  0  0  0  0  0  0  0
  -25.9470  -30.7540   21.4730 C   0  0  0  0  0  2  0  0  0  0  0  0
  -26.0190  -29.3610   20.8170 C   0  0  0  0  0  0  0  0  0  0  0  0
  -27.1740  -28.4820   20.8250 C   0  0  0  0  0  3  0  0  0  0  0  0
  -25.9470  -26.8440   19.5650 C   0  0  0  0  0  3  0  0  0  0  0  0
  -24.8200  -27.6900   19.5530 C   0  0  0  0  0  3  0  0  0  0  0  0
  -23.6160  -29.8380   20.2360 C   0  0  0  0  0  2  0  0  0  0  0  0
  -24.6580  -31.0770   22.1710 N   0  0  0  0  0  0  0  0  0  0  0  0
  -23.4900  -32.1870   23.7820 O   0  0  0  0  0  0  0  0  0  0  0  0
  -22.6970  -29.5020   22.5710 C   0  0  0  0  0  0  0  0  0  0  0  0
  -21.3700  -29.3300   22.4300 N   0  0  0  0  0  0  0  0  0  0  0  0
  -23.3590  -28.8790   23.4040 O   0  0  0  0  0  0  0  0  0  0  0  0
  -20.8920  -29.8840   21.7350 H   0  0  0  0  0  0  0  0  0  0  0  0
  -17.9840  -28.1310   22.9080 C   0  0  0  0  0  0  0  0  0  0  0  0
  -20.5410  -28.3950   23.1970 C   0  0  0  0  0  3  0  0  0  0  0  0
  -20.6470  -26.9610   22.6260 C   0  0  0  0  0  2  0  0  0  0  0  0
  -19.5540  -26.6370   21.6030 C   0  0  0  0  0  2  0  0  0  0  0  0
  -18.1670  -26.7810   22.2340 C   0  0  0  0  0  2  0  0  0  0  0  0
  -19.0990  -28.8950   23.3460 C   0  0  0  0  0  0  0  0  0  0  0  0
  -18.8720  -30.1570   23.9390 C   0  0  0  0  0  3  0  0  0  0  0  0
  -17.5660  -30.6550   24.0960 C   0  0  0  0  0  3  0  0  0  0  0  0
  -16.4650  -29.8880   23.6720 C   0  0  0  0  0  3  0  0  0  0  0  0
  -16.6750  -28.6280   23.0850 C   0  0  0  0  0  3  0  0  0  0  0  0
  -25.8540  -32.5320   23.8980 C   0  0  0  0  0  3  0  0  0  0  0  0
  -25.5490  -33.9380   24.2090 N   0  0  0  0  0  0  0  0  0  0  0  0
  -25.8940  -34.9830   23.4450 C   0  0  0  0  0  0  0  0  0  0  0  0
  -26.5690  -34.8640   22.4180 O   0  0  0  0  0  0  0  0  0  0  0  0
  -24.9500  -34.1030   25.0030 H   0  0  0  0  0  0  0  0  0  0  0  0
  -24.1860  -36.7930   23.0650 C   0  0  0  0  0  1  0  0  0  0  0  0
  -25.4180  -36.3800   23.8870 C   0  0  0  0  0  3  0  0  0  0  0  0
  -27.5510  -37.2580   24.7310 C   0  0  0  0  0  1  0  0  0  0  0  0
  -26.4620  -37.4230   23.7720 N   0  0  0  0  0  0  0  0  0  0  0  0
  -26.0630  -38.3490   23.9010 H   0  0  0  0  0  0  0  0  0  0  0  0
  -26.3380  -31.7760   25.1960 C   0  0  1  0  0  0  0  0  0  0  0  0
  -25.2240  -31.5660   26.2490 C   0  0  0  0  0  1  0  0  0  0  0  0
  -26.9150  -30.3850   24.8430 C   0  0  0  0  0  1  0  0  0  0  0  0
  -27.4850  -32.5690   25.8660 C   0  0  0  0  0  1  0  0  0  0  0  0
  -30.0300  -18.1870   20.6010 C   0  0  0  0  0  2  0  0  0  0  0  0
  -29.6200  -16.5080   20.5820 C   0  0  0  0  0  2  0  0  0  0  0  0
  -30.4300  -15.0450   20.3400 C   0  0  0  0  0  0  0  0  0  0  0  0
  -30.3240  -12.6800   19.3960 C   0  0  0  0  0  2  0  0  0  0  0  0
  -29.3880  -12.6500   18.1630 C   0  0  0  0  0  2  0  0  0  0  0  0
  -27.9260  -12.4280   18.5940 C   0  0  0  0  0  2  0  0  0  0  0  0
  -27.5200  -13.3390   19.7810 C   0  0  0  0  0  3  0  0  0  0  0  0
  -28.5780  -13.3550   20.9020 C   0  0  0  0  0  2  0  0  0  0  0  0
  -29.8520  -13.7690   20.3060 N   0  0  0  0  0  0  0  0  0  0  0  0
  -31.6300  -15.0780   20.0280 O   0  0  0  0  0  0  0  0  0  0  0  0
  -25.1410  -13.8940   20.5430 C   0  0  0  0  0  0  0  0  0  0  0  0
  -24.0820  -13.1110   20.9110 C   0  0  0  0  0  0  0  0  0  0  0  0
  -24.5530  -11.7630   20.8660 C   0  0  0  0  0  0  0  0  0  0  0  0
  -26.1870  -13.0250   20.2860 N   0  0  0  0  0  0  0  0  0  0  0  0
  -25.8430  -11.7360   20.5480 N   0  0  0  0  0  0  0  0  0  0  0  0
  -23.8320  -10.4960   21.0500 C   0  0  0  0  0  0  0  0  0  0  0  0
  -24.2650   -9.5250   21.9800 C   0  0  0  0  0  3  0  0  0  0  0  0
  -23.5420   -8.3250   22.1530 C   0  0  0  0  0  3  0  0  0  0  0  0
  -22.3720   -8.0870   21.3960 C   0  0  0  0  0  0  0  0  0  0  0  0
  -21.9570   -9.0450   20.4550 C   0  0  0  0  0  3  0  0  0  0  0  0
  -22.6810  -10.2360   20.2800 C   0  0  0  0  0  3  0  0  0  0  0  0
  -21.6210   -6.9380   21.4770 O   0  0  0  0  0  0  0  0  0  0  0  0
  -21.5610   -6.1970   22.6300 C   0  0  0  0  0  0  0  0  0  0  0  0
  -21.0930   -6.7450   23.8440 C   0  0  0  0  0  3  0  0  0  0  0  0
  -20.9820   -5.9290   24.9870 C   0  0  0  0  0  3  0  0  0  0  0  0
  -21.3300   -4.5660   24.9190 C   0  0  0  0  0  0  0  0  0  0  0  0
  -21.7920   -4.0180   23.7090 C   0  0  0  0  0  3  0  0  0  0  0  0
  -21.9040   -4.8310   22.5670 C   0  0  0  0  0  0  0  0  0  0  0  0
  -22.3300   -4.2930   21.3990 F   0  0  0  0  0  0  0  0  0  0  0  0
  -21.2170   -3.7810   26.0150 F   0  0  0  0  0  0  0  0  0  0  0  0
  -22.6850  -13.5800   21.1900 C   0  0  0  0  0  0  0  0  0  0  0  0
  -21.9610  -12.8740   22.0530 N   0  0  0  0  0  0  0  0  0  0  0  0
  -22.2410  -14.6080   20.6810 O   0  0  0  0  0  0  0  0  0  0  0  0
  -22.3330  -12.0440   22.4900 H   0  0  0  0  0  0  0  0  0  0  0  0
  -21.0230  -13.1710   22.2820 H   0  0  0  0  0  0  0  0  0  0  0  0
  -25.2980  -15.2670   20.3800 N   0  0  0  0  0  0  0  0  0  0  0  0
  -24.5340  -15.9200   20.5140 H   0  0  0  0  0  0  0  0  0  0  0  0
  -26.1540  -15.7180   20.0820 H   0  0  0  0  0  0  0  0  0  0  0  0
  1  2  2  0
  1  3  1  0
  2 10  1  0
  3  4  1  0
  4 10  1  0
  5  7  1  0
  5  6  1  0
  6  8  1  0
  7  9  1  0
  8 10  1  0
  9  2  1  0
  9 13  1  0
 10 11  1  1
 12  3  2  0
 12 54  1  0
 14 25  2  0
 15 13  1  0
 15 20  1  0
 16 24  1  0
 16 26  1  0
 17 23  1  0
 17 19  1  0
 18 24  1  0
 19 20  2  0
 19 18  1  0
 21 15  2  0
 22 21  1  0
 22 17  2  0
 23 16  1  0
 24 14  1  0
 26 28  2  0
 27 26  1  0
 29 27  1  0
 30 39  2  0
 30 35  1  0
 31 27  1  0
 31 35  1  0
 32 31  1  0
 33 34  1  0
 33 32  1  0
 34 30  1  0
 35 36  2  0
 36 37  1  0
 38 37  2  0
 39 38  1  0
 40 14  1  0
 40 41  1  0
 40 50  1  0
 41 44  1  0
 42 46  1  0
 42 41  1  0
 43 42  2  0
 46 45  1  0
 48 46  1  0
 48 49  1  0
 48 47  1  0
 50 53  1  1
 50 51  1  0
 52 50  1  0
 55 54  1  0
 56 55  1  0
 57 62  1  0
 58 59  1  0
 58 57  1  0
 60 59  1  0
 60 67  1  0
 60 61  1  0
 62 56  1  0
 62 61  1  0
 63 56  2  0
 64 65  2  0
 65 84  1  0
 66 65  1  0
 66 69  1  0
 67 64  1  0
 67 68  1  0
 68 66  2  0
 69 70  1  0
 70 71  2  0
 72 75  1  0
 72 71  1  0
 73 72  2  0
 74 73  1  0
 74 69  2  0
 75 76  1  0
 76 77  1  0
 77 78  2  0
 79 78  1  0
 79 83  1  0
 80 79  2  0
 81 76  2  0
 81 80  1  0
 82 81  1  0
 84 85  1  0
 85 88  1  0
 85 87  1  0
 86 84  2  0
 89 90  1  0
 89 64  1  0
 91 89  1  0
M  ISO  4   9 101  13 101  55 100  56 100
M  END
>  <TORSDO>  (23) 
F 18

>  <SCORE>  (23) 
-15.615

>  <name>  (23) 
22

>  <ligand_id>  (23) 
22

>  <original_smiles>  (23) 
[H]C1=C2C([H])(Oc3c([H])c([H])c4c(c3[H])C([H])([H])N(C(=O)C([H])(N([H])C(=O)C([H])(N([H])C([H])([H])[H])C([H])([H])[H])C(C([H])([H])[H])(C([H])([H])[H])C([H])([H])[H])C([H])(C(=O)N([H])C3([H])c5c([H])c([H])c([H])c([H])c5C([H])([H])C([H])([H])C3([H])[H])C4([H])[H])C([H])([H])C([H])([H])C([H])([H])C([H])([H])C2(C([H])([H])[H])C([H])([H])C1=NC([H])([H])C([H])([H])C(=O)N1C([H])([H])C([H])([H])C([H])([H])C([H])(n2nc(-c3c([H])c([H])c(Oc4c([H])c([H])c(F)c([H])c4F)c([H])c3[H])c(C(=O)N([H])[H])c2N([H])[H])C1([H])[H]

>  <smiles>  (23) 
[H]C1=C2C([H])(Oc3c([H])c([H])c4c(c3[H])C([H])([H])N(C(=O)C([H])(N([H])C(=O)C([H])(N([H])C([H])([H])[H])C([H])([H])[H])C(C([H])([H])[H])(C([H])([H])[H])C([H])([H])[H])C([H])(C(=O)N([H])C3([H])c5c([H])c([H])c([H])c([H])c5C([H])([H])C([H])([H])C3([H])[H])C4([H])[H])C([H])([H])C([H])([H])C([H])([H])C([H])([H])C2(C([H])([H])[H])C([H])([H])C1=NC([H])([H])C([H])([H])C(=O)N1C([H])([H])C([H])([H])C([H])([H])C([H])(n2nc(-c3c([H])c([H])c(Oc4c([H])c([H])c(F)c([H])c4F)c([H])c3[H])c(C(=O)N([H])[H])c2N([H])[H])C1([H])[H]

$$$$
23:0:0
     RDKit          3D

 98109  0  0  1  0  0  0  0  0999 V2000
  -30.7080  -14.8240   20.3940 C   0  0  0  0  0  0  0  0  0  0  0  0
  -30.5010  -12.5240   19.4410 C   0  0  0  0  0  2  0  0  0  0  0  0
  -29.6030  -12.5840   18.1880 C   0  0  0  0  0  2  0  0  0  0  0  0
  -28.1190  -12.4330   18.5740 C   0  0  0  0  0  2  0  0  0  0  0  0
  -27.7190  -13.3510   19.7590 C   0  0  0  0  0  3  0  0  0  0  0  0
  -28.7470  -13.2990   20.9110 C   0  0  0  0  0  2  0  0  0  0  0  0
  -30.0600  -13.6120   20.3430 N   0  0  0  0  0  0  0  0  0  0  0  0
  -31.9040  -14.8910   20.0870 O   0  0  0  0  0  0  0  0  0  0  0  0
  -30.1030  -23.6400   18.1690 C   0  0  0  0  0  3  0  0  0  0  0  0
  -29.6790  -24.9610   18.4340 C   0  0  0  0  0  3  0  0  0  0  0  0
  -28.1990  -24.1200   20.1490 C   0  0  0  0  0  3  0  0  0  0  0  0
  -29.5870  -22.5310   18.8820 C   0  0  0  0  0  0  0  0  0  0  0  0
  -28.6060  -22.7470   19.8800 C   0  0  0  0  0  0  0  0  0  0  0  0
  -28.7270  -25.2570   19.4340 C   0  0  0  0  0  0  0  0  0  0  0  0
  -30.0350  -21.1080   18.4890 C   0  0  0  0  0  2  0  0  0  0  0  0
  -28.9720  -18.2190   19.5280 C   0  0  0  0  0  2  0  0  0  0  0  0
  -30.5430  -18.3650   21.4010 C   0  0  0  0  0  2  0  0  0  0  0  0
  -28.7690  -20.2970   21.1930 C   0  0  0  0  0  2  0  0  0  0  0  0
  -29.6940  -16.8250   19.2870 C   0  0  0  0  0  2  0  0  0  0  0  0
  -30.0170  -16.8970   21.6850 C   0  0  0  0  0  2  0  0  0  0  0  0
  -27.9260  -21.4890   20.5310 C   0  0  0  0  0  3  0  0  0  0  0  0
  -30.7250  -20.2190   19.5790 C   0  0  0  0  0  3  0  0  0  0  0  0
  -29.7340  -19.2970   20.4010 C   0  0  2  0  0  0  0  0  0  0  0  0
  -29.9530  -15.9920   20.4970 N   0  0  0  0  0  0  0  0  0  0  0  0
  -25.3240  -13.9700   20.4260 C   0  0  0  0  0  0  0  0  0  0  0  0
  -24.2420  -13.2110   20.7820 C   0  0  0  0  0  0  0  0  0  0  0  0
  -24.6950  -11.8560   20.7800 C   0  0  0  0  0  0  0  0  0  0  0  0
  -26.3630  -13.0780   20.2280 N   0  0  0  0  0  0  0  0  0  0  0  0
  -25.9920  -11.8020   20.5020 N   0  0  0  0  0  0  0  0  0  0  0  0
  -23.9530  -10.6010   20.9710 C   0  0  0  0  0  0  0  0  0  0  0  0
  -24.3620   -9.6370   21.9190 C   0  0  0  0  0  3  0  0  0  0  0  0
  -23.6200   -8.4490   22.0980 C   0  0  0  0  0  3  0  0  0  0  0  0
  -22.4560   -8.2170   21.3290 C   0  0  0  0  0  0  0  0  0  0  0  0
  -22.0640   -9.1700   20.3720 C   0  0  0  0  0  3  0  0  0  0  0  0
  -22.8060  -10.3500   20.1900 C   0  0  0  0  0  3  0  0  0  0  0  0
  -21.6850   -7.0830   21.4170 O   0  0  0  0  0  0  0  0  0  0  0  0
  -21.6160   -6.3470   22.5740 C   0  0  0  0  0  0  0  0  0  0  0  0
  -21.1820   -6.9120   23.7930 C   0  0  0  0  0  3  0  0  0  0  0  0
  -21.0640   -6.1020   24.9410 C   0  0  0  0  0  3  0  0  0  0  0  0
  -21.3670   -4.7310   24.8680 C   0  0  0  0  0  0  0  0  0  0  0  0
  -21.7890   -4.1650   23.6530 C   0  0  0  0  0  3  0  0  0  0  0  0
  -21.9110   -4.9700   22.5080 C   0  0  0  0  0  0  0  0  0  0  0  0
  -22.3010   -4.4140   21.3350 F   0  0  0  0  0  0  0  0  0  0  0  0
  -21.2440   -3.9520   25.9690 F   0  0  0  0  0  0  0  0  0  0  0  0
  -22.8440  -13.7030   21.0140 C   0  0  0  0  0  0  0  0  0  0  0  0
  -22.0900  -13.0280   21.8760 N   0  0  0  0  0  0  0  0  0  0  0  0
  -22.4240  -14.7210   20.4670 O   0  0  0  0  0  0  0  0  0  0  0  0
  -22.4400  -12.2010   22.3380 H   0  0  0  0  0  0  0  0  0  0  0  0
  -21.1520  -13.3400   22.0760 H   0  0  0  0  0  0  0  0  0  0  0  0
  -25.5110  -15.3350   20.2300 N   0  0  0  0  0  0  0  0  0  0  0  0
  -24.7670  -16.0190   20.3120 H   0  0  0  0  0  0  0  0  0  0  0  0
  -26.3940  -15.7420   19.9500 H   0  0  0  0  0  0  0  0  0  0  0  0
  -32.9990  -20.6120   20.9770 C   0  0  0  0  0  2  0  0  0  0  0  0
  -32.9300  -21.6650   19.9010 C   0  0  0  0  0  2  0  0  0  0  0  0
  -31.6510  -21.0780   20.4610 C   0  0  0  0  0  3  0  0  0  0  0  0
  -26.9990  -21.8830   21.5310 O   0  0  0  0  0  0  0  0  0  0  0  0
  -27.5040  -22.2330   22.2610 H   0  0  0  0  0  0  0  0  0  0  0  0
  -28.5560  -26.6300   19.7430 O   0  0  0  0  0  0  0  0  0  0  0  0
  -24.7390  -31.7490   23.0590 C   0  0  0  0  0  0  0  0  0  0  0  0
  -27.3800  -27.3950   19.7350 C   0  0  0  0  0  0  0  0  0  0  0  0
  -23.5290  -30.4230   21.3580 C   0  0  0  0  0  3  0  0  0  0  0  0
  -24.9850  -28.9620   19.8290 C   0  0  0  0  0  0  0  0  0  0  0  0
  -26.0580  -30.7870   21.1610 C   0  0  0  0  0  2  0  0  0  0  0  0
  -26.1470  -29.4430   20.4430 C   0  0  0  0  0  0  0  0  0  0  0  0
  -27.3390  -28.6680   20.3870 C   0  0  0  0  0  3  0  0  0  0  0  0
  -26.1970  -26.9590   19.1030 C   0  0  0  0  0  3  0  0  0  0  0  0
  -25.0110  -27.7290   19.1520 C   0  0  0  0  0  3  0  0  0  0  0  0
  -23.7330  -29.8140   19.9420 C   0  0  0  0  0  2  0  0  0  0  0  0
  -24.7950  -31.0010   21.9180 N   0  0  0  0  0  0  0  0  0  0  0  0
  -23.6610  -31.9840   23.6220 O   0  0  0  0  0  0  0  0  0  0  0  0
  -22.8930  -29.3520   22.2730 C   0  0  0  0  0  0  0  0  0  0  0  0
  -21.5650  -29.1740   22.1600 N   0  0  0  0  0  0  0  0  0  0  0  0
  -23.5890  -28.6820   23.0420 O   0  0  0  0  0  0  0  0  0  0  0  0
  -21.0580  -29.7730   21.5230 H   0  0  0  0  0  0  0  0  0  0  0  0
  -18.2030  -27.9370   22.6490 C   0  0  0  0  0  0  0  0  0  0  0  0
  -20.7660  -28.1860   22.8860 C   0  0  0  0  0  3  0  0  0  0  0  0
  -20.8570  -26.7930   22.2210 C   0  0  0  0  0  2  0  0  0  0  0  0
  -19.7380  -26.5320   21.2080 C   0  0  0  0  0  2  0  0  0  0  0  0
  -18.3680  -26.6340   21.8840 C   0  0  0  0  0  2  0  0  0  0  0  0
  -19.3280  -28.6740   23.1030 C   0  0  0  0  0  0  0  0  0  0  0  0
  -19.1190  -29.9000   23.7730 C   0  0  0  0  0  3  0  0  0  0  0  0
  -17.8170  -30.3860   23.9950 C   0  0  0  0  0  3  0  0  0  0  0  0
  -16.7050  -29.6420   23.5600 C   0  0  0  0  0  3  0  0  0  0  0  0
  -16.9000  -28.4190   22.8930 C   0  0  0  0  0  3  0  0  0  0  0  0
  -26.0240  -32.3610   23.7000 C   0  0  0  0  0  3  0  0  0  0  0  0
  -25.6960  -33.7280   24.1380 N   0  0  0  0  0  0  0  0  0  0  0  0
  -25.9670  -34.8370   23.4380 C   0  0  0  0  0  0  0  0  0  0  0  0
  -26.5880  -34.8200   22.3720 O   0  0  0  0  0  0  0  0  0  0  0  0
  -25.1400  -33.8150   24.9750 H   0  0  0  0  0  0  0  0  0  0  0  0
  -24.1640  -36.5860   23.3090 C   0  0  0  0  0  1  0  0  0  0  0  0
  -25.4690  -36.1780   24.0120 C   0  0  0  0  0  3  0  0  0  0  0  0
  -27.6270  -37.0840   24.7530 C   0  0  0  0  0  1  0  0  0  0  0  0
  -26.4560  -37.2740   23.9010 N   0  0  0  0  0  0  0  0  0  0  0  0
  -26.0310  -38.1650   24.1450 H   0  0  0  0  0  0  0  0  0  0  0  0
  -26.5810  -31.5140   24.9110 C   0  0  1  0  0  0  0  0  0  0  0  0
  -25.5170  -31.1860   25.9840 C   0  0  0  0  0  1  0  0  0  0  0  0
  -27.1730  -30.1770   24.4120 C   0  0  0  0  0  1  0  0  0  0  0  0
  -27.7360  -32.2770   25.6010 C   0  0  0  0  0  1  0  0  0  0  0  0
  1 24  1  0
  2  7  1  0
  3  4  1  0
  3  2  1  0
  5  4  1  0
  5 28  1  0
  5  6  1  0
  7  1  1  0
  7  6  1  0
  8  1  2  0
  9 10  2  0
  9 12  1  0
 10 14  1  0
 12 13  2  0
 13 11  1  0
 13 21  1  0
 14 58  1  0
 14 11  2  0
 15 12  1  0
 15 22  1  0
 17 20  1  0
 19 16  1  0
 19 24  1  0
 21 18  1  0
 21 56  1  0
 22 23  1  0
 22 55  1  0
 23 16  1  6
 23 18  1  0
 23 17  1  0
 24 20  1  0
 25 26  2  0
 26 45  1  0
 27 26  1  0
 27 30  1  0
 28 25  1  0
 28 29  1  0
 29 27  2  0
 30 31  1  0
 31 32  2  0
 33 36  1  0
 33 32  1  0
 34 33  2  0
 35 34  1  0
 35 30  2  0
 36 37  1  0
 37 38  1  0
 38 39  2  0
 40 39  1  0
 40 44  1  0
 41 40  2  0
 42 37  2  0
 42 41  1  0
 43 42  1  0
 45 46  1  0
 46 49  1  0
 46 48  1  0
 47 45  2  0
 50 51  1  0
 50 25  1  0
 52 50  1  0
 54 55  1  0
 54 53  1  0
 55 53  1  0
 56 57  1  0
 59 70  2  0
 60 58  1  0
 60 65  1  0
 61 69  1  0
 61 71  1  0
 62 68  1  0
 62 64  1  0
 63 69  1  0
 64 63  1  0
 65 64  2  0
 66 67  1  0
 66 60  2  0
 67 62  2  0
 68 61  1  0
 69 59  1  0
 71 73  2  0
 72 71  1  0
 74 72  1  0
 75 84  2  0
 75 80  1  0
 76 72  1  0
 76 80  1  0
 77 76  1  0
 78 79  1  0
 78 77  1  0
 79 75  1  0
 80 81  2  0
 81 82  1  0
 83 82  2  0
 84 83  1  0
 85 59  1  0
 85 86  1  0
 85 95  1  0
 86 89  1  0
 87 91  1  0
 87 86  1  0
 88 87  2  0
 91 90  1  0
 93 91  1  0
 93 94  1  0
 93 92  1  0
 95 98  1  1
 95 96  1  0
 97 95  1  0
M  ISO  4   1 100  14 101  24 100  58 101
M  END
>  <TORSDO>  (24) 
F 17

>  <SCORE>  (24) 
-15.043

>  <name>  (24) 
23

>  <ligand_id>  (24) 
23

>  <original_smiles>  (24) 
[H]OC1([H])c2c([H])c(Oc3c([H])c([H])c4c(c3[H])C([H])([H])N(C(=O)C([H])(N([H])C(=O)C([H])(N([H])C([H])([H])[H])C([H])([H])[H])C(C([H])([H])[H])(C([H])([H])[H])C([H])([H])[H])C([H])(C(=O)N([H])C3([H])c5c([H])c([H])c([H])c([H])c5C([H])([H])C([H])([H])C3([H])[H])C4([H])[H])c([H])c([H])c2C([H])([H])C([H])(C2([H])C([H])([H])C2([H])[H])C2(C1([H])[H])C([H])([H])C([H])([H])N(C(=O)N1C([H])([H])C([H])([H])C([H])([H])C([H])(n3nc(-c4c([H])c([H])c(Oc5c([H])c([H])c(F)c([H])c5F)c([H])c4[H])c(C(=O)N([H])[H])c3N([H])[H])C1([H])[H])C([H])([H])C2([H])[H]

>  <smiles>  (24) 
[H]OC1([H])c2c([H])c(Oc3c([H])c([H])c4c(c3[H])C([H])([H])N(C(=O)C([H])(N([H])C(=O)C([H])(N([H])C([H])([H])[H])C([H])([H])[H])C(C([H])([H])[H])(C([H])([H])[H])C([H])([H])[H])C([H])(C(=O)N([H])C3([H])c5c([H])c([H])c([H])c([H])c5C([H])([H])C([H])([H])C3([H])[H])C4([H])[H])c([H])c([H])c2C([H])([H])C([H])(C2([H])C([H])([H])C2([H])[H])C2(C1([H])[H])C([H])([H])C([H])([H])N(C(=O)N1C([H])([H])C([H])([H])C([H])([H])C([H])(n3nc(-c4c([H])c([H])c(Oc5c([H])c([H])c(F)c([H])c5F)c([H])c4[H])c(C(=O)N([H])[H])c3N([H])[H])C1([H])[H])C([H])([H])C2([H])[H]

$$$$
24:0:0
     RDKit          3D

101109  0  0  1  0  0  0  0  0999 V2000
  -33.0070  -22.4820   19.8300 C   0  0  0  0  0  3  0  0  0  0  0  0
  -33.5630  -21.2990   21.8620 C   0  0  0  0  0  3  0  0  0  0  0  0
  -31.6740  -22.0320   19.9280 C   0  0  0  0  0  0  0  0  0  0  0  0
  -33.9660  -22.0780   20.7670 C   0  0  0  0  0  0  0  0  0  0  0  0
  -32.2320  -20.8510   21.9880 C   0  0  0  0  0  0  0  0  0  0  0  0
  -31.3140  -21.0640   20.9120 C   0  0  0  0  0  0  0  0  0  0  0  0
  -35.3900  -22.5820   20.6520 C   0  0  0  0  0  1  0  0  0  0  0  0
  -30.6790  -22.7640   19.0810 C   0  0  0  0  0  0  0  0  0  0  0  0
  -30.3810  -23.9740   19.5850 N   0  0  0  0  0  0  0  0  0  0  0  0
  -30.3460  -22.3650   17.9650 O   0  0  0  0  0  0  0  0  0  0  0  0
  -30.6900  -24.1340   20.5370 H   0  0  0  0  0  0  0  0  0  0  0  0
  -30.0880  -25.1740   18.7970 C   0  0  0  0  0  2  0  0  0  0  0  0
  -28.6930  -25.7680   19.0380 C   0  0  0  0  0  2  0  0  0  0  0  0
  -28.6120  -26.8520   19.9900 O   0  0  0  0  0  0  0  0  0  0  0  0
  -24.4480  -31.7940   23.1480 C   0  0  0  0  0  0  0  0  0  0  0  0
  -27.3940  -27.5190   20.0450 C   0  0  0  0  0  0  0  0  0  0  0  0
  -23.3670  -30.3620   21.4490 C   0  0  0  0  0  3  0  0  0  0  0  0
  -24.9280  -28.9280   20.0510 C   0  0  0  0  0  0  0  0  0  0  0  0
  -25.8840  -30.8360   21.3450 C   0  0  0  0  0  2  0  0  0  0  0  0
  -26.0490  -29.4850   20.6780 C   0  0  0  0  0  0  0  0  0  0  0  0
  -27.2860  -28.7890   20.6700 C   0  0  0  0  0  3  0  0  0  0  0  0
  -26.2220  -26.9670   19.4640 C   0  0  0  0  0  3  0  0  0  0  0  0
  -25.0070  -27.6680   19.4490 C   0  0  0  0  0  3  0  0  0  0  0  0
  -23.6460  -29.7260   20.0670 C   0  0  0  0  0  2  0  0  0  0  0  0
  -24.5810  -31.0170   22.0360 N   0  0  0  0  0  0  0  0  0  0  0  0
  -23.3380  -31.9970   23.6640 O   0  0  0  0  0  0  0  0  0  0  0  0
  -22.7550  -29.2850   22.3710 C   0  0  0  0  0  0  0  0  0  0  0  0
  -21.4410  -29.0500   22.2230 N   0  0  0  0  0  0  0  0  0  0  0  0
  -23.4570  -28.6660   23.1750 O   0  0  0  0  0  0  0  0  0  0  0  0
  -20.9350  -29.6070   21.5500 H   0  0  0  0  0  0  0  0  0  0  0  0
  -18.1030  -27.7330   22.6650 C   0  0  0  0  0  0  0  0  0  0  0  0
  -20.6510  -28.0570   22.9530 C   0  0  0  0  0  3  0  0  0  0  0  0
  -20.7970  -26.6500   22.3270 C   0  0  0  0  0  2  0  0  0  0  0  0
  -19.7040  -26.3310   21.3000 C   0  0  0  0  0  2  0  0  0  0  0  0
  -18.3170  -26.4140   21.9430 C   0  0  0  0  0  2  0  0  0  0  0  0
  -19.1970  -28.5110   23.1250 C   0  0  0  0  0  0  0  0  0  0  0  0
  -18.9420  -29.7450   23.7610 C   0  0  0  0  0  3  0  0  0  0  0  0
  -17.6230  -30.2040   23.9410 C   0  0  0  0  0  3  0  0  0  0  0  0
  -16.5420  -29.4210   23.4950 C   0  0  0  0  0  3  0  0  0  0  0  0
  -16.7810  -28.1890   22.8650 C   0  0  0  0  0  3  0  0  0  0  0  0
  -25.6840  -32.4780   23.8120 C   0  0  0  0  0  3  0  0  0  0  0  0
  -25.3140  -33.8610   24.1180 N   0  0  0  0  0  0  0  0  0  0  0  0
  -25.6280  -34.9200   23.3590 C   0  0  0  0  0  0  0  0  0  0  0  0
  -26.3220  -34.8290   22.3440 O   0  0  0  0  0  0  0  0  0  0  0  0
  -24.6740  -34.0000   24.8910 H   0  0  0  0  0  0  0  0  0  0  0  0
  -23.8530  -36.6550   22.9470 C   0  0  0  0  0  1  0  0  0  0  0  0
  -25.0740  -36.2860   23.8020 C   0  0  0  0  0  3  0  0  0  0  0  0
  -27.1250  -37.2700   24.7190 C   0  0  0  0  0  1  0  0  0  0  0  0
  -26.0640  -37.3790   23.7240 N   0  0  0  0  0  0  0  0  0  0  0  0
  -25.6100  -38.2810   23.8490 H   0  0  0  0  0  0  0  0  0  0  0  0
  -26.1800  -31.7240   25.1080 C   0  0  1  0  0  0  0  0  0  0  0  0
  -25.0500  -31.3870   26.1140 C   0  0  0  0  0  1  0  0  0  0  0  0
  -26.8600  -30.3860   24.7370 C   0  0  0  0  0  1  0  0  0  0  0  0
  -27.2490  -32.5790   25.8250 C   0  0  0  0  0  1  0  0  0  0  0  0
  -31.8330  -20.3150   23.3650 C   0  0  0  0  0  2  0  0  0  0  0  0
  -32.2450  -21.3510   24.4560 C   0  0  0  0  0  2  0  0  0  0  0  0
  -31.4110  -21.4080   25.7490 C   0  0  0  0  0  2  0  0  0  0  0  0
  -30.9450  -22.7870   27.8710 C   0  0  0  0  0  1  0  0  0  0  0  0
  -31.8930  -22.5280   26.6940 C   0  0  0  0  0  2  0  0  0  0  0  0
  -30.0830  -20.1570   20.6870 C   0  0  0  0  0  2  0  0  0  0  0  0
  -30.5980  -18.7460   20.2800 C   0  0  0  0  0  2  0  0  0  0  0  0
  -29.6620  -17.5030   20.3280 C   0  0  0  0  0  2  0  0  0  0  0  0
  -30.5170  -16.2260   20.0610 C   0  0  0  0  0  2  0  0  0  0  0  0
  -30.4410  -13.7950   19.6990 C   0  0  0  0  0  0  0  0  0  0  0  0
  -30.0810  -11.5040   18.8530 C   0  0  0  0  0  2  0  0  0  0  0  0
  -29.0480  -11.5020   17.7090 C   0  0  0  0  0  2  0  0  0  0  0  0
  -27.6250  -11.3520   18.2800 C   0  0  0  0  0  2  0  0  0  0  0  0
  -27.3410  -12.3610   19.4300 C   0  0  0  0  0  3  0  0  0  0  0  0
  -28.4900  -12.3680   20.4690 C   0  0  0  0  0  2  0  0  0  0  0  0
  -29.7530  -12.6190   19.7600 N   0  0  0  0  0  0  0  0  0  0  0  0
  -31.4860  -13.8990   19.0520 O   0  0  0  0  0  0  0  0  0  0  0  0
  -29.8990  -14.8930   20.2650 N   0  0  0  0  0  0  0  0  0  0  0  0
  -29.0350  -14.8070   20.7810 H   0  0  0  0  0  0  0  0  0  0  0  0
  -25.0340  -12.9890   20.3780 C   0  0  0  0  0  0  0  0  0  0  0  0
  -24.0070  -12.2330   20.8670 C   0  0  0  0  0  0  0  0  0  0  0  0
  -24.4550  -10.8780   20.8150 C   0  0  0  0  0  0  0  0  0  0  0  0
  -26.0460  -12.1000   20.0530 N   0  0  0  0  0  0  0  0  0  0  0  0
  -25.7060  -10.8230   20.3740 N   0  0  0  0  0  0  0  0  0  0  0  0
  -23.7490   -9.6250   21.1060 C   0  0  0  0  0  0  0  0  0  0  0  0
  -24.2440   -8.6990   22.0540 C   0  0  0  0  0  3  0  0  0  0  0  0
  -23.5370   -7.5070   22.3260 C   0  0  0  0  0  3  0  0  0  0  0  0
  -22.3240   -7.2310   21.6510 C   0  0  0  0  0  0  0  0  0  0  0  0
  -21.8470   -8.1440   20.6930 C   0  0  0  0  0  3  0  0  0  0  0  0
  -22.5530   -9.3270   20.4190 C   0  0  0  0  0  3  0  0  0  0  0  0
  -21.5840   -6.0890   21.8300 O   0  0  0  0  0  0  0  0  0  0  0  0
  -21.5790   -5.4160   23.0250 C   0  0  0  0  0  0  0  0  0  0  0  0
  -21.1730   -6.0370   24.2280 C   0  0  0  0  0  3  0  0  0  0  0  0
  -21.1160   -5.2880   25.4220 C   0  0  0  0  0  3  0  0  0  0  0  0
  -21.4520   -3.9200   25.4130 C   0  0  0  0  0  0  0  0  0  0  0  0
  -21.8520   -3.3000   24.2160 C   0  0  0  0  0  3  0  0  0  0  0  0
  -21.9100   -4.0450   23.0240 C   0  0  0  0  0  0  0  0  0  0  0  0
  -22.2740   -3.4380   21.8700 F   0  0  0  0  0  0  0  0  0  0  0  0
  -21.3890   -3.2000   26.5570 F   0  0  0  0  0  0  0  0  0  0  0  0
  -22.6480  -12.7220   21.2730 C   0  0  0  0  0  0  0  0  0  0  0  0
  -22.0100  -12.0520   22.2230 N   0  0  0  0  0  0  0  0  0  0  0  0
  -22.1630  -13.7400   20.7820 O   0  0  0  0  0  0  0  0  0  0  0  0
  -22.4230  -11.2340   22.6490 H   0  0  0  0  0  0  0  0  0  0  0  0
  -21.1010  -12.3630   22.5320 H   0  0  0  0  0  0  0  0  0  0  0  0
  -25.1820  -14.3570   20.1660 N   0  0  0  0  0  0  0  0  0  0  0  0
  -24.4220  -15.0090   20.3370 H   0  0  0  0  0  0  0  0  0  0  0  0
  -25.9970  -14.7930   19.7500 H   0  0  0  0  0  0  0  0  0  0  0  0
  1  3  2  0
  1  4  1  0
  2  5  1  0
  3  6  1  0
  4  2  2  0
  5 55  1  0
  6  5  2  0
  7  4  1  0
  8  9  1  0
  8  3  1  0
  9 11  1  0
 10  8  2  0
 12 13  1  0
 12  9  1  0
 13 14  1  0
 14 16  1  0
 15 26  2  0
 16 21  1  0
 17 25  1  0
 17 27  1  0
 18 24  1  0
 18 20  1  0
 19 25  1  0
 20 19  1  0
 21 20  2  0
 22 16  2  0
 23 22  1  0
 23 18  2  0
 24 17  1  0
 25 15  1  0
 27 29  2  0
 28 27  1  0
 30 28  1  0
 31 40  2  0
 31 36  1  0
 32 28  1  0
 32 36  1  0
 33 32  1  0
 34 35  1  0
 34 33  1  0
 35 31  1  0
 36 37  2  0
 37 38  1  0
 39 38  2  0
 40 39  1  0
 41 15  1  0
 41 42  1  0
 41 51  1  0
 42 45  1  0
 43 47  1  0
 43 42  1  0
 44 43  2  0
 47 46  1  0
 49 47  1  0
 49 50  1  0
 49 48  1  0
 51 54  1  1
 51 52  1  0
 53 51  1  0
 55 56  1  0
 56 57  1  0
 57 59  1  0
 59 58  1  0
 60  6  1  0
 61 62  1  0
 61 60  1  0
 63 72  1  0
 63 62  1  0
 64 70  1  0
 64 72  1  0
 65 70  1  0
 66 67  1  0
 66 65  1  0
 68 67  1  0
 68 77  1  0
 68 69  1  0
 70 69  1  0
 71 64  2  0
 72 73  1  0
 74 75  2  0
 75 94  1  0
 76 75  1  0
 76 79  1  0
 77 78  1  0
 77 74  1  0
 78 76  2  0
 79 80  1  0
 80 81  2  0
 82 85  1  0
 82 81  1  0
 83 82  2  0
 84 83  1  0
 84 79  2  0
 85 86  1  0
 86 87  1  0
 87 88  2  0
 89 88  1  0
 89 93  1  0
 90 89  2  0
 91 86  2  0
 91 90  1  0
 92 91  1  0
 94 95  1  0
 95 98  1  0
 95 97  1  0
 96 94  2  0
 99100  1  0
 99 74  1  0
101 99  1  0
M  ISO  4  13 101  14 101  64 100  72 100
M  END
>  <TORSDO>  (25) 
F 27

>  <SCORE>  (25) 
-1.430

>  <name>  (25) 
24

>  <ligand_id>  (25) 
24

>  <original_smiles>  (25) 
[H]c1c([H])c([H])c2c(c1[H])C([H])([H])C([H])([H])C([H])([H])C2([H])N([H])C(=O)C1([H])N(C(=O)C([H])(N([H])C(=O)C([H])(N([H])C([H])([H])[H])C([H])([H])[H])C(C([H])([H])[H])(C([H])([H])[H])C([H])([H])[H])C([H])([H])c2c([H])c(OC([H])([H])C([H])([H])N([H])C(=O)c3c([H])c(C([H])([H])[H])c([H])c(C([H])([H])C([H])([H])C([H])([H])C([H])([H])C([H])([H])[H])c3C([H])([H])C([H])([H])C([H])([H])C([H])([H])N([H])C(=O)N3C([H])([H])C([H])([H])C([H])([H])C([H])(n4nc(-c5c([H])c([H])c(Oc6c([H])c([H])c(F)c([H])c6F)c([H])c5[H])c(C(=O)N([H])[H])c4N([H])[H])C3([H])[H])c([H])c([H])c2C1([H])[H]

>  <smiles>  (25) 
[H]c1c([H])c([H])c2c(c1[H])C([H])([H])C([H])([H])C([H])([H])C2([H])N([H])C(=O)C1([H])N(C(=O)C([H])(N([H])C(=O)C([H])(N([H])C([H])([H])[H])C([H])([H])[H])C(C([H])([H])[H])(C([H])([H])[H])C([H])([H])[H])C([H])([H])c2c([H])c(OC([H])([H])C([H])([H])N([H])C(=O)c3c([H])c(C([H])([H])[H])c([H])c(C([H])([H])C([H])([H])C([H])([H])C([H])([H])C([H])([H])[H])c3C([H])([H])C([H])([H])C([H])([H])C([H])([H])N([H])C(=O)N3C([H])([H])C([H])([H])C([H])([H])C([H])(n4nc(-c5c([H])c([H])c(Oc6c([H])c([H])c(F)c([H])c6F)c([H])c5[H])c(C(=O)N([H])[H])c4N([H])[H])C3([H])[H])c([H])c([H])c2C1([H])[H]

$$$$
25:0:0
     RDKit          3D

102109  0  0  1  0  0  0  0  0999 V2000
  -25.7940  -24.0520   16.7940 C   0  0  0  0  0  2  0  0  0  0  0  0
  -23.8130  -22.9200   19.9390 C   0  0  0  0  0  3  0  0  0  0  0  0
  -26.0110  -25.2800   18.1260 C   0  0  0  0  0  2  0  0  0  0  0  0
  -24.6330  -24.4000   20.2740 C   0  0  0  0  0  2  0  0  0  0  0  0
  -24.8290  -22.5510   17.0380 C   0  0  0  0  0  3  0  0  0  0  0  0
  -23.9150  -22.1250   18.4340 C   0  0  0  0  0  0  0  0  0  0  0  0
  -23.9970  -25.2400   21.4530 C   0  0  0  0  0  2  0  0  0  0  0  0
  -23.6420  -26.7840   20.9770 C   0  0  0  0  0  2  0  0  0  0  0  0
  -25.1280  -27.9310   17.2160 C   0  0  0  0  0  2  0  0  0  0  0  0
  -24.9770  -28.1540   18.7810 C   0  0  0  0  0  2  0  0  0  0  0  0
  -26.1520  -27.0280   17.8170 C   0  0  1  0  0  0  0  0  0  0  0  0
  -23.2200  -20.9670   18.3640 F   0  0  0  0  0  0  0  0  0  0  0  0
  -25.0930  -21.1460   16.3150 C   0  0  0  0  0  2  0  0  0  0  0  0
  -26.3980  -20.1830   16.7250 C   0  0  0  0  0  3  0  0  0  0  0  0
  -26.4190  -18.8410   17.6910 C   0  0  0  0  0  3  0  0  0  0  0  0
  -27.8010  -18.0130   18.0860 C   0  0  0  0  0  3  0  0  0  0  0  0
  -27.9550  -17.0230   19.4090 C   0  0  0  0  0  3  0  0  0  0  0  0
  -29.2890  -16.1040   19.7870 C   0  0  0  0  0  3  0  0  0  0  0  0
  -29.4780  -15.3360   21.2470 C   0  0  0  0  0  3  0  0  0  0  0  0
  -30.4860  -14.0750   21.5720 C   0  0  0  0  0  0  0  0  0  0  0  0
  -30.7150  -11.6250   21.1880 C   0  0  0  0  0  2  0  0  0  0  0  0
  -30.0140  -11.3550   19.8360 C   0  0  0  0  0  2  0  0  0  0  0  0
  -28.5000  -11.1290   20.0350 C   0  0  0  0  0  2  0  0  0  0  0  0
  -27.8550  -12.2030   20.9480 C   0  0  0  0  0  3  0  0  0  0  0  0
  -28.6870  -12.4260   22.2240 C   0  0  0  0  0  2  0  0  0  0  0  0
  -30.0380  -12.7900   21.7950 N   0  0  0  0  0  0  0  0  0  0  0  0
  -31.7110  -14.2460   21.5200 O   0  0  0  0  0  0  0  0  0  0  0  0
  -25.3980  -12.8010   21.3570 C   0  0  0  0  0  0  0  0  0  0  0  0
  -24.2880  -12.0260   21.5630 C   0  0  0  0  0  0  0  0  0  0  0  0
  -24.7520  -10.6760   21.5900 C   0  0  0  0  0  0  0  0  0  0  0  0
  -26.4600  -11.9180   21.2540 N   0  0  0  0  0  0  0  0  0  0  0  0
  -26.0710  -10.6370   21.4670 N   0  0  0  0  0  0  0  0  0  0  0  0
  -24.0070   -9.4130   21.6600 C   0  0  0  0  0  0  0  0  0  0  0  0
  -24.1640   -8.5230   22.7440 C   0  0  0  0  0  3  0  0  0  0  0  0
  -23.4250   -7.3220   22.7980 C   0  0  0  0  0  3  0  0  0  0  0  0
  -22.5150   -7.0040   21.7620 C   0  0  0  0  0  0  0  0  0  0  0  0
  -22.3810   -7.8820   20.6720 C   0  0  0  0  0  3  0  0  0  0  0  0
  -23.1220   -9.0730   20.6180 C   0  0  0  0  0  3  0  0  0  0  0  0
  -21.7730   -5.8480   21.7170 O   0  0  0  0  0  0  0  0  0  0  0  0
  -21.2900   -5.2600   22.8570 C   0  0  0  0  0  0  0  0  0  0  0  0
  -20.3390   -5.9000   23.6810 C   0  0  0  0  0  3  0  0  0  0  0  0
  -19.8170   -5.2300   24.8060 C   0  0  0  0  0  3  0  0  0  0  0  0
  -20.2370   -3.9200   25.1030 C   0  0  0  0  0  0  0  0  0  0  0  0
  -21.1810   -3.2790   24.2800 C   0  0  0  0  0  3  0  0  0  0  0  0
  -21.7030   -3.9460   23.1600 C   0  0  0  0  0  0  0  0  0  0  0  0
  -22.5950   -3.3170   22.3580 F   0  0  0  0  0  0  0  0  0  0  0  0
  -19.7310   -3.2730   26.1780 F   0  0  0  0  0  0  0  0  0  0  0  0
  -22.8660  -12.5040   21.6260 C   0  0  0  0  0  0  0  0  0  0  0  0
  -22.0160  -11.8020   22.3690 N   0  0  0  0  0  0  0  0  0  0  0  0
  -22.5110  -13.5340   21.0550 O   0  0  0  0  0  0  0  0  0  0  0  0
  -22.3120  -10.9700   22.8590 H   0  0  0  0  0  0  0  0  0  0  0  0
  -21.0550  -12.1030   22.4490 H   0  0  0  0  0  0  0  0  0  0  0  0
  -25.5860  -14.1730   21.2180 N   0  0  0  0  0  0  0  0  0  0  0  0
  -24.8100  -14.8250   21.2360 H   0  0  0  0  0  0  0  0  0  0  0  0
  -26.4710  -14.6180   21.0200 H   0  0  0  0  0  0  0  0  0  0  0  0
  -27.6540  -27.3210   17.6050 C   0  0  0  0  0  2  0  0  0  0  0  0
  -28.5050  -26.9610   18.7830 N   0  0  0  0  0  4  0  0  0  0  0  0
  -27.8980  -27.1230   19.5710 H   0  0  0  0  0  0  0  0  0  0  0  0
  -29.2660  -27.6200   18.8470 H   0  0  0  0  0  0  0  0  0  0  0  0
  -29.0330  -25.5540   18.9230 C   0  0  0  0  0  2  0  0  0  0  0  0
  -30.1110  -25.3470   20.0670 C   0  0  0  0  0  2  0  0  0  0  0  0
  -29.6600  -25.1840   21.4430 O   0  0  0  0  0  0  0  0  0  0  0  0
  -27.5100  -32.1890   24.1430 C   0  0  0  0  0  0  0  0  0  0  0  0
  -28.6230  -25.9380   21.7280 C   0  0  0  0  0  0  0  0  0  0  0  0
  -25.4730  -31.2910   22.6740 C   0  0  0  0  0  3  0  0  0  0  0  0
  -25.7770  -28.3850   21.5440 C   0  0  0  0  0  3  0  0  0  0  0  0
  -28.3740  -30.1700   22.7540 C   0  0  0  0  0  3  0  0  0  0  0  0
  -27.8390  -28.5740   22.0860 C   0  0  0  0  0  3  0  0  0  0  0  0
  -28.8790  -27.4360   22.1370 C   0  0  0  0  0  3  0  0  0  0  0  0
  -27.2180  -25.2970   21.2750 C   0  0  0  0  0  1  0  0  0  0  0  0
  -25.2770  -26.8340   21.1150 C   0  0  0  0  0  2  0  0  0  0  0  0
  -24.7640  -29.8260   21.7470 C   0  0  0  0  0  3  0  0  0  0  0  0
  -27.1890  -31.3980   23.0910 N   0  0  0  0  0  0  0  0  0  0  0  0
  -26.6860  -32.9630   24.6370 O   0  0  0  0  0  0  0  0  0  0  0  0
  -24.5070  -31.1880   23.9300 C   0  0  0  0  0  0  0  0  0  0  0  0
  -23.4270  -30.4530   23.7710 N   0  0  0  0  0  0  0  0  0  0  0  0
  -24.8840  -31.4010   25.0970 O   0  0  0  0  0  0  0  0  0  0  0  0
  -23.1570  -30.1870   22.8350 H   0  0  0  0  0  0  0  0  0  0  0  0
  -20.9890  -28.0670   24.3050 C   0  0  0  0  0  0  0  0  0  0  0  0
  -22.6810  -29.8740   24.8720 C   0  0  0  0  0  3  0  0  0  0  0  0
  -23.4950  -28.7940   25.6220 C   0  0  0  0  0  2  0  0  0  0  0  0
  -23.3430  -27.4090   24.9980 C   0  0  0  0  0  2  0  0  0  0  0  0
  -21.8620  -27.0020   24.9500 C   0  0  0  0  0  2  0  0  0  0  0  0
  -21.3770  -29.4210   24.2830 C   0  0  0  0  0  0  0  0  0  0  0  0
  -20.5780  -30.3890   23.6390 C   0  0  0  0  0  3  0  0  0  0  0  0
  -19.3780  -30.0130   23.0230 C   0  0  0  0  0  3  0  0  0  0  0  0
  -18.9710  -28.6680   23.0680 C   0  0  0  0  0  3  0  0  0  0  0  0
  -19.7690  -27.7020   23.7070 C   0  0  0  0  0  3  0  0  0  0  0  0
  -28.9480  -32.1810   24.7540 C   0  0  0  0  0  3  0  0  0  0  0  0
  -29.3630  -33.5830   24.6990 N   0  0  0  0  0  0  0  0  0  0  0  0
  -30.0230  -34.1290   23.6750 C   0  0  0  0  0  0  0  0  0  0  0  0
  -30.4560  -33.4720   22.7240 O   0  0  0  0  0  0  0  0  0  0  0  0
  -29.0050  -34.1940   25.4190 H   0  0  0  0  0  0  0  0  0  0  0  0
  -29.2320  -36.3490   22.8020 C   0  0  0  0  0  1  0  0  0  0  0  0
  -30.2480  -35.6470   23.7190 C   0  0  0  0  0  3  0  0  0  0  0  0
  -32.6260  -35.6390   24.3220 C   0  0  0  0  0  1  0  0  0  0  0  0
  -31.6200  -36.0460   23.3440 N   0  0  0  0  0  0  0  0  0  0  0  0
  -31.6840  -37.0540   23.2210 H   0  0  0  0  0  0  0  0  0  0  0  0
  -29.0950  -31.6340   26.2410 C   0  0  1  0  0  0  0  0  0  0  0  0
  -27.9510  -32.0940   27.1710 C   0  0  0  0  0  1  0  0  0  0  0  0
  -29.1930  -30.0960   26.3820 C   0  0  0  0  0  1  0  0  0  0  0  0
  -30.4400  -32.1320   26.8260 C   0  0  0  0  0  1  0  0  0  0  0  0
  1  5  1  0
  1  3  1  0
  2  4  1  0
  4  7  1  0
  5 13  1  0
  5  6  1  0
  6  2  2  0
  8 71  1  0
  8  7  1  0
 11  9  1  6
  9 10  1  0
 11  3  1  0
 11 10  1  0
 12  6  1  0
 13 14  1  0
 14 15  2  0
 15 16  1  0
 16 17  2  0
 17 18  1  0
 18 19  2  0
 19 20  1  0
 20 26  1  0
 21 26  1  0
 22 23  1  0
 22 21  1  0
 24 23  1  0
 24 31  1  0
 24 25  1  0
 26 25  1  0
 27 20  2  0
 28 29  2  0
 29 30  1  0
 29 48  1  0
 30 33  1  0
 31 28  1  0
 31 32  1  0
 32 30  2  0
 33 34  1  0
 34 35  2  0
 36 35  1  0
 37 36  2  0
 38 37  1  0
 38 33  2  0
 39 36  1  0
 39 40  1  0
 40 45  2  0
 40 41  1  0
 41 42  2  0
 42 43  1  0
 43 47  1  0
 44 43  2  0
 45 44  1  0
 46 45  1  0
 48 49  1  0
 49 52  1  0
 49 51  1  0
 50 48  2  0
 53 54  1  0
 53 28  1  0
 55 53  1  0
 56 11  1  0
 56 57  1  0
 57 59  1  0
 57 60  1  0
 57 58  1  0
 60 61  1  0
 61 62  1  0
 62 64  1  0
 63 74  2  0
 64 69  2  0
 65 73  1  0
 65 75  1  0
 66 72  2  0
 67 73  1  0
 68 69  1  0
 68 67  2  0
 70 64  1  0
 71 66  1  0
 72 65  1  0
 73 63  1  0
 75 77  2  0
 76 75  1  0
 78 76  1  0
 79 83  1  0
 80 76  1  0
 80 81  1  0
 82 81  1  0
 83 82  1  0
 84 79  1  0
 84 80  1  0
 85 84  2  0
 86 87  2  0
 86 85  1  0
 87 88  1  0
 88 79  2  0
 89 63  1  0
 89 99  1  0
 90 89  1  0
 90 93  1  0
 91 95  1  0
 91 90  1  0
 92 91  2  0
 95 94  1  0
 97 95  1  0
 97 96  1  0
 98 97  1  0
 99101  1  6
 99102  1  0
 99100  1  0
M  ISO  4  19 100  20 100  61 101  62 101
M  END
>  <TORSDO>  (26) 
F 27

>  <SCORE>  (26) 
2.115

>  <name>  (26) 
25

>  <ligand_id>  (26) 
25

>  <original_smiles>  (26) 
[H]c1c([H])c([H])c2c(c1[H])C([H])([H])C([H])([H])C([H])([H])C2([H])N([H])C(=O)C1([H])N(C(=O)C([H])(N([H])C(=O)C([H])(N([H])C([H])([H])[H])C([H])([H])[H])C(C([H])([H])[H])(C([H])([H])[H])C([H])([H])[H])C([H])([H])c2c([H])c(OC([H])([H])C([H])([H])[N+]([H])([H])C([H])([H])C34c5c([H])c(C([H])([H])C([H])([H])C([H])([H])C([H])([H])C([H])([H])C([H])([H])C([H])([H])C(=O)N6C([H])([H])C([H])([H])C([H])([H])C([H])(n7nc(-c8c([H])c([H])c(Oc9c([H])c([H])c(F)c([H])c9F)c([H])c8[H])c(C(=O)N([H])[H])c7N([H])[H])C6([H])[H])c(F)c([H])c5C([H])([H])C([H])([H])C3([H])C4([H])[H])c([H])c([H])c2C1([H])[H]

>  <smiles>  (26) 
[H]c1c([H])c([H])c2c(c1[H])C([H])([H])C([H])([H])C([H])([H])C2([H])N([H])C(=O)C1([H])N(C(=O)C([H])(N([H])C(=O)C([H])(N([H])C([H])([H])[H])C([H])([H])[H])C(C([H])([H])[H])(C([H])([H])[H])C([H])([H])[H])C([H])([H])c2c([H])c(OC([H])([H])C([H])([H])[N+]([H])([H])C([H])([H])C34c5c([H])c(C([H])([H])C([H])([H])C([H])([H])C([H])([H])C([H])([H])C([H])([H])C([H])([H])C(=O)N6C([H])([H])C([H])([H])C([H])([H])C([H])(n7nc(-c8c([H])c([H])c(Oc9c([H])c([H])c(F)c([H])c9F)c([H])c8[H])c(C(=O)N([H])[H])c7N([H])[H])C6([H])[H])c(F)c([H])c5C([H])([H])C([H])([H])C3([H])C4([H])[H])c([H])c([H])c2C1([H])[H]

$$$$
26:0:0
     RDKit          3D

 95103  0  0  1  0  0  0  0  0999 V2000
  -28.5780  -20.5640   20.0260 C   0  0  0  0  0  2  0  0  0  0  0  0
  -28.4550  -22.0880   20.2230 C   0  0  0  0  0  0  0  0  0  0  0  0
  -27.9720  -22.7940   19.1820 N   0  0  0  0  0  0  0  0  0  0  0  0
  -28.9020  -22.6150   21.2400 O   0  0  0  0  0  0  0  0  0  0  0  0
  -27.5350  -22.2480   18.4510 H   0  0  0  0  0  0  0  0  0  0  0  0
  -28.2340  -24.1940   18.7980 C   0  0  0  0  0  2  0  0  0  0  0  0
  -28.2560  -25.2400   19.9370 C   0  0  0  0  0  2  0  0  0  0  0  0
  -28.3860  -26.5930   19.4590 O   0  0  0  0  0  0  0  0  0  0  0  0
  -24.8820  -31.5670   23.1450 C   0  0  0  0  0  0  0  0  0  0  0  0
  -27.2460  -27.3620   19.5600 C   0  0  0  0  0  0  0  0  0  0  0  0
  -23.5530  -30.3150   21.4790 C   0  0  0  0  0  3  0  0  0  0  0  0
  -24.8880  -28.8920   19.8450 C   0  0  0  0  0  0  0  0  0  0  0  0
  -26.0680  -30.6720   21.1430 C   0  0  0  0  0  2  0  0  0  0  0  0
  -26.0910  -29.3610   20.3830 C   0  0  0  0  0  0  0  0  0  0  0  0
  -27.2790  -28.6100   20.2270 C   0  0  0  0  0  3  0  0  0  0  0  0
  -26.0210  -26.9060   19.0280 C   0  0  0  0  0  3  0  0  0  0  0  0
  -24.8430  -27.6600   19.1680 C   0  0  0  0  0  3  0  0  0  0  0  0
  -23.6610  -29.7490   20.0400 C   0  0  0  0  0  2  0  0  0  0  0  0
  -24.8570  -30.8590   21.9800 N   0  0  0  0  0  0  0  0  0  0  0  0
  -23.8430  -31.8000   23.7760 O   0  0  0  0  0  0  0  0  0  0  0  0
  -22.9510  -29.2220   22.3910 C   0  0  0  0  0  0  0  0  0  0  0  0
  -21.6300  -29.0100   22.2790 N   0  0  0  0  0  0  0  0  0  0  0  0
  -23.6680  -28.5700   23.1550 O   0  0  0  0  0  0  0  0  0  0  0  0
  -21.1070  -29.5910   21.6370 H   0  0  0  0  0  0  0  0  0  0  0  0
  -18.3160  -27.6360   22.7050 C   0  0  0  0  0  0  0  0  0  0  0  0
  -20.8550  -28.0070   23.0090 C   0  0  0  0  0  3  0  0  0  0  0  0
  -21.0300  -26.6020   22.3890 C   0  0  0  0  0  2  0  0  0  0  0  0
  -19.9540  -26.2610   21.3520 C   0  0  0  0  0  2  0  0  0  0  0  0
  -18.5640  -26.3190   21.9890 C   0  0  0  0  0  2  0  0  0  0  0  0
  -19.3930  -28.4370   23.1690 C   0  0  0  0  0  0  0  0  0  0  0  0
  -19.1090  -29.6700   23.7950 C   0  0  0  0  0  3  0  0  0  0  0  0
  -17.7810  -30.1060   23.9620 C   0  0  0  0  0  3  0  0  0  0  0  0
  -16.7180  -29.3010   23.5190 C   0  0  0  0  0  3  0  0  0  0  0  0
  -16.9860  -28.0690   22.8960 C   0  0  0  0  0  3  0  0  0  0  0  0
  -26.2120  -32.1390   23.7280 C   0  0  0  0  0  3  0  0  0  0  0  0
  -25.9280  -33.4860   24.2370 N   0  0  0  0  0  0  0  0  0  0  0  0
  -26.2160  -34.6210   23.5880 C   0  0  0  0  0  0  0  0  0  0  0  0
  -26.8170  -34.6440   22.5100 O   0  0  0  0  0  0  0  0  0  0  0  0
  -25.3840  -33.5450   25.0860 H   0  0  0  0  0  0  0  0  0  0  0  0
  -24.4630  -36.4220   23.5670 C   0  0  0  0  0  1  0  0  0  0  0  0
  -25.7610  -35.9400   24.2360 C   0  0  0  0  0  3  0  0  0  0  0  0
  -27.9490  -36.7350   25.0100 C   0  0  0  0  0  1  0  0  0  0  0  0
  -26.7800  -37.0100   24.1770 N   0  0  0  0  0  0  0  0  0  0  0  0
  -26.3860  -37.8990   24.4730 H   0  0  0  0  0  0  0  0  0  0  0  0
  -26.8370  -31.2340   24.8620 C   0  0  1  0  0  0  0  0  0  0  0  0
  -25.8360  -30.8370   25.9710 C   0  0  0  0  0  1  0  0  0  0  0  0
  -27.4100  -29.9310   24.2600 C   0  0  0  0  0  1  0  0  0  0  0  0
  -28.0220  -31.9690   25.5260 C   0  0  0  0  0  1  0  0  0  0  0  0
  -28.1590  -19.6200   21.1960 C   0  0  0  0  0  2  0  0  0  0  0  0
  -31.0360  -17.6220   22.7480 C   0  0  0  0  0  3  0  0  0  0  0  0
  -29.9910  -18.5370   22.5730 C   0  0  0  0  0  3  0  0  0  0  0  0
  -31.3380  -16.7060   21.7300 C   0  0  0  0  0  3  0  0  0  0  0  0
  -29.1560  -18.4620   21.4370 C   0  0  0  0  0  0  0  0  0  0  0  0
  -30.5230  -16.5770   20.5770 C   0  0  0  0  0  0  0  0  0  0  0  0
  -29.3270  -17.3800   20.5200 C   0  0  0  0  0  0  0  0  0  0  0  0
  -28.2150  -17.1270   19.5090 C   0  0  0  0  0  1  0  0  0  0  0  0
  -32.4130  -16.7970   19.0690 C   0  0  0  0  0  1  0  0  0  0  0  0
  -30.3970  -15.9000   17.9810 C   0  0  0  0  0  1  0  0  0  0  0  0
  -31.1700  -15.8900   19.3290 C   0  0  2  0  0  0  0  0  0  0  0  0
  -31.6850  -14.4070   19.4710 C   0  0  0  0  0  0  0  0  0  0  0  0
  -31.0440  -12.2390   18.5490 C   0  0  0  0  0  2  0  0  0  0  0  0
  -30.0140  -12.4850   17.4250 C   0  0  0  0  0  2  0  0  0  0  0  0
  -28.5830  -12.5150   17.9920 C   0  0  0  0  0  2  0  0  0  0  0  0
  -28.4390  -13.3720   19.2810 C   0  0  0  0  0  3  0  0  0  0  0  0
  -29.6060  -13.1490   20.2610 C   0  0  0  0  0  2  0  0  0  0  0  0
  -30.8710  -13.3160   19.5370 N   0  0  0  0  0  0  0  0  0  0  0  0
  -32.8630  -14.2600   19.1460 O   0  0  0  0  0  0  0  0  0  0  0  0
  -26.2270  -14.0990   20.3630 C   0  0  0  0  0  0  0  0  0  0  0  0
  -25.1470  -13.3860   20.8080 C   0  0  0  0  0  0  0  0  0  0  0  0
  -25.4700  -12.0080   20.6060 C   0  0  0  0  0  0  0  0  0  0  0  0
  -27.1450  -13.1590   19.9220 N   0  0  0  0  0  0  0  0  0  0  0  0
  -26.7020  -11.8910   20.1280 N   0  0  0  0  0  0  0  0  0  0  0  0
  -24.6510  -10.8000   20.7860 C   0  0  0  0  0  0  0  0  0  0  0  0
  -25.0280   -9.7830   21.6900 C   0  0  0  0  0  3  0  0  0  0  0  0
  -24.2180   -8.6390   21.8570 C   0  0  0  0  0  3  0  0  0  0  0  0
  -23.0140   -8.5080   21.1240 C   0  0  0  0  0  0  0  0  0  0  0  0
  -22.6560   -9.5120   20.2080 C   0  0  0  0  0  3  0  0  0  0  0  0
  -23.4660  -10.6470   20.0390 C   0  0  0  0  0  3  0  0  0  0  0  0
  -22.1820   -7.4170   21.2000 O   0  0  0  0  0  0  0  0  0  0  0  0
  -21.9910   -6.7380   22.3770 C   0  0  0  0  0  0  0  0  0  0  0  0
  -21.5460   -7.3860   23.5490 C   0  0  0  0  0  3  0  0  0  0  0  0
  -21.3000   -6.6390   24.7180 C   0  0  0  0  0  3  0  0  0  0  0  0
  -21.4870   -5.2430   24.7130 C   0  0  0  0  0  0  0  0  0  0  0  0
  -21.9210   -4.5940   23.5430 C   0  0  0  0  0  3  0  0  0  0  0  0
  -22.1700   -5.3400   22.3770 C   0  0  0  0  0  0  0  0  0  0  0  0
  -22.5710   -4.7070   21.2480 F   0  0  0  0  0  0  0  0  0  0  0  0
  -21.2400   -4.5210   25.8300 F   0  0  0  0  0  0  0  0  0  0  0  0
  -23.8460  -13.9510   21.2990 C   0  0  0  0  0  0  0  0  0  0  0  0
  -23.1980  -13.2720   22.2390 N   0  0  0  0  0  0  0  0  0  0  0  0
  -23.4190  -15.0270   20.8820 O   0  0  0  0  0  0  0  0  0  0  0  0
  -23.5590  -12.3990   22.5990 H   0  0  0  0  0  0  0  0  0  0  0  0
  -22.3250  -13.6300   22.6020 H   0  0  0  0  0  0  0  0  0  0  0  0
  -26.4940  -15.4610   20.2820 N   0  0  0  0  0  0  0  0  0  0  0  0
  -25.8290  -16.1600   20.5940 H   0  0  0  0  0  0  0  0  0  0  0  0
  -27.3910  -15.8510   20.0150 H   0  0  0  0  0  0  0  0  0  0  0  0
  1  2  1  0
  1 49  1  0
  2  4  2  0
  3  2  1  0
  5  3  1  0
  6  3  1  0
  6  7  1  0
  8 10  1  0
  8  7  1  0
  9 20  2  0
 10 15  1  0
 11 19  1  0
 11 21  1  0
 12 18  1  0
 12 14  1  0
 13 19  1  0
 14 13  1  0
 15 14  2  0
 16 17  1  0
 16 10  2  0
 17 12  2  0
 18 11  1  0
 19  9  1  0
 21 23  2  0
 22 21  1  0
 24 22  1  0
 25 34  2  0
 25 30  1  0
 26 22  1  0
 26 30  1  0
 27 26  1  0
 28 29  1  0
 28 27  1  0
 29 25  1  0
 30 31  2  0
 31 32  1  0
 33 32  2  0
 34 33  1  0
 35  9  1  0
 35 36  1  0
 35 45  1  0
 36 39  1  0
 37 41  1  0
 37 36  1  0
 38 37  2  0
 41 40  1  0
 43 41  1  0
 43 44  1  0
 43 42  1  0
 45 48  1  1
 45 46  1  0
 47 45  1  0
 49 53  1  0
 51 50  1  0
 52 50  2  0
 53 51  2  0
 54 52  1  0
 55 54  2  0
 55 53  1  0
 56 55  1  0
 59 57  1  6
 58 59  1  0
 59 60  1  0
 59 54  1  0
 60 66  1  0
 61 66  1  0
 62 63  1  0
 62 61  1  0
 64 63  1  0
 64 71  1  0
 64 65  1  0
 66 65  1  0
 67 60  2  0
 68 69  2  0
 69 88  1  0
 70 73  1  0
 70 69  1  0
 71 72  1  0
 71 68  1  0
 72 70  2  0
 73 74  1  0
 74 75  2  0
 76 79  1  0
 76 75  1  0
 77 76  2  0
 78 77  1  0
 78 73  2  0
 79 80  1  0
 80 81  1  0
 81 82  2  0
 83 82  1  0
 83 87  1  0
 84 83  2  0
 85 80  2  0
 85 84  1  0
 86 85  1  0
 88 89  1  0
 89 91  1  0
 89 92  1  0
 90 88  2  0
 93 68  1  0
 93 94  1  0
 95 93  1  0
M  ISO  4   7 101   8 101  59 100  60 100
M  END
>  <TORSDO>  (27) 
F 22

>  <SCORE>  (27) 
-8.276

>  <name>  (27) 
26

>  <ligand_id>  (27) 
26

>  <original_smiles>  (27) 
[H]c1c([H])c([H])c2c(c1[H])C([H])([H])C([H])([H])C([H])([H])C2([H])N([H])C(=O)C1([H])N(C(=O)C([H])(N([H])C(=O)C([H])(N([H])C([H])([H])[H])C([H])([H])[H])C(C([H])([H])[H])(C([H])([H])[H])C([H])([H])[H])C([H])([H])c2c([H])c(OC([H])([H])C([H])([H])N([H])C(=O)C([H])([H])C([H])([H])c3c([H])c([H])c([H])c(C(C(=O)N4C([H])([H])C([H])([H])C([H])([H])C([H])(n5nc(-c6c([H])c([H])c(Oc7c([H])c([H])c(F)c([H])c7F)c([H])c6[H])c(C(=O)N([H])[H])c5N([H])[H])C4([H])[H])(C([H])([H])[H])C([H])([H])[H])c3C([H])([H])[H])c([H])c([H])c2C1([H])[H]

>  <smiles>  (27) 
[H]c1c([H])c([H])c2c(c1[H])C([H])([H])C([H])([H])C([H])([H])C2([H])N([H])C(=O)C1([H])N(C(=O)C([H])(N([H])C(=O)C([H])(N([H])C([H])([H])[H])C([H])([H])[H])C(C([H])([H])[H])(C([H])([H])[H])C([H])([H])[H])C([H])([H])c2c([H])c(OC([H])([H])C([H])([H])N([H])C(=O)C([H])([H])C([H])([H])c3c([H])c([H])c([H])c(C(C(=O)N4C([H])([H])C([H])([H])C([H])([H])C([H])(n5nc(-c6c([H])c([H])c(Oc7c([H])c([H])c(F)c([H])c7F)c([H])c6[H])c(C(=O)N([H])[H])c5N([H])[H])C4([H])[H])(C([H])([H])[H])C([H])([H])[H])c3C([H])([H])[H])c([H])c([H])c2C1([H])[H]

$$$$
27:0:0
     RDKit          3D

 91100  0  0  1  0  0  0  0  0999 V2000
  -28.8980  -23.4870   19.9320 C   0  0  0  0  0  3  0  0  0  0  0  0
  -27.0110  -23.2650   21.8890 C   0  0  0  0  0  3  0  0  0  0  0  0
  -28.6400  -22.0560   20.4410 C   0  0  0  0  0  0  0  0  0  0  0  0
  -27.3460  -24.5720   21.4670 C   0  0  0  0  0  0  0  0  0  0  0  0
  -28.2360  -24.8130   20.3780 C   0  0  0  0  0  0  0  0  0  0  0  0
  -27.5980  -22.0820   21.4000 C   0  0  0  0  0  0  0  0  0  0  0  0
  -26.7470  -25.6910   22.3090 C   0  0  0  0  0  1  0  0  0  0  0  0
  -27.1490  -20.9260   21.9440 F   0  0  0  0  0  0  0  0  0  0  0  0
  -31.0820  -18.2670   20.0040 C   0  0  0  0  0  3  0  0  0  0  0  0
  -30.2850  -17.1240   19.9420 C   0  0  0  0  0  0  0  0  0  0  0  0
  -30.7460  -19.8690   20.0480 C   0  0  0  0  0  3  0  0  0  0  0  0
  -28.7890  -17.6150   19.9060 C   0  0  0  0  0  3  0  0  0  0  0  0
  -28.4370  -19.2080   19.5810 C   0  0  0  0  0  3  0  0  0  0  0  0
  -29.2490  -20.4230   20.2610 C   0  0  0  0  0  0  0  0  0  0  0  0
  -30.9300  -15.6370   19.7880 C   0  0  0  0  0  0  0  0  0  0  0  0
  -30.8010  -13.2010   18.9530 C   0  0  0  0  0  2  0  0  0  0  0  0
  -29.8210  -13.0150   17.7700 C   0  0  0  0  0  2  0  0  0  0  0  0
  -28.4030  -12.7350   18.2910 C   0  0  0  0  0  2  0  0  0  0  0  0
  -28.0110  -13.6890   19.4450 C   0  0  0  0  0  3  0  0  0  0  0  0
  -29.1220  -13.8760   20.4990 C   0  0  0  0  0  2  0  0  0  0  0  0
  -30.3170  -14.3560   19.7960 N   0  0  0  0  0  0  0  0  0  0  0  0
  -32.1290  -15.5450   19.4840 O   0  0  0  0  0  0  0  0  0  0  0  0
  -25.7110  -14.1980   20.4130 C   0  0  0  0  0  0  0  0  0  0  0  0
  -24.6820  -13.4010   20.8250 C   0  0  0  0  0  0  0  0  0  0  0  0
  -25.1450  -12.0550   20.6900 C   0  0  0  0  0  0  0  0  0  0  0  0
  -26.7310  -13.3410   20.0440 N   0  0  0  0  0  0  0  0  0  0  0  0
  -26.4100  -12.0400   20.2820 N   0  0  0  0  0  0  0  0  0  0  0  0
  -24.4310  -10.7820   20.8700 C   0  0  0  0  0  0  0  0  0  0  0  0
  -24.8460   -9.8300   21.8260 C   0  0  0  0  0  3  0  0  0  0  0  0
  -24.1290   -8.6260   21.9960 C   0  0  0  0  0  3  0  0  0  0  0  0
  -22.9840   -8.3640   21.2070 C   0  0  0  0  0  0  0  0  0  0  0  0
  -22.5890   -9.3050   20.2390 C   0  0  0  0  0  3  0  0  0  0  0  0
  -23.3070  -10.5000   20.0690 C   0  0  0  0  0  3  0  0  0  0  0  0
  -22.2420   -7.2100   21.2830 O   0  0  0  0  0  0  0  0  0  0  0  0
  -22.0350   -6.5630   22.4750 C   0  0  0  0  0  0  0  0  0  0  0  0
  -21.3980   -7.1970   23.5650 C   0  0  0  0  0  3  0  0  0  0  0  0
  -21.1440   -6.4760   24.7480 C   0  0  0  0  0  3  0  0  0  0  0  0
  -21.5170   -5.1200   24.8430 C   0  0  0  0  0  0  0  0  0  0  0  0
  -22.1460   -4.4880   23.7570 C   0  0  0  0  0  3  0  0  0  0  0  0
  -22.4030   -5.2070   22.5760 C   0  0  0  0  0  0  0  0  0  0  0  0
  -22.9900   -4.5850   21.5250 F   0  0  0  0  0  0  0  0  0  0  0  0
  -21.2650   -4.4250   25.9760 F   0  0  0  0  0  0  0  0  0  0  0  0
  -23.3090  -13.8590   21.2210 C   0  0  0  0  0  0  0  0  0  0  0  0
  -22.6520  -13.1260   22.1130 N   0  0  0  0  0  0  0  0  0  0  0  0
  -22.8320  -14.9010   20.7750 O   0  0  0  0  0  0  0  0  0  0  0  0
  -23.0570  -12.2870   22.4980 H   0  0  0  0  0  0  0  0  0  0  0  0
  -21.7350  -13.4160   22.4220 H   0  0  0  0  0  0  0  0  0  0  0  0
  -25.8560  -15.5760   20.2900 N   0  0  0  0  0  0  0  0  0  0  0  0
  -25.0950  -16.2170   20.4880 H   0  0  0  0  0  0  0  0  0  0  0  0
  -26.6770  -16.0380   19.9220 H   0  0  0  0  0  0  0  0  0  0  0  0
  -28.4370  -26.2700   19.9690 O   0  0  0  0  0  0  0  0  0  0  0  0
  -24.7630  -31.9450   23.2400 C   0  0  0  0  0  0  0  0  0  0  0  0
  -27.4410  -27.3680   19.9540 C   0  0  0  0  0  0  0  0  0  0  0  0
  -23.6190  -30.6450   21.4900 C   0  0  0  0  0  3  0  0  0  0  0  0
  -25.1200  -29.1820   19.9790 C   0  0  0  0  0  0  0  0  0  0  0  0
  -26.1800  -30.9220   21.4030 C   0  0  0  0  0  2  0  0  0  0  0  0
  -26.2850  -29.5660   20.6560 C   0  0  0  0  0  0  0  0  0  0  0  0
  -27.4420  -28.6770   20.6290 C   0  0  0  0  0  3  0  0  0  0  0  0
  -26.2620  -27.1400   19.2120 C   0  0  0  0  0  3  0  0  0  0  0  0
  -25.1310  -27.9910   19.2370 C   0  0  0  0  0  3  0  0  0  0  0  0
  -23.8800  -30.0680   20.0710 C   0  0  0  0  0  2  0  0  0  0  0  0
  -24.8740  -31.1920   22.1000 N   0  0  0  0  0  0  0  0  0  0  0  0
  -23.6620  -32.1790   23.7640 O   0  0  0  0  0  0  0  0  0  0  0  0
  -22.9320  -29.5700   22.3710 C   0  0  0  0  0  0  0  0  0  0  0  0
  -21.6030  -29.4080   22.2240 N   0  0  0  0  0  0  0  0  0  0  0  0
  -23.5960  -28.8880   23.1540 O   0  0  0  0  0  0  0  0  0  0  0  0
  -21.1190  -30.0220   21.5850 H   0  0  0  0  0  0  0  0  0  0  0  0
  -18.2150  -28.1960   22.6980 C   0  0  0  0  0  0  0  0  0  0  0  0
  -20.7840  -28.4030   22.9090 C   0  0  0  0  0  3  0  0  0  0  0  0
  -20.8510  -27.0390   22.1780 C   0  0  0  0  0  2  0  0  0  0  0  0
  -19.7090  -26.8330   21.1770 C   0  0  0  0  0  2  0  0  0  0  0  0
  -18.3530  -26.9220   21.8790 C   0  0  0  0  0  2  0  0  0  0  0  0
  -19.3570  -28.9010   23.1650 C   0  0  0  0  0  0  0  0  0  0  0  0
  -19.1720  -30.0970   23.8910 C   0  0  0  0  0  3  0  0  0  0  0  0
  -17.8800  -30.5920   24.1500 C   0  0  0  0  0  3  0  0  0  0  0  0
  -16.7520  -29.8830   23.7000 C   0  0  0  0  0  3  0  0  0  0  0  0
  -16.9220  -28.6860   22.9810 C   0  0  0  0  0  3  0  0  0  0  0  0
  -26.0140  -32.5610   23.9350 C   0  0  0  0  0  3  0  0  0  0  0  0
  -25.6860  -33.9450   24.3200 N   0  0  0  0  0  0  0  0  0  0  0  0
  -26.0060  -35.0350   23.6090 C   0  0  0  0  0  0  0  0  0  0  0  0
  -26.6730  -34.9830   22.5730 O   0  0  0  0  0  0  0  0  0  0  0  0
  -25.0970  -34.0600   25.1300 H   0  0  0  0  0  0  0  0  0  0  0  0
  -24.2420  -36.8170   23.3640 C   0  0  0  0  0  1  0  0  0  0  0  0
  -25.5100  -36.4010   24.1280 C   0  0  0  0  0  3  0  0  0  0  0  0
  -27.6430  -37.3020   24.9450 C   0  0  0  0  0  1  0  0  0  0  0  0
  -26.5220  -37.4760   24.0260 N   0  0  0  0  0  0  0  0  0  0  0  0
  -26.1020  -38.3840   24.2060 H   0  0  0  0  0  0  0  0  0  0  0  0
  -26.4850  -31.7440   25.2030 C   0  0  1  0  0  0  0  0  0  0  0  0
  -25.3540  -31.4650   26.2210 C   0  0  0  0  0  1  0  0  0  0  0  0
  -27.0850  -30.3810   24.7900 C   0  0  0  0  0  1  0  0  0  0  0  0
  -27.6070  -32.5140   25.9380 C   0  0  0  0  0  1  0  0  0  0  0  0
  1  5  2  0
  1  3  1  0
  3  6  2  0
  4  2  2  0
  4  7  1  0
  5  4  1  0
  6  2  1  0
  6  8  1  0
  9 11  1  0
 10  9  2  0
 11 14  2  0
 12 10  1  0
 13 12  2  0
 13 14  1  0
 14  3  1  0
 15 21  1  0
 15 10  1  0
 16 21  1  0
 17 18  1  0
 17 16  1  0
 19 18  1  0
 19 26  1  0
 19 20  1  0
 21 20  1  0
 22 15  2  0
 23 24  2  0
 24 43  1  0
 25 24  1  0
 25 28  1  0
 26 27  1  0
 26 23  1  0
 27 25  2  0
 28 29  1  0
 29 30  2  0
 31 34  1  0
 31 30  1  0
 32 31  2  0
 33 32  1  0
 33 28  2  0
 34 35  1  0
 35 40  2  0
 35 36  1  0
 36 37  2  0
 37 38  1  0
 38 42  1  0
 39 38  2  0
 40 39  1  0
 41 40  1  0
 43 44  1  0
 44 47  1  0
 44 46  1  0
 45 43  2  0
 48 23  1  0
 48 49  1  0
 50 48  1  0
 51  5  1  0
 52 63  2  0
 53 51  1  0
 53 58  1  0
 54 62  1  0
 54 64  1  0
 55 61  1  0
 55 57  1  0
 56 62  1  0
 57 56  1  0
 58 57  2  0
 59 60  1  0
 59 53  2  0
 60 55  2  0
 61 54  1  0
 62 52  1  0
 64 66  2  0
 65 64  1  0
 67 65  1  0
 68 77  2  0
 68 73  1  0
 69 65  1  0
 69 73  1  0
 70 69  1  0
 71 72  1  0
 71 70  1  0
 72 68  1  0
 73 74  2  0
 74 75  1  0
 76 75  2  0
 77 76  1  0
 78 52  1  0
 78 79  1  0
 78 88  1  0
 79 82  1  0
 80 84  1  0
 80 79  1  0
 81 80  2  0
 84 83  1  0
 86 84  1  0
 86 87  1  0
 86 85  1  0
 88 91  1  1
 88 89  1  0
 90 88  1  0
M  ISO  4   5 101  10 100  15 100  51 101
M  END
>  <TORSDO>  (28) 
F 17

>  <SCORE>  (28) 
-13.359

>  <name>  (28) 
27

>  <ligand_id>  (28) 
27

>  <original_smiles>  (28) 
[H]C1=C(C(=O)N2C([H])([H])C([H])([H])C([H])([H])C([H])(n3nc(-c4c([H])c([H])c(Oc5c([H])c([H])c(F)c([H])c5F)c([H])c4[H])c(C(=O)N([H])[H])c3N([H])[H])C2([H])[H])C([H])([H])C([H])([H])C([H])(c2c([H])c(Oc3c([H])c([H])c4c(c3[H])C([H])([H])N(C(=O)C([H])(N([H])C(=O)C([H])(N([H])C([H])([H])[H])C([H])([H])[H])C(C([H])([H])[H])(C([H])([H])[H])C([H])([H])[H])C([H])(C(=O)N([H])C3([H])c5c([H])c([H])c([H])c([H])c5C([H])([H])C([H])([H])C3([H])[H])C4([H])[H])c(C([H])([H])[H])c([H])c2F)C1([H])[H]

>  <smiles>  (28) 
[H]C1=C(C(=O)N2C([H])([H])C([H])([H])C([H])([H])C([H])(n3nc(-c4c([H])c([H])c(Oc5c([H])c([H])c(F)c([H])c5F)c([H])c4[H])c(C(=O)N([H])[H])c3N([H])[H])C2([H])[H])C([H])([H])C([H])([H])C([H])(c2c([H])c(Oc3c([H])c([H])c4c(c3[H])C([H])([H])N(C(=O)C([H])(N([H])C(=O)C([H])(N([H])C([H])([H])[H])C([H])([H])[H])C(C([H])([H])[H])(C([H])([H])[H])C([H])([H])[H])C([H])(C(=O)N([H])C3([H])c5c([H])c([H])c([H])c([H])c5C([H])([H])C([H])([H])C3([H])[H])C4([H])[H])c(C([H])([H])[H])c([H])c2F)C1([H])[H]

$$$$
28:0:0
     RDKit          3D

 99108  0  0  1  0  0  0  0  0999 V2000
  -32.9950  -20.4390   21.3760 C   0  0  0  0  0  2  0  0  0  0  0  0
  -32.9070  -21.8810   20.8700 C   0  0  0  0  0  2  0  0  0  0  0  0
  -31.8970  -19.5260   20.8350 C   0  0  0  0  0  2  0  0  0  0  0  0
  -31.4870  -22.4080   20.5970 C   0  0  0  0  0  2  0  0  0  0  0  0
  -29.7950  -20.8290   21.7540 C   0  0  0  0  0  2  0  0  0  0  0  0
  -30.6150  -19.4800   21.7040 C   0  0  0  0  0  3  0  0  0  0  0  0
  -30.4290  -22.2770   21.7360 C   0  0  1  0  0  0  0  0  0  0  0  0
  -31.0220  -22.6710   23.1120 C   0  0  0  0  0  1  0  0  0  0  0  0
  -30.2990  -16.9340   21.5000 C   0  0  0  0  0  3  0  0  0  0  0  0
  -28.8420  -18.3670   20.1870 C   0  0  0  0  0  3  0  0  0  0  0  0
  -30.0360  -15.8330   20.6410 C   0  0  0  0  0  0  0  0  0  0  0  0
  -29.8350  -18.2420   21.1880 C   0  0  0  0  0  0  0  0  0  0  0  0
  -28.5910  -17.3090   19.3020 C   0  0  0  0  0  0  0  0  0  0  0  0
  -29.3350  -16.1170   19.4280 C   0  0  0  0  0  0  0  0  0  0  0  0
  -29.5070  -15.2730   18.1740 C   0  0  0  0  0  1  0  0  0  0  0  0
  -30.7630  -14.5100   20.8510 C   0  0  0  0  0  0  0  0  0  0  0  0
  -30.5270  -12.2080   20.0240 C   0  0  0  0  0  2  0  0  0  0  0  0
  -29.6880  -12.1290   18.7310 C   0  0  0  0  0  2  0  0  0  0  0  0
  -28.1680  -12.2010   19.0010 C   0  0  0  0  0  2  0  0  0  0  0  0
  -27.7290  -13.1700   20.1380 C   0  0  0  0  0  3  0  0  0  0  0  0
  -28.7020  -13.1380   21.3340 C   0  0  0  0  0  2  0  0  0  0  0  0
  -30.0640  -13.3440   20.8300 N   0  0  0  0  0  0  0  0  0  0  0  0
  -31.9860  -14.5510   20.7360 O   0  0  0  0  0  0  0  0  0  0  0  0
  -25.2910  -13.8260   20.6370 C   0  0  0  0  0  0  0  0  0  0  0  0
  -24.1880  -13.0760   20.9400 C   0  0  0  0  0  0  0  0  0  0  0  0
  -24.6390  -11.7200   21.0030 C   0  0  0  0  0  0  0  0  0  0  0  0
  -26.3450  -12.9300   20.5350 N   0  0  0  0  0  0  0  0  0  0  0  0
  -25.9520  -11.6630   20.8220 N   0  0  0  0  0  0  0  0  0  0  0  0
  -23.8940  -10.4700   21.1660 C   0  0  0  0  0  0  0  0  0  0  0  0
  -24.2740   -9.5100   22.1300 C   0  0  0  0  0  3  0  0  0  0  0  0
  -23.5300   -8.3210   22.2870 C   0  0  0  0  0  3  0  0  0  0  0  0
  -22.3980   -8.0800   21.4730 C   0  0  0  0  0  0  0  0  0  0  0  0
  -22.0390   -9.0300   20.5020 C   0  0  0  0  0  3  0  0  0  0  0  0
  -22.7840  -10.2110   20.3420 C   0  0  0  0  0  3  0  0  0  0  0  0
  -21.6350   -6.9380   21.5300 O   0  0  0  0  0  0  0  0  0  0  0  0
  -21.5490   -6.1840   22.6740 C   0  0  0  0  0  0  0  0  0  0  0  0
  -21.1020   -6.7350   23.8960 C   0  0  0  0  0  3  0  0  0  0  0  0
  -20.9680   -5.9140   25.0340 C   0  0  0  0  0  3  0  0  0  0  0  0
  -21.2630   -4.5410   24.9510 C   0  0  0  0  0  0  0  0  0  0  0  0
  -21.6920   -3.9860   23.7330 C   0  0  0  0  0  3  0  0  0  0  0  0
  -21.8360   -4.8060   22.5980 C   0  0  0  0  0  0  0  0  0  0  0  0
  -22.2360   -4.2630   21.4240 F   0  0  0  0  0  0  0  0  0  0  0  0
  -21.1290   -3.7480   26.0430 F   0  0  0  0  0  0  0  0  0  0  0  0
  -22.7750  -13.5640   21.0780 C   0  0  0  0  0  0  0  0  0  0  0  0
  -21.9740  -12.8990   21.9020 N   0  0  0  0  0  0  0  0  0  0  0  0
  -22.3870  -14.5720   20.4880 O   0  0  0  0  0  0  0  0  0  0  0  0
  -22.3030  -12.0830   22.4000 H   0  0  0  0  0  0  0  0  0  0  0  0
  -21.0190  -13.1980   22.0310 H   0  0  0  0  0  0  0  0  0  0  0  0
  -25.4800  -15.1870   20.4120 N   0  0  0  0  0  0  0  0  0  0  0  0
  -24.7130  -15.8500   20.4260 H   0  0  0  0  0  0  0  0  0  0  0  0
  -26.3670  -15.6170   20.1780 H   0  0  0  0  0  0  0  0  0  0  0  0
  -28.1270  -18.4840   17.0760 C   0  0  0  0  0  1  0  0  0  0  0  0
  -27.6070  -17.5250   18.1580 C   0  0  0  0  0  2  0  0  0  0  0  0
  -29.2830  -23.1830   21.3990 N   0  0  0  0  0  4  0  0  0  0  0  0
  -28.5120  -22.9640   22.0140 H   0  0  0  0  0  0  0  0  0  0  0  0
  -28.9830  -22.9100   20.4750 H   0  0  0  0  0  0  0  0  0  0  0  0
  -29.4390  -24.6710   21.3850 C   0  0  0  0  0  2  0  0  0  0  0  0
  -28.3350  -25.3050   20.4980 C   0  0  0  0  0  2  0  0  0  0  0  0
  -28.4300  -26.7310   20.3730 O   0  0  0  0  0  0  0  0  0  0  0  0
  -24.5890  -31.9290   23.2190 C   0  0  0  0  0  0  0  0  0  0  0  0
  -27.2470  -27.4390   20.2670 C   0  0  0  0  0  0  0  0  0  0  0  0
  -23.3770  -30.4990   21.5980 C   0  0  0  0  0  3  0  0  0  0  0  0
  -24.8370  -28.9270   20.2120 C   0  0  0  0  0  0  0  0  0  0  0  0
  -25.8990  -30.8620   21.3910 C   0  0  0  0  0  2  0  0  0  0  0  0
  -25.9890  -29.4780   20.7850 C   0  0  0  0  0  0  0  0  0  0  0  0
  -27.1950  -28.7430   20.8040 C   0  0  0  0  0  3  0  0  0  0  0  0
  -26.0840  -26.9090   19.6570 C   0  0  0  0  0  3  0  0  0  0  0  0
  -24.8790  -27.6420   19.6410 C   0  0  0  0  0  3  0  0  0  0  0  0
  -23.5870  -29.7780   20.2370 C   0  0  0  0  0  2  0  0  0  0  0  0
  -24.6400  -31.1090   22.1300 N   0  0  0  0  0  0  0  0  0  0  0  0
  -23.5090  -32.2200   23.7530 O   0  0  0  0  0  0  0  0  0  0  0  0
  -22.7140  -29.5080   22.5820 C   0  0  0  0  0  0  0  0  0  0  0  0
  -21.3870  -29.3440   22.4600 N   0  0  0  0  0  0  0  0  0  0  0  0
  -23.3930  -28.8870   23.4040 O   0  0  0  0  0  0  0  0  0  0  0  0
  -20.9010  -29.8980   21.7700 H   0  0  0  0  0  0  0  0  0  0  0  0
  -18.0010  -28.1900   22.9790 C   0  0  0  0  0  0  0  0  0  0  0  0
  -20.5610  -28.4260   23.2450 C   0  0  0  0  0  3  0  0  0  0  0  0
  -20.6510  -26.9860   22.6910 C   0  0  0  0  0  2  0  0  0  0  0  0
  -19.5440  -26.6570   21.6820 C   0  0  0  0  0  2  0  0  0  0  0  0
  -18.1640  -26.8280   22.3250 C   0  0  0  0  0  2  0  0  0  0  0  0
  -19.1290  -28.9480   23.3930 C   0  0  0  0  0  0  0  0  0  0  0  0
  -18.9270  -30.2240   23.9630 C   0  0  0  0  0  3  0  0  0  0  0  0
  -17.6310  -30.7450   24.1200 C   0  0  0  0  0  3  0  0  0  0  0  0
  -16.5170  -29.9880   23.7210 C   0  0  0  0  0  3  0  0  0  0  0  0
  -16.7020  -28.7130   23.1560 C   0  0  0  0  0  3  0  0  0  0  0  0
  -25.8790  -32.5640   23.8270 C   0  0  0  0  0  3  0  0  0  0  0  0
  -25.5720  -33.9620   24.1610 N   0  0  0  0  0  0  0  0  0  0  0  0
  -25.9080  -35.0150   23.4060 C   0  0  0  0  0  0  0  0  0  0  0  0
  -26.5780  -34.9120   22.3760 O   0  0  0  0  0  0  0  0  0  0  0  0
  -24.9740  -34.1130   24.9610 H   0  0  0  0  0  0  0  0  0  0  0  0
  -24.1860  -36.8140   23.0370 C   0  0  0  0  0  1  0  0  0  0  0  0
  -25.4160  -36.4030   23.8630 C   0  0  0  0  0  3  0  0  0  0  0  0
  -27.5420  -37.2790   24.7220 C   0  0  0  0  0  1  0  0  0  0  0  0
  -26.4510  -37.4550   23.7670 N   0  0  0  0  0  0  0  0  0  0  0  0
  -26.0450  -38.3750   23.9150 H   0  0  0  0  0  0  0  0  0  0  0  0
  -26.4120  -31.7910   25.0960 C   0  0  1  0  0  0  0  0  0  0  0  0
  -25.3300  -31.5420   26.1720 C   0  0  0  0  0  1  0  0  0  0  0  0
  -27.0020  -30.4190   24.6910 C   0  0  0  0  0  1  0  0  0  0  0  0
  -27.5650  -32.5870   25.7510 C   0  0  0  0  0  1  0  0  0  0  0  0
  2  1  1  0
  3  1  1  0
  3  6  1  0
  4  2  1  0
  4  7  1  0
  6 12  1  0
  6  5  1  0
  7  5  1  0
  7  8  1  1
 10 12  2  0
 11 16  1  0
 11  9  2  0
 12  9  1  0
 13 14  2  0
 13 10  1  0
 14 11  1  0
 15 14  1  0
 17 22  1  0
 18 19  1  0
 18 17  1  0
 20 19  1  0
 20 27  1  0
 20 21  1  0
 22 16  1  0
 22 21  1  0
 23 16  2  0
 24 25  2  0
 25 26  1  0
 25 44  1  0
 26 29  1  0
 27 24  1  0
 27 28  1  0
 28 26  2  0
 29 30  1  0
 30 31  2  0
 32 35  1  0
 32 31  1  0
 33 32  2  0
 34 33  1  0
 34 29  2  0
 35 36  1  0
 36 37  1  0
 37 38  2  0
 39 38  1  0
 39 43  1  0
 40 39  2  0
 41 36  2  0
 41 40  1  0
 42 41  1  0
 44 45  1  0
 45 48  1  0
 45 47  1  0
 46 44  2  0
 49 50  1  0
 49 24  1  0
 51 49  1  0
 52 53  1  0
 53 13  1  0
 54  7  1  0
 54 55  1  0
 56 54  1  0
 57 54  1  0
 58 57  1  0
 59 58  1  0
 60 71  2  0
 61 59  1  0
 61 66  1  0
 62 70  1  0
 62 72  1  0
 63 69  1  0
 63 65  1  0
 64 70  1  0
 65 66  2  0
 65 64  1  0
 67 61  2  0
 68 67  1  0
 68 63  2  0
 69 62  1  0
 70 60  1  0
 72 74  2  0
 73 72  1  0
 75 73  1  0
 76 85  2  0
 76 81  1  0
 77 73  1  0
 77 81  1  0
 78 77  1  0
 79 80  1  0
 79 78  1  0
 80 76  1  0
 81 82  2  0
 82 83  1  0
 84 83  2  0
 85 84  1  0
 86 60  1  0
 86 87  1  0
 86 96  1  0
 87 90  1  0
 88 92  1  0
 88 87  1  0
 89 88  2  0
 92 91  1  0
 94 92  1  0
 94 95  1  0
 94 93  1  0
 96 99  1  1
 96 97  1  0
 98 96  1  0
M  ISO  4  11 100  16 100  58 101  59 101
M  END
>  <TORSDO>  (29) 
F 21

>  <SCORE>  (29) 
-12.070

>  <name>  (29) 
28

>  <ligand_id>  (29) 
28

>  <original_smiles>  (29) 
[H]c1c([H])c([H])c2c(c1[H])C([H])([H])C([H])([H])C([H])([H])C2([H])N([H])C(=O)C1([H])N(C(=O)C([H])(N([H])C(=O)C([H])(N([H])C([H])([H])[H])C([H])([H])[H])C(C([H])([H])[H])(C([H])([H])[H])C([H])([H])[H])C([H])([H])c2c([H])c(OC([H])([H])C([H])([H])[N+]([H])([H])C3(C([H])([H])[H])C([H])([H])C([H])([H])C([H])([H])C([H])([H])C([H])(c4c([H])c(C(=O)N5C([H])([H])C([H])([H])C([H])([H])C([H])(n6nc(-c7c([H])c([H])c(Oc8c([H])c([H])c(F)c([H])c8F)c([H])c7[H])c(C(=O)N([H])[H])c6N([H])[H])C5([H])[H])c(C([H])([H])[H])c(C([H])([H])C([H])([H])[H])c4[H])C3([H])[H])c([H])c([H])c2C1([H])[H]

>  <smiles>  (29) 
[H]c1c([H])c([H])c2c(c1[H])C([H])([H])C([H])([H])C([H])([H])C2([H])N([H])C(=O)C1([H])N(C(=O)C([H])(N([H])C(=O)C([H])(N([H])C([H])([H])[H])C([H])([H])[H])C(C([H])([H])[H])(C([H])([H])[H])C([H])([H])[H])C([H])([H])c2c([H])c(OC([H])([H])C([H])([H])[N+]([H])([H])C3(C([H])([H])[H])C([H])([H])C([H])([H])C([H])([H])C([H])([H])C([H])(c4c([H])c(C(=O)N5C([H])([H])C([H])([H])C([H])([H])C([H])(n6nc(-c7c([H])c([H])c(Oc8c([H])c([H])c(F)c([H])c8F)c([H])c7[H])c(C(=O)N([H])[H])c6N([H])[H])C5([H])[H])c(C([H])([H])[H])c(C([H])([H])C([H])([H])[H])c4[H])C3([H])[H])c([H])c([H])c2C1([H])[H]

$$$$
29:0:0
     RDKit          3D

 92101  0  0  1  0  0  0  0  0999 V2000
  -27.3190  -23.8560   21.8340 C   0  0  0  0  0  0  0  0  0  0  0  0
  -28.4490  -22.8410   21.7810 C   0  0  0  0  0  2  0  0  0  0  0  0
  -26.7730  -24.2030   20.4570 C   0  0  0  0  0  2  0  0  0  0  0  0
  -28.6830  -22.5630   20.2880 C   0  0  0  0  0  3  0  0  0  0  0  0
  -28.0310  -24.2170   19.5660 C   0  0  0  0  0  3  0  0  0  0  0  0
  -26.9030  -24.3580   22.8830 O   0  0  0  0  0  0  0  0  0  0  0  0
  -30.6200  -18.6290   20.9300 C   0  0  0  0  0  3  0  0  0  0  0  0
  -30.0760  -17.4810   20.1920 C   0  0  0  0  0  0  0  0  0  0  0  0
  -29.2420  -20.8130   20.0740 C   0  0  0  0  0  0  0  0  0  0  0  0
  -30.2550  -20.0930   20.9030 C   0  0  0  0  0  0  0  0  0  0  0  0
  -29.1080  -18.1840   19.3110 C   0  0  0  0  0  0  0  0  0  0  0  0
  -28.7530  -19.6780   19.2410 C   0  0  0  0  0  0  0  0  0  0  0  0
  -31.0930  -20.9050   21.8830 C   0  0  0  0  0  1  0  0  0  0  0  0
  -28.4050  -17.2550   18.3300 C   0  0  0  0  0  1  0  0  0  0  0  0
  -27.8250  -20.1070   18.1080 C   0  0  0  0  0  1  0  0  0  0  0  0
  -30.7110  -15.8610   20.1210 C   0  0  0  0  0  0  0  0  0  0  0  0
  -30.7480  -13.3440   19.3390 C   0  0  0  0  0  2  0  0  0  0  0  0
  -29.8430  -12.9610   18.1380 C   0  0  0  0  0  2  0  0  0  0  0  0
  -28.4250  -12.6100   18.6140 C   0  0  0  0  0  2  0  0  0  0  0  0
  -27.9190  -13.6210   19.6720 C   0  0  0  0  0  3  0  0  0  0  0  0
  -28.9640  -13.9590   20.7640 C   0  0  0  0  0  2  0  0  0  0  0  0
  -30.1500  -14.5260   20.0920 N   0  0  0  0  0  0  0  0  0  0  0  0
  -31.9320  -15.7770   19.9130 O   0  0  0  0  0  0  0  0  0  0  0  0
  -25.5800  -14.1020   20.5360 C   0  0  0  0  0  0  0  0  0  0  0  0
  -24.5360  -13.2970   20.9050 C   0  0  0  0  0  0  0  0  0  0  0  0
  -25.0170  -11.9570   20.8070 C   0  0  0  0  0  0  0  0  0  0  0  0
  -26.6210  -13.2500   20.2230 N   0  0  0  0  0  0  0  0  0  0  0  0
  -26.2990  -11.9480   20.4540 N   0  0  0  0  0  0  0  0  0  0  0  0
  -24.3040  -10.6800   20.9700 C   0  0  0  0  0  0  0  0  0  0  0  0
  -24.6920   -9.7310   21.9420 C   0  0  0  0  0  3  0  0  0  0  0  0
  -23.9750   -8.5230   22.0920 C   0  0  0  0  0  3  0  0  0  0  0  0
  -22.8530   -8.2590   21.2700 C   0  0  0  0  0  0  0  0  0  0  0  0
  -22.4840   -9.1970   20.2900 C   0  0  0  0  0  3  0  0  0  0  0  0
  -23.2010  -10.3950   20.1400 C   0  0  0  0  0  3  0  0  0  0  0  0
  -22.1090   -7.1060   21.3310 O   0  0  0  0  0  0  0  0  0  0  0  0
  -21.8870   -6.4540   22.5160 C   0  0  0  0  0  0  0  0  0  0  0  0
  -21.1880   -7.0600   23.5840 C   0  0  0  0  0  3  0  0  0  0  0  0
  -20.9230   -6.3260   24.7560 C   0  0  0  0  0  3  0  0  0  0  0  0
  -21.3480   -4.9880   24.8610 C   0  0  0  0  0  0  0  0  0  0  0  0
  -22.0390   -4.3820   23.7970 C   0  0  0  0  0  3  0  0  0  0  0  0
  -22.3050   -5.1120   22.6260 C   0  0  0  0  0  0  0  0  0  0  0  0
  -22.9520   -4.5170   21.5950 F   0  0  0  0  0  0  0  0  0  0  0  0
  -21.0870   -4.2790   25.9850 F   0  0  0  0  0  0  0  0  0  0  0  0
  -23.1450  -13.7540   21.2300 C   0  0  0  0  0  0  0  0  0  0  0  0
  -22.4520  -13.0340   22.1060 N   0  0  0  0  0  0  0  0  0  0  0  0
  -22.6820  -14.7850   20.7480 O   0  0  0  0  0  0  0  0  0  0  0  0
  -22.8340  -12.1920   22.5080 H   0  0  0  0  0  0  0  0  0  0  0  0
  -21.5250  -13.3290   22.3750 H   0  0  0  0  0  0  0  0  0  0  0  0
  -25.7220  -15.4780   20.4030 N   0  0  0  0  0  0  0  0  0  0  0  0
  -24.9530  -16.1200   20.5650 H   0  0  0  0  0  0  0  0  0  0  0  0
  -26.5670  -15.9380   20.0870 H   0  0  0  0  0  0  0  0  0  0  0  0
  -28.2360  -25.9380   19.6180 O   0  0  0  0  0  0  0  0  0  0  0  0
  -24.7410  -31.8130   23.0890 C   0  0  0  0  0  0  0  0  0  0  0  0
  -27.2410  -27.1100   19.6290 C   0  0  0  0  0  0  0  0  0  0  0  0
  -23.5030  -30.5240   21.4010 C   0  0  0  0  0  3  0  0  0  0  0  0
  -24.9150  -29.0310   19.8000 C   0  0  0  0  0  0  0  0  0  0  0  0
  -26.0630  -30.7530   21.1700 C   0  0  0  0  0  2  0  0  0  0  0  0
  -26.1240  -29.3830   20.4100 C   0  0  0  0  0  0  0  0  0  0  0  0
  -27.2700  -28.4520   20.3020 C   0  0  0  0  0  3  0  0  0  0  0  0
  -26.0050  -26.9670   18.9430 C   0  0  0  0  0  3  0  0  0  0  0  0
  -24.8880  -27.8460   19.0400 C   0  0  0  0  0  3  0  0  0  0  0  0
  -23.6840  -29.9360   19.9710 C   0  0  0  0  0  2  0  0  0  0  0  0
  -24.7950  -31.0560   21.9410 N   0  0  0  0  0  0  0  0  0  0  0  0
  -23.6690  -32.0550   23.6670 O   0  0  0  0  0  0  0  0  0  0  0  0
  -22.8470  -29.4630   22.3260 C   0  0  0  0  0  0  0  0  0  0  0  0
  -21.5280  -29.2370   22.1820 N   0  0  0  0  0  0  0  0  0  0  0  0
  -23.5370  -28.8440   23.1410 O   0  0  0  0  0  0  0  0  0  0  0  0
  -21.0210  -29.7960   21.5100 H   0  0  0  0  0  0  0  0  0  0  0  0
  -18.2280  -27.7610   22.5920 C   0  0  0  0  0  0  0  0  0  0  0  0
  -20.7580  -28.2190   22.9060 C   0  0  0  0  0  3  0  0  0  0  0  0
  -20.9740  -26.8160   22.2950 C   0  0  0  0  0  2  0  0  0  0  0  0
  -19.9130  -26.4390   21.2520 C   0  0  0  0  0  2  0  0  0  0  0  0
  -18.5140  -26.4530   21.8730 C   0  0  0  0  0  2  0  0  0  0  0  0
  -19.2800  -28.5940   23.0610 C   0  0  0  0  0  0  0  0  0  0  0  0
  -18.9590  -29.8100   23.6990 C   0  0  0  0  0  3  0  0  0  0  0  0
  -17.6180  -30.2010   23.8720 C   0  0  0  0  0  3  0  0  0  0  0  0
  -16.5810  -29.3740   23.4050 C   0  0  0  0  0  3  0  0  0  0  0  0
  -16.8860  -28.1550   22.7730 C   0  0  0  0  0  3  0  0  0  0  0  0
  -26.0220  -32.4260   23.7240 C   0  0  0  0  0  3  0  0  0  0  0  0
  -25.7020  -33.7970   24.1680 N   0  0  0  0  0  0  0  0  0  0  0  0
  -26.0190  -34.9190   23.5060 C   0  0  0  0  0  0  0  0  0  0  0  0
  -26.6760  -34.9070   22.4610 O   0  0  0  0  0  0  0  0  0  0  0  0
  -25.1240  -33.8800   24.9900 H   0  0  0  0  0  0  0  0  0  0  0  0
  -24.2970  -36.7490   23.3180 C   0  0  0  0  0  1  0  0  0  0  0  0
  -25.5380  -36.2680   24.0860 C   0  0  0  0  0  3  0  0  0  0  0  0
  -27.6630  -37.0840   24.9940 C   0  0  0  0  0  1  0  0  0  0  0  0
  -26.5700  -37.3270   24.0580 N   0  0  0  0  0  0  0  0  0  0  0  0
  -26.1630  -38.2340   24.2660 H   0  0  0  0  0  0  0  0  0  0  0  0
  -26.5680  -31.5780   24.9400 C   0  0  1  0  0  0  0  0  0  0  0  0
  -25.5050  -31.2680   26.0190 C   0  0  0  0  0  1  0  0  0  0  0  0
  -27.1660  -30.2310   24.4640 C   0  0  0  0  0  1  0  0  0  0  0  0
  -27.7180  -32.3520   25.6200 C   0  0  0  0  0  1  0  0  0  0  0  0
  1  6  2  0
  2  1  1  0
  3  1  1  0
  4  9  1  0
  4  2  1  0
  5 52  1  0
  5  4  1  0
  5  3  1  0
  8  7  2  0
  9 10  2  0
 10  7  1  0
 10 13  1  0
 11  8  1  0
 12 11  2  0
 12  9  1  0
 14 11  1  0
 15 12  1  0
 16  8  1  0
 17 22  1  0
 18 19  1  0
 18 17  1  0
 20 19  1  0
 20 27  1  0
 20 21  1  0
 22 16  1  0
 22 21  1  0
 23 16  2  0
 24 25  2  0
 25 44  1  0
 26 25  1  0
 26 29  1  0
 27 28  1  0
 27 24  1  0
 28 26  2  0
 29 30  1  0
 30 31  2  0
 32 35  1  0
 32 31  1  0
 33 32  2  0
 34 33  1  0
 34 29  2  0
 35 36  1  0
 36 41  2  0
 36 37  1  0
 37 38  2  0
 38 39  1  0
 39 43  1  0
 40 39  2  0
 41 40  1  0
 42 41  1  0
 44 45  1  0
 45 48  1  0
 45 47  1  0
 46 44  2  0
 49 24  1  0
 49 50  1  0
 51 49  1  0
 52 54  1  0
 53 64  2  0
 54 59  1  0
 55 63  1  0
 55 65  1  0
 56 62  1  0
 56 58  1  0
 57 63  1  0
 58 57  1  0
 59 58  2  0
 60 61  1  0
 60 54  2  0
 61 56  2  0
 62 55  1  0
 63 53  1  0
 65 67  2  0
 66 65  1  0
 68 66  1  0
 69 78  2  0
 69 74  1  0
 70 66  1  0
 70 74  1  0
 71 70  1  0
 72 73  1  0
 72 71  1  0
 73 69  1  0
 74 75  2  0
 75 76  1  0
 77 76  2  0
 78 77  1  0
 79 53  1  0
 79 80  1  0
 79 89  1  0
 80 83  1  0
 81 85  1  0
 81 80  1  0
 82 81  2  0
 85 84  1  0
 87 85  1  0
 87 88  1  0
 87 86  1  0
 89 92  1  1
 89 90  1  0
 91 89  1  0
M  ISO  4   5 101   8 100  16 100  52 101
M  END
>  <TORSDO>  (30) 
F 17

>  <SCORE>  (30) 
-15.625

>  <name>  (30) 
29

>  <ligand_id>  (30) 
29

>  <original_smiles>  (30) 
[H]c1c([H])c([H])c2c(c1[H])C([H])([H])C([H])([H])C([H])([H])C2([H])N([H])C(=O)C1([H])N(C(=O)C([H])(N([H])C(=O)C([H])(N([H])C([H])([H])[H])C([H])([H])[H])C(C([H])([H])[H])(C([H])([H])[H])C([H])([H])[H])C([H])([H])c2c([H])c(OC3([H])C([H])([H])C(=O)C([H])([H])C3([H])c3c(C([H])([H])[H])c([H])c(C(=O)N4C([H])([H])C([H])([H])C([H])([H])C([H])(n5nc(-c6c([H])c([H])c(Oc7c([H])c([H])c(F)c([H])c7F)c([H])c6[H])c(C(=O)N([H])[H])c5N([H])[H])C4([H])[H])c(C([H])([H])[H])c3C([H])([H])[H])c([H])c([H])c2C1([H])[H]

>  <smiles>  (30) 
[H]c1c([H])c([H])c2c(c1[H])C([H])([H])C([H])([H])C([H])([H])C2([H])N([H])C(=O)C1([H])N(C(=O)C([H])(N([H])C(=O)C([H])(N([H])C([H])([H])[H])C([H])([H])[H])C(C([H])([H])[H])(C([H])([H])[H])C([H])([H])[H])C([H])([H])c2c([H])c(OC3([H])C([H])([H])C(=O)C([H])([H])C3([H])c3c(C([H])([H])[H])c([H])c(C(=O)N4C([H])([H])C([H])([H])C([H])([H])C([H])(n5nc(-c6c([H])c([H])c(Oc7c([H])c([H])c(F)c([H])c7F)c([H])c6[H])c(C(=O)N([H])[H])c5N([H])[H])C4([H])[H])c(C([H])([H])[H])c3C([H])([H])[H])c([H])c([H])c2C1([H])[H]

$$$$
30:0:0
     RDKit          3D

 97106  0  0  1  0  0  0  0  0999 V2000
  -26.3410  -23.1750   19.3280 C   0  0  0  0  0  0  0  0  0  0  0  0
  -26.4690  -24.4990   19.8440 C   0  0  0  0  0  0  0  0  0  0  0  0
  -27.4170  -22.2490   19.3710 C   0  0  0  0  0  0  0  0  0  0  0  0
  -28.4830  -22.4530   20.2780 C   0  0  0  0  0  0  0  0  0  0  0  0
  -28.6610  -23.8960   20.6250 C   0  0  0  0  0  0  0  0  0  0  0  0
  -27.7610  -25.0280   20.2520 C   0  0  0  0  0  0  0  0  0  0  0  0
  -25.0100  -22.7270   18.6820 C   0  0  0  0  0  2  0  0  0  0  0  0
  -25.1340  -25.2500   19.9720 C   0  0  0  0  0  2  0  0  0  0  0  0
  -23.9670  -24.3280   20.3830 C   0  0  0  0  0  2  0  0  0  0  0  0
  -23.6750  -23.2680   19.2980 C   0  0  2  0  0  0  0  0  0  0  0  0
  -27.4470  -21.0830   18.3850 C   0  0  0  0  0  1  0  0  0  0  0  0
  -29.8360  -24.2490   21.5110 C   0  0  0  0  0  1  0  0  0  0  0  0
  -22.8270  -22.1120   19.8920 C   0  0  0  0  0  1  0  0  0  0  0  0
  -22.8030  -23.9060   18.1890 C   0  0  0  0  0  1  0  0  0  0  0  0
  -28.1090  -26.4810   20.3860 O   0  0  0  0  0  0  0  0  0  0  0  0
  -24.8420  -32.2410   23.6050 C   0  0  0  0  0  0  0  0  0  0  0  0
  -27.2130  -27.6140   20.2980 C   0  0  0  0  0  0  0  0  0  0  0  0
  -23.6010  -30.9580   21.9090 C   0  0  0  0  0  3  0  0  0  0  0  0
  -24.9940  -29.4660   20.3450 C   0  0  0  0  0  0  0  0  0  0  0  0
  -26.1500  -31.1660   21.7400 C   0  0  0  0  0  2  0  0  0  0  0  0
  -26.1760  -29.8080   21.0180 C   0  0  0  0  0  0  0  0  0  0  0  0
  -27.2820  -28.8760   21.0130 C   0  0  0  0  0  3  0  0  0  0  0  0
  -26.0960  -27.4800   19.4590 C   0  0  0  0  0  3  0  0  0  0  0  0
  -24.9690  -28.3220   19.5370 C   0  0  0  0  0  3  0  0  0  0  0  0
  -23.7860  -30.3750   20.4810 C   0  0  0  0  0  2  0  0  0  0  0  0
  -24.8870  -31.4750   22.4750 N   0  0  0  0  0  0  0  0  0  0  0  0
  -23.7680  -32.5170   24.1670 O   0  0  0  0  0  0  0  0  0  0  0  0
  -22.9250  -29.9020   22.8230 C   0  0  0  0  0  0  0  0  0  0  0  0
  -21.6100  -29.6830   22.6400 N   0  0  0  0  0  0  0  0  0  0  0  0
  -23.5790  -29.2910   23.6690 O   0  0  0  0  0  0  0  0  0  0  0  0
  -21.1270  -30.2400   21.9490 H   0  0  0  0  0  0  0  0  0  0  0  0
  -18.2690  -28.3280   22.9650 C   0  0  0  0  0  0  0  0  0  0  0  0
  -20.7970  -28.7010   23.3600 C   0  0  0  0  0  3  0  0  0  0  0  0
  -20.9900  -27.2810   22.7790 C   0  0  0  0  0  2  0  0  0  0  0  0
  -19.9570  -26.9210   21.7090 C   0  0  0  0  0  2  0  0  0  0  0  0
  -18.5400  -26.9960   22.2860 C   0  0  0  0  0  2  0  0  0  0  0  0
  -19.3290  -29.1360   23.4540 C   0  0  0  0  0  0  0  0  0  0  0  0
  -19.0230  -30.3800   24.0490 C   0  0  0  0  0  3  0  0  0  0  0  0
  -17.6890  -30.8170   24.1580 C   0  0  0  0  0  3  0  0  0  0  0  0
  -16.6420  -30.0090   23.6840 C   0  0  0  0  0  3  0  0  0  0  0  0
  -16.9310  -28.7660   23.0930 C   0  0  0  0  0  3  0  0  0  0  0  0
  -26.1430  -32.8280   24.2380 C   0  0  0  0  0  3  0  0  0  0  0  0
  -26.5950  -32.0640   25.5430 C   0  0  1  0  0  0  0  0  0  0  0  0
  -25.4600  -31.8620   26.5760 C   0  0  0  0  0  1  0  0  0  0  0  0
  -27.1590  -30.6650   25.1950 C   0  0  0  0  0  1  0  0  0  0  0  0
  -27.7430  -32.8430   26.2320 C   0  0  0  0  0  1  0  0  0  0  0  0
  -25.9010  -34.2490   24.5380 N   0  0  0  0  0  0  0  0  0  0  0  0
  -26.2720  -35.2730   23.7570 C   0  0  0  0  0  0  0  0  0  0  0  0
  -26.9190  -35.1160   22.7190 O   0  0  0  0  0  0  0  0  0  0  0  0
  -25.3410  -34.4440   25.3530 H   0  0  0  0  0  0  0  0  0  0  0  0
  -24.6030  -37.1240   23.3970 C   0  0  0  0  0  1  0  0  0  0  0  0
  -25.8510  -36.6940   24.1900 C   0  0  0  0  0  3  0  0  0  0  0  0
  -28.0380  -37.5150   24.9470 C   0  0  0  0  0  1  0  0  0  0  0  0
  -26.9190  -37.7080   24.0280 N   0  0  0  0  0  0  0  0  0  0  0  0
  -26.5460  -38.6420   24.1790 H   0  0  0  0  0  0  0  0  0  0  0  0
  -29.3920  -21.1550   20.7840 C   0  0  0  0  0  3  0  0  0  0  0  0
  -29.0660  -19.4890   20.6050 C   0  0  0  0  0  3  0  0  0  0  0  0
  -30.9690  -18.4420   22.1240 C   0  0  0  0  0  1  0  0  0  0  0  0
  -30.1430  -18.2000   20.8500 C   0  0  0  0  0  3  0  0  0  0  0  0
  -30.4970  -15.4820   20.4740 C   0  0  0  0  0  0  0  0  0  0  0  0
  -30.3400  -13.2380   19.3090 C   0  0  0  0  0  2  0  0  0  0  0  0
  -29.3770  -13.3080   18.1030 C   0  0  0  0  0  2  0  0  0  0  0  0
  -27.9390  -13.0170   18.5640 C   0  0  0  0  0  2  0  0  0  0  0  0
  -27.5450  -13.8250   19.8270 C   0  0  0  0  0  3  0  0  0  0  0  0
  -28.6350  -13.7620   20.9220 C   0  0  0  0  0  2  0  0  0  0  0  0
  -29.8850  -14.2410   20.3150 N   0  0  0  0  0  0  0  0  0  0  0  0
  -31.6890  -15.5620   20.1570 O   0  0  0  0  0  0  0  0  0  0  0  0
  -29.7540  -16.6600   20.7790 N   0  0  0  0  0  0  0  0  0  0  0  0
  -28.7950  -16.4580   21.0160 H   0  0  0  0  0  0  0  0  0  0  0  0
  -25.1350  -14.2790   20.5520 C   0  0  0  0  0  0  0  0  0  0  0  0
  -24.1070  -13.4500   20.9140 C   0  0  0  0  0  0  0  0  0  0  0  0
  -24.6360  -12.1240   20.8840 C   0  0  0  0  0  0  0  0  0  0  0  0
  -26.2230  -13.4540   20.3220 N   0  0  0  0  0  0  0  0  0  0  0  0
  -25.9310  -12.1550   20.5850 N   0  0  0  0  0  0  0  0  0  0  0  0
  -23.9710  -10.8270   21.0650 C   0  0  0  0  0  0  0  0  0  0  0  0
  -24.4250   -9.8870   22.0160 C   0  0  0  0  0  3  0  0  0  0  0  0
  -23.7540   -8.6570   22.1860 C   0  0  0  0  0  3  0  0  0  0  0  0
  -22.6140   -8.3570   21.4030 C   0  0  0  0  0  0  0  0  0  0  0  0
  -22.1770   -9.2850   20.4430 C   0  0  0  0  0  3  0  0  0  0  0  0
  -22.8520  -10.5070   20.2710 C   0  0  0  0  0  3  0  0  0  0  0  0
  -21.9150   -7.1750   21.4800 O   0  0  0  0  0  0  0  0  0  0  0  0
  -21.8690   -6.4390   22.6360 C   0  0  0  0  0  0  0  0  0  0  0  0
  -21.3670   -6.9770   23.8430 C   0  0  0  0  0  3  0  0  0  0  0  0
  -21.2780   -6.1680   24.9900 C   0  0  0  0  0  3  0  0  0  0  0  0
  -21.6770   -4.8170   24.9340 C   0  0  0  0  0  0  0  0  0  0  0  0
  -22.1670   -4.2780   23.7340 C   0  0  0  0  0  3  0  0  0  0  0  0
  -22.2610   -5.0870   22.5870 C   0  0  0  0  0  0  0  0  0  0  0  0
  -22.7180   -4.5550   21.4280 F   0  0  0  0  0  0  0  0  0  0  0  0
  -21.5810   -4.0360   26.0370 F   0  0  0  0  0  0  0  0  0  0  0  0
  -22.6860  -13.8600   21.1720 C   0  0  0  0  0  0  0  0  0  0  0  0
  -21.9870  -13.1390   22.0400 N   0  0  0  0  0  0  0  0  0  0  0  0
  -22.2010  -14.8560   20.6370 O   0  0  0  0  0  0  0  0  0  0  0  0
  -22.3880  -12.3310   22.4920 H   0  0  0  0  0  0  0  0  0  0  0  0
  -21.0360  -13.4010   22.2560 H   0  0  0  0  0  0  0  0  0  0  0  0
  -25.2310  -15.6550   20.3730 N   0  0  0  0  0  0  0  0  0  0  0  0
  -24.4270  -16.2680   20.4520 H   0  0  0  0  0  0  0  0  0  0  0  0
  -26.0480  -16.1230   20.0020 H   0  0  0  0  0  0  0  0  0  0  0  0
  1  3  2  0
  1  2  1  0
  2  8  1  0
  2  6  2  0
  3  4  1  0
  4  5  2  0
  4 56  1  0
  5 12  1  0
  6 15  1  0
  6  5  1  0
  7 10  1  0
  7  1  1  0
  8  9  1  0
 10 13  1  1
 10  9  1  0
 11  3  1  0
 14 10  1  0
 16 27  2  0
 17 15  1  0
 17 22  1  0
 18 26  1  0
 18 28  1  0
 19 25  1  0
 19 21  1  0
 20 26  1  0
 21 20  1  0
 22 21  2  0
 23 24  1  0
 23 17  2  0
 24 19  2  0
 25 18  1  0
 26 16  1  0
 28 30  2  0
 29 28  1  0
 31 29  1  0
 32 41  2  0
 32 37  1  0
 33 29  1  0
 33 37  1  0
 34 33  1  0
 35 36  1  0
 35 34  1  0
 36 32  1  0
 37 38  2  0
 38 39  1  0
 40 39  2  0
 41 40  1  0
 42 16  1  0
 42 47  1  0
 42 43  1  0
 43 46  1  1
 43 44  1  0
 45 43  1  0
 47 50  1  0
 48 52  1  0
 48 47  1  0
 49 48  2  0
 52 51  1  0
 54 55  1  0
 54 52  1  0
 54 53  1  0
 57 56  2  0
 57 59  1  0
 59 58  1  0
 60 68  1  0
 61 66  1  0
 62 63  1  0
 62 61  1  0
 64 63  1  0
 64 73  1  0
 64 65  1  0
 66 60  1  0
 66 65  1  0
 67 60  2  0
 68 59  1  0
 68 69  1  0
 70 71  2  0
 71 90  1  0
 72 71  1  0
 72 75  1  0
 73 70  1  0
 73 74  1  0
 74 72  2  0
 75 76  1  0
 76 77  2  0
 78 81  1  0
 78 77  1  0
 79 78  2  0
 80 79  1  0
 80 75  2  0
 81 82  1  0
 82 83  1  0
 83 84  2  0
 85 84  1  0
 85 89  1  0
 86 85  2  0
 87 82  2  0
 87 86  1  0
 88 87  1  0
 90 91  1  0
 91 94  1  0
 91 93  1  0
 92 90  2  0
 95 96  1  0
 95 70  1  0
 97 95  1  0
M  ISO  4   6 101  15 101  60 100  68 100
M  END
>  <TORSDO>  (31) 
F 19

>  <SCORE>  (31) 
-13.839

>  <name>  (31) 
30

>  <ligand_id>  (31) 
30

>  <original_smiles>  (31) 
[H]c1c([H])c([H])c2c(c1[H])C([H])([H])C([H])([H])C([H])([H])C2([H])N([H])C(=O)C1([H])N(C(=O)C([H])(N([H])C(=O)C([H])(N([H])C([H])([H])[H])C([H])([H])[H])C(C([H])([H])[H])(C([H])([H])[H])C([H])([H])[H])C([H])([H])c2c([H])c(Oc3c(C([H])([H])[H])c(C([H])([H])C([H])([H])C([H])(N([H])C(=O)N4C([H])([H])C([H])([H])C([H])([H])C([H])(n5nc(-c6c([H])c([H])c(Oc7c([H])c([H])c(F)c([H])c7F)c([H])c6[H])c(C(=O)N([H])[H])c5N([H])[H])C4([H])[H])C([H])([H])[H])c(C([H])([H])[H])c4c3C([H])([H])C([H])([H])C(C([H])([H])[H])(C([H])([H])[H])C4([H])[H])c([H])c([H])c2C1([H])[H]

>  <smiles>  (31) 
[H]c1c([H])c([H])c2c(c1[H])C([H])([H])C([H])([H])C([H])([H])C2([H])N([H])C(=O)C1([H])N(C(=O)C([H])(N([H])C(=O)C([H])(N([H])C([H])([H])[H])C([H])([H])[H])C(C([H])([H])[H])(C([H])([H])[H])C([H])([H])[H])C([H])([H])c2c([H])c(Oc3c(C([H])([H])[H])c(C([H])([H])C([H])([H])C([H])(N([H])C(=O)N4C([H])([H])C([H])([H])C([H])([H])C([H])(n5nc(-c6c([H])c([H])c(Oc7c([H])c([H])c(F)c([H])c7F)c([H])c6[H])c(C(=O)N([H])[H])c5N([H])[H])C4([H])[H])C([H])([H])[H])c(C([H])([H])[H])c4c3C([H])([H])C([H])([H])C(C([H])([H])[H])(C([H])([H])[H])C4([H])[H])c([H])c([H])c2C1([H])[H]

$$$$
31:0:0
     RDKit          3D

 91100  0  0  1  0  0  0  0  0999 V2000
  -31.0370  -23.5980   19.1470 C   0  0  0  0  0  3  0  0  0  0  0  0
  -30.3050  -24.3810   18.2300 C   0  0  0  0  0  3  0  0  0  0  0  0
  -30.3740  -22.9730   20.2130 C   0  0  0  0  0  3  0  0  0  0  0  0
  -28.9480  -24.6850   18.4630 C   0  0  0  0  0  3  0  0  0  0  0  0
  -28.9720  -22.9840   20.2090 C   0  0  0  0  0  3  0  0  0  0  0  0
  -28.3640  -24.3660   19.7060 C   0  0  0  0  0  3  0  0  0  0  0  0
  -27.5760  -20.9600   19.3480 C   0  0  0  0  0  3  0  0  0  0  0  0
  -28.6870  -21.3050   20.0160 C   0  0  0  0  0  0  0  0  0  0  0  0
  -27.0920  -19.5070   19.1930 C   0  0  0  0  0  3  0  0  0  0  0  0
  -29.5410  -19.8500   20.4440 C   0  0  0  0  0  3  0  0  0  0  0  0
  -28.1470  -18.3930   18.8330 C   0  0  0  0  0  3  0  0  0  0  0  0
  -29.4210  -18.2180   19.7280 C   0  0  0  0  0  0  0  0  0  0  0  0
  -30.3900  -15.3350   20.0830 C   0  0  0  0  0  0  0  0  0  0  0  0
  -30.4120  -12.8520   19.2540 C   0  0  0  0  0  2  0  0  0  0  0  0
  -29.4710  -12.6100   18.0440 C   0  0  0  0  0  2  0  0  0  0  0  0
  -28.0250  -12.3490   18.4930 C   0  0  0  0  0  2  0  0  0  0  0  0
  -27.5950  -13.3290   19.6110 C   0  0  0  0  0  3  0  0  0  0  0  0
  -28.6570  -13.4670   20.7230 C   0  0  0  0  0  2  0  0  0  0  0  0
  -29.8720  -14.0000   20.0860 N   0  0  0  0  0  0  0  0  0  0  0  0
  -31.5930  -15.3540   19.7700 O   0  0  0  0  0  0  0  0  0  0  0  0
  -29.5840  -16.5940   20.2490 N   0  0  0  0  0  0  0  0  0  0  0  0
  -28.7040  -16.3030   20.6500 H   0  0  0  0  0  0  0  0  0  0  0  0
  -25.2480  -13.9050   20.4110 C   0  0  0  0  0  0  0  0  0  0  0  0
  -24.1910  -13.1380   20.8030 C   0  0  0  0  0  0  0  0  0  0  0  0
  -24.6500  -11.7830   20.7660 C   0  0  0  0  0  0  0  0  0  0  0  0
  -26.2800  -13.0230   20.1440 N   0  0  0  0  0  0  0  0  0  0  0  0
  -25.9340  -11.7410   20.4300 N   0  0  0  0  0  0  0  0  0  0  0  0
  -23.9150  -10.5280   20.9700 C   0  0  0  0  0  0  0  0  0  0  0  0
  -24.3510   -9.5600   21.9030 C   0  0  0  0  0  3  0  0  0  0  0  0
  -23.6170   -8.3690   22.0940 C   0  0  0  0  0  3  0  0  0  0  0  0
  -22.4330   -8.1400   21.3550 C   0  0  0  0  0  0  0  0  0  0  0  0
  -22.0180   -9.0920   20.4080 C   0  0  0  0  0  3  0  0  0  0  0  0
  -22.7520  -10.2740   20.2150 C   0  0  0  0  0  3  0  0  0  0  0  0
  -21.6680   -7.0030   21.4560 O   0  0  0  0  0  0  0  0  0  0  0  0
  -21.6190   -6.2700   22.6150 C   0  0  0  0  0  0  0  0  0  0  0  0
  -21.2010   -6.8370   23.8390 C   0  0  0  0  0  3  0  0  0  0  0  0
  -21.1030   -6.0310   24.9900 C   0  0  0  0  0  3  0  0  0  0  0  0
  -21.4090   -4.6590   24.9190 C   0  0  0  0  0  0  0  0  0  0  0  0
  -21.8170   -4.0900   23.6990 C   0  0  0  0  0  3  0  0  0  0  0  0
  -21.9200   -4.8950   22.5500 C   0  0  0  0  0  0  0  0  0  0  0  0
  -22.2950   -4.3390   21.3730 F   0  0  0  0  0  0  0  0  0  0  0  0
  -21.3040   -3.8820   26.0220 F   0  0  0  0  0  0  0  0  0  0  0  0
  -22.8020  -13.6210   21.0980 C   0  0  0  0  0  0  0  0  0  0  0  0
  -22.0830  -12.9300   21.9720 N   0  0  0  0  0  0  0  0  0  0  0  0
  -22.3690  -14.6530   20.5820 O   0  0  0  0  0  0  0  0  0  0  0  0
  -22.4460  -12.0950   22.4060 H   0  0  0  0  0  0  0  0  0  0  0  0
  -21.1550  -13.2410   22.2200 H   0  0  0  0  0  0  0  0  0  0  0  0
  -25.4190  -15.2770   20.2280 N   0  0  0  0  0  0  0  0  0  0  0  0
  -24.6610  -15.9360   20.3740 H   0  0  0  0  0  0  0  0  0  0  0  0
  -26.2370  -15.6990   19.8090 H   0  0  0  0  0  0  0  0  0  0  0  0
  -28.1990  -25.7780   20.3090 O   0  0  0  0  0  0  0  0  0  0  0  0
  -24.6050  -31.7920   23.0850 C   0  0  0  0  0  0  0  0  0  0  0  0
  -27.2150  -26.9010   20.1180 C   0  0  0  0  0  0  0  0  0  0  0  0
  -23.4320  -30.3860   21.4360 C   0  0  0  0  0  3  0  0  0  0  0  0
  -24.9100  -28.7950   20.0090 C   0  0  0  0  0  0  0  0  0  0  0  0
  -25.9970  -30.5950   21.3290 C   0  0  0  0  0  2  0  0  0  0  0  0
  -26.0760  -29.1880   20.6770 C   0  0  0  0  0  0  0  0  0  0  0  0
  -27.2070  -28.2560   20.7270 C   0  0  0  0  0  3  0  0  0  0  0  0
  -26.0430  -26.6840   19.3570 C   0  0  0  0  0  3  0  0  0  0  0  0
  -24.9300  -27.5730   19.3140 C   0  0  0  0  0  3  0  0  0  0  0  0
  -23.6790  -29.7090   20.0570 C   0  0  0  0  0  2  0  0  0  0  0  0
  -24.6980  -30.9520   22.0050 N   0  0  0  0  0  0  0  0  0  0  0  0
  -23.5120  -32.0840   23.5940 O   0  0  0  0  0  0  0  0  0  0  0  0
  -22.7370  -29.3860   22.3970 C   0  0  0  0  0  0  0  0  0  0  0  0
  -21.4030  -29.2530   22.2900 N   0  0  0  0  0  0  0  0  0  0  0  0
  -23.4010  -28.7370   23.2090 O   0  0  0  0  0  0  0  0  0  0  0  0
  -20.9190  -29.8270   21.6140 H   0  0  0  0  0  0  0  0  0  0  0  0
  -17.9970  -28.1350   22.8580 C   0  0  0  0  0  0  0  0  0  0  0  0
  -20.5700  -28.3230   23.0620 C   0  0  0  0  0  3  0  0  0  0  0  0
  -20.6130  -26.9030   22.4490 C   0  0  0  0  0  2  0  0  0  0  0  0
  -19.4710  -26.6380   21.4600 C   0  0  0  0  0  2  0  0  0  0  0  0
  -18.1120  -26.8010   22.1440 C   0  0  0  0  0  2  0  0  0  0  0  0
  -19.1470  -28.8550   23.2760 C   0  0  0  0  0  0  0  0  0  0  0  0
  -18.9760  -30.1080   23.9060 C   0  0  0  0  0  3  0  0  0  0  0  0
  -17.6870  -30.6310   24.1290 C   0  0  0  0  0  3  0  0  0  0  0  0
  -16.5530  -29.9040   23.7270 C   0  0  0  0  0  3  0  0  0  0  0  0
  -16.7100  -28.6610   23.0900 C   0  0  0  0  0  3  0  0  0  0  0  0
  -25.8700  -32.4390   23.7260 C   0  0  0  0  0  3  0  0  0  0  0  0
  -25.5430  -33.8330   24.0720 N   0  0  0  0  0  0  0  0  0  0  0  0
  -25.8740  -34.9070   23.3430 C   0  0  0  0  0  0  0  0  0  0  0  0
  -26.5540  -34.8290   22.3150 O   0  0  0  0  0  0  0  0  0  0  0  0
  -24.9450  -33.9690   24.8740 H   0  0  0  0  0  0  0  0  0  0  0  0
  -24.1400  -36.7000   23.0130 C   0  0  0  0  0  1  0  0  0  0  0  0
  -25.3750  -36.2830   23.8270 C   0  0  0  0  0  3  0  0  0  0  0  0
  -27.4900  -37.1650   24.7060 C   0  0  0  0  0  1  0  0  0  0  0  0
  -26.4010  -37.3480   23.7500 N   0  0  0  0  0  0  0  0  0  0  0  0
  -25.9850  -38.2620   23.9100 H   0  0  0  0  0  0  0  0  0  0  0  0
  -26.3730  -31.6680   25.0090 C   0  0  1  0  0  0  0  0  0  0  0  0
  -25.2660  -31.4220   26.0610 C   0  0  0  0  0  1  0  0  0  0  0  0
  -26.9770  -30.2970   24.6280 C   0  0  0  0  0  1  0  0  0  0  0  0
  -27.5100  -32.4710   25.6820 C   0  0  0  0  0  1  0  0  0  0  0  0
  1  3  2  0
  2  4  2  0
  2  1  1  0
  4  6  1  0
  5  8  1  0
  5  3  1  0
  6  5  1  0
  6 51  1  0
  7  8  1  0
  8 10  2  0
  9  7  2  0
 11  9  1  0
 11 12  2  0
 12 21  1  0
 12 10  1  0
 13 19  1  0
 13 21  1  0
 14 19  1  0
 15 16  1  0
 15 14  1  0
 17 16  1  0
 17 26  1  0
 17 18  1  0
 19 18  1  0
 20 13  2  0
 21 22  1  0
 23 24  2  0
 24 43  1  0
 25 24  1  0
 25 28  1  0
 26 23  1  0
 26 27  1  0
 27 25  2  0
 28 29  1  0
 29 30  2  0
 31 34  1  0
 31 30  1  0
 32 31  2  0
 33 32  1  0
 33 28  2  0
 34 35  1  0
 35 36  1  0
 36 37  2  0
 38 37  1  0
 38 42  1  0
 39 38  2  0
 40 35  2  0
 40 39  1  0
 41 40  1  0
 43 44  1  0
 44 47  1  0
 44 46  1  0
 45 43  2  0
 48 49  1  0
 48 23  1  0
 50 48  1  0
 52 63  2  0
 53 51  1  0
 53 58  1  0
 54 62  1  0
 54 64  1  0
 55 61  1  0
 55 57  1  0
 56 62  1  0
 57 58  2  0
 57 56  1  0
 59 53  2  0
 60 59  1  0
 60 55  2  0
 61 54  1  0
 62 52  1  0
 64 66  2  0
 65 64  1  0
 67 65  1  0
 68 77  2  0
 68 73  1  0
 69 65  1  0
 69 73  1  0
 70 69  1  0
 71 72  1  0
 71 70  1  0
 72 68  1  0
 73 74  2  0
 74 75  1  0
 76 75  2  0
 77 76  1  0
 78 52  1  0
 78 79  1  0
 78 88  1  0
 79 82  1  0
 80 84  1  0
 80 79  1  0
 81 80  2  0
 84 83  1  0
 86 84  1  0
 86 87  1  0
 86 85  1  0
 88 91  1  1
 88 89  1  0
 90 88  1  0
M  ISO  4   6 101  13 100  21 100  51 101
M  END
>  <TORSDO>  (32) 
F 17

>  <SCORE>  (32) 
-15.918

>  <name>  (32) 
31

>  <ligand_id>  (32) 
31

>  <original_smiles>  (32) 
[H]C1=C(c2c([H])c([H])c([H])c([H])c2Oc2c([H])c([H])c3c(c2[H])C([H])([H])N(C(=O)C([H])(N([H])C(=O)C([H])(N([H])C([H])([H])[H])C([H])([H])[H])C(C([H])([H])[H])(C([H])([H])[H])C([H])([H])[H])C([H])(C(=O)N([H])C2([H])c4c([H])c([H])c([H])c([H])c4C([H])([H])C([H])([H])C2([H])[H])C3([H])[H])C([H])([H])C([H])(N([H])C(=O)N2C([H])([H])C([H])([H])C([H])([H])C([H])(n3nc(-c4c([H])c([H])c(Oc5c([H])c([H])c(F)c([H])c5F)c([H])c4[H])c(C(=O)N([H])[H])c3N([H])[H])C2([H])[H])C([H])([H])C1([H])[H]

>  <smiles>  (32) 
[H]C1=C(c2c([H])c([H])c([H])c([H])c2Oc2c([H])c([H])c3c(c2[H])C([H])([H])N(C(=O)C([H])(N([H])C(=O)C([H])(N([H])C([H])([H])[H])C([H])([H])[H])C(C([H])([H])[H])(C([H])([H])[H])C([H])([H])[H])C([H])(C(=O)N([H])C2([H])c4c([H])c([H])c([H])c([H])c4C([H])([H])C([H])([H])C2([H])[H])C3([H])[H])C([H])([H])C([H])(N([H])C(=O)N2C([H])([H])C([H])([H])C([H])([H])C([H])(n3nc(-c4c([H])c([H])c(Oc5c([H])c([H])c(F)c([H])c5F)c([H])c4[H])c(C(=O)N([H])[H])c3N([H])[H])C2([H])[H])C([H])([H])C1([H])[H]

$$$$
32:0:0
     RDKit          3D

 92101  0  0  1  0  0  0  0  0999 V2000
  -30.3410  -17.2250   20.5180 C   0  0  0  0  0  0  0  0  0  0  0  0
  -29.8480  -18.7290   20.1550 C   0  0  0  0  0  0  0  0  0  0  0  0
  -29.8560  -19.8910   21.0950 C   0  0  0  0  0  0  0  0  0  0  0  0
  -30.8500  -17.1990   21.8760 C   0  0  0  0  0  0  0  0  0  0  0  0
  -30.3700  -19.6080   22.3860 C   0  0  0  0  0  0  0  0  0  0  0  0
  -30.9610  -18.3620   22.7020 C   0  0  0  0  0  0  0  0  0  0  0  0
  -29.2610  -19.4710   18.8530 C   0  0  0  0  0  2  0  0  0  0  0  0
  -29.4030  -21.5180   20.9060 C   0  0  0  0  0  2  0  0  0  0  0  0
  -28.4520  -20.9860   18.8920 C   0  0  0  0  0  2  0  0  0  0  0  0
  -28.9670  -22.4190   19.5760 C   0  0  2  0  0  0  0  0  0  0  0  0
  -31.3240  -15.8900   22.5760 C   0  0  0  0  0  1  0  0  0  0  0  0
  -30.3470  -20.6810   23.4910 C   0  0  0  0  0  1  0  0  0  0  0  0
  -31.8470  -18.2920   23.9600 C   0  0  0  0  0  1  0  0  0  0  0  0
  -30.2310  -22.7900   18.7790 C   0  0  0  0  0  1  0  0  0  0  0  0
  -30.7500  -15.7250   19.7470 C   0  0  0  0  0  0  0  0  0  0  0  0
  -30.6730  -13.1750   19.0140 C   0  0  0  0  0  2  0  0  0  0  0  0
  -29.7650  -12.8730   17.7960 C   0  0  0  0  0  2  0  0  0  0  0  0
  -28.3510  -12.5550   18.2940 C   0  0  0  0  0  2  0  0  0  0  0  0
  -27.8810  -13.5990   19.3310 C   0  0  0  0  0  3  0  0  0  0  0  0
  -28.9210  -13.9570   20.4220 C   0  0  0  0  0  2  0  0  0  0  0  0
  -30.1690  -14.4000   19.7770 N   0  0  0  0  0  0  0  0  0  0  0  0
  -31.8740  -15.6610   19.2200 O   0  0  0  0  0  0  0  0  0  0  0  0
  -25.5780  -14.1880   20.2290 C   0  0  0  0  0  0  0  0  0  0  0  0
  -24.5130  -13.4320   20.6370 C   0  0  0  0  0  0  0  0  0  0  0  0
  -24.9300  -12.0660   20.5310 C   0  0  0  0  0  0  0  0  0  0  0  0
  -26.5740  -13.2890   19.8950 N   0  0  0  0  0  0  0  0  0  0  0  0
  -26.2010  -12.0040   20.1420 N   0  0  0  0  0  0  0  0  0  0  0  0
  -24.1670  -10.8240   20.7210 C   0  0  0  0  0  0  0  0  0  0  0  0
  -24.6250   -9.7980   21.5780 C   0  0  0  0  0  3  0  0  0  0  0  0
  -23.8620   -8.6230   21.7620 C   0  0  0  0  0  3  0  0  0  0  0  0
  -22.6290   -8.4660   21.0880 C   0  0  0  0  0  0  0  0  0  0  0  0
  -22.1870   -9.4810   20.2200 C   0  0  0  0  0  3  0  0  0  0  0  0
  -22.9500  -10.6460   20.0350 C   0  0  0  0  0  3  0  0  0  0  0  0
  -21.8360   -7.3470   21.1800 O   0  0  0  0  0  0  0  0  0  0  0  0
  -21.8880   -6.5180   22.2710 C   0  0  0  0  0  0  0  0  0  0  0  0
  -21.6300   -6.9880   23.5790 C   0  0  0  0  0  3  0  0  0  0  0  0
  -21.6240   -6.0870   24.6620 C   0  0  0  0  0  3  0  0  0  0  0  0
  -21.8660   -4.7180   24.4430 C   0  0  0  0  0  0  0  0  0  0  0  0
  -22.1220   -4.2480   23.1430 C   0  0  0  0  0  3  0  0  0  0  0  0
  -22.1290   -5.1450   22.0600 C   0  0  0  0  0  0  0  0  0  0  0  0
  -22.3510   -4.6820   20.8070 F   0  0  0  0  0  0  0  0  0  0  0  0
  -21.8540   -3.8510   25.4840 F   0  0  0  0  0  0  0  0  0  0  0  0
  -23.1490  -13.9460   20.9880 C   0  0  0  0  0  0  0  0  0  0  0  0
  -22.4360  -13.2660   21.8780 N   0  0  0  0  0  0  0  0  0  0  0  0
  -22.7260  -14.9950   20.5050 O   0  0  0  0  0  0  0  0  0  0  0  0
  -22.7920  -12.4220   22.3010 H   0  0  0  0  0  0  0  0  0  0  0  0
  -21.5260  -13.6060   22.1530 H   0  0  0  0  0  0  0  0  0  0  0  0
  -25.7720  -15.5580   20.0730 N   0  0  0  0  0  0  0  0  0  0  0  0
  -25.0160  -16.2250   20.2020 H   0  0  0  0  0  0  0  0  0  0  0  0
  -26.5710  -15.9590   19.5980 H   0  0  0  0  0  0  0  0  0  0  0  0
  -27.9960  -24.0530   19.6510 C   0  0  0  0  0  2  0  0  0  0  0  0
  -28.1930  -25.7610   19.6570 O   0  0  0  0  0  0  0  0  0  0  0  0
  -24.6690  -31.6960   23.0180 C   0  0  0  0  0  0  0  0  0  0  0  0
  -27.1750  -26.9040   19.6960 C   0  0  0  0  0  0  0  0  0  0  0  0
  -23.4330  -30.3420   21.3790 C   0  0  0  0  0  3  0  0  0  0  0  0
  -24.8450  -28.8120   19.8260 C   0  0  0  0  0  0  0  0  0  0  0  0
  -25.9890  -30.5930   21.1210 C   0  0  0  0  0  2  0  0  0  0  0  0
  -26.0590  -29.2000   20.4090 C   0  0  0  0  0  0  0  0  0  0  0  0
  -27.2130  -28.2720   20.3080 C   0  0  0  0  0  3  0  0  0  0  0  0
  -25.9220  -26.7070   19.0650 C   0  0  0  0  0  3  0  0  0  0  0  0
  -24.8100  -27.5910   19.1280 C   0  0  0  0  0  3  0  0  0  0  0  0
  -23.6130  -29.7110   19.9710 C   0  0  0  0  0  2  0  0  0  0  0  0
  -24.7220  -30.9060   21.8930 N   0  0  0  0  0  0  0  0  0  0  0  0
  -23.5980  -31.9350   23.6030 O   0  0  0  0  0  0  0  0  0  0  0  0
  -22.8020  -29.2990   22.3390 C   0  0  0  0  0  0  0  0  0  0  0  0
  -21.4770  -29.0740   22.2410 N   0  0  0  0  0  0  0  0  0  0  0  0
  -23.5130  -28.6860   23.1390 O   0  0  0  0  0  0  0  0  0  0  0  0
  -20.9530  -29.6200   21.5710 H   0  0  0  0  0  0  0  0  0  0  0  0
  -18.1870  -27.6150   22.7330 C   0  0  0  0  0  0  0  0  0  0  0  0
  -20.7190  -28.0740   23.0030 C   0  0  0  0  0  3  0  0  0  0  0  0
  -20.9290  -26.6560   22.4240 C   0  0  0  0  0  2  0  0  0  0  0  0
  -19.8560  -26.2560   21.4050 C   0  0  0  0  0  2  0  0  0  0  0  0
  -18.4670  -26.2890   22.0440 C   0  0  0  0  0  2  0  0  0  0  0  0
  -19.2430  -28.4600   23.1670 C   0  0  0  0  0  0  0  0  0  0  0  0
  -18.9240  -29.6930   23.7760 C   0  0  0  0  0  3  0  0  0  0  0  0
  -17.5830  -30.0860   23.9460 C   0  0  0  0  0  3  0  0  0  0  0  0
  -16.5420  -29.2410   23.5240 C   0  0  0  0  0  3  0  0  0  0  0  0
  -16.8450  -28.0060   22.9240 C   0  0  0  0  0  3  0  0  0  0  0  0
  -25.9480  -32.3500   23.6210 C   0  0  0  0  0  3  0  0  0  0  0  0
  -25.6180  -33.7350   24.0100 N   0  0  0  0  0  0  0  0  0  0  0  0
  -25.9490  -34.8310   23.3130 C   0  0  0  0  0  0  0  0  0  0  0  0
  -26.6260  -34.7820   22.2840 O   0  0  0  0  0  0  0  0  0  0  0  0
  -25.0120  -33.8400   24.8100 H   0  0  0  0  0  0  0  0  0  0  0  0
  -24.2150  -36.6420   23.0450 C   0  0  0  0  0  1  0  0  0  0  0  0
  -25.4540  -36.1960   23.8390 C   0  0  0  0  0  3  0  0  0  0  0  0
  -27.5810  -37.0550   24.7230 C   0  0  0  0  0  1  0  0  0  0  0  0
  -26.4840  -37.2590   23.7800 N   0  0  0  0  0  0  0  0  0  0  0  0
  -26.0730  -38.1700   23.9660 H   0  0  0  0  0  0  0  0  0  0  0  0
  -26.5100  -31.5640   24.8700 C   0  0  1  0  0  0  0  0  0  0  0  0
  -25.4550  -31.3010   25.9720 C   0  0  0  0  0  1  0  0  0  0  0  0
  -27.0910  -30.1970   24.4440 C   0  0  0  0  0  1  0  0  0  0  0  0
  -27.6780  -32.3550   25.5050 C   0  0  0  0  0  1  0  0  0  0  0  0
  1  4  1  0
  2  1  2  0
  2  3  1  0
  3  5  2  0
  4 11  1  0
  4  6  2  0
  5  6  1  0
  5 12  1  0
  6 13  1  0
  7  9  1  0
  7  2  1  0
  8  3  1  0
  9 10  1  0
 10 14  1  6
 10 51  1  0
 10  8  1  0
 15 21  1  0
 15  1  1  0
 16 21  1  0
 17 18  1  0
 17 16  1  0
 19 18  1  0
 19 26  1  0
 19 20  1  0
 21 20  1  0
 22 15  2  0
 23 24  2  0
 24 43  1  0
 25 24  1  0
 25 28  1  0
 26 27  1  0
 26 23  1  0
 27 25  2  0
 28 29  1  0
 29 30  2  0
 31 34  1  0
 31 30  1  0
 32 31  2  0
 33 32  1  0
 33 28  2  0
 34 35  1  0
 35 36  1  0
 36 37  2  0
 38 37  1  0
 38 42  1  0
 39 38  2  0
 40 35  2  0
 40 39  1  0
 41 40  1  0
 43 44  1  0
 44 47  1  0
 44 46  1  0
 45 43  2  0
 48 49  1  0
 48 23  1  0
 50 48  1  0
 51 52  1  0
 52 54  1  0
 53 64  2  0
 54 59  1  0
 55 63  1  0
 55 65  1  0
 56 62  1  0
 56 58  1  0
 57 63  1  0
 58 57  1  0
 59 58  2  0
 60 61  1  0
 60 54  2  0
 61 56  2  0
 62 55  1  0
 63 53  1  0
 65 67  2  0
 66 65  1  0
 68 66  1  0
 69 78  2  0
 69 74  1  0
 70 66  1  0
 70 74  1  0
 71 70  1  0
 72 73  1  0
 72 71  1  0
 73 69  1  0
 74 75  2  0
 75 76  1  0
 77 76  2  0
 78 77  1  0
 79 53  1  0
 79 80  1  0
 79 89  1  0
 80 83  1  0
 81 85  1  0
 81 80  1  0
 82 81  2  0
 85 84  1  0
 87 85  1  0
 87 88  1  0
 87 86  1  0
 89 92  1  1
 89 90  1  0
 91 89  1  0
M  ISO  4   1 100  15 100  51 101  52 101
M  END
>  <TORSDO>  (33) 
F 17

>  <SCORE>  (33) 
-12.031

>  <name>  (33) 
32

>  <ligand_id>  (33) 
32

>  <original_smiles>  (33) 
[H]c1c([H])c([H])c2c(c1[H])C([H])([H])C([H])([H])C([H])([H])C2([H])N([H])C(=O)C1([H])N(C(=O)C([H])(N([H])C(=O)C([H])(N([H])C([H])([H])[H])C([H])([H])[H])C(C([H])([H])[H])(C([H])([H])[H])C([H])([H])[H])C([H])([H])c2c([H])c(OC([H])([H])C3(C([H])([H])[H])C([H])([H])c4c(C([H])([H])[H])c(C([H])([H])[H])c(C([H])([H])[H])c(C(=O)N5C([H])([H])C([H])([H])C([H])([H])C([H])(n6nc(-c7c([H])c([H])c(Oc8c([H])c([H])c(F)c([H])c8F)c([H])c7[H])c(C(=O)N([H])[H])c6N([H])[H])C5([H])[H])c4C([H])([H])C3([H])[H])c([H])c([H])c2C1([H])[H]

>  <smiles>  (33) 
[H]c1c([H])c([H])c2c(c1[H])C([H])([H])C([H])([H])C([H])([H])C2([H])N([H])C(=O)C1([H])N(C(=O)C([H])(N([H])C(=O)C([H])(N([H])C([H])([H])[H])C([H])([H])[H])C(C([H])([H])[H])(C([H])([H])[H])C([H])([H])[H])C([H])([H])c2c([H])c(OC([H])([H])C3(C([H])([H])[H])C([H])([H])c4c(C([H])([H])[H])c(C([H])([H])[H])c(C([H])([H])[H])c(C(=O)N5C([H])([H])C([H])([H])C([H])([H])C([H])(n6nc(-c7c([H])c([H])c(Oc8c([H])c([H])c(F)c([H])c8F)c([H])c7[H])c(C(=O)N([H])[H])c6N([H])[H])C5([H])[H])c4C([H])([H])C3([H])[H])c([H])c([H])c2C1([H])[H]

$$$$
33:0:0
     RDKit          3D

 92 95  0  0  1  0  0  0  0  0999 V2000
  -26.5770  -25.7310   21.9060 C   0  0  2  0  0  0  0  0  0  0  0  0
  -27.3500  -23.9800   21.7570 C   0  0  1  0  0  0  0  0  0  0  0  0
  -25.5260  -26.4350   21.3270 C   0  0  0  0  0  2  0  0  0  0  0  0
  -27.1250  -22.4140   21.0900 C   0  0  0  0  0  1  0  0  0  0  0  0
  -27.5020  -31.5010   22.2480 C   0  0  0  0  0  3  0  0  0  0  0  0
  -28.2090  -30.1070   23.2870 C   0  0  0  0  0  3  0  0  0  0  0  0
  -26.0080  -31.4260   21.1760 C   0  0  0  0  0  3  0  0  0  0  0  0
  -27.7870  -28.2490   23.2630 C   0  0  0  0  0  2  0  0  0  0  0  0
  -24.6760  -29.1970   20.4290 C   0  0  0  0  0  2  0  0  0  0  0  0
  -25.2370  -29.7800   20.9020 C   0  0  0  0  0  3  0  0  0  0  0  0
  -26.6060  -27.4960   22.0200 C   0  0  1  0  0  0  0  0  0  0  0  0
  -28.6640  -24.0430   22.4660 C   0  0  0  0  0  1  0  0  0  0  0  0
  -23.2750  -29.7840   19.7750 C   0  0  0  0  0  1  0  0  0  0  0  0
  -25.5320  -24.1100   20.7450 S   0  0  0  0  0  0  0  0  0  0  0  0
  -27.8930  -26.9460   21.2060 O   0  0  0  0  0  0  0  0  0  0  0  0
  -24.9870  -30.3230   24.0840 C   0  0  0  0  0  0  0  0  0  0  0  0
  -27.9500  -26.9210   19.8050 C   0  0  0  0  0  3  0  0  0  0  0  0
  -23.9570  -28.1990   22.5120 C   0  0  0  0  0  1  0  0  0  0  0  0
  -25.3830  -27.6250   19.2270 C   0  0  0  0  0  2  0  0  0  0  0  0
  -27.2740  -29.3770   21.4240 C   0  0  0  0  0  1  0  0  0  0  0  0
  -26.7920  -28.5180   19.8250 C   0  0  0  0  0  3  0  0  0  0  0  0
  -28.0250  -28.2010   19.4710 C   0  0  0  0  0  2  0  0  0  0  0  0
  -27.0830  -26.2220   18.8850 C   0  0  0  0  0  2  0  0  0  0  0  0
  -25.7860  -26.6360   18.4760 C   0  0  0  0  0  2  0  0  0  0  0  0
  -23.5820  -27.3210   20.4880 C   0  0  0  0  0 15  0  0  0  0  0  0
  -25.5390  -29.2220   23.1780 N   0  0  0  0  0  1  0  0  0  0  0  0
  -23.7810  -30.6640   24.2020 O   0  0  0  0  0  0  0  0  0  0  0  0
  -22.6980  -28.1870   23.2750 C   0  0  0  0  0  0  0  0  0  0  0  0
  -21.4920  -28.6070   22.8000 N   0  0  0  0  0  0  0  0  0  0  0  0
  -22.8720  -27.6210   24.3190 O   0  0  0  0  0  0  0  0  0  0  0  0
  -21.4540  -29.1450   21.9470 H   0  0  0  0  0  0  0  0  0  0  0  0
  -17.9240  -27.9870   22.3650 C   0  0  0  0  0  0  0  0  0  0  0  0
  -20.3630  -27.7510   23.0780 C   0  0  0  0  0  3  0  0  0  0  0  0
  -20.4290  -26.5460   22.1150 C   0  0  0  0  0  2  0  0  0  0  0  0
  -19.5430  -26.7220   20.8870 C   0  0  0  0  0  2  0  0  0  0  0  0
  -18.0940  -26.8670   21.3500 C   0  0  0  0  0  2  0  0  0  0  0  0
  -19.0170  -28.4560   23.1340 C   0  0  0  0  0  0  0  0  0  0  0  0
  -18.8280  -29.5290   24.0310 C   0  0  0  0  0  3  0  0  0  0  0  0
  -17.5560  -30.1130   24.1810 C   0  0  0  0  0  3  0  0  0  0  0  0
  -16.4670  -29.6210   23.4420 C   0  0  0  0  0  3  0  0  0  0  0  0
  -16.6520  -28.5640   22.5350 C   0  0  0  0  0  3  0  0  0  0  0  0
  -25.7990  -31.2950   25.0740 C   0  0  0  0  0  3  0  0  0  0  0  0
  -25.5060  -32.7900   25.0790 N   0  0  0  0  0  0  0  0  0  0  0  0
  -26.2320  -33.8290   24.5650 C   0  0  0  0  0  0  0  0  0  0  0  0
  -27.1570  -33.6850   23.7670 O   0  0  0  0  0  0  0  0  0  0  0  0
  -24.6850  -33.0440   25.6080 H   0  0  0  0  0  0  0  0  0  0  0  0
  -24.9480  -35.9250   23.9420 C   0  0  0  0  0  1  0  0  0  0  0  0
  -25.9000  -35.2950   24.9740 C   0  0  0  0  0  3  0  0  0  0  0  0
  -27.9610  -35.8380   26.2360 C   0  0  0  0  0  1  0  0  0  0  0  0
  -27.0920  -36.1800   25.1120 N   0  0  0  0  0  0  0  0  0  0  0  0
  -26.8120  -37.1520   25.2110 H   0  0  0  0  0  0  0  0  0  0  0  0
  -25.7030  -30.6820   26.4920 C   0  0  1  0  0  0  0  0  0  0  0  0
  -24.2900  -30.8480   27.0600 C   0  0  0  0  0  1  0  0  0  0  0  0
  -25.9520  -29.1600   26.6070 C   0  0  0  0  0  1  0  0  0  0  0  0
  -26.7460  -31.3730   27.3950 C   0  0  0  0  0  1  0  0  0  0  0  0
  -27.8010  -19.7590   20.6970 C   0  0  0  0  0 15  0  0  0  0  0  0
  -28.9660  -17.3500   20.2990 C   0  0  0  0  0  2  0  0  0  0  0  0
  -29.8270  -14.3820   19.3300 C   0  0  0  0  0  2  0  0  0  0  0  0
  -29.2770  -13.2130   18.2990 C   0  0  0  0  0  2  0  0  0  0  0  0
  -28.1290  -12.3640   18.8400 C   0  0  0  0  0  2  0  0  0  0  0  0
  -27.3760  -13.3370   19.7440 C   0  0  0  0  0  3  0  0  0  0  0  0
  -28.1990  -14.3080   20.7410 C   0  0  0  0  0  2  0  0  0  0  0  0
  -28.8910  -15.5950   20.0950 N   0  0  0  0  0  0  0  0  0  0  0  0
  -30.2330  -17.0850   20.0560 O   0  0  0  0  0  1  0  0  0  0  0  0
  -25.1110  -13.6020   20.6910 C   0  0  0  0  0  0  0  0  0  0  0  0
  -24.1150  -12.7740   21.0910 C   0  0  0  0  0  0  0  0  0  0  0  0
  -24.5960  -11.4380   20.9150 C   0  0  0  0  0  0  0  0  0  0  0  0
  -26.1560  -12.7950   20.3220 N   0  0  0  0  0  0  0  0  0  0  0  0
  -25.8670  -11.4650   20.4830 N   0  0  0  0  0  0  0  0  0  0  0  0
  -23.8710  -10.1630   21.0860 C   0  0  0  0  0  0  0  0  0  0  0  0
  -24.3150   -9.1580   21.9750 C   0  0  0  0  0  3  0  0  0  0  0  0
  -23.5690   -7.9700   22.1500 C   0  0  0  0  0  3  0  0  0  0  0  0
  -22.3620   -7.7740   21.4380 C   0  0  0  0  0  0  0  0  0  0  0  0
  -21.9330   -8.7680   20.5400 C   0  0  0  0  0  3  0  0  0  0  0  0
  -22.6790   -9.9460   20.3630 C   0  0  0  0  0  3  0  0  0  0  0  0
  -21.5870   -6.6410   21.5210 O   0  0  0  0  0  0  0  0  0  0  0  0
  -21.5310   -5.8870   22.6660 C   0  0  0  0  0  0  0  0  0  0  0  0
  -21.0650   -6.4230   23.8870 C   0  0  0  0  0  3  0  0  0  0  0  0
  -20.9570   -5.5960   25.0240 C   0  0  0  0  0  3  0  0  0  0  0  0
  -21.3050   -4.2340   24.9410 C   0  0  0  0  0  0  0  0  0  0  0  0
  -21.7620   -3.6970   23.7250 C   0  0  0  0  0  3  0  0  0  0  0  0
  -21.8710   -4.5210   22.5910 C   0  0  0  0  0  0  0  0  0  0  0  0
  -22.2910   -3.9920   21.4160 F   0  0  0  0  0  0  0  0  0  0  0  0
  -21.1960   -3.4380   26.0310 F   0  0  0  0  0  0  0  0  0  0  0  0
  -22.7530  -13.2290   21.5130 C   0  0  0  0  0  0  0  0  0  0  0  0
  -22.1120  -12.4970   22.4120 N   0  0  0  0  0  0  0  0  0  0  0  0
  -22.2800  -14.2830   21.0870 O   0  0  0  0  0  0  0  0  0  0  0  0
  -22.5160  -11.6460   22.7750 H   0  0  0  0  0  0  0  0  0  0  0  0
  -21.2030  -12.7900   22.7430 H   0  0  0  0  0  0  0  0  0  0  0  0
  -25.2140  -14.9860   20.5730 N   0  0  0  0  0  0  0  0  0  0  0  0
  -24.4390  -15.6100   20.7630 H   0  0  0  0  0  0  0  0  0  0  0  0
  -26.0200  -15.4550   20.1780 H   0  0  0  0  0  0  0  0  0  0  0  0
  1  3  1  6
  1 11  1  0
  2  1  1  0
  2 12  1  1
  3 11  1  0
  4  2  1  0
  5  6  2  0
  7  5  1  0
  8  6  1  0
  9 10  1  0
 10  7  2  0
 11  8  1  1
 13  9  1  0
 14  2  1  0
 14  1  1  0
 15 11  1  0
 16 27  2  0
 17 15  1  0
 18 28  1  0
 19 21  1  0
 21 20  1  0
 22 17  1  0
 22 21  1  0
 23 17  1  0
 24 23  1  0
 24 19  1  0
 26 16  1  0
 28 30  2  0
 29 28  1  0
 31 29  1  0
 32 41  2  0
 32 37  1  0
 33 29  1  0
 33 37  1  0
 34 33  1  0
 35 36  1  0
 35 34  1  0
 36 32  1  0
 37 38  2  0
 38 39  1  0
 40 39  2  0
 41 40  1  0
 42 16  1  0
 42 43  1  0
 42 52  1  0
 43 46  1  0
 44 48  1  0
 44 43  1  0
 45 44  2  0
 48 47  1  0
 48 50  1  0
 50 51  1  0
 50 49  1  0
 52 54  1  6
 52 53  1  0
 52 55  1  0
 58 63  1  0
 59 60  1  0
 59 58  1  0
 61 60  1  0
 61 68  1  0
 61 62  1  0
 63 57  1  0
 63 62  1  0
 64 57  1  0
 65 66  2  0
 66 85  1  0
 67 70  1  0
 67 66  1  0
 68 69  1  0
 68 65  1  0
 69 67  2  0
 70 71  1  0
 71 72  2  0
 73 76  1  0
 73 72  1  0
 74 73  2  0
 75 74  1  0
 75 70  2  0
 76 77  1  0
 77 78  1  0
 78 79  2  0
 80 79  1  0
 80 84  1  0
 81 80  2  0
 82 77  2  0
 82 81  1  0
 83 82  1  0
 85 86  1  0
 86 89  1  0
 86 88  1  0
 87 85  2  0
 90 65  1  0
 90 91  1  0
 92 90  1  0
M  ISO  4  11 101  15 101  56 100  57 100
M  END
>  <TORSDO>  (34) 
F 17

>  <SCORE>  (34) 
-10.794

>  <name>  (34) 
33

>  <ligand_id>  (34) 
33

>  <original_smiles>  (34) 
[H]c1c([H])c([H])c2c(c1[H])C([H])([H])C([H])([H])C([H])([H])C2([H])N([H])C(=O)C1([H])N(C(=O)C([H])(N([H])C(=O)C([H])(N([H])C([H])([H])[H])C([H])([H])[H])C(C([H])([H])[H])(C([H])([H])[H])C([H])([H])[H])C([H])([H])c2c([H])c(OC34c5c(sc(C([H])([H])C(=O)N6C([H])([H])C([H])([H])C([H])([H])C([H])(n7nc(-c8c([H])c([H])c(Oc9c([H])c([H])c(F)c([H])c9F)c([H])c8[H])c(C(=O)N([H])[H])c7N([H])[H])C6([H])[H])c5C([H])([H])[H])C([H])(C([H])([H])[H])C3([H])C([H])([H])C([H])([H])C([H])([H])C4([H])[H])c([H])c([H])c2C1([H])[H]

>  <smiles>  (34) 
[H]c1c([H])c([H])c2c(c1[H])C([H])([H])C([H])([H])C([H])([H])C2([H])N([H])C(=O)C1([H])N(C(=O)C([H])(N([H])C(=O)C([H])(N([H])C([H])([H])[H])C([H])([H])[H])C(C([H])([H])[H])(C([H])([H])[H])C([H])([H])[H])C([H])([H])c2c([H])c(OC34c5c(sc(C([H])([H])C(=O)N6C([H])([H])C([H])([H])C([H])([H])C([H])(n7nc(-c8c([H])c([H])c(Oc9c([H])c([H])c(F)c([H])c9F)c([H])c8[H])c(C(=O)N([H])[H])c7N([H])[H])C6([H])[H])c5C([H])([H])[H])C([H])(C([H])([H])[H])C3([H])C([H])([H])C([H])([H])C([H])([H])C4([H])[H])c([H])c([H])c2C1([H])[H]

$$$$
34:0:0
     RDKit          3D

 94104  0  0  1  0  0  0  0  0999 V2000
  -30.0090  -22.9090   21.7960 C   0  0  0  0  0  3  0  0  0  0  0  0
  -29.1450  -22.5050   20.7830 C   0  0  0  0  0  0  0  0  0  0  0  0
  -28.3110  -23.5130   20.1000 C   0  0  0  0  0  0  0  0  0  0  0  0
  -30.0400  -24.2980   22.1040 C   0  0  0  0  0  0  0  0  0  0  0  0
  -29.2310  -25.2900   21.4210 C   0  0  0  0  0  0  0  0  0  0  0  0
  -28.2980  -24.9900   20.3680 C   0  0  0  0  0  0  0  0  0  0  0  0
  -27.8030  -22.2850   19.2830 C   0  0  0  0  0  2  0  0  0  0  0  0
  -30.0060  -18.7520   19.1270 C   0  0  0  0  0  2  0  0  0  0  0  0
  -28.2920  -18.4680   20.7600 C   0  0  0  0  0  2  0  0  0  0  0  0
  -29.9800  -20.3750   19.3520 C   0  0  0  0  0  2  0  0  0  0  0  0
  -28.2310  -20.0530   21.0840 C   0  0  0  0  0  2  0  0  0  0  0  0
  -29.6470  -17.7640   20.3200 C   0  0  0  0  0  3  0  0  0  0  0  0
  -28.7650  -21.1500   20.0630 C   0  0  1  0  0  0  0  0  0  0  0  0
  -31.0290  -24.7210   23.1810 C   0  0  0  0  0  1  0  0  0  0  0  0
  -29.4020  -26.7640   21.8000 C   0  0  0  0  0  1  0  0  0  0  0  0
  -30.4090  -15.0590   19.8990 C   0  0  0  0  0  0  0  0  0  0  0  0
  -30.3470  -12.7030   18.9310 C   0  0  0  0  0  2  0  0  0  0  0  0
  -29.3230  -12.6020   17.7750 C   0  0  0  0  0  2  0  0  0  0  0  0
  -27.9140  -12.3120   18.3250 C   0  0  0  0  0  2  0  0  0  0  0  0
  -27.5520  -13.2190   19.5270 C   0  0  0  0  0  3  0  0  0  0  0  0
  -28.6900  -13.2770   20.5680 C   0  0  0  0  0  2  0  0  0  0  0  0
  -29.8830  -13.7670   19.8660 N   0  0  0  0  0  0  0  0  0  0  0  0
  -31.5870  -15.1980   19.5540 O   0  0  0  0  0  0  0  0  0  0  0  0
  -29.5550  -16.1790   20.1310 N   0  0  0  0  0  0  0  0  0  0  0  0
  -28.6200  -15.8430   20.3170 H   0  0  0  0  0  0  0  0  0  0  0  0
  -25.2300  -13.6840   20.5030 C   0  0  0  0  0  0  0  0  0  0  0  0
  -24.2250  -12.8580   20.9210 C   0  0  0  0  0  0  0  0  0  0  0  0
  -24.7240  -11.5260   20.7770 C   0  0  0  0  0  0  0  0  0  0  0  0
  -26.2730  -12.8540   20.1260 N   0  0  0  0  0  0  0  0  0  0  0  0
  -25.9820  -11.5470   20.3550 N   0  0  0  0  0  0  0  0  0  0  0  0
  -24.0520  -10.2320   20.9600 C   0  0  0  0  0  0  0  0  0  0  0  0
  -24.5090   -9.2890   21.9070 C   0  0  0  0  0  3  0  0  0  0  0  0
  -23.8360   -8.0600   22.0750 C   0  0  0  0  0  3  0  0  0  0  0  0
  -22.6920   -7.7640   21.2970 C   0  0  0  0  0  0  0  0  0  0  0  0
  -22.2560   -8.6950   20.3380 C   0  0  0  0  0  3  0  0  0  0  0  0
  -22.9310   -9.9160   20.1670 C   0  0  0  0  0  3  0  0  0  0  0  0
  -21.9900   -6.5850   21.3760 O   0  0  0  0  0  0  0  0  0  0  0  0
  -21.8130   -5.9300   22.5670 C   0  0  0  0  0  0  0  0  0  0  0  0
  -21.1460   -6.5310   23.6570 C   0  0  0  0  0  3  0  0  0  0  0  0
  -20.9270   -5.7980   24.8390 C   0  0  0  0  0  3  0  0  0  0  0  0
  -21.3640   -4.4630   24.9320 C   0  0  0  0  0  0  0  0  0  0  0  0
  -22.0230   -3.8610   23.8450 C   0  0  0  0  0  3  0  0  0  0  0  0
  -22.2440   -4.5920   22.6650 C   0  0  0  0  0  0  0  0  0  0  0  0
  -22.8630   -4.0010   21.6140 F   0  0  0  0  0  0  0  0  0  0  0  0
  -21.1470   -3.7530   26.0640 F   0  0  0  0  0  0  0  0  0  0  0  0
  -22.8430  -13.2720   21.3330 C   0  0  0  0  0  0  0  0  0  0  0  0
  -22.2200  -12.5160   22.2290 N   0  0  0  0  0  0  0  0  0  0  0  0
  -22.3290  -14.3020   20.8970 O   0  0  0  0  0  0  0  0  0  0  0  0
  -22.6530  -11.6830   22.5990 H   0  0  0  0  0  0  0  0  0  0  0  0
  -21.2980  -12.7730   22.5490 H   0  0  0  0  0  0  0  0  0  0  0  0
  -25.3390  -15.0660   20.3850 N   0  0  0  0  0  0  0  0  0  0  0  0
  -24.5600  -15.6830   20.5880 H   0  0  0  0  0  0  0  0  0  0  0  0
  -26.1180  -15.5440   19.9500 H   0  0  0  0  0  0  0  0  0  0  0  0
  -27.8260  -26.1850   19.6470 O   0  0  0  0  0  0  0  0  0  0  0  0
  -24.4570  -31.9160   23.0620 C   0  0  0  0  0  0  0  0  0  0  0  0
  -26.7740  -27.1420   19.8990 C   0  0  0  0  0  0  0  0  0  0  0  0
  -23.1520  -30.5780   21.4570 C   0  0  0  0  0  3  0  0  0  0  0  0
  -24.4920  -28.9580   19.9790 C   0  0  0  0  0  0  0  0  0  0  0  0
  -25.7030  -30.7600   21.1910 C   0  0  0  0  0  2  0  0  0  0  0  0
  -25.7080  -29.3630   20.5430 C   0  0  0  0  0  0  0  0  0  0  0  0
  -26.8510  -28.4770   20.4790 C   0  0  0  0  0  3  0  0  0  0  0  0
  -25.5250  -26.8340   19.3210 C   0  0  0  0  0  3  0  0  0  0  0  0
  -24.4120  -27.7020   19.3580 C   0  0  0  0  0  3  0  0  0  0  0  0
  -23.3000  -29.9010   20.0680 C   0  0  0  0  0  2  0  0  0  0  0  0
  -24.4600  -31.1100   21.9540 N   0  0  0  0  0  0  0  0  0  0  0  0
  -23.4030  -32.2240   23.6350 O   0  0  0  0  0  0  0  0  0  0  0  0
  -22.4830  -29.5820   22.4380 C   0  0  0  0  0  0  0  0  0  0  0  0
  -21.1530  -29.4130   22.3310 N   0  0  0  0  0  0  0  0  0  0  0  0
  -23.1660  -28.9610   23.2580 O   0  0  0  0  0  0  0  0  0  0  0  0
  -20.6570  -29.9670   21.6450 H   0  0  0  0  0  0  0  0  0  0  0  0
  -17.7740  -28.2520   22.9200 C   0  0  0  0  0  0  0  0  0  0  0  0
  -20.3410  -28.4830   23.1190 C   0  0  0  0  0  3  0  0  0  0  0  0
  -20.4080  -27.0520   22.5400 C   0  0  0  0  0  2  0  0  0  0  0  0
  -19.2730  -26.7450   21.5540 C   0  0  0  0  0  2  0  0  0  0  0  0
  -17.9130  -26.9040   22.2350 C   0  0  0  0  0  2  0  0  0  0  0  0
  -18.9120  -29.0000   23.3230 C   0  0  0  0  0  0  0  0  0  0  0  0
  -18.7200  -30.2610   23.9270 C   0  0  0  0  0  3  0  0  0  0  0  0
  -17.4240  -30.7730   24.1340 C   0  0  0  0  0  3  0  0  0  0  0  0
  -16.3020  -30.0240   23.7420 C   0  0  0  0  0  3  0  0  0  0  0  0
  -16.4790  -28.7660   23.1410 C   0  0  0  0  0  3  0  0  0  0  0  0
  -25.7780  -32.5040   23.6470 C   0  0  0  0  0  3  0  0  0  0  0  0
  -25.5050  -33.8900   24.0590 N   0  0  0  0  0  0  0  0  0  0  0  0
  -25.8540  -34.9770   23.3580 C   0  0  0  0  0  0  0  0  0  0  0  0
  -26.5090  -34.9150   22.3150 O   0  0  0  0  0  0  0  0  0  0  0  0
  -24.9240  -34.0150   24.8740 H   0  0  0  0  0  0  0  0  0  0  0  0
  -24.1830  -36.8450   23.1220 C   0  0  0  0  0  1  0  0  0  0  0  0
  -25.4120  -36.3510   23.9040 C   0  0  0  0  0  3  0  0  0  0  0  0
  -27.5730  -37.1210   24.7840 C   0  0  0  0  0  1  0  0  0  0  0  0
  -26.4790  -37.3780   23.8510 N   0  0  0  0  0  0  0  0  0  0  0  0
  -26.1010  -38.3000   24.0500 H   0  0  0  0  0  0  0  0  0  0  0  0
  -26.3440  -31.6730   24.8640 C   0  0  1  0  0  0  0  0  0  0  0  0
  -25.2990  -31.3970   25.9710 C   0  0  0  0  0  1  0  0  0  0  0  0
  -26.8950  -30.3100   24.3850 C   0  0  0  0  0  1  0  0  0  0  0  0
  -27.5320  -32.4280   25.5030 C   0  0  0  0  0  1  0  0  0  0  0  0
  1  4  1  0
  2  1  2  0
  3  6  2  0
  3  2  1  0
  4 14  1  0
  5 15  1  0
  5  4  2  0
  6  5  1  0
  7  3  1  0
  8 10  1  0
  8 12  1  0
  9 11  1  0
 13 10  1  6
 12 24  1  0
 12  9  1  0
 13  7  1  0
 13  2  1  0
 13 11  1  0
 16 24  1  0
 17 22  1  0
 18 19  1  0
 18 17  1  0
 20 19  1  0
 20 29  1  0
 20 21  1  0
 22 16  1  0
 22 21  1  0
 23 16  2  0
 24 25  1  0
 26 27  2  0
 27 46  1  0
 28 27  1  0
 28 31  1  0
 29 30  1  0
 29 26  1  0
 30 28  2  0
 31 32  1  0
 32 33  2  0
 34 37  1  0
 34 33  1  0
 35 34  2  0
 36 35  1  0
 36 31  2  0
 37 38  1  0
 38 43  2  0
 38 39  1  0
 39 40  2  0
 40 41  1  0
 41 45  1  0
 42 41  2  0
 43 42  1  0
 44 43  1  0
 46 47  1  0
 47 50  1  0
 47 49  1  0
 48 46  2  0
 51 26  1  0
 51 52  1  0
 53 51  1  0
 54 56  1  0
 54  6  1  0
 55 66  2  0
 56 61  1  0
 57 65  1  0
 57 67  1  0
 58 64  1  0
 58 60  1  0
 59 65  1  0
 60 59  1  0
 61 60  2  0
 62 63  1  0
 62 56  2  0
 63 58  2  0
 64 57  1  0
 65 55  1  0
 67 69  2  0
 68 67  1  0
 70 68  1  0
 71 80  2  0
 71 76  1  0
 72 68  1  0
 72 76  1  0
 73 72  1  0
 74 75  1  0
 74 73  1  0
 75 71  1  0
 76 77  2  0
 77 78  1  0
 79 78  2  0
 80 79  1  0
 81 55  1  0
 81 82  1  0
 81 91  1  0
 82 85  1  0
 83 87  1  0
 83 82  1  0
 84 83  2  0
 87 86  1  0
 89 87  1  0
 89 90  1  0
 89 88  1  0
 91 94  1  1
 91 92  1  0
 93 91  1  0
M  ISO  4   6 101  16 100  24 100  54 101
M  END
>  <TORSDO>  (35) 
F 16

>  <SCORE>  (35) 
-11.916

>  <name>  (35) 
34

>  <ligand_id>  (35) 
34

>  <original_smiles>  (35) 
[H]c1c([H])c([H])c2c(c1[H])C([H])([H])C([H])([H])C([H])([H])C2([H])N([H])C(=O)C1([H])N(C(=O)C([H])(N([H])C(=O)C([H])(N([H])C([H])([H])[H])C([H])([H])[H])C(C([H])([H])[H])(C([H])([H])[H])C([H])([H])[H])C([H])([H])c2c([H])c(Oc3c(C([H])([H])[H])c(C([H])([H])[H])c([H])c4c3C([H])([H])C43C([H])([H])C([H])([H])C([H])(N([H])C(=O)N4C([H])([H])C([H])([H])C([H])([H])C([H])(n5nc(-c6c([H])c([H])c(Oc7c([H])c([H])c(F)c([H])c7F)c([H])c6[H])c(C(=O)N([H])[H])c5N([H])[H])C4([H])[H])C([H])([H])C3([H])[H])c([H])c([H])c2C1([H])[H]

>  <smiles>  (35) 
[H]c1c([H])c([H])c2c(c1[H])C([H])([H])C([H])([H])C([H])([H])C2([H])N([H])C(=O)C1([H])N(C(=O)C([H])(N([H])C(=O)C([H])(N([H])C([H])([H])[H])C([H])([H])[H])C(C([H])([H])[H])(C([H])([H])[H])C([H])([H])[H])C([H])([H])c2c([H])c(Oc3c(C([H])([H])[H])c(C([H])([H])[H])c([H])c4c3C([H])([H])C43C([H])([H])C([H])([H])C([H])(N([H])C(=O)N4C([H])([H])C([H])([H])C([H])([H])C([H])(n5nc(-c6c([H])c([H])c(Oc7c([H])c([H])c(F)c([H])c7F)c([H])c6[H])c(C(=O)N([H])[H])c5N([H])[H])C4([H])[H])C([H])([H])C3([H])[H])c([H])c([H])c2C1([H])[H]

$$$$
35:0:0
     RDKit          3D

 93102  0  0  1  0  0  0  0  0999 V2000
  -29.3800  -24.3460   19.3470 C   0  0  0  0  0  3  0  0  0  0  0  0
  -27.6760  -24.2100   21.0020 C   0  0  0  0  0  3  0  0  0  0  0  0
  -28.7950  -22.0690   20.2380 C   0  0  0  0  0  0  0  0  0  0  0  0
  -28.4390  -25.0570   20.1500 C   0  0  0  0  0  0  0  0  0  0  0  0
  -29.5550  -22.9180   19.3820 C   0  0  0  0  0  0  0  0  0  0  0  0
  -27.8450  -22.7800   21.0430 C   0  0  0  0  0  0  0  0  0  0  0  0
  -30.4940  -22.3680   18.5750 F   0  0  0  0  0  0  0  0  0  0  0  0
  -27.0640  -22.0760   21.8970 F   0  0  0  0  0  0  0  0  0  0  0  0
  -30.1620  -19.8610   21.0860 C   0  0  0  0  0  2  0  0  0  0  0  0
  -28.9160  -19.6390   18.9820 C   0  0  0  0  0  2  0  0  0  0  0  0
  -30.1380  -18.2840   21.2890 C   0  0  0  0  0  2  0  0  0  0  0  0
  -28.8770  -18.0620   19.1600 C   0  0  0  0  0  2  0  0  0  0  0  0
  -28.9410  -20.4640   20.3120 C   0  0  0  0  0  3  0  0  0  0  0  0
  -30.0350  -17.4010   19.9940 C   0  0  0  0  0  3  0  0  0  0  0  0
  -30.6290  -14.7960   19.9640 C   0  0  0  0  0  0  0  0  0  0  0  0
  -30.3940  -12.5250   18.9460 C   0  0  0  0  0  2  0  0  0  0  0  0
  -29.3820  -12.6140   17.7830 C   0  0  0  0  0  2  0  0  0  0  0  0
  -27.9390  -12.4340   18.2980 C   0  0  0  0  0  2  0  0  0  0  0  0
  -27.6370  -13.2970   19.5500 C   0  0  0  0  0  3  0  0  0  0  0  0
  -28.7640  -13.1930   20.6030 C   0  0  0  0  0  2  0  0  0  0  0  0
  -30.0220  -13.5590   19.9390 N   0  0  0  0  0  0  0  0  0  0  0  0
  -31.7840  -14.9260   19.5490 O   0  0  0  0  0  0  0  0  0  0  0  0
  -29.8360  -15.8990   20.2430 N   0  0  0  0  0  0  0  0  0  0  0  0
  -28.9120  -15.6480   20.5620 H   0  0  0  0  0  0  0  0  0  0  0  0
  -25.3010  -13.8660   20.4510 C   0  0  0  0  0  0  0  0  0  0  0  0
  -24.2620  -13.0800   20.8660 C   0  0  0  0  0  0  0  0  0  0  0  0
  -24.7190  -11.7300   20.7620 C   0  0  0  0  0  0  0  0  0  0  0  0
  -26.3260  -12.9940   20.1190 N   0  0  0  0  0  0  0  0  0  0  0  0
  -25.9870  -11.7040   20.3680 N   0  0  0  0  0  0  0  0  0  0  0  0
  -24.0040  -10.4630   20.9580 C   0  0  0  0  0  0  0  0  0  0  0  0
  -24.4550   -9.4930   21.8800 C   0  0  0  0  0  3  0  0  0  0  0  0
  -23.7390   -8.2910   22.0660 C   0  0  0  0  0  3  0  0  0  0  0  0
  -22.5560   -8.0490   21.3280 C   0  0  0  0  0  0  0  0  0  0  0  0
  -22.1220   -9.0070   20.3940 C   0  0  0  0  0  3  0  0  0  0  0  0
  -22.8400  -10.2010   20.2070 C   0  0  0  0  0  3  0  0  0  0  0  0
  -21.8110   -6.8980   21.4230 O   0  0  0  0  0  0  0  0  0  0  0  0
  -21.7350   -6.1830   22.5900 C   0  0  0  0  0  0  0  0  0  0  0  0
  -21.2510   -6.7590   23.7860 C   0  0  0  0  0  3  0  0  0  0  0  0
  -21.1230   -5.9690   24.9460 C   0  0  0  0  0  3  0  0  0  0  0  0
  -21.4700   -4.6060   24.9120 C   0  0  0  0  0  0  0  0  0  0  0  0
  -21.9470   -4.0290   23.7220 C   0  0  0  0  0  3  0  0  0  0  0  0
  -22.0760   -4.8160   22.5630 C   0  0  0  0  0  0  0  0  0  0  0  0
  -22.5150   -4.2510   21.4140 F   0  0  0  0  0  0  0  0  0  0  0  0
  -21.3410   -3.8450   26.0240 F   0  0  0  0  0  0  0  0  0  0  0  0
  -22.8840  -13.5470   21.2410 C   0  0  0  0  0  0  0  0  0  0  0  0
  -22.2160  -12.8290   22.1360 N   0  0  0  0  0  0  0  0  0  0  0  0
  -22.4140  -14.5850   20.7780 O   0  0  0  0  0  0  0  0  0  0  0  0
  -22.6120  -11.9900   22.5330 H   0  0  0  0  0  0  0  0  0  0  0  0
  -21.2940  -13.1210   22.4280 H   0  0  0  0  0  0  0  0  0  0  0  0
  -25.4540  -15.2410   20.3040 N   0  0  0  0  0  0  0  0  0  0  0  0
  -24.6880  -15.8850   20.4730 H   0  0  0  0  0  0  0  0  0  0  0  0
  -26.2590  -15.6910   19.8860 H   0  0  0  0  0  0  0  0  0  0  0  0
  -28.4070  -26.4930   20.1460 O   0  0  0  0  0  0  0  0  0  0  0  0
  -24.6540  -31.8980   23.2380 C   0  0  0  0  0  0  0  0  0  0  0  0
  -27.2600  -27.3150   20.1690 C   0  0  0  0  0  0  0  0  0  0  0  0
  -23.4480  -30.5120   21.5860 C   0  0  0  0  0  3  0  0  0  0  0  0
  -24.9000  -28.9520   20.1570 C   0  0  0  0  0  0  0  0  0  0  0  0
  -25.9900  -30.8140   21.4120 C   0  0  0  0  0  2  0  0  0  0  0  0
  -26.0660  -29.4310   20.7640 C   0  0  0  0  0  0  0  0  0  0  0  0
  -27.2480  -28.6240   20.7600 C   0  0  0  0  0  3  0  0  0  0  0  0
  -26.0710  -26.8920   19.5400 C   0  0  0  0  0  3  0  0  0  0  0  0
  -24.9050  -27.6910   19.5350 C   0  0  0  0  0  3  0  0  0  0  0  0
  -23.6650  -29.8350   20.2040 C   0  0  0  0  0  2  0  0  0  0  0  0
  -24.7160  -31.0930   22.1350 N   0  0  0  0  0  0  0  0  0  0  0  0
  -23.5700  -32.1770   23.7720 O   0  0  0  0  0  0  0  0  0  0  0  0
  -22.7780  -29.4970   22.5400 C   0  0  0  0  0  0  0  0  0  0  0  0
  -21.4510  -29.3280   22.4130 N   0  0  0  0  0  0  0  0  0  0  0  0
  -23.4530  -28.8600   23.3540 O   0  0  0  0  0  0  0  0  0  0  0  0
  -20.9680  -29.8900   21.7260 H   0  0  0  0  0  0  0  0  0  0  0  0
  -18.0660  -28.1560   22.9180 C   0  0  0  0  0  0  0  0  0  0  0  0
  -20.6270  -28.3890   23.1760 C   0  0  0  0  0  3  0  0  0  0  0  0
  -20.7130  -26.9640   22.5810 C   0  0  0  0  0  2  0  0  0  0  0  0
  -19.6030  -26.6660   21.5670 C   0  0  0  0  0  2  0  0  0  0  0  0
  -18.2270  -26.8140   22.2220 C   0  0  0  0  0  2  0  0  0  0  0  0
  -19.1940  -28.9020   23.3520 C   0  0  0  0  0  0  0  0  0  0  0  0
  -18.9890  -30.1580   23.9640 C   0  0  0  0  0  3  0  0  0  0  0  0
  -17.6900  -30.6690   24.1420 C   0  0  0  0  0  3  0  0  0  0  0  0
  -16.5780  -29.9210   23.7230 C   0  0  0  0  0  3  0  0  0  0  0  0
  -16.7650  -28.6640   23.1180 C   0  0  0  0  0  3  0  0  0  0  0  0
  -25.9360  -32.5230   23.8700 C   0  0  0  0  0  3  0  0  0  0  0  0
  -25.6280  -33.9180   24.2160 N   0  0  0  0  0  0  0  0  0  0  0  0
  -25.9350  -34.9780   23.4570 C   0  0  0  0  0  0  0  0  0  0  0  0
  -26.5780  -34.8850   22.4080 O   0  0  0  0  0  0  0  0  0  0  0  0
  -25.0510  -34.0640   25.0320 H   0  0  0  0  0  0  0  0  0  0  0  0
  -24.1740  -36.7540   23.1810 C   0  0  0  0  0  1  0  0  0  0  0  0
  -25.4540  -36.3630   23.9360 C   0  0  0  0  0  3  0  0  0  0  0  0
  -27.6120  -37.2690   24.6780 C   0  0  0  0  0  1  0  0  0  0  0  0
  -26.4710  -37.4260   23.7800 N   0  0  0  0  0  0  0  0  0  0  0  0
  -26.0630  -38.3430   23.9430 H   0  0  0  0  0  0  0  0  0  0  0  0
  -26.4490  -31.7360   25.1390 C   0  0  1  0  0  0  0  0  0  0  0  0
  -25.3530  -31.4900   26.2020 C   0  0  0  0  0  1  0  0  0  0  0  0
  -27.0290  -30.3610   24.7350 C   0  0  0  0  0  1  0  0  0  0  0  0
  -27.6010  -32.5210   25.8110 C   0  0  0  0  0  1  0  0  0  0  0  0
  1  5  2  0
  1  4  1  0
  2  6  1  0
  3  6  2  0
  4  2  2  0
  5  3  1  0
  6  8  1  0
  7  5  1  0
  9 11  1  0
 10 12  1  0
 10 13  1  0
 12 14  1  0
 13  3  1  0
 13  9  1  0
 14 23  1  0
 14 11  1  0
 15 23  1  0
 16 21  1  0
 17 18  1  0
 17 16  1  0
 19 18  1  0
 19 28  1  0
 19 20  1  0
 21 15  1  0
 21 20  1  0
 22 15  2  0
 23 24  1  0
 25 26  2  0
 26 45  1  0
 27 26  1  0
 27 30  1  0
 28 29  1  0
 28 25  1  0
 29 27  2  0
 30 31  1  0
 31 32  2  0
 33 36  1  0
 33 32  1  0
 34 33  2  0
 35 34  1  0
 35 30  2  0
 36 37  1  0
 37 38  1  0
 38 39  2  0
 40 39  1  0
 40 44  1  0
 41 40  2  0
 42 37  2  0
 42 41  1  0
 43 42  1  0
 45 46  1  0
 46 49  1  0
 46 48  1  0
 47 45  2  0
 50 25  1  0
 50 51  1  0
 52 50  1  0
 53  4  1  0
 53 55  1  0
 54 65  2  0
 55 60  1  0
 56 64  1  0
 56 66  1  0
 57 63  1  0
 57 59  1  0
 58 64  1  0
 59 58  1  0
 60 59  2  0
 61 55  2  0
 62 61  1  0
 62 57  2  0
 63 56  1  0
 64 54  1  0
 66 68  2  0
 67 66  1  0
 69 67  1  0
 70 79  2  0
 70 75  1  0
 71 67  1  0
 71 75  1  0
 72 71  1  0
 73 74  1  0
 73 72  1  0
 74 70  1  0
 75 76  2  0
 76 77  1  0
 78 77  2  0
 79 78  1  0
 80 54  1  0
 80 81  1  0
 80 90  1  0
 81 84  1  0
 82 86  1  0
 82 81  1  0
 83 82  2  0
 86 85  1  0
 88 86  1  0
 88 89  1  0
 88 87  1  0
 90 93  1  1
 90 91  1  0
 92 90  1  0
M  ISO  4   4 101  15 100  23 100  53 101
M  END
>  <TORSDO>  (36) 
F 17

>  <SCORE>  (36) 
-15.063

>  <name>  (36) 
35

>  <ligand_id>  (36) 
35

>  <original_smiles>  (36) 
[H]c1c([H])c([H])c2c(c1[H])C([H])([H])C([H])([H])C([H])([H])C2([H])N([H])C(=O)C1([H])N(C(=O)C([H])(N([H])C(=O)C([H])(N([H])C([H])([H])[H])C([H])([H])[H])C(C([H])([H])[H])(C([H])([H])[H])C([H])([H])[H])C([H])([H])c2c([H])c(Oc3c([H])c(F)c(C4([H])C([H])([H])C([H])([H])C([H])(N([H])C(=O)N5C([H])([H])C([H])([H])C([H])([H])C([H])(n6nc(-c7c([H])c([H])c(Oc8c([H])c([H])c(F)c([H])c8F)c([H])c7[H])c(C(=O)N([H])[H])c6N([H])[H])C5([H])[H])C([H])([H])C4([H])[H])c(F)c3[H])c([H])c([H])c2C1([H])[H]

>  <smiles>  (36) 
[H]c1c([H])c([H])c2c(c1[H])C([H])([H])C([H])([H])C([H])([H])C2([H])N([H])C(=O)C1([H])N(C(=O)C([H])(N([H])C(=O)C([H])(N([H])C([H])([H])[H])C([H])([H])[H])C(C([H])([H])[H])(C([H])([H])[H])C([H])([H])[H])C([H])([H])c2c([H])c(Oc3c([H])c(F)c(C4([H])C([H])([H])C([H])([H])C([H])(N([H])C(=O)N5C([H])([H])C([H])([H])C([H])([H])C([H])(n6nc(-c7c([H])c([H])c(Oc8c([H])c([H])c(F)c([H])c8F)c([H])c7[H])c(C(=O)N([H])[H])c6N([H])[H])C5([H])[H])C([H])([H])C4([H])[H])c(F)c3[H])c([H])c([H])c2C1([H])[H]

$$$$
36:0:0
     RDKit          3D

 94102  0  0  1  0  0  0  0  0999 V2000
  -31.8480  -22.9200   21.3340 C   0  0  0  0  0  3  0  0  0  0  0  0
  -30.4580  -24.4210   20.0840 C   0  0  0  0  0  3  0  0  0  0  0  0
  -30.7630  -22.0390   21.4870 C   0  0  0  0  0  0  0  0  0  0  0  0
  -29.3070  -23.6210   20.2900 C   0  0  0  0  0  0  0  0  0  0  0  0
  -29.5680  -22.1700   20.7120 C   0  0  0  0  0  0  0  0  0  0  0  0
  -31.7280  -24.0610   20.5420 C   0  0  0  0  0  0  0  0  0  0  0  0
  -30.9150  -21.0240   22.6060 C   0  0  0  0  0  1  0  0  0  0  0  0
  -32.8250  -24.8940   20.3320 N   0  0  0  0  0  0  0  0  0  0  0  0
  -33.7580  -24.5300   20.5030 H   0  0  0  0  0  0  0  0  0  0  0  0
  -32.8000  -25.5580   19.5630 H   0  0  0  0  0  0  0  0  0  0  0  0
  -28.9130  -20.6900   20.3020 C   0  0  0  0  0  2  0  0  0  0  0  0
  -29.5990  -19.1390   20.6540 C   0  0  0  0  0  2  0  0  0  0  0  0
  -30.1550  -17.7450   18.4860 C   0  0  0  0  0  1  0  0  0  0  0  0
  -29.4450  -17.6540   19.8460 C   0  0  0  0  0  0  0  0  0  0  0  0
  -30.4120  -15.0140   20.2090 C   0  0  0  0  0  0  0  0  0  0  0  0
  -30.3080  -12.6510   19.2910 C   0  0  0  0  0  2  0  0  0  0  0  0
  -29.3550  -12.6150   18.0730 C   0  0  0  0  0  2  0  0  0  0  0  0
  -27.9020  -12.3930   18.5290 C   0  0  0  0  0  2  0  0  0  0  0  0
  -27.5120  -13.3020   19.7230 C   0  0  0  0  0  3  0  0  0  0  0  0
  -28.5850  -13.3070   20.8320 C   0  0  0  0  0  2  0  0  0  0  0  0
  -29.8470  -13.7360   20.2120 N   0  0  0  0  0  0  0  0  0  0  0  0
  -31.5800  -15.1000   19.8140 O   0  0  0  0  0  0  0  0  0  0  0  0
  -29.6140  -16.1780   20.4500 N   0  0  0  0  0  4  0  0  0  0  0  0
  -28.7720  -15.9010   20.9350 H   0  0  0  0  0  0  0  0  0  0  0  0
  -25.1390  -13.8580   20.5030 C   0  0  0  0  0  0  0  0  0  0  0  0
  -24.0880  -13.0730   20.8910 C   0  0  0  0  0  0  0  0  0  0  0  0
  -24.5610  -11.7260   20.8460 C   0  0  0  0  0  0  0  0  0  0  0  0
  -26.1850  -12.9880   20.2400 N   0  0  0  0  0  0  0  0  0  0  0  0
  -25.8470  -11.7000   20.5130 N   0  0  0  0  0  0  0  0  0  0  0  0
  -23.8480  -10.4570   21.0440 C   0  0  0  0  0  0  0  0  0  0  0  0
  -24.3060   -9.4860   21.9620 C   0  0  0  0  0  3  0  0  0  0  0  0
  -23.5900   -8.2840   22.1490 C   0  0  0  0  0  3  0  0  0  0  0  0
  -22.4040   -8.0410   21.4160 C   0  0  0  0  0  0  0  0  0  0  0  0
  -21.9650   -9.0000   20.4870 C   0  0  0  0  0  3  0  0  0  0  0  0
  -22.6810  -10.1950   20.3000 C   0  0  0  0  0  3  0  0  0  0  0  0
  -21.6580   -6.8920   21.5130 O   0  0  0  0  0  0  0  0  0  0  0  0
  -21.6410   -6.1380   22.6590 C   0  0  0  0  0  0  0  0  0  0  0  0
  -21.2350   -6.6770   23.8980 C   0  0  0  0  0  3  0  0  0  0  0  0
  -21.1700   -5.8500   25.0380 C   0  0  0  0  0  3  0  0  0  0  0  0
  -21.4960   -4.4850   24.9380 C   0  0  0  0  0  0  0  0  0  0  0  0
  -21.8940   -3.9450   23.7030 C   0  0  0  0  0  3  0  0  0  0  0  0
  -21.9640   -4.7690   22.5660 C   0  0  0  0  0  0  0  0  0  0  0  0
  -22.3290   -4.2390   21.3730 F   0  0  0  0  0  0  0  0  0  0  0  0
  -21.4240   -3.6880   26.0310 F   0  0  0  0  0  0  0  0  0  0  0  0
  -22.6920  -13.5390   21.1860 C   0  0  0  0  0  0  0  0  0  0  0  0
  -21.9840  -12.8350   22.0600 N   0  0  0  0  0  0  0  0  0  0  0  0
  -22.2380  -14.5620   20.6750 O   0  0  0  0  0  0  0  0  0  0  0  0
  -22.3640  -12.0070   22.4930 H   0  0  0  0  0  0  0  0  0  0  0  0
  -21.0490  -13.1290   22.3010 H   0  0  0  0  0  0  0  0  0  0  0  0
  -25.2890  -15.2300   20.3230 N   0  0  0  0  0  0  0  0  0  0  0  0
  -24.5160  -15.8770   20.4320 H   0  0  0  0  0  0  0  0  0  0  0  0
  -26.1100  -15.6610   19.9200 H   0  0  0  0  0  0  0  0  0  0  0  0
  -28.0110  -24.6180   20.1170 C   0  0  0  0  0  2  0  0  0  0  0  0
  -28.1840  -26.1800   20.2490 O   0  0  0  0  0  0  0  0  0  0  0  0
  -24.5990  -31.9180   23.2330 C   0  0  0  0  0  0  0  0  0  0  0  0
  -27.1160  -27.1530   20.2040 C   0  0  0  0  0  0  0  0  0  0  0  0
  -23.3760  -30.5270   21.6060 C   0  0  0  0  0  3  0  0  0  0  0  0
  -24.7990  -28.9230   20.1840 C   0  0  0  0  0  0  0  0  0  0  0  0
  -25.9320  -30.7620   21.4270 C   0  0  0  0  0  2  0  0  0  0  0  0
  -25.9860  -29.3630   20.7820 C   0  0  0  0  0  0  0  0  0  0  0  0
  -27.1440  -28.4950   20.7720 C   0  0  0  0  0  3  0  0  0  0  0  0
  -25.9000  -26.8110   19.5770 C   0  0  0  0  0  3  0  0  0  0  0  0
  -24.7700  -27.6620   19.5690 C   0  0  0  0  0  3  0  0  0  0  0  0
  -23.5820  -29.8350   20.2310 C   0  0  0  0  0  2  0  0  0  0  0  0
  -24.6560  -31.0920   22.1440 N   0  0  0  0  0  0  0  0  0  0  0  0
  -23.5180  -32.2180   23.7650 O   0  0  0  0  0  0  0  0  0  0  0  0
  -22.6890  -29.5360   22.5780 C   0  0  0  0  0  0  0  0  0  0  0  0
  -21.3610  -29.3660   22.4460 N   0  0  0  0  0  0  0  0  0  0  0  0
  -23.3540  -28.9210   23.4150 O   0  0  0  0  0  0  0  0  0  0  0  0
  -20.8810  -29.9140   21.7450 H   0  0  0  0  0  0  0  0  0  0  0  0
  -17.9800  -28.1550   22.9200 C   0  0  0  0  0  0  0  0  0  0  0  0
  -20.5330  -28.4390   23.2200 C   0  0  0  0  0  3  0  0  0  0  0  0
  -20.6520  -26.9970   22.6740 C   0  0  0  0  0  2  0  0  0  0  0  0
  -19.5670  -26.6490   21.6490 C   0  0  0  0  0  2  0  0  0  0  0  0
  -18.1750  -26.7970   22.2690 C   0  0  0  0  0  2  0  0  0  0  0  0
  -19.0880  -28.9340   23.3520 C   0  0  0  0  0  0  0  0  0  0  0  0
  -18.8500  -30.2030   23.9200 C   0  0  0  0  0  3  0  0  0  0  0  0
  -17.5390  -30.6980   24.0590 C   0  0  0  0  0  3  0  0  0  0  0  0
  -16.4470  -29.9170   23.6420 C   0  0  0  0  0  3  0  0  0  0  0  0
  -16.6670  -28.6470   23.0800 C   0  0  0  0  0  3  0  0  0  0  0  0
  -25.8850  -32.5430   23.8540 C   0  0  0  0  0  3  0  0  0  0  0  0
  -25.5880  -33.9440   24.1890 N   0  0  0  0  0  0  0  0  0  0  0  0
  -25.9190  -34.9990   23.4310 C   0  0  0  0  0  0  0  0  0  0  0  0
  -26.5710  -34.8920   22.3900 O   0  0  0  0  0  0  0  0  0  0  0  0
  -25.0060  -34.1000   24.9980 H   0  0  0  0  0  0  0  0  0  0  0  0
  -24.1980  -36.8100   23.1170 C   0  0  0  0  0  1  0  0  0  0  0  0
  -25.4520  -36.3910   23.9010 C   0  0  0  0  0  3  0  0  0  0  0  0
  -27.6100  -37.2630   24.6890 C   0  0  0  0  0  1  0  0  0  0  0  0
  -26.4900  -37.4370   23.7660 N   0  0  0  0  0  0  0  0  0  0  0  0
  -26.0940  -38.3600   23.9200 H   0  0  0  0  0  0  0  0  0  0  0  0
  -26.3950  -31.7690   25.1340 C   0  0  1  0  0  0  0  0  0  0  0  0
  -25.3020  -31.5480   26.2040 C   0  0  0  0  0  1  0  0  0  0  0  0
  -26.9610  -30.3830   24.7480 C   0  0  0  0  0  1  0  0  0  0  0  0
  -27.5550  -32.5520   25.7920 C   0  0  0  0  0  1  0  0  0  0  0  0
  1  3  1  0
  2  4  2  0
  2  6  1  0
  3  7  1  0
  4  5  1  0
  5  3  2  0
  6  1  2  0
  8  9  1  0
  8  6  1  0
 10  8  1  0
 11 12  1  0
 11  5  1  0
 13 14  1  0
 14 23  2  0
 14 12  1  0
 15 21  1  0
 15 23  1  0
 16 21  1  0
 17 18  1  0
 17 16  1  0
 19 18  1  0
 19 28  1  0
 19 20  1  0
 21 20  1  0
 22 15  2  0
 23 24  1  0
 25 26  2  0
 26 45  1  0
 27 26  1  0
 27 30  1  0
 28 25  1  0
 28 29  1  0
 29 27  2  0
 30 31  1  0
 31 32  2  0
 33 36  1  0
 33 32  1  0
 34 33  2  0
 35 34  1  0
 35 30  2  0
 36 37  1  0
 37 38  1  0
 38 39  2  0
 40 39  1  0
 40 44  1  0
 41 40  2  0
 42 37  2  0
 42 41  1  0
 43 42  1  0
 45 46  1  0
 46 49  1  0
 46 48  1  0
 47 45  2  0
 50 51  1  0
 50 25  1  0
 52 50  1  0
 53 54  1  0
 53  4  1  0
 55 66  2  0
 56 54  1  0
 56 61  1  0
 57 65  1  0
 57 67  1  0
 58 64  1  0
 58 60  1  0
 59 65  1  0
 60 59  1  0
 61 60  2  0
 62 56  2  0
 63 62  1  0
 63 58  2  0
 64 57  1  0
 65 55  1  0
 67 69  2  0
 68 67  1  0
 70 68  1  0
 71 80  2  0
 71 76  1  0
 72 68  1  0
 72 76  1  0
 73 72  1  0
 74 75  1  0
 74 73  1  0
 75 71  1  0
 76 77  2  0
 77 78  1  0
 79 78  2  0
 80 79  1  0
 81 55  1  0
 81 82  1  0
 81 91  1  0
 82 85  1  0
 83 87  1  0
 83 82  1  0
 84 83  2  0
 87 86  1  0
 89 87  1  0
 89 90  1  0
 89 88  1  0
 91 94  1  1
 91 92  1  0
 93 91  1  0
M  ISO  4  15 100  23 100  53 101  54 101
M  END
>  <TORSDO>  (37) 
F 21

>  <SCORE>  (37) 
-14.426

>  <name>  (37) 
36

>  <ligand_id>  (37) 
36

>  <original_smiles>  (37) 
[H]c1c([H])c([H])c2c(c1[H])C([H])([H])C([H])([H])C([H])([H])C2([H])N([H])C(=O)C1([H])N(C(=O)C([H])(N([H])C(=O)C([H])(N([H])C([H])([H])[H])C([H])([H])[H])C(C([H])([H])[H])(C([H])([H])[H])C([H])([H])[H])C([H])([H])c2c([H])c(OC([H])([H])c3c([H])c(N([H])[H])c([H])c(C([H])([H])[H])c3C([H])([H])C([H])([H])C([H])(N([H])C(=O)N3C([H])([H])C([H])([H])C([H])([H])C([H])(n4nc(-c5c([H])c([H])c(Oc6c([H])c([H])c(F)c([H])c6F)c([H])c5[H])c(C(=O)N([H])[H])c4N([H])[H])C3([H])[H])C([H])([H])[H])c([H])c([H])c2C1([H])[H]

>  <smiles>  (37) 
[H]c1c([H])c([H])c2c(c1[H])C([H])([H])C([H])([H])C([H])([H])C2([H])N([H])C(=O)C1([H])N(C(=O)C([H])(N([H])C(=O)C([H])(N([H])C([H])([H])[H])C([H])([H])[H])C(C([H])([H])[H])(C([H])([H])[H])C([H])([H])[H])C([H])([H])c2c([H])c(OC([H])([H])c3c([H])c(N([H])[H])c([H])c(C([H])([H])[H])c3C([H])([H])C([H])([H])C([H])(N([H])C(=O)N3C([H])([H])C([H])([H])C([H])([H])C([H])(n4nc(-c5c([H])c([H])c(Oc6c([H])c([H])c(F)c([H])c6F)c([H])c5[H])c(C(=O)N([H])[H])c4N([H])[H])C3([H])[H])C([H])([H])[H])c([H])c([H])c2C1([H])[H]

$$$$
37:0:0
     RDKit          3D

 98108  0  0  1  0  0  0  0  0999 V2000
  -29.3310  -22.3540   22.6650 C   0  0  0  0  0  3  0  0  0  0  0  0
  -30.0910  -22.1270   23.8250 C   0  0  0  0  0  3  0  0  0  0  0  0
  -31.6090  -20.7140   22.5440 C   0  0  0  0  0  3  0  0  0  0  0  0
  -29.6800  -21.7480   21.4360 C   0  0  0  0  0  0  0  0  0  0  0  0
  -30.8460  -20.9260   21.3720 C   0  0  0  0  0  0  0  0  0  0  0  0
  -31.2230  -21.2920   23.7700 C   0  0  0  0  0  0  0  0  0  0  0  0
  -28.8380  -21.9990   20.2250 C   0  0  0  0  0  0  0  0  0  0  0  0
  -30.5060  -17.2980   20.6330 C   0  0  0  0  0  3  0  0  0  0  0  0
  -29.4580  -18.4080   20.3130 C   0  0  0  0  0  0  0  0  0  0  0  0
  -28.8040  -20.8040   19.2370 C   0  0  0  0  0  2  0  0  0  0  0  0
  -31.9420  -17.8160   20.7910 C   0  0  0  0  0  2  0  0  0  0  0  0
  -32.2850  -19.1350   20.0670 C   0  0  0  0  0  2  0  0  0  0  0  0
  -29.8940  -19.6660   19.4740 C   0  0  0  0  0  3  0  0  0  0  0  0
  -31.2090  -20.2620   20.0300 C   0  0  1  0  0  0  0  0  0  0  0  0
  -32.0130  -21.0040   25.0290 C   0  0  0  0  0  1  0  0  0  0  0  0
  -31.8060  -21.3340   19.0810 C   0  0  0  0  0  1  0  0  0  0  0  0
  -28.2800  -23.1610   20.0820 N   0  0  0  0  0  0  0  0  0  0  0  0
  -30.1800  -16.0610   20.8770 N   0  0  0  0  0  2  0  0  0  0  0  0
  -28.2730  -18.2820   20.6470 O   0  0  0  0  0  0  0  0  0  0  0  0
  -31.0580  -14.9730   20.6920 C   0  0  0  0  0  0  0  0  0  0  0  0
  -30.7870  -13.0060   19.2520 C   0  0  0  0  0  2  0  0  0  0  0  0
  -29.7550  -13.4080   18.1730 C   0  0  0  0  0  2  0  0  0  0  0  0
  -28.3180  -13.1300   18.6570 C   0  0  0  0  0  2  0  0  0  0  0  0
  -28.0490  -13.6750   20.0850 C   0  0  0  0  0  3  0  0  0  0  0  0
  -29.1940  -13.3120   21.0550 C   0  0  0  0  0  2  0  0  0  0  0  0
  -30.4630  -13.7640   20.4730 N   0  0  0  0  0  0  0  0  0  0  0  0
  -32.2520  -15.1380   20.4460 O   0  0  0  0  0  0  0  0  0  0  0  0
  -25.6290  -14.0140   20.8790 C   0  0  0  0  0  0  0  0  0  0  0  0
  -24.6560  -13.1290   21.2540 C   0  0  0  0  0  0  0  0  0  0  0  0
  -25.2500  -11.8320   21.1810 C   0  0  0  0  0  0  0  0  0  0  0  0
  -26.7500  -13.2480   20.5990 N   0  0  0  0  0  0  0  0  0  0  0  0
  -26.5300  -11.9300   20.8430 N   0  0  0  0  0  0  0  0  0  0  0  0
  -24.6590  -10.4990   21.3550 C   0  0  0  0  0  0  0  0  0  0  0  0
  -24.8260   -9.7680   22.5520 C   0  0  0  0  0  3  0  0  0  0  0  0
  -24.2320   -8.4960   22.7020 C   0  0  0  0  0  3  0  0  0  0  0  0
  -23.4610   -7.9440   21.6530 C   0  0  0  0  0  0  0  0  0  0  0  0
  -23.3170   -8.6670   20.4560 C   0  0  0  0  0  3  0  0  0  0  0  0
  -23.9120   -9.9300   20.3050 C   0  0  0  0  0  3  0  0  0  0  0  0
  -22.8680   -6.7060   21.6990 O   0  0  0  0  0  0  0  0  0  0  0  0
  -22.0030   -6.3600   22.7080 C   0  0  0  0  0  0  0  0  0  0  0  0
  -20.7980   -7.0620   22.9290 C   0  0  0  0  0  3  0  0  0  0  0  0
  -19.9050   -6.6290   23.9290 C   0  0  0  0  0  3  0  0  0  0  0  0
  -20.2100   -5.4940   24.7030 C   0  0  0  0  0  0  0  0  0  0  0  0
  -21.4060   -4.7900   24.4800 C   0  0  0  0  0  3  0  0  0  0  0  0
  -22.2990   -5.2220   23.4840 C   0  0  0  0  0  0  0  0  0  0  0  0
  -23.4400   -4.5280   23.2590 F   0  0  0  0  0  0  0  0  0  0  0  0
  -19.3490   -5.0730   25.6600 F   0  0  0  0  0  0  0  0  0  0  0  0
  -23.2240  -13.4580   21.5650 C   0  0  0  0  0  0  0  0  0  0  0  0
  -22.5920  -12.6800   22.4350 N   0  0  0  0  0  0  0  0  0  0  0  0
  -22.6720  -14.4420   21.0730 O   0  0  0  0  0  0  0  0  0  0  0  0
  -23.0500  -11.8840   22.8570 H   0  0  0  0  0  0  0  0  0  0  0  0
  -21.6360  -12.8840   22.6870 H   0  0  0  0  0  0  0  0  0  0  0  0
  -25.6520  -15.3980   20.7310 N   0  0  0  0  0  0  0  0  0  0  0  0
  -24.8300  -15.9740   20.8790 H   0  0  0  0  0  0  0  0  0  0  0  0
  -26.4560  -15.9260   20.4170 H   0  0  0  0  0  0  0  0  0  0  0  0
  -27.5460  -23.6970   18.9180 C   0  0  0  0  0  2  0  0  0  0  0  0
  -27.6990  -25.2700   18.8900 C   0  0  0  0  0  2  0  0  0  0  0  0
  -26.9750  -26.0690   17.9060 O   0  0  0  0  0  0  0  0  0  0  0  0
  -25.6920  -30.7040   23.2410 C   0  0  0  0  0  0  0  0  0  0  0  0
  -26.1650  -27.0610   18.4420 C   0  0  0  0  0  0  0  0  0  0  0  0
  -23.8060  -30.2120   21.7240 C   0  0  0  0  0  3  0  0  0  0  0  0
  -24.4010  -28.9730   19.5710 C   0  0  0  0  0  0  0  0  0  0  0  0
  -26.2220  -30.0690   20.8830 C   0  0  0  0  0  2  0  0  0  0  0  0
  -25.7640  -29.0070   19.8980 C   0  0  0  0  0  0  0  0  0  0  0  0
  -26.6550  -28.0610   19.3250 C   0  0  0  0  0  3  0  0  0  0  0  0
  -24.7950  -27.0630   18.1150 C   0  0  0  0  0  3  0  0  0  0  0  0
  -23.9130  -28.0040   18.6770 C   0  0  0  0  0  3  0  0  0  0  0  0
  -23.5060  -30.0070   20.2170 C   0  0  0  0  0  2  0  0  0  0  0  0
  -25.2750  -30.3180   22.0020 N   0  0  0  0  0  0  0  0  0  0  0  0
  -24.8820  -31.0020   24.1300 O   0  0  0  0  0  0  0  0  0  0  0  0
  -23.1110  -29.0880   22.5270 C   0  0  0  0  0  0  0  0  0  0  0  0
  -21.7700  -29.0330   22.4470 N   0  0  0  0  0  0  0  0  0  0  0  0
  -23.7720  -28.2780   23.1810 O   0  0  0  0  0  0  0  0  0  0  0  0
  -21.3000  -29.7380   21.8960 H   0  0  0  0  0  0  0  0  0  0  0  0
  -18.3900  -27.7620   22.6000 C   0  0  0  0  0  0  0  0  0  0  0  0
  -20.9120  -28.0360   23.0890 C   0  0  0  0  0  3  0  0  0  0  0  0
  -21.0860  -26.6460   22.4330 C   0  0  0  0  0  2  0  0  0  0  0  0
  -20.0730  -26.3770   21.3150 C   0  0  0  0  0  2  0  0  0  0  0  0
  -18.6420  -26.4620   21.8550 C   0  0  0  0  0  2  0  0  0  0  0  0
  -19.4570  -28.5080   23.1660 C   0  0  0  0  0  0  0  0  0  0  0  0
  -19.1710  -29.7270   23.8200 C   0  0  0  0  0  3  0  0  0  0  0  0
  -17.8490  -30.2010   23.9130 C   0  0  0  0  0  3  0  0  0  0  0  0
  -16.7930  -29.4500   23.3680 C   0  0  0  0  0  3  0  0  0  0  0  0
  -17.0640  -28.2320   22.7170 C   0  0  0  0  0  3  0  0  0  0  0  0
  -27.2090  -30.8130   23.5950 C   0  0  0  0  0  3  0  0  0  0  0  0
  -27.3680  -31.9520   24.5090 N   0  0  0  0  0  0  0  0  0  0  0  0
  -27.9520  -33.1130   24.1820 C   0  0  0  0  0  0  0  0  0  0  0  0
  -28.4810  -33.3120   23.0860 O   0  0  0  0  0  0  0  0  0  0  0  0
  -26.9020  -31.8820   25.4010 H   0  0  0  0  0  0  0  0  0  0  0  0
  -26.9210  -35.3070   24.8540 C   0  0  0  0  0  1  0  0  0  0  0  0
  -27.9490  -34.2320   25.2410 C   0  0  0  0  0  3  0  0  0  0  0  0
  -30.2410  -33.9720   26.0840 C   0  0  0  0  0  1  0  0  0  0  0  0
  -29.2750  -34.8580   25.4410 N   0  0  0  0  0  0  0  0  0  0  0  0
  -29.1940  -35.7010   26.0040 H   0  0  0  0  0  0  0  0  0  0  0  0
  -27.7940  -29.4960   24.2380 C   0  0  1  0  0  0  0  0  0  0  0  0
  -26.9640  -28.9670   25.4300 C   0  0  0  0  0  1  0  0  0  0  0  0
  -27.8840  -28.3630   23.1890 C   0  0  0  0  0  1  0  0  0  0  0  0
  -29.2380  -29.7520   24.7320 C   0  0  0  0  0  1  0  0  0  0  0  0
  1  2  1  0
  3  6  1  0
  4  1  2  0
  5  4  1  0
  5  3  2  0
  6  2  2  0
  6 15  1  0
  7  4  1  0
  8 11  1  0
  8 18  1  0
  9  8  1  0
  9 19  2  0
 10  7  1  0
 12 11  1  0
 13 10  1  0
 13 14  1  0
 13  9  1  0
 14 16  1  6
 14 12  1  0
 14  5  1  0
 17  7  2  0
 20 18  1  0
 21 26  1  0
 22 23  1  0
 22 21  1  0
 24 23  1  0
 24 31  1  0
 24 25  1  0
 26 20  1  0
 26 25  1  0
 27 20  2  0
 28 29  2  0
 29 48  1  0
 30 29  1  0
 30 33  1  0
 31 32  1  0
 31 28  1  0
 32 30  2  0
 33 34  1  0
 34 35  2  0
 36 39  1  0
 36 35  1  0
 37 36  2  0
 38 37  1  0
 38 33  2  0
 39 40  1  0
 40 41  2  0
 40 45  1  0
 41 42  1  0
 42 43  2  0
 43 47  1  0
 44 43  1  0
 45 44  2  0
 46 45  1  0
 48 49  1  0
 49 52  1  0
 49 51  1  0
 50 48  2  0
 53 28  1  0
 53 54  1  0
 55 53  1  0
 56 17  1  0
 57 56  1  0
 58 60  1  0
 58 57  1  0
 59 70  2  0
 60 65  1  0
 61 69  1  0
 61 71  1  0
 62 64  1  0
 62 68  1  0
 63 69  1  0
 64 63  1  0
 65 64  2  0
 66 60  2  0
 66 67  1  0
 67 62  2  0
 68 61  1  0
 69 59  1  0
 71 73  2  0
 72 71  1  0
 74 72  1  0
 75 84  2  0
 75 80  1  0
 76 72  1  0
 76 80  1  0
 77 76  1  0
 78 79  1  0
 78 77  1  0
 79 75  1  0
 80 81  2  0
 81 82  1  0
 83 82  2  0
 84 83  1  0
 85 59  1  0
 85 95  1  0
 85 86  1  0
 86 89  1  0
 87 86  1  0
 87 91  1  0
 88 87  2  0
 91 90  1  0
 91 93  1  0
 93 94  1  0
 93 92  1  0
 95 98  1  1
 95 96  1  0
 97 95  1  0
M  ISO  4  18 100  20 100  57 101  58 101
M  END
>  <TORSDO>  (38) 
F 18

>  <SCORE>  (38) 
-10.761

>  <name>  (38) 
37

>  <ligand_id>  (38) 
37

>  <original_smiles>  (38) 
[H]c1c([H])c([H])c2c(c1[H])C([H])([H])C([H])([H])C([H])([H])C2([H])N([H])C(=O)C1([H])N(C(=O)C([H])(N([H])C(=O)C([H])(N([H])C([H])([H])[H])C([H])([H])[H])C(C([H])([H])[H])(C([H])([H])[H])C([H])([H])[H])C([H])([H])c2c([H])c(OC([H])([H])C([H])([H])N=C3c4c([H])c([H])c(C([H])([H])[H])c([H])c4C4(C([H])([H])[H])C([H])([H])C([H])([H])C(=NC(=O)N5C([H])([H])C([H])([H])C([H])([H])C([H])(n6nc(-c7c([H])c([H])c(Oc8c([H])c([H])c(F)c([H])c8F)c([H])c7[H])c(C(=O)N([H])[H])c6N([H])[H])C5([H])[H])C(=O)C4([H])C3([H])[H])c([H])c([H])c2C1([H])[H]

>  <smiles>  (38) 
[H]c1c([H])c([H])c2c(c1[H])C([H])([H])C([H])([H])C([H])([H])C2([H])N([H])C(=O)C1([H])N(C(=O)C([H])(N([H])C(=O)C([H])(N([H])C([H])([H])[H])C([H])([H])[H])C(C([H])([H])[H])(C([H])([H])[H])C([H])([H])[H])C([H])([H])c2c([H])c(OC([H])([H])C([H])([H])N=C3c4c([H])c([H])c(C([H])([H])[H])c([H])c4C4(C([H])([H])[H])C([H])([H])C([H])([H])C(=NC(=O)N5C([H])([H])C([H])([H])C([H])([H])C([H])(n6nc(-c7c([H])c([H])c(Oc8c([H])c([H])c(F)c([H])c8F)c([H])c7[H])c(C(=O)N([H])[H])c6N([H])[H])C5([H])[H])C(=O)C4([H])C3([H])[H])c([H])c([H])c2C1([H])[H]

$$$$
38:0:0
     RDKit          3D

 93102  0  0  1  0  0  0  0  0999 V2000
  -29.1530  -22.9060   21.2680 C   0  0  0  0  0  3  0  0  0  0  0  0
  -28.1530  -24.2580   19.0630 C   0  0  0  0  0  3  0  0  0  0  0  0
  -28.8910  -22.0840   20.1280 C   0  0  0  0  0  0  0  0  0  0  0  0
  -28.9360  -24.3310   21.3090 C   0  0  0  0  0  0  0  0  0  0  0  0
  -28.4240  -25.0720   20.2010 C   0  0  0  0  0  0  0  0  0  0  0  0
  -28.3620  -22.8350   19.0230 C   0  0  0  0  0  0  0  0  0  0  0  0
  -29.3050  -25.0910   22.5690 C   0  0  0  0  0  1  0  0  0  0  0  0
  -28.0520  -22.2090   17.8640 F   0  0  0  0  0  0  0  0  0  0  0  0
  -28.9220  -19.6770   19.1090 C   0  0  0  0  0  3  0  0  0  0  0  0
  -29.1880  -20.5350   20.1380 C   0  0  0  0  0  0  0  0  0  0  0  0
  -29.1720  -18.1300   19.0330 C   0  0  0  0  0  2  0  0  0  0  0  0
  -29.8500  -19.8310   21.3460 C   0  0  0  0  0  2  0  0  0  0  0  0
  -29.7180  -18.2520   21.4360 C   0  0  0  0  0  2  0  0  0  0  0  0
  -30.0470  -17.4440   20.1430 C   0  0  0  0  0  3  0  0  0  0  0  0
  -30.6410  -14.8330   19.9660 C   0  0  0  0  0  0  0  0  0  0  0  0
  -30.4260  -12.5580   18.9480 C   0  0  0  0  0  2  0  0  0  0  0  0
  -29.4070  -12.6320   17.7880 C   0  0  0  0  0  2  0  0  0  0  0  0
  -27.9700  -12.4360   18.3110 C   0  0  0  0  0  2  0  0  0  0  0  0
  -27.6670  -13.3080   19.5580 C   0  0  0  0  0  3  0  0  0  0  0  0
  -28.7950  -13.2130   20.6080 C   0  0  0  0  0  2  0  0  0  0  0  0
  -30.0470  -13.5910   19.9390 N   0  0  0  0  0  0  0  0  0  0  0  0
  -31.7930  -14.9740   19.5430 O   0  0  0  0  0  0  0  0  0  0  0  0
  -29.8410  -15.9260   20.2720 N   0  0  0  0  0  0  0  0  0  0  0  0
  -28.9210  -15.6580   20.5880 H   0  0  0  0  0  0  0  0  0  0  0  0
  -25.3430  -13.8780   20.4830 C   0  0  0  0  0  0  0  0  0  0  0  0
  -24.3000  -13.0940   20.8940 C   0  0  0  0  0  0  0  0  0  0  0  0
  -24.7500  -11.7430   20.7700 C   0  0  0  0  0  0  0  0  0  0  0  0
  -26.3590  -13.0060   20.1310 N   0  0  0  0  0  0  0  0  0  0  0  0
  -26.0140  -11.7140   20.3660 N   0  0  0  0  0  0  0  0  0  0  0  0
  -24.0290  -10.4770   20.9550 C   0  0  0  0  0  0  0  0  0  0  0  0
  -24.4660   -9.5070   21.8850 C   0  0  0  0  0  3  0  0  0  0  0  0
  -23.7440   -8.3070   22.0580 C   0  0  0  0  0  3  0  0  0  0  0  0
  -22.5730   -8.0660   21.3010 C   0  0  0  0  0  0  0  0  0  0  0  0
  -22.1570   -9.0240   20.3600 C   0  0  0  0  0  3  0  0  0  0  0  0
  -22.8790  -10.2160   20.1850 C   0  0  0  0  0  3  0  0  0  0  0  0
  -21.8240   -6.9180   21.3830 O   0  0  0  0  0  0  0  0  0  0  0  0
  -21.6980   -6.2230   22.5590 C   0  0  0  0  0  0  0  0  0  0  0  0
  -21.1560   -6.8150   23.7200 C   0  0  0  0  0  3  0  0  0  0  0  0
  -20.9820   -6.0450   24.8870 C   0  0  0  0  0  3  0  0  0  0  0  0
  -21.3370   -4.6840   24.8930 C   0  0  0  0  0  0  0  0  0  0  0  0
  -21.8720   -4.0910   23.7370 C   0  0  0  0  0  3  0  0  0  0  0  0
  -22.0490   -4.8570   22.5710 C   0  0  0  0  0  0  0  0  0  0  0  0
  -22.5450   -4.2760   21.4530 F   0  0  0  0  0  0  0  0  0  0  0  0
  -21.1630   -3.9410   26.0120 F   0  0  0  0  0  0  0  0  0  0  0  0
  -22.9310  -13.5640   21.2880 C   0  0  0  0  0  0  0  0  0  0  0  0
  -22.2630  -12.8360   22.1750 N   0  0  0  0  0  0  0  0  0  0  0  0
  -22.4640  -14.6120   20.8440 O   0  0  0  0  0  0  0  0  0  0  0  0
  -22.6550  -11.9870   22.5550 H   0  0  0  0  0  0  0  0  0  0  0  0
  -21.3460  -13.1320   22.4800 H   0  0  0  0  0  0  0  0  0  0  0  0
  -25.5030  -15.2560   20.3540 N   0  0  0  0  0  0  0  0  0  0  0  0
  -24.7440  -15.9020   20.5400 H   0  0  0  0  0  0  0  0  0  0  0  0
  -26.3150  -15.7070   19.9570 H   0  0  0  0  0  0  0  0  0  0  0  0
  -28.3990  -26.5080   20.1920 O   0  0  0  0  0  0  0  0  0  0  0  0
  -24.6540  -31.9370   23.2560 C   0  0  0  0  0  0  0  0  0  0  0  0
  -27.2540  -27.3340   20.2060 C   0  0  0  0  0  0  0  0  0  0  0  0
  -23.4470  -30.5400   21.6170 C   0  0  0  0  0  3  0  0  0  0  0  0
  -24.8920  -28.9740   20.1930 C   0  0  0  0  0  0  0  0  0  0  0  0
  -25.9880  -30.8410   21.4340 C   0  0  0  0  0  2  0  0  0  0  0  0
  -26.0630  -29.4570   20.7920 C   0  0  0  0  0  0  0  0  0  0  0  0
  -27.2430  -28.6480   20.7870 C   0  0  0  0  0  3  0  0  0  0  0  0
  -26.0580  -26.9090   19.5890 C   0  0  0  0  0  3  0  0  0  0  0  0
  -24.8930  -27.7070   19.5840 C   0  0  0  0  0  3  0  0  0  0  0  0
  -23.6600  -29.8580   20.2380 C   0  0  0  0  0  2  0  0  0  0  0  0
  -24.7150  -31.1260   22.1580 N   0  0  0  0  0  0  0  0  0  0  0  0
  -23.5710  -32.2180   23.7910 O   0  0  0  0  0  0  0  0  0  0  0  0
  -22.7790  -29.5290   22.5790 C   0  0  0  0  0  0  0  0  0  0  0  0
  -21.4540  -29.3490   22.4470 N   0  0  0  0  0  0  0  0  0  0  0  0
  -23.4550  -28.9070   23.4050 O   0  0  0  0  0  0  0  0  0  0  0  0
  -20.9690  -29.9000   21.7530 H   0  0  0  0  0  0  0  0  0  0  0  0
  -18.0750  -28.1580   22.9480 C   0  0  0  0  0  0  0  0  0  0  0  0
  -20.6340  -28.4120   23.2180 C   0  0  0  0  0  3  0  0  0  0  0  0
  -20.7320  -26.9820   22.6390 C   0  0  0  0  0  2  0  0  0  0  0  0
  -19.6300  -26.6650   21.6240 C   0  0  0  0  0  2  0  0  0  0  0  0
  -18.2480  -26.8110   22.2700 C   0  0  0  0  0  2  0  0  0  0  0  0
  -19.1950  -28.9180   23.3790 C   0  0  0  0  0  0  0  0  0  0  0  0
  -18.9790  -30.1800   23.9740 C   0  0  0  0  0  3  0  0  0  0  0  0
  -17.6750  -30.6820   24.1430 C   0  0  0  0  0  3  0  0  0  0  0  0
  -16.5690  -29.9200   23.7280 C   0  0  0  0  0  3  0  0  0  0  0  0
  -16.7690  -28.6590   23.1370 C   0  0  0  0  0  3  0  0  0  0  0  0
  -25.9370  -32.5670   23.8800 C   0  0  0  0  0  3  0  0  0  0  0  0
  -25.6270  -33.9640   24.2190 N   0  0  0  0  0  0  0  0  0  0  0  0
  -25.9350  -35.0200   23.4550 C   0  0  0  0  0  0  0  0  0  0  0  0
  -26.5800  -34.9220   22.4070 O   0  0  0  0  0  0  0  0  0  0  0  0
  -25.0500  -34.1130   25.0330 H   0  0  0  0  0  0  0  0  0  0  0  0
  -24.1790  -36.7980   23.1620 C   0  0  0  0  0  1  0  0  0  0  0  0
  -25.4530  -36.4060   23.9280 C   0  0  0  0  0  3  0  0  0  0  0  0
  -27.6060  -37.3160   24.6830 C   0  0  0  0  0  1  0  0  0  0  0  0
  -26.4710  -37.4690   23.7760 N   0  0  0  0  0  0  0  0  0  0  0  0
  -26.0620  -38.3850   23.9330 H   0  0  0  0  0  0  0  0  0  0  0  0
  -26.4540  -31.7910   25.1530 C   0  0  1  0  0  0  0  0  0  0  0  0
  -25.3610  -31.5440   26.2190 C   0  0  0  0  0  1  0  0  0  0  0  0
  -27.0430  -30.4170   24.7570 C   0  0  0  0  0  1  0  0  0  0  0  0
  -27.6030  -32.5850   25.8200 C   0  0  0  0  0  1  0  0  0  0  0  0
  1  4  1  0
  2  5  1  0
  3 10  1  0
  3  1  2  0
  4  7  1  0
  5  4  2  0
  6  2  2  0
  6  3  1  0
  8  6  1  0
  9 10  2  0
 10 12  1  0
 11  9  1  0
 11 14  1  0
 12 13  1  0
 14 23  1  0
 14 13  1  0
 15 23  1  0
 16 21  1  0
 17 18  1  0
 17 16  1  0
 19 18  1  0
 19 28  1  0
 19 20  1  0
 21 15  1  0
 21 20  1  0
 22 15  2  0
 23 24  1  0
 25 26  2  0
 26 45  1  0
 27 26  1  0
 27 30  1  0
 28 29  1  0
 28 25  1  0
 29 27  2  0
 30 31  1  0
 31 32  2  0
 33 36  1  0
 33 32  1  0
 34 33  2  0
 35 34  1  0
 35 30  2  0
 36 37  1  0
 37 42  2  0
 37 38  1  0
 38 39  2  0
 39 40  1  0
 40 44  1  0
 41 40  2  0
 42 41  1  0
 43 42  1  0
 45 46  1  0
 46 49  1  0
 46 48  1  0
 47 45  2  0
 50 25  1  0
 50 51  1  0
 52 50  1  0
 53  5  1  0
 53 55  1  0
 54 65  2  0
 55 60  1  0
 56 64  1  0
 56 66  1  0
 57 63  1  0
 57 59  1  0
 58 64  1  0
 59 58  1  0
 60 59  2  0
 61 55  2  0
 62 61  1  0
 62 57  2  0
 63 56  1  0
 64 54  1  0
 66 68  2  0
 67 66  1  0
 69 67  1  0
 70 79  2  0
 70 75  1  0
 71 67  1  0
 71 75  1  0
 72 71  1  0
 73 74  1  0
 73 72  1  0
 74 70  1  0
 75 76  2  0
 76 77  1  0
 78 77  2  0
 79 78  1  0
 80 54  1  0
 80 81  1  0
 80 90  1  0
 81 84  1  0
 82 86  1  0
 82 81  1  0
 83 82  2  0
 86 85  1  0
 88 86  1  0
 88 89  1  0
 88 87  1  0
 90 93  1  1
 90 91  1  0
 92 90  1  0
M  ISO  4   5 101  15 100  23 100  53 101
M  END
>  <TORSDO>  (39) 
F 17

>  <SCORE>  (39) 
-14.776

>  <name>  (39) 
38

>  <ligand_id>  (39) 
38

>  <original_smiles>  (39) 
[H]C1=C(c2c([H])c(C([H])([H])[H])c(Oc3c([H])c([H])c4c(c3[H])C([H])([H])N(C(=O)C([H])(N([H])C(=O)C([H])(N([H])C([H])([H])[H])C([H])([H])[H])C(C([H])([H])[H])(C([H])([H])[H])C([H])([H])[H])C([H])(C(=O)N([H])C3([H])c5c([H])c([H])c([H])c([H])c5C([H])([H])C([H])([H])C3([H])[H])C4([H])[H])c([H])c2F)C([H])([H])C([H])([H])C([H])(N([H])C(=O)N2C([H])([H])C([H])([H])C([H])([H])C([H])(n3nc(-c4c([H])c([H])c(Oc5c([H])c([H])c(F)c([H])c5F)c([H])c4[H])c(C(=O)N([H])[H])c3N([H])[H])C2([H])[H])C1([H])[H]

>  <smiles>  (39) 
[H]C1=C(c2c([H])c(C([H])([H])[H])c(Oc3c([H])c([H])c4c(c3[H])C([H])([H])N(C(=O)C([H])(N([H])C(=O)C([H])(N([H])C([H])([H])[H])C([H])([H])[H])C(C([H])([H])[H])(C([H])([H])[H])C([H])([H])[H])C([H])(C(=O)N([H])C3([H])c5c([H])c([H])c([H])c([H])c5C([H])([H])C([H])([H])C3([H])[H])C4([H])[H])c([H])c2F)C([H])([H])C([H])([H])C([H])(N([H])C(=O)N2C([H])([H])C([H])([H])C([H])([H])C([H])(n3nc(-c4c([H])c([H])c(Oc5c([H])c([H])c(F)c([H])c5F)c([H])c4[H])c(C(=O)N([H])[H])c3N([H])[H])C2([H])[H])C1([H])[H]

$$$$
39:0:0
     RDKit          3D

 95101  0  0  1  0  0  0  0  0999 V2000
  -30.3510  -23.6830   20.1250 C   0  0  0  0  0  0  0  0  0  0  0  0
  -31.0430  -23.0010   19.0160 C   0  0  0  0  0  0  0  0  0  0  0  0
  -30.9980  -24.4080   21.0590 C   0  0  0  0  0  2  0  0  0  0  0  0
  -30.1480  -22.0390   18.2440 C   0  0  0  0  0  2  0  0  0  0  0  0
  -28.8560  -23.4580   20.0450 C   0  0  0  0  0  1  0  0  0  0  0  0
  -29.2010  -21.5110   19.3240 C   0  0  0  0  0  1  0  0  0  0  0  0
  -32.2260  -23.1620   18.7020 O   0  0  0  0  0  0  0  0  0  0  0  0
  -28.4230  -25.3070   19.8670 O   0  0  0  0  0  1  0  0  0  0  0  0
  -24.4730  -31.5640   23.0600 C   0  0  0  0  0  0  0  0  0  0  0  0
  -27.3370  -26.5120   19.9970 C   0  0  0  0  0  0  0  0  0  0  0  0
  -23.3910  -30.1130   21.4060 C   0  0  0  0  0  3  0  0  0  0  0  0
  -24.9440  -28.5380   19.9880 C   0  0  0  0  0  0  0  0  0  0  0  0
  -25.9720  -30.3620   21.3080 C   0  0  0  0  0  2  0  0  0  0  0  0
  -26.1280  -28.9200   20.6290 C   0  0  0  0  0  0  0  0  0  0  0  0
  -27.2950  -27.9470   20.5840 C   0  0  0  0  0  3  0  0  0  0  0  0
  -26.0930  -26.4000   19.3050 C   0  0  0  0  0  3  0  0  0  0  0  0
  -24.9770  -27.3090   19.3030 C   0  0  0  0  0  3  0  0  0  0  0  0
  -23.6890  -29.4390   20.0340 C   0  0  0  0  0  2  0  0  0  0  0  0
  -24.6380  -30.7190   21.9780 N   0  0  0  0  0  0  0  0  0  0  0  0
  -23.3580  -31.7860   23.5680 O   0  0  0  0  0  0  0  0  0  0  0  0
  -22.7250  -29.0890   22.3680 C   0  0  0  0  0  0  0  0  0  0  0  0
  -21.4060  -28.8390   22.2360 N   0  0  0  0  0  0  0  0  0  0  0  0
  -23.4150  -28.5120   23.2120 O   0  0  0  0  0  0  0  0  0  0  0  0
  -20.8920  -29.3550   21.5360 H   0  0  0  0  0  0  0  0  0  0  0  0
  -18.1410  -27.2880   22.6600 C   0  0  0  0  0  0  0  0  0  0  0  0
  -20.6500  -27.8320   22.9950 C   0  0  0  0  0  3  0  0  0  0  0  0
  -20.9170  -26.4080   22.4490 C   0  0  0  0  0  2  0  0  0  0  0  0
  -19.8910  -25.9600   21.4050 C   0  0  0  0  0  2  0  0  0  0  0  0
  -18.4810  -25.9630   22.0000 C   0  0  0  0  0  2  0  0  0  0  0  0
  -19.1580  -28.1730   23.1110 C   0  0  0  0  0  0  0  0  0  0  0  0
  -18.7800  -29.4040   23.6900 C   0  0  0  0  0  3  0  0  0  0  0  0
  -17.4230  -29.7560   23.8160 C   0  0  0  0  0  3  0  0  0  0  0  0
  -16.4220  -28.8730   23.3770 C   0  0  0  0  0  3  0  0  0  0  0  0
  -16.7820  -27.6390   22.8060 C   0  0  0  0  0  3  0  0  0  0  0  0
  -25.6760  -32.3060   23.7170 C   0  0  0  0  0  3  0  0  0  0  0  0
  -25.2690  -33.6960   24.0150 N   0  0  0  0  0  0  0  0  0  0  0  0
  -25.6000  -34.7740   23.2930 C   0  0  0  0  0  0  0  0  0  0  0  0
  -26.3320  -34.7070   22.3030 O   0  0  0  0  0  0  0  0  0  0  0  0
  -24.6260  -33.8150   24.7830 H   0  0  0  0  0  0  0  0  0  0  0  0
  -23.8190  -36.5060   22.8600 C   0  0  0  0  0  1  0  0  0  0  0  0
  -25.0330  -36.1430   23.7310 C   0  0  0  0  0  3  0  0  0  0  0  0
  -27.0870  -37.1150   24.6680 C   0  0  0  0  0  1  0  0  0  0  0  0
  -26.0240  -37.2420   23.6750 N   0  0  0  0  0  0  0  0  0  0  0  0
  -25.5680  -38.1400   23.8130 H   0  0  0  0  0  0  0  0  0  0  0  0
  -26.1680  -31.6150   25.0510 C   0  0  1  0  0  0  0  0  0  0  0  0
  -25.0400  -31.3670   26.0810 C   0  0  0  0  0  1  0  0  0  0  0  0
  -26.8340  -30.2550   24.7620 C   0  0  0  0  0  1  0  0  0  0  0  0
  -27.2510  -32.4910   25.7260 C   0  0  0  0  0  1  0  0  0  0  0  0
  -30.0920  -19.6340   19.7090 C   0  0  0  0  0  2  0  0  0  0  0  0
  -30.6360  -16.2370   19.7720 C   0  0  0  0  0  0  0  0  0  0  0  0
  -30.7480  -13.5410   19.1940 C   0  0  0  0  0  2  0  0  0  0  0  0
  -29.8770  -12.8630   18.0870 C   0  0  0  0  0  2  0  0  0  0  0  0
  -28.4750  -12.5150   18.6050 C   0  0  0  0  0  2  0  0  0  0  0  0
  -27.9440  -13.6420   19.5120 C   0  0  0  0  0  3  0  0  0  0  0  0
  -28.9730  -14.1820   20.5450 C   0  0  0  0  0  2  0  0  0  0  0  0
  -30.0890  -14.8270   19.7820 N   0  0  0  0  0  0  0  0  0  0  0  0
  -31.8740  -16.0410   19.7330 O   0  0  0  0  0  0  0  0  0  0  0  0
  -29.9530  -17.7320   19.6370 N   0  0  0  0  0  0  0  0  0  0  0  0
  -28.9680  -17.5400   19.5270 H   0  0  0  0  0  0  0  0  0  0  0  0
  -25.6610  -14.2930   20.3910 C   0  0  0  0  0  0  0  0  0  0  0  0
  -24.5550  -13.5800   20.7500 C   0  0  0  0  0  0  0  0  0  0  0  0
  -24.9160  -12.2020   20.6420 C   0  0  0  0  0  0  0  0  0  0  0  0
  -26.6290  -13.3610   20.0760 N   0  0  0  0  0  0  0  0  0  0  0  0
  -26.1950  -12.0880   20.2890 N   0  0  0  0  0  0  0  0  0  0  0  0
  -24.0920  -10.9930   20.7950 C   0  0  0  0  0  0  0  0  0  0  0  0
  -24.4840   -9.9310   21.6380 C   0  0  0  0  0  3  0  0  0  0  0  0
  -23.6600   -8.7940   21.7910 C   0  0  0  0  0  3  0  0  0  0  0  0
  -22.4280   -8.7120   21.1010 C   0  0  0  0  0  0  0  0  0  0  0  0
  -22.0500   -9.7630   20.2470 C   0  0  0  0  0  3  0  0  0  0  0  0
  -22.8740  -10.8900   20.0910 C   0  0  0  0  0  3  0  0  0  0  0  0
  -21.5780   -7.6330   21.1650 O   0  0  0  0  0  0  0  0  0  0  0  0
  -21.5650   -6.7890   22.2470 C   0  0  0  0  0  0  0  0  0  0  0  0
  -21.3270   -7.2600   23.5570 C   0  0  0  0  0  3  0  0  0  0  0  0
  -21.2530   -6.3500   24.6300 C   0  0  0  0  0  3  0  0  0  0  0  0
  -21.4100   -4.9710   24.3960 C   0  0  0  0  0  0  0  0  0  0  0  0
  -21.6430   -4.5000   23.0920 C   0  0  0  0  0  3  0  0  0  0  0  0
  -21.7190   -5.4070   22.0210 C   0  0  0  0  0  0  0  0  0  0  0  0
  -21.9210   -4.9440   20.7630 F   0  0  0  0  0  0  0  0  0  0  0  0
  -21.3310   -4.0950   25.4250 F   0  0  0  0  0  0  0  0  0  0  0  0
  -23.2070  -14.1530   21.0730 C   0  0  0  0  0  0  0  0  0  0  0  0
  -22.4470  -13.4870   21.9330 N   0  0  0  0  0  0  0  0  0  0  0  0
  -22.8440  -15.2290   20.6000 O   0  0  0  0  0  0  0  0  0  0  0  0
  -22.7560  -12.6140   22.3370 H   0  0  0  0  0  0  0  0  0  0  0  0
  -21.5430  -13.8550   22.1950 H   0  0  0  0  0  0  0  0  0  0  0  0
  -25.9230  -15.6550   20.2710 N   0  0  0  0  0  0  0  0  0  0  0  0
  -25.2110  -16.3580   20.4380 H   0  0  0  0  0  0  0  0  0  0  0  0
  -26.7990  -16.0440   19.9510 H   0  0  0  0  0  0  0  0  0  0  0  0
  -30.5640  -20.5830   23.3570 C   0  0  0  0  0  3  0  0  0  0  0  0
  -29.9930  -20.2690   22.1120 C   0  0  0  0  0  3  0  0  0  0  0  0
  -31.9590  -20.5370   23.5150 C   0  0  0  0  0  3  0  0  0  0  0  0
  -30.8050  -19.9000   21.0200 C   0  0  0  0  0  0  0  0  0  0  0  0
  -32.2160  -19.8180   21.1870 C   0  0  0  0  0  0  0  0  0  0  0  0
  -32.7810  -20.1590   22.4370 C   0  0  0  0  0  0  0  0  0  0  0  0
  -33.1560  -19.3870   20.0660 C   0  0  0  0  0  1  0  0  0  0  0  0
  -34.1230  -20.1340   22.6070 F   0  0  0  0  0  0  0  0  0  0  0  0
  1  3  2  0
  2  1  1  0
  4  2  1  0
  4  6  1  0
  5  1  1  0
  7  2  2  0
  8 10  1  0
  9 20  2  0
 10 15  1  0
 11 19  1  0
 11 21  1  0
 12 18  1  0
 12 14  1  0
 13 19  1  0
 14 13  1  0
 15 14  2  0
 16 10  2  0
 17 16  1  0
 17 12  2  0
 18 11  1  0
 19  9  1  0
 21 23  2  0
 22 21  1  0
 24 22  1  0
 25 34  2  0
 25 30  1  0
 26 22  1  0
 26 30  1  0
 27 26  1  0
 28 29  1  0
 28 27  1  0
 29 25  1  0
 30 31  2  0
 31 32  1  0
 33 32  2  0
 34 33  1  0
 35  9  1  0
 35 36  1  0
 35 45  1  0
 36 39  1  0
 37 41  1  0
 37 36  1  0
 38 37  2  0
 41 40  1  0
 43 41  1  0
 43 44  1  0
 43 42  1  0
 45 48  1  1
 45 46  1  0
 47 45  1  0
 49 91  1  0
 50 56  1  0
 51 56  1  0
 52 53  1  0
 52 51  1  0
 54 53  1  0
 54 63  1  0
 54 55  1  0
 56 55  1  0
 57 50  2  0
 58 49  1  0
 58 50  1  0
 59 58  1  0
 60 61  2  0
 61 80  1  0
 62 61  1  0
 62 65  1  0
 63 64  1  0
 63 60  1  0
 64 62  2  0
 65 66  1  0
 66 67  2  0
 68 71  1  0
 68 67  1  0
 69 68  2  0
 70 69  1  0
 70 65  2  0
 71 72  1  0
 72 73  1  0
 73 74  2  0
 75 74  1  0
 75 79  1  0
 76 75  2  0
 77 72  2  0
 77 76  1  0
 78 77  1  0
 80 81  1  0
 81 84  1  0
 81 83  1  0
 82 80  2  0
 85 60  1  0
 85 86  1  0
 87 85  1  0
 88 90  1  0
 89 88  2  0
 91 92  2  0
 91 89  1  0
 92 93  1  0
 93 95  1  0
 93 90  2  0
 94 92  1  0
M  ISO  4   5 101   8 101  50 100  58 100
M  END
>  <TORSDO>  (40) 
F 18

>  <SCORE>  (40) 
-15.390

>  <name>  (40) 
39

>  <ligand_id>  (40) 
39

>  <original_smiles>  (40) 
[H]C([H])=C1C(=O)C([H])([H])C([H])(C([H])(c2c([H])c([H])c([H])c(F)c2C([H])([H])[H])N([H])C(=O)N2C([H])([H])C([H])([H])C([H])([H])C([H])(n3nc(-c4c([H])c([H])c(Oc5c([H])c([H])c(F)c([H])c5F)c([H])c4[H])c(C(=O)N([H])[H])c3N([H])[H])C2([H])[H])C1([H])Oc1c([H])c([H])c2c(c1[H])C([H])([H])N(C(=O)C([H])(N([H])C(=O)C([H])(N([H])C([H])([H])[H])C([H])([H])[H])C(C([H])([H])[H])(C([H])([H])[H])C([H])([H])[H])C([H])(C(=O)N([H])C1([H])c3c([H])c([H])c([H])c([H])c3C([H])([H])C([H])([H])C1([H])[H])C2([H])[H]

>  <smiles>  (40) 
[H]C([H])=C1C(=O)C([H])([H])C([H])(C([H])(c2c([H])c([H])c([H])c(F)c2C([H])([H])[H])N([H])C(=O)N2C([H])([H])C([H])([H])C([H])([H])C([H])(n3nc(-c4c([H])c([H])c(Oc5c([H])c([H])c(F)c([H])c5F)c([H])c4[H])c(C(=O)N([H])[H])c3N([H])[H])C2([H])[H])C1([H])Oc1c([H])c([H])c2c(c1[H])C([H])([H])N(C(=O)C([H])(N([H])C(=O)C([H])(N([H])C([H])([H])[H])C([H])([H])[H])C(C([H])([H])[H])(C([H])([H])[H])C([H])([H])[H])C([H])(C(=O)N([H])C1([H])c3c([H])c([H])c([H])c([H])c3C([H])([H])C([H])([H])C1([H])[H])C2([H])[H]

$$$$
40:0:0
     RDKit          3D

 99103  0  0  1  0  0  0  0  0999 V2000
  -24.9650  -25.8920   28.2840 C   0  0  0  0  0  2  0  0  0  0  0  0
  -23.7020  -27.3170   28.4190 C   0  0  0  0  0  1  0  0  0  0  0  0
  -26.9700  -27.5350   26.8670 C   0  0  0  0  0  2  0  0  0  0  0  0
  -26.5110  -26.1050   27.3160 C   0  0  0  0  0  3  0  0  0  0  0  0
  -24.2610  -28.9310   27.2210 C   0  0  0  0  0  1  0  0  0  0  0  0
  -26.1580  -28.9820   26.8230 C   0  0  0  0  0  3  0  0  0  0  0  0
  -23.4470  -28.9780   24.5490 C   0  0  0  0  0 15  0  0  0  0  0  0
  -25.3030  -29.5630   23.5920 C   0  0  0  0  0 15  0  0  0  0  0  0
  -28.2020  -28.4780   24.7880 C   0  0  0  0  0  3  0  0  0  0  0  0
  -29.1480  -29.2130   23.8210 C   0  0  0  0  0  2  0  0  0  0  0  0
  -27.1930  -29.4540   25.7380 C   0  0  0  0  0  3  0  0  0  0  0  0
  -26.9380  -30.2410   24.5730 C   0  0  0  0  0  2  0  0  0  0  0  0
  -28.8580  -30.2200   24.8540 C   0  0  1  0  0  0  0  0  0  0  0  0
  -27.6510  -25.1560   26.3820 C   0  0  0  0  0  0  0  0  0  0  0  0
  -27.9700  -25.1400   24.8540 N   0  0  0  0  0  0  0  0  0  0  0  0
  -28.2690  -24.3320   27.0560 O   0  0  0  0  0  0  0  0  0  0  0  0
  -27.3760  -25.8400   24.4380 H   0  0  0  0  0  0  0  0  0  0  0  0
  -28.8770  -24.3600   23.5370 C   0  0  0  0  0  2  0  0  0  0  0  0
  -29.6790  -24.7800   21.8190 C   0  0  0  0  0  2  0  0  0  0  0  0
  -29.5880  -24.3020   19.9360 C   0  0  0  0  0  2  0  0  0  0  0  0
  -30.4160  -23.1850   18.5720 C   0  0  0  0  0  2  0  0  0  0  0  0
  -31.0360  -23.2570   16.7280 C   0  0  0  0  0  2  0  0  0  0  0  0
  -30.7370  -22.7070   14.9440 C   0  0  0  0  0  0  0  0  0  0  0  0
  -31.2800  -21.1120   12.8120 C   0  0  0  0  0  2  0  0  0  0  0  0
  -31.2150  -19.5640   13.0520 C   0  0  0  0  0  2  0  0  0  0  0  0
  -32.4460  -19.0590   13.8260 C   0  0  0  0  0  2  0  0  0  0  0  0
  -32.7950  -20.0510   14.9570 C   0  0  0  0  0  3  0  0  0  0  0  0
  -32.9280  -21.4940   14.4550 C   0  0  0  0  0  2  0  0  0  0  0  0
  -31.5830  -21.8920   14.1030 N   0  0  0  0  0  0  0  0  0  0  0  0
  -29.7260  -22.9910   14.2520 O   0  0  0  0  0  0  0  0  0  0  0  0
  -34.1040  -19.6450   17.0790 C   0  0  0  0  0  0  0  0  0  0  0  0
  -35.3820  -19.2310   17.3030 C   0  0  0  0  0  0  0  0  0  0  0  0
  -35.9760  -19.0610   16.0130 C   0  0  0  0  0  0  0  0  0  0  0  0
  -33.9680  -19.6900   15.7070 N   0  0  0  0  0  0  0  0  0  0  0  0
  -35.1230  -19.4050   15.0600 N   0  0  0  0  0  0  0  0  0  0  0  0
  -37.2850  -18.5290   15.6320 C   0  0  0  0  0  0  0  0  0  0  0  0
  -38.0850  -19.1590   14.6530 C   0  0  0  0  0  3  0  0  0  0  0  0
  -39.3490  -18.6310   14.3170 C   0  0  0  0  0  3  0  0  0  0  0  0
  -39.8240  -17.4650   14.9640 C   0  0  0  0  0  0  0  0  0  0  0  0
  -39.0130  -16.8300   15.9210 C   0  0  0  0  0  3  0  0  0  0  0  0
  -37.7540  -17.3540   16.2500 C   0  0  0  0  0  3  0  0  0  0  0  0
  -41.0280  -16.8650   14.6870 O   0  0  0  0  0  0  0  0  0  0  0  0
  -42.0080  -17.5160   13.9810 C   0  0  0  0  0  0  0  0  0  0  0  0
  -42.5260  -18.7620   14.3990 C   0  0  0  0  0  3  0  0  0  0  0  0
  -43.5810  -19.3610   13.6820 C   0  0  0  0  0  3  0  0  0  0  0  0
  -44.1230  -18.7160   12.5560 C   0  0  0  0  0  0  0  0  0  0  0  0
  -43.6120  -17.4730   12.1400 C   0  0  0  0  0  3  0  0  0  0  0  0
  -42.5580  -16.8740   12.8530 C   0  0  0  0  0  0  0  0  0  0  0  0
  -42.0820  -15.6680   12.4630 F   0  0  0  0  0  0  0  0  0  0  0  0
  -45.1420  -19.2870   11.8720 F   0  0  0  0  0  0  0  0  0  0  0  0
  -35.9850  -18.9160   18.6370 C   0  0  0  0  0  0  0  0  0  0  0  0
  -37.3010  -19.0380   18.7600 N   0  0  0  0  0  0  0  0  0  0  0  0
  -35.2800  -18.6060   19.5970 O   0  0  0  0  0  0  0  0  0  0  0  0
  -37.8770  -19.3120   17.9780 H   0  0  0  0  0  0  0  0  0  0  0  0
  -37.7390  -18.8570   19.6530 H   0  0  0  0  0  0  0  0  0  0  0  0
  -33.0380  -19.9630   17.9180 N   0  0  0  0  0  0  0  0  0  0  0  0
  -33.1040  -19.8810   18.9260 H   0  0  0  0  0  0  0  0  0  0  0  0
  -32.1030  -20.1730   17.5950 H   0  0  0  0  0  0  0  0  0  0  0  0
  -30.0770  -29.6780   26.0620 O   0  0  0  0  0  0  0  0  0  0  0  0
  -27.7480  -32.9210   31.7670 C   0  0  0  0  0  0  0  0  0  0  0  0
  -29.9290  -29.1560   27.3870 C   0  0  0  0  0  3  0  0  0  0  0  0
  -29.6760  -32.9530   30.3780 C   0  0  0  0  0  3  0  0  0  0  0  0
  -30.6500  -30.8510   29.3340 C   0  0  0  0  0  0  0  0  0  0  0  0
  -28.6320  -30.7140   30.8170 C   0  0  0  0  0  2  0  0  0  0  0  0
  -29.4060  -30.2550   29.5450 C   0  0  0  0  0  0  0  0  0  0  0  0
  -28.9590  -29.4430   28.4460 C   0  0  0  0  0  3  0  0  0  0  0  0
  -31.2260  -29.1290   27.7470 C   0  0  0  0  0  2  0  0  0  0  0  0
  -31.5850  -30.2390   28.4930 C   0  0  0  0  0  3  0  0  0  0  0  0
  -30.9530  -32.1540   30.0100 C   0  0  0  0  0  2  0  0  0  0  0  0
  -28.7240  -32.1740   31.1570 N   0  0  0  0  0  0  0  0  0  0  0  0
  -27.8190  -34.1630   31.8470 O   0  0  0  0  0  0  0  0  0  0  0  0
  -28.7630  -33.2570   29.1970 C   0  0  0  0  0  0  0  0  0  0  0  0
  -29.2540  -33.6770   28.1280 N   0  0  0  0  0  2  0  0  0  0  0  0
  -27.5720  -33.1920   29.1470 O   0  0  0  0  0  0  0  0  0  0  0  0
  -30.1530  -34.0400   28.4130 H   0  0  0  0  0  0  0  0  0  0  0  0
  -28.5230  -36.5540   24.5540 C   0  0  0  0  0  0  0  0  0  0  0  0
  -29.6820  -33.5290   25.2780 C   0  0  0  0  0  1  0  0  0  0  0  0
  -31.1460  -33.9900   25.0760 C   0  0  0  0  0  1  0  0  0  0  0  0
  -31.3640  -36.5620   26.0360 C   0  0  0  0  0  1  0  0  0  0  0  0
  -29.7630  -37.4370   25.3910 C   0  0  0  0  0  3  0  0  0  0  0  0
  -28.4190  -35.0040   24.3990 C   0  0  0  0  0  2  0  0  0  0  0  0
  -26.9180  -34.8920   24.4000 C   0  0  0  0  0  2  0  0  0  0  0  0
  -25.8850  -35.8710   24.6190 C   0  0  0  0  0  2  0  0  0  0  0  0
  -26.1640  -37.1620   24.2250 C   0  0  0  0  0  2  0  0  0  0  0  0
  -27.5190  -37.4440   24.0690 C   0  0  0  0  0  2  0  0  0  0  0  0
  -26.4960  -32.2400   32.3370 C   0  0  0  0  0  3  0  0  0  0  0  0
  -26.9470  -30.8920   32.6780 N   0  0  0  0  0  0  0  0  0  0  0  0
  -26.3590  -29.7820   32.2310 C   0  0  0  0  0  0  0  0  0  0  0  0
  -25.3170  -29.8010   31.5700 O   0  0  0  0  0  0  0  0  0  0  0  0
  -27.8270  -30.8150   33.1650 H   0  0  0  0  0  0  0  0  0  0  0  0
  -27.8980  -27.9640   31.4210 C   0  0  0  0  0  1  0  0  0  0  0  0
  -27.0220  -28.4430   32.5890 C   0  0  0  0  0  3  0  0  0  0  0  0
  -25.7020  -27.3850   34.3690 C   0  0  0  0  0  1  0  0  0  0  0  0
  -26.0460  -27.3950   32.9480 N   0  0  0  0  0  0  0  0  0  0  0  0
  -26.3990  -26.4740   32.7020 H   0  0  0  0  0  0  0  0  0  0  0  0
  -25.8710  -32.9500   33.6040 C   0  0  1  0  0  0  0  0  0  0  0  0
  -26.7410  -32.8550   34.8830 C   0  0  0  0  0  1  0  0  0  0  0  0
  -25.5250  -34.4360   33.3610 C   0  0  0  0  0  1  0  0  0  0  0  0
  -24.5000  -32.3000   33.8950 C   0  0  0  0  0  1  0  0  0  0  0  0
  1  2  1  0
  4  3  1  0
  4  1  1  0
  6  3  1  0
  6  5  1  0
  9 10  1  0
  9 13  1  0
  9 11  1  0
 10 13  1  0
 11  6  1  0
 12 13  1  0
 12 11  1  0
 13 59  1  1
 14 16  2  0
 14  4  1  0
 15 14  1  0
 17 15  1  0
 18 15  1  0
 19 18  1  0
 20 19  1  0
 21 20  1  0
 22 21  1  0
 23 22  1  0
 24 25  1  0
 24 29  1  0
 25 26  1  0
 27 26  1  0
 27 34  1  0
 28 27  1  0
 29 28  1  0
 29 23  1  0
 30 23  2  0
 31 32  2  0
 31 56  1  0
 32 51  1  0
 33 32  1  0
 34 31  1  0
 35 34  1  0
 35 33  2  0
 36 33  1  0
 36 41  1  0
 37 36  2  0
 38 37  1  0
 38 39  2  0
 39 40  1  0
 40 41  2  0
 42 39  1  0
 43 44  1  0
 43 42  1  0
 45 44  2  0
 46 45  1  0
 47 46  2  0
 47 48  1  0
 48 43  2  0
 49 48  1  0
 50 46  1  0
 51 52  1  0
 51 53  2  0
 52 55  1  0
 54 52  1  0
 56 57  1  0
 58 56  1  0
 60 71  2  0
 61 59  1  0
 61 67  1  0
 61 66  1  0
 62 72  1  0
 62 70  1  0
 63 65  1  0
 63 69  1  0
 64 70  1  0
 65 64  1  0
 66 65  2  0
 67 68  1  0
 68 63  2  0
 69 62  1  0
 70 60  1  0
 73 75  1  0
 73 72  1  0
 74 72  2  0
 76 80  2  0
 78 77  1  0
 80 79  1  0
 81 82  1  0
 81 76  1  0
 82 83  1  0
 84 83  1  0
 85 84  1  0
 85 76  1  0
 86 60  1  0
 86 87  1  0
 86 96  1  0
 87 90  1  0
 88 92  1  0
 88 87  1  0
 89 88  2  0
 92 91  1  0
 92 94  1  0
 94 93  1  0
 95 94  1  0
 96 99  1  1
 96 97  1  0
 98 96  1  0
M  ISO  4  13 101  22 100  23 100  59 101
M  END
>  <TORSDO>  (41) 
F 22

>  <SCORE>  (41) 
3.228

>  <name>  (41) 
40

>  <ligand_id>  (41) 
40

>  <original_smiles>  (41) 
[H]c1c([H])c([H])c2c(c1[H])C([H])([H])C([H])([H])C([H])([H])C2([H])N([H])C(=O)C1([H])N(C(=O)C([H])(N([H])C(=O)C([H])(N([H])C([H])([H])[H])C([H])([H])[H])C(C([H])([H])[H])(C([H])([H])[H])C([H])([H])[H])C([H])([H])c2c([H])c(OC3([H])C([H])([H])C([H])([H])C4([H])c5c([H])c(C(=O)N([H])C([H])([H])C([H])([H])C([H])([H])C([H])([H])C([H])([H])C(=O)N6C([H])([H])C([H])([H])C([H])([H])C([H])(n7nc(-c8c([H])c([H])c(Oc9c([H])c([H])c(F)c([H])c9F)c([H])c8[H])c(C(=O)N([H])[H])c7N([H])[H])C6([H])[H])c([H])c([H])c5C([H])([H])C([H])([H])C34[H])c([H])c([H])c2C1([H])[H]

>  <smiles>  (41) 
[H]c1c([H])c([H])c2c(c1[H])C([H])([H])C([H])([H])C([H])([H])C2([H])N([H])C(=O)C1([H])N(C(=O)C([H])(N([H])C(=O)C([H])(N([H])C([H])([H])[H])C([H])([H])[H])C(C([H])([H])[H])(C([H])([H])[H])C([H])([H])[H])C([H])([H])c2c([H])c(OC3([H])C([H])([H])C([H])([H])C4([H])c5c([H])c(C(=O)N([H])C([H])([H])C([H])([H])C([H])([H])C([H])([H])C([H])([H])C(=O)N6C([H])([H])C([H])([H])C([H])([H])C([H])(n7nc(-c8c([H])c([H])c(Oc9c([H])c([H])c(F)c([H])c9F)c([H])c8[H])c(C(=O)N([H])[H])c7N([H])[H])C6([H])[H])c([H])c([H])c5C([H])([H])C([H])([H])C34[H])c([H])c([H])c2C1([H])[H]

$$$$
41:0:0
     RDKit          3D

 93101  0  0  1  0  0  0  0  0999 V2000
  -32.3230  -25.0870   20.0360 C   0  0  0  0  0  3  0  0  0  0  0  0
  -30.9800  -25.4880   19.9090 C   0  0  0  0  0  3  0  0  0  0  0  0
  -31.5920  -22.7900   20.2820 C   0  0  0  0  0  3  0  0  0  0  0  0
  -30.2270  -23.1640   20.1680 C   0  0  0  0  0  0  0  0  0  0  0  0
  -32.6310  -23.7340   20.2410 C   0  0  0  0  0  0  0  0  0  0  0  0
  -29.9090  -24.5630   19.9950 C   0  0  0  0  0  0  0  0  0  0  0  0
  -34.0690  -23.2750   20.4070 C   0  0  0  0  0  1  0  0  0  0  0  0
  -29.2260  -22.0320   20.1750 C   0  0  0  0  0  0  0  0  0  0  0  0
  -28.1320  -22.1020   19.6120 O   0  0  0  0  0  0  0  0  0  0  0  0
  -29.5710  -20.7260   20.9550 C   0  0  0  0  0  2  0  0  0  0  0  0
  -29.8550  -19.4460   20.1040 C   0  0  0  0  0  2  0  0  0  0  0  0
  -30.2490  -18.1920   20.9470 C   0  0  0  0  0  3  0  0  0  0  0  0
  -30.1700  -16.8210   20.1910 C   0  0  0  0  0  3  0  0  0  0  0  0
  -30.6540  -15.2950   22.2670 C   0  0  0  0  0  2  0  0  0  0  0  0
  -30.6120  -15.5200   20.9290 C   0  0  0  0  0  0  0  0  0  0  0  0
  -31.1030  -14.4210   20.0840 C   0  0  0  0  0  0  0  0  0  0  0  0
  -30.6020  -12.3170   18.8860 C   0  0  0  0  0  2  0  0  0  0  0  0
  -29.6090  -12.5850   17.7370 C   0  0  0  0  0  2  0  0  0  0  0  0
  -28.1550  -12.4930   18.2370 C   0  0  0  0  0  2  0  0  0  0  0  0
  -27.9250  -13.3040   19.5400 C   0  0  0  0  0  3  0  0  0  0  0  0
  -29.0310  -13.0190   20.5800 C   0  0  0  0  0  2  0  0  0  0  0  0
  -30.3380  -13.2920   19.9590 N   0  0  0  0  0  0  0  0  0  0  0  0
  -32.1500  -14.5550   19.4470 O   0  0  0  0  0  0  0  0  0  0  0  0
  -25.5910  -13.9740   20.3910 C   0  0  0  0  0  0  0  0  0  0  0  0
  -24.5170  -13.2310   20.8030 C   0  0  0  0  0  0  0  0  0  0  0  0
  -24.9270  -11.8650   20.7190 C   0  0  0  0  0  0  0  0  0  0  0  0
  -26.5910  -13.0630   20.0870 N   0  0  0  0  0  0  0  0  0  0  0  0
  -26.1970  -11.7880   20.3400 N   0  0  0  0  0  0  0  0  0  0  0  0
  -24.1650  -10.6260   20.9230 C   0  0  0  0  0  0  0  0  0  0  0  0
  -24.5980   -9.6360   21.8340 C   0  0  0  0  0  3  0  0  0  0  0  0
  -23.8400   -8.4620   22.0290 C   0  0  0  0  0  3  0  0  0  0  0  0
  -22.6340   -8.2690   21.3130 C   0  0  0  0  0  0  0  0  0  0  0  0
  -22.2190   -9.2460   20.3920 C   0  0  0  0  0  3  0  0  0  0  0  0
  -22.9770  -10.4130   20.1960 C   0  0  0  0  0  3  0  0  0  0  0  0
  -21.8470   -7.1470   21.4180 O   0  0  0  0  0  0  0  0  0  0  0  0
  -21.7970   -6.4060   22.5720 C   0  0  0  0  0  0  0  0  0  0  0  0
  -21.4310   -6.9780   23.8100 C   0  0  0  0  0  3  0  0  0  0  0  0
  -21.3260   -6.1660   24.9570 C   0  0  0  0  0  3  0  0  0  0  0  0
  -21.5750   -4.7850   24.8670 C   0  0  0  0  0  0  0  0  0  0  0  0
  -21.9360   -4.2130   23.6340 C   0  0  0  0  0  3  0  0  0  0  0  0
  -22.0430   -5.0210   22.4900 C   0  0  0  0  0  0  0  0  0  0  0  0
  -22.3680   -4.4600   21.3000 F   0  0  0  0  0  0  0  0  0  0  0  0
  -21.4670   -4.0030   25.9670 F   0  0  0  0  0  0  0  0  0  0  0  0
  -23.1550  -13.7510   21.1630 C   0  0  0  0  0  0  0  0  0  0  0  0
  -22.4580  -13.0700   22.0660 N   0  0  0  0  0  0  0  0  0  0  0  0
  -22.7190  -14.7960   20.6790 O   0  0  0  0  0  0  0  0  0  0  0  0
  -22.8240  -12.2250   22.4780 H   0  0  0  0  0  0  0  0  0  0  0  0
  -21.5470  -13.4020   22.3510 H   0  0  0  0  0  0  0  0  0  0  0  0
  -25.7960  -15.3400   20.2340 N   0  0  0  0  0  0  0  0  0  0  0  0
  -25.0660  -16.0230   20.4090 H   0  0  0  0  0  0  0  0  0  0  0  0
  -26.6570  -15.7570   19.9050 H   0  0  0  0  0  0  0  0  0  0  0  0
  -28.4820  -25.1590   19.8730 C   0  0  0  0  0  2  0  0  0  0  0  0
  -28.4360  -26.5910   20.1280 O   0  0  0  0  0  0  0  0  0  0  0  0
  -24.5470  -31.7430   23.2010 C   0  0  0  0  0  0  0  0  0  0  0  0
  -27.2380  -27.2930   20.1140 C   0  0  0  0  0  0  0  0  0  0  0  0
  -23.3540  -30.3330   21.5560 C   0  0  0  0  0  3  0  0  0  0  0  0
  -24.8210  -28.8000   20.1310 C   0  0  0  0  0  0  0  0  0  0  0  0
  -25.8790  -30.7020   21.3630 C   0  0  0  0  0  2  0  0  0  0  0  0
  -25.9760  -29.3300   20.7160 C   0  0  0  0  0  0  0  0  0  0  0  0
  -27.1830  -28.5880   20.6970 C   0  0  0  0  0  3  0  0  0  0  0  0
  -26.0570  -26.7790   19.5310 C   0  0  0  0  0  3  0  0  0  0  0  0
  -24.8600  -27.5260   19.5330 C   0  0  0  0  0  3  0  0  0  0  0  0
  -23.5700  -29.6520   20.1780 C   0  0  0  0  0  2  0  0  0  0  0  0
  -24.6120  -30.9430   22.0980 N   0  0  0  0  0  0  0  0  0  0  0  0
  -23.4630  -32.0060   23.7400 O   0  0  0  0  0  0  0  0  0  0  0  0
  -22.7070  -29.3100   22.5180 C   0  0  0  0  0  0  0  0  0  0  0  0
  -21.3820  -29.1240   22.3970 N   0  0  0  0  0  0  0  0  0  0  0  0
  -23.3950  -28.6840   23.3300 O   0  0  0  0  0  0  0  0  0  0  0  0
  -20.8880  -29.6810   21.7140 H   0  0  0  0  0  0  0  0  0  0  0  0
  -18.0160  -27.9060   22.9010 C   0  0  0  0  0  0  0  0  0  0  0  0
  -20.5720  -28.1790   23.1660 C   0  0  0  0  0  3  0  0  0  0  0  0
  -20.6810  -26.7500   22.5870 C   0  0  0  0  0  2  0  0  0  0  0  0
  -19.5790  -26.4230   21.5740 C   0  0  0  0  0  2  0  0  0  0  0  0
  -18.1980  -26.5590   22.2220 C   0  0  0  0  0  2  0  0  0  0  0  0
  -19.1310  -28.6730   23.3300 C   0  0  0  0  0  0  0  0  0  0  0  0
  -18.9060  -29.9330   23.9250 C   0  0  0  0  0  3  0  0  0  0  0  0
  -17.5990  -30.4270   24.0940 C   0  0  0  0  0  3  0  0  0  0  0  0
  -16.4980  -29.6560   23.6810 C   0  0  0  0  0  3  0  0  0  0  0  0
  -16.7070  -28.3970   23.0900 C   0  0  0  0  0  3  0  0  0  0  0  0
  -25.8270  -32.3850   23.8220 C   0  0  0  0  0  3  0  0  0  0  0  0
  -25.5010  -33.7750   24.1710 N   0  0  0  0  0  0  0  0  0  0  0  0
  -25.8190  -34.8400   23.4240 C   0  0  0  0  0  0  0  0  0  0  0  0
  -26.4870  -34.7560   22.3890 O   0  0  0  0  0  0  0  0  0  0  0  0
  -24.9070  -33.9110   24.9750 H   0  0  0  0  0  0  0  0  0  0  0  0
  -24.0690  -36.6160   23.0960 C   0  0  0  0  0  1  0  0  0  0  0  0
  -25.3170  -36.2170   23.8980 C   0  0  0  0  0  3  0  0  0  0  0  0
  -27.4400  -37.1220   24.7360 C   0  0  0  0  0  1  0  0  0  0  0  0
  -26.3390  -37.2810   23.7900 N   0  0  0  0  0  0  0  0  0  0  0  0
  -25.9240  -38.1980   23.9350 H   0  0  0  0  0  0  0  0  0  0  0  0
  -26.3620  -31.6060   25.0870 C   0  0  1  0  0  0  0  0  0  0  0  0
  -25.2790  -31.3430   26.1600 C   0  0  0  0  0  1  0  0  0  0  0  0
  -26.9610  -30.2400   24.6770 C   0  0  0  0  0  1  0  0  0  0  0  0
  -27.5090  -32.4070   25.7500 C   0  0  0  0  0  1  0  0  0  0  0  0
  1  5  1  0
  2  6  1  0
  2  1  2  0
  4  8  1  0
  4  3  1  0
  5  3  2  0
  5  7  1  0
  6  4  2  0
  8 10  1  0
  9  8  2  0
 11 12  1  0
 11 10  1  0
 13 15  1  0
 13 12  2  0
 15 14  2  0
 16 15  1  0
 17 22  1  0
 18 19  1  0
 18 17  1  0
 20 19  1  0
 20 27  1  0
 20 21  1  0
 22 16  1  0
 22 21  1  0
 23 16  2  0
 24 25  2  0
 25 44  1  0
 26 25  1  0
 26 29  1  0
 27 28  1  0
 27 24  1  0
 28 26  2  0
 29 30  1  0
 30 31  2  0
 32 35  1  0
 32 31  1  0
 33 32  2  0
 34 33  1  0
 34 29  2  0
 35 36  1  0
 36 37  1  0
 37 38  2  0
 39 38  1  0
 39 43  1  0
 40 39  2  0
 41 36  2  0
 41 40  1  0
 42 41  1  0
 44 45  1  0
 45 48  1  0
 45 47  1  0
 46 44  2  0
 49 24  1  0
 49 50  1  0
 51 49  1  0
 52  6  1  0
 52 53  1  0
 54 65  2  0
 55 53  1  0
 55 60  1  0
 56 64  1  0
 56 66  1  0
 57 63  1  0
 57 59  1  0
 58 64  1  0
 59 58  1  0
 60 59  2  0
 61 62  1  0
 61 55  2  0
 62 57  2  0
 63 56  1  0
 64 54  1  0
 66 68  2  0
 67 66  1  0
 69 67  1  0
 70 79  2  0
 70 75  1  0
 71 67  1  0
 71 75  1  0
 72 71  1  0
 73 74  1  0
 73 72  1  0
 74 70  1  0
 75 76  2  0
 76 77  1  0
 78 77  2  0
 79 78  1  0
 80 54  1  0
 80 81  1  0
 80 90  1  0
 81 84  1  0
 82 86  1  0
 82 81  1  0
 83 82  2  0
 86 85  1  0
 88 86  1  0
 88 89  1  0
 88 87  1  0
 90 93  1  1
 90 91  1  0
 92 90  1  0
M  ISO  4  15 100  16 100  52 101  53 101
M  END
>  <TORSDO>  (42) 
F 23

>  <SCORE>  (42) 
-11.635

>  <name>  (42) 
41

>  <ligand_id>  (42) 
41

>  <original_smiles>  (42) 
[H]C([H])=C(C(=O)N1C([H])([H])C([H])([H])C([H])([H])C([H])(n2nc(-c3c([H])c([H])c(Oc4c([H])c([H])c(F)c([H])c4F)c([H])c3[H])c(C(=O)N([H])[H])c2N([H])[H])C1([H])[H])C([H])([H])C([H])([H])C([H])([H])C([H])([H])C(=O)c1c([H])c(C([H])([H])[H])c([H])c([H])c1C([H])([H])Oc1c([H])c([H])c2c(c1[H])C([H])([H])N(C(=O)C([H])(N([H])C(=O)C([H])(N([H])C([H])([H])[H])C([H])([H])[H])C(C([H])([H])[H])(C([H])([H])[H])C([H])([H])[H])C([H])(C(=O)N([H])C1([H])c3c([H])c([H])c([H])c([H])c3C([H])([H])C([H])([H])C1([H])[H])C2([H])[H]

>  <smiles>  (42) 
[H]C([H])=C(C(=O)N1C([H])([H])C([H])([H])C([H])([H])C([H])(n2nc(-c3c([H])c([H])c(Oc4c([H])c([H])c(F)c([H])c4F)c([H])c3[H])c(C(=O)N([H])[H])c2N([H])[H])C1([H])[H])C([H])([H])C([H])([H])C([H])([H])C([H])([H])C(=O)c1c([H])c(C([H])([H])[H])c([H])c([H])c1C([H])([H])Oc1c([H])c([H])c2c(c1[H])C([H])([H])N(C(=O)C([H])(N([H])C(=O)C([H])(N([H])C([H])([H])[H])C([H])([H])[H])C(C([H])([H])[H])(C([H])([H])[H])C([H])([H])[H])C([H])(C(=O)N([H])C1([H])c3c([H])c([H])c([H])c([H])c3C([H])([H])C([H])([H])C1([H])[H])C2([H])[H]

$$$$
42:0:0
     RDKit          3D

102112  0  0  1  0  0  0  0  0999 V2000
  -30.0880  -22.0160   16.5880 C   0  0  0  0  0  3  0  0  0  0  0  0
  -29.4710  -19.7360   17.1930 C   0  0  0  0  0  3  0  0  0  0  0  0
  -29.3790  -21.5150   18.8580 C   0  0  0  0  0  3  0  0  0  0  0  0
  -29.9330  -20.6690   16.2330 C   0  0  0  0  0  0  0  0  0  0  0  0
  -29.8100  -22.4570   17.8890 C   0  0  0  0  0  0  0  0  0  0  0  0
  -29.2090  -20.1420   18.5280 C   0  0  0  0  0  0  0  0  0  0  0  0
  -31.1700  -26.1070   17.7690 C   0  0  0  0  0  2  0  0  0  0  0  0
  -31.3100  -24.5910   18.0260 C   0  0  0  0  0  2  0  0  0  0  0  0
  -30.2760  -26.7880   18.8190 C   0  0  0  0  0  2  0  0  0  0  0  0
  -29.1280  -24.5530   19.2910 C   0  0  0  0  0  2  0  0  0  0  0  0
  -29.8940  -23.9700   18.0960 C   0  0  0  0  0  3  0  0  0  0  0  0
  -28.9280  -26.0730   19.0460 C   0  0  0  0  0  3  0  0  0  0  0  0
  -28.4080  -26.7380   20.1900 O   0  0  0  0  0  0  0  0  0  0  0  0
  -24.6510  -31.9120   23.1950 C   0  0  0  0  0  0  0  0  0  0  0  0
  -27.2570  -27.4820   20.0830 C   0  0  0  0  0  0  0  0  0  0  0  0
  -23.4300  -30.5050   21.5710 C   0  0  0  0  0  3  0  0  0  0  0  0
  -24.8650  -28.9840   20.1050 C   0  0  0  0  0  0  0  0  0  0  0  0
  -25.9430  -30.8820   21.3200 C   0  0  0  0  0  2  0  0  0  0  0  0
  -26.0250  -29.5080   20.6890 C   0  0  0  0  0  0  0  0  0  0  0  0
  -27.2220  -28.7600   20.6810 C   0  0  0  0  0  3  0  0  0  0  0  0
  -26.0860  -26.9650   19.4890 C   0  0  0  0  0  3  0  0  0  0  0  0
  -24.8930  -27.7150   19.4950 C   0  0  0  0  0  3  0  0  0  0  0  0
  -23.6150  -29.8310   20.1840 C   0  0  0  0  0  2  0  0  0  0  0  0
  -24.6960  -31.1160   22.0880 N   0  0  0  0  0  0  0  0  0  0  0  0
  -23.5770  -32.1760   23.7500 O   0  0  0  0  0  0  0  0  0  0  0  0
  -22.8000  -29.4780   22.5430 C   0  0  0  0  0  0  0  0  0  0  0  0
  -21.4740  -29.2890   22.4380 N   0  0  0  0  0  0  0  0  0  0  0  0
  -23.5000  -28.8540   23.3460 O   0  0  0  0  0  0  0  0  0  0  0  0
  -20.9740  -29.8530   21.7640 H   0  0  0  0  0  0  0  0  0  0  0  0
  -18.1110  -28.0650   22.9680 C   0  0  0  0  0  0  0  0  0  0  0  0
  -20.6700  -28.3470   23.2160 C   0  0  0  0  0  3  0  0  0  0  0  0
  -20.7790  -26.9160   22.6410 C   0  0  0  0  0  2  0  0  0  0  0  0
  -19.6690  -26.5810   21.6380 C   0  0  0  0  0  2  0  0  0  0  0  0
  -18.2920  -26.7160   22.2930 C   0  0  0  0  0  2  0  0  0  0  0  0
  -19.2280  -28.8380   23.3850 C   0  0  0  0  0  0  0  0  0  0  0  0
  -19.0000  -30.1010   23.9730 C   0  0  0  0  0  3  0  0  0  0  0  0
  -17.6910  -30.5910   24.1470 C   0  0  0  0  0  3  0  0  0  0  0  0
  -16.5920  -29.8140   23.7450 C   0  0  0  0  0  3  0  0  0  0  0  0
  -16.8020  -28.5530   23.1600 C   0  0  0  0  0  3  0  0  0  0  0  0
  -25.9380  -32.5520   23.7990 C   0  0  0  0  0  3  0  0  0  0  0  0
  -26.4920  -31.7680   25.0520 C   0  0  1  0  0  0  0  0  0  0  0  0
  -25.4270  -31.5030   26.1440 C   0  0  0  0  0  1  0  0  0  0  0  0
  -27.0820  -30.4070   24.6140 C   0  0  0  0  0  1  0  0  0  0  0  0
  -27.6530  -32.5620   25.6920 C   0  0  0  0  0  1  0  0  0  0  0  0
  -25.6200  -33.9420   24.1560 N   0  0  0  0  0  0  0  0  0  0  0  0
  -25.9340  -35.0080   23.4070 C   0  0  0  0  0  0  0  0  0  0  0  0
  -26.5900  -34.9250   22.3640 O   0  0  0  0  0  0  0  0  0  0  0  0
  -25.0340  -34.0780   24.9680 H   0  0  0  0  0  0  0  0  0  0  0  0
  -24.1850  -36.7920   23.0960 C   0  0  0  0  0  1  0  0  0  0  0  0
  -25.4410  -36.3880   23.8870 C   0  0  0  0  0  3  0  0  0  0  0  0
  -27.5860  -37.2750   24.6920 C   0  0  0  0  0  1  0  0  0  0  0  0
  -26.4650  -37.4510   23.7720 N   0  0  0  0  0  0  0  0  0  0  0  0
  -26.0560  -38.3680   23.9350 H   0  0  0  0  0  0  0  0  0  0  0  0
  -30.2450  -20.2760   14.8280 C   0  0  0  0  0  0  0  0  0  0  0  0
  -31.4260  -20.6920   14.3840 N   0  0  0  0  0  0  0  0  0  0  0  0
  -29.4640  -19.6330   14.1310 O   0  0  0  0  0  0  0  0  0  0  0  0
  -32.0330  -21.2090   15.0040 H   0  0  0  0  0  0  0  0  0  0  0  0
  -31.7160  -20.5020   13.4370 H   0  0  0  0  0  0  0  0  0  0  0  0
  -28.6840  -19.1640   19.6080 C   0  0  0  0  0  2  0  0  0  0  0  0
  -28.9240  -17.6180   19.4650 C   0  0  0  0  0  2  0  0  0  0  0  0
  -30.8330  -14.6470   20.5870 C   0  0  0  0  0  0  0  0  0  0  0  0
  -30.4620  -12.3720   19.8120 C   0  0  0  0  0  2  0  0  0  0  0  0
  -29.5850  -12.4070   18.5430 C   0  0  0  0  0  2  0  0  0  0  0  0
  -28.0920  -12.3470   18.8890 C   0  0  0  0  0  2  0  0  0  0  0  0
  -27.6900  -13.3200   20.0250 C   0  0  0  0  0  3  0  0  0  0  0  0
  -28.7120  -13.3700   21.1880 C   0  0  0  0  0  2  0  0  0  0  0  0
  -30.0590  -13.5250   20.6160 N   0  0  0  0  0  0  0  0  0  0  0  0
  -32.0280  -14.6120   20.8540 O   0  0  0  0  0  0  0  0  0  0  0  0
  -32.0160  -17.1090   18.4910 C   0  0  0  0  0  2  0  0  0  0  0  0
  -31.4810  -17.7960   19.7210 C   0  0  0  0  0  2  0  0  0  0  0  0
  -31.2280  -15.7950   18.3850 C   0  0  0  0  0  3  0  0  0  0  0  0
  -30.2130  -17.0080   20.1100 C   0  0  0  0  0  3  0  0  0  0  0  0
  -32.1640  -14.6930   17.7890 C   0  0  0  0  0  1  0  0  0  0  0  0
  -30.4600  -15.5970   19.6720 N   0  0  0  0  0  0  0  0  0  0  0  0
  -25.2570  -13.9100   20.6110 C   0  0  0  0  0  0  0  0  0  0  0  0
  -24.1720  -13.1280   20.9190 C   0  0  0  0  0  0  0  0  0  0  0  0
  -24.6470  -11.7850   20.9550 C   0  0  0  0  0  0  0  0  0  0  0  0
  -26.3250  -13.0380   20.4740 N   0  0  0  0  0  0  0  0  0  0  0  0
  -25.9590  -11.7560   20.7520 N   0  0  0  0  0  0  0  0  0  0  0  0
  -23.9180  -10.5170   21.1190 C   0  0  0  0  0  0  0  0  0  0  0  0
  -24.3100   -9.5600   22.0790 C   0  0  0  0  0  3  0  0  0  0  0  0
  -23.5790   -8.3610   22.2370 C   0  0  0  0  0  3  0  0  0  0  0  0
  -22.4470   -8.1070   21.4270 C   0  0  0  0  0  0  0  0  0  0  0  0
  -22.0780   -9.0530   20.4520 C   0  0  0  0  0  3  0  0  0  0  0  0
  -22.8070  -10.2430   20.2950 C   0  0  0  0  0  3  0  0  0  0  0  0
  -21.6940   -6.9580   21.4840 O   0  0  0  0  0  0  0  0  0  0  0  0
  -21.6080   -6.2130   22.6350 C   0  0  0  0  0  0  0  0  0  0  0  0
  -21.1640   -6.7730   23.8510 C   0  0  0  0  0  3  0  0  0  0  0  0
  -21.0350   -5.9600   24.9950 C   0  0  0  0  0  3  0  0  0  0  0  0
  -21.3260   -4.5880   24.9240 C   0  0  0  0  0  0  0  0  0  0  0  0
  -21.7560   -4.0220   23.7080 C   0  0  0  0  0  3  0  0  0  0  0  0
  -21.9000   -4.8340   22.5700 C   0  0  0  0  0  0  0  0  0  0  0  0
  -22.3020   -4.2830   21.4000 F   0  0  0  0  0  0  0  0  0  0  0  0
  -21.1890   -3.8080   26.0220 F   0  0  0  0  0  0  0  0  0  0  0  0
  -22.7560  -13.5960   21.0690 C   0  0  0  0  0  0  0  0  0  0  0  0
  -21.9720  -12.9100   21.8990 N   0  0  0  0  0  0  0  0  0  0  0  0
  -22.3470  -14.5990   20.4920 O   0  0  0  0  0  0  0  0  0  0  0  0
  -22.3270  -12.1080   22.3970 H   0  0  0  0  0  0  0  0  0  0  0  0
  -21.0140  -13.1970   22.0540 H   0  0  0  0  0  0  0  0  0  0  0  0
  -25.4090  -15.2780   20.4120 N   0  0  0  0  0  0  0  0  0  0  0  0
  -24.6050  -15.9010   20.4120 H   0  0  0  0  0  0  0  0  0  0  0  0
  -26.2720  -15.7530   20.1760 H   0  0  0  0  0  0  0  0  0  0  0  0
  1  5  1  0
  2  6  2  0
  4  1  2  0
  4  2  1  0
  5  3  2  0
  6  3  1  0
  6 59  1  0
  7  8  1  0
  7  9  1  0
  8 11  1  0
  9 12  1  0
 11  5  1  0
 11 10  1  0
 12 10  1  0
 12 13  1  0
 14 25  2  0
 15 13  1  0
 15 20  1  0
 16 24  1  0
 16 26  1  0
 17 23  1  0
 17 19  1  0
 18 24  1  0
 19 18  1  0
 20 19  2  0
 21 22  1  0
 21 15  2  0
 22 17  2  0
 23 16  1  0
 24 14  1  0
 26 28  2  0
 27 26  1  0
 29 27  1  0
 30 39  2  0
 30 35  1  0
 31 27  1  0
 31 35  1  0
 32 31  1  0
 33 34  1  0
 33 32  1  0
 34 30  1  0
 35 36  2  0
 36 37  1  0
 38 37  2  0
 39 38  1  0
 40 14  1  0
 40 45  1  0
 40 41  1  0
 41 44  1  1
 41 42  1  0
 43 41  1  0
 45 48  1  0
 46 50  1  0
 46 45  1  0
 47 46  2  0
 50 49  1  0
 52 50  1  0
 52 53  1  0
 52 51  1  0
 54  4  1  0
 55 54  1  0
 55 57  1  0
 56 54  2  0
 58 55  1  0
 60 59  1  0
 61 67  1  0
 61 68  2  0
 62 67  1  0
 63 64  1  0
 63 62  1  0
 65 64  1  0
 65 78  1  0
 65 66  1  0
 67 66  1  0
 69 70  1  0
 70 72  1  0
 71 73  1  0
 71 69  1  0
 71 74  1  0
 72 60  1  0
 74 72  1  0
 74 61  1  0
 75 76  2  0
 76 77  1  0
 76 95  1  0
 77 80  1  0
 78 75  1  0
 78 79  1  0
 79 77  2  0
 80 81  1  0
 81 82  2  0
 83 86  1  0
 83 82  1  0
 84 83  2  0
 85 84  1  0
 85 80  2  0
 86 87  1  0
 87 88  1  0
 88 89  2  0
 90 89  1  0
 90 94  1  0
 91 90  2  0
 92 87  2  0
 92 91  1  0
 93 92  1  0
 95 96  1  0
 96 99  1  0
 96 98  1  0
 97 95  2  0
100 75  1  0
101100  1  0
102100  1  0
M  ISO  4  12 101  13 101  61 100  74 100
M  END
>  <TORSDO>  (43) 
F 20

>  <SCORE>  (43) 
-14.001

>  <name>  (43) 
42

>  <ligand_id>  (43) 
42

>  <original_smiles>  (43) 
[H]c1c([H])c([H])c2c(c1[H])C([H])([H])C([H])([H])C([H])([H])C2([H])N([H])C(=O)C1([H])N(C(=O)C([H])(N([H])C(=O)C([H])(N([H])C([H])([H])[H])C([H])([H])[H])C(C([H])([H])[H])(C([H])([H])[H])C([H])([H])[H])C([H])([H])c2c([H])c(OC3([H])C([H])([H])C([H])([H])C([H])([H])C([H])(c4c([H])c(C(=O)N([H])[H])c([H])c(C([H])([H])C([H])([H])C5([H])N(C(=O)N6C([H])([H])C([H])([H])C([H])([H])C([H])(n7nc(-c8c([H])c([H])c(Oc9c([H])c([H])c(F)c([H])c9F)c([H])c8[H])c(C(=O)N([H])[H])c7N([H])[H])C6([H])[H])C([H])(C([H])([H])[H])C([H])([H])C5([H])[H])c4[H])C3([H])[H])c([H])c([H])c2C1([H])[H]

>  <smiles>  (43) 
[H]c1c([H])c([H])c2c(c1[H])C([H])([H])C([H])([H])C([H])([H])C2([H])N([H])C(=O)C1([H])N(C(=O)C([H])(N([H])C(=O)C([H])(N([H])C([H])([H])[H])C([H])([H])[H])C(C([H])([H])[H])(C([H])([H])[H])C([H])([H])[H])C([H])([H])c2c([H])c(OC3([H])C([H])([H])C([H])([H])C([H])([H])C([H])(c4c([H])c(C(=O)N([H])[H])c([H])c(C([H])([H])C([H])([H])C5([H])N(C(=O)N6C([H])([H])C([H])([H])C([H])([H])C([H])(n7nc(-c8c([H])c([H])c(Oc9c([H])c([H])c(F)c([H])c9F)c([H])c8[H])c(C(=O)N([H])[H])c7N([H])[H])C6([H])[H])C([H])(C([H])([H])[H])C([H])([H])C5([H])[H])c4[H])C3([H])[H])c([H])c([H])c2C1([H])[H]

$$$$
43:0:0
     RDKit          3D

 95104  0  0  1  0  0  0  0  0999 V2000
  -28.2430  -21.3520   20.3290 C   0  0  0  0  0  3  0  0  0  0  0  0
  -29.8310  -23.0790   18.8940 C   0  0  0  0  0  3  0  0  0  0  0  0
  -27.8810  -22.7530   20.1910 C   0  0  0  0  0  0  0  0  0  0  0  0
  -28.6990  -23.7170   19.5020 C   0  0  0  0  0  0  0  0  0  0  0  0
  -30.1660  -21.6730   18.9970 C   0  0  0  0  0  0  0  0  0  0  0  0
  -29.4130  -20.7340   19.7860 C   0  0  0  0  0  0  0  0  0  0  0  0
  -26.6290  -23.1810   20.9460 C   0  0  0  0  0  2  0  0  0  0  0  0
  -26.6900  -24.4890   21.7640 C   0  0  0  0  0  2  0  0  0  0  0  0
  -28.8170  -25.7690   21.1970 C   0  0  0  0  0  2  0  0  0  0  0  0
  -28.6200  -25.3440   19.6990 C   0  0  0  0  0  3  0  0  0  0  0  0
  -28.0660  -24.9580   22.3040 C   0  0  1  0  0  0  0  0  0  0  0  0
  -31.4130  -21.2530   18.2430 C   0  0  0  0  0  1  0  0  0  0  0  0
  -27.7820  -25.8920   23.5000 C   0  0  0  0  0  1  0  0  0  0  0  0
  -28.9130  -23.7980   22.9110 C   0  0  0  0  0  1  0  0  0  0  0  0
  -28.0800  -26.4190   18.7300 O   0  0  0  0  0  0  0  0  0  0  0  0
  -24.7310  -31.5020   22.8310 C   0  0  0  0  0  0  0  0  0  0  0  0
  -27.0100  -27.3280   18.9890 C   0  0  0  0  0  0  0  0  0  0  0  0
  -23.3860  -30.3810   21.0880 C   0  0  0  0  0  3  0  0  0  0  0  0
  -24.7020  -29.0400   19.3390 C   0  0  0  0  0  0  0  0  0  0  0  0
  -25.9140  -30.6840   20.7680 C   0  0  0  0  0  2  0  0  0  0  0  0
  -25.9270  -29.4030   19.9240 C   0  0  0  0  0  0  0  0  0  0  0  0
  -27.0840  -28.5660   19.7340 C   0  0  0  0  0  3  0  0  0  0  0  0
  -25.7670  -27.0500   18.3870 C   0  0  0  0  0  3  0  0  0  0  0  0
  -24.6300  -27.8680   18.5640 C   0  0  0  0  0  3  0  0  0  0  0  0
  -23.4930  -29.9210   19.6100 C   0  0  0  0  0  2  0  0  0  0  0  0
  -24.7000  -30.8700   21.6200 N   0  0  0  0  0  0  0  0  0  0  0  0
  -23.7000  -31.7000   23.4890 O   0  0  0  0  0  0  0  0  0  0  0  0
  -22.7750  -29.2400   21.9340 C   0  0  0  0  0  0  0  0  0  0  0  0
  -21.4370  -29.1020   21.8990 N   0  0  0  0  0  0  0  0  0  0  0  0
  -23.5020  -28.4830   22.5860 O   0  0  0  0  0  0  0  0  0  0  0  0
  -20.9070  -29.7700   21.3560 H   0  0  0  0  0  0  0  0  0  0  0  0
  -18.0840  -27.9100   22.5450 C   0  0  0  0  0  0  0  0  0  0  0  0
  -20.6640  -28.0620   22.5820 C   0  0  0  0  0  3  0  0  0  0  0  0
  -20.6480  -26.7480   21.7670 C   0  0  0  0  0  2  0  0  0  0  0  0
  -19.4400  -26.6360   20.8300 C   0  0  0  0  0  2  0  0  0  0  0  0
  -18.1330  -26.7030   21.6240 C   0  0  0  0  0  2  0  0  0  0  0  0
  -19.2700  -28.5580   22.9800 C   0  0  0  0  0  0  0  0  0  0  0  0
  -19.1630  -29.7000   23.8030 C   0  0  0  0  0  3  0  0  0  0  0  0
  -17.9030  -30.1880   24.1960 C   0  0  0  0  0  3  0  0  0  0  0  0
  -16.7320  -29.5340   23.7760 C   0  0  0  0  0  3  0  0  0  0  0  0
  -16.8240  -28.3990   22.9510 C   0  0  0  0  0  3  0  0  0  0  0  0
  -26.0710  -32.0240   23.4420 C   0  0  0  0  0  3  0  0  0  0  0  0
  -25.7830  -33.2820   24.1420 N   0  0  0  0  0  0  0  0  0  0  0  0
  -26.0860  -34.5010   23.6760 C   0  0  0  0  0  0  0  0  0  0  0  0
  -26.7040  -34.6750   22.6250 O   0  0  0  0  0  0  0  0  0  0  0  0
  -25.2250  -33.2160   24.9810 H   0  0  0  0  0  0  0  0  0  0  0  0
  -24.3680  -36.3220   23.8700 C   0  0  0  0  0  1  0  0  0  0  0  0
  -25.6310  -35.7180   24.5040 C   0  0  0  0  0  3  0  0  0  0  0  0
  -27.7960  -36.3430   25.4750 C   0  0  0  0  0  1  0  0  0  0  0  0
  -26.6720  -36.7610   24.6420 N   0  0  0  0  0  0  0  0  0  0  0  0
  -26.2800  -37.6100   25.0430 H   0  0  0  0  0  0  0  0  0  0  0  0
  -26.7490  -30.9860   24.4230 C   0  0  1  0  0  0  0  0  0  0  0  0
  -25.7990  -30.4500   25.5220 C   0  0  0  0  0  1  0  0  0  0  0  0
  -27.2830  -29.7640   23.6420 C   0  0  0  0  0  1  0  0  0  0  0  0
  -27.9660  -31.6330   25.1220 C   0  0  0  0  0  1  0  0  0  0  0  0
  -29.9190  -19.2610   20.3130 C   0  0  0  0  0  2  0  0  0  0  0  0
  -30.0620  -17.8390   19.4840 C   0  0  0  0  0  2  0  0  0  0  0  0
  -30.7900  -15.2850   20.1680 C   0  0  0  0  0  0  0  0  0  0  0  0
  -30.7720  -12.8390   19.5550 C   0  0  0  0  0  2  0  0  0  0  0  0
  -29.9010  -12.6390   18.2930 C   0  0  0  0  0  2  0  0  0  0  0  0
  -28.4210  -12.4460   18.6770 C   0  0  0  0  0  2  0  0  0  0  0  0
  -27.9400  -13.4840   19.7280 C   0  0  0  0  0  3  0  0  0  0  0  0
  -28.9460  -13.6510   20.8880 C   0  0  0  0  0  2  0  0  0  0  0  0
  -30.2380  -14.0170   20.2940 N   0  0  0  0  0  0  0  0  0  0  0  0
  -31.9840  -15.3690   19.8620 O   0  0  0  0  0  0  0  0  0  0  0  0
  -29.9580  -16.4240   20.1640 N   0  0  0  0  0  0  0  0  0  0  0  0
  -29.0120  -16.1900   20.4280 H   0  0  0  0  0  0  0  0  0  0  0  0
  -25.5540  -14.0860   20.4330 C   0  0  0  0  0  0  0  0  0  0  0  0
  -24.4760  -13.3200   20.7900 C   0  0  0  0  0  0  0  0  0  0  0  0
  -24.9290  -11.9680   20.7670 C   0  0  0  0  0  0  0  0  0  0  0  0
  -26.5910  -13.1980   20.2060 N   0  0  0  0  0  0  0  0  0  0  0  0
  -26.2250  -11.9170   20.4740 N   0  0  0  0  0  0  0  0  0  0  0  0
  -24.1870  -10.7120   20.9520 C   0  0  0  0  0  0  0  0  0  0  0  0
  -24.5750   -9.7620   21.9220 C   0  0  0  0  0  3  0  0  0  0  0  0
  -23.8360   -8.5710   22.0940 C   0  0  0  0  0  3  0  0  0  0  0  0
  -22.6920   -8.3240   21.2980 C   0  0  0  0  0  0  0  0  0  0  0  0
  -22.3250   -9.2620   20.3160 C   0  0  0  0  0  3  0  0  0  0  0  0
  -23.0650  -10.4440   20.1430 C   0  0  0  0  0  3  0  0  0  0  0  0
  -21.9270   -7.1880   21.3770 O   0  0  0  0  0  0  0  0  0  0  0  0
  -21.8010   -6.4860   22.5490 C   0  0  0  0  0  0  0  0  0  0  0  0
  -21.2680   -7.0770   23.7160 C   0  0  0  0  0  3  0  0  0  0  0  0
  -21.0940   -6.3020   24.8800 C   0  0  0  0  0  3  0  0  0  0  0  0
  -21.4330   -4.9350   24.8760 C   0  0  0  0  0  0  0  0  0  0  0  0
  -21.9570   -4.3440   23.7110 C   0  0  0  0  0  3  0  0  0  0  0  0
  -22.1350   -5.1170   22.5510 C   0  0  0  0  0  0  0  0  0  0  0  0
  -22.6190   -4.5380   21.4260 F   0  0  0  0  0  0  0  0  0  0  0  0
  -21.2570   -4.1880   25.9900 F   0  0  0  0  0  0  0  0  0  0  0  0
  -23.0800  -13.8120   21.0410 C   0  0  0  0  0  0  0  0  0  0  0  0
  -22.3340  -13.1310   21.9050 N   0  0  0  0  0  0  0  0  0  0  0  0
  -22.6560  -14.8370   20.5080 O   0  0  0  0  0  0  0  0  0  0  0  0
  -22.6840  -12.3010   22.3610 H   0  0  0  0  0  0  0  0  0  0  0  0
  -21.3960  -13.4440   22.1120 H   0  0  0  0  0  0  0  0  0  0  0  0
  -25.7290  -15.4560   20.2650 N   0  0  0  0  0  0  0  0  0  0  0  0
  -24.9740  -16.1190   20.4040 H   0  0  0  0  0  0  0  0  0  0  0  0
  -26.5950  -15.9000   19.9880 H   0  0  0  0  0  0  0  0  0  0  0  0
  2  5  2  0
  2  4  1  0
  3  1  1  0
  3  7  1  0
  4 10  1  0
  4  3  2  0
  5  6  1  0
  6 56  1  0
  6  1  2  0
  7  8  1  0
  8 11  1  0
  9 11  1  0
 10 15  1  0
 10  9  1  0
 11 14  1  1
 11 13  1  0
 12  5  1  0
 15 17  1  0
 16 27  2  0
 17 22  1  0
 18 26  1  0
 18 28  1  0
 19 25  1  0
 19 21  1  0
 20 26  1  0
 21 20  1  0
 22 21  2  0
 23 24  1  0
 23 17  2  0
 24 19  2  0
 25 18  1  0
 26 16  1  0
 28 30  2  0
 29 28  1  0
 31 29  1  0
 32 41  2  0
 32 37  1  0
 33 29  1  0
 33 37  1  0
 34 33  1  0
 35 36  1  0
 35 34  1  0
 36 32  1  0
 37 38  2  0
 38 39  1  0
 40 39  2  0
 41 40  1  0
 42 16  1  0
 42 43  1  0
 42 52  1  0
 43 46  1  0
 44 43  1  0
 44 48  1  0
 45 44  2  0
 48 47  1  0
 48 50  1  0
 50 51  1  0
 50 49  1  0
 52 55  1  1
 52 53  1  0
 54 52  1  0
 57 66  1  0
 57 56  1  0
 58 64  1  0
 59 64  1  0
 60 61  1  0
 60 59  1  0
 62 61  1  0
 62 71  1  0
 62 63  1  0
 64 63  1  0
 65 58  2  0
 66 58  1  0
 66 67  1  0
 68 69  2  0
 69 88  1  0
 70 69  1  0
 70 73  1  0
 71 68  1  0
 71 72  1  0
 72 70  2  0
 73 74  1  0
 74 75  2  0
 76 79  1  0
 76 75  1  0
 77 76  2  0
 78 77  1  0
 78 73  2  0
 79 80  1  0
 80 85  2  0
 80 81  1  0
 81 82  2  0
 83 82  1  0
 83 87  1  0
 84 83  2  0
 85 84  1  0
 86 85  1  0
 88 89  1  0
 89 92  1  0
 89 91  1  0
 90 88  2  0
 93 94  1  0
 93 68  1  0
 95 93  1  0
M  ISO  4  10 101  15 101  58 100  66 100
M  END
>  <TORSDO>  (44) 
F 18

>  <SCORE>  (44) 
-12.700

>  <name>  (44) 
43

>  <ligand_id>  (44) 
43

>  <original_smiles>  (44) 
[H]c1c([H])c([H])c2c(c1[H])C([H])([H])C([H])([H])C([H])([H])C2([H])N([H])C(=O)C1([H])N(C(=O)C([H])(N([H])C(=O)C([H])(N([H])C([H])([H])[H])C([H])([H])[H])C(C([H])([H])[H])(C([H])([H])[H])C([H])([H])[H])C([H])([H])c2c([H])c(OC3([H])c4c([H])c(C([H])([H])[H])c(C([H])([H])C([H])([H])N([H])C(=O)N5C([H])([H])C([H])([H])C([H])([H])C([H])(n6nc(-c7c([H])c([H])c(Oc8c([H])c([H])c(F)c([H])c8F)c([H])c7[H])c(C(=O)N([H])[H])c6N([H])[H])C5([H])[H])c([H])c4C([H])([H])C([H])([H])C(C([H])([H])[H])(C([H])([H])[H])C3([H])[H])c([H])c([H])c2C1([H])[H]

>  <smiles>  (44) 
[H]c1c([H])c([H])c2c(c1[H])C([H])([H])C([H])([H])C([H])([H])C2([H])N([H])C(=O)C1([H])N(C(=O)C([H])(N([H])C(=O)C([H])(N([H])C([H])([H])[H])C([H])([H])[H])C(C([H])([H])[H])(C([H])([H])[H])C([H])([H])[H])C([H])([H])c2c([H])c(OC3([H])c4c([H])c(C([H])([H])[H])c(C([H])([H])C([H])([H])N([H])C(=O)N5C([H])([H])C([H])([H])C([H])([H])C([H])(n6nc(-c7c([H])c([H])c(Oc8c([H])c([H])c(F)c([H])c8F)c([H])c7[H])c(C(=O)N([H])[H])c6N([H])[H])C5([H])[H])c([H])c4C([H])([H])C([H])([H])C(C([H])([H])[H])(C([H])([H])[H])C3([H])[H])c([H])c([H])c2C1([H])[H]

$$$$
44:0:0
     RDKit          3D

 97106  0  0  1  0  0  0  0  0999 V2000
  -31.3070  -22.6910   21.7150 C   0  0  0  0  0  3  0  0  0  0  0  0
  -30.5960  -23.1000   22.7890 C   0  0  0  0  0  0  0  0  0  0  0  0
  -32.3850  -21.6230   21.7590 C   0  0  0  0  0  2  0  0  0  0  0  0
  -30.8750  -22.4900   24.1680 C   0  0  0  0  0  2  0  0  0  0  0  0
  -32.1040  -21.5600   24.2310 C   0  0  0  0  0  2  0  0  0  0  0  0
  -32.2330  -20.6820   22.9750 C   0  0  0  0  0  3  0  0  0  0  0  0
  -28.6670  -24.3640   23.7330 C   0  0  0  0  0  3  0  0  0  0  0  0
  -29.4510  -24.9660   21.4980 C   0  0  0  0  0  3  0  0  0  0  0  0
  -27.5550  -26.1270   22.4860 C   0  0  0  0  0  3  0  0  0  0  0  0
  -29.5700  -24.1660   22.6650 C   0  0  0  0  0  0  0  0  0  0  0  0
  -27.6660  -25.3440   23.6480 C   0  0  0  0  0  0  0  0  0  0  0  0
  -28.4430  -25.9510   21.3910 C   0  0  0  0  0  0  0  0  0  0  0  0
  -26.7070  -25.5650   24.8020 C   0  0  0  0  0  1  0  0  0  0  0  0
  -28.3610  -26.7030   20.2270 O   0  0  0  0  0  0  0  0  0  0  0  0
  -24.5810  -31.8930   23.1610 C   0  0  0  0  0  0  0  0  0  0  0  0
  -27.2510  -27.4970   20.0890 C   0  0  0  0  0  0  0  0  0  0  0  0
  -23.3890  -30.5040   21.4950 C   0  0  0  0  0  3  0  0  0  0  0  0
  -24.8590  -28.9790   20.0690 C   0  0  0  0  0  0  0  0  0  0  0  0
  -25.9130  -30.8710   21.3240 C   0  0  0  0  0  2  0  0  0  0  0  0
  -26.0070  -29.5100   20.6730 C   0  0  0  0  0  0  0  0  0  0  0  0
  -27.2100  -28.7760   20.6790 C   0  0  0  0  0  3  0  0  0  0  0  0
  -26.0990  -26.9750   19.4660 C   0  0  0  0  0  3  0  0  0  0  0  0
  -24.8990  -27.7110   19.4610 C   0  0  0  0  0  3  0  0  0  0  0  0
  -23.6100  -29.8300   20.1120 C   0  0  0  0  0  2  0  0  0  0  0  0
  -24.6450  -31.1010   22.0540 N   0  0  0  0  0  0  0  0  0  0  0  0
  -23.4950  -32.1670   23.6900 O   0  0  0  0  0  0  0  0  0  0  0  0
  -22.7240  -29.4800   22.4420 C   0  0  0  0  0  0  0  0  0  0  0  0
  -21.3950  -29.3300   22.3200 N   0  0  0  0  0  0  0  0  0  0  0  0
  -23.3990  -28.8250   23.2400 O   0  0  0  0  0  0  0  0  0  0  0  0
  -20.9140  -29.9120   21.6480 H   0  0  0  0  0  0  0  0  0  0  0  0
  -17.9870  -28.2680   22.8760 C   0  0  0  0  0  0  0  0  0  0  0  0
  -20.5610  -28.3990   23.0780 C   0  0  0  0  0  3  0  0  0  0  0  0
  -20.5810  -26.9900   22.4420 C   0  0  0  0  0  2  0  0  0  0  0  0
  -19.4360  -26.7590   21.4510 C   0  0  0  0  0  2  0  0  0  0  0  0
  -18.0810  -26.9400   22.1420 C   0  0  0  0  0  2  0  0  0  0  0  0
  -19.1520  -28.9600   23.3010 C   0  0  0  0  0  0  0  0  0  0  0  0
  -19.0110  -30.2070   23.9470 C   0  0  0  0  0  3  0  0  0  0  0  0
  -17.7360  -30.7610   24.1730 C   0  0  0  0  0  3  0  0  0  0  0  0
  -16.5860  -30.0640   23.7650 C   0  0  0  0  0  3  0  0  0  0  0  0
  -16.7120  -28.8190   23.1230 C   0  0  0  0  0  3  0  0  0  0  0  0
  -25.8640  -32.5120   23.8000 C   0  0  0  0  0  3  0  0  0  0  0  0
  -25.5560  -33.9060   24.1480 N   0  0  0  0  0  0  0  0  0  0  0  0
  -25.8880  -34.9670   23.3990 C   0  0  0  0  0  0  0  0  0  0  0  0
  -26.5590  -34.8760   22.3680 O   0  0  0  0  0  0  0  0  0  0  0  0
  -24.9650  -34.0520   24.9540 H   0  0  0  0  0  0  0  0  0  0  0  0
  -24.1490  -36.7530   23.0700 C   0  0  0  0  0  1  0  0  0  0  0  0
  -25.3980  -36.3500   23.8700 C   0  0  0  0  0  3  0  0  0  0  0  0
  -27.5350  -37.2370   24.6920 C   0  0  0  0  0  1  0  0  0  0  0  0
  -26.4260  -37.4080   23.7570 N   0  0  0  0  0  0  0  0  0  0  0  0
  -26.0180  -38.3260   23.9150 H   0  0  0  0  0  0  0  0  0  0  0  0
  -26.3740  -31.7200   25.0660 C   0  0  1  0  0  0  0  0  0  0  0  0
  -25.2740  -31.4640   26.1230 C   0  0  0  0  0  1  0  0  0  0  0  0
  -26.9580  -30.3490   24.6500 C   0  0  0  0  0  1  0  0  0  0  0  0
  -27.5190  -32.5040   25.7510 C   0  0  0  0  0  1  0  0  0  0  0  0
  -31.0670  -19.7660   22.8550 N   0  0  0  0  0  4  0  0  0  0  0  0
  -30.2520  -20.2950   22.5930 H   0  0  0  0  0  0  0  0  0  0  0  0
  -30.8970  -19.3640   23.7630 H   0  0  0  0  0  0  0  0  0  0  0  0
  -31.2550  -18.6520   21.9030 C   0  0  0  0  0  2  0  0  0  0  0  0
  -30.1550  -17.5750   21.9930 C   0  0  0  0  0  2  0  0  0  0  0  0
  -30.4870  -16.4390   21.0160 C   0  0  0  0  0  2  0  0  0  0  0  0
  -29.6060  -15.1730   21.1010 C   0  0  0  0  0  2  0  0  0  0  0  0
  -30.0450  -14.1260   20.0580 C   0  0  0  0  0  0  0  0  0  0  0  0
  -29.6970  -12.0000   18.8580 C   0  0  0  0  0  2  0  0  0  0  0  0
  -28.6580  -12.1730   17.7360 C   0  0  0  0  0  2  0  0  0  0  0  0
  -27.2350  -11.9550   18.2850 C   0  0  0  0  0  2  0  0  0  0  0  0
  -26.9600  -12.7780   19.5730 C   0  0  0  0  0  3  0  0  0  0  0  0
  -28.1100  -12.6160   20.5950 C   0  0  0  0  0  2  0  0  0  0  0  0
  -29.3720  -12.9560   19.9260 N   0  0  0  0  0  0  0  0  0  0  0  0
  -31.0150  -14.3970   19.3410 O   0  0  0  0  0  0  0  0  0  0  0  0
  -24.5870  -13.2510   20.4530 C   0  0  0  0  0  0  0  0  0  0  0  0
  -23.5970  -12.4200   20.9060 C   0  0  0  0  0  0  0  0  0  0  0  0
  -24.1340  -11.0990   20.8490 C   0  0  0  0  0  0  0  0  0  0  0  0
  -25.6650  -12.4310   20.1530 N   0  0  0  0  0  0  0  0  0  0  0  0
  -25.3980  -11.1320   20.4460 N   0  0  0  0  0  0  0  0  0  0  0  0
  -23.5020   -9.7980   21.1030 C   0  0  0  0  0  0  0  0  0  0  0  0
  -24.0340   -8.8880   22.0440 C   0  0  0  0  0  3  0  0  0  0  0  0
  -23.3980   -7.6520   22.2840 C   0  0  0  0  0  3  0  0  0  0  0  0
  -22.2160   -7.3130   21.5820 C   0  0  0  0  0  0  0  0  0  0  0  0
  -21.7040   -8.2110   20.6300 C   0  0  0  0  0  3  0  0  0  0  0  0
  -22.3410   -9.4400   20.3890 C   0  0  0  0  0  3  0  0  0  0  0  0
  -21.5450   -6.1240   21.7310 O   0  0  0  0  0  0  0  0  0  0  0  0
  -21.5700   -5.4260   22.9110 C   0  0  0  0  0  0  0  0  0  0  0  0
  -21.1330   -5.9990   24.1250 C   0  0  0  0  0  3  0  0  0  0  0  0
  -21.1100   -5.2240   25.3010 C   0  0  0  0  0  3  0  0  0  0  0  0
  -21.5150   -3.8760   25.2650 C   0  0  0  0  0  0  0  0  0  0  0  0
  -21.9450   -3.3020   24.0560 C   0  0  0  0  0  3  0  0  0  0  0  0
  -21.9690   -4.0750   22.8820 C   0  0  0  0  0  0  0  0  0  0  0  0
  -22.3650   -3.5110   21.7160 F   0  0  0  0  0  0  0  0  0  0  0  0
  -21.4850   -3.1280   26.3930 F   0  0  0  0  0  0  0  0  0  0  0  0
  -22.1980  -12.8160   21.2820 C   0  0  0  0  0  0  0  0  0  0  0  0
  -21.5840  -12.0900   22.2080 N   0  0  0  0  0  0  0  0  0  0  0  0
  -21.6600  -13.8080   20.7900 O   0  0  0  0  0  0  0  0  0  0  0  0
  -22.0340  -11.2900   22.6280 H   0  0  0  0  0  0  0  0  0  0  0  0
  -20.6500  -12.3380   22.5020 H   0  0  0  0  0  0  0  0  0  0  0  0
  -24.6550  -14.6270   20.2530 N   0  0  0  0  0  0  0  0  0  0  0  0
  -23.8620  -15.2360   20.4160 H   0  0  0  0  0  0  0  0  0  0  0  0
  -25.4580  -15.1130   19.8730 H   0  0  0  0  0  0  0  0  0  0  0  0
  1  3  1  0
  1  2  2  0
  2  4  1  0
  3  6  1  0
  4  5  1  0
  6 55  1  0
  6  5  1  0
  8 10  1  0
  9 11  2  0
 10  2  1  0
 10  7  2  0
 11  7  1  0
 11 13  1  0
 12  8  2  0
 12  9  1  0
 14 12  1  0
 15 26  2  0
 16 14  1  0
 16 21  1  0
 17 25  1  0
 17 27  1  0
 18 24  1  0
 18 20  1  0
 19 25  1  0
 20 21  2  0
 20 19  1  0
 22 16  2  0
 23 22  1  0
 23 18  2  0
 24 17  1  0
 25 15  1  0
 27 29  2  0
 28 27  1  0
 30 28  1  0
 31 40  2  0
 31 36  1  0
 32 28  1  0
 32 36  1  0
 33 32  1  0
 34 35  1  0
 34 33  1  0
 35 31  1  0
 36 37  2  0
 37 38  1  0
 39 38  2  0
 40 39  1  0
 41 15  1  0
 41 42  1  0
 41 51  1  0
 42 45  1  0
 43 47  1  0
 43 42  1  0
 44 43  2  0
 47 46  1  0
 49 47  1  0
 49 50  1  0
 49 48  1  0
 51 54  1  1
 51 52  1  0
 53 51  1  0
 55 57  1  0
 56 55  1  0
 58 59  1  0
 58 55  1  0
 60 61  1  0
 60 59  1  0
 62 61  1  0
 63 68  1  0
 64 65  1  0
 64 63  1  0
 66 65  1  0
 66 73  1  0
 66 67  1  0
 68 62  1  0
 68 67  1  0
 69 62  2  0
 70 71  2  0
 71 90  1  0
 72 71  1  0
 72 75  1  0
 73 74  1  0
 73 70  1  0
 74 72  2  0
 75 76  1  0
 76 77  2  0
 78 81  1  0
 78 77  1  0
 79 78  2  0
 80 79  1  0
 80 75  2  0
 81 82  1  0
 82 83  1  0
 83 84  2  0
 85 84  1  0
 85 89  1  0
 86 85  2  0
 87 82  2  0
 87 86  1  0
 88 87  1  0
 90 91  1  0
 91 94  1  0
 91 93  1  0
 92 90  2  0
 95 96  1  0
 95 70  1  0
 97 95  1  0
M  ISO  4  12 101  14 101  61 100  62 100
M  END
>  <TORSDO>  (45) 
F 22

>  <SCORE>  (45) 
-9.635

>  <name>  (45) 
44

>  <ligand_id>  (45) 
44

>  <original_smiles>  (45) 
[H]C1=C(c2c([H])c(Oc3c([H])c([H])c4c(c3[H])C([H])([H])N(C(=O)C([H])(N([H])C(=O)C([H])(N([H])C([H])([H])[H])C([H])([H])[H])C(C([H])([H])[H])(C([H])([H])[H])C([H])([H])[H])C([H])(C(=O)N([H])C3([H])c5c([H])c([H])c([H])c([H])c5C([H])([H])C([H])([H])C3([H])[H])C4([H])[H])c([H])c(C([H])([H])[H])c2[H])C([H])([H])C([H])([H])C([H])([N+]([H])([H])C([H])([H])C([H])([H])C([H])([H])C([H])([H])C(=O)N2C([H])([H])C([H])([H])C([H])([H])C([H])(n3nc(-c4c([H])c([H])c(Oc5c([H])c([H])c(F)c([H])c5F)c([H])c4[H])c(C(=O)N([H])[H])c3N([H])[H])C2([H])[H])C1([H])[H]

>  <smiles>  (45) 
[H]C1=C(c2c([H])c(Oc3c([H])c([H])c4c(c3[H])C([H])([H])N(C(=O)C([H])(N([H])C(=O)C([H])(N([H])C([H])([H])[H])C([H])([H])[H])C(C([H])([H])[H])(C([H])([H])[H])C([H])([H])[H])C([H])(C(=O)N([H])C3([H])c5c([H])c([H])c([H])c([H])c5C([H])([H])C([H])([H])C3([H])[H])C4([H])[H])c([H])c(C([H])([H])[H])c2[H])C([H])([H])C([H])([H])C([H])([N+]([H])([H])C([H])([H])C([H])([H])C([H])([H])C([H])([H])C(=O)N2C([H])([H])C([H])([H])C([H])([H])C([H])(n3nc(-c4c([H])c([H])c(Oc5c([H])c([H])c(F)c([H])c5F)c([H])c4[H])c(C(=O)N([H])[H])c3N([H])[H])C2([H])[H])C1([H])[H]

$$$$
45:0:0
     RDKit          3D

 97106  0  0  1  0  0  0  0  0999 V2000
  -33.1680  -21.8250   18.0730 C   0  0  0  0  0  3  0  0  0  0  0  0
  -32.2530  -22.1110   19.0980 C   0  0  0  0  0  3  0  0  0  0  0  0
  -33.4740  -20.4920   17.7720 C   0  0  0  0  0  3  0  0  0  0  0  0
  -31.6780  -21.0740   19.8640 C   0  0  0  0  0  0  0  0  0  0  0  0
  -32.0310  -19.7170   19.6050 C   0  0  0  0  0  0  0  0  0  0  0  0
  -32.8980  -19.4350   18.5090 C   0  0  0  0  0  0  0  0  0  0  0  0
  -30.6810  -21.4780   20.9480 C   0  0  0  0  0  2  0  0  0  0  0  0
  -31.4730  -18.5770   20.4760 C   0  0  0  0  0  2  0  0  0  0  0  0
  -29.0130  -19.6170   20.0030 C   0  0  0  0  0  2  0  0  0  0  0  0
  -30.0480  -18.1640   20.0560 C   0  0  0  0  0  3  0  0  0  0  0  0
  -29.1880  -21.3120   20.5480 C   0  0  1  0  0  0  0  0  0  0  0  0
  -28.3780  -21.3430   21.8560 C   0  0  0  0  0  1  0  0  0  0  0  0
  -30.4640  -15.2790   20.2900 C   0  0  0  0  0  0  0  0  0  0  0  0
  -30.4050  -12.8310   19.4730 C   0  0  0  0  0  2  0  0  0  0  0  0
  -29.5110  -12.6400   18.2240 C   0  0  0  0  0  2  0  0  0  0  0  0
  -28.0470  -12.4080   18.6350 C   0  0  0  0  0  2  0  0  0  0  0  0
  -27.5860  -13.3730   19.7570 C   0  0  0  0  0  3  0  0  0  0  0  0
  -28.6210  -13.5230   20.8940 C   0  0  0  0  0  2  0  0  0  0  0  0
  -29.8690  -13.9890   20.2740 N   0  0  0  0  0  0  0  0  0  0  0  0
  -31.6790  -15.2560   20.0640 O   0  0  0  0  0  0  0  0  0  0  0  0
  -29.7320  -16.5590   20.3520 N   0  0  0  0  0  0  0  0  0  0  0  0
  -28.7540  -16.4020   20.5490 H   0  0  0  0  0  0  0  0  0  0  0  0
  -25.1990  -13.9320   20.4570 C   0  0  0  0  0  0  0  0  0  0  0  0
  -24.1330  -13.1550   20.8140 C   0  0  0  0  0  0  0  0  0  0  0  0
  -24.6050  -11.8070   20.8120 C   0  0  0  0  0  0  0  0  0  0  0  0
  -26.2510  -13.0570   20.2460 N   0  0  0  0  0  0  0  0  0  0  0  0
  -25.9050  -11.7750   20.5280 N   0  0  0  0  0  0  0  0  0  0  0  0
  -23.8790  -10.5450   21.0030 C   0  0  0  0  0  0  0  0  0  0  0  0
  -24.2900   -9.5910   21.9600 C   0  0  0  0  0  3  0  0  0  0  0  0
  -23.5600   -8.3950   22.1390 C   0  0  0  0  0  3  0  0  0  0  0  0
  -22.4040   -8.1470   21.3610 C   0  0  0  0  0  0  0  0  0  0  0  0
  -22.0130   -9.0890   20.3950 C   0  0  0  0  0  3  0  0  0  0  0  0
  -22.7420  -10.2750   20.2120 C   0  0  0  0  0  3  0  0  0  0  0  0
  -21.6470   -7.0010   21.4480 O   0  0  0  0  0  0  0  0  0  0  0  0
  -21.5750   -6.2730   22.6080 C   0  0  0  0  0  0  0  0  0  0  0  0
  -21.1300   -6.8460   23.8210 C   0  0  0  0  0  3  0  0  0  0  0  0
  -21.0050   -6.0440   24.9720 C   0  0  0  0  0  3  0  0  0  0  0  0
  -21.3140   -4.6730   24.9140 C   0  0  0  0  0  0  0  0  0  0  0  0
  -21.7520   -4.1000   23.7080 C   0  0  0  0  0  3  0  0  0  0  0  0
  -21.8790   -4.8980   22.5570 C   0  0  0  0  0  0  0  0  0  0  0  0
  -22.2810   -4.3360   21.3910 F   0  0  0  0  0  0  0  0  0  0  0  0
  -21.1870   -3.9000   26.0190 F   0  0  0  0  0  0  0  0  0  0  0  0
  -22.7300  -13.6310   21.0430 C   0  0  0  0  0  0  0  0  0  0  0  0
  -21.9820  -12.9440   21.8980 N   0  0  0  0  0  0  0  0  0  0  0  0
  -22.3060  -14.6500   20.4990 O   0  0  0  0  0  0  0  0  0  0  0  0
  -22.3410  -12.1210   22.3570 H   0  0  0  0  0  0  0  0  0  0  0  0
  -21.0410  -13.2470   22.1040 H   0  0  0  0  0  0  0  0  0  0  0  0
  -25.3530  -15.3010   20.2590 N   0  0  0  0  0  0  0  0  0  0  0  0
  -24.5690  -15.9390   20.3350 H   0  0  0  0  0  0  0  0  0  0  0  0
  -26.1790  -15.7380   19.8760 H   0  0  0  0  0  0  0  0  0  0  0  0
  -33.2230  -18.0210   18.0320 C   0  0  0  0  0  2  0  0  0  0  0  0
  -34.5650  -17.4840   18.5590 C   0  0  0  0  0  2  0  0  0  0  0  0
  -36.1770  -15.4900   18.5200 C   0  0  0  0  0  1  0  0  0  0  0  0
  -35.0350  -16.2270   17.8080 C   0  0  0  0  0  2  0  0  0  0  0  0
  -28.7020  -22.8660   19.8010 C   0  0  0  0  0  2  0  0  0  0  0  0
  -28.1630  -24.4320   20.4720 C   0  0  0  0  0  2  0  0  0  0  0  0
  -28.2500  -26.0100   20.0630 O   0  0  0  0  0  0  0  0  0  0  0  0
  -24.5890  -31.8550   23.1360 C   0  0  0  0  0  0  0  0  0  0  0  0
  -27.1890  -27.0400   20.1050 C   0  0  0  0  0  0  0  0  0  0  0  0
  -23.4050  -30.4560   21.4910 C   0  0  0  0  0  3  0  0  0  0  0  0
  -24.8640  -28.8660   20.0720 C   0  0  0  0  0  0  0  0  0  0  0  0
  -25.9670  -30.6960   21.3440 C   0  0  0  0  0  2  0  0  0  0  0  0
  -26.0490  -29.2910   20.6890 C   0  0  0  0  0  0  0  0  0  0  0  0
  -27.2080  -28.4000   20.6760 C   0  0  0  0  0  3  0  0  0  0  0  0
  -25.9670  -26.7450   19.4590 C   0  0  0  0  0  3  0  0  0  0  0  0
  -24.8440  -27.6100   19.4430 C   0  0  0  0  0  3  0  0  0  0  0  0
  -23.6410  -29.7790   20.1150 C   0  0  0  0  0  2  0  0  0  0  0  0
  -24.6750  -31.0290   22.0460 N   0  0  0  0  0  0  0  0  0  0  0  0
  -23.4970  -32.1370   23.6560 O   0  0  0  0  0  0  0  0  0  0  0  0
  -22.7190  -29.4510   22.4520 C   0  0  0  0  0  0  0  0  0  0  0  0
  -21.3870  -29.2930   22.3370 N   0  0  0  0  0  0  0  0  0  0  0  0
  -23.3920  -28.8150   23.2690 O   0  0  0  0  0  0  0  0  0  0  0  0
  -20.8990  -29.8550   21.6540 H   0  0  0  0  0  0  0  0  0  0  0  0
  -18.0040  -28.1040   22.8710 C   0  0  0  0  0  0  0  0  0  0  0  0
  -20.5680  -28.3510   23.1070 C   0  0  0  0  0  3  0  0  0  0  0  0
  -20.6530  -26.9250   22.5120 C   0  0  0  0  0  2  0  0  0  0  0  0
  -19.5360  -26.6240   21.5080 C   0  0  0  0  0  2  0  0  0  0  0  0
  -18.1640  -26.7660   22.1710 C   0  0  0  0  0  2  0  0  0  0  0  0
  -19.1320  -28.8560   23.2960 C   0  0  0  0  0  0  0  0  0  0  0  0
  -18.9240  -30.1080   23.9140 C   0  0  0  0  0  3  0  0  0  0  0  0
  -17.6230  -30.6080   24.1090 C   0  0  0  0  0  3  0  0  0  0  0  0
  -16.5090  -29.8540   23.6970 C   0  0  0  0  0  3  0  0  0  0  0  0
  -16.7020  -28.6030   23.0840 C   0  0  0  0  0  3  0  0  0  0  0  0
  -25.8560  -32.5030   23.7740 C   0  0  0  0  0  3  0  0  0  0  0  0
  -25.5240  -33.8940   24.1230 N   0  0  0  0  0  0  0  0  0  0  0  0
  -25.8520  -34.9690   23.3920 C   0  0  0  0  0  0  0  0  0  0  0  0
  -26.5280  -34.8910   22.3630 O   0  0  0  0  0  0  0  0  0  0  0  0
  -24.9210  -34.0280   24.9220 H   0  0  0  0  0  0  0  0  0  0  0  0
  -24.1140  -36.7640   23.0720 C   0  0  0  0  0  1  0  0  0  0  0  0
  -25.3550  -36.3450   23.8790 C   0  0  0  0  0  3  0  0  0  0  0  0
  -27.4810  -37.2280   24.7360 C   0  0  0  0  0  1  0  0  0  0  0  0
  -26.3810  -37.4070   23.7930 N   0  0  0  0  0  0  0  0  0  0  0  0
  -25.9680  -38.3220   23.9590 H   0  0  0  0  0  0  0  0  0  0  0  0
  -26.3700  -31.7290   25.0500 C   0  0  1  0  0  0  0  0  0  0  0  0
  -25.2740  -31.4820   26.1140 C   0  0  0  0  0  1  0  0  0  0  0  0
  -26.9640  -30.3560   24.6610 C   0  0  0  0  0  1  0  0  0  0  0  0
  -27.5110  -32.5280   25.7220 C   0  0  0  0  0  1  0  0  0  0  0  0
  1  2  1  0
  2  4  2  0
  3  1  2  0
  3  6  1  0
  4  7  1  0
  5  4  1  0
  5  8  1  0
  6  5  2  0
  9 10  1  0
  9 11  1  0
 10 21  1  0
 10  8  1  0
 11  7  1  0
 11 12  1  1
 13 21  1  0
 14 19  1  0
 15 16  1  0
 15 14  1  0
 17 16  1  0
 17 26  1  0
 17 18  1  0
 19 13  1  0
 19 18  1  0
 20 13  2  0
 21 22  1  0
 23 24  2  0
 24 43  1  0
 25 24  1  0
 25 28  1  0
 26 23  1  0
 26 27  1  0
 27 25  2  0
 28 29  1  0
 29 30  2  0
 31 34  1  0
 31 30  1  0
 32 31  2  0
 33 32  1  0
 33 28  2  0
 34 35  1  0
 35 36  1  0
 36 37  2  0
 38 37  1  0
 38 42  1  0
 39 38  2  0
 40 35  2  0
 40 39  1  0
 41 40  1  0
 43 44  1  0
 44 47  1  0
 44 46  1  0
 45 43  2  0
 48 49  1  0
 48 23  1  0
 50 48  1  0
 51  6  1  0
 51 52  1  0
 54 53  1  0
 54 52  1  0
 55 56  1  0
 55 11  1  0
 57 59  1  0
 57 56  1  0
 58 69  2  0
 59 64  1  0
 60 68  1  0
 60 70  1  0
 61 67  1  0
 61 63  1  0
 62 68  1  0
 63 62  1  0
 64 63  2  0
 65 59  2  0
 66 65  1  0
 66 61  2  0
 67 60  1  0
 68 58  1  0
 70 72  2  0
 71 70  1  0
 73 71  1  0
 74 83  2  0
 74 79  1  0
 75 71  1  0
 75 79  1  0
 76 75  1  0
 77 78  1  0
 77 76  1  0
 78 74  1  0
 79 80  2  0
 80 81  1  0
 82 81  2  0
 83 82  1  0
 84 58  1  0
 84 85  1  0
 84 94  1  0
 85 88  1  0
 86 90  1  0
 86 85  1  0
 87 86  2  0
 90 89  1  0
 92 90  1  0
 92 93  1  0
 92 91  1  0
 94 97  1  1
 94 95  1  0
 96 94  1  0
M  ISO  4  13 100  21 100  56 101  57 101
M  END
>  <TORSDO>  (46) 
F 21

>  <SCORE>  (46) 
-14.310

>  <name>  (46) 
45

>  <ligand_id>  (46) 
45

>  <original_smiles>  (46) 
[H]c1c([H])c([H])c2c(c1[H])C([H])([H])C([H])([H])C([H])([H])C2([H])N([H])C(=O)C1([H])N(C(=O)C([H])(N([H])C(=O)C([H])(N([H])C([H])([H])[H])C([H])([H])[H])C(C([H])([H])[H])(C([H])([H])[H])C([H])([H])[H])C([H])([H])c2c([H])c(OC([H])([H])C([H])([H])C3(C([H])([H])[H])C([H])([H])c4c([H])c([H])c([H])c(C([H])([H])C([H])([H])C([H])([H])C([H])([H])[H])c4C([H])([H])C([H])(N([H])C(=O)N4C([H])([H])C([H])([H])C([H])([H])C([H])(n5nc(-c6c([H])c([H])c(Oc7c([H])c([H])c(F)c([H])c7F)c([H])c6[H])c(C(=O)N([H])[H])c5N([H])[H])C4([H])[H])C3([H])[H])c([H])c([H])c2C1([H])[H]

>  <smiles>  (46) 
[H]c1c([H])c([H])c2c(c1[H])C([H])([H])C([H])([H])C([H])([H])C2([H])N([H])C(=O)C1([H])N(C(=O)C([H])(N([H])C(=O)C([H])(N([H])C([H])([H])[H])C([H])([H])[H])C(C([H])([H])[H])(C([H])([H])[H])C([H])([H])[H])C([H])([H])c2c([H])c(OC([H])([H])C([H])([H])C3(C([H])([H])[H])C([H])([H])c4c([H])c([H])c([H])c(C([H])([H])C([H])([H])C([H])([H])C([H])([H])[H])c4C([H])([H])C([H])(N([H])C(=O)N4C([H])([H])C([H])([H])C([H])([H])C([H])(n5nc(-c6c([H])c([H])c(Oc7c([H])c([H])c(F)c([H])c7F)c([H])c6[H])c(C(=O)N([H])[H])c5N([H])[H])C4([H])[H])C3([H])[H])c([H])c([H])c2C1([H])[H]

$$$$
46:0:0
     RDKit          3D

 93103  0  0  1  0  0  0  0  0999 V2000
  -30.5100  -15.4000   20.1880 C   0  0  0  0  0  0  0  0  0  0  0  0
  -30.5200  -12.9180   19.4490 C   0  0  0  0  0  2  0  0  0  0  0  0
  -29.6240  -12.6000   18.2310 C   0  0  0  0  0  2  0  0  0  0  0  0
  -28.1830  -12.3060   18.6830 C   0  0  0  0  0  2  0  0  0  0  0  0
  -27.6900  -13.3110   19.7570 C   0  0  0  0  0  3  0  0  0  0  0  0
  -28.7280  -13.5950   20.8630 C   0  0  0  0  0  2  0  0  0  0  0  0
  -29.9300  -14.0990   20.1840 N   0  0  0  0  0  0  0  0  0  0  0  0
  -31.7390  -15.3460   20.0330 O   0  0  0  0  0  0  0  0  0  0  0  0
  -27.0370  -23.1210   22.0110 C   0  0  0  0  0  3  0  0  0  0  0  0
  -27.6050  -21.8850   21.6020 C   0  0  0  0  0  3  0  0  0  0  0  0
  -27.1350  -24.3310   21.2700 C   0  0  0  0  0  3  0  0  0  0  0  0
  -28.3060  -21.7860   20.3880 C   0  0  0  0  0  0  0  0  0  0  0  0
  -28.3700  -23.0660   19.6350 C   0  0  0  0  0  0  0  0  0  0  0  0
  -27.8060  -24.4550   20.0290 C   0  0  0  0  0  0  0  0  0  0  0  0
  -29.0870  -22.6180   18.3720 C   0  0  0  0  0  2  0  0  0  0  0  0
  -30.2140  -19.6380   20.5530 C   0  0  0  0  0  2  0  0  0  0  0  0
  -28.1020  -18.9350   19.8700 C   0  0  0  0  0  2  0  0  0  0  0  0
  -30.5050  -18.0020   20.8900 C   0  0  0  0  0  2  0  0  0  0  0  0
  -28.7270  -17.4240   19.4800 C   0  0  0  0  0  2  0  0  0  0  0  0
  -28.9390  -20.3480   19.7990 C   0  0  1  0  0  0  0  0  0  0  0  0
  -29.2060  -20.9990   18.3440 C   0  0  1  0  0  0  0  0  0  0  0  0
  -28.1280  -20.5110   17.3480 C   0  0  0  0  0  1  0  0  0  0  0  0
  -30.5750  -20.6320   17.7370 C   0  0  0  0  0  1  0  0  0  0  0  0
  -29.8450  -16.7410   20.2850 N   0  0  0  0  0  0  0  0  0  0  0  0
  -25.3380  -13.8190   20.5930 C   0  0  0  0  0  0  0  0  0  0  0  0
  -24.2900  -13.0220   20.9600 C   0  0  0  0  0  0  0  0  0  0  0  0
  -24.7680  -11.6770   20.8790 C   0  0  0  0  0  0  0  0  0  0  0  0
  -26.3810  -12.9610   20.2940 N   0  0  0  0  0  0  0  0  0  0  0  0
  -26.0530  -11.6650   20.5360 N   0  0  0  0  0  0  0  0  0  0  0  0
  -24.0540  -10.4030   21.0460 C   0  0  0  0  0  0  0  0  0  0  0  0
  -24.4760   -9.4360   21.9850 C   0  0  0  0  0  3  0  0  0  0  0  0
  -23.7550   -8.2320   22.1430 C   0  0  0  0  0  3  0  0  0  0  0  0
  -22.6020   -7.9850   21.3630 C   0  0  0  0  0  0  0  0  0  0  0  0
  -22.2000   -8.9410   20.4140 C   0  0  0  0  0  3  0  0  0  0  0  0
  -22.9200  -10.1360   20.2530 C   0  0  0  0  0  3  0  0  0  0  0  0
  -21.8580   -6.8320   21.4280 O   0  0  0  0  0  0  0  0  0  0  0  0
  -21.7380   -6.1170   22.5920 C   0  0  0  0  0  0  0  0  0  0  0  0
  -21.1780   -6.6810   23.7580 C   0  0  0  0  0  3  0  0  0  0  0  0
  -21.0090   -5.8910   24.9120 C   0  0  0  0  0  3  0  0  0  0  0  0
  -21.3890   -4.5350   24.9010 C   0  0  0  0  0  0  0  0  0  0  0  0
  -21.9430   -3.9710   23.7390 C   0  0  0  0  0  3  0  0  0  0  0  0
  -22.1140   -4.7580   22.5870 C   0  0  0  0  0  0  0  0  0  0  0  0
  -22.6280   -4.2030   21.4630 F   0  0  0  0  0  0  0  0  0  0  0  0
  -21.2210   -3.7740   26.0090 F   0  0  0  0  0  0  0  0  0  0  0  0
  -22.8950  -13.4810   21.2660 C   0  0  0  0  0  0  0  0  0  0  0  0
  -22.1890  -12.7660   22.1340 N   0  0  0  0  0  0  0  0  0  0  0  0
  -22.4400  -14.5140   20.7760 O   0  0  0  0  0  0  0  0  0  0  0  0
  -22.5700  -11.9360   22.5650 H   0  0  0  0  0  0  0  0  0  0  0  0
  -21.2560  -13.0610   22.3830 H   0  0  0  0  0  0  0  0  0  0  0  0
  -25.4860  -15.1950   20.4560 N   0  0  0  0  0  0  0  0  0  0  0  0
  -24.7170  -15.8390   20.6070 H   0  0  0  0  0  0  0  0  0  0  0  0
  -26.3290  -15.6530   20.1370 H   0  0  0  0  0  0  0  0  0  0  0  0
  -27.8790  -25.8860   19.4950 O   0  0  0  0  0  0  0  0  0  0  0  0
  -24.6580  -31.7950   22.9810 C   0  0  0  0  0  0  0  0  0  0  0  0
  -26.9020  -26.9990   19.6360 C   0  0  0  0  0  0  0  0  0  0  0  0
  -23.3430  -30.5110   21.3460 C   0  0  0  0  0  3  0  0  0  0  0  0
  -24.6670  -28.9350   19.7870 C   0  0  0  0  0  0  0  0  0  0  0  0
  -25.9040  -30.6580   21.0800 C   0  0  0  0  0  2  0  0  0  0  0  0
  -25.8960  -29.2770   20.3670 C   0  0  0  0  0  0  0  0  0  0  0  0
  -27.0100  -28.3300   20.2700 C   0  0  0  0  0  3  0  0  0  0  0  0
  -25.6500  -26.8080   19.0160 C   0  0  0  0  0  3  0  0  0  0  0  0
  -24.5660  -27.7180   19.0940 C   0  0  0  0  0  3  0  0  0  0  0  0
  -23.4840  -29.8870   19.9330 C   0  0  0  0  0  2  0  0  0  0  0  0
  -24.6600  -31.0120   21.8560 N   0  0  0  0  0  0  0  0  0  0  0  0
  -23.6060  -32.0920   23.5690 O   0  0  0  0  0  0  0  0  0  0  0  0
  -22.6670  -29.4910   22.2990 C   0  0  0  0  0  0  0  0  0  0  0  0
  -21.3310  -29.3470   22.2120 N   0  0  0  0  0  0  0  0  0  0  0  0
  -23.3520  -28.8280   23.0850 O   0  0  0  0  0  0  0  0  0  0  0  0
  -20.8310  -29.9320   21.5560 H   0  0  0  0  0  0  0  0  0  0  0  0
  -17.9470  -28.2000   22.8310 C   0  0  0  0  0  0  0  0  0  0  0  0
  -20.5220  -28.3950   22.9810 C   0  0  0  0  0  3  0  0  0  0  0  0
  -20.5600  -26.9890   22.3400 C   0  0  0  0  0  2  0  0  0  0  0  0
  -19.4030  -26.7390   21.3660 C   0  0  0  0  0  2  0  0  0  0  0  0
  -18.0570  -26.8830   22.0820 C   0  0  0  0  0  2  0  0  0  0  0  0
  -19.1020  -28.9180   23.2390 C   0  0  0  0  0  0  0  0  0  0  0  0
  -18.9420  -30.1520   23.9060 C   0  0  0  0  0  3  0  0  0  0  0  0
  -17.6580  -30.6690   24.1630 C   0  0  0  0  0  3  0  0  0  0  0  0
  -16.5170  -29.9490   23.7690 C   0  0  0  0  0  3  0  0  0  0  0  0
  -16.6630  -28.7150   23.1100 C   0  0  0  0  0  3  0  0  0  0  0  0
  -25.9780  -32.3720   23.5760 C   0  0  0  0  0  3  0  0  0  0  0  0
  -25.7070  -33.7420   24.0450 N   0  0  0  0  0  0  0  0  0  0  0  0
  -25.9900  -34.8580   23.3630 C   0  0  0  0  0  0  0  0  0  0  0  0
  -26.5730  -34.8460   22.2770 O   0  0  0  0  0  0  0  0  0  0  0  0
  -25.1760  -33.8260   24.9000 H   0  0  0  0  0  0  0  0  0  0  0  0
  -24.2620  -36.6900   23.3180 C   0  0  0  0  0  1  0  0  0  0  0  0
  -25.5600  -36.2050   23.9820 C   0  0  0  0  0  3  0  0  0  0  0  0
  -27.7620  -37.0080   24.7170 C   0  0  0  0  0  1  0  0  0  0  0  0
  -26.5920  -37.2610   23.8790 N   0  0  0  0  0  0  0  0  0  0  0  0
  -26.2070  -38.1650   24.1370 H   0  0  0  0  0  0  0  0  0  0  0  0
  -26.5580  -31.4990   24.7570 C   0  0  1  0  0  0  0  0  0  0  0  0
  -25.5310  -31.2030   25.8760 C   0  0  0  0  0  1  0  0  0  0  0  0
  -27.0830  -30.1430   24.2360 C   0  0  0  0  0  1  0  0  0  0  0  0
  -27.7690  -32.2180   25.3970 C   0  0  0  0  0  1  0  0  0  0  0  0
  1 24  1  0
  2  7  1  0
  3  4  1  0
  3  2  1  0
  5  4  1  0
  5 28  1  0
  5  6  1  0
  7  1  1  0
  7  6  1  0
  8  1  2  0
 10  9  1  0
 11  9  2  0
 12 10  2  0
 13 14  2  0
 13 12  1  0
 14 11  1  0
 15 13  1  0
 16 18  1  0
 19 17  1  0
 19 24  1  0
 20 17  1  6
 20 12  1  0
 20 16  1  0
 21 15  1  0
 21 20  1  0
 21 22  1  6
 23 21  1  0
 24 18  1  0
 25 26  2  0
 26 45  1  0
 27 26  1  0
 27 30  1  0
 28 29  1  0
 28 25  1  0
 29 27  2  0
 30 31  1  0
 31 32  2  0
 33 36  1  0
 33 32  1  0
 34 33  2  0
 35 34  1  0
 35 30  2  0
 36 37  1  0
 37 38  1  0
 38 39  2  0
 40 39  1  0
 40 44  1  0
 41 40  2  0
 42 37  2  0
 42 41  1  0
 43 42  1  0
 45 46  1  0
 46 49  1  0
 46 48  1  0
 47 45  2  0
 50 25  1  0
 50 51  1  0
 52 50  1  0
 53 55  1  0
 53 14  1  0
 54 65  2  0
 55 60  1  0
 56 64  1  0
 56 66  1  0
 57 63  1  0
 57 59  1  0
 58 64  1  0
 59 58  1  0
 60 59  2  0
 61 62  1  0
 61 55  2  0
 62 57  2  0
 63 56  1  0
 64 54  1  0
 66 68  2  0
 67 66  1  0
 69 67  1  0
 70 79  2  0
 70 75  1  0
 71 67  1  0
 71 75  1  0
 72 71  1  0
 73 74  1  0
 73 72  1  0
 74 70  1  0
 75 76  2  0
 76 77  1  0
 78 77  2  0
 79 78  1  0
 80 54  1  0
 80 81  1  0
 80 90  1  0
 81 84  1  0
 82 86  1  0
 82 81  1  0
 83 82  2  0
 86 85  1  0
 88 86  1  0
 88 89  1  0
 88 87  1  0
 90 93  1  1
 90 91  1  0
 92 90  1  0
M  ISO  4   1 100  14 101  24 100  53 101
M  END
>  <TORSDO>  (47) 
F 15

>  <SCORE>  (47) 
-15.452

>  <name>  (47) 
46

>  <ligand_id>  (47) 
46

>  <original_smiles>  (47) 
[H]c1c([H])c([H])c2c(c1[H])C([H])([H])C([H])([H])C([H])([H])C2([H])N([H])C(=O)C1([H])N(C(=O)C([H])(N([H])C(=O)C([H])(N([H])C([H])([H])[H])C([H])([H])[H])C(C([H])([H])[H])(C([H])([H])[H])C([H])([H])[H])C([H])([H])c2c([H])c(Oc3c([H])c([H])c([H])c4c3C([H])([H])C(C([H])([H])[H])(C([H])([H])[H])C43C([H])([H])C([H])([H])N(C(=O)N4C([H])([H])C([H])([H])C([H])([H])C([H])(n5nc(-c6c([H])c([H])c(Oc7c([H])c([H])c(F)c([H])c7F)c([H])c6[H])c(C(=O)N([H])[H])c5N([H])[H])C4([H])[H])C([H])([H])C3([H])[H])c([H])c([H])c2C1([H])[H]

>  <smiles>  (47) 
[H]c1c([H])c([H])c2c(c1[H])C([H])([H])C([H])([H])C([H])([H])C2([H])N([H])C(=O)C1([H])N(C(=O)C([H])(N([H])C(=O)C([H])(N([H])C([H])([H])[H])C([H])([H])[H])C(C([H])([H])[H])(C([H])([H])[H])C([H])([H])[H])C([H])([H])c2c([H])c(Oc3c([H])c([H])c([H])c4c3C([H])([H])C(C([H])([H])[H])(C([H])([H])[H])C43C([H])([H])C([H])([H])N(C(=O)N4C([H])([H])C([H])([H])C([H])([H])C([H])(n5nc(-c6c([H])c([H])c(Oc7c([H])c([H])c(F)c([H])c7F)c([H])c6[H])c(C(=O)N([H])[H])c5N([H])[H])C4([H])[H])C([H])([H])C3([H])[H])c([H])c([H])c2C1([H])[H]

$$$$
47:0:0
     RDKit          3D

 95104  0  0  1  0  0  0  0  0999 V2000
  -28.6030  -25.1870   18.4020 C   0  0  0  0  0  3  0  0  0  0  0  0
  -29.5140  -23.4040   20.3760 C   0  0  0  0  0  3  0  0  0  0  0  0
  -29.0350  -23.8980   18.0280 C   0  0  0  0  0  0  0  0  0  0  0  0
  -29.5430  -23.0190   19.0190 C   0  0  0  0  0  0  0  0  0  0  0  0
  -28.6350  -25.5870   19.7520 C   0  0  0  0  0  0  0  0  0  0  0  0
  -29.0610  -24.6820   20.7420 C   0  0  0  0  0  0  0  0  0  0  0  0
  -28.9860  -23.5130   16.5580 C   0  0  0  0  0  1  0  0  0  0  0  0
  -29.1000  -25.0660   22.0410 F   0  0  0  0  0  0  0  0  0  0  0  0
  -28.4310  -26.8930   20.1020 O   0  0  0  0  0  0  0  0  0  0  0  0
  -24.5380  -31.8900   23.2210 C   0  0  0  0  0  0  0  0  0  0  0  0
  -27.1990  -27.4950   20.1220 C   0  0  0  0  0  0  0  0  0  0  0  0
  -23.3240  -30.4760   21.5880 C   0  0  0  0  0  3  0  0  0  0  0  0
  -24.7760  -28.9410   20.1590 C   0  0  0  0  0  0  0  0  0  0  0  0
  -25.8390  -30.8610   21.3650 C   0  0  0  0  0  2  0  0  0  0  0  0
  -25.9260  -29.4890   20.7360 C   0  0  0  0  0  0  0  0  0  0  0  0
  -27.1350  -28.7680   20.7200 C   0  0  0  0  0  3  0  0  0  0  0  0
  -26.0280  -26.9390   19.5550 C   0  0  0  0  0  3  0  0  0  0  0  0
  -24.8190  -27.6620   19.5720 C   0  0  0  0  0  3  0  0  0  0  0  0
  -23.5250  -29.7860   20.2110 C   0  0  0  0  0  2  0  0  0  0  0  0
  -24.5850  -31.0910   22.1170 N   0  0  0  0  0  0  0  0  0  0  0  0
  -23.4610  -32.1570   23.7710 O   0  0  0  0  0  0  0  0  0  0  0  0
  -22.6900  -29.4540   22.5580 C   0  0  0  0  0  0  0  0  0  0  0  0
  -21.3660  -29.2620   22.4380 N   0  0  0  0  0  0  0  0  0  0  0  0
  -23.3830  -28.8350   23.3680 O   0  0  0  0  0  0  0  0  0  0  0  0
  -20.8700  -29.8110   21.7510 H   0  0  0  0  0  0  0  0  0  0  0  0
  -18.0060  -28.0430   22.9410 C   0  0  0  0  0  0  0  0  0  0  0  0
  -20.5600  -28.3210   23.2130 C   0  0  0  0  0  3  0  0  0  0  0  0
  -20.6770  -26.8890   22.6400 C   0  0  0  0  0  2  0  0  0  0  0  0
  -19.5760  -26.5540   21.6280 C   0  0  0  0  0  2  0  0  0  0  0  0
  -18.1930  -26.6920   22.2710 C   0  0  0  0  0  2  0  0  0  0  0  0
  -19.1190  -28.8150   23.3680 C   0  0  0  0  0  0  0  0  0  0  0  0
  -18.8910  -30.0810   23.9510 C   0  0  0  0  0  3  0  0  0  0  0  0
  -17.5820  -30.5740   24.1110 C   0  0  0  0  0  3  0  0  0  0  0  0
  -16.4840  -29.7980   23.7030 C   0  0  0  0  0  3  0  0  0  0  0  0
  -16.6970  -28.5340   23.1230 C   0  0  0  0  0  3  0  0  0  0  0  0
  -25.8280  -32.5260   23.8290 C   0  0  0  0  0  3  0  0  0  0  0  0
  -26.3710  -31.7490   25.0900 C   0  0  1  0  0  0  0  0  0  0  0  0
  -25.2960  -31.5000   26.1740 C   0  0  0  0  0  1  0  0  0  0  0  0
  -26.9520  -30.3760   24.6750 C   0  0  0  0  0  1  0  0  0  0  0  0
  -27.5290  -32.5440   25.7390 C   0  0  0  0  0  1  0  0  0  0  0  0
  -25.5150  -33.9200   24.1700 N   0  0  0  0  0  0  0  0  0  0  0  0
  -25.8400  -34.9770   23.4160 C   0  0  0  0  0  0  0  0  0  0  0  0
  -26.5050  -34.8840   22.3790 O   0  0  0  0  0  0  0  0  0  0  0  0
  -24.9250  -34.0670   24.9760 H   0  0  0  0  0  0  0  0  0  0  0  0
  -24.1020  -36.7630   23.0740 C   0  0  0  0  0  1  0  0  0  0  0  0
  -25.3460  -36.3590   23.8830 C   0  0  0  0  0  3  0  0  0  0  0  0
  -27.4790  -37.2470   24.7140 C   0  0  0  0  0  1  0  0  0  0  0  0
  -26.3730  -37.4180   23.7760 N   0  0  0  0  0  0  0  0  0  0  0  0
  -25.9640  -38.3350   23.9330 H   0  0  0  0  0  0  0  0  0  0  0  0
  -30.2120  -21.7040   18.6590 C   0  0  0  0  0  2  0  0  0  0  0  0
  -29.3010  -20.4710   18.7940 C   0  0  0  0  0  2  0  0  0  0  0  0
  -28.8900  -18.0930   17.9030 C   0  0  0  0  0  2  0  0  0  0  0  0
  -31.2010  -18.7030   18.8360 C   0  0  0  0  0  2  0  0  0  0  0  0
  -28.6600  -17.2150   19.1440 C   0  0  0  0  0  2  0  0  0  0  0  0
  -30.9150  -17.8100   20.0620 C   0  0  0  0  0  2  0  0  0  0  0  0
  -29.9200  -19.2230   18.1300 C   0  0  0  0  0  3  0  0  0  0  0  0
  -30.0090  -16.6500   19.6190 C   0  0  0  0  0  3  0  0  0  0  0  0
  -30.6610  -14.4790   20.5370 C   0  0  0  0  0  0  0  0  0  0  0  0
  -30.3730  -12.2960   19.4870 C   0  0  0  0  0  2  0  0  0  0  0  0
  -29.4730  -12.5160   18.2510 C   0  0  0  0  0  2  0  0  0  0  0  0
  -27.9860  -12.3970   18.6390 C   0  0  0  0  0  2  0  0  0  0  0  0
  -27.6190  -13.2510   19.8830 C   0  0  0  0  0  3  0  0  0  0  0  0
  -28.6460  -13.0550   21.0260 C   0  0  0  0  0  2  0  0  0  0  0  0
  -29.9930  -13.3010   20.4870 N   0  0  0  0  0  0  0  0  0  0  0  0
  -31.8420  -14.6050   20.2020 O   0  0  0  0  0  0  0  0  0  0  0  0
  -29.8600  -15.5540   20.5860 N   0  0  0  0  0  0  0  0  0  0  0  0
  -28.9240  -15.3800   20.9220 H   0  0  0  0  0  0  0  0  0  0  0  0
  -25.2040  -13.8830   20.5180 C   0  0  0  0  0  0  0  0  0  0  0  0
  -24.1240  -13.1200   20.8700 C   0  0  0  0  0  0  0  0  0  0  0  0
  -24.5800  -11.7660   20.8710 C   0  0  0  0  0  0  0  0  0  0  0  0
  -26.2520  -12.9940   20.3290 N   0  0  0  0  0  0  0  0  0  0  0  0
  -25.8780  -11.7180   20.6000 N   0  0  0  0  0  0  0  0  0  0  0  0
  -23.8450  -10.5090   21.0580 C   0  0  0  0  0  0  0  0  0  0  0  0
  -24.2610   -9.5430   22.0000 C   0  0  0  0  0  3  0  0  0  0  0  0
  -23.5280   -8.3500   22.1730 C   0  0  0  0  0  3  0  0  0  0  0  0
  -22.3630   -8.1150   21.4030 C   0  0  0  0  0  0  0  0  0  0  0  0
  -21.9660   -9.0690   20.4510 C   0  0  0  0  0  3  0  0  0  0  0  0
  -22.7010  -10.2530   20.2750 C   0  0  0  0  0  3  0  0  0  0  0  0
  -21.6020   -6.9730   21.4860 O   0  0  0  0  0  0  0  0  0  0  0  0
  -21.5470   -6.2260   22.6360 C   0  0  0  0  0  0  0  0  0  0  0  0
  -21.1380   -6.7830   23.8670 C   0  0  0  0  0  3  0  0  0  0  0  0
  -21.0290   -5.9630   25.0080 C   0  0  0  0  0  3  0  0  0  0  0  0
  -21.3210   -4.5880   24.9190 C   0  0  0  0  0  0  0  0  0  0  0  0
  -21.7240   -4.0320   23.6930 C   0  0  0  0  0  3  0  0  0  0  0  0
  -21.8340   -4.8490   22.5540 C   0  0  0  0  0  0  0  0  0  0  0  0
  -22.2020   -4.3050   21.3700 F   0  0  0  0  0  0  0  0  0  0  0  0
  -21.2080   -3.7990   26.0130 F   0  0  0  0  0  0  0  0  0  0  0  0
  -22.7210  -13.6060   21.0960 C   0  0  0  0  0  0  0  0  0  0  0  0
  -21.9650  -12.9260   21.9520 N   0  0  0  0  0  0  0  0  0  0  0  0
  -22.3000  -14.6250   20.5490 O   0  0  0  0  0  0  0  0  0  0  0  0
  -22.3170  -12.1050   22.4220 H   0  0  0  0  0  0  0  0  0  0  0  0
  -21.0240  -13.2370   22.1450 H   0  0  0  0  0  0  0  0  0  0  0  0
  -25.3790  -15.2510   20.3250 N   0  0  0  0  0  0  0  0  0  0  0  0
  -24.6100  -15.9070   20.4040 H   0  0  0  0  0  0  0  0  0  0  0  0
  -26.2340  -15.6830   20.0000 H   0  0  0  0  0  0  0  0  0  0  0  0
  1  5  1  0
  2  6  1  0
  3  1  2  0
  3  4  1  0
  4  2  2  0
  5  9  1  0
  5  6  2  0
  6  8  1  0
  7  3  1  0
  9 11  1  0
 10 21  2  0
 11 16  1  0
 12 20  1  0
 12 22  1  0
 13 19  1  0
 13 15  1  0
 14 20  1  0
 15 14  1  0
 16 15  2  0
 17 18  1  0
 17 11  2  0
 18 13  2  0
 19 12  1  0
 20 10  1  0
 22 24  2  0
 23 22  1  0
 25 23  1  0
 26 35  2  0
 26 31  1  0
 27 23  1  0
 27 31  1  0
 28 27  1  0
 29 30  1  0
 29 28  1  0
 30 26  1  0
 31 32  2  0
 32 33  1  0
 34 33  2  0
 35 34  1  0
 36 10  1  0
 36 41  1  0
 36 37  1  0
 37 40  1  1
 37 38  1  0
 39 37  1  0
 41 44  1  0
 42 46  1  0
 42 41  1  0
 43 42  2  0
 46 45  1  0
 48 46  1  0
 48 49  1  0
 48 47  1  0
 50 51  1  0
 50  4  1  0
 52 56  1  0
 52 54  1  0
 53 55  1  0
 54 57  1  0
 56 51  1  0
 56 53  1  0
 57 55  1  0
 57 66  1  0
 58 66  1  0
 59 64  1  0
 60 61  1  0
 60 59  1  0
 62 61  1  0
 62 71  1  0
 62 63  1  0
 64 58  1  0
 64 63  1  0
 65 58  2  0
 66 67  1  0
 68 69  2  0
 69 70  1  0
 69 88  1  0
 70 73  1  0
 71 68  1  0
 71 72  1  0
 72 70  2  0
 73 74  1  0
 74 75  2  0
 76 79  1  0
 76 75  1  0
 77 76  2  0
 78 77  1  0
 78 73  2  0
 79 80  1  0
 80 81  1  0
 81 82  2  0
 83 82  1  0
 83 87  1  0
 84 83  2  0
 85 80  2  0
 85 84  1  0
 86 85  1  0
 88 89  1  0
 89 92  1  0
 89 91  1  0
 90 88  2  0
 93 94  1  0
 93 68  1  0
 95 93  1  0
M  ISO  4   5 101   9 101  58 100  66 100
M  END
>  <TORSDO>  (48) 
F 19

>  <SCORE>  (48) 
-14.169

>  <name>  (48) 
47

>  <ligand_id>  (48) 
47

>  <original_smiles>  (48) 
[H]c1c([H])c([H])c2c(c1[H])C([H])([H])C([H])([H])C([H])([H])C2([H])N([H])C(=O)C1([H])N(C(=O)C([H])(N([H])C(=O)C([H])(N([H])C([H])([H])[H])C([H])([H])[H])C(C([H])([H])[H])(C([H])([H])[H])C([H])([H])[H])C([H])([H])c2c([H])c(Oc3c([H])c(C([H])([H])[H])c(C([H])([H])C([H])([H])C4([H])C([H])([H])C([H])([H])C([H])(N([H])C(=O)N5C([H])([H])C([H])([H])C([H])([H])C([H])(n6nc(-c7c([H])c([H])c(Oc8c([H])c([H])c(F)c([H])c8F)c([H])c7[H])c(C(=O)N([H])[H])c6N([H])[H])C5([H])[H])C([H])([H])C4([H])[H])c([H])c3F)c([H])c([H])c2C1([H])[H]

>  <smiles>  (48) 
[H]c1c([H])c([H])c2c(c1[H])C([H])([H])C([H])([H])C([H])([H])C2([H])N([H])C(=O)C1([H])N(C(=O)C([H])(N([H])C(=O)C([H])(N([H])C([H])([H])[H])C([H])([H])[H])C(C([H])([H])[H])(C([H])([H])[H])C([H])([H])[H])C([H])([H])c2c([H])c(Oc3c([H])c(C([H])([H])[H])c(C([H])([H])C([H])([H])C4([H])C([H])([H])C([H])([H])C([H])(N([H])C(=O)N5C([H])([H])C([H])([H])C([H])([H])C([H])(n6nc(-c7c([H])c([H])c(Oc8c([H])c([H])c(F)c([H])c8F)c([H])c7[H])c(C(=O)N([H])[H])c6N([H])[H])C5([H])[H])C([H])([H])C4([H])[H])c([H])c3F)c([H])c([H])c2C1([H])[H]

$$$$
48:0:0
     RDKit          3D

 95104  0  0  1  0  0  0  0  0999 V2000
  -29.8990  -24.8980   20.1580 C   0  0  0  0  0  3  0  0  0  0  0  0
  -28.3300  -23.6410   22.0890 C   0  0  0  0  0  3  0  0  0  0  0  0
  -30.2520  -23.6000   20.5950 C   0  0  0  0  0  0  0  0  0  0  0  0
  -29.4310  -22.9450   21.5470 C   0  0  0  0  0  0  0  0  0  0  0  0
  -28.0090  -24.9550   21.6840 C   0  0  0  0  0  0  0  0  0  0  0  0
  -28.7740  -25.5860   20.6630 C   0  0  0  0  0  0  0  0  0  0  0  0
  -31.5150  -22.9470   20.0390 C   0  0  0  0  0  1  0  0  0  0  0  0
  -26.9660  -25.5690   22.3170 O   0  0  0  0  0  0  0  0  0  0  0  0
  -26.7930  -26.4430   21.9800 H   0  0  0  0  0  0  0  0  0  0  0  0
  -28.5680  -26.8530   20.1360 O   0  0  0  0  0  0  0  0  0  0  0  0
  -24.5780  -31.8690   23.1880 C   0  0  0  0  0  0  0  0  0  0  0  0
  -27.3610  -27.5120   20.1510 C   0  0  0  0  0  0  0  0  0  0  0  0
  -23.4220  -30.4660   21.5020 C   0  0  0  0  0  3  0  0  0  0  0  0
  -24.9330  -28.9560   20.1020 C   0  0  0  0  0  0  0  0  0  0  0  0
  -25.9350  -30.8760   21.3490 C   0  0  0  0  0  2  0  0  0  0  0  0
  -26.0620  -29.5030   20.7220 C   0  0  0  0  0  0  0  0  0  0  0  0
  -27.2750  -28.7850   20.7540 C   0  0  0  0  0  3  0  0  0  0  0  0
  -26.2260  -26.9750   19.5080 C   0  0  0  0  0  3  0  0  0  0  0  0
  -25.0080  -27.6880   19.4920 C   0  0  0  0  0  3  0  0  0  0  0  0
  -23.6720  -29.7930   20.1230 C   0  0  0  0  0  2  0  0  0  0  0  0
  -24.6610  -31.0860   22.0740 N   0  0  0  0  0  0  0  0  0  0  0  0
  -23.4850  -32.1190   23.7130 O   0  0  0  0  0  0  0  0  0  0  0  0
  -22.7660  -29.4310   22.4430 C   0  0  0  0  0  0  0  0  0  0  0  0
  -21.4400  -29.2690   22.3230 N   0  0  0  0  0  0  0  0  0  0  0  0
  -23.4490  -28.7720   23.2360 O   0  0  0  0  0  0  0  0  0  0  0  0
  -20.9500  -29.8530   21.6610 H   0  0  0  0  0  0  0  0  0  0  0  0
  -18.0500  -28.1360   22.8460 C   0  0  0  0  0  0  0  0  0  0  0  0
  -20.6180  -28.3180   23.0710 C   0  0  0  0  0  3  0  0  0  0  0  0
  -20.6700  -26.9110   22.4320 C   0  0  0  0  0  2  0  0  0  0  0  0
  -19.5390  -26.6620   21.4280 C   0  0  0  0  0  2  0  0  0  0  0  0
  -18.1770  -26.8120   22.1080 C   0  0  0  0  0  2  0  0  0  0  0  0
  -19.1960  -28.8500   23.2820 C   0  0  0  0  0  0  0  0  0  0  0  0
  -19.0230  -30.0940   23.9290 C   0  0  0  0  0  3  0  0  0  0  0  0
  -17.7370  -30.6200   24.1440 C   0  0  0  0  0  3  0  0  0  0  0  0
  -16.6040  -29.9020   23.7220 C   0  0  0  0  0  3  0  0  0  0  0  0
  -16.7620  -28.6610   23.0790 C   0  0  0  0  0  3  0  0  0  0  0  0
  -25.8470  -32.5050   23.8400 C   0  0  0  0  0  3  0  0  0  0  0  0
  -26.3580  -31.7150   25.1080 C   0  0  1  0  0  0  0  0  0  0  0  0
  -25.2530  -31.4390   26.1550 C   0  0  0  0  0  1  0  0  0  0  0  0
  -26.9680  -30.3570   24.6880 C   0  0  0  0  0  1  0  0  0  0  0  0
  -27.4860  -32.5130   25.8020 C   0  0  0  0  0  1  0  0  0  0  0  0
  -25.5190  -33.8930   24.1880 N   0  0  0  0  0  0  0  0  0  0  0  0
  -25.8550  -34.9600   23.4510 C   0  0  0  0  0  0  0  0  0  0  0  0
  -26.5480  -34.8780   22.4320 O   0  0  0  0  0  0  0  0  0  0  0  0
  -24.9120  -34.0300   24.9830 H   0  0  0  0  0  0  0  0  0  0  0  0
  -24.1260  -36.7420   23.0700 C   0  0  0  0  0  1  0  0  0  0  0  0
  -25.3430  -36.3350   23.9170 C   0  0  0  0  0  3  0  0  0  0  0  0
  -27.4360  -37.2250   24.8390 C   0  0  0  0  0  1  0  0  0  0  0  0
  -26.3700  -37.3980   23.8560 N   0  0  0  0  0  0  0  0  0  0  0  0
  -25.9520  -38.3130   23.9970 H   0  0  0  0  0  0  0  0  0  0  0  0
  -29.7350  -21.5160   22.0020 C   0  0  0  0  0  2  0  0  0  0  0  0
  -29.3120  -20.4520   20.9580 C   0  0  0  0  0  2  0  0  0  0  0  0
  -30.4490  -18.7940   19.3530 C   0  0  0  0  0  2  0  0  0  0  0  0
  -31.2420  -17.4990   19.4770 C   0  0  0  0  0  2  0  0  0  0  0  0
  -29.9750  -17.9450   21.5290 C   0  0  0  0  0  2  0  0  0  0  0  0
  -30.2980  -19.2660   20.7960 C   0  0  0  0  0  3  0  0  0  0  0  0
  -30.8520  -16.8650   20.8380 C   0  0  0  0  0  3  0  0  0  0  0  0
  -30.7880  -14.4720   20.1120 C   0  0  0  0  0  0  0  0  0  0  0  0
  -30.3720  -12.3210   18.9900 C   0  0  0  0  0  2  0  0  0  0  0  0
  -29.3820  -12.5130   17.8250 C   0  0  0  0  0  2  0  0  0  0  0  0
  -27.9310  -12.3800   18.3240 C   0  0  0  0  0  2  0  0  0  0  0  0
  -27.6500  -13.2360   19.5880 C   0  0  0  0  0  3  0  0  0  0  0  0
  -28.7580  -13.0620   20.6510 C   0  0  0  0  0  2  0  0  0  0  0  0
  -30.0540  -13.3310   20.0130 N   0  0  0  0  0  0  0  0  0  0  0  0
  -31.8960  -14.5830   19.5840 O   0  0  0  0  0  0  0  0  0  0  0  0
  -30.2110  -15.5380   20.7090 N   0  0  0  0  0  0  0  0  0  0  0  0
  -29.2910  -15.4130   21.1040 H   0  0  0  0  0  0  0  0  0  0  0  0
  -25.2960  -13.8370   20.4350 C   0  0  0  0  0  0  0  0  0  0  0  0
  -24.2460  -13.0640   20.8510 C   0  0  0  0  0  0  0  0  0  0  0  0
  -24.7000  -11.7100   20.7790 C   0  0  0  0  0  0  0  0  0  0  0  0
  -26.3240  -12.9580   20.1380 N   0  0  0  0  0  0  0  0  0  0  0  0
  -25.9720  -11.6720   20.4010 N   0  0  0  0  0  0  0  0  0  0  0  0
  -23.9770  -10.4490   20.9910 C   0  0  0  0  0  0  0  0  0  0  0  0
  -24.4280   -9.4870   21.9210 C   0  0  0  0  0  3  0  0  0  0  0  0
  -23.7060   -8.2900   22.1220 C   0  0  0  0  0  3  0  0  0  0  0  0
  -22.5160   -8.0490   21.3920 C   0  0  0  0  0  0  0  0  0  0  0  0
  -22.0840   -9.0010   20.4530 C   0  0  0  0  0  3  0  0  0  0  0  0
  -22.8070  -10.1880   20.2500 C   0  0  0  0  0  3  0  0  0  0  0  0
  -21.7630   -6.9050   21.5040 O   0  0  0  0  0  0  0  0  0  0  0  0
  -21.7080   -6.1890   22.6730 C   0  0  0  0  0  0  0  0  0  0  0  0
  -21.2330   -6.7590   23.8740 C   0  0  0  0  0  3  0  0  0  0  0  0
  -21.1270   -5.9680   25.0350 C   0  0  0  0  0  3  0  0  0  0  0  0
  -21.4870   -4.6070   24.9960 C   0  0  0  0  0  0  0  0  0  0  0  0
  -21.9570   -4.0370   23.8000 C   0  0  0  0  0  3  0  0  0  0  0  0
  -22.0640   -4.8250   22.6400 C   0  0  0  0  0  0  0  0  0  0  0  0
  -22.4960   -4.2650   21.4850 F   0  0  0  0  0  0  0  0  0  0  0  0
  -21.3780   -3.8450   26.1090 F   0  0  0  0  0  0  0  0  0  0  0  0
  -22.8680  -13.5450   21.2030 C   0  0  0  0  0  0  0  0  0  0  0  0
  -22.1810  -12.8400   22.0980 N   0  0  0  0  0  0  0  0  0  0  0  0
  -22.4090  -14.5790   20.7210 O   0  0  0  0  0  0  0  0  0  0  0  0
  -22.5640  -12.0040   22.5100 H   0  0  0  0  0  0  0  0  0  0  0  0
  -21.2590  -13.1460   22.3720 H   0  0  0  0  0  0  0  0  0  0  0  0
  -25.4560  -15.2090   20.2640 N   0  0  0  0  0  0  0  0  0  0  0  0
  -24.6940  -15.8640   20.4120 H   0  0  0  0  0  0  0  0  0  0  0  0
  -26.2900  -15.6490   19.8960 H   0  0  0  0  0  0  0  0  0  0  0  0
  1  3  2  0
  1  6  1  0
  3  4  1  0
  4 51  1  0
  4  2  2  0
  5  2  1  0
  5  8  1  0
  6  5  2  0
  7  3  1  0
  9  8  1  0
 10 12  1  0
 10  6  1  0
 11 22  2  0
 12 17  1  0
 13 21  1  0
 13 23  1  0
 14 20  1  0
 14 16  1  0
 15 21  1  0
 16 17  2  0
 16 15  1  0
 18 12  2  0
 19 18  1  0
 19 14  2  0
 20 13  1  0
 21 11  1  0
 23 25  2  0
 24 23  1  0
 26 24  1  0
 27 36  2  0
 27 32  1  0
 28 24  1  0
 28 32  1  0
 29 28  1  0
 30 31  1  0
 30 29  1  0
 31 27  1  0
 32 33  2  0
 33 34  1  0
 35 34  2  0
 36 35  1  0
 37 11  1  0
 37 42  1  0
 37 38  1  0
 38 41  1  1
 38 39  1  0
 40 38  1  0
 42 45  1  0
 43 47  1  0
 43 42  1  0
 44 43  2  0
 47 46  1  0
 49 47  1  0
 49 50  1  0
 49 48  1  0
 52 51  1  0
 53 54  1  0
 53 56  1  0
 54 57  1  0
 56 52  1  0
 56 55  1  0
 57 66  1  0
 57 55  1  0
 58 66  1  0
 59 64  1  0
 60 61  1  0
 60 59  1  0
 62 61  1  0
 62 71  1  0
 62 63  1  0
 64 58  1  0
 64 63  1  0
 65 58  2  0
 66 67  1  0
 68 69  2  0
 69 88  1  0
 70 69  1  0
 70 73  1  0
 71 72  1  0
 71 68  1  0
 72 70  2  0
 73 74  1  0
 74 75  2  0
 76 79  1  0
 76 75  1  0
 77 76  2  0
 78 77  1  0
 78 73  2  0
 79 80  1  0
 80 81  1  0
 81 82  2  0
 83 82  1  0
 83 87  1  0
 84 83  2  0
 85 80  2  0
 85 84  1  0
 86 85  1  0
 88 89  1  0
 89 92  1  0
 89 91  1  0
 90 88  2  0
 93 94  1  0
 93 68  1  0
 95 93  1  0
M  ISO  4   6 101  10 101  58 100  66 100
M  END
>  <TORSDO>  (49) 
F 20

>  <SCORE>  (49) 
-14.136

>  <name>  (49) 
48

>  <ligand_id>  (49) 
48

>  <original_smiles>  (49) 
[H]Oc1c([H])c(C([H])([H])C([H])([H])C2([H])C([H])([H])C([H])([H])C([H])(N([H])C(=O)N3C([H])([H])C([H])([H])C([H])([H])C([H])(n4nc(-c5c([H])c([H])c(Oc6c([H])c([H])c(F)c([H])c6F)c([H])c5[H])c(C(=O)N([H])[H])c4N([H])[H])C3([H])[H])C2([H])[H])c(C([H])([H])[H])c([H])c1Oc1c([H])c([H])c2c(c1[H])C([H])([H])N(C(=O)C([H])(N([H])C(=O)C([H])(N([H])C([H])([H])[H])C([H])([H])[H])C(C([H])([H])[H])(C([H])([H])[H])C([H])([H])[H])C([H])(C(=O)N([H])C1([H])c3c([H])c([H])c([H])c([H])c3C([H])([H])C([H])([H])C1([H])[H])C2([H])[H]

>  <smiles>  (49) 
[H]Oc1c([H])c(C([H])([H])C([H])([H])C2([H])C([H])([H])C([H])([H])C([H])(N([H])C(=O)N3C([H])([H])C([H])([H])C([H])([H])C([H])(n4nc(-c5c([H])c([H])c(Oc6c([H])c([H])c(F)c([H])c6F)c([H])c5[H])c(C(=O)N([H])[H])c4N([H])[H])C3([H])[H])C2([H])[H])c(C([H])([H])[H])c([H])c1Oc1c([H])c([H])c2c(c1[H])C([H])([H])N(C(=O)C([H])(N([H])C(=O)C([H])(N([H])C([H])([H])[H])C([H])([H])[H])C(C([H])([H])[H])(C([H])([H])[H])C([H])([H])[H])C([H])(C(=O)N([H])C1([H])c3c([H])c([H])c([H])c([H])c3C([H])([H])C([H])([H])C1([H])[H])C2([H])[H]

$$$$
49:0:0
     RDKit          3D

 93102  0  0  1  0  0  0  0  0999 V2000
  -27.9010  -21.2920   20.6290 C   0  0  0  0  0  3  0  0  0  0  0  0
  -27.5720  -22.7990   20.6400 C   0  0  0  0  0  3  0  0  0  0  0  0
  -29.6320  -23.2490   19.9190 C   0  0  0  0  0  0  0  0  0  0  0  0
  -29.1370  -20.5230   20.2680 C   0  0  0  0  0  0  0  0  0  0  0  0
  -29.9560  -21.7310   19.9160 C   0  0  0  0  0  0  0  0  0  0  0  0
  -28.3840  -24.0050   20.2800 C   0  0  0  0  0  0  0  0  0  0  0  0
  -30.7570  -24.1720   19.5400 C   0  0  0  0  0  0  0  0  0  0  0  0
  -32.3760  -22.3920   19.1960 C   0  0  0  0  0  0  0  0  0  0  0  0
  -33.6710  -22.2280   19.5310 C   0  0  0  0  0  2  0  0  0  0  0  0
  -31.3690  -21.3020   19.5090 C   0  0  0  0  0  2  0  0  0  0  0  0
  -31.7960  -23.6380   18.5320 C   0  0  1  0  0  0  0  0  0  0  0  0
  -31.1220  -23.2970   17.1800 C   0  0  0  0  0  1  0  0  0  0  0  0
  -32.8870  -24.7050   18.2410 C   0  0  0  0  0  1  0  0  0  0  0  0
  -30.8870  -25.3140   19.9940 O   0  0  0  0  0  0  0  0  0  0  0  0
  -29.6980  -18.7660   20.2110 C   0  0  0  0  0  3  0  0  0  0  0  0
  -29.4560  -17.2530   20.4040 C   0  0  0  0  0  3  0  0  0  0  0  0
  -30.2930  -15.7540   20.2470 C   0  0  0  0  0  0  0  0  0  0  0  0
  -30.4190  -13.1950   19.4630 C   0  0  0  0  0  2  0  0  0  0  0  0
  -29.5360  -12.8070   18.2410 C   0  0  0  0  0  2  0  0  0  0  0  0
  -28.1080  -12.4480   18.6820 C   0  0  0  0  0  2  0  0  0  0  0  0
  -27.5930  -13.4340   19.7540 C   0  0  0  0  0  3  0  0  0  0  0  0
  -28.6160  -13.7480   20.8690 C   0  0  0  0  0  2  0  0  0  0  0  0
  -29.7980  -14.3720   20.2320 N   0  0  0  0  0  0  0  0  0  0  0  0
  -31.5160  -15.6820   20.0170 O   0  0  0  0  0  0  0  0  0  0  0  0
  -25.2330  -13.9290   20.5510 C   0  0  0  0  0  0  0  0  0  0  0  0
  -24.1850  -13.1330   20.9150 C   0  0  0  0  0  0  0  0  0  0  0  0
  -24.6670  -11.7890   20.8590 C   0  0  0  0  0  0  0  0  0  0  0  0
  -26.2830  -13.0730   20.2790 N   0  0  0  0  0  0  0  0  0  0  0  0
  -25.9580  -11.7760   20.5350 N   0  0  0  0  0  0  0  0  0  0  0  0
  -23.9510  -10.5170   21.0360 C   0  0  0  0  0  0  0  0  0  0  0  0
  -24.3740   -9.5530   21.9770 C   0  0  0  0  0  3  0  0  0  0  0  0
  -23.6530   -8.3500   22.1440 C   0  0  0  0  0  3  0  0  0  0  0  0
  -22.4950   -8.1030   21.3690 C   0  0  0  0  0  0  0  0  0  0  0  0
  -22.0900   -9.0570   20.4180 C   0  0  0  0  0  3  0  0  0  0  0  0
  -22.8110  -10.2500   20.2500 C   0  0  0  0  0  3  0  0  0  0  0  0
  -21.7470   -6.9520   21.4450 O   0  0  0  0  0  0  0  0  0  0  0  0
  -21.6550   -6.2280   22.6070 C   0  0  0  0  0  0  0  0  0  0  0  0
  -21.1340   -6.7870   23.7940 C   0  0  0  0  0  3  0  0  0  0  0  0
  -20.9920   -5.9860   24.9460 C   0  0  0  0  0  3  0  0  0  0  0  0
  -21.3630   -4.6290   24.9110 C   0  0  0  0  0  0  0  0  0  0  0  0
  -21.8770   -4.0690   23.7290 C   0  0  0  0  0  3  0  0  0  0  0  0
  -22.0190   -4.8660   22.5790 C   0  0  0  0  0  0  0  0  0  0  0  0
  -22.4960   -4.3160   21.4360 F   0  0  0  0  0  0  0  0  0  0  0  0
  -21.2190   -3.8580   26.0150 F   0  0  0  0  0  0  0  0  0  0  0  0
  -22.7860  -13.5940   21.1960 C   0  0  0  0  0  0  0  0  0  0  0  0
  -22.0710  -12.8900   22.0660 N   0  0  0  0  0  0  0  0  0  0  0  0
  -22.3360  -14.6160   20.6790 O   0  0  0  0  0  0  0  0  0  0  0  0
  -22.4470  -12.0640   22.5070 H   0  0  0  0  0  0  0  0  0  0  0  0
  -21.1330  -13.1850   22.2980 H   0  0  0  0  0  0  0  0  0  0  0  0
  -25.3790  -15.3050   20.3940 N   0  0  0  0  0  0  0  0  0  0  0  0
  -24.6030  -15.9480   20.5220 H   0  0  0  0  0  0  0  0  0  0  0  0
  -26.2170  -15.7600   20.0570 H   0  0  0  0  0  0  0  0  0  0  0  0
  -28.2190  -25.6290   20.3350 O   0  0  0  0  0  0  0  0  0  0  0  0
  -24.6680  -31.9150   23.2440 C   0  0  0  0  0  0  0  0  0  0  0  0
  -27.1880  -26.7940   20.3090 C   0  0  0  0  0  0  0  0  0  0  0  0
  -23.4790  -30.5040   21.6190 C   0  0  0  0  0  3  0  0  0  0  0  0
  -24.9200  -28.8320   20.2270 C   0  0  0  0  0  0  0  0  0  0  0  0
  -26.0560  -30.6340   21.5020 C   0  0  0  0  0  2  0  0  0  0  0  0
  -26.1140  -29.1930   20.8620 C   0  0  0  0  0  0  0  0  0  0  0  0
  -27.2270  -28.1990   20.8720 C   0  0  0  0  0  3  0  0  0  0  0  0
  -25.9630  -26.6450   19.6090 C   0  0  0  0  0  3  0  0  0  0  0  0
  -24.8840  -27.5830   19.5780 C   0  0  0  0  0  3  0  0  0  0  0  0
  -23.7180  -29.7900   20.2560 C   0  0  0  0  0  2  0  0  0  0  0  0
  -24.7580  -31.0520   22.1740 N   0  0  0  0  0  0  0  0  0  0  0  0
  -23.5750  -32.2230   23.7490 O   0  0  0  0  0  0  0  0  0  0  0  0
  -22.7580  -29.5390   22.5990 C   0  0  0  0  0  0  0  0  0  0  0  0
  -21.4260  -29.3810   22.4670 N   0  0  0  0  0  0  0  0  0  0  0  0
  -23.4080  -28.9290   23.4510 O   0  0  0  0  0  0  0  0  0  0  0  0
  -20.9500  -29.9220   21.7580 H   0  0  0  0  0  0  0  0  0  0  0  0
  -18.0390  -28.1670   22.9740 C   0  0  0  0  0  0  0  0  0  0  0  0
  -20.5970  -28.4530   23.2470 C   0  0  0  0  0  3  0  0  0  0  0  0
  -20.7080  -27.0130   22.6960 C   0  0  0  0  0  2  0  0  0  0  0  0
  -19.6160  -26.6690   21.6790 C   0  0  0  0  0  2  0  0  0  0  0  0
  -18.2290  -26.8120   22.3110 C   0  0  0  0  0  2  0  0  0  0  0  0
  -19.1500  -28.9450   23.3980 C   0  0  0  0  0  0  0  0  0  0  0  0
  -18.9160  -30.2080   23.9830 C   0  0  0  0  0  3  0  0  0  0  0  0
  -17.6060  -30.6960   24.1430 C   0  0  0  0  0  3  0  0  0  0  0  0
  -16.5100  -29.9170   23.7320 C   0  0  0  0  0  3  0  0  0  0  0  0
  -16.7280  -28.6550   23.1540 C   0  0  0  0  0  3  0  0  0  0  0  0
  -25.9320  -32.5680   23.8820 C   0  0  0  0  0  3  0  0  0  0  0  0
  -25.6100  -33.9710   24.2100 N   0  0  0  0  0  0  0  0  0  0  0  0
  -25.9220  -35.0330   23.4550 C   0  0  0  0  0  0  0  0  0  0  0  0
  -26.5690  -34.9350   22.4090 O   0  0  0  0  0  0  0  0  0  0  0  0
  -25.0290  -34.1190   25.0230 H   0  0  0  0  0  0  0  0  0  0  0  0
  -24.1750  -36.8270   23.1700 C   0  0  0  0  0  1  0  0  0  0  0  0
  -25.4480  -36.4230   23.9310 C   0  0  0  0  0  3  0  0  0  0  0  0
  -27.6030  -37.3320   24.6850 C   0  0  0  0  0  1  0  0  0  0  0  0
  -26.4700  -37.4820   23.7750 N   0  0  0  0  0  0  0  0  0  0  0  0
  -26.0630  -38.4010   23.9260 H   0  0  0  0  0  0  0  0  0  0  0  0
  -26.4260  -31.8170   25.1810 C   0  0  1  0  0  0  0  0  0  0  0  0
  -25.3220  -31.6190   26.2480 C   0  0  0  0  0  1  0  0  0  0  0  0
  -26.9930  -30.4220   24.8370 C   0  0  0  0  0  1  0  0  0  0  0  0
  -27.5830  -32.6100   25.8360 C   0  0  0  0  0  1  0  0  0  0  0  0
  1  2  1  0
  3  6  1  0
  4  1  2  0
  5  3  2  0
  5  4  1  0
  6 53  1  0
  6  2  2  0
  7  3  1  0
  7 14  2  0
  8 10  1  0
  8  9  2  0
 10  5  1  0
 11  8  1  0
 11  7  1  0
 11 12  1  6
 13 11  1  0
 15  4  1  0
 15 16  2  0
 17 16  1  0
 18 23  1  0
 19 20  1  0
 19 18  1  0
 21 20  1  0
 21 28  1  0
 21 22  1  0
 23 17  1  0
 23 22  1  0
 24 17  2  0
 25 26  2  0
 26 45  1  0
 27 26  1  0
 27 30  1  0
 28 29  1  0
 28 25  1  0
 29 27  2  0
 30 31  1  0
 31 32  2  0
 33 36  1  0
 33 32  1  0
 34 33  2  0
 35 34  1  0
 35 30  2  0
 36 37  1  0
 37 38  1  0
 38 39  2  0
 40 39  1  0
 40 44  1  0
 41 40  2  0
 42 37  2  0
 42 41  1  0
 43 42  1  0
 45 46  1  0
 46 49  1  0
 46 48  1  0
 47 45  2  0
 50 51  1  0
 50 25  1  0
 52 50  1  0
 54 65  2  0
 55 53  1  0
 55 60  1  0
 56 64  1  0
 56 66  1  0
 57 63  1  0
 57 59  1  0
 58 64  1  0
 59 60  2  0
 59 58  1  0
 61 55  2  0
 62 61  1  0
 62 57  2  0
 63 56  1  0
 64 54  1  0
 66 68  2  0
 67 66  1  0
 69 67  1  0
 70 79  2  0
 70 75  1  0
 71 67  1  0
 71 75  1  0
 72 71  1  0
 73 74  1  0
 73 72  1  0
 74 70  1  0
 75 76  2  0
 76 77  1  0
 78 77  2  0
 79 78  1  0
 80 54  1  0
 80 81  1  0
 80 90  1  0
 81 84  1  0
 82 86  1  0
 82 81  1  0
 83 82  2  0
 86 85  1  0
 88 89  1  0
 88 86  1  0
 88 87  1  0
 90 93  1  1
 90 91  1  0
 92 90  1  0
M  ISO  4   6 101  16 100  17 100  53 101
M  END
>  <TORSDO>  (50) 
F 17

>  <SCORE>  (50) 
-15.951

>  <name>  (50) 
49

>  <ligand_id>  (50) 
49

>  <original_smiles>  (50) 
[H]C([H])=C1C([H])([H])c2c(C([H])=C([H])C(=O)N3C([H])([H])C([H])([H])C([H])([H])C([H])(n4nc(-c5c([H])c([H])c(Oc6c([H])c([H])c(F)c([H])c6F)c([H])c5[H])c(C(=O)N([H])[H])c4N([H])[H])C3([H])[H])c([H])c([H])c(Oc3c([H])c([H])c4c(c3[H])C([H])([H])N(C(=O)C([H])(N([H])C(=O)C([H])(N([H])C([H])([H])[H])C([H])([H])[H])C(C([H])([H])[H])(C([H])([H])[H])C([H])([H])[H])C([H])(C(=O)N([H])C3([H])c5c([H])c([H])c([H])c([H])c5C([H])([H])C([H])([H])C3([H])[H])C4([H])[H])c2C(=O)C1(C([H])([H])[H])C([H])([H])[H]

>  <smiles>  (50) 
[H]C([H])=C1C([H])([H])c2c(C([H])=C([H])C(=O)N3C([H])([H])C([H])([H])C([H])([H])C([H])(n4nc(-c5c([H])c([H])c(Oc6c([H])c([H])c(F)c([H])c6F)c([H])c5[H])c(C(=O)N([H])[H])c4N([H])[H])C3([H])[H])c([H])c([H])c(Oc3c([H])c([H])c4c(c3[H])C([H])([H])N(C(=O)C([H])(N([H])C(=O)C([H])(N([H])C([H])([H])[H])C([H])([H])[H])C(C([H])([H])[H])(C([H])([H])[H])C([H])([H])[H])C([H])(C(=O)N([H])C3([H])c5c([H])c([H])c([H])c([H])c5C([H])([H])C([H])([H])C3([H])[H])C4([H])[H])c2C(=O)C1(C([H])([H])[H])C([H])([H])[H]

$$$$
50:0:0
     RDKit          3D

 91 99  0  0  1  0  0  0  0  0999 V2000
  -27.8810  -23.4410   16.9370 C   0  0  0  0  0  3  0  0  0  0  0  0
  -28.0660  -22.8160   18.1700 C   0  0  0  0  0  3  0  0  0  0  0  0
  -28.1030  -24.8070   16.8320 C   0  0  0  0  0  3  0  0  0  0  0  0
  -28.4190  -23.4880   19.3750 C   0  0  0  0  0  0  0  0  0  0  0  0
  -28.3530  -25.5780   17.9750 C   0  0  0  0  0  0  0  0  0  0  0  0
  -28.3310  -25.0350   19.3110 C   0  0  0  0  0  0  0  0  0  0  0  0
  -28.6460  -27.0470   17.6710 C   0  0  0  0  0  1  0  0  0  0  0  0
  -29.0530  -22.3990   20.3880 C   0  0  0  0  0  0  0  0  0  0  0  0
  -28.9310  -20.9720   20.1810 N   0  0  0  0  0  0  0  0  0  0  0  0
  -29.7750  -22.8160   21.2960 O   0  0  0  0  0  0  0  0  0  0  0  0
  -28.1560  -20.7900   19.5600 H   0  0  0  0  0  0  0  0  0  0  0  0
  -29.9200  -19.7100   20.2150 C   0  0  0  0  0  2  0  0  0  0  0  0
  -29.7210  -18.1060   20.8130 C   0  0  0  0  0  2  0  0  0  0  0  0
  -29.6220  -16.5820   20.0240 C   0  0  0  0  0  2  0  0  0  0  0  0
  -30.4750  -15.1300   20.1780 C   0  0  0  0  0  0  0  0  0  0  0  0
  -30.3820  -12.7650   19.2370 C   0  0  0  0  0  2  0  0  0  0  0  0
  -29.4240  -12.7240   18.0230 C   0  0  0  0  0  2  0  0  0  0  0  0
  -27.9720  -12.4790   18.4790 C   0  0  0  0  0  2  0  0  0  0  0  0
  -27.5720  -13.3780   19.6780 C   0  0  0  0  0  3  0  0  0  0  0  0
  -28.6540  -13.4140   20.7770 C   0  0  0  0  0  2  0  0  0  0  0  0
  -29.9120  -13.8460   20.1560 N   0  0  0  0  0  0  0  0  0  0  0  0
  -31.6950  -15.1710   19.9890 O   0  0  0  0  0  0  0  0  0  0  0  0
  -25.2000  -13.9000   20.4830 C   0  0  0  0  0  0  0  0  0  0  0  0
  -24.1590  -13.1030   20.8720 C   0  0  0  0  0  0  0  0  0  0  0  0
  -24.6490  -11.7630   20.8250 C   0  0  0  0  0  0  0  0  0  0  0  0
  -26.2540  -13.0460   20.2120 N   0  0  0  0  0  0  0  0  0  0  0  0
  -25.9340  -11.7530   20.4890 N   0  0  0  0  0  0  0  0  0  0  0  0
  -23.9490  -10.4860   21.0260 C   0  0  0  0  0  0  0  0  0  0  0  0
  -24.3990   -9.5340   21.9650 C   0  0  0  0  0  3  0  0  0  0  0  0
  -23.6990   -8.3230   22.1520 C   0  0  0  0  0  3  0  0  0  0  0  0
  -22.5290   -8.0570   21.4000 C   0  0  0  0  0  0  0  0  0  0  0  0
  -22.0970   -9.0000   20.4510 C   0  0  0  0  0  3  0  0  0  0  0  0
  -22.8000  -10.2020   20.2620 C   0  0  0  0  0  3  0  0  0  0  0  0
  -21.7940   -6.9000   21.4970 O   0  0  0  0  0  0  0  0  0  0  0  0
  -21.7490   -6.1720   22.6600 C   0  0  0  0  0  0  0  0  0  0  0  0
  -21.2660   -6.7230   23.8660 C   0  0  0  0  0  3  0  0  0  0  0  0
  -21.1720   -5.9190   25.0200 C   0  0  0  0  0  3  0  0  0  0  0  0
  -21.5500   -4.5640   24.9660 C   0  0  0  0  0  0  0  0  0  0  0  0
  -22.0230   -4.0110   23.7630 C   0  0  0  0  0  3  0  0  0  0  0  0
  -22.1190   -4.8130   22.6130 C   0  0  0  0  0  0  0  0  0  0  0  0
  -22.5560   -4.2700   21.4500 F   0  0  0  0  0  0  0  0  0  0  0  0
  -21.4510   -3.7870   26.0710 F   0  0  0  0  0  0  0  0  0  0  0  0
  -22.7590  -13.5540   21.1720 C   0  0  0  0  0  0  0  0  0  0  0  0
  -22.0540  -12.8390   22.0410 N   0  0  0  0  0  0  0  0  0  0  0  0
  -22.2980  -14.5770   20.6700 O   0  0  0  0  0  0  0  0  0  0  0  0
  -22.4350  -12.0090   22.4720 H   0  0  0  0  0  0  0  0  0  0  0  0
  -21.1170  -13.1290   22.2830 H   0  0  0  0  0  0  0  0  0  0  0  0
  -25.3290  -15.2750   20.3100 N   0  0  0  0  0  0  0  0  0  0  0  0
  -24.5480  -15.9100   20.4340 H   0  0  0  0  0  0  0  0  0  0  0  0
  -26.1600  -15.7370   19.9630 H   0  0  0  0  0  0  0  0  0  0  0  0
  -28.2340  -26.1600   20.2630 O   0  0  0  0  0  0  0  0  0  0  0  0
  -24.5960  -31.9520   23.2270 C   0  0  0  0  0  0  0  0  0  0  0  0
  -27.1770  -27.1730   20.2410 C   0  0  0  0  0  0  0  0  0  0  0  0
  -23.3940  -30.5310   21.6150 C   0  0  0  0  0  3  0  0  0  0  0  0
  -24.8400  -28.9340   20.2120 C   0  0  0  0  0  0  0  0  0  0  0  0
  -25.9490  -30.7920   21.4340 C   0  0  0  0  0  2  0  0  0  0  0  0
  -26.0260  -29.3860   20.8050 C   0  0  0  0  0  0  0  0  0  0  0  0
  -27.1930  -28.5210   20.8030 C   0  0  0  0  0  3  0  0  0  0  0  0
  -25.9430  -26.8250   19.6420 C   0  0  0  0  0  3  0  0  0  0  0  0
  -24.8140  -27.6680   19.6160 C   0  0  0  0  0  3  0  0  0  0  0  0
  -23.6140  -29.8340   20.2470 C   0  0  0  0  0  2  0  0  0  0  0  0
  -24.6680  -31.1160   22.1470 N   0  0  0  0  0  0  0  0  0  0  0  0
  -23.5100  -32.2410   23.7570 O   0  0  0  0  0  0  0  0  0  0  0  0
  -22.7190  -29.5370   22.5960 C   0  0  0  0  0  0  0  0  0  0  0  0
  -21.4030  -29.3080   22.4330 N   0  0  0  0  0  0  0  0  0  0  0  0
  -23.3860  -28.9710   23.4660 O   0  0  0  0  0  0  0  0  0  0  0  0
  -20.9230  -29.8140   21.7020 H   0  0  0  0  0  0  0  0  0  0  0  0
  -18.0700  -27.9370   22.8270 C   0  0  0  0  0  0  0  0  0  0  0  0
  -20.5900  -28.3710   23.2170 C   0  0  0  0  0  3  0  0  0  0  0  0
  -20.8070  -26.9160   22.7400 C   0  0  0  0  0  2  0  0  0  0  0  0
  -19.7860  -26.4670   21.6900 C   0  0  0  0  0  2  0  0  0  0  0  0
  -18.3630  -26.5640   22.2470 C   0  0  0  0  0  2  0  0  0  0  0  0
  -19.1170  -28.7920   23.2680 C   0  0  0  0  0  0  0  0  0  0  0  0
  -18.7890  -30.0690   23.7700 C   0  0  0  0  0  3  0  0  0  0  0  0
  -17.4480  -30.4960   23.8370 C   0  0  0  0  0  3  0  0  0  0  0  0
  -16.4170  -29.6420   23.4090 C   0  0  0  0  0  3  0  0  0  0  0  0
  -16.7280  -28.3650   22.9090 C   0  0  0  0  0  3  0  0  0  0  0  0
  -25.8730  -32.6020   23.8420 C   0  0  0  0  0  3  0  0  0  0  0  0
  -26.3940  -31.8460   25.1260 C   0  0  1  0  0  0  0  0  0  0  0  0
  -25.3030  -31.6130   26.1980 C   0  0  0  0  0  1  0  0  0  0  0  0
  -26.9840  -30.4680   24.7540 C   0  0  0  0  0  1  0  0  0  0  0  0
  -27.5420  -32.6500   25.7810 C   0  0  0  0  0  1  0  0  0  0  0  0
  -25.5580  -34.0020   24.1660 N   0  0  0  0  0  0  0  0  0  0  0  0
  -25.8910  -35.0560   23.4090 C   0  0  0  0  0  0  0  0  0  0  0  0
  -26.5660  -34.9510   22.3830 O   0  0  0  0  0  0  0  0  0  0  0  0
  -24.9650  -34.1600   24.9680 H   0  0  0  0  0  0  0  0  0  0  0  0
  -24.1790  -36.8590   23.0210 C   0  0  0  0  0  1  0  0  0  0  0  0
  -25.3990  -36.4470   23.8600 C   0  0  0  0  0  3  0  0  0  0  0  0
  -27.5140  -37.3220   24.7490 C   0  0  0  0  0  1  0  0  0  0  0  0
  -26.4380  -37.4950   23.7750 N   0  0  0  0  0  0  0  0  0  0  0  0
  -26.0330  -38.4170   23.9120 H   0  0  0  0  0  0  0  0  0  0  0  0
  1  2  1  0
  2  4  2  0
  3  1  2  0
  3  5  1  0
  4  8  1  0
  5  6  2  0
  6  4  1  0
  6 51  1  0
  7  5  1  0
  8 10  2  0
  9 12  1  0
  9  8  1  0
 11  9  1  0
 12 13  1  0
 14 15  1  0
 14 13  1  0
 16 21  1  0
 17 18  1  0
 17 16  1  0
 19 18  1  0
 19 26  1  0
 19 20  1  0
 21 15  1  0
 21 20  1  0
 22 15  2  0
 23 24  2  0
 24 43  1  0
 25 24  1  0
 25 28  1  0
 26 23  1  0
 26 27  1  0
 27 25  2  0
 28 29  1  0
 29 30  2  0
 31 34  1  0
 31 30  1  0
 32 31  2  0
 33 32  1  0
 33 28  2  0
 34 35  1  0
 35 36  1  0
 36 37  2  0
 38 37  1  0
 38 42  1  0
 39 38  2  0
 40 35  2  0
 40 39  1  0
 41 40  1  0
 43 44  1  0
 44 47  1  0
 44 46  1  0
 45 43  2  0
 48 49  1  0
 48 23  1  0
 50 48  1  0
 52 63  2  0
 53 51  1  0
 53 58  1  0
 54 62  1  0
 54 64  1  0
 55 61  1  0
 55 57  1  0
 56 62  1  0
 57 56  1  0
 58 57  2  0
 59 53  2  0
 60 59  1  0
 60 55  2  0
 61 54  1  0
 62 52  1  0
 64 66  2  0
 65 64  1  0
 67 65  1  0
 68 77  2  0
 68 73  1  0
 69 65  1  0
 69 73  1  0
 70 69  1  0
 71 72  1  0
 71 70  1  0
 72 68  1  0
 73 74  2  0
 74 75  1  0
 76 75  2  0
 77 76  1  0
 78 52  1  0
 78 83  1  0
 78 79  1  0
 79 82  1  1
 79 80  1  0
 81 79  1  0
 83 86  1  0
 84 88  1  0
 84 83  1  0
 85 84  2  0
 88 87  1  0
 90 88  1  0
 90 91  1  0
 90 89  1  0
M  ISO  4   6 101  14 100  15 100  51 101
M  END
>  <TORSDO>  (51) 
F 20

>  <SCORE>  (51) 
-14.604

>  <name>  (51) 
50

>  <ligand_id>  (51) 
50

>  <original_smiles>  (51) 
[H]c1c([H])c(C(=O)N([H])C([H])([H])C([H])([H])C([H])([H])C(=O)N2C([H])([H])C([H])([H])C([H])([H])C([H])(n3nc(-c4c([H])c([H])c(Oc5c([H])c([H])c(F)c([H])c5F)c([H])c4[H])c(C(=O)N([H])[H])c3N([H])[H])C2([H])[H])c(Oc2c([H])c([H])c3c(c2[H])C([H])([H])N(C(=O)C([H])(N([H])C(=O)C([H])(N([H])C([H])([H])[H])C([H])([H])[H])C(C([H])([H])[H])(C([H])([H])[H])C([H])([H])[H])C([H])(C(=O)N([H])C2([H])c4c([H])c([H])c([H])c([H])c4C([H])([H])C([H])([H])C2([H])[H])C3([H])[H])c(C([H])([H])[H])c1[H]

>  <smiles>  (51) 
[H]c1c([H])c(C(=O)N([H])C([H])([H])C([H])([H])C([H])([H])C(=O)N2C([H])([H])C([H])([H])C([H])([H])C([H])(n3nc(-c4c([H])c([H])c(Oc5c([H])c([H])c(F)c([H])c5F)c([H])c4[H])c(C(=O)N([H])[H])c3N([H])[H])C2([H])[H])c(Oc2c([H])c([H])c3c(c2[H])C([H])([H])N(C(=O)C([H])(N([H])C(=O)C([H])(N([H])C([H])([H])[H])C([H])([H])[H])C(C([H])([H])[H])(C([H])([H])[H])C([H])([H])[H])C([H])(C(=O)N([H])C2([H])c4c([H])c([H])c([H])c([H])c4C([H])([H])C([H])([H])C2([H])[H])C3([H])[H])c(C([H])([H])[H])c1[H]

$$$$
51:0:0
     RDKit          3D

 96 97  0  0  1  0  0  0  0  0999 V2000
  -28.7820  -16.7460   20.9560 C   0  0  0  0  0  1  0  0  0  0  0  0
  -24.8920  -13.2200   21.9910 C   0  0  0  0  0 15  0  0  0  0  0  0
  -26.9500  -17.6320   20.4360 C   0  0  0  0  0  2  0  0  0  0  0  0
  -26.8010  -11.7350   18.7870 C   0  0  0  0  0 15  0  0  0  0  0  0
  -28.0030  -14.9100   20.6920 C   0  0  0  0  0  2  0  0  0  0  0  0
  -26.4230  -14.8980   21.6690 C   0  0  0  0  0  2  0  0  0  0  0  0
  -28.2870  -18.3770   20.3140 C   0  0  0  0  0  2  0  0  0  0  0  0
  -26.7340  -16.0930   20.3440 C   0  0  0  0  0  3  0  0  0  0  0  0
  -24.9340  -11.3970   19.6850 C   0  0  0  0  0  2  0  0  0  0  0  0
  -28.2260  -13.3270   19.0650 C   0  0  0  0  0  1  0  0  0  0  0  0
  -23.9670  -10.7880   18.8930 O   0  0  0  0  0  0  0  0  0  0  0  0
  -24.2970  -10.4580   18.0640 H   0  0  0  0  0  0  0  0  0  0  0  0
  -29.2460  -13.1290   18.1730 O   0  0  0  0  0  0  0  0  0  0  0  0
  -29.9920  -13.6780   18.3790 H   0  0  0  0  0  0  0  0  0  0  0  0
  -28.0470  -16.0410   18.7820 C   0  0  0  0  0  1  0  0  0  0  0  0
  -29.6020  -14.8620   18.8120 C   0  0  0  0  0  2  0  0  0  0  0  0
  -31.3570  -13.1600   20.8270 C   0  0  0  0  0  0  0  0  0  0  0  0
  -31.3870  -10.6650   21.1370 C   0  0  0  0  0  2  0  0  0  0  0  0
  -30.5840  -10.2640   19.8800 C   0  0  0  0  0  2  0  0  0  0  0  0
  -29.0570  -10.2870   20.1820 C   0  0  0  0  0  2  0  0  0  0  0  0
  -28.6210  -11.5660   21.0570 C   0  0  0  0  0  3  0  0  0  0  0  0
  -29.5970  -11.8810   22.1910 C   0  0  0  0  0  2  0  0  0  0  0  0
  -30.9090  -12.0170   21.5200 N   0  0  0  0  0  0  0  0  0  0  0  0
  -32.5930  -13.2430   20.8730 O   0  0  0  0  0  0  0  0  0  0  0  0
  -30.5120  -14.1880   20.1300 N   0  0  0  0  0  0  0  0  0  0  0  0
  -31.1620  -14.9530   20.2460 H   0  0  0  0  0  0  0  0  0  0  0  0
  -25.9480  -13.2500   20.0010 C   0  0  0  0  0  2  0  0  0  0  0  0
  -25.2130  -13.0050   20.2110 C   0  0  0  0  0  3  0  0  0  0  0  0
  -26.0460  -11.1720   21.4290 C   0  0  0  0  0  3  0  0  0  0  0  0
  -27.0890  -12.0970   21.0880 N   0  0  0  0  0  0  0  0  0  0  0  0
  -27.0200  -11.1380   21.9630 N   0  0  0  0  0  2  0  0  0  0  0  0
  -24.9440   -9.7340   21.9320 C   0  0  0  0  0  0  0  0  0  0  0  0
  -25.0800   -8.6300   22.8730 C   0  0  0  0  0  3  0  0  0  0  0  0
  -24.1740   -7.4790   23.0710 C   0  0  0  0  0  3  0  0  0  0  0  0
  -23.0520   -7.1850   22.2390 C   0  0  0  0  0  0  0  0  0  0  0  0
  -22.8300   -8.1670   21.2970 C   0  0  0  0  0  3  0  0  0  0  0  0
  -23.5970   -9.3670   21.3820 C   0  0  0  0  0  3  0  0  0  0  0  0
  -22.1880   -6.0840   22.2630 O   0  0  0  0  0  0  0  0  0  0  0  0
  -21.1980   -5.9160   23.2140 C   0  0  0  0  0  0  0  0  0  0  0  0
  -20.2200   -6.9060   23.4590 C   0  0  0  0  0  3  0  0  0  0  0  0
  -19.2420   -6.7140   24.4590 C   0  0  0  0  0  3  0  0  0  0  0  0
  -19.2240   -5.5260   25.2140 C   0  0  0  0  0  0  0  0  0  0  0  0
  -20.1560   -4.5120   24.9380 C   0  0  0  0  0  3  0  0  0  0  0  0
  -21.1260   -4.6980   23.9340 C   0  0  0  0  0  0  0  0  0  0  0  0
  -22.0000   -3.6980   23.6650 F   0  0  0  0  0  0  0  0  0  0  0  0
  -18.3120   -5.3560   26.2010 F   0  0  0  0  0  0  0  0  0  0  0  0
  -23.5430  -13.3600   20.0980 C   0  0  0  0  0  0  0  0  0  0  0  0
  -22.6090  -12.6710   20.8560 N   0  0  0  0  0  0  0  0  0  0  0  0
  -23.1190  -14.2320   19.4110 O   0  0  0  0  0  0  0  0  0  0  0  0
  -22.9230  -11.9410   21.4740 H   0  0  0  0  0  0  0  0  0  0  0  0
  -21.6220  -12.8690   20.7810 H   0  0  0  0  0  0  0  0  0  0  0  0
  -25.7540  -14.0050   18.8380 N   0  0  0  0  0  0  0  0  0  0  0  0
  -24.8340  -14.3910   18.6400 H   0  0  0  0  0  0  0  0  0  0  0  0
  -26.4300  -14.1500   18.1050 H   0  0  0  0  0  0  0  0  0  0  0  0
  -28.5770  -20.5490   19.3930 C   0  0  0  0  0 15  0  0  0  0  0  0
  -29.2640  -22.6600   19.0420 O   0  0  0  0  0  1  0  0  0  0  0  0
  -27.4500  -29.9950   22.8830 C   0  0  0  0  0  0  0  0  0  0  0  0
  -28.9530  -24.4420   19.1570 C   0  0  0  0  0  0  0  0  0  0  0  0
  -26.2340  -29.0850   20.9620 C   0  0  0  0  0  3  0  0  0  0  0  0
  -27.4840  -27.3950   19.3220 C   0  0  0  0  0  0  0  0  0  0  0  0
  -28.7710  -28.5860   21.0490 C   0  0  0  0  0  2  0  0  0  0  0  0
  -28.6030  -27.2140   20.1330 C   0  0  0  0  0  0  0  0  0  0  0  0
  -29.3160  -25.8050   20.0050 C   0  0  0  0  0  3  0  0  0  0  0  0
  -28.0150  -25.1060   18.2750 C   0  0  0  0  0  3  0  0  0  0  0  0
  -27.3090  -26.3800   18.3580 C   0  0  0  0  0  3  0  0  0  0  0  0
  -26.5060  -28.5960   19.4980 C   0  0  0  0  0  2  0  0  0  0  0  0
  -27.5290  -29.2710   21.6900 N   0  0  0  0  0  0  0  0  0  0  0  0
  -26.3630  -30.3770   23.3600 O   0  0  0  0  0  0  0  0  0  0  0  0
  -25.3000  -28.0940   21.7130 C   0  0  0  0  0  0  0  0  0  0  0  0
  -23.9640  -28.2210   21.5820 N   0  0  0  0  0  0  0  0  0  0  0  0
  -25.8000  -27.2010   22.4010 O   0  0  0  0  0  0  0  0  0  0  0  0
  -23.6080  -28.9820   21.0220 H   0  0  0  0  0  0  0  0  0  0  0  0
  -20.4030  -27.5260   21.9390 C   0  0  0  0  0  0  0  0  0  0  0  0
  -22.9740  -27.2800   22.1300 C   0  0  0  0  0  3  0  0  0  0  0  0
  -22.8140  -26.0520   21.2030 C   0  0  0  0  0  2  0  0  0  0  0  0
  -21.6740  -26.2080   20.1930 C   0  0  0  0  0  2  0  0  0  0  0  0
  -20.3410  -26.4030   20.9160 C   0  0  0  0  0  2  0  0  0  0  0  0
  -21.6400  -27.9500   22.4960 C   0  0  0  0  0  0  0  0  0  0  0  0
  -21.6410  -29.0140   23.4250 C   0  0  0  0  0  3  0  0  0  0  0  0
  -20.4400  -29.6490   23.7940 C   0  0  0  0  0  3  0  0  0  0  0  0
  -19.2190  -29.2180   23.2460 C   0  0  0  0  0  3  0  0  0  0  0  0
  -19.2020  -28.1560   22.3240 C   0  0  0  0  0  3  0  0  0  0  0  0
  -28.7050  -30.3930   23.7220 C   0  0  0  0  0  3  0  0  0  0  0  0
  -28.2790  -31.2310   24.8750 N   0  0  0  0  0  0  0  0  0  0  0  0
  -28.6360  -32.5040   25.1060 C   0  0  0  0  0  0  0  0  0  0  0  0
  -29.3970  -33.1160   24.3570 O   0  0  0  0  0  0  0  0  0  0  0  0
  -27.6010  -30.8150   25.4970 H   0  0  0  0  0  0  0  0  0  0  0  0
  -26.9310  -34.1670   25.9470 C   0  0  0  0  0  1  0  0  0  0  0  0
  -28.0640  -33.2130   26.3580 C   0  0  0  0  0  3  0  0  0  0  0  0
  -30.0350  -33.1080   27.8270 C   0  0  0  0  0  1  0  0  0  0  0  0
  -29.0760  -33.9660   27.1340 N   0  0  0  0  0  0  0  0  0  0  0  0
  -28.6310  -34.5620   27.8270 H   0  0  0  0  0  0  0  0  0  0  0  0
  -29.4980  -29.1410   24.2740 C   0  0  1  0  0  0  0  0  0  0  0  0
  -28.6110  -28.1190   25.0220 C   0  0  0  0  0  1  0  0  0  0  0  0
  -30.2110  -28.3720   23.1440 C   0  0  0  0  0  1  0  0  0  0  0  0
  -30.6160  -29.6110   25.2360 C   0  0  0  0  0  1  0  0  0  0  0  0
  5  6  1  0
  7  3  1  0
  7  1  1  0
  8  3  1  0
  8  5  1  0
  8  6  1  0
 11  9  1  0
 12 11  1  0
 13 14  1  0
 13 10  1  0
 15 16  1  0
 16 25  1  0
 17 24  2  0
 17 23  1  0
 18 23  1  0
 19 20  1  0
 19 18  1  0
 21 20  1  0
 21 30  1  0
 21 22  1  0
 23 22  1  0
 25 26  1  0
 25 17  1  0
 27 28  1  0
 28  9  1  0
 29 32  1  0
 29 31  1  0
 30 29  1  0
 30 31  1  0
 32 33  1  0
 33 34  2  0
 35 38  1  0
 35 34  1  0
 36 37  1  0
 36 35  2  0
 37 32  2  0
 38 39  1  0
 39 40  2  0
 39 44  1  0
 40 41  1  0
 41 42  2  0
 42 46  1  0
 43 42  1  0
 44 43  2  0
 45 44  1  0
 47 28  1  0
 47 48  1  0
 48 50  1  0
 49 47  2  0
 51 48  1  0
 52 27  1  0
 53 52  1  0
 54 52  1  0
 56 58  1  0
 57 68  2  0
 58 63  1  0
 59 67  1  0
 59 69  1  0
 60 66  1  0
 60 62  1  0
 61 67  1  0
 62 61  1  0
 63 62  2  0
 64 65  1  0
 64 58  2  0
 65 60  2  0
 66 59  1  0
 67 57  1  0
 69 71  2  0
 70 69  1  0
 72 70  1  0
 73 82  2  0
 73 78  1  0
 74 70  1  0
 74 78  1  0
 75 74  1  0
 76 77  1  0
 76 75  1  0
 77 73  1  0
 78 79  2  0
 79 80  1  0
 81 80  2  0
 82 81  1  0
 83 57  1  0
 83 93  1  0
 83 84  1  0
 84 85  1  0
 84 87  1  0
 85 89  1  0
 86 85  2  0
 89 88  1  0
 89 91  1  0
 91 90  1  0
 91 92  1  0
 93 94  1  1
 93 96  1  0
 95 93  1  0
M  ISO  4  17 100  25 100  55 101  56 101
M  END
>  <TORSDO>  (52) 
F 21

>  <SCORE>  (52) 
-3.620

>  <name>  (52) 
51

>  <ligand_id>  (52) 
51

>  <original_smiles>  (52) 
[H]Oc1c([H])c(O[H])c2c([H])c(C([H])([H])Oc3c([H])c([H])c4c(c3[H])C([H])([H])N(C(=O)C([H])(N([H])C(=O)C([H])(N([H])C([H])([H])[H])C([H])([H])[H])C(C([H])([H])[H])(C([H])([H])[H])C([H])([H])[H])C([H])(C(=O)N([H])C3([H])c5c([H])c([H])c([H])c([H])c5C([H])([H])C([H])([H])C3([H])[H])C4([H])[H])c([H])c(C([H])([H])C([H])([H])N([H])C(=O)N3C([H])([H])C([H])([H])C([H])([H])C([H])(n4nc(-c5c([H])c([H])c(Oc6c([H])c([H])c(F)c([H])c6F)c([H])c5[H])c(C(=O)N([H])[H])c4N([H])[H])C3([H])[H])c2c1[H]

>  <smiles>  (52) 
[H]Oc1c([H])c(O[H])c2c([H])c(C([H])([H])Oc3c([H])c([H])c4c(c3[H])C([H])([H])N(C(=O)C([H])(N([H])C(=O)C([H])(N([H])C([H])([H])[H])C([H])([H])[H])C(C([H])([H])[H])(C([H])([H])[H])C([H])([H])[H])C([H])(C(=O)N([H])C3([H])c5c([H])c([H])c([H])c([H])c5C([H])([H])C([H])([H])C3([H])[H])C4([H])[H])c([H])c(C([H])([H])C([H])([H])N([H])C(=O)N3C([H])([H])C([H])([H])C([H])([H])C([H])(n4nc(-c5c([H])c([H])c(Oc6c([H])c([H])c(F)c([H])c6F)c([H])c5[H])c(C(=O)N([H])[H])c4N([H])[H])C3([H])[H])c2c1[H]

$$$$
52:0:0
     RDKit          3D

 92101  0  0  1  0  0  0  0  0999 V2000
  -29.3650  -20.0890   20.7250 C   0  0  0  0  0  0  0  0  0  0  0  0
  -29.6970  -17.3070   20.3510 C   0  0  0  0  0  0  0  0  0  0  0  0
  -28.3440  -20.1810   19.7480 C   0  0  0  0  0  0  0  0  0  0  0  0
  -29.9810  -18.6770   21.0070 C   0  0  0  0  0  0  0  0  0  0  0  0
  -28.7470  -17.6240   19.2910 C   0  0  0  0  0  0  0  0  0  0  0  0
  -28.1000  -18.9330   19.0410 C   0  0  0  0  0  0  0  0  0  0  0  0
  -29.5080  -21.5530   21.4760 C   0  0  0  0  0  0  0  0  0  0  0  0
  -27.3680  -21.5100   19.6470 C   0  0  0  0  0  2  0  0  0  0  0  0
  -29.4410  -23.1550   20.8880 C   0  0  0  0  0  2  0  0  0  0  0  0
  -27.6960  -23.1160   19.3300 C   0  0  0  0  0  2  0  0  0  0  0  0
  -28.1370  -24.1890   20.4730 C   0  0  0  0  0  3  0  0  0  0  0  0
  -31.0550  -18.6190   22.0820 C   0  0  0  0  0  1  0  0  0  0  0  0
  -28.4190  -16.5190   18.2880 C   0  0  0  0  0  1  0  0  0  0  0  0
  -27.0380  -19.0290   17.9380 C   0  0  0  0  0  1  0  0  0  0  0  0
  -29.7290  -21.5160   22.6870 O   0  0  0  0  0  0  0  0  0  0  0  0
  -30.4600  -15.7350   20.5040 C   0  0  0  0  0  0  0  0  0  0  0  0
  -30.5950  -13.2160   19.7270 C   0  0  0  0  0  2  0  0  0  0  0  0
  -29.7410  -12.8280   18.4870 C   0  0  0  0  0  2  0  0  0  0  0  0
  -28.2910  -12.5100   18.8880 C   0  0  0  0  0  2  0  0  0  0  0  0
  -27.7470  -13.4930   19.9510 C   0  0  0  0  0  3  0  0  0  0  0  0
  -28.7450  -13.7950   21.0850 C   0  0  0  0  0  2  0  0  0  0  0  0
  -29.9500  -14.3800   20.4640 N   0  0  0  0  0  0  0  0  0  0  0  0
  -31.7010  -15.6900   20.4340 O   0  0  0  0  0  0  0  0  0  0  0  0
  -25.3630  -13.9840   20.6820 C   0  0  0  0  0  0  0  0  0  0  0  0
  -24.3090  -13.1800   21.0110 C   0  0  0  0  0  0  0  0  0  0  0  0
  -24.8040  -11.8400   20.9670 C   0  0  0  0  0  0  0  0  0  0  0  0
  -26.4250  -13.1330   20.4420 N   0  0  0  0  0  0  0  0  0  0  0  0
  -26.1040  -11.8370   20.6840 N   0  0  0  0  0  0  0  0  0  0  0  0
  -24.0990  -10.5610   21.1170 C   0  0  0  0  0  0  0  0  0  0  0  0
  -24.4970   -9.6030   22.0760 C   0  0  0  0  0  3  0  0  0  0  0  0
  -23.7880   -8.3910   22.2140 C   0  0  0  0  0  3  0  0  0  0  0  0
  -22.6660   -8.1270   21.3940 C   0  0  0  0  0  0  0  0  0  0  0  0
  -22.2870   -9.0730   20.4250 C   0  0  0  0  0  3  0  0  0  0  0  0
  -22.9980  -10.2770   20.2840 C   0  0  0  0  0  3  0  0  0  0  0  0
  -21.9300   -6.9670   21.4420 O   0  0  0  0  0  0  0  0  0  0  0  0
  -21.7800   -6.2580   22.6060 C   0  0  0  0  0  0  0  0  0  0  0  0
  -21.1720   -6.8210   23.7490 C   0  0  0  0  0  3  0  0  0  0  0  0
  -20.9760   -6.0350   24.9010 C   0  0  0  0  0  3  0  0  0  0  0  0
  -21.3750   -4.6860   24.9120 C   0  0  0  0  0  0  0  0  0  0  0  0
  -21.9760   -4.1210   23.7720 C   0  0  0  0  0  3  0  0  0  0  0  0
  -22.1750   -4.9050   22.6220 C   0  0  0  0  0  0  0  0  0  0  0  0
  -22.7340   -4.3500   21.5200 F   0  0  0  0  0  0  0  0  0  0  0  0
  -21.1800   -3.9270   26.0160 F   0  0  0  0  0  0  0  0  0  0  0  0
  -22.8970  -13.6250   21.2530 C   0  0  0  0  0  0  0  0  0  0  0  0
  -22.1650  -12.9080   22.0980 N   0  0  0  0  0  0  0  0  0  0  0  0
  -22.4510  -14.6450   20.7290 O   0  0  0  0  0  0  0  0  0  0  0  0
  -22.5410  -12.0840   22.5430 H   0  0  0  0  0  0  0  0  0  0  0  0
  -21.2170  -13.1860   22.3030 H   0  0  0  0  0  0  0  0  0  0  0  0
  -25.5040  -15.3610   20.5370 N   0  0  0  0  0  0  0  0  0  0  0  0
  -24.7250  -16.0000   20.6600 H   0  0  0  0  0  0  0  0  0  0  0  0
  -26.3610  -15.8310   20.2790 H   0  0  0  0  0  0  0  0  0  0  0  0
  -28.2010  -25.8970   20.2800 O   0  0  0  0  0  0  0  0  0  0  0  0
  -24.5930  -31.9810   23.2520 C   0  0  0  0  0  0  0  0  0  0  0  0
  -27.1720  -27.0190   20.2570 C   0  0  0  0  0  0  0  0  0  0  0  0
  -23.4100  -30.5750   21.6160 C   0  0  0  0  0  3  0  0  0  0  0  0
  -24.8680  -28.9550   20.2010 C   0  0  0  0  0  0  0  0  0  0  0  0
  -25.9810  -30.7750   21.4750 C   0  0  0  0  0  2  0  0  0  0  0  0
  -26.0590  -29.3520   20.8220 C   0  0  0  0  0  0  0  0  0  0  0  0
  -27.2010  -28.4100   20.8150 C   0  0  0  0  0  3  0  0  0  0  0  0
  -25.9430  -26.8000   19.5880 C   0  0  0  0  0  3  0  0  0  0  0  0
  -24.8420  -27.7040   19.5610 C   0  0  0  0  0  3  0  0  0  0  0  0
  -23.6480  -29.8820   20.2430 C   0  0  0  0  0  2  0  0  0  0  0  0
  -24.6840  -31.1400   22.1670 N   0  0  0  0  0  0  0  0  0  0  0  0
  -23.5000  -32.2660   23.7710 O   0  0  0  0  0  0  0  0  0  0  0  0
  -22.7130  -29.5830   22.5860 C   0  0  0  0  0  0  0  0  0  0  0  0
  -21.3930  -29.3710   22.4280 N   0  0  0  0  0  0  0  0  0  0  0  0
  -23.3730  -29.0030   23.4520 O   0  0  0  0  0  0  0  0  0  0  0  0
  -20.9100  -29.8920   21.7090 H   0  0  0  0  0  0  0  0  0  0  0  0
  -18.0420  -28.0460   22.8750 C   0  0  0  0  0  0  0  0  0  0  0  0
  -20.5830  -28.4200   23.1970 C   0  0  0  0  0  3  0  0  0  0  0  0
  -20.7530  -26.9810   22.6580 C   0  0  0  0  0  2  0  0  0  0  0  0
  -19.6920  -26.5950   21.6210 C   0  0  0  0  0  2  0  0  0  0  0  0
  -18.2900  -26.6940   22.2270 C   0  0  0  0  0  2  0  0  0  0  0  0
  -19.1180  -28.8630   23.3170 C   0  0  0  0  0  0  0  0  0  0  0  0
  -18.8300  -30.1220   23.8860 C   0  0  0  0  0  3  0  0  0  0  0  0
  -17.5020  -30.5680   24.0150 C   0  0  0  0  0  3  0  0  0  0  0  0
  -16.4410  -29.7500   23.5880 C   0  0  0  0  0  3  0  0  0  0  0  0
  -16.7120  -28.4910   23.0240 C   0  0  0  0  0  3  0  0  0  0  0  0
  -25.8550  -32.6390   23.8870 C   0  0  0  0  0  3  0  0  0  0  0  0
  -25.5270  -34.0390   24.2160 N   0  0  0  0  0  0  0  0  0  0  0  0
  -25.8340  -35.1000   23.4580 C   0  0  0  0  0  0  0  0  0  0  0  0
  -26.4840  -35.0050   22.4140 O   0  0  0  0  0  0  0  0  0  0  0  0
  -24.9500  -34.1860   25.0310 H   0  0  0  0  0  0  0  0  0  0  0  0
  -24.0810  -36.8830   23.1540 C   0  0  0  0  0  1  0  0  0  0  0  0
  -25.3470  -36.4870   23.9300 C   0  0  0  0  0  3  0  0  0  0  0  0
  -27.4880  -37.4040   24.7120 C   0  0  0  0  0  1  0  0  0  0  0  0
  -26.3660  -37.5520   23.7890 N   0  0  0  0  0  0  0  0  0  0  0  0
  -25.9510  -38.4680   23.9380 H   0  0  0  0  0  0  0  0  0  0  0  0
  -26.3580  -31.8870   25.1820 C   0  0  1  0  0  0  0  0  0  0  0  0
  -25.2530  -31.6580   26.2400 C   0  0  0  0  0  1  0  0  0  0  0  0
  -26.9540  -30.5060   24.8270 C   0  0  0  0  0  1  0  0  0  0  0  0
  -27.4940  -32.6970   25.8510 C   0  0  0  0  0  1  0  0  0  0  0  0
  1  4  1  0
  1  7  1  0
  2 16  1  0
  2  4  2  0
  3  1  2  0
  4 12  1  0
  5  2  1  0
  6  5  2  0
  6  3  1  0
  7 15  2  0
  8  3  1  0
  9  7  1  0
 10  8  1  0
 10 11  1  0
 11 52  1  0
 11  9  1  0
 13  5  1  0
 14  6  1  0
 17 22  1  0
 18 19  1  0
 18 17  1  0
 20 19  1  0
 20 27  1  0
 20 21  1  0
 22 16  1  0
 22 21  1  0
 23 16  2  0
 24 25  2  0
 25 44  1  0
 26 25  1  0
 26 29  1  0
 27 24  1  0
 27 28  1  0
 28 26  2  0
 29 30  1  0
 30 31  2  0
 32 35  1  0
 32 31  1  0
 33 32  2  0
 34 33  1  0
 34 29  2  0
 35 36  1  0
 36 41  2  0
 36 37  1  0
 37 38  2  0
 38 39  1  0
 39 43  1  0
 40 39  2  0
 41 40  1  0
 42 41  1  0
 44 45  1  0
 45 48  1  0
 45 47  1  0
 46 44  2  0
 49 50  1  0
 49 24  1  0
 51 49  1  0
 53 64  2  0
 54 52  1  0
 54 59  1  0
 55 63  1  0
 55 65  1  0
 56 62  1  0
 56 58  1  0
 57 63  1  0
 58 57  1  0
 59 58  2  0
 60 54  2  0
 61 60  1  0
 61 56  2  0
 62 55  1  0
 63 53  1  0
 65 67  2  0
 66 65  1  0
 68 66  1  0
 69 78  2  0
 69 74  1  0
 70 66  1  0
 70 74  1  0
 71 70  1  0
 72 73  1  0
 72 71  1  0
 73 69  1  0
 74 75  2  0
 75 76  1  0
 77 76  2  0
 78 77  1  0
 79 53  1  0
 79 80  1  0
 79 89  1  0
 80 83  1  0
 81 85  1  0
 81 80  1  0
 82 81  2  0
 85 84  1  0
 87 85  1  0
 87 88  1  0
 87 86  1  0
 89 92  1  1
 89 90  1  0
 91 89  1  0
M  ISO  4   2 100  11 101  16 100  52 101
M  END
>  <TORSDO>  (53) 
F 16

>  <SCORE>  (53) 
-16.121

>  <name>  (53) 
52

>  <ligand_id>  (53) 
52

>  <original_smiles>  (53) 
[H]c1c([H])c([H])c2c(c1[H])C([H])([H])C([H])([H])C([H])([H])C2([H])N([H])C(=O)C1([H])N(C(=O)C([H])(N([H])C(=O)C([H])(N([H])C([H])([H])[H])C([H])([H])[H])C(C([H])([H])[H])(C([H])([H])[H])C([H])([H])[H])C([H])([H])c2c([H])c(OC3([H])C([H])([H])C(=O)c4c(C([H])([H])[H])c(C(=O)N5C([H])([H])C([H])([H])C([H])([H])C([H])(n6nc(-c7c([H])c([H])c(Oc8c([H])c([H])c(F)c([H])c8F)c([H])c7[H])c(C(=O)N([H])[H])c6N([H])[H])C5([H])[H])c(C([H])([H])[H])c(C([H])([H])[H])c4C([H])([H])C3([H])[H])c([H])c([H])c2C1([H])[H]

>  <smiles>  (53) 
[H]c1c([H])c([H])c2c(c1[H])C([H])([H])C([H])([H])C([H])([H])C2([H])N([H])C(=O)C1([H])N(C(=O)C([H])(N([H])C(=O)C([H])(N([H])C([H])([H])[H])C([H])([H])[H])C(C([H])([H])[H])(C([H])([H])[H])C([H])([H])[H])C([H])([H])c2c([H])c(OC3([H])C([H])([H])C(=O)c4c(C([H])([H])[H])c(C(=O)N5C([H])([H])C([H])([H])C([H])([H])C([H])(n6nc(-c7c([H])c([H])c(Oc8c([H])c([H])c(F)c([H])c8F)c([H])c7[H])c(C(=O)N([H])[H])c6N([H])[H])C5([H])[H])c(C([H])([H])[H])c(C([H])([H])[H])c4C([H])([H])C3([H])[H])c([H])c([H])c2C1([H])[H]

$$$$
53:0:0
     RDKit          3D

 92101  0  0  1  0  0  0  0  0999 V2000
  -31.8230  -20.2400   19.5460 C   0  0  0  0  0  3  0  0  0  0  0  0
  -29.7810  -20.0410   20.8660 C   0  0  0  0  0  3  0  0  0  0  0  0
  -31.5390  -21.5970   19.3050 C   0  0  0  0  0  3  0  0  0  0  0  0
  -29.4910  -21.3970   20.6130 C   0  0  0  0  0  3  0  0  0  0  0  0
  -30.8990  -19.4390   20.2510 C   0  0  0  0  0  0  0  0  0  0  0  0
  -30.3280  -22.1500   19.7620 C   0  0  0  0  0  0  0  0  0  0  0  0
  -30.8200  -14.5470   20.7050 C   0  0  0  0  0  0  0  0  0  0  0  0
  -30.5620  -12.2850   19.7770 C   0  0  0  0  0  2  0  0  0  0  0  0
  -29.6930  -12.3000   18.5060 C   0  0  0  0  0  2  0  0  0  0  0  0
  -28.1890  -12.2480   18.8600 C   0  0  0  0  0  2  0  0  0  0  0  0
  -27.7600  -13.1770   20.0340 C   0  0  0  0  0  3  0  0  0  0  0  0
  -28.7760  -13.1380   21.1960 C   0  0  0  0  0  2  0  0  0  0  0  0
  -30.1090  -13.3870   20.6310 N   0  0  0  0  0  0  0  0  0  0  0  0
  -32.0480  -14.5650   20.6320 O   0  0  0  0  0  0  0  0  0  0  0  0
  -29.7460  -16.0780   19.2710 C   0  0  0  0  0  0  0  0  0  0  0  0
  -29.9580  -17.5400   18.9770 C   0  0  0  0  0  2  0  0  0  0  0  0
  -30.6110  -16.9610   21.1950 C   0  0  0  0  0  2  0  0  0  0  0  0
  -30.9520  -17.9310   20.0490 C   0  0  0  0  0  3  0  0  0  0  0  0
  -30.1640  -15.7220   20.5130 N   0  0  0  0  0  0  0  0  0  0  0  0
  -29.2960  -15.3660   18.3740 O   0  0  0  0  0  0  0  0  0  0  0  0
  -25.3390  -13.7950   20.6260 C   0  0  0  0  0  0  0  0  0  0  0  0
  -24.2550  -13.0240   20.9470 C   0  0  0  0  0  0  0  0  0  0  0  0
  -24.7250  -11.6740   20.9670 C   0  0  0  0  0  0  0  0  0  0  0  0
  -26.3940  -12.9100   20.4680 N   0  0  0  0  0  0  0  0  0  0  0  0
  -26.0290  -11.6340   20.7380 N   0  0  0  0  0  0  0  0  0  0  0  0
  -23.9990  -10.4120   21.1330 C   0  0  0  0  0  0  0  0  0  0  0  0
  -24.3890   -9.4590   22.0990 C   0  0  0  0  0  3  0  0  0  0  0  0
  -23.6630   -8.2590   22.2530 C   0  0  0  0  0  3  0  0  0  0  0  0
  -22.5320   -8.0060   21.4400 C   0  0  0  0  0  0  0  0  0  0  0  0
  -22.1640   -8.9480   20.4620 C   0  0  0  0  0  3  0  0  0  0  0  0
  -22.8910  -10.1390   20.3060 C   0  0  0  0  0  3  0  0  0  0  0  0
  -21.7810   -6.8580   21.5040 O   0  0  0  0  0  0  0  0  0  0  0  0
  -21.6830   -6.1290   22.6610 C   0  0  0  0  0  0  0  0  0  0  0  0
  -21.1810   -6.6880   23.8560 C   0  0  0  0  0  3  0  0  0  0  0  0
  -21.0320   -5.8810   25.0010 C   0  0  0  0  0  3  0  0  0  0  0  0
  -21.3710   -4.5170   24.9540 C   0  0  0  0  0  0  0  0  0  0  0  0
  -21.8650   -3.9580   23.7620 C   0  0  0  0  0  3  0  0  0  0  0  0
  -22.0180   -4.7600   22.6180 C   0  0  0  0  0  0  0  0  0  0  0  0
  -22.4730   -4.2090   21.4670 F   0  0  0  0  0  0  0  0  0  0  0  0
  -21.2240   -3.7410   26.0530 F   0  0  0  0  0  0  0  0  0  0  0  0
  -22.8430  -13.4990   21.1270 C   0  0  0  0  0  0  0  0  0  0  0  0
  -22.0660  -12.8110   21.9570 N   0  0  0  0  0  0  0  0  0  0  0  0
  -22.4330  -14.5130   20.5650 O   0  0  0  0  0  0  0  0  0  0  0  0
  -22.4110  -11.9900   22.4330 H   0  0  0  0  0  0  0  0  0  0  0  0
  -21.1140  -13.1100   22.1200 H   0  0  0  0  0  0  0  0  0  0  0  0
  -25.5070  -15.1620   20.4290 N   0  0  0  0  0  0  0  0  0  0  0  0
  -24.7360  -15.8180   20.4870 H   0  0  0  0  0  0  0  0  0  0  0  0
  -26.3740  -15.5970   20.1400 H   0  0  0  0  0  0  0  0  0  0  0  0
  -29.8240  -23.4510   19.1620 C   0  0  0  0  0  2  0  0  0  0  0  0
  -29.6100  -24.6290   20.1250 C   0  0  0  0  0  2  0  0  0  0  0  0
  -28.3830  -25.4350   19.6720 C   0  0  0  0  0  2  0  0  0  0  0  0
  -28.3450  -26.7360   20.2410 O   0  0  0  0  0  0  0  0  0  0  0  0
  -24.5450  -31.8840   23.2700 C   0  0  0  0  0  0  0  0  0  0  0  0
  -27.1570  -27.4350   20.1900 C   0  0  0  0  0  0  0  0  0  0  0  0
  -23.3240  -30.4840   21.6340 C   0  0  0  0  0  3  0  0  0  0  0  0
  -24.7620  -28.9450   20.2020 C   0  0  0  0  0  0  0  0  0  0  0  0
  -25.8490  -30.8340   21.4260 C   0  0  0  0  0  2  0  0  0  0  0  0
  -25.9210  -29.4640   20.7890 C   0  0  0  0  0  0  0  0  0  0  0  0
  -27.1160  -28.7140   20.7850 C   0  0  0  0  0  3  0  0  0  0  0  0
  -25.9750  -26.9350   19.5830 C   0  0  0  0  0  3  0  0  0  0  0  0
  -24.7840  -27.6780   19.5980 C   0  0  0  0  0  3  0  0  0  0  0  0
  -23.5220  -29.8060   20.2530 C   0  0  0  0  0  2  0  0  0  0  0  0
  -24.5910  -31.0830   22.1680 N   0  0  0  0  0  0  0  0  0  0  0  0
  -23.4680  -32.1610   23.8140 O   0  0  0  0  0  0  0  0  0  0  0  0
  -22.6750  -29.4660   22.5980 C   0  0  0  0  0  0  0  0  0  0  0  0
  -21.3510  -29.2810   22.4700 N   0  0  0  0  0  0  0  0  0  0  0  0
  -23.3600  -28.8470   23.4180 O   0  0  0  0  0  0  0  0  0  0  0  0
  -20.8590  -29.8370   21.7830 H   0  0  0  0  0  0  0  0  0  0  0  0
  -17.9800  -28.0780   22.9550 C   0  0  0  0  0  0  0  0  0  0  0  0
  -20.5340  -28.3470   23.2440 C   0  0  0  0  0  3  0  0  0  0  0  0
  -20.6460  -26.9110   22.6850 C   0  0  0  0  0  2  0  0  0  0  0  0
  -19.5540  -26.5740   21.6660 C   0  0  0  0  0  2  0  0  0  0  0  0
  -18.1660  -26.7220   22.2960 C   0  0  0  0  0  2  0  0  0  0  0  0
  -19.0920  -28.8490   23.3850 C   0  0  0  0  0  0  0  0  0  0  0  0
  -18.8630  -30.1200   23.9560 C   0  0  0  0  0  3  0  0  0  0  0  0
  -17.5560  -30.6180   24.1040 C   0  0  0  0  0  3  0  0  0  0  0  0
  -16.4580  -29.8440   23.6900 C   0  0  0  0  0  3  0  0  0  0  0  0
  -16.6710  -28.5760   23.1200 C   0  0  0  0  0  3  0  0  0  0  0  0
  -25.8400  -32.5080   23.8810 C   0  0  0  0  0  3  0  0  0  0  0  0
  -26.3570  -31.7400   25.1580 C   0  0  1  0  0  0  0  0  0  0  0  0
  -25.2700  -31.5160   26.2330 C   0  0  0  0  0  1  0  0  0  0  0  0
  -26.9270  -30.3560   24.7710 C   0  0  0  0  0  1  0  0  0  0  0  0
  -27.5170  -32.5290   25.8110 C   0  0  0  0  0  1  0  0  0  0  0  0
  -25.5460  -33.9100   24.2000 N   0  0  0  0  0  0  0  0  0  0  0  0
  -25.8900  -34.9550   23.4320 C   0  0  0  0  0  0  0  0  0  0  0  0
  -26.5610  -34.8360   22.4040 O   0  0  0  0  0  0  0  0  0  0  0  0
  -24.9590  -34.0800   25.0030 H   0  0  0  0  0  0  0  0  0  0  0  0
  -24.1870  -36.7620   23.0410 C   0  0  0  0  0  1  0  0  0  0  0  0
  -25.4110  -36.3500   23.8750 C   0  0  0  0  0  3  0  0  0  0  0  0
  -27.5420  -37.2110   24.7350 C   0  0  0  0  0  1  0  0  0  0  0  0
  -26.4570  -37.3910   23.7740 N   0  0  0  0  0  0  0  0  0  0  0  0
  -26.0590  -38.3170   23.9100 H   0  0  0  0  0  0  0  0  0  0  0  0
  1  5  1  0
  3  1  2  0
  3  6  1  0
  4  2  1  0
  5  2  2  0
  6  4  2  0
  8 13  1  0
  9 10  1  0
  9  8  1  0
 11 10  1  0
 11 24  1  0
 11 12  1  0
 13  7  1  0
 13 12  1  0
 14  7  2  0
 15 19  1  0
 16 15  1  0
 16 18  1  0
 18  5  1  0
 18 17  1  0
 19  7  1  0
 19 17  1  0
 20 15  2  0
 21 22  2  0
 22 23  1  0
 22 41  1  0
 23 26  1  0
 24 21  1  0
 24 25  1  0
 25 23  2  0
 26 27  1  0
 27 28  2  0
 29 32  1  0
 29 28  1  0
 30 29  2  0
 31 30  1  0
 31 26  2  0
 32 33  1  0
 33 34  1  0
 34 35  2  0
 36 35  1  0
 36 40  1  0
 37 36  2  0
 38 33  2  0
 38 37  1  0
 39 38  1  0
 41 42  1  0
 42 45  1  0
 42 44  1  0
 43 41  2  0
 46 47  1  0
 46 21  1  0
 48 46  1  0
 49  6  1  0
 49 50  1  0
 51 50  1  0
 51 52  1  0
 53 64  2  0
 54 52  1  0
 54 59  1  0
 55 63  1  0
 55 65  1  0
 56 62  1  0
 56 58  1  0
 57 63  1  0
 58 57  1  0
 59 58  2  0
 60 61  1  0
 60 54  2  0
 61 56  2  0
 62 55  1  0
 63 53  1  0
 65 67  2  0
 66 65  1  0
 68 66  1  0
 69 78  2  0
 69 74  1  0
 70 66  1  0
 70 74  1  0
 71 70  1  0
 72 73  1  0
 72 71  1  0
 73 69  1  0
 74 75  2  0
 75 76  1  0
 77 76  2  0
 78 77  1  0
 79 53  1  0
 79 84  1  0
 79 80  1  0
 80 83  1  1
 80 81  1  0
 82 80  1  0
 84 87  1  0
 85 89  1  0
 85 84  1  0
 86 85  2  0
 89 88  1  0
 91 89  1  0
 91 92  1  0
 91 90  1  0
M  ISO  4   7 100  19 100  51 101  52 101
M  END
>  <TORSDO>  (54) 
F 19

>  <SCORE>  (54) 
-13.669

>  <name>  (54) 
53

>  <ligand_id>  (54) 
53

>  <original_smiles>  (54) 
[H]c1c([H])c([H])c2c(c1[H])C([H])([H])C([H])([H])C([H])([H])C2([H])N([H])C(=O)C1([H])N(C(=O)C([H])(N([H])C(=O)C([H])(N([H])C([H])([H])[H])C([H])([H])[H])C(C([H])([H])[H])(C([H])([H])[H])C([H])([H])[H])C([H])([H])c2c([H])c(OC([H])([H])C([H])([H])C([H])([H])c3c([H])c([H])c(C4([H])C([H])([H])C(=O)N(C(=O)N5C([H])([H])C([H])([H])C([H])([H])C([H])(n6nc(-c7c([H])c([H])c(Oc8c([H])c([H])c(F)c([H])c8F)c([H])c7[H])c(C(=O)N([H])[H])c6N([H])[H])C5([H])[H])C4([H])[H])c([H])c3[H])c([H])c([H])c2C1([H])[H]

>  <smiles>  (54) 
[H]c1c([H])c([H])c2c(c1[H])C([H])([H])C([H])([H])C([H])([H])C2([H])N([H])C(=O)C1([H])N(C(=O)C([H])(N([H])C(=O)C([H])(N([H])C([H])([H])[H])C([H])([H])[H])C(C([H])([H])[H])(C([H])([H])[H])C([H])([H])[H])C([H])([H])c2c([H])c(OC([H])([H])C([H])([H])C([H])([H])c3c([H])c([H])c(C4([H])C([H])([H])C(=O)N(C(=O)N5C([H])([H])C([H])([H])C([H])([H])C([H])(n6nc(-c7c([H])c([H])c(Oc8c([H])c([H])c(F)c([H])c8F)c([H])c7[H])c(C(=O)N([H])[H])c6N([H])[H])C5([H])[H])C4([H])[H])c([H])c3[H])c([H])c([H])c2C1([H])[H]

$$$$
54:0:0
     RDKit          3D

100109  0  0  1  0  0  0  0  0999 V2000
  -30.0570  -16.8450   20.2370 C   0  0  0  0  0  0  0  0  0  0  0  0
  -30.5230  -15.5010   20.4930 C   0  0  0  0  0  0  0  0  0  0  0  0
  -30.0160  -17.8300   21.2740 C   0  0  0  0  0  0  0  0  0  0  0  0
  -31.0630  -15.2110   21.7800 C   0  0  0  0  0  0  0  0  0  0  0  0
  -30.5840  -17.5080   22.5420 C   0  0  0  0  0  0  0  0  0  0  0  0
  -31.1970  -16.2420   22.7480 C   0  0  0  0  0  0  0  0  0  0  0  0
  -29.5390  -17.2270   18.8890 C   0  0  0  0  0  0  0  0  0  0  0  0
  -29.2720  -19.1930   21.0770 C   0  0  0  0  0  2  0  0  0  0  0  0
  -30.1690  -18.4590   18.2140 C   0  0  0  0  0  2  0  0  0  0  0  0
  -29.5790  -19.8330   18.6320 C   0  0  0  0  0  2  0  0  0  0  0  0
  -29.8600  -20.2630   20.0960 C   0  0  0  0  0  3  0  0  0  0  0  0
  -30.4700  -18.4890   23.7160 C   0  0  0  0  0  1  0  0  0  0  0  0
  -32.0280  -15.9940   24.0110 C   0  0  0  0  0  1  0  0  0  0  0  0
  -28.6610  -16.5970   18.2990 O   0  0  0  0  0  0  0  0  0  0  0  0
  -30.6970  -14.4720   19.3670 C   0  0  0  0  0  0  0  0  0  0  0  0
  -30.0310  -12.4490   18.0930 C   0  0  0  0  0  2  0  0  0  0  0  0
  -28.9370  -12.8060   17.0680 C   0  0  0  0  0  2  0  0  0  0  0  0
  -27.5520  -12.6510   17.7110 C   0  0  0  0  0  2  0  0  0  0  0  0
  -27.4540  -13.3700   19.0790 C   0  0  0  0  0  3  0  0  0  0  0  0
  -28.6710  -13.1040   20.0000 C   0  0  0  0  0  2  0  0  0  0  0  0
  -29.9000  -13.3670   19.2410 N   0  0  0  0  0  0  0  0  0  0  0  0
  -31.6310  -14.6800   18.5890 O   0  0  0  0  0  0  0  0  0  0  0  0
  -25.2130  -13.9780   20.1700 C   0  0  0  0  0  0  0  0  0  0  0  0
  -24.1980  -13.2040   20.6670 C   0  0  0  0  0  0  0  0  0  0  0  0
  -24.6220  -11.8490   20.5200 C   0  0  0  0  0  0  0  0  0  0  0  0
  -26.1900  -13.0870   19.7530 N   0  0  0  0  0  0  0  0  0  0  0  0
  -25.8500  -11.8000   20.0190 N   0  0  0  0  0  0  0  0  0  0  0  0
  -23.9090  -10.5910   20.7760 C   0  0  0  0  0  0  0  0  0  0  0  0
  -24.4230   -9.6180   21.6610 C   0  0  0  0  0  3  0  0  0  0  0  0
  -23.7050   -8.4250   21.9030 C   0  0  0  0  0  3  0  0  0  0  0  0
  -22.4640   -8.2010   21.2590 C   0  0  0  0  0  0  0  0  0  0  0  0
  -21.9690   -9.1660   20.3640 C   0  0  0  0  0  3  0  0  0  0  0  0
  -22.6860  -10.3490   20.1190 C   0  0  0  0  0  3  0  0  0  0  0  0
  -21.7120   -7.0610   21.4140 O   0  0  0  0  0  0  0  0  0  0  0  0
  -21.7200   -6.3530   22.5890 C   0  0  0  0  0  0  0  0  0  0  0  0
  -21.3570   -6.9440   23.8190 C   0  0  0  0  0  3  0  0  0  0  0  0
  -21.3100   -6.1590   24.9890 C   0  0  0  0  0  3  0  0  0  0  0  0
  -21.6190   -4.7860   24.9280 C   0  0  0  0  0  0  0  0  0  0  0  0
  -21.9770   -4.1980   23.7040 C   0  0  0  0  0  3  0  0  0  0  0  0
  -22.0260   -4.9790   22.5360 C   0  0  0  0  0  0  0  0  0  0  0  0
  -22.3540   -4.4030   21.3540 F   0  0  0  0  0  0  0  0  0  0  0  0
  -21.5620   -4.0310   26.0490 F   0  0  0  0  0  0  0  0  0  0  0  0
  -22.8750  -13.6980   21.1660 C   0  0  0  0  0  0  0  0  0  0  0  0
  -22.2970  -12.9970   22.1370 N   0  0  0  0  0  0  0  0  0  0  0  0
  -22.3700  -14.7340   20.7400 O   0  0  0  0  0  0  0  0  0  0  0  0
  -22.7250  -12.1620   22.5030 H   0  0  0  0  0  0  0  0  0  0  0  0
  -21.4170  -13.3060   22.5230 H   0  0  0  0  0  0  0  0  0  0  0  0
  -25.3730  -15.3480   20.0170 N   0  0  0  0  0  0  0  0  0  0  0  0
  -24.6240  -15.9950   20.2440 H   0  0  0  0  0  0  0  0  0  0  0  0
  -26.1790  -15.7930   19.5940 H   0  0  0  0  0  0  0  0  0  0  0  0
  -32.8220  -13.3420   21.4680 C   0  0  0  0  0  1  0  0  0  0  0  0
  -31.5130  -13.7830   22.1370 C   0  0  0  0  0  2  0  0  0  0  0  0
  -27.7880  -21.8460   20.3470 C   0  0  0  0  0  1  0  0  0  0  0  0
  -29.3210  -21.7240   20.4570 C   0  0  0  0  0  3  0  0  0  0  0  0
  -29.9740  -22.8760   19.7380 N   0  0  0  0  0  4  0  0  0  0  0  0
  -30.9630  -22.6900   19.7350 H   0  0  0  0  0  0  0  0  0  0  0  0
  -29.7070  -22.8760   18.7660 H   0  0  0  0  0  0  0  0  0  0  0  0
  -29.8000  -24.2600   20.3290 C   0  0  0  0  0  3  0  0  0  0  0  0
  -28.7560  -25.1890   19.6250 C   0  0  0  0  0  3  0  0  0  0  0  0
  -28.7620  -26.5830   20.0760 O   0  0  0  0  0  0  0  0  0  0  0  0
  -24.8380  -31.6630   23.2760 C   0  0  0  0  0  0  0  0  0  0  0  0
  -27.5820  -27.3280   20.0520 C   0  0  0  0  0  0  0  0  0  0  0  0
  -23.6780  -30.3050   21.5710 C   0  0  0  0  0  3  0  0  0  0  0  0
  -25.1690  -28.8540   20.0900 C   0  0  0  0  0  0  0  0  0  0  0  0
  -26.2070  -30.6910   21.4230 C   0  0  0  0  0  2  0  0  0  0  0  0
  -26.3190  -29.3460   20.7200 C   0  0  0  0  0  0  0  0  0  0  0  0
  -27.5210  -28.5960   20.6960 C   0  0  0  0  0  3  0  0  0  0  0  0
  -26.4040  -26.8680   19.4120 C   0  0  0  0  0  3  0  0  0  0  0  0
  -25.2110  -27.6130   19.4350 C   0  0  0  0  0  3  0  0  0  0  0  0
  -23.9150  -29.6950   20.1640 C   0  0  0  0  0  2  0  0  0  0  0  0
  -24.9270  -30.8990   22.1490 N   0  0  0  0  0  0  0  0  0  0  0  0
  -23.7460  -31.8900   23.8140 O   0  0  0  0  0  0  0  0  0  0  0  0
  -23.0390  -29.2300   22.4810 C   0  0  0  0  0  0  0  0  0  0  0  0
  -21.7310  -28.9850   22.2990 N   0  0  0  0  0  0  0  0  0  0  0  0
  -23.7200  -28.6220   23.3090 O   0  0  0  0  0  0  0  0  0  0  0  0
  -21.2380  -29.5300   21.6010 H   0  0  0  0  0  0  0  0  0  0  0  0
  -18.4120  -27.5880   22.6300 C   0  0  0  0  0  0  0  0  0  0  0  0
  -20.9340  -27.9930   23.0270 C   0  0  0  0  0  3  0  0  0  0  0  0
  -21.1510  -26.5760   22.4470 C   0  0  0  0  0  2  0  0  0  0  0  0
  -20.1210  -26.2020   21.3750 C   0  0  0  0  0  2  0  0  0  0  0  0
  -18.7020  -26.2600   21.9510 C   0  0  0  0  0  2  0  0  0  0  0  0
  -19.4600  -28.4090   23.1220 C   0  0  0  0  0  0  0  0  0  0  0  0
  -19.1370  -29.6500   23.7140 C   0  0  0  0  0  3  0  0  0  0  0  0
  -17.7970  -30.0730   23.8140 C   0  0  0  0  0  3  0  0  0  0  0  0
  -16.7640  -29.2500   23.3330 C   0  0  0  0  0  3  0  0  0  0  0  0
  -17.0730  -28.0080   22.7500 C   0  0  0  0  0  3  0  0  0  0  0  0
  -26.1070  -32.2970   23.9240 C   0  0  0  0  0  3  0  0  0  0  0  0
  -25.7600  -33.6650   24.3250 N   0  0  0  0  0  0  0  0  0  0  0  0
  -26.0460  -34.7610   23.6070 C   0  0  0  0  0  0  0  0  0  0  0  0
  -26.7020  -34.7220   22.5590 O   0  0  0  0  0  0  0  0  0  0  0  0
  -25.1750  -33.7600   25.1440 H   0  0  0  0  0  0  0  0  0  0  0  0
  -24.2400  -36.4900   23.3660 C   0  0  0  0  0  1  0  0  0  0  0  0
  -25.5170  -36.1110   24.1320 C   0  0  0  0  0  3  0  0  0  0  0  0
  -27.6380  -37.0430   24.9410 C   0  0  0  0  0  1  0  0  0  0  0  0
  -26.5070  -37.2060   24.0330 N   0  0  0  0  0  0  0  0  0  0  0  0
  -26.0730  -38.1040   24.2280 H   0  0  0  0  0  0  0  0  0  0  0  0
  -26.6430  -31.4740   25.1590 C   0  0  1  0  0  0  0  0  0  0  0  0
  -25.5500  -31.1270   26.1950 C   0  0  0  0  0  1  0  0  0  0  0  0
  -27.2830  -30.1430   24.6970 C   0  0  0  0  0  1  0  0  0  0  0  0
  -27.7590  -32.2720   25.8710 C   0  0  0  0  0  1  0  0  0  0  0  0
  1  2  2  0
  1  3  1  0
  2  4  1  0
  3  5  2  0
  4 52  1  0
  4  6  2  0
  5  6  1  0
  5 12  1  0
  6 13  1  0
  7  1  1  0
  8  3  1  0
  9 10  1  0
  9  7  1  0
 10 11  1  0
 11 54  1  0
 11  8  1  0
 14  7  2  0
 15  2  1  0
 16 21  1  0
 17 18  1  0
 17 16  1  0
 19 18  1  0
 19 26  1  0
 19 20  1  0
 21 15  1  0
 21 20  1  0
 22 15  2  0
 23 24  2  0
 24 43  1  0
 25 24  1  0
 25 28  1  0
 26 27  1  0
 26 23  1  0
 27 25  2  0
 28 29  1  0
 29 30  2  0
 31 34  1  0
 31 30  1  0
 32 31  2  0
 33 32  1  0
 33 28  2  0
 34 35  1  0
 35 36  1  0
 36 37  2  0
 38 37  1  0
 38 42  1  0
 39 38  2  0
 40 35  2  0
 40 39  1  0
 41 40  1  0
 43 44  1  0
 44 46  1  0
 44 47  1  0
 45 43  2  0
 48 23  1  0
 48 49  1  0
 50 48  1  0
 51 52  1  0
 54 53  1  0
 55 58  1  0
 55 54  1  0
 56 55  1  0
 57 55  1  0
 59 60  1  0
 59 58  2  0
 61 72  2  0
 62 60  1  0
 62 67  1  0
 63 71  1  0
 63 73  1  0
 64 70  1  0
 64 66  1  0
 65 71  1  0
 66 65  1  0
 67 66  2  0
 68 69  1  0
 68 62  2  0
 69 64  2  0
 70 63  1  0
 71 61  1  0
 73 75  2  0
 74 73  1  0
 76 74  1  0
 77 86  2  0
 77 82  1  0
 78 74  1  0
 78 82  1  0
 79 78  1  0
 80 81  1  0
 80 79  1  0
 81 77  1  0
 82 83  2  0
 83 84  1  0
 85 84  2  0
 86 85  1  0
 87 61  1  0
 87 88  1  0
 87 97  1  0
 88 91  1  0
 89 93  1  0
 89 88  1  0
 90 89  2  0
 93 92  1  0
 95 93  1  0
 95 96  1  0
 95 94  1  0
 97100  1  1
 97 98  1  0
 99 97  1  0
M  ISO  4   2 100  15 100  59 101  60 101
M  END
>  <TORSDO>  (55) 
F 21

>  <SCORE>  (55) 
-4.827

>  <name>  (55) 
54

>  <ligand_id>  (55) 
54

>  <original_smiles>  (55) 
[H]c1c([H])c([H])c2c(c1[H])C([H])([H])C([H])([H])C([H])([H])C2([H])N([H])C(=O)C1([H])N(C(=O)C([H])(N([H])C(=O)C([H])(N([H])C([H])([H])[H])C([H])([H])[H])C(C([H])([H])[H])(C([H])([H])[H])C([H])([H])[H])C([H])([H])c2c([H])c(OC([H])([H])C([H])([H])[N+]([H])([H])C([H])(C([H])([H])[H])C3([H])C([H])([H])c4c(c(C(=O)N5C([H])([H])C([H])([H])C([H])([H])C([H])(n6nc(-c7c([H])c([H])c(Oc8c([H])c([H])c(F)c([H])c8F)c([H])c7[H])c(C(=O)N([H])[H])c6N([H])[H])C5([H])[H])c(C([H])([H])C([H])([H])[H])c(C([H])([H])[H])c4C([H])([H])[H])C(=O)C([H])([H])C3([H])[H])c([H])c([H])c2C1([H])[H]

>  <smiles>  (55) 
[H]c1c([H])c([H])c2c(c1[H])C([H])([H])C([H])([H])C([H])([H])C2([H])N([H])C(=O)C1([H])N(C(=O)C([H])(N([H])C(=O)C([H])(N([H])C([H])([H])[H])C([H])([H])[H])C(C([H])([H])[H])(C([H])([H])[H])C([H])([H])[H])C([H])([H])c2c([H])c(OC([H])([H])C([H])([H])[N+]([H])([H])C([H])(C([H])([H])[H])C3([H])C([H])([H])c4c(c(C(=O)N5C([H])([H])C([H])([H])C([H])([H])C([H])(n6nc(-c7c([H])c([H])c(Oc8c([H])c([H])c(F)c([H])c8F)c([H])c7[H])c(C(=O)N([H])[H])c6N([H])[H])C5([H])[H])c(C([H])([H])C([H])([H])[H])c(C([H])([H])[H])c4C([H])([H])[H])C(=O)C([H])([H])C3([H])[H])c([H])c([H])c2C1([H])[H]

$$$$
55:0:0
     RDKit          3D

 95104  0  0  1  0  0  0  0  0999 V2000
  -33.2620  -21.6320   17.3670 C   0  0  0  0  0  3  0  0  0  0  0  0
  -33.4450  -23.0180   16.7340 C   0  0  0  0  0  3  0  0  0  0  0  0
  -33.7260  -20.2550   16.9800 C   0  0  0  0  0  0  0  0  0  0  0  0
  -34.4380  -20.6900   15.7180 C   0  0  0  0  0  0  0  0  0  0  0  0
  -34.7080  -22.1070   15.1440 C   0  0  0  0  0  0  0  0  0  0  0  0
  -34.2060  -23.4560   15.5320 C   0  0  0  0  0  0  0  0  0  0  0  0
  -35.7280  -22.2440   14.0130 C   0  0  0  0  0  1  0  0  0  0  0  0
  -35.8200  -18.9870   19.6470 C   0  0  0  0  0  2  0  0  0  0  0  0
  -33.7630  -20.3230   20.0320 C   0  0  0  0  0  2  0  0  0  0  0  0
  -35.2500  -18.3070   18.3830 C   0  0  0  0  0  2  0  0  0  0  0  0
  -33.0870  -19.1340   19.3060 C   0  0  0  0  0  2  0  0  0  0  0  0
  -35.2800  -20.4070   19.8030 C   0  0  0  0  0  3  0  0  0  0  0  0
  -33.7580  -18.6290   17.9810 C   0  0  1  0  0  0  0  0  0  0  0  0
  -35.9730  -21.2050   20.9150 C   0  0  0  0  0  1  0  0  0  0  0  0
  -32.7790  -15.7050   17.1440 C   0  0  0  0  0  0  0  0  0  0  0  0
  -32.0560  -13.1320   17.1570 C   0  0  0  0  0  2  0  0  0  0  0  0
  -31.5700  -12.4870   18.4860 C   0  0  0  0  0  2  0  0  0  0  0  0
  -32.7590  -12.0120   19.3340 C   0  0  0  0  0  2  0  0  0  0  0  0
  -33.9060  -13.0480   19.3270 C   0  0  0  0  0  3  0  0  0  0  0  0
  -34.2320  -13.6100   17.9260 C   0  0  0  0  0  2  0  0  0  0  0  0
  -33.0040  -14.2940   17.4530 N   0  0  0  0  0  0  0  0  0  0  0  0
  -32.0740  -15.7490   16.1160 O   0  0  0  0  0  0  0  0  0  0  0  0
  -32.5280  -16.8150   19.3590 C   0  0  0  0  0  1  0  0  0  0  0  0
  -33.0720  -16.9830   18.0140 N   0  0  0  0  0  0  0  0  0  0  0  0
  -35.1670  -12.2800   21.3880 C   0  0  0  0  0  0  0  0  0  0  0  0
  -36.4320  -11.8010   21.5840 C   0  0  0  0  0  0  0  0  0  0  0  0
  -37.0820  -11.8780   20.3140 C   0  0  0  0  0  0  0  0  0  0  0  0
  -35.0890  -12.6060   20.0480 N   0  0  0  0  0  0  0  0  0  0  0  0
  -36.2750  -12.4260   19.4100 N   0  0  0  0  0  0  0  0  0  0  0  0
  -38.4090  -11.4020   19.9000 C   0  0  0  0  0  0  0  0  0  0  0  0
  -38.5660  -10.4560   18.8640 C   0  0  0  0  0  3  0  0  0  0  0  0
  -39.8540  -10.0320   18.4700 C   0  0  0  0  0  3  0  0  0  0  0  0
  -41.0010  -10.5580   19.1130 C   0  0  0  0  0  0  0  0  0  0  0  0
  -40.8370  -11.4810   20.1590 C   0  0  0  0  0  3  0  0  0  0  0  0
  -39.5540  -11.8970   20.5530 C   0  0  0  0  0  3  0  0  0  0  0  0
  -42.2890  -10.1850   18.8180 O   0  0  0  0  0  0  0  0  0  0  0  0
  -42.8170   -9.0010   19.2680 C   0  0  0  0  0  0  0  0  0  0  0  0
  -43.3240   -8.8580   20.5790 C   0  0  0  0  0  3  0  0  0  0  0  0
  -43.7930   -7.6060   21.0190 C   0  0  0  0  0  3  0  0  0  0  0  0
  -43.7520   -6.4940   20.1580 C   0  0  0  0  0  0  0  0  0  0  0  0
  -43.2450   -6.6340   18.8530 C   0  0  0  0  0  3  0  0  0  0  0  0
  -42.7770   -7.8830   18.4120 C   0  0  0  0  0  0  0  0  0  0  0  0
  -42.2690   -8.0070   17.1620 F   0  0  0  0  0  0  0  0  0  0  0  0
  -44.1950   -5.2880   20.5830 F   0  0  0  0  0  0  0  0  0  0  0  0
  -36.9650  -11.2100   22.8550 C   0  0  0  0  0  0  0  0  0  0  0  0
  -37.3720  -12.0540   23.7990 N   0  0  0  0  0  0  0  0  0  0  0  0
  -36.9760   -9.9940   23.0380 O   0  0  0  0  0  0  0  0  0  0  0  0
  -37.3430  -13.0510   23.6560 H   0  0  0  0  0  0  0  0  0  0  0  0
  -37.7190  -11.6970   24.6780 H   0  0  0  0  0  0  0  0  0  0  0  0
  -34.0700  -12.4380   22.2260 N   0  0  0  0  0  0  0  0  0  0  0  0
  -34.0930  -12.1760   23.2060 H   0  0  0  0  0  0  0  0  0  0  0  0
  -33.1720  -12.8040   21.9320 H   0  0  0  0  0  0  0  0  0  0  0  0
  -33.8740  -18.5920   14.3150 C   0  0  0  0  0  1  0  0  0  0  0  0
  -34.9650  -19.5450   14.8390 C   0  0  0  0  0  2  0  0  0  0  0  0
  -34.5140  -24.8320   14.7260 O   0  0  0  0  0  0  0  0  0  0  0  0
  -35.9720  -29.0400    8.3920 C   0  0  0  0  0  0  0  0  0  0  0  0
  -35.4410  -25.4680   13.6650 C   0  0  0  0  0  0  0  0  0  0  0  0
  -37.5790  -27.3060    9.0760 C   0  0  0  0  0  3  0  0  0  0  0  0
  -37.3720  -26.4030   11.5120 C   0  0  0  0  0  0  0  0  0  0  0  0
  -36.1660  -28.4850   10.8890 C   0  0  0  0  0  2  0  0  0  0  0  0
  -36.2620  -27.2070   11.8040 C   0  0  0  0  0  0  0  0  0  0  0  0
  -35.3400  -26.7560   12.8800 C   0  0  0  0  0  3  0  0  0  0  0  0
  -36.6720  -24.8460   13.3340 C   0  0  0  0  0  3  0  0  0  0  0  0
  -37.5780  -25.2630   12.3100 C   0  0  0  0  0  3  0  0  0  0  0  0
  -38.3040  -26.7880   10.3530 C   0  0  0  0  0  2  0  0  0  0  0  0
  -36.5290  -28.3170    9.4250 N   0  0  0  0  0  0  0  0  0  0  0  0
  -36.3110  -28.8620    7.2110 O   0  0  0  0  0  0  0  0  0  0  0  0
  -37.0220  -26.1080    8.2620 C   0  0  0  0  0  0  0  0  0  0  0  0
  -35.7410  -25.7420    8.4720 N   0  0  0  0  0  0  0  0  0  0  0  0
  -37.7380  -25.5330    7.4400 O   0  0  0  0  0  0  0  0  0  0  0  0
  -35.2120  -26.2420    9.1730 H   0  0  0  0  0  0  0  0  0  0  0  0
  -33.1950  -23.1650    8.7570 C   0  0  0  0  0  0  0  0  0  0  0  0
  -35.0240  -24.6900    7.7410 C   0  0  0  0  0  3  0  0  0  0  0  0
  -33.8900  -25.2920    6.8770 C   0  0  0  0  0  2  0  0  0  0  0  0
  -32.5350  -25.3100    7.5900 C   0  0  0  0  0  2  0  0  0  0  0  0
  -32.1110  -23.8910    7.9800 C   0  0  0  0  0  2  0  0  0  0  0  0
  -34.5600  -23.5490    8.6580 C   0  0  0  0  0  0  0  0  0  0  0  0
  -35.5210  -22.8560    9.4280 C   0  0  0  0  0  3  0  0  0  0  0  0
  -35.1380  -21.8010   10.2770 C   0  0  0  0  0  3  0  0  0  0  0  0
  -33.7870  -21.4190   10.3620 C   0  0  0  0  0  3  0  0  0  0  0  0
  -32.8200  -22.0990    9.6010 C   0  0  0  0  0  3  0  0  0  0  0  0
  -34.8900  -30.1320    8.6460 C   0  0  0  0  0  3  0  0  0  0  0  0
  -35.3910  -31.0410    9.6950 N   0  0  0  0  0  0  0  0  0  0  0  0
  -34.7260  -31.3780   10.8070 C   0  0  0  0  0  0  0  0  0  0  0  0
  -33.5800  -30.9860   11.0380 O   0  0  0  0  0  0  0  0  0  0  0  0
  -36.3450  -31.3550    9.5980 H   0  0  0  0  0  0  0  0  0  0  0  0
  -36.8620  -32.6100   11.3340 C   0  0  0  0  0  1  0  0  0  0  0  0
  -35.4390  -32.2950   11.8250 C   0  0  0  0  0  3  0  0  0  0  0  0
  -34.6110  -32.3910   14.1370 C   0  0  0  0  0  1  0  0  0  0  0  0
  -35.5040  -31.7270   13.1900 N   0  0  0  0  0  0  0  0  0  0  0  0
  -36.4500  -31.7800   13.5580 H   0  0  0  0  0  0  0  0  0  0  0  0
  -34.5320  -30.9600    7.3500 C   0  0  1  0  0  0  0  0  0  0  0  0
  -35.7230  -31.7590    6.7690 C   0  0  0  0  0  1  0  0  0  0  0  0
  -34.0030  -30.0370    6.2290 C   0  0  0  0  0  1  0  0  0  0  0  0
  -33.3930  -31.9610    7.6650 C   0  0  0  0  0  1  0  0  0  0  0  0
  2  1  2  0
  3  1  1  0
  3 13  1  0
  4  3  2  0
  5  6  2  0
  5  4  1  0
  6  2  1  0
  7  5  1  0
  8 12  1  0
 10  8  1  0
 11  9  1  0
 12  9  1  0
 12 14  1  0
 13 24  1  6
 13 10  1  0
 13 11  1  0
 15 21  1  0
 15 24  1  0
 16 21  1  0
 16 17  1  0
 17 18  1  0
 19 20  1  0
 19 18  1  0
 19 28  1  0
 21 20  1  0
 22 15  2  0
 24 23  1  0
 25 26  2  0
 25 50  1  0
 26 45  1  0
 27 26  1  0
 28 25  1  0
 29 28  1  0
 29 27  2  0
 30 27  1  0
 30 35  1  0
 31 30  2  0
 32 31  1  0
 32 33  2  0
 33 34  1  0
 34 35  2  0
 36 33  1  0
 36 37  1  0
 37 38  1  0
 38 39  2  0
 40 44  1  0
 40 39  1  0
 41 40  2  0
 42 41  1  0
 42 37  2  0
 43 42  1  0
 45 47  2  0
 45 46  1  0
 46 49  1  0
 48 46  1  0
 50 51  1  0
 52 50  1  0
 53 54  1  0
 54  4  1  0
 55  6  1  0
 56 66  1  0
 57 55  1  0
 58 68  1  0
 58 66  1  0
 58 65  1  0
 59 61  2  0
 59 64  1  0
 60 61  1  0
 61 62  1  0
 62 57  2  0
 63 57  1  0
 64 63  2  0
 65 59  1  0
 66 60  1  0
 67 56  2  0
 68 69  1  0
 69 71  1  0
 70 68  2  0
 72 81  1  0
 73 69  1  0
 73 77  1  0
 74 75  1  0
 74 73  1  0
 75 76  1  0
 76 72  1  0
 77 72  2  0
 77 78  1  0
 78 79  2  0
 79 80  1  0
 81 80  2  0
 82 56  1  0
 82 83  1  0
 83 84  1  0
 84 85  2  0
 84 88  1  0
 86 83  1  0
 88 87  1  0
 88 90  1  0
 90 91  1  0
 90 89  1  0
 92 95  1  1
 92 82  1  0
 93 92  1  0
 94 92  1  0
M  ISO  4   6 101  15 100  24 100  55 101
M  END
>  <TORSDO>  (56) 
F 18

>  <SCORE>  (56) 
-2.451

>  <name>  (56) 
55

>  <ligand_id>  (56) 
55

>  <original_smiles>  (56) 
[H]c1c([H])c([H])c2c(c1[H])C([H])([H])C([H])([H])C([H])([H])C2([H])N([H])C(=O)C1([H])N(C(=O)C([H])(N([H])C(=O)C([H])(N([H])C([H])([H])[H])C([H])([H])[H])C(C([H])([H])[H])(C([H])([H])[H])C([H])([H])[H])C([H])([H])c2c([H])c(Oc3c([H])c([H])c(C4(N(C(=O)N5C([H])([H])C([H])([H])C([H])([H])C([H])(n6nc(-c7c([H])c([H])c(Oc8c([H])c([H])c(F)c([H])c8F)c([H])c7[H])c(C(=O)N([H])[H])c6N([H])[H])C5([H])[H])C([H])([H])[H])C([H])([H])C([H])([H])C([H])(C([H])([H])[H])C([H])([H])C4([H])[H])c(C([H])([H])C([H])([H])[H])c3C([H])([H])[H])c([H])c([H])c2C1([H])[H]

>  <smiles>  (56) 
[H]c1c([H])c([H])c2c(c1[H])C([H])([H])C([H])([H])C([H])([H])C2([H])N([H])C(=O)C1([H])N(C(=O)C([H])(N([H])C(=O)C([H])(N([H])C([H])([H])[H])C([H])([H])[H])C(C([H])([H])[H])(C([H])([H])[H])C([H])([H])[H])C([H])([H])c2c([H])c(Oc3c([H])c([H])c(C4(N(C(=O)N5C([H])([H])C([H])([H])C([H])([H])C([H])(n6nc(-c7c([H])c([H])c(Oc8c([H])c([H])c(F)c([H])c8F)c([H])c7[H])c(C(=O)N([H])[H])c6N([H])[H])C5([H])[H])C([H])([H])[H])C([H])([H])C([H])([H])C([H])(C([H])([H])[H])C([H])([H])C4([H])[H])c(C([H])([H])C([H])([H])[H])c3C([H])([H])[H])c([H])c([H])c2C1([H])[H]

$$$$
56:0:0
     RDKit          3D

 92101  0  0  1  0  0  0  0  0999 V2000
  -28.8650  -22.6420   19.9420 C   0  0  0  0  0  0  0  0  0  0  0  0
  -29.2070  -24.0080   19.8730 C   0  0  0  0  0  3  0  0  0  0  0  0
  -27.4460  -22.1720   19.7220 C   0  0  0  0  0  2  0  0  0  0  0  0
  -27.1280  -21.3590   20.9890 C   0  0  0  0  0  2  0  0  0  0  0  0
  -28.4400  -21.3140   21.8010 C   0  0  0  0  0  2  0  0  0  0  0  0
  -29.5590  -21.4360   20.7550 C   0  0  0  0  0  3  0  0  0  0  0  0
  -29.4400  -19.0850   19.2730 C   0  0  0  0  0  3  0  0  0  0  0  0
  -30.5950  -19.0790   21.3270 C   0  0  0  0  0  3  0  0  0  0  0  0
  -30.4350  -16.8630   20.0990 C   0  0  0  0  0  0  0  0  0  0  0  0
  -29.8850  -19.8770   20.3780 C   0  0  0  0  0  0  0  0  0  0  0  0
  -29.7120  -17.6610   19.1230 C   0  0  0  0  0  0  0  0  0  0  0  0
  -30.8570  -17.6640   21.2140 C   0  0  0  0  0  0  0  0  0  0  0  0
  -29.2140  -17.0450   17.8270 C   0  0  0  0  0  1  0  0  0  0  0  0
  -31.6280  -17.0120   22.3520 C   0  0  0  0  0  1  0  0  0  0  0  0
  -31.0190  -15.3910   19.8660 C   0  0  0  0  0  0  0  0  0  0  0  0
  -30.7470  -13.0410   19.0060 C   0  0  0  0  0  2  0  0  0  0  0  0
  -29.7920  -12.9980   17.7950 C   0  0  0  0  0  2  0  0  0  0  0  0
  -28.3350  -12.8520   18.2690 C   0  0  0  0  0  2  0  0  0  0  0  0
  -27.9810  -13.8140   19.4340 C   0  0  0  0  0  3  0  0  0  0  0  0
  -29.0670  -13.8620   20.5270 C   0  0  0  0  0  2  0  0  0  0  0  0
  -30.3370  -14.1830   19.8720 N   0  0  0  0  0  0  0  0  0  0  0  0
  -32.2010  -15.3570   19.5120 O   0  0  0  0  0  0  0  0  0  0  0  0
  -25.6610  -14.4410   20.3120 C   0  0  0  0  0  0  0  0  0  0  0  0
  -24.5870  -13.6850   20.6950 C   0  0  0  0  0  0  0  0  0  0  0  0
  -25.0020  -12.3230   20.5880 C   0  0  0  0  0  0  0  0  0  0  0  0
  -26.6600  -13.5400   19.9860 N   0  0  0  0  0  0  0  0  0  0  0  0
  -26.2770  -12.2580   20.2200 N   0  0  0  0  0  0  0  0  0  0  0  0
  -24.2420  -11.0770   20.7570 C   0  0  0  0  0  0  0  0  0  0  0  0
  -24.6510  -10.0760   21.6650 C   0  0  0  0  0  3  0  0  0  0  0  0
  -23.8900   -8.8970   21.8230 C   0  0  0  0  0  3  0  0  0  0  0  0
  -22.7040   -8.7110   21.0730 C   0  0  0  0  0  0  0  0  0  0  0  0
  -22.3140   -9.7010   20.1540 C   0  0  0  0  0  3  0  0  0  0  0  0
  -23.0760  -10.8710   19.9940 C   0  0  0  0  0  3  0  0  0  0  0  0
  -21.9160   -7.5880   21.1420 O   0  0  0  0  0  0  0  0  0  0  0  0
  -21.7930   -6.8670   22.3020 C   0  0  0  0  0  0  0  0  0  0  0  0
  -21.2890   -7.4430   23.4880 C   0  0  0  0  0  3  0  0  0  0  0  0
  -21.1110   -6.6470   24.6370 C   0  0  0  0  0  3  0  0  0  0  0  0
  -21.4290   -5.2760   24.6010 C   0  0  0  0  0  0  0  0  0  0  0  0
  -21.9260   -4.6990   23.4190 C   0  0  0  0  0  3  0  0  0  0  0  0
  -22.1040   -5.4930   22.2720 C   0  0  0  0  0  0  0  0  0  0  0  0
  -22.5630   -4.9270   21.1300 F   0  0  0  0  0  0  0  0  0  0  0  0
  -21.2530   -4.5090   25.7020 F   0  0  0  0  0  0  0  0  0  0  0  0
  -23.2210  -14.1960   21.0490 C   0  0  0  0  0  0  0  0  0  0  0  0
  -22.5170  -13.5020   21.9350 N   0  0  0  0  0  0  0  0  0  0  0  0
  -22.7880  -15.2460   20.5740 O   0  0  0  0  0  0  0  0  0  0  0  0
  -22.8790  -12.6510   22.3390 H   0  0  0  0  0  0  0  0  0  0  0  0
  -21.6030  -13.8280   22.2180 H   0  0  0  0  0  0  0  0  0  0  0  0
  -25.8660  -15.8120   20.1890 N   0  0  0  0  0  0  0  0  0  0  0  0
  -25.1360  -16.4870   20.3860 H   0  0  0  0  0  0  0  0  0  0  0  0
  -26.7370  -16.2420   19.9020 H   0  0  0  0  0  0  0  0  0  0  0  0
  -28.3010  -25.2690   19.4130 C   0  0  0  0  0  2  0  0  0  0  0  0
  -28.5350  -26.7340   19.8080 O   0  0  0  0  0  0  0  0  0  0  0  0
  -24.6300  -31.9140   23.2020 C   0  0  0  0  0  0  0  0  0  0  0  0
  -27.4290  -27.6460   19.7950 C   0  0  0  0  0  0  0  0  0  0  0  0
  -23.4850  -30.5730   21.4800 C   0  0  0  0  0  3  0  0  0  0  0  0
  -24.9980  -29.2140   19.9190 C   0  0  0  0  0  0  0  0  0  0  0  0
  -26.0120  -31.0190   21.3000 C   0  0  0  0  0  2  0  0  0  0  0  0
  -26.1570  -29.6910   20.5450 C   0  0  0  0  0  0  0  0  0  0  0  0
  -27.3730  -28.9230   20.4720 C   0  0  0  0  0  3  0  0  0  0  0  0
  -26.2420  -27.2740   19.1200 C   0  0  0  0  0  3  0  0  0  0  0  0
  -25.0510  -28.0180   19.1920 C   0  0  0  0  0  3  0  0  0  0  0  0
  -23.7180  -30.0210   20.0490 C   0  0  0  0  0  2  0  0  0  0  0  0
  -24.7280  -31.1860   22.0500 N   0  0  0  0  0  0  0  0  0  0  0  0
  -23.5380  -32.0910   23.7650 O   0  0  0  0  0  0  0  0  0  0  0  0
  -22.8900  -29.4530   22.3700 C   0  0  0  0  0  0  0  0  0  0  0  0
  -21.5790  -29.1930   22.2310 N   0  0  0  0  0  0  0  0  0  0  0  0
  -23.6100  -28.8240   23.1490 O   0  0  0  0  0  0  0  0  0  0  0  0
  -21.0490  -29.7600   21.5830 H   0  0  0  0  0  0  0  0  0  0  0  0
  -18.3010  -27.7040   22.6290 C   0  0  0  0  0  0  0  0  0  0  0  0
  -20.8290  -28.1510   22.9350 C   0  0  0  0  0  3  0  0  0  0  0  0
  -21.0460  -26.7670   22.2790 C   0  0  0  0  0  2  0  0  0  0  0  0
  -19.9790  -26.4190   21.2370 C   0  0  0  0  0  2  0  0  0  0  0  0
  -18.5890  -26.4140   21.8790 C   0  0  0  0  0  2  0  0  0  0  0  0
  -19.3540  -28.5280   23.1100 C   0  0  0  0  0  0  0  0  0  0  0  0
  -19.0320  -29.7330   23.7710 C   0  0  0  0  0  3  0  0  0  0  0  0
  -17.6900  -30.1190   23.9530 C   0  0  0  0  0  3  0  0  0  0  0  0
  -16.6530  -29.2940   23.4860 C   0  0  0  0  0  3  0  0  0  0  0  0
  -16.9590  -28.0870   22.8300 C   0  0  0  0  0  3  0  0  0  0  0  0
  -25.8800  -32.5760   23.8550 C   0  0  0  0  0  3  0  0  0  0  0  0
  -25.5350  -33.9730   24.1600 N   0  0  0  0  0  0  0  0  0  0  0  0
  -25.8420  -35.0220   23.3850 C   0  0  0  0  0  0  0  0  0  0  0  0
  -26.5130  -34.9170   22.3550 O   0  0  0  0  0  0  0  0  0  0  0  0
  -24.9380  -34.1280   24.9590 H   0  0  0  0  0  0  0  0  0  0  0  0
  -24.0660  -36.7670   23.0160 C   0  0  0  0  0  1  0  0  0  0  0  0
  -25.3250  -36.4070   23.8220 C   0  0  0  0  0  3  0  0  0  0  0  0
  -27.4360  -37.3700   24.6230 C   0  0  0  0  0  1  0  0  0  0  0  0
  -26.3280  -37.4830   23.6790 N   0  0  0  0  0  0  0  0  0  0  0  0
  -25.8990  -38.3960   23.8010 H   0  0  0  0  0  0  0  0  0  0  0  0
  -26.3670  -31.8310   25.1600 C   0  0  1  0  0  0  0  0  0  0  0  0
  -25.2430  -31.5870   26.1930 C   0  0  0  0  0  1  0  0  0  0  0  0
  -26.9890  -30.4590   24.8110 C   0  0  0  0  0  1  0  0  0  0  0  0
  -27.4780  -32.6560   25.8510 C   0  0  0  0  0  1  0  0  0  0  0  0
  1  6  1  0
  2  1  2  0
  3  1  1  0
  3  4  1  0
  4  5  1  0
  6 10  1  0
  6  5  1  0
  7 10  1  0
  9 12  2  0
 10  8  2  0
 11  7  2  0
 11  9  1  0
 12  8  1  0
 12 14  1  0
 13 11  1  0
 15 21  1  0
 15  9  1  0
 16 21  1  0
 17 18  1  0
 17 16  1  0
 19 18  1  0
 19 26  1  0
 19 20  1  0
 21 20  1  0
 22 15  2  0
 23 24  2  0
 24 43  1  0
 25 24  1  0
 25 28  1  0
 26 27  1  0
 26 23  1  0
 27 25  2  0
 28 29  1  0
 29 30  2  0
 31 34  1  0
 31 30  1  0
 32 31  2  0
 33 32  1  0
 33 28  2  0
 34 35  1  0
 35 36  1  0
 36 37  2  0
 38 37  1  0
 38 42  1  0
 39 38  2  0
 40 35  2  0
 40 39  1  0
 41 40  1  0
 43 44  1  0
 44 47  1  0
 44 46  1  0
 45 43  2  0
 48 23  1  0
 48 49  1  0
 50 48  1  0
 51 52  1  0
 51  2  1  0
 53 64  2  0
 54 52  1  0
 54 59  1  0
 55 63  1  0
 55 65  1  0
 56 62  1  0
 56 58  1  0
 57 63  1  0
 58 57  1  0
 59 58  2  0
 60 61  1  0
 60 54  2  0
 61 56  2  0
 62 55  1  0
 63 53  1  0
 65 67  2  0
 66 65  1  0
 68 66  1  0
 69 78  2  0
 69 74  1  0
 70 66  1  0
 70 74  1  0
 71 70  1  0
 72 73  1  0
 72 71  1  0
 73 69  1  0
 74 75  2  0
 75 76  1  0
 77 76  2  0
 78 77  1  0
 79 53  1  0
 79 80  1  0
 79 89  1  0
 80 83  1  0
 81 85  1  0
 81 80  1  0
 82 81  2  0
 85 84  1  0
 87 88  1  0
 87 85  1  0
 87 86  1  0
 89 92  1  1
 89 90  1  0
 91 89  1  0
M  ISO  4   9 100  15 100  51 101  52 101
M  END
>  <TORSDO>  (57) 
F 18

>  <SCORE>  (57) 
-11.224

>  <name>  (57) 
56

>  <ligand_id>  (57) 
56

>  <original_smiles>  (57) 
[H]C(=C1C([H])([H])C([H])([H])C([H])([H])C1([H])c1c([H])c(C([H])([H])[H])c(C(=O)N2C([H])([H])C([H])([H])C([H])([H])C([H])(n3nc(-c4c([H])c([H])c(Oc5c([H])c([H])c(F)c([H])c5F)c([H])c4[H])c(C(=O)N([H])[H])c3N([H])[H])C2([H])[H])c(C([H])([H])[H])c1[H])C([H])([H])Oc1c([H])c([H])c2c(c1[H])C([H])([H])N(C(=O)C([H])(N([H])C(=O)C([H])(N([H])C([H])([H])[H])C([H])([H])[H])C(C([H])([H])[H])(C([H])([H])[H])C([H])([H])[H])C([H])(C(=O)N([H])C1([H])c3c([H])c([H])c([H])c([H])c3C([H])([H])C([H])([H])C1([H])[H])C2([H])[H]

>  <smiles>  (57) 
[H]C(=C1C([H])([H])C([H])([H])C([H])([H])C1([H])c1c([H])c(C([H])([H])[H])c(C(=O)N2C([H])([H])C([H])([H])C([H])([H])C([H])(n3nc(-c4c([H])c([H])c(Oc5c([H])c([H])c(F)c([H])c5F)c([H])c4[H])c(C(=O)N([H])[H])c3N([H])[H])C2([H])[H])c(C([H])([H])[H])c1[H])C([H])([H])Oc1c([H])c([H])c2c(c1[H])C([H])([H])N(C(=O)C([H])(N([H])C(=O)C([H])(N([H])C([H])([H])[H])C([H])([H])[H])C(C([H])([H])[H])(C([H])([H])[H])C([H])([H])[H])C([H])(C(=O)N([H])C1([H])c3c([H])c([H])c([H])c([H])c3C([H])([H])C([H])([H])C1([H])[H])C2([H])[H]

$$$$
57:0:0
     RDKit          3D

 95104  0  0  1  0  0  0  0  0999 V2000
  -23.7880  -25.6170   20.9120 C   0  0  0  0  0  2  0  0  0  0  0  0
  -22.7500  -27.9560   23.3880 C   0  0  0  0  0 15  0  0  0  0  0  0
  -22.8790  -26.9070   20.3720 C   0  0  2  0  0  0  0  0  0  0  0  0
  -24.4640  -25.0670   22.2350 C   0  0  0  0  0  2  0  0  0  0  0  0
  -22.0930  -28.2590   21.3990 C   0  0  0  0  0  2  0  0  0  0  0  0
  -23.8690  -26.3250   23.4670 C   0  0  0  0  0  3  0  0  0  0  0  0
  -21.8730  -27.4650   19.2690 C   0  0  0  0  0  3  0  0  0  0  0  0
  -23.6020  -27.1030   19.1350 C   0  0  0  0  0  3  0  0  0  0  0  0
  -20.7710  -27.7020   20.7250 C   0  0  0  0  0  3  0  0  0  0  0  0
  -24.4600  -26.0940   24.8390 C   0  0  0  0  0  1  0  0  0  0  0  0
  -20.1480  -29.0620   20.1170 C   0  0  0  0  0  1  0  0  0  0  0  0
  -19.4720  -25.8960   22.4310 C   0  0  0  0  0  3  0  0  0  0  0  0
  -27.3100  -22.0120   22.1600 C   0  0  0  0  0  3  0  0  0  0  0  0
  -26.0380  -21.4440   21.0350 C   0  0  0  0  0  3  0  0  0  0  0  0
  -25.8040  -23.2250   21.8170 C   0  0  0  0  0  2  0  0  0  0  0  0
  -27.7480  -20.5310   20.9810 C   0  0  0  0  0  2  0  0  0  0  0  0
  -29.9540  -17.2510   20.2910 C   0  0  0  0  0  0  0  0  0  0  0  0
  -31.0260  -14.6740   19.2390 C   0  0  0  0  0  2  0  0  0  0  0  0
  -30.4510  -13.7270   18.0780 C   0  0  0  0  0  2  0  0  0  0  0  0
  -29.1740  -13.0020   18.5050 C   0  0  0  0  0  2  0  0  0  0  0  0
  -28.4420  -13.9690   19.4420 C   0  0  0  0  0  3  0  0  0  0  0  0
  -29.2550  -14.5600   20.6140 C   0  0  0  0  0  2  0  0  0  0  0  0
  -30.0110  -15.6840   20.0350 N   0  0  0  0  0  0  0  0  0  0  0  0
  -31.2000  -17.3420   19.9580 O   0  0  0  0  0  0  0  0  0  0  0  0
  -28.7720  -18.5990   20.7380 N   0  0  0  0  0  2  0  0  0  0  0  0
  -29.6340  -19.1030   20.8980 H   0  0  0  0  0  0  0  0  0  0  0  0
  -26.1750  -14.3590   20.3300 C   0  0  0  0  0  0  0  0  0  0  0  0
  -25.1830  -13.5280   20.7370 C   0  0  0  0  0  0  0  0  0  0  0  0
  -25.6900  -12.1980   20.5910 C   0  0  0  0  0  0  0  0  0  0  0  0
  -27.1950  -13.5240   19.9470 N   0  0  0  0  0  0  0  0  0  0  0  0
  -26.9470  -12.2150   20.1690 N   0  0  0  0  0  0  0  0  0  0  0  0
  -25.0210  -10.9110   20.7620 C   0  0  0  0  0  0  0  0  0  0  0  0
  -25.4080  -10.0010   21.7680 C   0  0  0  0  0  3  0  0  0  0  0  0
  -24.7220   -8.7770   21.9210 C   0  0  0  0  0  3  0  0  0  0  0  0
  -23.6400   -8.4620   21.0650 C   0  0  0  0  0  0  0  0  0  0  0  0
  -23.2780   -9.3620   20.0480 C   0  0  0  0  0  3  0  0  0  0  0  0
  -23.9650  -10.5760   19.8940 C   0  0  0  0  0  3  0  0  0  0  0  0
  -22.9290   -7.2890   21.1230 O   0  0  0  0  0  0  0  0  0  0  0  0
  -22.5350   -6.7480   22.3190 C   0  0  0  0  0  0  0  0  0  0  0  0
  -21.7860   -7.4860   23.2620 C   0  0  0  0  0  3  0  0  0  0  0  0
  -21.3430   -6.8660   24.4470 C   0  0  0  0  0  3  0  0  0  0  0  0
  -21.6390   -5.5110   24.6870 C   0  0  0  0  0  0  0  0  0  0  0  0
  -22.3800   -4.7750   23.7470 C   0  0  0  0  0  3  0  0  0  0  0  0
  -22.8250   -5.3910   22.5650 C   0  0  0  0  0  0  0  0  0  0  0  0
  -23.5220   -4.6720   21.6520 F   0  0  0  0  0  0  0  0  0  0  0  0
  -21.2050   -4.9130   25.8210 F   0  0  0  0  0  0  0  0  0  0  0  0
  -23.8110  -13.9580   21.1390 C   0  0  0  0  0  0  0  0  0  0  0  0
  -23.1840  -13.2220   22.0470 N   0  0  0  0  0  0  0  0  0  0  0  0
  -23.3110  -14.9870   20.6850 O   0  0  0  0  0  0  0  0  0  0  0  0
  -23.6120  -12.3940   22.4340 H   0  0  0  0  0  0  0  0  0  0  0  0
  -22.2630  -13.4920   22.3650 H   0  0  0  0  0  0  0  0  0  0  0  0
  -26.2950  -15.7450   20.2370 N   0  0  0  0  0  0  0  0  0  0  0  0
  -25.5260  -16.3660   20.4660 H   0  0  0  0  0  0  0  0  0  0  0  0
  -27.0990  -16.2330   19.8650 H   0  0  0  0  0  0  0  0  0  0  0  0
  -25.3360  -27.2260   19.5630 O   0  0  0  0  0  0  0  0  0  0  0  0
  -24.7940  -31.9250   22.8690 C   0  0  0  0  0  0  0  0  0  0  0  0
  -26.4840  -27.8490   18.9950 C   0  0  0  0  0  3  0  0  0  0  0  0
  -23.8210  -30.2200   21.3670 C   0  0  0  0  0  3  0  0  0  0  0  0
  -24.8640  -29.8560   19.1290 C   0  0  0  0  0  3  0  0  0  0  0  0
  -26.0710  -31.1640   20.8580 C   0  0  0  0  0  2  0  0  0  0  0  0
  -26.0400  -30.0210   19.8530 C   0  0  0  0  0  3  0  0  0  0  0  0
  -26.9790  -28.9810   19.7250 C   0  0  0  0  0  2  0  0  0  0  0  0
  -25.9310  -28.1400   17.7860 C   0  0  0  0  0  2  0  0  0  0  0  0
  -24.8910  -29.0760   17.9480 C   0  0  0  0  0  2  0  0  0  0  0  0
  -23.6320  -30.3220   19.8140 C   0  0  0  0  0  2  0  0  0  0  0  0
  -24.8500  -31.2300   21.6990 N   0  0  0  0  0  0  0  0  0  0  0  0
  -23.7450  -32.0320   23.5250 O   0  0  0  0  0  0  0  0  0  0  0  0
  -24.4140  -28.9110   22.1440 C   0  0  0  0  0  0  0  0  0  0  0  0
  -24.1300  -27.4610   22.0960 N   0  0  0  0  0  0  0  0  0  0  0  0
  -24.8180  -29.1950   23.2390 O   0  0  0  0  0  0  0  0  0  0  0  0
  -24.3610  -27.0760   21.1840 H   0  0  0  0  0  0  0  0  0  0  0  0
  -18.5800  -28.0610   22.8350 C   0  0  0  0  0  3  0  0  0  0  0  0
  -21.6130  -26.1690   23.0610 C   0  0  0  0  0  1  0  0  0  0  0  0
  -20.7180  -24.9710   21.7980 C   0  0  0  0  0  3  0  0  0  0  0  0
  -19.0690  -25.4920   21.0520 C   0  0  0  0  0  3  0  0  0  0  0  0
  -18.0660  -26.9050   21.6560 C   0  0  0  0  0  3  0  0  0  0  0  0
  -20.0820  -28.0610   23.4900 C   0  0  0  0  0  2  0  0  0  0  0  0
  -20.0670  -29.5280   23.8600 C   0  0  0  0  0  3  0  0  0  0  0  0
  -18.9340  -30.4750   23.9520 C   0  0  0  0  0  3  0  0  0  0  0  0
  -17.5900  -30.1290   23.7150 C   0  0  0  0  0  2  0  0  0  0  0  0
  -17.4430  -28.8800   23.1440 C   0  0  0  0  0  2  0  0  0  0  0  0
  -26.0900  -32.5520   23.4500 C   0  0  0  0  0  3  0  0  0  0  0  0
  -26.7700  -31.6800   24.5830 C   0  0  1  0  0  0  0  0  0  0  0  0
  -25.7970  -31.2410   25.7040 C   0  0  0  0  0  1  0  0  0  0  0  0
  -27.4710  -30.4220   24.0100 C   0  0  0  0  0  1  0  0  0  0  0  0
  -27.9010  -32.4990   25.2450 C   0  0  0  0  0  1  0  0  0  0  0  0
  -25.7330  -33.8750   23.9660 N   0  0  0  0  0  0  0  0  0  0  0  0
  -25.9810  -35.0210   23.3270 C   0  0  0  0  0  0  0  0  0  0  0  0
  -26.6020  -35.0730   22.2620 O   0  0  0  0  0  0  0  0  0  0  0  0
  -25.1780  -33.9000   24.8090 H   0  0  0  0  0  0  0  0  0  0  0  0
  -24.1920  -36.7850   23.2510 C   0  0  0  0  0  1  0  0  0  0  0  0
  -25.4630  -36.3160   23.9770 C   0  0  0  0  0  3  0  0  0  0  0  0
  -27.5960  -37.1330   24.8740 C   0  0  0  0  0  1  0  0  0  0  0  0
  -26.4650  -37.4020   23.9910 N   0  0  0  0  0  0  0  0  0  0  0  0
  -26.0410  -38.2800   24.2780 H   0  0  0  0  0  0  0  0  0  0  0  0
  1  4  1  0
  3  1  1  1
  3  5  1  0
  4  6  1  0
  6 10  1  0
  7  3  1  0
  7  9  1  0
  8  7  1  0
  8 55  1  0
  8  3  1  0
  9  5  1  0
 11  9  1  0
 14 15  1  0
 14 13  1  0
 15 13  1  0
 16 14  1  0
 16 13  1  0
 17 25  1  0
 18 23  1  0
 19 20  1  0
 19 18  1  0
 20 21  1  0
 21 30  1  0
 21 22  1  0
 23 17  1  0
 23 22  1  0
 24 17  2  0
 25 26  1  0
 27 28  2  0
 28 47  1  0
 29 28  1  0
 29 32  1  0
 30 31  1  0
 30 27  1  0
 31 29  2  0
 32 33  1  0
 33 34  2  0
 35 38  1  0
 35 34  1  0
 36 35  2  0
 37 36  1  0
 37 32  2  0
 38 39  1  0
 39 44  2  0
 39 40  1  0
 40 41  2  0
 41 42  1  0
 42 46  1  0
 43 42  2  0
 44 43  1  0
 45 44  1  0
 47 48  1  0
 48 51  1  0
 48 50  1  0
 49 47  2  0
 52 27  1  0
 52 53  1  0
 54 52  1  0
 56 82  1  0
 56 67  2  0
 57 55  1  0
 57 62  1  0
 58 66  1  0
 58 68  1  0
 59 65  1  0
 59 61  1  0
 60 66  1  0
 61 60  1  0
 62 61  1  0
 63 64  1  0
 63 57  1  0
 64 59  1  0
 65 58  1  0
 66 56  1  0
 68 70  2  0
 69 68  1  0
 69  6  1  0
 71 69  1  0
 72 81  1  0
 72 77  1  0
 74 12  1  0
 74 73  1  0
 75 76  1  0
 75 74  1  0
 75 12  1  0
 76 12  1  0
 76 72  1  0
 77 78  1  0
 78 79  2  0
 80 79  1  0
 81 80  1  0
 82 87  1  0
 82 83  1  0
 83 86  1  1
 83 84  1  0
 85 83  1  0
 87 90  1  0
 88 87  1  0
 88 92  1  0
 89 88  2  0
 91 92  1  0
 92 94  1  0
 94 95  1  0
 94 93  1  0
M  ISO  4   8 101  17 100  25 100  55 101
M  END
>  <TORSDO>  (58) 
F 17

>  <SCORE>  (58) 
-5.518

>  <name>  (58) 
57

>  <ligand_id>  (58) 
57

>  <original_smiles>  (58) 
[H]c1c([H])c([H])c2c(c1[H])C([H])([H])C([H])([H])C([H])([H])C2([H])N([H])C(=O)C1([H])N(C(=O)C([H])(N([H])C(=O)C([H])(N([H])C([H])([H])[H])C([H])([H])[H])C(C([H])([H])[H])(C([H])([H])[H])C([H])([H])[H])C([H])([H])c2c([H])c(OC3([H])c4c([H])c(C5([H])C([H])([H])C([H])(N([H])C(=O)N6C([H])([H])C([H])([H])C([H])([H])C([H])(n7nc(-c8c([H])c([H])c(Oc9c([H])c([H])c(F)c([H])c9F)c([H])c8[H])c(C(=O)N([H])[H])c7N([H])[H])C6([H])[H])C5([H])[H])c(C([H])([H])[H])c([H])c4C(C([H])([H])[H])(C([H])([H])[H])C3([H])[H])c([H])c([H])c2C1([H])[H]

>  <smiles>  (58) 
[H]c1c([H])c([H])c2c(c1[H])C([H])([H])C([H])([H])C([H])([H])C2([H])N([H])C(=O)C1([H])N(C(=O)C([H])(N([H])C(=O)C([H])(N([H])C([H])([H])[H])C([H])([H])[H])C(C([H])([H])[H])(C([H])([H])[H])C([H])([H])[H])C([H])([H])c2c([H])c(OC3([H])c4c([H])c(C5([H])C([H])([H])C([H])(N([H])C(=O)N6C([H])([H])C([H])([H])C([H])([H])C([H])(n7nc(-c8c([H])c([H])c(Oc9c([H])c([H])c(F)c([H])c9F)c([H])c8[H])c(C(=O)N([H])[H])c7N([H])[H])C6([H])[H])C5([H])[H])c(C([H])([H])[H])c([H])c4C(C([H])([H])[H])(C([H])([H])[H])C3([H])[H])c([H])c([H])c2C1([H])[H]

$$$$
58:0:0
     RDKit          3D

 95102  0  0  1  0  0  0  0  0999 V2000
  -29.9370  -16.2750   19.6730 C   0  0  0  0  0  0  0  0  0  0  0  0
  -30.2880  -13.5910   19.1160 C   0  0  0  0  0  2  0  0  0  0  0  0
  -29.4710  -12.7700   18.0650 C   0  0  0  0  0  2  0  0  0  0  0  0
  -28.1490  -12.2680   18.6530 C   0  0  0  0  0  2  0  0  0  0  0  0
  -27.5200  -13.3550   19.5440 C   0  0  0  0  0  3  0  0  0  0  0  0
  -28.5110  -14.0600   20.5170 C   0  0  0  0  0  2  0  0  0  0  0  0
  -29.5020  -14.8230   19.6850 N   0  0  0  0  0  0  0  0  0  0  0  0
  -31.1850  -16.1300   19.5980 O   0  0  0  0  0  0  0  0  0  0  0  0
  -31.5120  -22.7310   18.8840 C   0  0  0  0  0  3  0  0  0  0  0  0
  -30.1180  -22.5310   18.8420 C   0  0  0  0  0  0  0  0  0  0  0  0
  -29.2370  -23.4720   19.4540 C   0  0  0  0  0  0  0  0  0  0  0  0
  -29.7900  -24.5120   20.2570 C   0  0  0  0  0  0  0  0  0  0  0  0
  -31.2010  -24.6780   20.3180 C   0  0  0  0  0  0  0  0  0  0  0  0
  -32.0490  -23.8050   19.6070 C   0  0  0  0  0  0  0  0  0  0  0  0
  -30.4730  -19.9720   18.3530 C   0  0  0  0  0  2  0  0  0  0  0  0
  -29.9230  -18.4730   18.1500 C   0  0  0  0  0  2  0  0  0  0  0  0
  -28.4430  -19.3710   19.7670 C   0  0  0  0  0  1  0  0  0  0  0  0
  -27.7220  -23.2800   19.2230 C   0  0  0  0  0  1  0  0  0  0  0  0
  -28.1460  -21.2250   18.9440 C   0  0  0  0  0  1  0  0  0  0  0  0
  -29.5180  -21.2690   18.2290 C   0  0  1  0  0  0  0  0  0  0  0  0
  -28.9000  -25.4360   21.0850 C   0  0  0  0  0  1  0  0  0  0  0  0
  -31.8250  -25.7820   21.1600 C   0  0  0  0  0  1  0  0  0  0  0  0
  -29.2660  -17.7660   19.3080 N   0  0  0  0  0  0  0  0  0  0  0  0
  -33.3950  -23.9650   19.6530 F   0  0  0  0  0  0  0  0  0  0  0  0
  -25.2300  -13.7730   20.5260 C   0  0  0  0  0  0  0  0  0  0  0  0
  -24.2160  -12.9540   20.9290 C   0  0  0  0  0  0  0  0  0  0  0  0
  -24.7070  -11.6170   20.7950 C   0  0  0  0  0  0  0  0  0  0  0  0
  -26.2690  -12.9410   20.1650 N   0  0  0  0  0  0  0  0  0  0  0  0
  -25.9760  -11.6310   20.3880 N   0  0  0  0  0  0  0  0  0  0  0  0
  -24.0140  -10.3320   20.9780 C   0  0  0  0  0  0  0  0  0  0  0  0
  -24.4730   -9.3670   21.9010 C   0  0  0  0  0  3  0  0  0  0  0  0
  -23.7730   -8.1530   22.0770 C   0  0  0  0  0  3  0  0  0  0  0  0
  -22.5990   -7.8950   21.3300 C   0  0  0  0  0  0  0  0  0  0  0  0
  -22.1590   -8.8490   20.3960 C   0  0  0  0  0  3  0  0  0  0  0  0
  -22.8590  -10.0540   20.2190 C   0  0  0  0  0  3  0  0  0  0  0  0
  -21.8680   -6.7330   21.4160 O   0  0  0  0  0  0  0  0  0  0  0  0
  -21.7740   -6.0260   22.5880 C   0  0  0  0  0  0  0  0  0  0  0  0
  -21.1950   -6.5830   23.7490 C   0  0  0  0  0  3  0  0  0  0  0  0
  -21.0570   -5.7990   24.9120 C   0  0  0  0  0  3  0  0  0  0  0  0
  -21.4850   -4.4570   24.9130 C   0  0  0  0  0  0  0  0  0  0  0  0
  -22.0540   -3.9000   23.7550 C   0  0  0  0  0  3  0  0  0  0  0  0
  -22.1970   -4.6820   22.5950 C   0  0  0  0  0  0  0  0  0  0  0  0
  -22.7280   -4.1320   21.4760 F   0  0  0  0  0  0  0  0  0  0  0  0
  -21.3440   -3.7010   26.0260 F   0  0  0  0  0  0  0  0  0  0  0  0
  -22.8340  -13.3890   21.3140 C   0  0  0  0  0  0  0  0  0  0  0  0
  -22.1930  -12.6600   22.2200 N   0  0  0  0  0  0  0  0  0  0  0  0
  -22.3350  -14.4120   20.8470 O   0  0  0  0  0  0  0  0  0  0  0  0
  -22.6150  -11.8350   22.6190 H   0  0  0  0  0  0  0  0  0  0  0  0
  -21.2680  -12.9330   22.5220 H   0  0  0  0  0  0  0  0  0  0  0  0
  -25.3490  -15.1530   20.3980 N   0  0  0  0  0  0  0  0  0  0  0  0
  -24.5810  -15.7870   20.5950 H   0  0  0  0  0  0  0  0  0  0  0  0
  -26.1680  -15.6240   20.0320 H   0  0  0  0  0  0  0  0  0  0  0  0
  -29.3150  -21.4390   16.8390 O   0  0  0  0  0  0  0  0  0  0  0  0
  -28.8320  -22.2480   16.7130 H   0  0  0  0  0  0  0  0  0  0  0  0
  -27.2960  -25.1170   18.8170 O   0  0  0  0  0  1  0  0  0  0  0  0
  -24.7790  -31.6610   22.8130 C   0  0  0  0  0  0  0  0  0  0  0  0
  -26.4150  -26.4640   19.1130 C   0  0  0  0  0  0  0  0  0  0  0  0
  -23.2670  -30.4760   21.2850 C   0  0  0  0  0  3  0  0  0  0  0  0
  -24.3570  -28.8040   19.5640 C   0  0  0  0  0  0  0  0  0  0  0  0
  -25.8120  -30.3840   20.7930 C   0  0  0  0  0  2  0  0  0  0  0  0
  -25.6630  -28.9810   20.0330 C   0  0  0  0  0  0  0  0  0  0  0  0
  -26.6590  -27.8570   19.7650 C   0  0  0  0  0  3  0  0  0  0  0  0
  -25.0770  -26.5740   18.6190 C   0  0  0  0  0  3  0  0  0  0  0  0
  -24.1170  -27.6290   18.8250 C   0  0  0  0  0  3  0  0  0  0  0  0
  -23.2580  -29.8570   19.8530 C   0  0  0  0  0  2  0  0  0  0  0  0
  -24.6570  -30.8740   21.6800 N   0  0  0  0  0  0  0  0  0  0  0  0
  -23.7940  -31.9990   23.4950 O   0  0  0  0  0  0  0  0  0  0  0  0
  -22.6090  -29.4940   22.2940 C   0  0  0  0  0  0  0  0  0  0  0  0
  -21.2680  -29.3570   22.2800 N   0  0  0  0  0  0  0  0  0  0  0  0
  -23.3220  -28.8500   23.0660 O   0  0  0  0  0  0  0  0  0  0  0  0
  -20.7370  -29.9290   21.6390 H   0  0  0  0  0  0  0  0  0  0  0  0
  -17.9600  -27.9630   22.8880 C   0  0  0  0  0  0  0  0  0  0  0  0
  -20.5030  -28.4000   23.0940 C   0  0  0  0  0  3  0  0  0  0  0  0
  -20.6810  -26.9570   22.5640 C   0  0  0  0  0  2  0  0  0  0  0  0
  -19.5880  -26.5390   21.5760 C   0  0  0  0  0  2  0  0  0  0  0  0
  -18.2100  -26.6120   22.2400 C   0  0  0  0  0  2  0  0  0  0  0  0
  -19.0350  -28.8100   23.2740 C   0  0  0  0  0  0  0  0  0  0  0  0
  -18.7420  -30.0650   23.8480 C   0  0  0  0  0  3  0  0  0  0  0  0
  -17.4100  -30.4800   24.0350 C   0  0  0  0  0  3  0  0  0  0  0  0
  -16.3500  -29.6340   23.6610 C   0  0  0  0  0  3  0  0  0  0  0  0
  -16.6280  -28.3770   23.0950 C   0  0  0  0  0  3  0  0  0  0  0  0
  -26.1600  -32.1870   23.3130 C   0  0  0  0  0  3  0  0  0  0  0  0
  -25.9600  -33.5120   23.9390 N   0  0  0  0  0  0  0  0  0  0  0  0
  -26.3490  -34.6860   23.4200 C   0  0  0  0  0  0  0  0  0  0  0  0
  -26.9630  -34.7640   22.3540 O   0  0  0  0  0  0  0  0  0  0  0  0
  -25.4100  -33.5280   24.7850 H   0  0  0  0  0  0  0  0  0  0  0  0
  -24.7900  -36.6640   23.5660 C   0  0  0  0  0  1  0  0  0  0  0  0
  -26.0090  -35.9760   24.2010 C   0  0  0  0  0  3  0  0  0  0  0  0
  -28.2340  -36.4810   25.1150 C   0  0  0  0  0  1  0  0  0  0  0  0
  -27.1330  -36.9380   24.2740 N   0  0  0  0  0  0  0  0  0  0  0  0
  -26.8160  -37.8370   24.6280 H   0  0  0  0  0  0  0  0  0  0  0  0
  -26.8510  -31.2160   24.3500 C   0  0  1  0  0  0  0  0  0  0  0  0
  -25.9460  -30.8280   25.5440 C   0  0  0  0  0  1  0  0  0  0  0  0
  -27.3010  -29.9040   23.6690 C   0  0  0  0  0  1  0  0  0  0  0  0
  -28.1320  -31.8760   24.9130 C   0  0  0  0  0  1  0  0  0  0  0  0
  1  7  1  0
  2  7  1  0
  3  4  1  0
  3  2  1  0
  5  4  1  0
  5 28  1  0
  5  6  1  0
  7  6  1  0
  8  1  2  0
  9 14  1  0
 10  9  2  0
 10 11  1  0
 11 12  2  0
 12 13  1  0
 12 21  1  0
 13 22  1  0
 14 24  1  0
 14 13  2  0
 16 15  1  0
 16 23  1  0
 18 11  1  0
 20 15  1  0
 20 10  1  0
 20 19  1  1
 23  1  1  0
 23 17  1  0
 25 26  2  0
 26 45  1  0
 27 26  1  0
 27 30  1  0
 28 29  1  0
 28 25  1  0
 29 27  2  0
 30 31  1  0
 31 32  2  0
 33 36  1  0
 33 32  1  0
 34 33  2  0
 35 34  1  0
 35 30  2  0
 36 37  1  0
 37 42  2  0
 37 38  1  0
 38 39  2  0
 39 40  1  0
 40 44  1  0
 41 40  2  0
 42 41  1  0
 43 42  1  0
 45 46  1  0
 46 49  1  0
 46 48  1  0
 47 45  2  0
 50 25  1  0
 50 51  1  0
 52 50  1  0
 53 20  1  0
 54 53  1  0
 55 57  1  0
 56 67  2  0
 57 62  1  0
 58 66  1  0
 58 68  1  0
 59 65  1  0
 59 61  1  0
 60 66  1  0
 61 60  1  0
 62 61  2  0
 63 64  1  0
 63 57  2  0
 64 59  2  0
 65 58  1  0
 66 56  1  0
 68 70  2  0
 69 68  1  0
 71 69  1  0
 72 81  2  0
 72 77  1  0
 73 69  1  0
 73 77  1  0
 74 73  1  0
 75 76  1  0
 75 74  1  0
 76 72  1  0
 77 78  2  0
 78 79  1  0
 80 79  2  0
 81 80  1  0
 82 56  1  0
 82 83  1  0
 82 92  1  0
 83 86  1  0
 84 83  1  0
 84 88  1  0
 85 84  2  0
 88 87  1  0
 88 90  1  0
 90 91  1  0
 90 89  1  0
 92 95  1  1
 92 93  1  0
 94 92  1  0
M  ISO  4   1 100  18 101  23 100  55 101
M  END
>  <TORSDO>  (59) 
F 16

>  <SCORE>  (59) 
-15.368

>  <name>  (59) 
58

>  <ligand_id>  (59) 
58

>  <original_smiles>  (59) 
[H]OC12c3c([H])c(F)c(C([H])([H])[H])c(C([H])([H])[H])c3C([H])(Oc3c([H])c([H])c4c(c3[H])C([H])([H])N(C(=O)C([H])(N([H])C(=O)C([H])(N([H])C([H])([H])[H])C([H])([H])[H])C(C([H])([H])[H])(C([H])([H])[H])C([H])([H])[H])C([H])(C(=O)N([H])C3([H])c5c([H])c([H])c([H])c([H])c5C([H])([H])C([H])([H])C3([H])[H])C4([H])[H])C1([H])C([H])([H])N(C(=O)N1C([H])([H])C([H])([H])C([H])([H])C([H])(n3nc(-c4c([H])c([H])c(Oc5c([H])c([H])c(F)c([H])c5F)c([H])c4[H])c(C(=O)N([H])[H])c3N([H])[H])C1([H])[H])C([H])([H])C2([H])[H]

>  <smiles>  (59) 
[H]OC12c3c([H])c(F)c(C([H])([H])[H])c(C([H])([H])[H])c3C([H])(Oc3c([H])c([H])c4c(c3[H])C([H])([H])N(C(=O)C([H])(N([H])C(=O)C([H])(N([H])C([H])([H])[H])C([H])([H])[H])C(C([H])([H])[H])(C([H])([H])[H])C([H])([H])[H])C([H])(C(=O)N([H])C3([H])c5c([H])c([H])c([H])c([H])c5C([H])([H])C([H])([H])C3([H])[H])C4([H])[H])C1([H])C([H])([H])N(C(=O)N1C([H])([H])C([H])([H])C([H])([H])C([H])(n3nc(-c4c([H])c([H])c(Oc5c([H])c([H])c(F)c([H])c5F)c([H])c4[H])c(C(=O)N([H])[H])c3N([H])[H])C1([H])[H])C([H])([H])C2([H])[H]

$$$$
59:0:0
     RDKit          3D

102113  0  0  1  0  0  0  0  0999 V2000
  -31.1450  -23.7220   21.8210 C   0  0  0  0  0  3  0  0  0  0  0  0
  -30.5300  -25.0000   21.7810 C   0  0  0  0  0  3  0  0  0  0  0  0
  -30.3520  -24.8770   19.3480 C   0  0  0  0  0  3  0  0  0  0  0  0
  -31.3670  -23.0330   20.6100 C   0  0  0  0  0  0  0  0  0  0  0  0
  -30.9870  -23.6180   19.4020 C   0  0  0  0  0  0  0  0  0  0  0  0
  -30.1100  -25.5810   20.5550 C   0  0  0  0  0  0  0  0  0  0  0  0
  -31.3610  -22.7440   18.2380 C   0  0  0  0  0  2  0  0  0  0  0  0
  -32.2990  -21.6860   18.8630 C   0  0  0  0  0  2  0  0  0  0  0  0
  -32.0540  -21.6860   20.3980 C   0  0  0  0  0  3  0  0  0  0  0  0
  -31.5240  -19.2310   20.5430 C   0  0  0  0  0  0  0  0  0  0  0  0
  -31.2410  -20.5290   20.7950 N   0  0  0  0  0  0  0  0  0  0  0  0
  -32.5950  -18.8750   20.0460 O   0  0  0  0  0  0  0  0  0  0  0  0
  -30.3500  -20.7470   21.2210 H   0  0  0  0  0  0  0  0  0  0  0  0
  -30.7600  -17.2050   21.9970 C   0  0  0  0  0  2  0  0  0  0  0  0
  -30.4320  -18.1870   20.8620 C   0  0  0  0  0  3  0  0  0  0  0  0
  -30.0800  -17.2680   19.7040 C   0  0  0  0  0  3  0  0  0  0  0  0
  -29.7190  -15.8410   20.1390 C   0  0  1  0  0  0  0  0  0  0  0  0
  -30.2140  -15.7810   21.6300 C   0  0  1  0  0  0  0  0  0  0  0  0
  -28.6730  -16.8120   19.5050 C   0  0  1  0  0  0  0  0  0  0  0  0
  -31.3790  -14.7880   21.8750 C   0  0  0  0  0  1  0  0  0  0  0  0
  -29.1010  -15.3580   22.6190 C   0  0  0  0  0  1  0  0  0  0  0  0
  -27.5230  -17.3610   20.3360 C   0  0  0  0  0  1  0  0  0  0  0  0
  -28.2670  -16.8670   18.0290 C   0  0  0  0  0  1  0  0  0  0  0  0
  -30.1690  -14.6780   19.2380 C   0  0  0  0  0  0  0  0  0  0  0  0
  -29.7410  -12.4730   18.1890 C   0  0  0  0  0  2  0  0  0  0  0  0
  -28.5690  -12.5650   17.1920 C   0  0  0  0  0  2  0  0  0  0  0  0
  -27.2300  -12.2960   17.9080 C   0  0  0  0  0  2  0  0  0  0  0  0
  -27.0790  -13.1340   19.2030 C   0  0  0  0  0  3  0  0  0  0  0  0
  -28.3560  -13.1010   20.0760 C   0  0  0  0  0  2  0  0  0  0  0  0
  -29.5160  -13.4750   19.2500 N   0  0  0  0  0  0  0  0  0  0  0  0
  -31.0930  -14.8810   18.4490 O   0  0  0  0  0  0  0  0  0  0  0  0
  -24.8910  -13.5610   20.4820 C   0  0  0  0  0  0  0  0  0  0  0  0
  -23.9740  -12.7130   21.0320 C   0  0  0  0  0  0  0  0  0  0  0  0
  -24.4660  -11.3920   20.7910 C   0  0  0  0  0  0  0  0  0  0  0  0
  -25.8910  -12.7550   19.9580 N   0  0  0  0  0  0  0  0  0  0  0  0
  -25.6510  -11.4420   20.1970 N   0  0  0  0  0  0  0  0  0  0  0  0
  -23.8420  -10.0890   21.0310 C   0  0  0  0  0  0  0  0  0  0  0  0
  -24.3900   -9.1650   21.9470 C   0  0  0  0  0  3  0  0  0  0  0  0
  -23.7590   -7.9220   22.1680 C   0  0  0  0  0  3  0  0  0  0  0  0
  -22.5700   -7.5940   21.4760 C   0  0  0  0  0  0  0  0  0  0  0  0
  -22.0440   -8.5080   20.5450 C   0  0  0  0  0  3  0  0  0  0  0  0
  -22.6760   -9.7420   20.3210 C   0  0  0  0  0  3  0  0  0  0  0  0
  -21.9010   -6.4030   21.6170 O   0  0  0  0  0  0  0  0  0  0  0  0
  -21.8150   -5.7680   22.8310 C   0  0  0  0  0  0  0  0  0  0  0  0
  -21.2410   -6.3910   23.9620 C   0  0  0  0  0  3  0  0  0  0  0  0
  -21.1080   -5.6730   25.1680 C   0  0  0  0  0  3  0  0  0  0  0  0
  -21.5450   -4.3370   25.2470 C   0  0  0  0  0  0  0  0  0  0  0  0
  -22.1170   -3.7170   24.1220 C   0  0  0  0  0  3  0  0  0  0  0  0
  -22.2480   -4.4300   22.9160 C   0  0  0  0  0  0  0  0  0  0  0  0
  -22.7790   -3.8200   21.8290 F   0  0  0  0  0  0  0  0  0  0  0  0
  -21.4120   -3.6470   26.4030 F   0  0  0  0  0  0  0  0  0  0  0  0
  -22.6640  -13.0980   21.6560 C   0  0  0  0  0  0  0  0  0  0  0  0
  -22.1940  -12.3180   22.6220 N   0  0  0  0  0  0  0  0  0  0  0  0
  -22.0730  -14.1250   21.3200 O   0  0  0  0  0  0  0  0  0  0  0  0
  -22.6830  -11.4810   22.9020 H   0  0  0  0  0  0  0  0  0  0  0  0
  -21.3280  -12.5530   23.0870 H   0  0  0  0  0  0  0  0  0  0  0  0
  -24.9340  -14.9430   20.3560 N   0  0  0  0  0  0  0  0  0  0  0  0
  -24.1900  -15.5440   20.6920 H   0  0  0  0  0  0  0  0  0  0  0  0
  -25.6800  -15.4500   19.9000 H   0  0  0  0  0  0  0  0  0  0  0  0
  -30.3600  -28.0470   20.0040 C   0  0  0  0  0  1  0  0  0  0  0  0
  -29.4060  -26.9510   20.5230 C   0  0  0  0  0  3  0  0  0  0  0  0
  -28.2610  -26.8780   19.6710 O   0  0  0  0  0  0  0  0  0  0  0  0
  -24.5630  -31.9550   23.1850 C   0  0  0  0  0  0  0  0  0  0  0  0
  -27.1480  -27.6770   19.8440 C   0  0  0  0  0  0  0  0  0  0  0  0
  -23.3090  -30.6180   21.5220 C   0  0  0  0  0  3  0  0  0  0  0  0
  -24.7280  -29.1430   20.0000 C   0  0  0  0  0  0  0  0  0  0  0  0
  -25.8230  -30.9980   21.2650 C   0  0  0  0  0  2  0  0  0  0  0  0
  -25.8990  -29.6510   20.5790 C   0  0  0  0  0  0  0  0  0  0  0  0
  -27.1100  -28.9230   20.5150 C   0  0  0  0  0  3  0  0  0  0  0  0
  -25.9590  -27.1850   19.2670 C   0  0  0  0  0  3  0  0  0  0  0  0
  -24.7480  -27.9000   19.3490 C   0  0  0  0  0  3  0  0  0  0  0  0
  -23.4800  -29.9900   20.1130 C   0  0  0  0  0  2  0  0  0  0  0  0
  -24.5830  -31.2030   22.0470 N   0  0  0  0  0  0  0  0  0  0  0  0
  -23.4970  -32.1990   23.7690 O   0  0  0  0  0  0  0  0  0  0  0  0
  -22.6860  -29.5550   22.4610 C   0  0  0  0  0  0  0  0  0  0  0  0
  -21.3680  -29.3360   22.3250 N   0  0  0  0  0  0  0  0  0  0  0  0
  -23.3880  -28.9360   23.2650 O   0  0  0  0  0  0  0  0  0  0  0  0
  -20.8660  -29.8880   21.6440 H   0  0  0  0  0  0  0  0  0  0  0  0
  -18.0410  -27.9900   22.7400 C   0  0  0  0  0  0  0  0  0  0  0  0
  -20.5780  -28.3590   23.0730 C   0  0  0  0  0  3  0  0  0  0  0  0
  -20.7580  -26.9380   22.4920 C   0  0  0  0  0  2  0  0  0  0  0  0
  -19.6950  -26.5720   21.4520 C   0  0  0  0  0  2  0  0  0  0  0  0
  -18.2940  -26.6540   22.0660 C   0  0  0  0  0  2  0  0  0  0  0  0
  -19.1140  -28.7980   23.2010 C   0  0  0  0  0  0  0  0  0  0  0  0
  -18.8250  -30.0480   23.7930 C   0  0  0  0  0  3  0  0  0  0  0  0
  -17.4960  -30.4880   23.9320 C   0  0  0  0  0  3  0  0  0  0  0  0
  -16.4370  -29.6750   23.4910 C   0  0  0  0  0  3  0  0  0  0  0  0
  -16.7110  -28.4290   22.9000 C   0  0  0  0  0  3  0  0  0  0  0  0
  -25.8660  -32.5590   23.7920 C   0  0  0  0  0  3  0  0  0  0  0  0
  -26.4020  -31.7570   25.0430 C   0  0  1  0  0  0  0  0  0  0  0  0
  -25.3210  -31.4850   26.1140 C   0  0  0  0  0  1  0  0  0  0  0  0
  -26.9810  -30.3900   24.6060 C   0  0  0  0  0  1  0  0  0  0  0  0
  -27.5580  -32.5360   25.7100 C   0  0  0  0  0  1  0  0  0  0  0  0
  -25.5790  -33.9540   24.1510 N   0  0  0  0  0  0  0  0  0  0  0  0
  -25.9030  -35.0130   23.3970 C   0  0  0  0  0  0  0  0  0  0  0  0
  -26.5490  -34.9170   22.3490 O   0  0  0  0  0  0  0  0  0  0  0  0
  -25.0110  -34.1060   24.9730 H   0  0  0  0  0  0  0  0  0  0  0  0
  -24.1900  -36.8240   23.1020 C   0  0  0  0  0  1  0  0  0  0  0  0
  -25.4430  -36.3970   23.8830 C   0  0  0  0  0  3  0  0  0  0  0  0
  -27.5990  -37.2520   24.6900 C   0  0  0  0  0  1  0  0  0  0  0  0
  -26.4850  -37.4400   23.7630 N   0  0  0  0  0  0  0  0  0  0  0  0
  -26.0920  -38.3620   23.9230 H   0  0  0  0  0  0  0  0  0  0  0  0
  2  1  1  0
  3  5  2  0
  3  6  1  0
  4  1  2  0
  5  4  1  0
  6  2  2  0
  7  8  1  0
  7  5  1  0
  8  9  1  0
  9  4  1  0
  9 11  1  0
 10 11  1  0
 11 13  1  0
 12 10  2  0
 15 10  1  0
 15 14  1  0
 16 19  1  0
 16 17  1  0
 16 15  1  0
 17 24  1  6
 17 18  1  0
 18 20  1  6
 18 14  1  0
 18 21  1  0
 19 17  1  0
 19 22  1  1
 23 19  1  0
 24 30  1  0
 25 30  1  0
 26 27  1  0
 26 25  1  0
 28 27  1  0
 28 35  1  0
 28 29  1  0
 30 29  1  0
 31 24  2  0
 32 33  2  0
 33 52  1  0
 34 37  1  0
 34 33  1  0
 35 36  1  0
 35 32  1  0
 36 34  2  0
 37 38  1  0
 38 39  2  0
 40 43  1  0
 40 39  1  0
 41 40  2  0
 42 41  1  0
 42 37  2  0
 43 44  1  0
 44 49  2  0
 44 45  1  0
 45 46  2  0
 46 47  1  0
 47 51  1  0
 48 47  2  0
 49 48  1  0
 50 49  1  0
 52 53  1  0
 53 55  1  0
 53 56  1  0
 54 52  2  0
 57 32  1  0
 57 58  1  0
 59 57  1  0
 61 60  1  0
 61  6  1  0
 62 64  1  0
 62 61  1  0
 63 74  2  0
 64 69  1  0
 65 73  1  0
 65 75  1  0
 66 72  1  0
 66 68  1  0
 67 73  1  0
 68 67  1  0
 69 68  2  0
 70 71  1  0
 70 64  2  0
 71 66  2  0
 72 65  1  0
 73 63  1  0
 75 77  2  0
 76 75  1  0
 78 76  1  0
 79 88  2  0
 79 84  1  0
 80 76  1  0
 80 84  1  0
 81 80  1  0
 82 83  1  0
 82 81  1  0
 83 79  1  0
 84 85  2  0
 85 86  1  0
 87 86  2  0
 88 87  1  0
 89 63  1  0
 89 94  1  0
 89 90  1  0
 90 93  1  1
 90 91  1  0
 92 90  1  0
 94 97  1  0
 95 99  1  0
 95 94  1  0
 96 95  2  0
 99 98  1  0
101 99  1  0
101102  1  0
101100  1  0
M  ISO  4  17 100  24 100  61 101  62 101
M  END
>  <TORSDO>  (60) 
F 19

>  <SCORE>  (60) 
-8.273

>  <name>  (60) 
59

>  <ligand_id>  (60) 
59

>  <original_smiles>  (60) 
[H]c1c([H])c([H])c2c(c1[H])C([H])([H])C([H])([H])C([H])([H])C2([H])N([H])C(=O)C1([H])N(C(=O)C([H])(N([H])C(=O)C([H])(N([H])C([H])([H])[H])C([H])([H])[H])C(C([H])([H])[H])(C([H])([H])[H])C([H])([H])[H])C([H])([H])c2c([H])c(OC([H])(c3c([H])c([H])c4c(c3[H])C([H])([H])C([H])([H])C4([H])N([H])C(=O)C3([H])C([H])([H])C(C([H])([H])[H])(C([H])([H])[H])C4(C(=O)N5C([H])([H])C([H])([H])C([H])([H])C([H])(n6nc(-c7c([H])c([H])c(Oc8c([H])c([H])c(F)c([H])c8F)c([H])c7[H])c(C(=O)N([H])[H])c6N([H])[H])C5([H])[H])C3([H])C4(C([H])([H])[H])C([H])([H])[H])C([H])([H])[H])c([H])c([H])c2C1([H])[H]

>  <smiles>  (60) 
[H]c1c([H])c([H])c2c(c1[H])C([H])([H])C([H])([H])C([H])([H])C2([H])N([H])C(=O)C1([H])N(C(=O)C([H])(N([H])C(=O)C([H])(N([H])C([H])([H])[H])C([H])([H])[H])C(C([H])([H])[H])(C([H])([H])[H])C([H])([H])[H])C([H])([H])c2c([H])c(OC([H])(c3c([H])c([H])c4c(c3[H])C([H])([H])C([H])([H])C4([H])N([H])C(=O)C3([H])C([H])([H])C(C([H])([H])[H])(C([H])([H])[H])C4(C(=O)N5C([H])([H])C([H])([H])C([H])([H])C([H])(n6nc(-c7c([H])c([H])c(Oc8c([H])c([H])c(F)c([H])c8F)c([H])c7[H])c(C(=O)N([H])[H])c6N([H])[H])C5([H])[H])C3([H])C4(C([H])([H])[H])C([H])([H])[H])C([H])([H])[H])c([H])c([H])c2C1([H])[H]

$$$$
60:0:0
     RDKit          3D

 92101  0  0  1  0  0  0  0  0999 V2000
  -28.5400  -22.8520   21.2940 C   0  0  0  0  0  3  0  0  0  0  0  0
  -28.3030  -24.2740   21.2970 C   0  0  0  0  0  3  0  0  0  0  0  0
  -28.9900  -22.9330   18.9590 C   0  0  0  0  0  3  0  0  0  0  0  0
  -28.9120  -22.1120   20.1270 C   0  0  0  0  0  0  0  0  0  0  0  0
  -28.7580  -24.3570   18.9580 C   0  0  0  0  0  0  0  0  0  0  0  0
  -28.4100  -25.0890   20.1330 C   0  0  0  0  0  0  0  0  0  0  0  0
  -28.9320  -25.1190   17.6580 C   0  0  0  0  0  1  0  0  0  0  0  0
  -29.2260  -19.7800   19.0210 C   0  0  0  0  0  3  0  0  0  0  0  0
  -29.1990  -20.5640   20.1400 C   0  0  0  0  0  0  0  0  0  0  0  0
  -29.5040  -18.2350   18.9150 C   0  0  0  0  0  2  0  0  0  0  0  0
  -29.5500  -19.7940   21.4300 C   0  0  0  0  0  2  0  0  0  0  0  0
  -29.4270  -18.2140   21.3880 C   0  0  0  0  0  2  0  0  0  0  0  0
  -30.0770  -17.4790   20.1720 C   0  0  0  0  0  3  0  0  0  0  0  0
  -30.6720  -14.8620   19.9100 C   0  0  0  0  0  0  0  0  0  0  0  0
  -30.4610  -12.5700   18.9240 C   0  0  0  0  0  2  0  0  0  0  0  0
  -29.4330  -12.6130   17.7710 C   0  0  0  0  0  2  0  0  0  0  0  0
  -28.0010  -12.4210   18.3090 C   0  0  0  0  0  2  0  0  0  0  0  0
  -27.7010  -13.3160   19.5400 C   0  0  0  0  0  3  0  0  0  0  0  0
  -28.8370  -13.2430   20.5830 C   0  0  0  0  0  2  0  0  0  0  0  0
  -30.0800  -13.6170   19.8990 N   0  0  0  0  0  0  0  0  0  0  0  0
  -31.8260  -15.0000   19.4970 O   0  0  0  0  0  0  0  0  0  0  0  0
  -29.8610  -15.9550   20.1970 N   0  0  0  0  0  0  0  0  0  0  0  0
  -28.9330  -15.6780   20.4760 H   0  0  0  0  0  0  0  0  0  0  0  0
  -25.3900  -13.8960   20.4940 C   0  0  0  0  0  0  0  0  0  0  0  0
  -24.3480  -13.1150   20.9150 C   0  0  0  0  0  0  0  0  0  0  0  0
  -24.7880  -11.7620   20.7780 C   0  0  0  0  0  0  0  0  0  0  0  0
  -26.3970  -13.0190   20.1270 N   0  0  0  0  0  0  0  0  0  0  0  0
  -26.0470  -11.7270   20.3600 N   0  0  0  0  0  0  0  0  0  0  0  0
  -24.0610  -10.4990   20.9640 C   0  0  0  0  0  0  0  0  0  0  0  0
  -24.4950   -9.5270   21.8930 C   0  0  0  0  0  3  0  0  0  0  0  0
  -23.7670   -8.3300   22.0680 C   0  0  0  0  0  3  0  0  0  0  0  0
  -22.5930   -8.0970   21.3140 C   0  0  0  0  0  0  0  0  0  0  0  0
  -22.1790   -9.0570   20.3750 C   0  0  0  0  0  3  0  0  0  0  0  0
  -22.9080  -10.2450   20.1970 C   0  0  0  0  0  3  0  0  0  0  0  0
  -21.8390   -6.9510   21.3980 O   0  0  0  0  0  0  0  0  0  0  0  0
  -21.7020   -6.2650   22.5780 C   0  0  0  0  0  0  0  0  0  0  0  0
  -21.1560   -6.8680   23.7310 C   0  0  0  0  0  3  0  0  0  0  0  0
  -20.9670   -6.1070   24.9020 C   0  0  0  0  0  3  0  0  0  0  0  0
  -21.3150   -4.7430   24.9190 C   0  0  0  0  0  0  0  0  0  0  0  0
  -21.8540   -4.1390   23.7690 C   0  0  0  0  0  3  0  0  0  0  0  0
  -22.0430   -4.8980   22.6010 C   0  0  0  0  0  0  0  0  0  0  0  0
  -22.5430   -4.3060   21.4900 F   0  0  0  0  0  0  0  0  0  0  0  0
  -21.1260   -4.0090   26.0400 F   0  0  0  0  0  0  0  0  0  0  0  0
  -22.9850  -13.5930   21.3230 C   0  0  0  0  0  0  0  0  0  0  0  0
  -22.3220  -12.8650   22.2150 N   0  0  0  0  0  0  0  0  0  0  0  0
  -22.5200  -14.6460   20.8890 O   0  0  0  0  0  0  0  0  0  0  0  0
  -22.7110  -12.0110   22.5890 H   0  0  0  0  0  0  0  0  0  0  0  0
  -21.4120  -13.1660   22.5320 H   0  0  0  0  0  0  0  0  0  0  0  0
  -25.5580  -15.2720   20.3690 N   0  0  0  0  0  0  0  0  0  0  0  0
  -24.8080  -15.9240   20.5700 H   0  0  0  0  0  0  0  0  0  0  0  0
  -26.3670  -15.7180   19.9570 H   0  0  0  0  0  0  0  0  0  0  0  0
  -28.3820  -26.5230   20.1600 O   0  0  0  0  0  0  0  0  0  0  0  0
  -24.6160  -31.9220   23.2250 C   0  0  0  0  0  0  0  0  0  0  0  0
  -27.2340  -27.3430   20.1670 C   0  0  0  0  0  0  0  0  0  0  0  0
  -23.4140  -30.5240   21.5800 C   0  0  0  0  0  3  0  0  0  0  0  0
  -24.8670  -28.9680   20.1530 C   0  0  0  0  0  0  0  0  0  0  0  0
  -25.9530  -30.8410   21.3990 C   0  0  0  0  0  2  0  0  0  0  0  0
  -26.0330  -29.4570   20.7530 C   0  0  0  0  0  0  0  0  0  0  0  0
  -27.2170  -28.6550   20.7480 C   0  0  0  0  0  3  0  0  0  0  0  0
  -26.0460  -26.9100   19.5430 C   0  0  0  0  0  3  0  0  0  0  0  0
  -24.8770  -27.7030   19.5390 C   0  0  0  0  0  3  0  0  0  0  0  0
  -23.6310  -29.8470   20.1990 C   0  0  0  0  0  2  0  0  0  0  0  0
  -24.6800  -31.1140   22.1250 N   0  0  0  0  0  0  0  0  0  0  0  0
  -23.5310  -32.1960   23.7610 O   0  0  0  0  0  0  0  0  0  0  0  0
  -22.7510  -29.5090   22.5410 C   0  0  0  0  0  0  0  0  0  0  0  0
  -21.4280  -29.3160   22.4010 N   0  0  0  0  0  0  0  0  0  0  0  0
  -23.4260  -28.8960   23.3720 O   0  0  0  0  0  0  0  0  0  0  0  0
  -20.9410  -29.8640   21.7070 H   0  0  0  0  0  0  0  0  0  0  0  0
  -18.0610  -28.0730   22.8660 C   0  0  0  0  0  0  0  0  0  0  0  0
  -20.6120  -28.3700   23.1640 C   0  0  0  0  0  3  0  0  0  0  0  0
  -20.7400  -26.9360   22.5970 C   0  0  0  0  0  2  0  0  0  0  0  0
  -19.6550  -26.5940   21.5720 C   0  0  0  0  0  2  0  0  0  0  0  0
  -18.2640  -26.7230   22.1980 C   0  0  0  0  0  2  0  0  0  0  0  0
  -19.1640  -28.8540   23.3050 C   0  0  0  0  0  0  0  0  0  0  0  0
  -18.9200  -30.1150   23.8890 C   0  0  0  0  0  3  0  0  0  0  0  0
  -17.6070  -30.5970   24.0400 C   0  0  0  0  0  3  0  0  0  0  0  0
  -16.5180  -29.8150   23.6160 C   0  0  0  0  0  3  0  0  0  0  0  0
  -16.7470  -28.5560   23.0350 C   0  0  0  0  0  3  0  0  0  0  0  0
  -25.8950  -32.5560   23.8500 C   0  0  0  0  0  3  0  0  0  0  0  0
  -25.5870  -33.9560   24.1790 N   0  0  0  0  0  0  0  0  0  0  0  0
  -25.9050  -35.0070   23.4130 C   0  0  0  0  0  0  0  0  0  0  0  0
  -26.5600  -34.9000   22.3720 O   0  0  0  0  0  0  0  0  0  0  0  0
  -25.0050  -34.1120   24.9890 H   0  0  0  0  0  0  0  0  0  0  0  0
  -24.1630  -36.7940   23.0870 C   0  0  0  0  0  1  0  0  0  0  0  0
  -25.4230  -36.3970   23.8720 C   0  0  0  0  0  3  0  0  0  0  0  0
  -27.5680  -37.3000   24.6570 C   0  0  0  0  0  1  0  0  0  0  0  0
  -26.4490  -37.4540   23.7300 N   0  0  0  0  0  0  0  0  0  0  0  0
  -26.0420  -38.3730   23.8750 H   0  0  0  0  0  0  0  0  0  0  0  0
  -26.4080  -31.7880   25.1320 C   0  0  1  0  0  0  0  0  0  0  0  0
  -25.3110  -31.5490   26.1960 C   0  0  0  0  0  1  0  0  0  0  0  0
  -26.9980  -30.4110   24.7450 C   0  0  0  0  0  1  0  0  0  0  0  0
  -27.5520  -32.5880   25.7990 C   0  0  0  0  0  1  0  0  0  0  0  0
  1  2  1  0
  3  4  1  0
  4  9  1  0
  4  1  2  0
  5  3  2  0
  5  6  1  0
  6 52  1  0
  6  2  2  0
  7  5  1  0
  8  9  2  0
  9 11  1  0
 10  8  1  0
 10 13  1  0
 12 11  1  0
 13 22  1  0
 13 12  1  0
 14 22  1  0
 15 20  1  0
 16 17  1  0
 16 15  1  0
 18 17  1  0
 18 27  1  0
 18 19  1  0
 20 14  1  0
 20 19  1  0
 21 14  2  0
 22 23  1  0
 24 25  2  0
 25 44  1  0
 26 25  1  0
 26 29  1  0
 27 28  1  0
 27 24  1  0
 28 26  2  0
 29 30  1  0
 30 31  2  0
 32 35  1  0
 32 31  1  0
 33 32  2  0
 34 33  1  0
 34 29  2  0
 35 36  1  0
 36 41  2  0
 36 37  1  0
 37 38  2  0
 38 39  1  0
 39 43  1  0
 40 39  2  0
 41 40  1  0
 42 41  1  0
 44 45  1  0
 45 48  1  0
 45 47  1  0
 46 44  2  0
 49 24  1  0
 49 50  1  0
 51 49  1  0
 52 54  1  0
 53 64  2  0
 54 59  1  0
 55 63  1  0
 55 65  1  0
 56 62  1  0
 56 58  1  0
 57 63  1  0
 58 57  1  0
 59 58  2  0
 60 54  2  0
 61 60  1  0
 61 56  2  0
 62 55  1  0
 63 53  1  0
 65 67  2  0
 66 65  1  0
 68 66  1  0
 69 78  2  0
 69 74  1  0
 70 66  1  0
 70 74  1  0
 71 70  1  0
 72 73  1  0
 72 71  1  0
 73 69  1  0
 74 75  2  0
 75 76  1  0
 77 76  2  0
 78 77  1  0
 79 53  1  0
 79 80  1  0
 79 89  1  0
 80 83  1  0
 81 85  1  0
 81 80  1  0
 82 81  2  0
 85 84  1  0
 87 85  1  0
 87 88  1  0
 87 86  1  0
 89 92  1  1
 89 90  1  0
 91 89  1  0
M  ISO  4   6 101  14 100  22 100  52 101
M  END
>  <TORSDO>  (61) 
F 17

>  <SCORE>  (61) 
-14.296

>  <name>  (61) 
60

>  <ligand_id>  (61) 
60

>  <original_smiles>  (61) 
[H]C1=C(c2c([H])c([H])c(Oc3c([H])c([H])c4c(c3[H])C([H])([H])N(C(=O)C([H])(N([H])C(=O)C([H])(N([H])C([H])([H])[H])C([H])([H])[H])C(C([H])([H])[H])(C([H])([H])[H])C([H])([H])[H])C([H])(C(=O)N([H])C3([H])c5c([H])c([H])c([H])c([H])c5C([H])([H])C([H])([H])C3([H])[H])C4([H])[H])c(C([H])([H])[H])c2[H])C([H])([H])C([H])([H])C([H])(N([H])C(=O)N2C([H])([H])C([H])([H])C([H])([H])C([H])(n3nc(-c4c([H])c([H])c(Oc5c([H])c([H])c(F)c([H])c5F)c([H])c4[H])c(C(=O)N([H])[H])c3N([H])[H])C2([H])[H])C1([H])[H]

>  <smiles>  (61) 
[H]C1=C(c2c([H])c([H])c(Oc3c([H])c([H])c4c(c3[H])C([H])([H])N(C(=O)C([H])(N([H])C(=O)C([H])(N([H])C([H])([H])[H])C([H])([H])[H])C(C([H])([H])[H])(C([H])([H])[H])C([H])([H])[H])C([H])(C(=O)N([H])C3([H])c5c([H])c([H])c([H])c([H])c5C([H])([H])C([H])([H])C3([H])[H])C4([H])[H])c(C([H])([H])[H])c2[H])C([H])([H])C([H])([H])C([H])(N([H])C(=O)N2C([H])([H])C([H])([H])C([H])([H])C([H])(n3nc(-c4c([H])c([H])c(Oc5c([H])c([H])c(F)c([H])c5F)c([H])c4[H])c(C(=O)N([H])[H])c3N([H])[H])C2([H])[H])C1([H])[H]

$$$$
61:0:0
     RDKit          3D

 92100  0  0  1  0  0  0  0  0999 V2000
  -32.0450  -21.8680   21.9980 C   0  0  0  0  0  3  0  0  0  0  0  0
  -30.9500  -22.2780   21.2310 C   0  0  0  0  0  3  0  0  0  0  0  0
  -32.3980  -20.5140   22.0440 C   0  0  0  0  0  3  0  0  0  0  0  0
  -30.5590  -19.8800   20.5100 C   0  0  0  0  0  0  0  0  0  0  0  0
  -30.2030  -21.3420   20.4910 C   0  0  0  0  0  0  0  0  0  0  0  0
  -31.6700  -19.5300   21.3350 C   0  0  0  0  0  0  0  0  0  0  0  0
  -29.6760  -18.8040   19.7610 C   0  0  0  0  0  3  0  0  0  0  0  0
  -29.0570  -21.9400   19.5920 C   0  0  0  0  0  3  0  0  0  0  0  0
  -28.5830  -20.1820   19.3710 C   0  0  2  0  0  0  0  0  0  0  0  0
  -32.1390  -18.1040   21.5330 C   0  0  0  0  0  1  0  0  0  0  0  0
  -29.7970  -22.3400   18.2970 C   0  0  0  0  0  1  0  0  0  0  0  0
  -27.3280  -19.9850   20.2440 C   0  0  0  0  0  1  0  0  0  0  0  0
  -28.1560  -19.9560   17.9070 C   0  0  0  0  0  1  0  0  0  0  0  0
  -29.6420  -17.3020   19.5130 N   0  0  0  0  0  2  0  0  0  0  0  0
  -30.5010  -15.8710   19.5310 C   0  0  0  0  0  0  0  0  0  0  0  0
  -30.6110  -13.2550   18.8820 C   0  0  0  0  0  2  0  0  0  0  0  0
  -29.6590  -12.7500   17.7550 C   0  0  0  0  0  2  0  0  0  0  0  0
  -28.2790  -12.3770   18.3160 C   0  0  0  0  0  2  0  0  0  0  0  0
  -27.8040  -13.4300   19.3410 C   0  0  0  0  0  3  0  0  0  0  0  0
  -28.8880  -13.8620   20.3550 C   0  0  0  0  0  2  0  0  0  0  0  0
  -30.0160  -14.4760   19.6070 N   0  0  0  0  0  0  0  0  0  0  0  0
  -31.7190  -15.7650   19.3060 O   0  0  0  0  0  0  0  0  0  0  0  0
  -25.5430  -13.9570   20.3660 C   0  0  0  0  0  0  0  0  0  0  0  0
  -24.5060  -13.1820   20.7990 C   0  0  0  0  0  0  0  0  0  0  0  0
  -24.9390  -11.8270   20.6600 C   0  0  0  0  0  0  0  0  0  0  0  0
  -26.5380  -13.0820   19.9750 N   0  0  0  0  0  0  0  0  0  0  0  0
  -26.1950  -11.7870   20.2210 N   0  0  0  0  0  0  0  0  0  0  0  0
  -24.2000  -10.5710   20.8590 C   0  0  0  0  0  0  0  0  0  0  0  0
  -24.6330   -9.5950   21.7840 C   0  0  0  0  0  3  0  0  0  0  0  0
  -23.8900   -8.4100   21.9780 C   0  0  0  0  0  3  0  0  0  0  0  0
  -22.6960   -8.1930   21.2500 C   0  0  0  0  0  0  0  0  0  0  0  0
  -22.2800   -9.1580   20.3150 C   0  0  0  0  0  3  0  0  0  0  0  0
  -23.0240  -10.3330   20.1180 C   0  0  0  0  0  3  0  0  0  0  0  0
  -21.9240   -7.0610   21.3530 O   0  0  0  0  0  0  0  0  0  0  0  0
  -21.8100   -6.3700   22.5320 C   0  0  0  0  0  0  0  0  0  0  0  0
  -21.3310   -6.9830   23.7120 C   0  0  0  0  0  3  0  0  0  0  0  0
  -21.1650   -6.2200   24.8840 C   0  0  0  0  0  3  0  0  0  0  0  0
  -21.4670   -4.8450   24.8790 C   0  0  0  0  0  0  0  0  0  0  0  0
  -21.9380   -4.2320   23.7040 C   0  0  0  0  0  3  0  0  0  0  0  0
  -22.1070   -4.9920   22.5340 C   0  0  0  0  0  0  0  0  0  0  0  0
  -22.5400   -4.3920   21.4000 F   0  0  0  0  0  0  0  0  0  0  0  0
  -21.3020   -4.1100   26.0030 F   0  0  0  0  0  0  0  0  0  0  0  0
  -23.1520  -13.6740   21.2170 C   0  0  0  0  0  0  0  0  0  0  0  0
  -22.4970  -12.9700   22.1320 N   0  0  0  0  0  0  0  0  0  0  0  0
  -22.6880  -14.7210   20.7660 O   0  0  0  0  0  0  0  0  0  0  0  0
  -22.8890  -12.1240   22.5180 H   0  0  0  0  0  0  0  0  0  0  0  0
  -21.5890  -13.2800   22.4500 H   0  0  0  0  0  0  0  0  0  0  0  0
  -25.7210  -15.3330   20.2380 N   0  0  0  0  0  0  0  0  0  0  0  0
  -24.9940  -16.0010   20.4700 H   0  0  0  0  0  0  0  0  0  0  0  0
  -26.5700  -15.7650   19.8950 H   0  0  0  0  0  0  0  0  0  0  0  0
  -28.1310  -23.6900   19.8830 C   0  0  0  0  0  1  0  0  0  0  0  0
  -28.2630  -25.4860   19.8950 O   0  0  0  0  0  0  0  0  0  0  0  0
  -24.6500  -31.6850   23.0750 C   0  0  0  0  0  0  0  0  0  0  0  0
  -27.2630  -26.7040   19.9200 C   0  0  0  0  0  0  0  0  0  0  0  0
  -23.4850  -30.3200   21.3970 C   0  0  0  0  0  3  0  0  0  0  0  0
  -24.9590  -28.7340   19.9320 C   0  0  0  0  0  0  0  0  0  0  0  0
  -26.0630  -30.4980   21.2780 C   0  0  0  0  0  2  0  0  0  0  0  0
  -26.1520  -29.0820   20.5760 C   0  0  0  0  0  0  0  0  0  0  0  0
  -27.2860  -28.1000   20.5330 C   0  0  0  0  0  3  0  0  0  0  0  0
  -26.0250  -26.5820   19.2340 C   0  0  0  0  0  3  0  0  0  0  0  0
  -24.9380  -27.5120   19.2380 C   0  0  0  0  0  3  0  0  0  0  0  0
  -23.7380  -29.6680   20.0050 C   0  0  0  0  0  2  0  0  0  0  0  0
  -24.7570  -30.8680   21.9700 N   0  0  0  0  0  0  0  0  0  0  0  0
  -23.5530  -31.9480   23.5990 O   0  0  0  0  0  0  0  0  0  0  0  0
  -22.7850  -29.3030   22.3400 C   0  0  0  0  0  0  0  0  0  0  0  0
  -21.4560  -29.1240   22.2090 N   0  0  0  0  0  0  0  0  0  0  0  0
  -23.4530  -28.6730   23.1630 O   0  0  0  0  0  0  0  0  0  0  0  0
  -20.9640  -29.6850   21.5270 H   0  0  0  0  0  0  0  0  0  0  0  0
  -18.0980  -27.8160   22.6850 C   0  0  0  0  0  0  0  0  0  0  0  0
  -20.6520  -28.1450   22.9530 C   0  0  0  0  0  3  0  0  0  0  0  0
  -20.7880  -26.7320   22.3390 C   0  0  0  0  0  2  0  0  0  0  0  0
  -19.6960  -26.4110   21.3140 C   0  0  0  0  0  2  0  0  0  0  0  0
  -18.3110  -26.4970   21.9620 C   0  0  0  0  0  2  0  0  0  0  0  0
  -19.1960  -28.5970   23.1350 C   0  0  0  0  0  0  0  0  0  0  0  0
  -18.9400  -29.8280   23.7770 C   0  0  0  0  0  3  0  0  0  0  0  0
  -17.6200  -30.2810   23.9680 C   0  0  0  0  0  3  0  0  0  0  0  0
  -16.5370  -29.4990   23.5290 C   0  0  0  0  0  3  0  0  0  0  0  0
  -16.7780  -28.2670   22.8940 C   0  0  0  0  0  3  0  0  0  0  0  0
  -25.9010  -32.3400   23.7360 C   0  0  0  0  0  3  0  0  0  0  0  0
  -25.5570  -33.7300   24.1040 N   0  0  0  0  0  0  0  0  0  0  0  0
  -25.8500  -34.8170   23.3790 C   0  0  0  0  0  0  0  0  0  0  0  0
  -26.4950  -34.7610   22.3290 O   0  0  0  0  0  0  0  0  0  0  0  0
  -24.9800  -33.8440   24.9240 H   0  0  0  0  0  0  0  0  0  0  0  0
  -24.0620  -36.5820   23.1640 C   0  0  0  0  0  1  0  0  0  0  0  0
  -25.3560  -36.1860   23.8970 C   0  0  0  0  0  3  0  0  0  0  0  0
  -27.5030  -37.1210   24.6400 C   0  0  0  0  0  1  0  0  0  0  0  0
  -26.3530  -37.2710   23.7540 N   0  0  0  0  0  0  0  0  0  0  0  0
  -25.9270  -38.1760   23.9360 H   0  0  0  0  0  0  0  0  0  0  0  0
  -26.4020  -31.5620   25.0160 C   0  0  1  0  0  0  0  0  0  0  0  0
  -25.2950  -31.3080   26.0670 C   0  0  0  0  0  1  0  0  0  0  0  0
  -27.0030  -30.1900   24.6360 C   0  0  0  0  0  1  0  0  0  0  0  0
  -27.5350  -32.3590   25.7050 C   0  0  0  0  0  1  0  0  0  0  0  0
  1  3  1  0
  2  1  2  0
  4  6  1  0
  5  4  2  0
  5  2  1  0
  6 10  1  0
  6  3  2  0
  7 14  1  0
  7  4  1  0
  8 11  1  0
  8  5  1  0
  9  8  1  0
  9  7  1  0
  9 12  1  1
 13  9  1  0
 14 15  1  0
 15 21  1  0
 16 21  1  0
 17 18  1  0
 17 16  1  0
 19 18  1  0
 19 26  1  0
 19 20  1  0
 21 20  1  0
 22 15  2  0
 23 24  2  0
 24 43  1  0
 25 24  1  0
 25 28  1  0
 26 27  1  0
 26 23  1  0
 27 25  2  0
 28 29  1  0
 29 30  2  0
 31 34  1  0
 31 30  1  0
 32 31  2  0
 33 32  1  0
 33 28  2  0
 34 35  1  0
 35 40  2  0
 35 36  1  0
 36 37  2  0
 38 37  1  0
 38 42  1  0
 39 38  2  0
 40 39  1  0
 41 40  1  0
 43 44  1  0
 44 47  1  0
 44 46  1  0
 45 43  2  0
 48 23  1  0
 48 49  1  0
 50 48  1  0
 51 52  1  0
 52 54  1  0
 53 64  2  0
 54 59  1  0
 55 63  1  0
 55 65  1  0
 56 62  1  0
 56 58  1  0
 57 63  1  0
 58 57  1  0
 59 58  2  0
 60 61  1  0
 60 54  2  0
 61 56  2  0
 62 55  1  0
 63 53  1  0
 65 67  2  0
 66 65  1  0
 68 66  1  0
 69 78  2  0
 69 74  1  0
 70 66  1  0
 70 74  1  0
 71 70  1  0
 72 73  1  0
 72 71  1  0
 73 69  1  0
 74 75  2  0
 75 76  1  0
 77 76  2  0
 78 77  1  0
 79 53  1  0
 79 80  1  0
 79 89  1  0
 80 83  1  0
 81 85  1  0
 81 80  1  0
 82 81  2  0
 85 84  1  0
 87 85  1  0
 87 88  1  0
 87 86  1  0
 89 92  1  1
 89 90  1  0
 91 89  1  0
M  ISO  4  14 100  15 100  51 101  52 101
M  END
>  <TORSDO>  (62) 
F 17

>  <SCORE>  (62) 
-15.199

>  <name>  (62) 
61

>  <ligand_id>  (62) 
61

>  <original_smiles>  (62) 
[H]c1c([H])c([H])c2c(c1[H])C([H])([H])C([H])([H])C([H])([H])C2([H])N([H])C(=O)C1([H])N(C(=O)C([H])(N([H])C(=O)C([H])(N([H])C([H])([H])[H])C([H])([H])[H])C(C([H])([H])[H])(C([H])([H])[H])C([H])([H])[H])C([H])([H])c2c([H])c(OC([H])([H])C3(C([H])([H])[H])c4c([H])c([H])c([H])c(C([H])([H])[H])c4C(=NC(=O)N4C([H])([H])C([H])([H])C([H])([H])C([H])(n5nc(-c6c([H])c([H])c(Oc7c([H])c([H])c(F)c([H])c7F)c([H])c6[H])c(C(=O)N([H])[H])c5N([H])[H])C4([H])[H])C3(C([H])([H])[H])C([H])([H])[H])c([H])c([H])c2C1([H])[H]

>  <smiles>  (62) 
[H]c1c([H])c([H])c2c(c1[H])C([H])([H])C([H])([H])C([H])([H])C2([H])N([H])C(=O)C1([H])N(C(=O)C([H])(N([H])C(=O)C([H])(N([H])C([H])([H])[H])C([H])([H])[H])C(C([H])([H])[H])(C([H])([H])[H])C([H])([H])[H])C([H])([H])c2c([H])c(OC([H])([H])C3(C([H])([H])[H])c4c([H])c([H])c([H])c(C([H])([H])[H])c4C(=NC(=O)N4C([H])([H])C([H])([H])C([H])([H])C([H])(n5nc(-c6c([H])c([H])c(Oc7c([H])c([H])c(F)c([H])c7F)c([H])c6[H])c(C(=O)N([H])[H])c5N([H])[H])C4([H])[H])C3(C([H])([H])[H])C([H])([H])[H])c([H])c([H])c2C1([H])[H]

$$$$
62:0:0
     RDKit          3D

 93102  0  0  1  0  0  0  0  0999 V2000
  -29.1380  -21.6940   18.8700 C   0  0  0  0  0  0  0  0  0  0  0  0
  -29.4130  -20.7750   20.0140 C   0  0  0  0  0  0  0  0  0  0  0  0
  -28.8240  -23.2090   18.8420 C   0  0  0  0  0  0  0  0  0  0  0  0
  -29.1620  -21.7520   21.1220 C   0  0  0  0  0  0  0  0  0  0  0  0
  -28.8040  -23.2570   21.0900 C   0  0  0  0  0  0  0  0  0  0  0  0
  -28.5890  -24.1930   19.9460 C   0  0  0  0  0  0  0  0  0  0  0  0
  -29.1600  -20.9420   17.5390 C   0  0  0  0  0  2  0  0  0  0  0  0
  -30.5660  -20.5800   17.0350 C   0  0  0  0  0  2  0  0  0  0  0  0
  -31.1110  -19.2490   17.5850 C   0  0  0  0  0  2  0  0  0  0  0  0
  -31.4530  -19.2770   19.0820 C   0  0  0  0  0  2  0  0  0  0  0  0
  -30.2430  -19.0850   20.0150 C   0  0  0  0  0  3  0  0  0  0  0  0
  -28.8030  -23.8780   17.4740 C   0  0  0  0  0  1  0  0  0  0  0  0
  -29.3150  -21.1280   22.5040 C   0  0  0  0  0  1  0  0  0  0  0  0
  -28.6710  -23.9640   22.4320 C   0  0  0  0  0  1  0  0  0  0  0  0
  -30.7590  -15.9610   20.1820 C   0  0  0  0  0  0  0  0  0  0  0  0
  -30.9370  -13.3640   19.5830 C   0  0  0  0  0  2  0  0  0  0  0  0
  -30.1100  -12.8320   18.3790 C   0  0  0  0  0  2  0  0  0  0  0  0
  -28.6730  -12.4920   18.8040 C   0  0  0  0  0  2  0  0  0  0  0  0
  -28.0970  -13.5700   19.7500 C   0  0  0  0  0  3  0  0  0  0  0  0
  -29.0710  -14.0020   20.8700 C   0  0  0  0  0  2  0  0  0  0  0  0
  -30.2530  -14.5900   20.2000 N   0  0  0  0  0  0  0  0  0  0  0  0
  -32.0010  -15.8940   20.1090 O   0  0  0  0  0  0  0  0  0  0  0  0
  -29.9950  -17.3220   20.0690 N   0  0  0  0  0  0  0  0  0  0  0  0
  -29.0040  -17.1250   20.0550 H   0  0  0  0  0  0  0  0  0  0  0  0
  -25.7330  -14.1270   20.4890 C   0  0  0  0  0  0  0  0  0  0  0  0
  -24.6570  -13.3560   20.8200 C   0  0  0  0  0  0  0  0  0  0  0  0
  -25.1060  -12.0010   20.7710 C   0  0  0  0  0  0  0  0  0  0  0  0
  -26.7680  -13.2450   20.2430 N   0  0  0  0  0  0  0  0  0  0  0  0
  -26.4040  -11.9560   20.4820 N   0  0  0  0  0  0  0  0  0  0  0  0
  -24.3560  -10.7460   20.9180 C   0  0  0  0  0  0  0  0  0  0  0  0
  -24.7130   -9.7780   21.8820 C   0  0  0  0  0  3  0  0  0  0  0  0
  -23.9580   -8.5930   22.0210 C   0  0  0  0  0  3  0  0  0  0  0  0
  -22.8310   -8.3690   21.1950 C   0  0  0  0  0  0  0  0  0  0  0  0
  -22.4930   -9.3250   20.2210 C   0  0  0  0  0  3  0  0  0  0  0  0
  -23.2490  -10.5000   20.0800 C   0  0  0  0  0  3  0  0  0  0  0  0
  -22.0550   -7.2350   21.2410 O   0  0  0  0  0  0  0  0  0  0  0  0
  -21.8600   -6.5430   22.4100 C   0  0  0  0  0  0  0  0  0  0  0  0
  -21.2610   -7.1420   23.5390 C   0  0  0  0  0  3  0  0  0  0  0  0
  -21.0160   -6.3760   24.6960 C   0  0  0  0  0  3  0  0  0  0  0  0
  -21.3600   -5.0110   24.7230 C   0  0  0  0  0  0  0  0  0  0  0  0
  -21.9520   -4.4110   23.5980 C   0  0  0  0  0  3  0  0  0  0  0  0
  -22.1990   -5.1750   22.4430 C   0  0  0  0  0  0  0  0  0  0  0  0
  -22.7500   -4.5870   21.3540 F   0  0  0  0  0  0  0  0  0  0  0  0
  -21.1170   -4.2720   25.8310 F   0  0  0  0  0  0  0  0  0  0  0  0
  -23.2610  -13.8490   21.0660 C   0  0  0  0  0  0  0  0  0  0  0  0
  -22.5050  -13.1570   21.9100 N   0  0  0  0  0  0  0  0  0  0  0  0
  -22.8520  -14.8880   20.5470 O   0  0  0  0  0  0  0  0  0  0  0  0
  -22.8500  -12.3170   22.3520 H   0  0  0  0  0  0  0  0  0  0  0  0
  -21.5680  -13.4720   22.1200 H   0  0  0  0  0  0  0  0  0  0  0  0
  -25.9140  -15.5000   20.3420 N   0  0  0  0  0  0  0  0  0  0  0  0
  -25.1440  -16.1530   20.4450 H   0  0  0  0  0  0  0  0  0  0  0  0
  -26.7610  -15.9370   20.0060 H   0  0  0  0  0  0  0  0  0  0  0  0
  -28.4920  -25.8150   19.8960 O   0  0  0  0  0  0  0  0  0  0  0  0
  -24.8860  -31.8540   23.2230 C   0  0  0  0  0  0  0  0  0  0  0  0
  -27.4590  -26.9750   19.9530 C   0  0  0  0  0  0  0  0  0  0  0  0
  -23.7080  -30.5320   21.5180 C   0  0  0  0  0  3  0  0  0  0  0  0
  -25.1650  -28.9770   20.0150 C   0  0  0  0  0  0  0  0  0  0  0  0
  -26.2820  -30.7090   21.3960 C   0  0  0  0  0  2  0  0  0  0  0  0
  -26.3570  -29.3140   20.6660 C   0  0  0  0  0  0  0  0  0  0  0  0
  -27.4860  -28.3400   20.6070 C   0  0  0  0  0  3  0  0  0  0  0  0
  -26.2330  -26.8500   19.2530 C   0  0  0  0  0  3  0  0  0  0  0  0
  -25.1400  -27.7720   19.2880 C   0  0  0  0  0  3  0  0  0  0  0  0
  -23.9490  -29.9120   20.1110 C   0  0  0  0  0  2  0  0  0  0  0  0
  -24.9820  -31.0640   22.0990 N   0  0  0  0  0  0  0  0  0  0  0  0
  -23.7920  -32.1130   23.7540 O   0  0  0  0  0  0  0  0  0  0  0  0
  -23.0080  -29.4950   22.4380 C   0  0  0  0  0  0  0  0  0  0  0  0
  -21.6780  -29.3220   22.3010 N   0  0  0  0  0  0  0  0  0  0  0  0
  -23.6730  -28.8460   23.2490 O   0  0  0  0  0  0  0  0  0  0  0  0
  -21.1900  -29.8960   21.6270 H   0  0  0  0  0  0  0  0  0  0  0  0
  -18.3140  -28.0190   22.7410 C   0  0  0  0  0  0  0  0  0  0  0  0
  -20.8680  -28.3340   23.0250 C   0  0  0  0  0  3  0  0  0  0  0  0
  -21.0030  -26.9310   22.3860 C   0  0  0  0  0  2  0  0  0  0  0  0
  -19.9120  -26.6320   21.3520 C   0  0  0  0  0  2  0  0  0  0  0  0
  -18.5250  -26.7110   21.9960 C   0  0  0  0  0  2  0  0  0  0  0  0
  -19.4140  -28.7890   23.2090 C   0  0  0  0  0  0  0  0  0  0  0  0
  -19.1600  -30.0100   23.8700 C   0  0  0  0  0  3  0  0  0  0  0  0
  -17.8420  -30.4650   24.0630 C   0  0  0  0  0  3  0  0  0  0  0  0
  -16.7580  -29.6940   23.6070 C   0  0  0  0  0  3  0  0  0  0  0  0
  -16.9950  -28.4720   22.9520 C   0  0  0  0  0  3  0  0  0  0  0  0
  -26.1450  -32.4840   23.8930 C   0  0  0  0  0  3  0  0  0  0  0  0
  -25.8000  -33.8510   24.3280 N   0  0  0  0  0  0  0  0  0  0  0  0
  -26.0930  -34.9720   23.6570 C   0  0  0  0  0  0  0  0  0  0  0  0
  -26.7370  -34.9670   22.6050 O   0  0  0  0  0  0  0  0  0  0  0  0
  -25.2190  -33.9260   25.1500 H   0  0  0  0  0  0  0  0  0  0  0  0
  -24.3160  -36.7540   23.5080 C   0  0  0  0  0  1  0  0  0  0  0  0
  -25.5950  -36.3130   24.2390 C   0  0  0  0  0  3  0  0  0  0  0  0
  -27.7320  -37.1960   25.0680 C   0  0  0  0  0  1  0  0  0  0  0  0
  -26.5980  -37.3980   24.1700 N   0  0  0  0  0  0  0  0  0  0  0  0
  -26.1750  -38.2940   24.3930 H   0  0  0  0  0  0  0  0  0  0  0  0
  -26.6710  -31.6480   25.1270 C   0  0  1  0  0  0  0  0  0  0  0  0
  -25.5830  -31.3420   26.1840 C   0  0  0  0  0  1  0  0  0  0  0  0
  -27.2680  -30.2980   24.6710 C   0  0  0  0  0  1  0  0  0  0  0  0
  -27.8170  -32.4160   25.8290 C   0  0  0  0  0  1  0  0  0  0  0  0
  1  2  1  0
  2 11  1  0
  2  4  2  0
  3  1  2  0
  3  6  1  0
  4 13  1  0
  5  4  1  0
  5 14  1  0
  6  5  2  0
  7  1  1  0
  8  7  1  0
  8  9  1  0
  9 10  1  0
 10 11  1  0
 11 23  1  0
 12  3  1  0
 15 21  1  0
 16 21  1  0
 17 18  1  0
 17 16  1  0
 19 18  1  0
 19 28  1  0
 19 20  1  0
 21 20  1  0
 22 15  2  0
 23 15  1  0
 24 23  1  0
 25 26  2  0
 26 45  1  0
 27 26  1  0
 27 30  1  0
 28 29  1  0
 28 25  1  0
 29 27  2  0
 30 31  1  0
 31 32  2  0
 33 36  1  0
 33 32  1  0
 34 33  2  0
 35 34  1  0
 35 30  2  0
 36 37  1  0
 37 42  2  0
 37 38  1  0
 38 39  2  0
 39 40  1  0
 40 44  1  0
 41 40  2  0
 42 41  1  0
 43 42  1  0
 45 46  1  0
 46 49  1  0
 46 48  1  0
 47 45  2  0
 50 51  1  0
 50 25  1  0
 52 50  1  0
 53  6  1  0
 53 55  1  0
 54 65  2  0
 55 60  1  0
 56 64  1  0
 56 66  1  0
 57 63  1  0
 57 59  1  0
 58 64  1  0
 59 58  1  0
 60 59  2  0
 61 62  1  0
 61 55  2  0
 62 57  2  0
 63 56  1  0
 64 54  1  0
 66 68  2  0
 67 66  1  0
 69 67  1  0
 70 79  2  0
 70 75  1  0
 71 67  1  0
 71 75  1  0
 72 71  1  0
 73 74  1  0
 73 72  1  0
 74 70  1  0
 75 76  2  0
 76 77  1  0
 78 77  2  0
 79 78  1  0
 80 54  1  0
 80 81  1  0
 80 90  1  0
 81 84  1  0
 82 86  1  0
 82 81  1  0
 83 82  2  0
 86 85  1  0
 88 86  1  0
 88 89  1  0
 88 87  1  0
 90 93  1  1
 90 91  1  0
 92 90  1  0
M  ISO  4   6 101  15 100  23 100  53 101
M  END
>  <TORSDO>  (63) 
F 16

>  <SCORE>  (63) 
-14.817

>  <name>  (63) 
62

>  <ligand_id>  (63) 
62

>  <original_smiles>  (63) 
[H]c1c([H])c([H])c2c(c1[H])C([H])([H])C([H])([H])C([H])([H])C2([H])N([H])C(=O)C1([H])N(C(=O)C([H])(N([H])C(=O)C([H])(N([H])C([H])([H])[H])C([H])([H])[H])C(C([H])([H])[H])(C([H])([H])[H])C([H])([H])[H])C([H])([H])c2c([H])c(Oc3c(C([H])([H])[H])c(C([H])([H])[H])c4c(c3C([H])([H])[H])C([H])([H])C([H])([H])C([H])([H])C([H])([H])C4([H])N([H])C(=O)N3C([H])([H])C([H])([H])C([H])([H])C([H])(n4nc(-c5c([H])c([H])c(Oc6c([H])c([H])c(F)c([H])c6F)c([H])c5[H])c(C(=O)N([H])[H])c4N([H])[H])C3([H])[H])c([H])c([H])c2C1([H])[H]

>  <smiles>  (63) 
[H]c1c([H])c([H])c2c(c1[H])C([H])([H])C([H])([H])C([H])([H])C2([H])N([H])C(=O)C1([H])N(C(=O)C([H])(N([H])C(=O)C([H])(N([H])C([H])([H])[H])C([H])([H])[H])C(C([H])([H])[H])(C([H])([H])[H])C([H])([H])[H])C([H])([H])c2c([H])c(Oc3c(C([H])([H])[H])c(C([H])([H])[H])c4c(c3C([H])([H])[H])C([H])([H])C([H])([H])C([H])([H])C([H])([H])C4([H])N([H])C(=O)N3C([H])([H])C([H])([H])C([H])([H])C([H])(n4nc(-c5c([H])c([H])c(Oc6c([H])c([H])c(F)c([H])c6F)c([H])c5[H])c(C(=O)N([H])[H])c4N([H])[H])C3([H])[H])c([H])c([H])c2C1([H])[H]

$$$$
63:0:0
     RDKit          3D

 94103  0  0  1  0  0  0  0  0999 V2000
  -27.3870  -22.3670   18.0750 C   0  0  0  0  0  3  0  0  0  0  0  0
  -27.9720  -21.5760   19.0040 C   0  0  0  0  0  3  0  0  0  0  0  0
  -27.7140  -23.7720   17.5590 C   0  0  0  0  0  2  0  0  0  0  0  0
  -28.6390  -24.6640   18.4020 C   0  0  0  0  0  2  0  0  0  0  0  0
  -29.0140  -23.3630   20.5950 C   0  0  0  0  0  2  0  0  0  0  0  0
  -29.2040  -21.8320   19.8700 C   0  0  0  0  0  3  0  0  0  0  0  0
  -28.2510  -24.6890   19.8900 C   0  0  0  0  0  3  0  0  0  0  0  0
  -31.3140  -19.2000   22.1300 C   0  0  0  0  0  3  0  0  0  0  0  0
  -31.1360  -17.9290   21.5540 C   0  0  0  0  0  3  0  0  0  0  0  0
  -29.6220  -18.9980   19.9940 C   0  0  0  0  0  3  0  0  0  0  0  0
  -29.8250  -20.3950   20.5230 C   0  0  0  0  0  0  0  0  0  0  0  0
  -30.7080  -20.3930   21.6520 C   0  0  0  0  0  0  0  0  0  0  0  0
  -30.2580  -17.7280   20.4820 C   0  0  0  0  0  0  0  0  0  0  0  0
  -30.7590  -15.0440   20.1970 C   0  0  0  0  0  0  0  0  0  0  0  0
  -30.6030  -12.6640   19.2990 C   0  0  0  0  0  2  0  0  0  0  0  0
  -29.6580  -12.5730   18.0800 C   0  0  0  0  0  2  0  0  0  0  0  0
  -28.2000  -12.3860   18.5430 C   0  0  0  0  0  2  0  0  0  0  0  0
  -27.8060  -13.3520   19.6910 C   0  0  0  0  0  3  0  0  0  0  0  0
  -28.8790  -13.4030   20.8000 C   0  0  0  0  0  2  0  0  0  0  0  0
  -30.1330  -13.8010   20.1430 N   0  0  0  0  0  0  0  0  0  0  0  0
  -31.9840  -15.0600   20.0250 O   0  0  0  0  0  0  0  0  0  0  0  0
  -30.0030  -16.2590   20.1010 N   0  0  0  0  0  0  0  0  0  0  0  0
  -29.0500  -16.0820   19.8190 H   0  0  0  0  0  0  0  0  0  0  0  0
  -25.4490  -13.9630   20.4750 C   0  0  0  0  0  0  0  0  0  0  0  0
  -24.3750  -13.2030   20.8480 C   0  0  0  0  0  0  0  0  0  0  0  0
  -24.8180  -11.8440   20.8030 C   0  0  0  0  0  0  0  0  0  0  0  0
  -26.4750  -13.0690   20.2160 N   0  0  0  0  0  0  0  0  0  0  0  0
  -26.1050  -11.7900   20.4800 N   0  0  0  0  0  0  0  0  0  0  0  0
  -24.0720  -10.5940   20.9880 C   0  0  0  0  0  0  0  0  0  0  0  0
  -24.4900   -9.6130   21.9140 C   0  0  0  0  0  3  0  0  0  0  0  0
  -23.7400   -8.4300   22.0910 C   0  0  0  0  0  3  0  0  0  0  0  0
  -22.5600   -8.2200   21.3400 C   0  0  0  0  0  0  0  0  0  0  0  0
  -22.1600   -9.1900   20.4060 C   0  0  0  0  0  3  0  0  0  0  0  0
  -22.9080  -10.3640   20.2270 C   0  0  0  0  0  3  0  0  0  0  0  0
  -21.7810   -7.0900   21.4290 O   0  0  0  0  0  0  0  0  0  0  0  0
  -21.7210   -6.3470   22.5810 C   0  0  0  0  0  0  0  0  0  0  0  0
  -21.2920   -6.9030   23.8050 C   0  0  0  0  0  3  0  0  0  0  0  0
  -21.1730   -6.0840   24.9470 C   0  0  0  0  0  3  0  0  0  0  0  0
  -21.4750   -4.7110   24.8640 C   0  0  0  0  0  0  0  0  0  0  0  0
  -21.8980   -4.1550   23.6440 C   0  0  0  0  0  3  0  0  0  0  0  0
  -22.0150   -4.9710   22.5050 C   0  0  0  0  0  0  0  0  0  0  0  0
  -22.4010   -4.4240   21.3270 F   0  0  0  0  0  0  0  0  0  0  0  0
  -21.3540   -3.9260   25.9590 F   0  0  0  0  0  0  0  0  0  0  0  0
  -22.9900  -13.7020   21.1340 C   0  0  0  0  0  0  0  0  0  0  0  0
  -22.2590  -13.0130   22.0030 N   0  0  0  0  0  0  0  0  0  0  0  0
  -22.5690  -14.7410   20.6280 O   0  0  0  0  0  0  0  0  0  0  0  0
  -22.6130  -12.1670   22.4250 H   0  0  0  0  0  0  0  0  0  0  0  0
  -21.3330  -13.3340   22.2450 H   0  0  0  0  0  0  0  0  0  0  0  0
  -25.6290  -15.3320   20.3070 N   0  0  0  0  0  0  0  0  0  0  0  0
  -24.8730  -15.9900   20.4530 H   0  0  0  0  0  0  0  0  0  0  0  0
  -26.4700  -15.7730   19.9570 H   0  0  0  0  0  0  0  0  0  0  0  0
  -30.1330  -21.8590   23.6510 C   0  0  0  0  0  1  0  0  0  0  0  0
  -31.0780  -21.6290   22.4590 C   0  0  0  0  0  2  0  0  0  0  0  0
  -28.3150  -26.1900   20.3270 O   0  0  0  0  0  0  0  0  0  0  0  0
  -24.6130  -31.8590   23.2000 C   0  0  0  0  0  0  0  0  0  0  0  0
  -27.2380  -27.1510   20.2050 C   0  0  0  0  0  0  0  0  0  0  0  0
  -23.4260  -30.4550   21.5560 C   0  0  0  0  0  3  0  0  0  0  0  0
  -24.8900  -28.8750   20.1500 C   0  0  0  0  0  0  0  0  0  0  0  0
  -25.9780  -30.7320   21.4000 C   0  0  0  0  0  2  0  0  0  0  0  0
  -26.0600  -29.3340   20.7650 C   0  0  0  0  0  0  0  0  0  0  0  0
  -27.2310  -28.4870   20.7800 C   0  0  0  0  0  3  0  0  0  0  0  0
  -26.0400  -26.8020   19.5350 C   0  0  0  0  0  3  0  0  0  0  0  0
  -24.8920  -27.6220   19.5220 C   0  0  0  0  0  3  0  0  0  0  0  0
  -23.6570  -29.7670   20.1810 C   0  0  0  0  0  2  0  0  0  0  0  0
  -24.6920  -31.0410   22.1070 N   0  0  0  0  0  0  0  0  0  0  0  0
  -23.5250  -32.1370   23.7290 O   0  0  0  0  0  0  0  0  0  0  0  0
  -22.7470  -29.4570   22.5270 C   0  0  0  0  0  0  0  0  0  0  0  0
  -21.4160  -29.2920   22.4170 N   0  0  0  0  0  0  0  0  0  0  0  0
  -23.4220  -28.8280   23.3450 O   0  0  0  0  0  0  0  0  0  0  0  0
  -20.9170  -29.8630   21.7480 H   0  0  0  0  0  0  0  0  0  0  0  0
  -18.0430  -28.0890   22.9480 C   0  0  0  0  0  0  0  0  0  0  0  0
  -20.6030  -28.3550   23.1980 C   0  0  0  0  0  3  0  0  0  0  0  0
  -20.7010  -26.9190   22.6360 C   0  0  0  0  0  2  0  0  0  0  0  0
  -19.5960  -26.5900   21.6260 C   0  0  0  0  0  2  0  0  0  0  0  0
  -18.2160  -26.7400   22.2730 C   0  0  0  0  0  2  0  0  0  0  0  0
  -19.1630  -28.8520   23.3710 C   0  0  0  0  0  0  0  0  0  0  0  0
  -18.9500  -30.1140   23.9670 C   0  0  0  0  0  3  0  0  0  0  0  0
  -17.6440  -30.6150   24.1410 C   0  0  0  0  0  3  0  0  0  0  0  0
  -16.5380  -29.8520   23.7310 C   0  0  0  0  0  3  0  0  0  0  0  0
  -16.7360  -28.5910   23.1380 C   0  0  0  0  0  3  0  0  0  0  0  0
  -25.8850  -32.5070   23.8310 C   0  0  0  0  0  3  0  0  0  0  0  0
  -25.5580  -33.9030   24.1700 N   0  0  0  0  0  0  0  0  0  0  0  0
  -25.8740  -34.9680   23.4210 C   0  0  0  0  0  0  0  0  0  0  0  0
  -26.5360  -34.8800   22.3850 O   0  0  0  0  0  0  0  0  0  0  0  0
  -24.9760  -34.0420   24.9820 H   0  0  0  0  0  0  0  0  0  0  0  0
  -24.1210  -36.7460   23.1140 C   0  0  0  0  0  1  0  0  0  0  0  0
  -25.3810  -36.3480   23.8990 C   0  0  0  0  0  3  0  0  0  0  0  0
  -27.5210  -37.2600   24.6880 C   0  0  0  0  0  1  0  0  0  0  0  0
  -26.3970  -37.4150   23.7690 N   0  0  0  0  0  0  0  0  0  0  0  0
  -25.9810  -38.3280   23.9300 H   0  0  0  0  0  0  0  0  0  0  0  0
  -26.4020  -31.7410   25.1120 C   0  0  1  0  0  0  0  0  0  0  0  0
  -25.3090  -31.5110   26.1820 C   0  0  0  0  0  1  0  0  0  0  0  0
  -26.9880  -30.3620   24.7270 C   0  0  0  0  0  1  0  0  0  0  0  0
  -27.5410  -32.5410   25.7780 C   0  0  0  0  0  1  0  0  0  0  0  0
  1  2  2  0
  2  6  1  0
  3  1  1  0
  3  4  1  0
  4  7  1  0
  6 11  1  0
  6  5  1  0
  7 54  1  0
  7  5  1  0
  9  8  2  0
 10 13  2  0
 10 11  1  0
 11 12  2  0
 12  8  1  0
 12 53  1  0
 13  9  1  0
 15 20  1  0
 16 17  1  0
 16 15  1  0
 18 17  1  0
 18 27  1  0
 18 19  1  0
 20 14  1  0
 20 19  1  0
 21 14  2  0
 22 14  1  0
 22 13  1  0
 23 22  1  0
 24 25  2  0
 25 44  1  0
 26 25  1  0
 26 29  1  0
 27 24  1  0
 27 28  1  0
 28 26  2  0
 29 30  1  0
 30 31  2  0
 32 35  1  0
 32 31  1  0
 33 32  2  0
 34 33  1  0
 34 29  2  0
 35 36  1  0
 36 37  1  0
 37 38  2  0
 39 38  1  0
 39 43  1  0
 40 39  2  0
 41 36  2  0
 41 40  1  0
 42 41  1  0
 44 45  1  0
 45 48  1  0
 45 47  1  0
 46 44  2  0
 49 50  1  0
 49 24  1  0
 51 49  1  0
 53 52  1  0
 55 66  2  0
 56 54  1  0
 56 61  1  0
 57 65  1  0
 57 67  1  0
 58 64  1  0
 58 60  1  0
 59 65  1  0
 60 61  2  0
 60 59  1  0
 62 56  2  0
 63 62  1  0
 63 58  2  0
 64 57  1  0
 65 55  1  0
 67 69  2  0
 68 67  1  0
 70 68  1  0
 71 80  2  0
 71 76  1  0
 72 68  1  0
 72 76  1  0
 73 72  1  0
 74 75  1  0
 74 73  1  0
 75 71  1  0
 76 77  2  0
 77 78  1  0
 79 78  2  0
 80 79  1  0
 81 55  1  0
 81 82  1  0
 81 91  1  0
 82 85  1  0
 83 87  1  0
 83 82  1  0
 84 83  2  0
 87 86  1  0
 89 87  1  0
 89 90  1  0
 89 88  1  0
 91 94  1  1
 91 92  1  0
 93 91  1  0
M  ISO  4   7 101  14 100  22 100  54 101
M  END
>  <TORSDO>  (64) 
F 18

>  <SCORE>  (64) 
-15.630

>  <name>  (64) 
63

>  <ligand_id>  (64) 
63

>  <original_smiles>  (64) 
[H]C1=C([H])C([H])(c2c([H])c(N([H])C(=O)N3C([H])([H])C([H])([H])C([H])([H])C([H])(n4nc(-c5c([H])c([H])c(Oc6c([H])c([H])c(F)c([H])c6F)c([H])c5[H])c(C(=O)N([H])[H])c4N([H])[H])C3([H])[H])c([H])c([H])c2C([H])([H])C([H])([H])[H])C([H])([H])C([H])(Oc2c([H])c([H])c3c(c2[H])C([H])([H])N(C(=O)C([H])(N([H])C(=O)C([H])(N([H])C([H])([H])[H])C([H])([H])[H])C(C([H])([H])[H])(C([H])([H])[H])C([H])([H])[H])C([H])(C(=O)N([H])C2([H])c4c([H])c([H])c([H])c([H])c4C([H])([H])C([H])([H])C2([H])[H])C3([H])[H])C([H])([H])C1([H])[H]

>  <smiles>  (64) 
[H]C1=C([H])C([H])(c2c([H])c(N([H])C(=O)N3C([H])([H])C([H])([H])C([H])([H])C([H])(n4nc(-c5c([H])c([H])c(Oc6c([H])c([H])c(F)c([H])c6F)c([H])c5[H])c(C(=O)N([H])[H])c4N([H])[H])C3([H])[H])c([H])c([H])c2C([H])([H])C([H])([H])[H])C([H])([H])C([H])(Oc2c([H])c([H])c3c(c2[H])C([H])([H])N(C(=O)C([H])(N([H])C(=O)C([H])(N([H])C([H])([H])[H])C([H])([H])[H])C(C([H])([H])[H])(C([H])([H])[H])C([H])([H])[H])C([H])(C(=O)N([H])C2([H])c4c([H])c([H])c([H])c([H])c4C([H])([H])C([H])([H])C2([H])[H])C3([H])[H])C([H])([H])C1([H])[H]

$$$$
64:0:0
     RDKit          3D

 92102  0  0  1  0  0  0  0  0999 V2000
  -30.8870  -15.2650   20.0180 C   0  0  0  0  0  0  0  0  0  0  0  0
  -30.7470  -12.8370   19.2260 C   0  0  0  0  0  2  0  0  0  0  0  0
  -29.7960  -12.6220   18.0290 C   0  0  0  0  0  2  0  0  0  0  0  0
  -28.3710  -12.3530   18.5390 C   0  0  0  0  0  2  0  0  0  0  0  0
  -27.9440  -13.3620   19.6350 C   0  0  0  0  0  3  0  0  0  0  0  0
  -29.0270  -13.5800   20.7140 C   0  0  0  0  0  2  0  0  0  0  0  0
  -30.2400  -14.0150   20.0110 N   0  0  0  0  0  0  0  0  0  0  0  0
  -32.0990  -15.1860   19.7740 O   0  0  0  0  0  0  0  0  0  0  0  0
  -28.6160  -22.2320   18.7480 C   0  0  0  0  0  3  0  0  0  0  0  0
  -28.3380  -23.6680   18.5370 C   0  0  0  0  0  3  0  0  0  0  0  0
  -28.6090  -24.0650   20.8030 C   0  0  0  0  0  3  0  0  0  0  0  0
  -28.9290  -21.5950   20.0110 C   0  0  0  0  0  0  0  0  0  0  0  0
  -28.8860  -22.6390   21.0270 C   0  0  0  0  0  0  0  0  0  0  0  0
  -28.3090  -24.7070   19.5510 C   0  0  0  0  0  0  0  0  0  0  0  0
  -29.1330  -22.2570   22.4790 C   0  0  0  0  0  2  0  0  0  0  0  0
  -29.9070  -20.9510   22.6560 C   0  0  0  0  0  2  0  0  0  0  0  0
  -29.2430  -19.8050   21.8890 C   0  0  0  0  0  2  0  0  0  0  0  0
  -30.7080  -19.3730   19.8600 C   0  0  0  0  0  2  0  0  0  0  0  0
  -28.4850  -18.7000   19.7760 C   0  0  0  0  0  2  0  0  0  0  0  0
  -31.1800  -17.8450   20.2250 C   0  0  0  0  0  2  0  0  0  0  0  0
  -28.8750  -17.1410   20.1940 C   0  0  0  0  0  2  0  0  0  0  0  0
  -29.3120  -19.9560   20.3480 C   0  0  2  0  0  0  0  0  0  0  0  0
  -30.2950  -16.6040   20.0960 N   0  0  0  0  0  0  0  0  0  0  0  0
  -25.6300  -13.9070   20.5590 C   0  0  0  0  0  0  0  0  0  0  0  0
  -24.5830  -13.1220   20.9510 C   0  0  0  0  0  0  0  0  0  0  0  0
  -25.0340  -11.7720   20.8290 C   0  0  0  0  0  0  0  0  0  0  0  0
  -26.6460  -13.0370   20.2090 N   0  0  0  0  0  0  0  0  0  0  0  0
  -26.3040  -11.7430   20.4400 N   0  0  0  0  0  0  0  0  0  0  0  0
  -24.3070  -10.5070   20.9990 C   0  0  0  0  0  0  0  0  0  0  0  0
  -24.7260   -9.5340   21.9330 C   0  0  0  0  0  3  0  0  0  0  0  0
  -23.9960   -8.3360   22.0930 C   0  0  0  0  0  3  0  0  0  0  0  0
  -22.8360   -8.1020   21.3180 C   0  0  0  0  0  0  0  0  0  0  0  0
  -22.4360   -9.0640   20.3730 C   0  0  0  0  0  3  0  0  0  0  0  0
  -23.1660  -10.2530   20.2120 C   0  0  0  0  0  3  0  0  0  0  0  0
  -22.0820   -6.9550   21.3860 O   0  0  0  0  0  0  0  0  0  0  0  0
  -21.9350   -6.2590   22.5580 C   0  0  0  0  0  0  0  0  0  0  0  0
  -21.3500   -6.8430   23.7030 C   0  0  0  0  0  3  0  0  0  0  0  0
  -21.1560   -6.0710   24.8650 C   0  0  0  0  0  3  0  0  0  0  0  0
  -21.5350   -4.7150   24.8830 C   0  0  0  0  0  0  0  0  0  0  0  0
  -22.1130   -4.1310   23.7420 C   0  0  0  0  0  3  0  0  0  0  0  0
  -22.3100   -4.9000   22.5820 C   0  0  0  0  0  0  0  0  0  0  0  0
  -22.8470   -4.3270   21.4780 F   0  0  0  0  0  0  0  0  0  0  0  0
  -21.3420   -3.9700   25.9960 F   0  0  0  0  0  0  0  0  0  0  0  0
  -23.2100  -13.5960   21.3220 C   0  0  0  0  0  0  0  0  0  0  0  0
  -22.5390  -12.8870   22.2210 N   0  0  0  0  0  0  0  0  0  0  0  0
  -22.7440  -14.6340   20.8530 O   0  0  0  0  0  0  0  0  0  0  0  0
  -22.9330  -12.0480   22.6210 H   0  0  0  0  0  0  0  0  0  0  0  0
  -21.6210  -13.1890   22.5170 H   0  0  0  0  0  0  0  0  0  0  0  0
  -25.7910  -15.2850   20.4420 N   0  0  0  0  0  0  0  0  0  0  0  0
  -25.0350  -15.9310   20.6390 H   0  0  0  0  0  0  0  0  0  0  0  0
  -26.6220  -15.7410   20.0940 H   0  0  0  0  0  0  0  0  0  0  0  0
  -28.2700  -26.1920   19.3470 O   0  0  0  0  0  0  0  0  0  0  0  0
  -24.7200  -31.6350   22.9760 C   0  0  0  0  0  0  0  0  0  0  0  0
  -27.1880  -27.1580   19.4670 C   0  0  0  0  0  0  0  0  0  0  0  0
  -23.4700  -30.3890   21.2540 C   0  0  0  0  0  3  0  0  0  0  0  0
  -24.8710  -28.9350   19.6520 C   0  0  0  0  0  0  0  0  0  0  0  0
  -26.0200  -30.6550   21.0400 C   0  0  0  0  0  2  0  0  0  0  0  0
  -26.0700  -29.3170   20.2680 C   0  0  0  0  0  0  0  0  0  0  0  0
  -27.2250  -28.4460   20.1560 C   0  0  0  0  0  3  0  0  0  0  0  0
  -25.9640  -26.8920   18.8210 C   0  0  0  0  0  3  0  0  0  0  0  0
  -24.8330  -27.7400   18.9130 C   0  0  0  0  0  3  0  0  0  0  0  0
  -23.6530  -29.8380   19.8130 C   0  0  0  0  0  2  0  0  0  0  0  0
  -24.7580  -30.9120   21.8130 N   0  0  0  0  0  0  0  0  0  0  0  0
  -23.6490  -31.8710   23.5590 O   0  0  0  0  0  0  0  0  0  0  0  0
  -22.8170  -29.3020   22.1450 C   0  0  0  0  0  0  0  0  0  0  0  0
  -21.4840  -29.1450   22.0500 N   0  0  0  0  0  0  0  0  0  0  0  0
  -23.5120  -28.6030   22.8870 O   0  0  0  0  0  0  0  0  0  0  0  0
  -20.9760  -29.7620   21.4300 H   0  0  0  0  0  0  0  0  0  0  0  0
  -18.1120  -27.9370   22.6010 C   0  0  0  0  0  0  0  0  0  0  0  0
  -20.6860  -28.1400   22.7600 C   0  0  0  0  0  3  0  0  0  0  0  0
  -20.7330  -26.7770   22.0320 C   0  0  0  0  0  2  0  0  0  0  0  0
  -19.5760  -26.5780   21.0480 C   0  0  0  0  0  2  0  0  0  0  0  0
  -18.2310  -26.6680   21.7760 C   0  0  0  0  0  2  0  0  0  0  0  0
  -19.2640  -28.6370   23.0510 C   0  0  0  0  0  0  0  0  0  0  0  0
  -19.0940  -29.8270   23.7900 C   0  0  0  0  0  3  0  0  0  0  0  0
  -17.8070  -30.3190   24.0800 C   0  0  0  0  0  3  0  0  0  0  0  0
  -16.6710  -29.6160   23.6430 C   0  0  0  0  0  3  0  0  0  0  0  0
  -16.8250  -28.4250   22.9100 C   0  0  0  0  0  3  0  0  0  0  0  0
  -26.0150  -32.2160   23.6200 C   0  0  0  0  0  3  0  0  0  0  0  0
  -25.7140  -33.5800   24.0860 N   0  0  0  0  0  0  0  0  0  0  0  0
  -25.9730  -34.7000   23.3950 C   0  0  0  0  0  0  0  0  0  0  0  0
  -26.5560  -34.6920   22.3100 O   0  0  0  0  0  0  0  0  0  0  0  0
  -25.1890  -33.6580   24.9440 H   0  0  0  0  0  0  0  0  0  0  0  0
  -24.1860  -36.4730   23.3610 C   0  0  0  0  0  1  0  0  0  0  0  0
  -25.5120  -36.0390   24.0060 C   0  0  0  0  0  3  0  0  0  0  0  0
  -27.7010  -36.9250   24.6860 C   0  0  0  0  0  1  0  0  0  0  0  0
  -26.5090  -37.1240   23.8660 N   0  0  0  0  0  0  0  0  0  0  0  0
  -26.1010  -38.0210   24.1120 H   0  0  0  0  0  0  0  0  0  0  0  0
  -26.5610  -31.3400   24.8150 C   0  0  1  0  0  0  0  0  0  0  0  0
  -25.4980  -31.0230   25.8930 C   0  0  0  0  0  1  0  0  0  0  0  0
  -27.1190  -29.9940   24.3000 C   0  0  0  0  0  1  0  0  0  0  0  0
  -27.7360  -32.0700   25.5060 C   0  0  0  0  0  1  0  0  0  0  0  0
  1 23  1  0
  2  7  1  0
  3  4  1  0
  3  2  1  0
  5  4  1  0
  5 27  1  0
  5  6  1  0
  7  1  1  0
  7  6  1  0
  8  1  2  0
  9 12  1  0
 10  9  2  0
 10 14  1  0
 11 13  1  0
 12 22  1  0
 12 13  2  0
 13 15  1  0
 14 11  2  0
 15 16  1  0
 17 16  1  0
 18 20  1  0
 22 18  1  6
 19 21  1  0
 22 19  1  0
 22 17  1  0
 23 21  1  0
 23 20  1  0
 24 25  2  0
 25 44  1  0
 26 25  1  0
 26 29  1  0
 27 28  1  0
 27 24  1  0
 28 26  2  0
 29 30  1  0
 30 31  2  0
 32 35  1  0
 32 31  1  0
 33 32  2  0
 34 33  1  0
 34 29  2  0
 35 36  1  0
 36 41  2  0
 36 37  1  0
 37 38  2  0
 38 39  1  0
 39 43  1  0
 40 39  2  0
 41 40  1  0
 42 41  1  0
 44 45  1  0
 45 48  1  0
 45 47  1  0
 46 44  2  0
 49 24  1  0
 49 50  1  0
 51 49  1  0
 52 54  1  0
 52 14  1  0
 53 64  2  0
 54 59  1  0
 55 63  1  0
 55 65  1  0
 56 62  1  0
 56 58  1  0
 57 63  1  0
 58 57  1  0
 59 58  2  0
 60 61  1  0
 60 54  2  0
 61 56  2  0
 62 55  1  0
 63 53  1  0
 65 67  2  0
 66 65  1  0
 68 66  1  0
 69 78  2  0
 69 74  1  0
 70 66  1  0
 70 74  1  0
 71 70  1  0
 72 73  1  0
 72 71  1  0
 73 69  1  0
 74 75  2  0
 75 76  1  0
 77 76  2  0
 78 77  1  0
 79 53  1  0
 79 80  1  0
 79 89  1  0
 80 83  1  0
 81 85  1  0
 81 80  1  0
 82 81  2  0
 85 84  1  0
 87 85  1  0
 87 88  1  0
 87 86  1  0
 89 92  1  1
 89 90  1  0
 91 89  1  0
M  ISO  4   1 100  14 101  23 100  52 101
M  END
>  <TORSDO>  (65) 
F 15

>  <SCORE>  (65) 
-14.110

>  <name>  (65) 
64

>  <ligand_id>  (65) 
64

>  <original_smiles>  (65) 
[H]c1c([H])c([H])c2c(c1[H])C([H])([H])C([H])([H])C([H])([H])C2([H])N([H])C(=O)C1([H])N(C(=O)C([H])(N([H])C(=O)C([H])(N([H])C([H])([H])[H])C([H])([H])[H])C(C([H])([H])[H])(C([H])([H])[H])C([H])([H])[H])C([H])([H])c2c([H])c(Oc3c([H])c([H])c4c(c3[H])C([H])([H])C([H])([H])C([H])([H])C43C([H])([H])C([H])([H])N(C(=O)N4C([H])([H])C([H])([H])C([H])([H])C([H])(n5nc(-c6c([H])c([H])c(Oc7c([H])c([H])c(F)c([H])c7F)c([H])c6[H])c(C(=O)N([H])[H])c5N([H])[H])C4([H])[H])C([H])([H])C3([H])[H])c([H])c([H])c2C1([H])[H]

>  <smiles>  (65) 
[H]c1c([H])c([H])c2c(c1[H])C([H])([H])C([H])([H])C([H])([H])C2([H])N([H])C(=O)C1([H])N(C(=O)C([H])(N([H])C(=O)C([H])(N([H])C([H])([H])[H])C([H])([H])[H])C(C([H])([H])[H])(C([H])([H])[H])C([H])([H])[H])C([H])([H])c2c([H])c(Oc3c([H])c([H])c4c(c3[H])C([H])([H])C([H])([H])C([H])([H])C43C([H])([H])C([H])([H])N(C(=O)N4C([H])([H])C([H])([H])C([H])([H])C([H])(n5nc(-c6c([H])c([H])c(Oc7c([H])c([H])c(F)c([H])c7F)c([H])c6[H])c(C(=O)N([H])[H])c5N([H])[H])C4([H])[H])C([H])([H])C3([H])[H])c([H])c([H])c2C1([H])[H]

$$$$
65:0:0
     RDKit          3D

 99108  0  0  1  0  0  0  0  0999 V2000
  -29.1150  -22.5180   21.8320 C   0  0  0  0  0  3  0  0  0  0  0  0
  -29.8030  -20.1650   21.7590 C   0  0  0  0  0  3  0  0  0  0  0  0
  -29.7760  -21.4120   22.4250 C   0  0  0  0  0  0  0  0  0  0  0  0
  -28.5280  -22.4250   20.5510 C   0  0  0  0  0  0  0  0  0  0  0  0
  -28.6390  -21.1510   19.8660 C   0  0  0  0  0  0  0  0  0  0  0  0
  -29.2310  -19.9720   20.4860 C   0  0  0  0  0  0  0  0  0  0  0  0
  -28.0980  -21.1150   18.4450 C   0  0  0  0  0  2  0  0  0  0  0  0
  -28.3820  -22.4230   17.6600 C   0  0  0  0  0  3  0  0  0  0  0  0
  -28.3020  -23.7670   18.4470 C   0  0  0  0  0  3  0  0  0  0  0  0
  -27.7810  -23.6760   19.9030 C   0  0  1  0  0  0  0  0  0  0  0  0
  -26.3460  -23.3360   19.8780 N   0  0  0  0  0  4  0  0  0  0  0  0
  -26.2000  -22.4690   19.3950 H   0  0  0  0  0  0  0  0  0  0  0  0
  -25.8190  -24.0490   19.4040 H   0  0  0  0  0  0  0  0  0  0  0  0
  -25.9850  -23.2290   20.8110 H   0  0  0  0  0  0  0  0  0  0  0  0
  -30.4540  -21.5190   23.7540 C   0  0  0  0  0  0  0  0  0  0  0  0
  -30.3920  -22.8540   24.4870 C   0  0  0  0  0  1  0  0  0  0  0  0
  -31.0600  -20.5840   24.2870 O   0  0  0  0  0  0  0  0  0  0  0  0
  -29.1680  -18.4670   19.9670 C   0  0  0  0  0  2  0  0  0  0  0  0
  -30.2870  -17.3880   20.3850 C   0  0  0  0  0  2  0  0  0  0  0  0
  -30.7480  -14.8090   20.1110 C   0  0  0  0  0  0  0  0  0  0  0  0
  -30.5690  -12.4930   19.2070 C   0  0  0  0  0  2  0  0  0  0  0  0
  -29.6040  -12.4960   18.0010 C   0  0  0  0  0  2  0  0  0  0  0  0
  -28.1430  -12.3330   18.4660 C   0  0  0  0  0  2  0  0  0  0  0  0
  -27.7810  -13.2760   19.6420 C   0  0  0  0  0  3  0  0  0  0  0  0
  -28.8590  -13.2470   20.7480 C   0  0  0  0  0  2  0  0  0  0  0  0
  -30.1440  -13.5770   20.1160 N   0  0  0  0  0  0  0  0  0  0  0  0
  -31.9220  -14.9360   19.7530 O   0  0  0  0  0  0  0  0  0  0  0  0
  -29.9450  -15.9070   20.3210 N   0  0  0  0  0  0  0  0  0  0  0  0
  -28.9890  -15.6760   20.5450 H   0  0  0  0  0  0  0  0  0  0  0  0
  -25.4210  -13.8870   20.4510 C   0  0  0  0  0  0  0  0  0  0  0  0
  -24.3590  -13.1180   20.8410 C   0  0  0  0  0  0  0  0  0  0  0  0
  -24.8060  -11.7620   20.7740 C   0  0  0  0  0  0  0  0  0  0  0  0
  -26.4480  -13.0000   20.1690 N   0  0  0  0  0  0  0  0  0  0  0  0
  -26.0860  -11.7160   20.4250 N   0  0  0  0  0  0  0  0  0  0  0  0
  -24.0730  -10.5040   20.9620 C   0  0  0  0  0  0  0  0  0  0  0  0
  -24.4920   -9.5390   21.9050 C   0  0  0  0  0  3  0  0  0  0  0  0
  -23.7600   -8.3450   22.0810 C   0  0  0  0  0  3  0  0  0  0  0  0
  -22.5940   -8.1080   21.3140 C   0  0  0  0  0  0  0  0  0  0  0  0
  -22.1940   -9.0620   20.3610 C   0  0  0  0  0  3  0  0  0  0  0  0
  -22.9280  -10.2470   20.1840 C   0  0  0  0  0  3  0  0  0  0  0  0
  -21.8340   -6.9660   21.3990 O   0  0  0  0  0  0  0  0  0  0  0  0
  -21.7310   -6.2570   22.5680 C   0  0  0  0  0  0  0  0  0  0  0  0
  -21.2250   -6.8390   23.7510 C   0  0  0  0  0  3  0  0  0  0  0  0
  -21.0700   -6.0530   24.9120 C   0  0  0  0  0  3  0  0  0  0  0  0
  -21.4110   -4.6880   24.8890 C   0  0  0  0  0  0  0  0  0  0  0  0
  -21.9100   -4.1060   23.7110 C   0  0  0  0  0  3  0  0  0  0  0  0
  -22.0670   -4.8870   22.5520 C   0  0  0  0  0  0  0  0  0  0  0  0
  -22.5270   -4.3170   21.4130 F   0  0  0  0  0  0  0  0  0  0  0  0
  -21.2550   -3.9310   26.0010 F   0  0  0  0  0  0  0  0  0  0  0  0
  -22.9750  -13.6040   21.1610 C   0  0  0  0  0  0  0  0  0  0  0  0
  -22.2680  -12.9020   22.0400 N   0  0  0  0  0  0  0  0  0  0  0  0
  -22.5310  -14.6400   20.6670 O   0  0  0  0  0  0  0  0  0  0  0  0
  -22.6400  -12.0630   22.4590 H   0  0  0  0  0  0  0  0  0  0  0  0
  -21.3400  -13.2110   22.2980 H   0  0  0  0  0  0  0  0  0  0  0  0
  -25.5930  -15.2580   20.2880 N   0  0  0  0  0  0  0  0  0  0  0  0
  -24.8300  -15.9130   20.4190 H   0  0  0  0  0  0  0  0  0  0  0  0
  -26.4190  -15.6900   19.8950 H   0  0  0  0  0  0  0  0  0  0  0  0
  -27.9030  -25.1180   20.6540 C   0  0  0  0  0  2  0  0  0  0  0  0
  -27.9060  -26.4310   19.9360 O   0  0  0  0  0  0  0  0  0  0  0  0
  -24.4810  -31.9580   23.1960 C   0  0  0  0  0  0  0  0  0  0  0  0
  -26.8040  -27.2990   20.0340 C   0  0  0  0  0  0  0  0  0  0  0  0
  -23.1540  -30.5820   21.6360 C   0  0  0  0  0  3  0  0  0  0  0  0
  -24.4850  -28.9800   20.1490 C   0  0  0  0  0  0  0  0  0  0  0  0
  -25.6880  -30.8260   21.3140 C   0  0  0  0  0  2  0  0  0  0  0  0
  -25.6980  -29.4400   20.6740 C   0  0  0  0  0  0  0  0  0  0  0  0
  -26.8620  -28.6130   20.6030 C   0  0  0  0  0  3  0  0  0  0  0  0
  -25.5670  -26.8920   19.4940 C   0  0  0  0  0  3  0  0  0  0  0  0
  -24.4210  -27.7120   19.5490 C   0  0  0  0  0  3  0  0  0  0  0  0
  -23.2760  -29.8900   20.2530 C   0  0  0  0  0  2  0  0  0  0  0  0
  -24.4630  -31.1390   22.1040 N   0  0  0  0  0  0  0  0  0  0  0  0
  -23.4360  -32.2670   23.7880 O   0  0  0  0  0  0  0  0  0  0  0  0
  -22.5180  -29.5900   22.6400 C   0  0  0  0  0  0  0  0  0  0  0  0
  -21.2030  -29.3520   22.5050 N   0  0  0  0  0  0  0  0  0  0  0  0
  -23.2090  -29.0350   23.5000 O   0  0  0  0  0  0  0  0  0  0  0  0
  -20.7030  -29.8520   21.7830 H   0  0  0  0  0  0  0  0  0  0  0  0
  -17.9050  -27.9180   22.9170 C   0  0  0  0  0  0  0  0  0  0  0  0
  -20.4100  -28.4210   23.3110 C   0  0  0  0  0  3  0  0  0  0  0  0
  -20.6660  -26.9580   22.8820 C   0  0  0  0  0  2  0  0  0  0  0  0
  -19.6640  -26.4500   21.8410 C   0  0  0  0  0  2  0  0  0  0  0  0
  -18.2350  -26.5340   22.3850 C   0  0  0  0  0  2  0  0  0  0  0  0
  -18.9280  -28.8100   23.3370 C   0  0  0  0  0  0  0  0  0  0  0  0
  -18.5710  -30.0980   23.7920 C   0  0  0  0  0  3  0  0  0  0  0  0
  -17.2210  -30.4980   23.8320 C   0  0  0  0  0  3  0  0  0  0  0  0
  -16.2110  -29.6060   23.4300 C   0  0  0  0  0  3  0  0  0  0  0  0
  -16.5540  -28.3190   22.9780 C   0  0  0  0  0  3  0  0  0  0  0  0
  -25.8120  -32.5590   23.7430 C   0  0  0  0  0  3  0  0  0  0  0  0
  -25.5410  -33.9480   24.1370 N   0  0  0  0  0  0  0  0  0  0  0  0
  -25.8290  -35.0240   23.3910 C   0  0  0  0  0  0  0  0  0  0  0  0
  -26.4180  -34.9490   22.3100 O   0  0  0  0  0  0  0  0  0  0  0  0
  -25.0000  -34.0820   24.9790 H   0  0  0  0  0  0  0  0  0  0  0  0
  -24.0900  -36.8390   23.2440 C   0  0  0  0  0  1  0  0  0  0  0  0
  -25.3930  -36.4000   23.9310 C   0  0  0  0  0  3  0  0  0  0  0  0
  -27.5940  -37.2510   24.6110 C   0  0  0  0  0  1  0  0  0  0  0  0
  -26.4210  -37.4500   23.7640 N   0  0  0  0  0  0  0  0  0  0  0  0
  -26.0350  -38.3670   23.9700 H   0  0  0  0  0  0  0  0  0  0  0  0
  -26.4130  -31.7450   24.9540 C   0  0  1  0  0  0  0  0  0  0  0  0
  -25.3950  -31.4790   26.0870 C   0  0  0  0  0  1  0  0  0  0  0  0
  -26.9590  -30.3770   24.4820 C   0  0  0  0  0  1  0  0  0  0  0  0
  -27.6140  -32.5140   25.5560 C   0  0  0  0  0  1  0  0  0  0  0  0
  1  3  1  0
  2  3  2  0
  3 15  1  0
  4  1  2  0
  5  6  2  0
  5  4  1  0
  6  2  1  0
  7  5  1  0
  8  7  1  0
  8  9  2  0
  9 10  1  0
 10  4  1  0
 10 58  1  1
 11 10  1  0
 11 14  1  0
 12 11  1  0
 13 11  1  0
 15 17  2  0
 15 16  1  0
 18 19  1  0
 18  6  1  0
 20 26  1  0
 20 28  1  0
 21 26  1  0
 22 23  1  0
 22 21  1  0
 24 23  1  0
 24 33  1  0
 24 25  1  0
 26 25  1  0
 27 20  2  0
 28 19  1  0
 28 29  1  0
 30 31  2  0
 31 50  1  0
 32 31  1  0
 32 35  1  0
 33 34  1  0
 33 30  1  0
 34 32  2  0
 35 36  1  0
 36 37  2  0
 38 41  1  0
 38 37  1  0
 39 38  2  0
 40 39  1  0
 40 35  2  0
 41 42  1  0
 42 43  1  0
 43 44  2  0
 45 44  1  0
 45 49  1  0
 46 45  2  0
 47 42  2  0
 47 46  1  0
 48 47  1  0
 50 51  1  0
 51 54  1  0
 51 53  1  0
 52 50  2  0
 55 56  1  0
 55 30  1  0
 57 55  1  0
 59 61  1  0
 59 58  1  0
 60 71  2  0
 61 66  1  0
 62 70  1  0
 62 72  1  0
 63 69  1  0
 63 65  1  0
 64 70  1  0
 65 64  1  0
 66 65  2  0
 67 68  1  0
 67 61  2  0
 68 63  2  0
 69 62  1  0
 70 60  1  0
 72 74  2  0
 73 72  1  0
 75 73  1  0
 76 85  2  0
 76 81  1  0
 77 73  1  0
 77 81  1  0
 78 77  1  0
 79 80  1  0
 79 78  1  0
 80 76  1  0
 81 82  2  0
 82 83  1  0
 84 83  2  0
 85 84  1  0
 86 60  1  0
 86 87  1  0
 86 96  1  0
 87 90  1  0
 88 92  1  0
 88 87  1  0
 89 88  2  0
 92 91  1  0
 94 92  1  0
 94 95  1  0
 94 93  1  0
 96 99  1  1
 96 97  1  0
 98 96  1  0
M  ISO  4  20 100  28 100  58 101  59 101
M  END
>  <TORSDO>  (66) 
F 21

>  <SCORE>  (66) 
-13.663

>  <name>  (66) 
65

>  <ligand_id>  (66) 
65

>  <original_smiles>  (66) 
[H]c1c([H])c([H])c2c(c1[H])C([H])([H])C([H])([H])C([H])([H])C2([H])N([H])C(=O)C1([H])N(C(=O)C([H])(N([H])C(=O)C([H])(N([H])C([H])([H])[H])C([H])([H])[H])C(C([H])([H])[H])(C([H])([H])[H])C([H])([H])[H])C([H])([H])c2c([H])c(OC([H])([H])C3([N+]([H])([H])[H])c4c([H])c(C(=O)C([H])([H])[H])c([H])c(C([H])([H])C([H])([H])N([H])C(=O)N5C([H])([H])C([H])([H])C([H])([H])C([H])(n6nc(-c7c([H])c([H])c(Oc8c([H])c([H])c(F)c([H])c8F)c([H])c7[H])c(C(=O)N([H])[H])c6N([H])[H])C5([H])[H])c4C([H])([H])C([H])([H])C3([H])[H])c([H])c([H])c2C1([H])[H]

>  <smiles>  (66) 
[H]c1c([H])c([H])c2c(c1[H])C([H])([H])C([H])([H])C([H])([H])C2([H])N([H])C(=O)C1([H])N(C(=O)C([H])(N([H])C(=O)C([H])(N([H])C([H])([H])[H])C([H])([H])[H])C(C([H])([H])[H])(C([H])([H])[H])C([H])([H])[H])C([H])([H])c2c([H])c(OC([H])([H])C3([N+]([H])([H])[H])c4c([H])c(C(=O)C([H])([H])[H])c([H])c(C([H])([H])C([H])([H])N([H])C(=O)N5C([H])([H])C([H])([H])C([H])([H])C([H])(n6nc(-c7c([H])c([H])c(Oc8c([H])c([H])c(F)c([H])c8F)c([H])c7[H])c(C(=O)N([H])[H])c6N([H])[H])C5([H])[H])c4C([H])([H])C([H])([H])C3([H])[H])c([H])c([H])c2C1([H])[H]

$$$$
66:0:0
     RDKit          3D

101110  0  0  1  0  0  0  0  0999 V2000
  -30.1310  -29.4040   14.9940 C   0  0  0  0  0  1  0  0  0  0  0  0
  -29.7200  -28.0770   15.5310 N   0  0  2  0  0  4  0  0  0  0  0  0
  -28.7150  -28.1610   15.5780 H   0  0  0  0  0  0  0  0  0  0  0  0
  -31.7740  -28.3130   19.5980 C   0  0  0  0  0  2  0  0  0  0  0  0
  -31.9160  -25.8660   18.9200 C   0  0  0  0  0  2  0  0  0  0  0  0
  -30.2560  -28.2200   19.8800 C   0  0  0  0  0  2  0  0  0  0  0  0
  -30.5700  -25.7510   19.6650 C   0  0  0  0  0  2  0  0  0  0  0  0
  -31.7370  -27.6900   17.0920 C   0  0  0  0  0  2  0  0  0  0  0  0
  -29.3500  -26.9040   17.7880 C   0  0  0  0  0  2  0  0  0  0  0  0
  -32.2490  -27.3230   18.5120 C   0  0  0  0  0  3  0  0  0  0  0  0
  -30.1990  -27.8880   16.9460 C   0  0  0  0  0  3  0  0  0  0  0  0
  -29.6070  -26.9170   19.3260 C   0  0  2  0  0  0  0  0  0  0  0  0
  -28.3960  -26.5710   20.0250 O   0  0  0  0  0  0  0  0  0  0  0  0
  -24.6130  -31.7850   23.1310 C   0  0  0  0  0  0  0  0  0  0  0  0
  -27.2720  -27.3780   20.0060 C   0  0  0  0  0  0  0  0  0  0  0  0
  -23.3930  -30.3990   21.4780 C   0  0  0  0  0  3  0  0  0  0  0  0
  -24.8510  -28.8550   20.0480 C   0  0  0  0  0  0  0  0  0  0  0  0
  -25.9190  -30.7500   21.2810 C   0  0  0  0  0  2  0  0  0  0  0  0
  -26.0050  -29.3830   20.6370 C   0  0  0  0  0  0  0  0  0  0  0  0
  -27.2130  -28.6520   20.6210 C   0  0  0  0  0  3  0  0  0  0  0  0
  -26.0940  -26.8560   19.4310 C   0  0  0  0  0  3  0  0  0  0  0  0
  -24.8880  -27.5870   19.4430 C   0  0  0  0  0  3  0  0  0  0  0  0
  -23.6010  -29.7100   20.1020 C   0  0  0  0  0  2  0  0  0  0  0  0
  -24.6610  -30.9890   22.0240 N   0  0  0  0  0  0  0  0  0  0  0  0
  -23.5340  -32.0620   23.6730 O   0  0  0  0  0  0  0  0  0  0  0  0
  -22.7300  -29.3830   22.4320 C   0  0  0  0  0  0  0  0  0  0  0  0
  -21.3980  -29.2420   22.3240 N   0  0  0  0  0  0  0  0  0  0  0  0
  -23.4100  -28.7240   23.2220 O   0  0  0  0  0  0  0  0  0  0  0  0
  -20.9060  -29.8070   21.6470 H   0  0  0  0  0  0  0  0  0  0  0  0
  -18.0100  -28.1410   22.8910 C   0  0  0  0  0  0  0  0  0  0  0  0
  -20.5780  -28.3110   23.0980 C   0  0  0  0  0  3  0  0  0  0  0  0
  -20.6200  -26.8910   22.4870 C   0  0  0  0  0  2  0  0  0  0  0  0
  -19.4820  -26.6280   21.4960 C   0  0  0  0  0  2  0  0  0  0  0  0
  -18.1240  -26.8040   22.1750 C   0  0  0  0  0  2  0  0  0  0  0  0
  -19.1640  -28.8570   23.3100 C   0  0  0  0  0  0  0  0  0  0  0  0
  -19.0060  -30.1140   23.9320 C   0  0  0  0  0  3  0  0  0  0  0  0
  -17.7240  -30.6550   24.1410 C   0  0  0  0  0  3  0  0  0  0  0  0
  -16.5830  -29.9370   23.7380 C   0  0  0  0  0  3  0  0  0  0  0  0
  -16.7280  -28.6840   23.1210 C   0  0  0  0  0  3  0  0  0  0  0  0
  -25.9020  -32.4050   23.7570 C   0  0  0  0  0  3  0  0  0  0  0  0
  -25.5910  -33.7910   24.1280 N   0  0  0  0  0  0  0  0  0  0  0  0
  -25.9050  -34.8650   23.3910 C   0  0  0  0  0  0  0  0  0  0  0  0
  -26.5650  -34.7950   22.3480 O   0  0  0  0  0  0  0  0  0  0  0  0
  -24.9840  -33.9190   24.9240 H   0  0  0  0  0  0  0  0  0  0  0  0
  -24.1460  -36.6470   23.1260 C   0  0  0  0  0  1  0  0  0  0  0  0
  -25.4140  -36.2370   23.8950 C   0  0  0  0  0  3  0  0  0  0  0  0
  -27.5600  -37.1160   24.6950 C   0  0  0  0  0  1  0  0  0  0  0  0
  -26.4330  -37.3040   23.7830 N   0  0  0  0  0  0  0  0  0  0  0  0
  -26.0240  -38.2180   23.9610 H   0  0  0  0  0  0  0  0  0  0  0  0
  -26.4410  -31.5950   24.9980 C   0  0  1  0  0  0  0  0  0  0  0  0
  -25.3610  -31.3170   26.0700 C   0  0  0  0  0  1  0  0  0  0  0  0
  -27.0200  -30.2310   24.5590 C   0  0  0  0  0  1  0  0  0  0  0  0
  -27.5920  -32.3760   25.6750 C   0  0  0  0  0  1  0  0  0  0  0  0
  -29.9780  -26.9790   14.5470 C   0  0  0  0  0  2  0  0  0  0  0  0
  -29.1610  -25.6820   14.7910 C   0  0  0  0  0  2  0  0  0  0  0  0
  -30.0270  -24.5100   15.2900 C   0  0  0  0  0  2  0  0  0  0  0  0
  -29.2280  -23.4520   16.0690 C   0  0  0  0  0  2  0  0  0  0  0  0
  -30.1390  -22.4400   16.7810 C   0  0  0  0  0  2  0  0  0  0  0  0
  -29.4500  -21.7910   17.9930 C   0  0  0  0  0  2  0  0  0  0  0  0
  -30.3740  -20.8010   18.7120 C   0  0  0  0  0  2  0  0  0  0  0  0
  -29.6750  -19.9910   19.8090 C   0  0  0  0  0  2  0  0  0  0  0  0
  -30.6420  -19.0030   20.4840 C   0  0  0  0  0  2  0  0  0  0  0  0
  -29.9670  -17.6890   20.8890 C   0  0  0  0  0  2  0  0  0  0  0  0
  -30.9440  -16.6650   21.5020 C   0  0  0  0  0  2  0  0  0  0  0  0
  -30.3450  -15.2380   21.5100 C   0  0  0  0  0  2  0  0  0  0  0  0
  -30.7790  -14.2840   20.3720 C   0  0  0  0  0  0  0  0  0  0  0  0
  -30.3850  -12.2180   19.0670 C   0  0  0  0  0  2  0  0  0  0  0  0
  -29.4090  -12.4700   17.9000 C   0  0  0  0  0  2  0  0  0  0  0  0
  -27.9500  -12.3220   18.3740 C   0  0  0  0  0  2  0  0  0  0  0  0
  -27.6610  -13.1480   19.6580 C   0  0  0  0  0  3  0  0  0  0  0  0
  -28.7360  -12.8590   20.7320 C   0  0  0  0  0  2  0  0  0  0  0  0
  -30.0540  -13.1560   20.1470 N   0  0  0  0  0  0  0  0  0  0  0  0
  -31.7890  -14.5530   19.7120 O   0  0  0  0  0  0  0  0  0  0  0  0
  -25.2830  -13.8110   20.3910 C   0  0  0  0  0  0  0  0  0  0  0  0
  -24.2040  -13.0580   20.7870 C   0  0  0  0  0  0  0  0  0  0  0  0
  -24.6450  -11.7010   20.7660 C   0  0  0  0  0  0  0  0  0  0  0  0
  -26.3080  -12.9080   20.1590 N   0  0  0  0  0  0  0  0  0  0  0  0
  -25.9280  -11.6340   20.4360 N   0  0  0  0  0  0  0  0  0  0  0  0
  -23.9000  -10.4500   20.9830 C   0  0  0  0  0  0  0  0  0  0  0  0
  -24.3480   -9.4760   21.9020 C   0  0  0  0  0  3  0  0  0  0  0  0
  -23.6070   -8.2910   22.1050 C   0  0  0  0  0  3  0  0  0  0  0  0
  -22.4050   -8.0740   21.3890 C   0  0  0  0  0  0  0  0  0  0  0  0
  -21.9800   -9.0380   20.4570 C   0  0  0  0  0  3  0  0  0  0  0  0
  -22.7230  -10.2130   20.2510 C   0  0  0  0  0  3  0  0  0  0  0  0
  -21.6340   -6.9430   21.5010 O   0  0  0  0  0  0  0  0  0  0  0  0
  -21.6240   -6.1920   22.6470 C   0  0  0  0  0  0  0  0  0  0  0  0
  -21.2900   -6.7480   23.9030 C   0  0  0  0  0  3  0  0  0  0  0  0
  -21.2220   -5.9220   25.0430 C   0  0  0  0  0  3  0  0  0  0  0  0
  -21.4850   -4.5450   24.9340 C   0  0  0  0  0  0  0  0  0  0  0  0
  -21.8110   -3.9870   23.6830 C   0  0  0  0  0  3  0  0  0  0  0  0
  -21.8800   -4.8090   22.5450 C   0  0  0  0  0  0  0  0  0  0  0  0
  -22.1750   -4.2630   21.3400 F   0  0  0  0  0  0  0  0  0  0  0  0
  -21.4130   -3.7510   26.0280 F   0  0  0  0  0  0  0  0  0  0  0  0
  -22.8190  -13.5650   21.0730 C   0  0  0  0  0  0  0  0  0  0  0  0
  -22.0910  -12.8920   21.9610 N   0  0  0  0  0  0  0  0  0  0  0  0
  -22.3890  -14.5910   20.5520 O   0  0  0  0  0  0  0  0  0  0  0  0
  -22.4460  -12.0590   22.4080 H   0  0  0  0  0  0  0  0  0  0  0  0
  -21.1630  -13.2180   22.1920 H   0  0  0  0  0  0  0  0  0  0  0  0
  -25.4630  -15.1750   20.1910 N   0  0  0  0  0  0  0  0  0  0  0  0
  -24.7100  -15.8450   20.3120 H   0  0  0  0  0  0  0  0  0  0  0  0
  -26.3210  -15.5990   19.8600 H   0  0  0  0  0  0  0  0  0  0  0  0
  1  2  1  0
  2  3  1  1
  4  6  1  0
  5  7  1  0
  9 12  1  0
 10  8  1  0
 10  5  1  0
 10  4  1  0
 11  2  1  0
 11  8  1  0
 11  9  1  0
 12  7  1  0
 12  6  1  0
 12 13  1  1
 14 25  2  0
 15 13  1  0
 15 20  1  0
 16 24  1  0
 16 26  1  0
 17 23  1  0
 17 19  1  0
 18 24  1  0
 19 18  1  0
 20 19  2  0
 21 22  1  0
 21 15  2  0
 22 17  2  0
 23 16  1  0
 24 14  1  0
 26 28  2  0
 27 26  1  0
 29 27  1  0
 30 39  2  0
 30 35  1  0
 31 27  1  0
 31 35  1  0
 32 31  1  0
 33 34  1  0
 33 32  1  0
 34 30  1  0
 35 36  2  0
 36 37  1  0
 38 37  2  0
 39 38  1  0
 40 14  1  0
 40 41  1  0
 40 50  1  0
 41 44  1  0
 42 46  1  0
 42 41  1  0
 43 42  2  0
 46 45  1  0
 48 46  1  0
 48 49  1  0
 48 47  1  0
 50 53  1  1
 50 51  1  0
 52 50  1  0
 54 55  1  0
 54  2  1  0
 55 56  1  0
 56 57  1  0
 57 58  1  0
 58 59  1  0
 59 60  1  0
 60 61  1  0
 61 62  1  0
 62 63  1  0
 63 64  1  0
 64 65  1  0
 66 65  1  0
 67 72  1  0
 68 69  1  0
 68 67  1  0
 70 69  1  0
 70 77  1  0
 70 71  1  0
 72 66  1  0
 72 71  1  0
 73 66  2  0
 74 75  2  0
 75 94  1  0
 76 75  1  0
 76 79  1  0
 77 74  1  0
 77 78  1  0
 78 76  2  0
 79 80  1  0
 80 81  2  0
 82 85  1  0
 82 81  1  0
 83 82  2  0
 84 83  1  0
 84 79  2  0
 85 86  1  0
 86 87  1  0
 87 88  2  0
 89 88  1  0
 89 93  1  0
 90 89  2  0
 91 86  2  0
 91 90  1  0
 92 91  1  0
 94 95  1  0
 95 98  1  0
 95 97  1  0
 96 94  2  0
 99100  1  0
 99 74  1  0
101 99  1  0
M  ISO  4  12 101  13 101  65 100  66 100
M  END
>  <TORSDO>  (67) 
F 29

>  <SCORE>  (67) 
-11.103

>  <name>  (67) 
66

>  <ligand_id>  (67) 
66

>  <original_smiles>  (67) 
[H]c1c([H])c([H])c2c(c1[H])C([H])([H])C([H])([H])C([H])([H])C2([H])N([H])C(=O)C1([H])N(C(=O)C([H])(N([H])C(=O)C([H])(N([H])C([H])([H])[H])C([H])([H])[H])C(C([H])([H])[H])(C([H])([H])[H])C([H])([H])[H])C([H])([H])c2c([H])c(OC34C([H])([H])C([H])([H])C([H])(C([H])([H])C3([H])[H])C([H])([H])C([H])([N+]([H])(C([H])([H])[H])C([H])([H])C([H])([H])C([H])([H])C([H])([H])C([H])([H])C([H])([H])C([H])([H])C([H])([H])C([H])([H])C([H])([H])C([H])([H])C([H])([H])C(=O)N3C([H])([H])C([H])([H])C([H])([H])C([H])(n5nc(-c6c([H])c([H])c(Oc7c([H])c([H])c(F)c([H])c7F)c([H])c6[H])c(C(=O)N([H])[H])c5N([H])[H])C3([H])[H])C4([H])[H])c([H])c([H])c2C1([H])[H]

>  <smiles>  (67) 
[H]c1c([H])c([H])c2c(c1[H])C([H])([H])C([H])([H])C([H])([H])C2([H])N([H])C(=O)C1([H])N(C(=O)C([H])(N([H])C(=O)C([H])(N([H])C([H])([H])[H])C([H])([H])[H])C(C([H])([H])[H])(C([H])([H])[H])C([H])([H])[H])C([H])([H])c2c([H])c(OC34C([H])([H])C([H])([H])C([H])(C([H])([H])C3([H])[H])C([H])([H])C([H])([N+]([H])(C([H])([H])[H])C([H])([H])C([H])([H])C([H])([H])C([H])([H])C([H])([H])C([H])([H])C([H])([H])C([H])([H])C([H])([H])C([H])([H])C([H])([H])C([H])([H])C(=O)N3C([H])([H])C([H])([H])C([H])([H])C([H])(n5nc(-c6c([H])c([H])c(Oc7c([H])c([H])c(F)c([H])c7F)c([H])c6[H])c(C(=O)N([H])[H])c5N([H])[H])C3([H])[H])C4([H])[H])c([H])c([H])c2C1([H])[H]

$$$$
67:0:0
     RDKit          3D

 96106  0  0  1  0  0  0  0  0999 V2000
  -28.9980  -19.5640   20.4210 C   0  0  0  0  0  3  0  0  0  0  0  0
  -30.4290  -19.8710   22.3720 C   0  0  0  0  0  3  0  0  0  0  0  0
  -28.8130  -20.9580   20.3820 C   0  0  0  0  0  0  0  0  0  0  0  0
  -29.4060  -21.8150   21.3120 C   0  0  0  0  0  0  0  0  0  0  0  0
  -29.8050  -19.0160   21.4350 C   0  0  0  0  0  0  0  0  0  0  0  0
  -30.2370  -21.2710   22.3280 C   0  0  0  0  0  0  0  0  0  0  0  0
  -27.9630  -21.6860   19.3840 C   0  0  0  0  0  2  0  0  0  0  0  0
  -29.8900  -25.4840   19.9260 C   0  0  0  0  0  2  0  0  0  0  0  0
  -30.2280  -24.1270   20.6040 C   0  0  0  0  0  2  0  0  0  0  0  0
  -28.1200  -24.1610   18.7390 C   0  0  0  0  0  2  0  0  0  0  0  0
  -27.9560  -23.1430   19.8860 C   0  0  0  0  0  3  0  0  0  0  0  0
  -28.4730  -25.5260   19.3280 C   0  0  0  0  0  3  0  0  0  0  0  0
  -29.0050  -23.2730   21.0560 C   0  0  1  0  0  0  0  0  0  0  0  0
  -30.9200  -22.1110   23.3940 C   0  0  0  0  0  1  0  0  0  0  0  0
  -28.3350  -23.8950   22.3050 C   0  0  0  0  0  1  0  0  0  0  0  0
  -28.2960  -26.5920   18.3820 O   0  0  0  0  0  0  0  0  0  0  0  0
  -24.8370  -30.9210   22.7730 C   0  0  0  0  0  0  0  0  0  0  0  0
  -27.1220  -27.2770   18.5970 C   0  0  0  0  0  0  0  0  0  0  0  0
  -23.4320  -29.6890   21.1520 C   0  0  0  0  0  3  0  0  0  0  0  0
  -24.6840  -28.5350   19.2520 C   0  0  0  0  0  0  0  0  0  0  0  0
  -25.8490  -30.3060   20.5810 C   0  0  0  0  0  2  0  0  0  0  0  0
  -25.8970  -29.0680   19.7130 C   0  0  0  0  0  0  0  0  0  0  0  0
  -27.1200  -28.4470   19.3820 C   0  0  0  0  0  3  0  0  0  0  0  0
  -25.8950  -26.7670   18.1140 C   0  0  0  0  0  3  0  0  0  0  0  0
  -24.6770  -27.3840   18.4480 C   0  0  0  0  0  3  0  0  0  0  0  0
  -23.4170  -29.2500   19.6650 C   0  0  0  0  0  2  0  0  0  0  0  0
  -24.7350  -30.3110   21.5570 N   0  0  0  0  0  0  0  0  0  0  0  0
  -23.8600  -31.0060   23.5310 O   0  0  0  0  0  0  0  0  0  0  0  0
  -23.0350  -28.4790   22.0250 C   0  0  0  0  0  0  0  0  0  0  0  0
  -21.7630  -28.0590   21.9240 N   0  0  0  0  0  0  0  0  0  0  0  0
  -23.8640  -27.9240   22.7500 O   0  0  0  0  0  0  0  0  0  0  0  0
  -21.1400  -28.5650   21.3110 H   0  0  0  0  0  0  0  0  0  0  0  0
  -18.8110  -25.9950   22.1560 C   0  0  0  0  0  0  0  0  0  0  0  0
  -21.1810  -26.9150   22.6250 C   0  0  0  0  0  3  0  0  0  0  0  0
  -21.7040  -25.5790   22.0460 C   0  0  0  0  0  2  0  0  0  0  0  0
  -20.8030  -25.0090   20.9440 C   0  0  0  0  0  2  0  0  0  0  0  0
  -19.3900  -24.7620   21.4830 C   0  0  0  0  0  2  0  0  0  0  0  0
  -19.6520  -27.0110   22.6800 C   0  0  0  0  0  0  0  0  0  0  0  0
  -19.0600  -28.1510   23.2680 C   0  0  0  0  0  3  0  0  0  0  0  0
  -17.6610  -28.2770   23.3450 C   0  0  0  0  0  3  0  0  0  0  0  0
  -16.8360  -27.2620   22.8370 C   0  0  0  0  0  3  0  0  0  0  0  0
  -17.4120  -26.1240   22.2420 C   0  0  0  0  0  3  0  0  0  0  0  0
  -26.1730  -31.5630   23.2570 C   0  0  0  0  0  3  0  0  0  0  0  0
  -25.8410  -32.8320   23.9160 N   0  0  0  0  0  0  0  0  0  0  0  0
  -26.0360  -34.0440   23.3800 C   0  0  0  0  0  0  0  0  0  0  0  0
  -26.5910  -34.2090   22.2900 O   0  0  0  0  0  0  0  0  0  0  0  0
  -25.3390  -32.7690   24.7890 H   0  0  0  0  0  0  0  0  0  0  0  0
  -24.2260  -35.7770   23.5650 C   0  0  0  0  0  1  0  0  0  0  0  0
  -25.5400  -35.2650   24.1770 C   0  0  0  0  0  3  0  0  0  0  0  0
  -27.7010  -36.0440   25.0460 C   0  0  0  0  0  1  0  0  0  0  0  0
  -26.5250  -36.3650   24.2410 N   0  0  0  0  0  0  0  0  0  0  0  0
  -26.1030  -37.2080   24.6210 H   0  0  0  0  0  0  0  0  0  0  0  0
  -26.9970  -30.6280   24.2240 C   0  0  1  0  0  0  0  0  0  0  0  0
  -26.1750  -30.0720   25.4110 C   0  0  0  0  0  1  0  0  0  0  0  0
  -27.5770  -29.4240   23.4480 C   0  0  0  0  0  1  0  0  0  0  0  0
  -28.2050  -31.4040   24.7980 C   0  0  0  0  0  1  0  0  0  0  0  0
  -29.9330  -17.5080   21.5710 C   0  0  0  0  0  2  0  0  0  0  0  0
  -31.2100  -16.9050   20.9510 C   0  0  0  0  0  2  0  0  0  0  0  0
  -31.6610  -14.5390   20.1920 C   0  0  0  0  0  0  0  0  0  0  0  0
  -31.2760  -12.3250   19.1630 C   0  0  0  0  0  2  0  0  0  0  0  0
  -30.3260  -12.4630   17.9530 C   0  0  0  0  0  2  0  0  0  0  0  0
  -28.8470  -12.4450   18.3920 C   0  0  0  0  0  2  0  0  0  0  0  0
  -28.5680  -13.4200   19.5650 C   0  0  0  0  0  3  0  0  0  0  0  0
  -29.6000  -13.1890   20.6920 C   0  0  0  0  0  2  0  0  0  0  0  0
  -30.9520  -13.3830   20.1270 N   0  0  0  0  0  0  0  0  0  0  0  0
  -32.6960  -14.7540   19.5520 O   0  0  0  0  0  0  0  0  0  0  0  0
  -31.0880  -15.4530   20.9810 N   0  0  0  0  0  0  0  0  0  0  0  0
  -30.3140  -15.0940   21.5180 H   0  0  0  0  0  0  0  0  0  0  0  0
  -26.2610  -14.2740   20.3410 C   0  0  0  0  0  0  0  0  0  0  0  0
  -25.1180  -13.6140   20.7020 C   0  0  0  0  0  0  0  0  0  0  0  0
  -25.4220  -12.2220   20.6030 C   0  0  0  0  0  0  0  0  0  0  0  0
  -27.1970  -13.2920   20.0550 N   0  0  0  0  0  0  0  0  0  0  0  0
  -26.6920  -12.0500   20.2640 N   0  0  0  0  0  0  0  0  0  0  0  0
  -24.5620  -11.0420   20.7570 C   0  0  0  0  0  0  0  0  0  0  0  0
  -24.9170   -9.9790   21.6150 C   0  0  0  0  0  3  0  0  0  0  0  0
  -24.0680   -8.8600   21.7590 C   0  0  0  0  0  3  0  0  0  0  0  0
  -22.8470   -8.7990   21.0450 C   0  0  0  0  0  0  0  0  0  0  0  0
  -22.5100   -9.8510   20.1730 C   0  0  0  0  0  3  0  0  0  0  0  0
  -23.3590  -10.9600   20.0270 C   0  0  0  0  0  3  0  0  0  0  0  0
  -21.9710   -7.7420   21.1020 O   0  0  0  0  0  0  0  0  0  0  0  0
  -21.8780   -6.9440   22.2140 C   0  0  0  0  0  0  0  0  0  0  0  0
  -21.5710   -7.4720   23.4870 C   0  0  0  0  0  3  0  0  0  0  0  0
  -21.4180   -6.6060   24.5880 C   0  0  0  0  0  3  0  0  0  0  0  0
  -21.5620   -5.2150   24.4180 C   0  0  0  0  0  0  0  0  0  0  0  0
  -21.8600   -4.6890   23.1480 C   0  0  0  0  0  3  0  0  0  0  0  0
  -22.0150   -5.5510   22.0490 C   0  0  0  0  0  0  0  0  0  0  0  0
  -22.2830   -5.0370   20.8250 F   0  0  0  0  0  0  0  0  0  0  0  0
  -21.4060   -4.3840   25.4730 F   0  0  0  0  0  0  0  0  0  0  0  0
  -23.7880  -14.2300   21.0290 C   0  0  0  0  0  0  0  0  0  0  0  0
  -23.0160  -13.5950   21.9020 N   0  0  0  0  0  0  0  0  0  0  0  0
  -23.4490  -15.3100   20.5470 O   0  0  0  0  0  0  0  0  0  0  0  0
  -23.3020  -12.7180   22.3120 H   0  0  0  0  0  0  0  0  0  0  0  0
  -22.1250  -13.9900   22.1650 H   0  0  0  0  0  0  0  0  0  0  0  0
  -26.5840  -15.6220   20.2140 N   0  0  0  0  0  0  0  0  0  0  0  0
  -25.9070  -16.3630   20.3630 H   0  0  0  0  0  0  0  0  0  0  0  0
  -27.4730  -15.9640   19.8760 H   0  0  0  0  0  0  0  0  0  0  0  0
  1  5  1  0
  3  1  2  0
  3  4  1  0
  4  6  2  0
  5 57  1  0
  5  2  2  0
  6  2  1  0
  6 14  1  0
  7 11  1  0
  7  3  1  0
  8  9  1  0
  9 13  1  0
 10 12  1  0
 11 10  1  0
 11 13  1  0
 12 16  1  0
 12  8  1  0
 13  4  1  0
 13 15  1  1
 16 18  1  0
 17 28  2  0
 18 23  1  0
 19 27  1  0
 19 29  1  0
 20 26  1  0
 20 22  1  0
 21 27  1  0
 22 21  1  0
 23 22  2  0
 24 25  1  0
 24 18  2  0
 25 20  2  0
 26 19  1  0
 27 17  1  0
 29 31  2  0
 30 29  1  0
 32 30  1  0
 33 42  2  0
 33 38  1  0
 34 30  1  0
 34 38  1  0
 35 34  1  0
 36 37  1  0
 36 35  1  0
 37 33  1  0
 38 39  2  0
 39 40  1  0
 41 40  2  0
 42 41  1  0
 43 17  1  0
 43 44  1  0
 43 53  1  0
 44 47  1  0
 45 44  1  0
 45 49  1  0
 46 45  2  0
 49 48  1  0
 49 51  1  0
 51 52  1  0
 51 50  1  0
 53 56  1  1
 53 54  1  0
 55 53  1  0
 58 67  1  0
 58 57  1  0
 59 67  1  0
 60 65  1  0
 61 62  1  0
 61 60  1  0
 63 62  1  0
 63 72  1  0
 63 64  1  0
 65 59  1  0
 65 64  1  0
 66 59  2  0
 67 68  1  0
 69 70  2  0
 70 89  1  0
 71 70  1  0
 71 74  1  0
 72 73  1  0
 72 69  1  0
 73 71  2  0
 74 75  1  0
 75 76  2  0
 77 80  1  0
 77 76  1  0
 78 77  2  0
 79 78  1  0
 79 74  2  0
 80 81  1  0
 81 82  1  0
 82 83  2  0
 84 83  1  0
 84 88  1  0
 85 84  2  0
 86 81  2  0
 86 85  1  0
 87 86  1  0
 89 90  1  0
 90 93  1  0
 90 92  1  0
 91 89  2  0
 94 69  1  0
 94 95  1  0
 96 94  1  0
M  ISO  4  12 101  16 101  59 100  67 100
M  END
>  <TORSDO>  (68) 
F 18

>  <SCORE>  (68) 
-10.831

>  <name>  (68) 
67

>  <ligand_id>  (68) 
67

>  <original_smiles>  (68) 
[H]c1c([H])c([H])c2c(c1[H])C([H])([H])C([H])([H])C([H])([H])C2([H])N([H])C(=O)C1([H])N(C(=O)C([H])(N([H])C(=O)C([H])(N([H])C([H])([H])[H])C([H])([H])[H])C(C([H])([H])[H])(C([H])([H])[H])C([H])([H])[H])C([H])([H])c2c([H])c(OC3([H])C([H])([H])C([H])([H])C4(C([H])([H])[H])c5c(C([H])([H])[H])c([H])c(C([H])([H])C([H])([H])N([H])C(=O)N6C([H])([H])C([H])([H])C([H])([H])C([H])(n7nc(-c8c([H])c([H])c(Oc9c([H])c([H])c(F)c([H])c9F)c([H])c8[H])c(C(=O)N([H])[H])c7N([H])[H])C6([H])[H])c([H])c5C([H])([H])C4([H])C3([H])[H])c([H])c([H])c2C1([H])[H]

>  <smiles>  (68) 
[H]c1c([H])c([H])c2c(c1[H])C([H])([H])C([H])([H])C([H])([H])C2([H])N([H])C(=O)C1([H])N(C(=O)C([H])(N([H])C(=O)C([H])(N([H])C([H])([H])[H])C([H])([H])[H])C(C([H])([H])[H])(C([H])([H])[H])C([H])([H])[H])C([H])([H])c2c([H])c(OC3([H])C([H])([H])C([H])([H])C4(C([H])([H])[H])c5c(C([H])([H])[H])c([H])c(C([H])([H])C([H])([H])N([H])C(=O)N6C([H])([H])C([H])([H])C([H])([H])C([H])(n7nc(-c8c([H])c([H])c(Oc9c([H])c([H])c(F)c([H])c9F)c([H])c8[H])c(C(=O)N([H])[H])c7N([H])[H])C6([H])[H])c([H])c5C([H])([H])C4([H])C3([H])[H])c([H])c([H])c2C1([H])[H]

$$$$
68:0:0
     RDKit          3D

 97106  0  0  1  0  0  0  0  0999 V2000
  -26.5420  -22.8230   19.2640 C   0  0  0  0  0  3  0  0  0  0  0  0
  -28.9900  -23.4350   20.1480 C   0  0  0  0  0  3  0  0  0  0  0  0
  -26.7350  -24.1040   19.8520 C   0  0  0  0  0  0  0  0  0  0  0  0
  -27.4210  -21.7310   19.4860 C   0  0  0  0  0  0  0  0  0  0  0  0
  -28.7000  -21.8950   20.0960 C   0  0  0  0  0  0  0  0  0  0  0  0
  -28.0520  -24.6550   19.8840 C   0  0  0  0  0  0  0  0  0  0  0  0
  -23.4540  -24.2930   22.1340 C   0  0  0  0  0  0  0  0  0  0  0  0
  -24.2940  -24.2140   20.8530 C   0  0  0  0  0  2  0  0  0  0  0  0
  -23.9780  -25.1550   23.2970 C   0  0  0  0  0  2  0  0  0  0  0  0
  -26.2320  -25.3240   22.1640 C   0  0  0  0  0  2  0  0  0  0  0  0
  -25.8410  -24.2490   21.1140 C   0  0  0  0  0  3  0  0  0  0  0  0
  -25.5070  -25.0600   23.4980 C   0  0  0  0  0  3  0  0  0  0  0  0
  -25.9670  -26.0240   24.6110 C   0  0  0  0  0  1  0  0  0  0  0  0
  -22.3650  -23.7170   22.2160 O   0  0  0  0  0  0  0  0  0  0  0  0
  -27.0830  -19.9040   17.7330 C   0  0  0  0  0  1  0  0  0  0  0  0
  -26.8320  -20.3580   19.1820 C   0  0  0  0  0  2  0  0  0  0  0  0
  -28.2530  -26.2060   19.7490 O   0  0  0  0  0  0  0  0  0  0  0  0
  -24.8660  -31.9680   23.3690 C   0  0  0  0  0  0  0  0  0  0  0  0
  -27.2920  -27.3720   19.7960 C   0  0  0  0  0  0  0  0  0  0  0  0
  -23.6290  -30.7690   21.6060 C   0  0  0  0  0  3  0  0  0  0  0  0
  -25.0380  -29.3270   19.9750 C   0  0  0  0  0  0  0  0  0  0  0  0
  -26.1960  -30.9540   21.4530 C   0  0  0  0  0  2  0  0  0  0  0  0
  -26.2330  -29.6200   20.6450 C   0  0  0  0  0  0  0  0  0  0  0  0
  -27.3450  -28.6590   20.5490 C   0  0  0  0  0  3  0  0  0  0  0  0
  -26.0930  -27.2900   19.0460 C   0  0  0  0  0  3  0  0  0  0  0  0
  -24.9950  -28.1860   19.1580 C   0  0  0  0  0  3  0  0  0  0  0  0
  -23.8320  -30.2540   20.1540 C   0  0  0  0  0  2  0  0  0  0  0  0
  -24.9200  -31.2570   22.1970 N   0  0  0  0  0  0  0  0  0  0  0  0
  -23.7930  -32.2070   23.9450 O   0  0  0  0  0  0  0  0  0  0  0  0
  -22.9410  -29.6820   22.4680 C   0  0  0  0  0  0  0  0  0  0  0  0
  -21.6170  -29.4980   22.3070 N   0  0  0  0  0  0  0  0  0  0  0  0
  -23.6030  -29.0070   23.2590 O   0  0  0  0  0  0  0  0  0  0  0  0
  -21.1340  -30.0720   21.6300 H   0  0  0  0  0  0  0  0  0  0  0  0
  -18.2610  -28.1980   22.6610 C   0  0  0  0  0  0  0  0  0  0  0  0
  -20.8050  -28.5090   23.0270 C   0  0  0  0  0  3  0  0  0  0  0  0
  -20.9490  -27.1040   22.4050 C   0  0  0  0  0  2  0  0  0  0  0  0
  -19.9220  -26.8390   21.3010 C   0  0  0  0  0  2  0  0  0  0  0  0
  -18.4930  -26.9290   21.8550 C   0  0  0  0  0  2  0  0  0  0  0  0
  -19.3450  -28.9510   23.1890 C   0  0  0  0  0  0  0  0  0  0  0  0
  -19.0720  -30.1420   23.8950 C   0  0  0  0  0  3  0  0  0  0  0  0
  -17.7460  -30.5760   24.0910 C   0  0  0  0  0  3  0  0  0  0  0  0
  -16.6770  -29.8140   23.5860 C   0  0  0  0  0  3  0  0  0  0  0  0
  -16.9350  -28.6310   22.8710 C   0  0  0  0  0  3  0  0  0  0  0  0
  -26.1570  -32.5290   24.0390 C   0  0  0  0  0  3  0  0  0  0  0  0
  -26.6930  -31.6140   25.2110 C   0  0  1  0  0  0  0  0  0  0  0  0
  -25.6190  -31.2730   26.2710 C   0  0  0  0  0  1  0  0  0  0  0  0
  -27.2530  -30.2790   24.6700 C   0  0  0  0  0  1  0  0  0  0  0  0
  -27.8690  -32.3200   25.9290 C   0  0  0  0  0  1  0  0  0  0  0  0
  -25.8540  -33.8760   24.5540 N   0  0  0  0  0  0  0  0  0  0  0  0
  -26.1780  -35.0240   23.9460 C   0  0  0  0  0  0  0  0  0  0  0  0
  -26.8250  -35.0610   22.8980 O   0  0  0  0  0  0  0  0  0  0  0  0
  -25.2790  -33.9180   25.3820 H   0  0  0  0  0  0  0  0  0  0  0  0
  -24.4470  -36.8550   23.8870 C   0  0  0  0  0  1  0  0  0  0  0  0
  -25.7050  -36.3360   24.6010 C   0  0  0  0  0  3  0  0  0  0  0  0
  -27.8590  -37.1040   25.4960 C   0  0  0  0  0  1  0  0  0  0  0  0
  -26.7340  -37.3970   24.6120 N   0  0  0  0  0  0  0  0  0  0  0  0
  -26.3290  -38.2830   24.9030 H   0  0  0  0  0  0  0  0  0  0  0  0
  -29.4820  -20.4340   20.7430 C   0  0  0  0  0  2  0  0  0  0  0  0
  -29.9440  -18.7630   20.1470 C   0  0  0  0  0  2  0  0  0  0  0  0
  -30.7190  -15.9330   20.8310 C   0  0  0  0  0  0  0  0  0  0  0  0
  -30.8640  -13.4030   20.2170 C   0  0  0  0  0  2  0  0  0  0  0  0
  -30.1100  -13.0960   18.8970 C   0  0  0  0  0  2  0  0  0  0  0  0
  -28.6420  -12.7680   19.1990 C   0  0  0  0  0  2  0  0  0  0  0  0
  -28.0220  -13.7860   20.1840 C   0  0  0  0  0  3  0  0  0  0  0  0
  -28.9240  -14.0840   21.4060 C   0  0  0  0  0  2  0  0  0  0  0  0
  -30.2050  -14.5970   20.8790 N   0  0  0  0  0  0  0  0  0  0  0  0
  -31.9500  -15.9480   20.6690 O   0  0  0  0  0  0  0  0  0  0  0  0
  -29.9100  -17.1890   20.7790 N   0  0  0  0  0  0  0  0  0  0  0  0
  -28.9600  -16.9490   21.0170 H   0  0  0  0  0  0  0  0  0  0  0  0
  -25.5810  -14.2960   20.7000 C   0  0  0  0  0  0  0  0  0  0  0  0
  -24.4990  -13.4980   20.9530 C   0  0  0  0  0  0  0  0  0  0  0  0
  -24.9870  -12.1540   20.9470 C   0  0  0  0  0  0  0  0  0  0  0  0
  -26.6550  -13.4400   20.5520 N   0  0  0  0  0  0  0  0  0  0  0  0
  -26.3060  -12.1440   20.7660 N   0  0  0  0  0  0  0  0  0  0  0  0
  -24.2650  -10.8780   21.0410 C   0  0  0  0  0  0  0  0  0  0  0  0
  -24.6310   -9.8870   21.9790 C   0  0  0  0  0  3  0  0  0  0  0  0
  -23.9020   -8.6800   22.0650 C   0  0  0  0  0  3  0  0  0  0  0  0
  -22.7970   -8.4540   21.2110 C   0  0  0  0  0  0  0  0  0  0  0  0
  -22.4490   -9.4350   20.2680 C   0  0  0  0  0  3  0  0  0  0  0  0
  -23.1760  -10.6350   20.1780 C   0  0  0  0  0  3  0  0  0  0  0  0
  -22.0470   -7.3010   21.2060 O   0  0  0  0  0  0  0  0  0  0  0  0
  -21.9200   -6.5220   22.3300 C   0  0  0  0  0  0  0  0  0  0  0  0
  -21.4000   -7.0350   23.5390 C   0  0  0  0  0  3  0  0  0  0  0  0
  -21.2190   -6.1830   24.6460 C   0  0  0  0  0  3  0  0  0  0  0  0
  -21.5510   -4.8190   24.5480 C   0  0  0  0  0  0  0  0  0  0  0  0
  -22.0680   -4.3040   23.3450 C   0  0  0  0  0  3  0  0  0  0  0  0
  -22.2500   -5.1560   22.2400 C   0  0  0  0  0  0  0  0  0  0  0  0
  -22.7240   -4.6510   21.0760 F   0  0  0  0  0  0  0  0  0  0  0  0
  -21.3740   -3.9990   25.6080 F   0  0  0  0  0  0  0  0  0  0  0  0
  -23.0760  -13.9520   21.0940 C   0  0  0  0  0  0  0  0  0  0  0  0
  -22.2770  -13.2350   21.8780 N   0  0  0  0  0  0  0  0  0  0  0  0
  -22.6790  -14.9780   20.5460 O   0  0  0  0  0  0  0  0  0  0  0  0
  -22.6080  -12.4040   22.3420 H   0  0  0  0  0  0  0  0  0  0  0  0
  -21.3240  -13.5320   22.0200 H   0  0  0  0  0  0  0  0  0  0  0  0
  -25.7340  -15.6720   20.5520 N   0  0  0  0  0  0  0  0  0  0  0  0
  -24.9350  -16.2990   20.5540 H   0  0  0  0  0  0  0  0  0  0  0  0
  -26.5890  -16.1260   20.2680 H   0  0  0  0  0  0  0  0  0  0  0  0
  1  4  2  0
  1  3  1  0
  3  6  2  0
  4  5  1  0
  5  2  2  0
  5 58  1  0
  6  2  1  0
  7 14  2  0
  7  9  1  0
  8 11  1  0
  8  7  1  0
  9 12  1  0
 10 12  1  0
 11  3  1  0
 11 10  1  0
 12 13  1  0
 15 16  1  0
 16  4  1  0
 17 19  1  0
 17  6  1  0
 18 29  2  0
 19 24  1  0
 20 28  1  0
 20 30  1  0
 21 27  1  0
 21 23  1  0
 22 28  1  0
 23 22  1  0
 24 23  2  0
 25 26  1  0
 25 19  2  0
 26 21  2  0
 27 20  1  0
 28 18  1  0
 30 32  2  0
 31 30  1  0
 33 31  1  0
 34 43  2  0
 34 39  1  0
 35 31  1  0
 35 39  1  0
 36 35  1  0
 37 38  1  0
 37 36  1  0
 38 34  1  0
 39 40  2  0
 40 41  1  0
 42 41  2  0
 43 42  1  0
 44 18  1  0
 44 49  1  0
 44 45  1  0
 45 48  1  1
 45 46  1  0
 47 45  1  0
 49 52  1  0
 50 49  1  0
 50 54  1  0
 51 50  2  0
 54 53  1  0
 54 56  1  0
 56 57  1  0
 56 55  1  0
 59 58  1  0
 59 68  1  0
 60 66  1  0
 61 66  1  0
 62 63  1  0
 62 61  1  0
 64 63  1  0
 64 73  1  0
 64 65  1  0
 66 65  1  0
 67 60  2  0
 68 60  1  0
 68 69  1  0
 70 71  2  0
 71 90  1  0
 72 71  1  0
 72 75  1  0
 73 70  1  0
 73 74  1  0
 74 72  2  0
 75 76  1  0
 76 77  2  0
 78 77  1  0
 79 78  2  0
 80 79  1  0
 80 75  2  0
 81 78  1  0
 81 82  1  0
 82 83  1  0
 83 84  2  0
 85 84  1  0
 85 89  1  0
 86 85  2  0
 87 82  2  0
 87 86  1  0
 88 87  1  0
 90 91  1  0
 91 94  1  0
 91 93  1  0
 92 90  2  0
 95 96  1  0
 95 70  1  0
 97 95  1  0
M  ISO  4   6 101  17 101  60 100  68 100
M  END
>  <TORSDO>  (69) 
F 20

>  <SCORE>  (69) 
-13.392

>  <name>  (69) 
68

>  <ligand_id>  (69) 
68

>  <original_smiles>  (69) 
[H]c1c([H])c([H])c2c(c1[H])C([H])([H])C([H])([H])C([H])([H])C2([H])N([H])C(=O)C1([H])N(C(=O)C([H])(N([H])C(=O)C([H])(N([H])C([H])([H])[H])C([H])([H])[H])C(C([H])([H])[H])(C([H])([H])[H])C([H])([H])[H])C([H])([H])c2c([H])c(Oc3c([H])c(C([H])([H])C([H])([H])N([H])C(=O)N4C([H])([H])C([H])([H])C([H])([H])C([H])(n5nc(-c6c([H])c([H])c(Oc7c([H])c([H])c(F)c([H])c7F)c([H])c6[H])c(C(=O)N([H])[H])c5N([H])[H])C4([H])[H])c(C([H])([H])C([H])([H])[H])c([H])c3C3([H])C([H])([H])C(=O)C([H])([H])C([H])(C([H])([H])[H])C3([H])[H])c([H])c([H])c2C1([H])[H]

>  <smiles>  (69) 
[H]c1c([H])c([H])c2c(c1[H])C([H])([H])C([H])([H])C([H])([H])C2([H])N([H])C(=O)C1([H])N(C(=O)C([H])(N([H])C(=O)C([H])(N([H])C([H])([H])[H])C([H])([H])[H])C(C([H])([H])[H])(C([H])([H])[H])C([H])([H])[H])C([H])([H])c2c([H])c(Oc3c([H])c(C([H])([H])C([H])([H])N([H])C(=O)N4C([H])([H])C([H])([H])C([H])([H])C([H])(n5nc(-c6c([H])c([H])c(Oc7c([H])c([H])c(F)c([H])c7F)c([H])c6[H])c(C(=O)N([H])[H])c5N([H])[H])C4([H])[H])c(C([H])([H])C([H])([H])[H])c([H])c3C3([H])C([H])([H])C(=O)C([H])([H])C([H])(C([H])([H])[H])C3([H])[H])c([H])c([H])c2C1([H])[H]

$$$$
69:0:0
     RDKit          3D

 96105  0  0  1  0  0  0  0  0999 V2000
  -25.8250  -23.6930   20.8840 C   0  0  0  0  0  2  0  0  0  0  0  0
  -27.2190  -23.7930   21.5060 C   0  0  0  0  0  2  0  0  0  0  0  0
  -28.1500  -21.4150   18.9230 C   0  0  0  0  0  2  0  0  0  0  0  0
  -29.3260  -22.4200   20.5270 C   0  0  0  0  0  2  0  0  0  0  0  0
  -28.8860  -20.6970   20.1300 C   0  0  0  0  0  3  0  0  0  0  0  0
  -27.4780  -22.9090   19.2390 C   0  0  0  0  0  3  0  0  0  0  0  0
  -25.9530  -22.7890   19.6380 C   0  0  1  0  0  0  0  0  0  0  0  0
  -28.2010  -23.8620   20.3320 C   0  0  1  0  0  0  0  0  0  0  0  0
  -25.4610  -21.3730   20.0590 C   0  0  0  0  0  1  0  0  0  0  0  0
  -25.0360  -23.2210   18.4650 C   0  0  0  0  0  0  0  0  0  0  0  0
  -23.7630  -23.5310   18.7470 N   0  0  0  0  0  0  0  0  0  0  0  0
  -25.4480  -23.1900   17.3010 O   0  0  0  0  0  0  0  0  0  0  0  0
  -23.4880  -23.5600   19.7220 H   0  0  0  0  0  0  0  0  0  0  0  0
  -22.7070  -23.6000   17.7390 C   0  0  0  0  0  2  0  0  0  0  0  0
  -22.5140  -25.0180   17.1790 C   0  0  0  0  0  2  0  0  0  0  0  0
  -21.2980  -27.2470   17.4120 C   0  0  0  0  0  1  0  0  0  0  0  0
  -21.5500  -25.8640   18.0220 C   0  0  0  0  0  2  0  0  0  0  0  0
  -29.5390  -17.3900   19.9460 C   0  0  0  0  0  3  0  0  0  0  0  0
  -29.6200  -18.9540   19.9810 C   0  0  0  0  0  3  0  0  0  0  0  0
  -30.4320  -15.9240   19.7970 C   0  0  0  0  0  0  0  0  0  0  0  0
  -30.5460  -13.3620   19.0090 C   0  0  0  0  0  2  0  0  0  0  0  0
  -29.5880  -12.9400   17.8540 C   0  0  0  0  0  2  0  0  0  0  0  0
  -28.2020  -12.5570   18.3920 C   0  0  0  0  0  2  0  0  0  0  0  0
  -27.7330  -13.5620   19.4670 C   0  0  0  0  0  3  0  0  0  0  0  0
  -28.8180  -13.9000   20.5140 C   0  0  0  0  0  2  0  0  0  0  0  0
  -29.9550  -14.5350   19.8050 N   0  0  0  0  0  0  0  0  0  0  0  0
  -31.6490  -15.8760   19.5250 O   0  0  0  0  0  0  0  0  0  0  0  0
  -25.4360  -14.0480   20.4310 C   0  0  0  0  0  0  0  0  0  0  0  0
  -24.4080  -13.2460   20.8420 C   0  0  0  0  0  0  0  0  0  0  0  0
  -24.8780  -11.9030   20.7200 C   0  0  0  0  0  0  0  0  0  0  0  0
  -26.4600  -13.1930   20.0710 N   0  0  0  0  0  0  0  0  0  0  0  0
  -26.1450  -11.8930   20.3100 N   0  0  0  0  0  0  0  0  0  0  0  0
  -24.1680  -10.6280   20.9070 C   0  0  0  0  0  0  0  0  0  0  0  0
  -24.5930   -9.6760   21.8590 C   0  0  0  0  0  3  0  0  0  0  0  0
  -23.8770   -8.4720   22.0360 C   0  0  0  0  0  3  0  0  0  0  0  0
  -22.7200   -8.2120   21.2640 C   0  0  0  0  0  0  0  0  0  0  0  0
  -22.3140   -9.1530   20.3010 C   0  0  0  0  0  3  0  0  0  0  0  0
  -23.0320  -10.3490   20.1220 C   0  0  0  0  0  3  0  0  0  0  0  0
  -21.9780   -7.0580   21.3480 O   0  0  0  0  0  0  0  0  0  0  0  0
  -21.8160   -6.3930   22.5370 C   0  0  0  0  0  0  0  0  0  0  0  0
  -21.2370   -7.0140   23.6650 C   0  0  0  0  0  3  0  0  0  0  0  0
  -21.0240   -6.2740   24.8440 C   0  0  0  0  0  3  0  0  0  0  0  0
  -21.3820   -4.9130   24.8970 C   0  0  0  0  0  0  0  0  0  0  0  0
  -21.9530   -4.2910   23.7730 C   0  0  0  0  0  3  0  0  0  0  0  0
  -22.1670   -5.0290   22.5950 C   0  0  0  0  0  0  0  0  0  0  0  0
  -22.7000   -4.4200   21.5080 F   0  0  0  0  0  0  0  0  0  0  0  0
  -21.1710   -4.1980   26.0280 F   0  0  0  0  0  0  0  0  0  0  0  0
  -23.0320  -13.7070   21.2260 C   0  0  0  0  0  0  0  0  0  0  0  0
  -22.3690  -12.9740   22.1150 N   0  0  0  0  0  0  0  0  0  0  0  0
  -22.5570  -14.7490   20.7770 O   0  0  0  0  0  0  0  0  0  0  0  0
  -22.7650  -12.1290   22.4980 H   0  0  0  0  0  0  0  0  0  0  0  0
  -21.4500  -13.2640   22.4170 H   0  0  0  0  0  0  0  0  0  0  0  0
  -25.5810  -15.4240   20.2990 N   0  0  0  0  0  0  0  0  0  0  0  0
  -24.8300  -16.0740   20.4940 H   0  0  0  0  0  0  0  0  0  0  0  0
  -26.4000  -15.8750   19.9100 H   0  0  0  0  0  0  0  0  0  0  0  0
  -28.2900  -25.6630   20.2880 O   0  0  0  0  0  0  0  0  0  0  0  0
  -24.7840  -32.0050   23.2870 C   0  0  0  0  0  0  0  0  0  0  0  0
  -27.3100  -26.8930   20.2760 C   0  0  0  0  0  0  0  0  0  0  0  0
  -23.6010  -30.6250   21.6320 C   0  0  0  0  0  3  0  0  0  0  0  0
  -25.0490  -28.9660   20.2200 C   0  0  0  0  0  0  0  0  0  0  0  0
  -26.1820  -30.7320   21.5350 C   0  0  0  0  0  2  0  0  0  0  0  0
  -26.2410  -29.3010   20.8730 C   0  0  0  0  0  0  0  0  0  0  0  0
  -27.3480  -28.2920   20.8750 C   0  0  0  0  0  3  0  0  0  0  0  0
  -26.1010  -26.8080   19.5280 C   0  0  0  0  0  3  0  0  0  0  0  0
  -25.0230  -27.7450   19.5220 C   0  0  0  0  0  3  0  0  0  0  0  0
  -23.8450  -29.9250   20.2600 C   0  0  0  0  0  2  0  0  0  0  0  0
  -24.8800  -31.1570   22.2010 N   0  0  0  0  0  0  0  0  0  0  0  0
  -23.6880  -32.3110   23.7880 O   0  0  0  0  0  0  0  0  0  0  0  0
  -22.8730  -29.6520   22.5990 C   0  0  0  0  0  0  0  0  0  0  0  0
  -21.5400  -29.5040   22.4700 N   0  0  0  0  0  0  0  0  0  0  0  0
  -23.5220  -29.0230   23.4380 O   0  0  0  0  0  0  0  0  0  0  0  0
  -21.0560  -30.0920   21.8050 H   0  0  0  0  0  0  0  0  0  0  0  0
  -18.1650  -28.2520   22.9280 C   0  0  0  0  0  0  0  0  0  0  0  0
  -20.7180  -28.5410   23.2140 C   0  0  0  0  0  3  0  0  0  0  0  0
  -20.8490  -27.1230   22.6090 C   0  0  0  0  0  2  0  0  0  0  0  0
  -19.7470  -26.7860   21.6000 C   0  0  0  0  0  2  0  0  0  0  0  0
  -18.3580  -26.9200   22.2280 C   0  0  0  0  0  2  0  0  0  0  0  0
  -19.2710  -29.0180   23.3810 C   0  0  0  0  0  0  0  0  0  0  0  0
  -19.0280  -30.2640   23.9980 C   0  0  0  0  0  3  0  0  0  0  0  0
  -17.7160  -30.7550   24.1480 C   0  0  0  0  0  3  0  0  0  0  0  0
  -16.6260  -29.9870   23.7000 C   0  0  0  0  0  3  0  0  0  0  0  0
  -16.8520  -28.7350   23.1040 C   0  0  0  0  0  3  0  0  0  0  0  0
  -26.0420  -32.6480   23.9450 C   0  0  0  0  0  3  0  0  0  0  0  0
  -25.7330  -34.0590   24.2540 N   0  0  0  0  0  0  0  0  0  0  0  0
  -26.0660  -35.1110   23.4920 C   0  0  0  0  0  0  0  0  0  0  0  0
  -26.7240  -34.9950   22.4570 O   0  0  0  0  0  0  0  0  0  0  0  0
  -25.1500  -34.2240   25.0620 H   0  0  0  0  0  0  0  0  0  0  0  0
  -24.3330  -36.9170   23.1750 C   0  0  0  0  0  1  0  0  0  0  0  0
  -25.6000  -36.5130   23.9470 C   0  0  0  0  0  3  0  0  0  0  0  0
  -27.7610  -37.4120   24.7020 C   0  0  0  0  0  1  0  0  0  0  0  0
  -26.6340  -37.5600   23.7860 N   0  0  0  0  0  0  0  0  0  0  0  0
  -26.2360  -38.4850   23.9180 H   0  0  0  0  0  0  0  0  0  0  0  0
  -26.5050  -31.9020   25.2580 C   0  0  1  0  0  0  0  0  0  0  0  0
  -25.3720  -31.6930   26.2940 C   0  0  0  0  0  1  0  0  0  0  0  0
  -27.0950  -30.5120   24.9310 C   0  0  0  0  0  1  0  0  0  0  0  0
  -27.6390  -32.7060   25.9390 C   0  0  0  0  0  1  0  0  0  0  0  0
  1  2  1  0
  3  5  1  0
  5 19  1  0
  5  4  1  0
  6  3  1  0
  6  7  1  0
  6  8  1  0
  7  9  1  1
  7  1  1  0
  8 56  1  6
  8  4  1  0
  8  2  1  0
 10 11  1  0
 10  7  1  0
 11 13  1  0
 12 10  2  0
 14 11  1  0
 15 14  1  0
 15 17  1  0
 16 17  1  0
 18 19  2  0
 20 26  1  0
 20 18  1  0
 21 26  1  0
 22 23  1  0
 22 21  1  0
 24 23  1  0
 24 31  1  0
 24 25  1  0
 26 25  1  0
 27 20  2  0
 28 29  2  0
 29 48  1  0
 30 29  1  0
 30 33  1  0
 31 32  1  0
 31 28  1  0
 32 30  2  0
 33 34  1  0
 34 35  2  0
 36 39  1  0
 36 35  1  0
 37 36  2  0
 38 37  1  0
 38 33  2  0
 39 40  1  0
 40 45  2  0
 40 41  1  0
 41 42  2  0
 42 43  1  0
 43 47  1  0
 44 43  2  0
 45 44  1  0
 46 45  1  0
 48 49  1  0
 49 52  1  0
 49 51  1  0
 50 48  2  0
 53 28  1  0
 53 54  1  0
 55 53  1  0
 57 68  2  0
 58 56  1  0
 58 63  1  0
 59 67  1  0
 59 69  1  0
 60 66  1  0
 60 62  1  0
 61 67  1  0
 62 63  2  0
 62 61  1  0
 64 58  2  0
 65 64  1  0
 65 60  2  0
 66 59  1  0
 67 57  1  0
 69 71  2  0
 70 69  1  0
 72 70  1  0
 73 82  2  0
 73 78  1  0
 74 70  1  0
 74 78  1  0
 75 74  1  0
 76 77  1  0
 76 75  1  0
 77 73  1  0
 78 79  2  0
 79 80  1  0
 81 80  2  0
 82 81  1  0
 83 57  1  0
 83 84  1  0
 83 93  1  0
 84 87  1  0
 85 89  1  0
 85 84  1  0
 86 85  2  0
 89 88  1  0
 91 92  1  0
 91 89  1  0
 91 90  1  0
 93 96  1  1
 93 94  1  0
 95 93  1  0
M  ISO  4   8 101  18 100  20 100  56 101
M  END
>  <TORSDO>  (70) 
F 21

>  <SCORE>  (70) 
-13.276

>  <name>  (70) 
69

>  <ligand_id>  (70) 
69

>  <original_smiles>  (70) 
[H]C(C(=O)N1C([H])([H])C([H])([H])C([H])([H])C([H])(n2nc(-c3c([H])c([H])c(Oc4c([H])c([H])c(F)c([H])c4F)c([H])c3[H])c(C(=O)N([H])[H])c2N([H])[H])C1([H])[H])=C([H])C1([H])C([H])([H])C2([H])C(Oc3c([H])c([H])c4c(c3[H])C([H])([H])N(C(=O)C([H])(N([H])C(=O)C([H])(N([H])C([H])([H])[H])C([H])([H])[H])C(C([H])([H])[H])(C([H])([H])[H])C([H])([H])[H])C([H])(C(=O)N([H])C3([H])c5c([H])c([H])c([H])c([H])c5C([H])([H])C([H])([H])C3([H])[H])C4([H])[H])(C([H])([H])C([H])([H])C2(C(=O)N([H])C([H])([H])C([H])([H])C([H])([H])C([H])([H])[H])C([H])([H])[H])C1([H])[H]

>  <smiles>  (70) 
[H]C(C(=O)N1C([H])([H])C([H])([H])C([H])([H])C([H])(n2nc(-c3c([H])c([H])c(Oc4c([H])c([H])c(F)c([H])c4F)c([H])c3[H])c(C(=O)N([H])[H])c2N([H])[H])C1([H])[H])=C([H])C1([H])C([H])([H])C2([H])C(Oc3c([H])c([H])c4c(c3[H])C([H])([H])N(C(=O)C([H])(N([H])C(=O)C([H])(N([H])C([H])([H])[H])C([H])([H])[H])C(C([H])([H])[H])(C([H])([H])[H])C([H])([H])[H])C([H])(C(=O)N([H])C3([H])c5c([H])c([H])c([H])c([H])c5C([H])([H])C([H])([H])C3([H])[H])C4([H])[H])(C([H])([H])C([H])([H])C2(C(=O)N([H])C([H])([H])C([H])([H])C([H])([H])C([H])([H])[H])C([H])([H])[H])C1([H])[H]

$$$$
70:0:0
     RDKit          3D

 96105  0  0  1  0  0  0  0  0999 V2000
  -29.1150  -22.5010   19.8300 C   0  0  0  0  0  0  0  0  0  0  0  0
  -29.6530  -21.3050   22.1000 C   0  0  0  0  0  2  0  0  0  0  0  0
  -28.7550  -23.8980   21.9970 C   0  0  0  0  0  2  0  0  0  0  0  0
  -29.3720  -20.8640   20.6290 C   0  0  0  0  0  3  0  0  0  0  0  0
  -28.3960  -24.0510   20.4850 C   0  0  0  0  0  3  0  0  0  0  0  0
  -29.8640  -22.8470   22.4690 C   0  0  1  0  0  0  0  0  0  0  0  0
  -29.8760  -22.9170   24.0090 C   0  0  0  0  0  1  0  0  0  0  0  0
  -31.2760  -23.3010   22.0120 C   0  0  0  0  0  1  0  0  0  0  0  0
  -29.4760  -22.5640   18.6520 O   0  0  0  0  0  0  0  0  0  0  0  0
  -30.7300  -19.4190   18.9470 C   0  0  0  0  0  3  0  0  0  0  0  0
  -28.7670  -17.4520   19.3970 C   0  0  0  0  0  3  0  0  0  0  0  0
  -30.1470  -18.7690   17.8280 C   0  0  0  0  0  0  0  0  0  0  0  0
  -29.8200  -17.5870   20.3110 C   0  0  0  0  0  0  0  0  0  0  0  0
  -30.1360  -19.2030   20.1990 C   0  0  0  0  0  0  0  0  0  0  0  0
  -29.0260  -17.9090   18.0790 C   0  0  0  0  0  0  0  0  0  0  0  0
  -28.1060  -17.3910   16.9870 C   0  0  0  0  0  1  0  0  0  0  0  0
  -30.6520  -16.0000   20.3260 C   0  0  0  0  0  0  0  0  0  0  0  0
  -30.7550  -13.4480   19.4810 C   0  0  0  0  0  2  0  0  0  0  0  0
  -29.8850  -13.0770   18.2430 C   0  0  0  0  0  2  0  0  0  0  0  0
  -28.4470  -12.7180   18.6590 C   0  0  0  0  0  2  0  0  0  0  0  0
  -27.9240  -13.7080   19.7190 C   0  0  0  0  0  3  0  0  0  0  0  0
  -28.9310  -14.0030   20.8550 C   0  0  0  0  0  2  0  0  0  0  0  0
  -30.1390  -14.6220   20.2560 N   0  0  0  0  0  0  0  0  0  0  0  0
  -31.8910  -15.9270   20.2030 O   0  0  0  0  0  0  0  0  0  0  0  0
  -25.5510  -14.2700   20.4410 C   0  0  0  0  0  0  0  0  0  0  0  0
  -24.4760  -13.5000   20.7820 C   0  0  0  0  0  0  0  0  0  0  0  0
  -24.9370  -12.1470   20.7620 C   0  0  0  0  0  0  0  0  0  0  0  0
  -26.5930  -13.3880   20.2140 N   0  0  0  0  0  0  0  0  0  0  0  0
  -26.2360  -12.1040   20.4790 N   0  0  0  0  0  0  0  0  0  0  0  0
  -24.1970  -10.8900   20.9350 C   0  0  0  0  0  0  0  0  0  0  0  0
  -24.5910   -9.9230   21.8860 C   0  0  0  0  0  3  0  0  0  0  0  0
  -23.8460   -8.7350   22.0480 C   0  0  0  0  0  3  0  0  0  0  0  0
  -22.6940   -8.5050   21.2610 C   0  0  0  0  0  0  0  0  0  0  0  0
  -22.3180   -9.4600   20.2990 C   0  0  0  0  0  3  0  0  0  0  0  0
  -23.0620  -10.6400   20.1360 C   0  0  0  0  0  3  0  0  0  0  0  0
  -21.9260   -7.3660   21.3320 O   0  0  0  0  0  0  0  0  0  0  0  0
  -21.8200   -6.6370   22.4900 C   0  0  0  0  0  0  0  0  0  0  0  0
  -21.3530   -7.2130   23.6920 C   0  0  0  0  0  3  0  0  0  0  0  0
  -21.1980   -6.4130   24.8410 C   0  0  0  0  0  3  0  0  0  0  0  0
  -21.4970   -5.0380   24.7880 C   0  0  0  0  0  0  0  0  0  0  0  0
  -21.9540   -4.4620   23.5900 C   0  0  0  0  0  3  0  0  0  0  0  0
  -22.1150   -5.2600   22.4430 C   0  0  0  0  0  0  0  0  0  0  0  0
  -22.5350   -4.6950   21.2860 F   0  0  0  0  0  0  0  0  0  0  0  0
  -21.3400   -4.2670   25.8890 F   0  0  0  0  0  0  0  0  0  0  0  0
  -23.0760  -13.9880   21.0110 C   0  0  0  0  0  0  0  0  0  0  0  0
  -22.3240  -13.3110   21.8720 N   0  0  0  0  0  0  0  0  0  0  0  0
  -22.6570  -15.0040   20.4590 O   0  0  0  0  0  0  0  0  0  0  0  0
  -22.6740  -12.4910   22.3430 H   0  0  0  0  0  0  0  0  0  0  0  0
  -21.3790  -13.6180   22.0570 H   0  0  0  0  0  0  0  0  0  0  0  0
  -25.7260  -15.6390   20.2760 N   0  0  0  0  0  0  0  0  0  0  0  0
  -24.9660  -16.3000   20.3940 H   0  0  0  0  0  0  0  0  0  0  0  0
  -26.6000  -16.0850   20.0420 H   0  0  0  0  0  0  0  0  0  0  0  0
  -30.6730  -19.0510   16.4460 C   0  0  0  0  0  0  0  0  0  0  0  0
  -31.5860  -20.2580   16.2500 C   0  0  0  0  0  1  0  0  0  0  0  0
  -30.4380  -18.3460   15.4620 O   0  0  0  0  0  0  0  0  0  0  0  0
  -28.4080  -25.7630   20.0290 O   0  0  0  0  0  0  0  0  0  0  0  0
  -24.5410  -31.8200   23.0920 C   0  0  0  0  0  0  0  0  0  0  0  0
  -27.3520  -26.9090   20.0590 C   0  0  0  0  0  0  0  0  0  0  0  0
  -23.4300  -30.3680   21.4500 C   0  0  0  0  0  3  0  0  0  0  0  0
  -24.9650  -28.8100   20.0300 C   0  0  0  0  0  0  0  0  0  0  0  0
  -25.9990  -30.6560   21.3220 C   0  0  0  0  0  2  0  0  0  0  0  0
  -26.1440  -29.2310   20.6560 C   0  0  0  0  0  0  0  0  0  0  0  0
  -27.3220  -28.3130   20.6330 C   0  0  0  0  0  3  0  0  0  0  0  0
  -26.1190  -26.6950   19.3890 C   0  0  0  0  0  3  0  0  0  0  0  0
  -24.9890  -27.5670   19.3730 C   0  0  0  0  0  3  0  0  0  0  0  0
  -23.7080  -29.6920   20.0770 C   0  0  0  0  0  2  0  0  0  0  0  0
  -24.6790  -30.9830   22.0070 N   0  0  0  0  0  0  0  0  0  0  0  0
  -23.4330  -32.0560   23.6050 O   0  0  0  0  0  0  0  0  0  0  0  0
  -22.7710  -29.3470   22.4180 C   0  0  0  0  0  0  0  0  0  0  0  0
  -21.4530  -29.1070   22.2820 N   0  0  0  0  0  0  0  0  0  0  0  0
  -23.4600  -28.7700   23.2620 O   0  0  0  0  0  0  0  0  0  0  0  0
  -20.9440  -29.6280   21.5810 H   0  0  0  0  0  0  0  0  0  0  0  0
  -18.1560  -27.6420   22.7410 C   0  0  0  0  0  0  0  0  0  0  0  0
  -20.6830  -28.1170   23.0480 C   0  0  0  0  0  3  0  0  0  0  0  0
  -20.9070  -26.6900   22.4950 C   0  0  0  0  0  2  0  0  0  0  0  0
  -19.8560  -26.2710   21.4620 C   0  0  0  0  0  2  0  0  0  0  0  0
  -18.4530  -26.3070   22.0780 C   0  0  0  0  0  2  0  0  0  0  0  0
  -19.2010  -28.4990   23.1810 C   0  0  0  0  0  0  0  0  0  0  0  0
  -18.8660  -29.7400   23.7650 C   0  0  0  0  0  3  0  0  0  0  0  0
  -17.5210  -30.1280   23.9100 C   0  0  0  0  0  3  0  0  0  0  0  0
  -16.4920  -29.2730   23.4830 C   0  0  0  0  0  3  0  0  0  0  0  0
  -16.8100  -28.0310   22.9050 C   0  0  0  0  0  3  0  0  0  0  0  0
  -25.7650  -32.5390   23.7380 C   0  0  0  0  0  3  0  0  0  0  0  0
  -25.3710  -33.9260   24.0610 N   0  0  0  0  0  0  0  0  0  0  0  0
  -25.7050  -35.0090   23.3490 C   0  0  0  0  0  0  0  0  0  0  0  0
  -26.4350  -34.9520   22.3560 O   0  0  0  0  0  0  0  0  0  0  0  0
  -24.7220  -34.0410   24.8270 H   0  0  0  0  0  0  0  0  0  0  0  0
  -23.9500  -36.7700   22.9290 C   0  0  0  0  0  1  0  0  0  0  0  0
  -25.1460  -36.3740   23.8100 C   0  0  0  0  0  3  0  0  0  0  0  0
  -27.1950  -37.3010   24.8000 C   0  0  0  0  0  1  0  0  0  0  0  0
  -26.1520  -37.4610   23.7890 N   0  0  0  0  0  0  0  0  0  0  0  0
  -25.7070  -38.3640   23.9330 H   0  0  0  0  0  0  0  0  0  0  0  0
  -26.2900  -31.8160   25.0410 C   0  0  1  0  0  0  0  0  0  0  0  0
  -25.1880  -31.5490   26.0940 C   0  0  0  0  0  1  0  0  0  0  0  0
  -26.9400  -30.4580   24.6950 C   0  0  0  0  0  1  0  0  0  0  0  0
  -27.3950  -32.6700   25.7050 C   0  0  0  0  0  1  0  0  0  0  0  0
  1  5  1  0
  1  4  1  0
  2  6  1  0
  3  6  1  0
  4 14  1  0
  4  2  1  0
  5 56  1  0
  5  3  1  0
  6  7  1  1
  8  6  1  0
  9  1  2  0
 10 14  1  0
 11 13  1  0
 12 15  1  0
 12 10  2  0
 13 17  1  0
 14 13  2  3
 15 11  2  0
 16 15  1  0
 18 23  1  0
 19 20  1  0
 19 18  1  0
 21 20  1  0
 21 28  1  0
 21 22  1  0
 23 17  1  0
 23 22  1  0
 24 17  2  0
 25 26  2  0
 26 45  1  0
 27 26  1  0
 27 30  1  0
 28 25  1  0
 28 29  1  0
 29 27  2  0
 30 31  1  0
 31 32  2  0
 33 36  1  0
 33 32  1  0
 34 33  2  0
 35 34  1  0
 35 30  2  0
 36 37  1  0
 37 38  1  0
 38 39  2  0
 40 39  1  0
 40 44  1  0
 41 40  2  0
 42 37  2  0
 42 41  1  0
 43 42  1  0
 45 46  1  0
 46 49  1  0
 46 48  1  0
 47 45  2  0
 50 51  1  0
 50 25  1  0
 52 50  1  0
 53 12  1  0
 54 53  1  0
 55 53  2  0
 56 58  1  0
 57 68  2  0
 58 63  1  0
 59 67  1  0
 59 69  1  0
 60 66  1  0
 60 62  1  0
 61 67  1  0
 62 61  1  0
 63 62  2  0
 64 58  2  0
 65 64  1  0
 65 60  2  0
 66 59  1  0
 67 57  1  0
 69 71  2  0
 70 69  1  0
 72 70  1  0
 73 82  2  0
 73 78  1  0
 74 70  1  0
 74 78  1  0
 75 74  1  0
 76 77  1  0
 76 75  1  0
 77 73  1  0
 78 79  2  0
 79 80  1  0
 81 80  2  0
 82 81  1  0
 83 57  1  0
 83 84  1  0
 83 93  1  0
 84 87  1  0
 85 89  1  0
 85 84  1  0
 86 85  2  0
 89 88  1  0
 91 89  1  0
 91 92  1  0
 91 90  1  0
 93 96  1  1
 93 94  1  0
 95 93  1  0
M  ISO  4   5 101  13 100  17 100  56 101
M  END
>  <TORSDO>  (71) 
F 18

>  <SCORE>  (71) 
-13.724

>  <name>  (71) 
70

>  <ligand_id>  (71) 
70

>  <original_smiles>  (71) 
[H]c1c([H])c([H])c2c(c1[H])C([H])([H])C([H])([H])C([H])([H])C2([H])N([H])C(=O)C1([H])N(C(=O)C([H])(N([H])C(=O)C([H])(N([H])C([H])([H])[H])C([H])([H])[H])C(C([H])([H])[H])(C([H])([H])[H])C([H])([H])[H])C([H])([H])c2c([H])c(OC3([H])C(=O)C([H])(c4c([H])c(C(=O)C([H])([H])[H])c(C([H])([H])[H])c([H])c4C(=O)N4C([H])([H])C([H])([H])C([H])([H])C([H])(n5nc(-c6c([H])c([H])c(Oc7c([H])c([H])c(F)c([H])c7F)c([H])c6[H])c(C(=O)N([H])[H])c5N([H])[H])C4([H])[H])C([H])([H])C(C([H])([H])[H])(C([H])([H])[H])C3([H])[H])c([H])c([H])c2C1([H])[H]

>  <smiles>  (71) 
[H]c1c([H])c([H])c2c(c1[H])C([H])([H])C([H])([H])C([H])([H])C2([H])N([H])C(=O)C1([H])N(C(=O)C([H])(N([H])C(=O)C([H])(N([H])C([H])([H])[H])C([H])([H])[H])C(C([H])([H])[H])(C([H])([H])[H])C([H])([H])[H])C([H])([H])c2c([H])c(OC3([H])C(=O)C([H])(c4c([H])c(C(=O)C([H])([H])[H])c(C([H])([H])[H])c([H])c4C(=O)N4C([H])([H])C([H])([H])C([H])([H])C([H])(n5nc(-c6c([H])c([H])c(Oc7c([H])c([H])c(F)c([H])c7F)c([H])c6[H])c(C(=O)N([H])[H])c5N([H])[H])C4([H])[H])C([H])([H])C(C([H])([H])[H])(C([H])([H])[H])C3([H])[H])c([H])c([H])c2C1([H])[H]

$$$$
71:0:0
     RDKit          3D

 98107  0  0  1  0  0  0  0  0999 V2000
  -30.2950  -21.6060   20.7450 C   0  0  0  0  0  3  0  0  0  0  0  0
  -29.9300  -20.4840   19.8350 C   0  0  0  0  0  0  0  0  0  0  0  0
  -29.8600  -23.0620   20.8560 C   0  0  0  0  0  0  0  0  0  0  0  0
  -28.9900  -21.2870   18.9770 C   0  0  0  0  0  0  0  0  0  0  0  0
  -28.5710  -22.7880   19.0480 C   0  0  0  0  0  0  0  0  0  0  0  0
  -28.9190  -23.8670   20.0400 C   0  0  0  0  0  0  0  0  0  0  0  0
  -30.5070  -23.8390   21.9870 C   0  0  0  0  0  1  0  0  0  0  0  0
  -28.3520  -20.4560   17.8700 C   0  0  0  0  0  1  0  0  0  0  0  0
  -27.6680  -23.3140   17.9390 C   0  0  0  0  0  1  0  0  0  0  0  0
  -29.5340  -18.8990   22.5690 C   0  0  0  0  0  2  0  0  0  0  0  0
  -31.9840  -19.0560   22.1770 C   0  0  0  0  0  2  0  0  0  0  0  0
  -29.3170  -18.2970   21.1780 C   0  0  0  0  0  2  0  0  0  0  0  0
  -31.8090  -18.6530   20.6850 C   0  0  0  0  0  2  0  0  0  0  0  0
  -30.9050  -18.4830   23.1080 C   0  0  0  0  0  3  0  0  0  0  0  0
  -30.3650  -18.6550   20.0690 C   0  0  2  0  0  0  0  0  0  0  0  0
  -30.9370  -15.6050   19.2670 C   0  0  0  0  0  0  0  0  0  0  0  0
  -30.6850  -13.1210   18.3110 C   0  0  0  0  0  2  0  0  0  0  0  0
  -29.5930  -12.8160   17.2470 C   0  0  0  0  0  2  0  0  0  0  0  0
  -28.2240  -12.5740   17.9040 C   0  0  0  0  0  2  0  0  0  0  0  0
  -27.9620  -13.5780   19.0480 C   0  0  0  0  0  3  0  0  0  0  0  0
  -29.1680  -13.7630   19.9950 C   0  0  0  0  0  2  0  0  0  0  0  0
  -30.2640  -14.3160   19.1660 N   0  0  0  0  0  0  0  0  0  0  0  0
  -32.1540  -15.4140   19.0740 O   0  0  0  0  0  0  0  0  0  0  0  0
  -30.3150  -17.0350   19.3240 N   0  0  0  0  0  0  0  0  0  0  0  0
  -29.3630  -16.9080   19.0100 H   0  0  0  0  0  0  0  0  0  0  0  0
  -25.8430  -14.2880   20.2560 C   0  0  0  0  0  0  0  0  0  0  0  0
  -24.7570  -13.5960   20.7120 C   0  0  0  0  0  0  0  0  0  0  0  0
  -25.0360  -12.2150   20.4720 C   0  0  0  0  0  0  0  0  0  0  0  0
  -26.7110  -13.3370   19.7530 N   0  0  0  0  0  0  0  0  0  0  0  0
  -26.2510  -12.0730   19.9500 N   0  0  0  0  0  0  0  0  0  0  0  0
  -24.1850  -11.0310   20.6520 C   0  0  0  0  0  0  0  0  0  0  0  0
  -24.5850   -9.9470   21.4640 C   0  0  0  0  0  3  0  0  0  0  0  0
  -23.7370   -8.8320   21.6380 C   0  0  0  0  0  3  0  0  0  0  0  0
  -22.4740   -8.7940   21.0010 C   0  0  0  0  0  0  0  0  0  0  0  0
  -22.0910   -9.8640   20.1750 C   0  0  0  0  0  3  0  0  0  0  0  0
  -22.9370  -10.9710   19.9980 C   0  0  0  0  0  3  0  0  0  0  0  0
  -21.5970   -7.7400   21.0930 O   0  0  0  0  0  0  0  0  0  0  0  0
  -21.5290   -6.9530   22.2150 C   0  0  0  0  0  0  0  0  0  0  0  0
  -21.2470   -7.4960   23.4880 C   0  0  0  0  0  3  0  0  0  0  0  0
  -21.1170   -6.6450   24.6040 C   0  0  0  0  0  3  0  0  0  0  0  0
  -21.2590   -5.2530   24.4470 C   0  0  0  0  0  0  0  0  0  0  0  0
  -21.5330   -4.7100   23.1800 C   0  0  0  0  0  3  0  0  0  0  0  0
  -21.6650   -5.5590   22.0670 C   0  0  0  0  0  0  0  0  0  0  0  0
  -21.9090   -5.0290   20.8440 F   0  0  0  0  0  0  0  0  0  0  0  0
  -21.1260   -4.4330   25.5170 F   0  0  0  0  0  0  0  0  0  0  0  0
  -23.4890  -14.1970   21.2430 C   0  0  0  0  0  0  0  0  0  0  0  0
  -22.8280  -13.5140   22.1700 N   0  0  0  0  0  0  0  0  0  0  0  0
  -23.1040  -15.3050   20.8710 O   0  0  0  0  0  0  0  0  0  0  0  0
  -23.1580  -12.6150   22.4890 H   0  0  0  0  0  0  0  0  0  0  0  0
  -21.9820  -13.8960   22.5660 H   0  0  0  0  0  0  0  0  0  0  0  0
  -26.1530  -15.6430   20.1890 N   0  0  0  0  0  0  0  0  0  0  0  0
  -25.4960  -16.3570   20.4830 H   0  0  0  0  0  0  0  0  0  0  0  0
  -26.9700  -16.0210   19.7310 H   0  0  0  0  0  0  0  0  0  0  0  0
  -31.0900  -18.9210   24.5040 N   0  0  0  0  0  4  0  0  0  0  0  0
  -31.0400  -19.9200   24.5930 H   0  0  0  0  0  0  0  0  0  0  0  0
  -31.9830  -18.6150   24.8510 H   0  0  0  0  0  0  0  0  0  0  0  0
  -30.3800  -18.5190   25.0920 H   0  0  0  0  0  0  0  0  0  0  0  0
  -28.6780  -25.4710   20.1610 O   0  0  0  0  0  0  0  0  0  0  0  0
  -24.5670  -31.4930   22.8630 C   0  0  0  0  0  0  0  0  0  0  0  0
  -27.5690  -26.5540   20.1010 C   0  0  0  0  0  0  0  0  0  0  0  0
  -23.5420  -29.9660   21.2340 C   0  0  0  0  0  3  0  0  0  0  0  0
  -25.1530  -28.4000   19.9180 C   0  0  0  0  0  0  0  0  0  0  0  0
  -26.1030  -30.3090   21.1810 C   0  0  0  0  0  2  0  0  0  0  0  0
  -26.2970  -28.8660   20.5760 C   0  0  0  0  0  0  0  0  0  0  0  0
  -27.4860  -27.9690   20.6340 C   0  0  0  0  0  3  0  0  0  0  0  0
  -26.3730  -26.2950   19.3840 C   0  0  0  0  0  3  0  0  0  0  0  0
  -25.2270  -27.1400   19.3020 C   0  0  0  0  0  3  0  0  0  0  0  0
  -23.8790  -29.2550   19.8910 C   0  0  0  0  0  2  0  0  0  0  0  0
  -24.7570  -30.6250   21.8120 N   0  0  0  0  0  0  0  0  0  0  0  0
  -23.4370  -31.7190   23.3330 O   0  0  0  0  0  0  0  0  0  0  0  0
  -22.8750  -28.9580   22.2090 C   0  0  0  0  0  0  0  0  0  0  0  0
  -21.5610  -28.7000   22.0520 N   0  0  0  0  0  0  0  0  0  0  0  0
  -23.5510  -28.4050   23.0810 O   0  0  0  0  0  0  0  0  0  0  0  0
  -21.0620  -29.2000   21.3280 H   0  0  0  0  0  0  0  0  0  0  0  0
  -18.2700  -27.2230   22.4720 C   0  0  0  0  0  0  0  0  0  0  0  0
  -20.7840  -27.7240   22.8250 C   0  0  0  0  0  3  0  0  0  0  0  0
  -21.0330  -26.2870   22.3100 C   0  0  0  0  0  2  0  0  0  0  0  0
  -20.0080  -25.8340   21.2660 C   0  0  0  0  0  2  0  0  0  0  0  0
  -18.5930  -25.8750   21.8480 C   0  0  0  0  0  2  0  0  0  0  0  0
  -19.2980  -28.0980   22.9150 C   0  0  0  0  0  0  0  0  0  0  0  0
  -18.9420  -29.3500   23.4610 C   0  0  0  0  0  3  0  0  0  0  0  0
  -17.5920  -29.7330   23.5660 C   0  0  0  0  0  3  0  0  0  0  0  0
  -16.5780  -28.8580   23.1360 C   0  0  0  0  0  3  0  0  0  0  0  0
  -16.9170  -27.6050   22.5950 C   0  0  0  0  0  3  0  0  0  0  0  0
  -25.7540  -32.2560   23.5230 C   0  0  0  0  0  3  0  0  0  0  0  0
  -26.2830  -31.5550   24.8350 C   0  0  1  0  0  0  0  0  0  0  0  0
  -25.1730  -31.2370   25.8650 C   0  0  0  0  0  1  0  0  0  0  0  0
  -27.0020  -30.2280   24.5020 C   0  0  0  0  0  1  0  0  0  0  0  0
  -27.3320  -32.4600   25.5260 C   0  0  0  0  0  1  0  0  0  0  0  0
  -25.3050  -33.6270   23.8350 N   0  0  0  0  0  0  0  0  0  0  0  0
  -25.6520  -34.7270   23.1520 C   0  0  0  0  0  0  0  0  0  0  0  0
  -26.4410  -34.6970   22.2060 O   0  0  0  0  0  0  0  0  0  0  0  0
  -24.6090  -33.7180   24.5610 H   0  0  0  0  0  0  0  0  0  0  0  0
  -23.8610  -36.4300   22.6560 C   0  0  0  0  0  1  0  0  0  0  0  0
  -25.0300  -36.0720   23.5870 C   0  0  0  0  0  3  0  0  0  0  0  0
  -27.0070  -37.0640   24.6570 C   0  0  0  0  0  1  0  0  0  0  0  0
  -25.9980  -37.1920   23.6090 N   0  0  0  0  0  0  0  0  0  0  0  0
  -25.5190  -38.0800   23.7370 H   0  0  0  0  0  0  0  0  0  0  0  0
  1  3  1  0
  2 15  1  0
  2  1  2  0
  3  7  1  0
  4  5  2  0
  4  2  1  0
  5  6  1  0
  6 58  1  0
  6  3  2  0
  8  4  1  0
  9  5  1  0
 10 14  1  0
 11 14  1  0
 12 10  1  0
 13 11  1  0
 14 54  1  0
 15 24  1  6
 15 13  1  0
 15 12  1  0
 16 24  1  0
 17 22  1  0
 18 19  1  0
 18 17  1  0
 20 19  1  0
 20 29  1  0
 20 21  1  0
 22 16  1  0
 22 21  1  0
 23 16  2  0
 25 24  1  0
 26 27  2  0
 27 46  1  0
 28 31  1  0
 28 27  1  0
 29 30  1  0
 29 26  1  0
 30 28  2  0
 31 32  1  0
 32 33  2  0
 34 37  1  0
 34 33  1  0
 35 34  2  0
 36 35  1  0
 36 31  2  0
 37 38  1  0
 38 39  1  0
 39 40  2  0
 41 40  1  0
 41 45  1  0
 42 41  2  0
 43 38  2  0
 43 42  1  0
 44 43  1  0
 46 47  1  0
 47 49  1  0
 47 50  1  0
 48 46  2  0
 51 26  1  0
 51 52  1  0
 53 51  1  0
 54 55  1  0
 54 56  1  0
 54 57  1  0
 59 70  2  0
 60 58  1  0
 60 65  1  0
 61 69  1  0
 61 71  1  0
 62 64  1  0
 63 69  1  0
 64 65  2  0
 64 63  1  0
 66 60  2  0
 67 66  1  0
 67 62  2  0
 68 62  1  0
 68 61  1  0
 69 59  1  0
 71 73  2  0
 72 71  1  0
 74 72  1  0
 75 84  2  0
 75 80  1  0
 76 72  1  0
 76 80  1  0
 77 76  1  0
 78 79  1  0
 78 77  1  0
 79 75  1  0
 80 81  2  0
 81 82  1  0
 83 82  2  0
 84 83  1  0
 85 59  1  0
 85 90  1  0
 85 86  1  0
 86 89  1  1
 86 87  1  0
 88 86  1  0
 90 93  1  0
 91 95  1  0
 91 90  1  0
 92 91  2  0
 95 94  1  0
 95 97  1  0
 97 98  1  0
 97 96  1  0
M  ISO  4   6 101  16 100  24 100  58 101
M  END
>  <TORSDO>  (72) 
F 18

>  <SCORE>  (72) 
-9.932

>  <name>  (72) 
71

>  <ligand_id>  (72) 
71

>  <original_smiles>  (72) 
[H]c1c([H])c([H])c2c(c1[H])C([H])([H])C([H])([H])C([H])([H])C2([H])N([H])C(=O)C1([H])N(C(=O)C([H])(N([H])C(=O)C([H])(N([H])C([H])([H])[H])C([H])([H])[H])C(C([H])([H])[H])(C([H])([H])[H])C([H])([H])[H])C([H])([H])c2c([H])c(Oc3c(C([H])([H])[H])c([H])c(C4(N([H])C(=O)N5C([H])([H])C([H])([H])C([H])([H])C([H])(n6nc(-c7c([H])c([H])c(Oc8c([H])c([H])c(F)c([H])c8F)c([H])c7[H])c(C(=O)N([H])[H])c6N([H])[H])C5([H])[H])C([H])([H])C([H])([H])C([H])([N+]([H])([H])[H])C([H])([H])C4([H])[H])c(C([H])([H])[H])c3C([H])([H])[H])c([H])c([H])c2C1([H])[H]

>  <smiles>  (72) 
[H]c1c([H])c([H])c2c(c1[H])C([H])([H])C([H])([H])C([H])([H])C2([H])N([H])C(=O)C1([H])N(C(=O)C([H])(N([H])C(=O)C([H])(N([H])C([H])([H])[H])C([H])([H])[H])C(C([H])([H])[H])(C([H])([H])[H])C([H])([H])[H])C([H])([H])c2c([H])c(Oc3c(C([H])([H])[H])c([H])c(C4(N([H])C(=O)N5C([H])([H])C([H])([H])C([H])([H])C([H])(n6nc(-c7c([H])c([H])c(Oc8c([H])c([H])c(F)c([H])c8F)c([H])c7[H])c(C(=O)N([H])[H])c6N([H])[H])C5([H])[H])C([H])([H])C([H])([H])C([H])([N+]([H])([H])[H])C([H])([H])C4([H])[H])c(C([H])([H])[H])c3C([H])([H])[H])c([H])c([H])c2C1([H])[H]

$$$$
72:0:0
     RDKit          3D

 99107  0  0  1  0  0  0  0  0999 V2000
  -29.3200  -20.6180   19.0020 C   0  0  0  0  0  2  0  0  0  0  0  0
  -29.8810  -19.5100   20.1190 C   0  0  0  0  0  3  0  0  0  0  0  0
  -29.9500  -18.0780   19.9810 N   0  0  0  0  0  0  0  0  0  0  0  0
  -30.2240  -19.9420   21.3510 N   0  0  0  0  0  0  0  0  0  0  0  0
  -29.7400  -17.6760   19.0760 H   0  0  0  0  0  0  0  0  0  0  0  0
  -30.5510  -19.2380   21.9980 H   0  0  0  0  0  0  0  0  0  0  0  0
  -29.9050  -17.0460   21.0860 O   0  0  0  0  0  0  0  0  0  0  0  0
  -34.8560  -12.6840   17.8410 C   0  0  0  0  0  0  0  0  0  0  0  0
  -30.8360  -15.9460   21.2160 C   0  0  0  0  0  0  0  0  0  0  0  0
  -33.7590  -11.8250   19.8770 C   0  0  0  0  0  3  0  0  0  0  0  0
  -32.5050  -13.5560   21.3160 C   0  0  0  0  0  0  0  0  0  0  0  0
  -34.1100  -14.3540   19.5820 C   0  0  0  0  0  2  0  0  0  0  0  0
  -32.8610  -14.5990   20.4530 C   0  0  0  0  0  0  0  0  0  0  0  0
  -32.0430  -15.7880   20.4170 C   0  0  0  0  0  3  0  0  0  0  0  0
  -30.5860  -14.8800   22.1070 C   0  0  0  0  0  3  0  0  0  0  0  0
  -31.3860  -13.7120   22.1520 C   0  0  0  0  0  3  0  0  0  0  0  0
  -33.3490  -12.2880   21.3030 C   0  0  0  0  0  2  0  0  0  0  0  0
  -34.2560  -12.9640   19.0390 N   0  0  0  0  0  0  0  0  0  0  0  0
  -35.0110  -11.5170   17.4500 O   0  0  0  0  0  0  0  0  0  0  0  0
  -32.5780  -11.0600   19.2280 C   0  0  0  0  0  0  0  0  0  0  0  0
  -31.4850  -10.8570   19.9860 N   0  0  0  0  0  0  0  0  0  0  0  0
  -32.6460  -10.6850   18.0550 O   0  0  0  0  0  0  0  0  0  0  0  0
  -31.5060  -11.1850   20.9420 H   0  0  0  0  0  0  0  0  0  0  0  0
  -28.0710  -10.1160   20.9510 C   0  0  0  0  0  0  0  0  0  0  0  0
  -30.2440  -10.2100   19.5500 C   0  0  0  0  0  3  0  0  0  0  0  0
  -29.4540  -11.1180   18.5800 C   0  0  0  0  0  2  0  0  0  0  0  0
  -28.4090  -11.9890   19.2840 C   0  0  0  0  0  2  0  0  0  0  0  0
  -27.3950  -11.1160   20.0280 C   0  0  0  0  0  2  0  0  0  0  0  0
  -29.4130   -9.7030   20.7360 C   0  0  0  0  0  0  0  0  0  0  0  0
  -30.0040   -8.7970   21.6430 C   0  0  0  0  0  3  0  0  0  0  0  0
  -29.2780   -8.3040   22.7430 C   0  0  0  0  0  3  0  0  0  0  0  0
  -27.9450   -8.7060   22.9440 C   0  0  0  0  0  3  0  0  0  0  0  0
  -27.3430   -9.6060   22.0470 C   0  0  0  0  0  3  0  0  0  0  0  0
  -35.3950  -13.8150   16.9120 C   0  0  0  0  0  3  0  0  0  0  0  0
  -34.3500  -14.2720   15.8180 C   0  0  1  0  0  0  0  0  0  0  0  0
  -33.8080  -13.1100   14.9510 C   0  0  0  0  0  1  0  0  0  0  0  0
  -33.1380  -14.9710   16.4750 C   0  0  0  0  0  1  0  0  0  0  0  0
  -34.9960  -15.3130   14.8750 C   0  0  0  0  0  1  0  0  0  0  0  0
  -36.6220  -13.3210   16.2650 N   0  0  0  0  0  0  0  0  0  0  0  0
  -37.8670  -13.6750   16.6120 C   0  0  0  0  0  0  0  0  0  0  0  0
  -38.1020  -14.5180   17.4830 O   0  0  0  0  0  0  0  0  0  0  0  0
  -36.5060  -12.5910   15.5770 H   0  0  0  0  0  0  0  0  0  0  0  0
  -39.6640  -11.9230   16.7900 C   0  0  0  0  0  1  0  0  0  0  0  0
  -39.0370  -12.9920   15.8790 C   0  0  0  0  0  3  0  0  0  0  0  0
  -39.6450  -14.8010   14.3340 C   0  0  0  0  0  1  0  0  0  0  0  0
  -40.0830  -13.9350   15.4260 N   0  0  0  0  0  0  0  0  0  0  0  0
  -40.9130  -13.4340   15.1210 H   0  0  0  0  0  0  0  0  0  0  0  0
  -30.2060  -21.3120   21.8720 C   0  0  0  0  0  2  0  0  0  0  0  0
  -30.1860  -22.7300   23.9940 C   0  0  0  0  0  1  0  0  0  0  0  0
  -30.1610  -21.3150   23.4060 C   0  0  0  0  0  2  0  0  0  0  0  0
  -28.6150  -22.1610   19.2380 C   0  0  0  0  0  2  0  0  0  0  0  0
  -27.4030  -22.9340   18.3030 C   0  0  0  0  0  3  0  0  0  0  0  0
  -26.2220  -24.0690   18.8030 C   0  0  0  0  0  3  0  0  0  0  0  0
  -24.6140  -25.4070   16.9640 C   0  0  0  0  0  0  0  0  0  0  0  0
  -24.1460  -27.7440   16.0710 C   0  0  0  0  0  2  0  0  0  0  0  0
  -25.2490  -28.7380   16.5030 C   0  0  0  0  0  2  0  0  0  0  0  0
  -24.9230  -29.3370   17.8830 C   0  0  0  0  0  2  0  0  0  0  0  0
  -24.4920  -28.2530   18.9040 C   0  0  0  0  0  3  0  0  0  0  0  0
  -23.4570  -27.2720   18.3220 C   0  0  0  0  0  2  0  0  0  0  0  0
  -24.0440  -26.6770   17.1150 N   0  0  0  0  0  0  0  0  0  0  0  0
  -24.8910  -25.0680   15.8080 O   0  0  0  0  0  0  0  0  0  0  0  0
  -24.8760  -24.5160   18.0620 N   0  0  0  0  0  0  0  0  0  0  0  0
  -22.9820  -28.4290   20.9590 C   0  0  0  0  0  0  0  0  0  0  0  0
  -23.0260  -29.2240   22.0700 C   0  0  0  0  0  0  0  0  0  0  0  0
  -24.1380  -30.1010   21.8860 C   0  0  0  0  0  0  0  0  0  0  0  0
  -24.0420  -28.8290   20.1650 N   0  0  0  0  0  0  0  0  0  0  0  0
  -24.7000  -29.8900   20.7000 N   0  0  0  0  0  0  0  0  0  0  0  0
  -24.7360  -31.0850   22.7970 C   0  0  0  0  0  0  0  0  0  0  0  0
  -25.5000  -32.1710   22.3160 C   0  0  0  0  0  3  0  0  0  0  0  0
  -26.0460  -33.1150   23.2120 C   0  0  0  0  0  3  0  0  0  0  0  0
  -25.8280  -32.9810   24.6040 C   0  0  0  0  0  0  0  0  0  0  0  0
  -25.0870  -31.8850   25.0790 C   0  0  0  0  0  3  0  0  0  0  0  0
  -24.5490  -30.9430   24.1860 C   0  0  0  0  0  3  0  0  0  0  0  0
  -26.3380  -33.8360   25.5510 O   0  0  0  0  0  0  0  0  0  0  0  0
  -27.1520  -34.8870   25.2090 C   0  0  0  0  0  0  0  0  0  0  0  0
  -26.9380  -35.6460   24.0380 C   0  0  0  0  0  3  0  0  0  0  0  0
  -27.7570  -36.7600   23.7620 C   0  0  0  0  0  3  0  0  0  0  0  0
  -28.7810  -37.1220   24.6560 C   0  0  0  0  0  0  0  0  0  0  0  0
  -28.9900  -36.3710   25.8270 C   0  0  0  0  0  3  0  0  0  0  0  0
  -28.1760  -35.2590   26.1030 C   0  0  0  0  0  0  0  0  0  0  0  0
  -28.3710  -34.5510   27.2420 F   0  0  0  0  0  0  0  0  0  0  0  0
  -29.5610  -38.1970   24.3960 F   0  0  0  0  0  0  0  0  0  0  0  0
  -22.1470  -29.1070   23.2810 C   0  0  0  0  0  0  0  0  0  0  0  0
  -21.6720  -30.2320   23.8050 N   0  0  0  0  0  0  0  0  0  0  0  0
  -21.8370  -28.0090   23.7420 O   0  0  0  0  0  0  0  0  0  0  0  0
  -21.9070  -31.1330   23.4160 H   0  0  0  0  0  0  0  0  0  0  0  0
  -21.0630  -30.1920   24.6110 H   0  0  0  0  0  0  0  0  0  0  0  0
  -22.1490  -27.3850   20.5660 N   0  0  0  0  0  0  0  0  0  0  0  0
  -21.4040  -27.0370   21.1600 H   0  0  0  0  0  0  0  0  0  0  0  0
  -22.2620  -26.8500   19.7140 H   0  0  0  0  0  0  0  0  0  0  0  0
  -23.8980  -23.4160   18.2250 C   0  0  0  0  0  2  0  0  0  0  0  0
  -22.5890  -23.7470   19.0100 C   0  0  0  0  0  2  0  0  0  0  0  0
  -20.1510  -23.9030   16.0300 C   0  0  0  0  0  3  0  0  0  0  0  0
  -18.9120  -23.9800   16.6930 C   0  0  0  0  0  3  0  0  0  0  0  0
  -21.3450  -23.8170   16.7700 C   0  0  0  0  0  3  0  0  0  0  0  0
  -20.0620  -23.8710   18.8410 C   0  0  0  0  0  3  0  0  0  0  0  0
  -18.8660  -23.9710   18.1000 C   0  0  0  0  0  0  0  0  0  0  0  0
  -21.3100  -23.7860   18.1830 C   0  0  0  0  0  0  0  0  0  0  0  0
  -17.5340  -24.0980   18.8130 C   0  0  0  0  0  1  0  0  0  0  0  0
  1 51  1  0
  2  1  1  0
  2  4  1  0
  3  2  1  0
  3  7  1  0
  4 48  1  0
  4  6  1  0
  5  3  1  0
  7  9  1  0
  8 18  1  0
  9 15  1  0
 10 20  1  0
 10 17  1  0
 11 16  1  0
 12 13  1  0
 13 11  2  0
 14 13  1  0
 14  9  2  0
 15 16  2  0
 17 11  1  0
 18 12  1  0
 18 10  1  0
 19  8  2  0
 20 21  1  0
 21 23  1  0
 22 20  2  0
 24 33  1  0
 25 21  1  0
 25 29  1  0
 26 27  1  0
 26 25  1  0
 27 28  1  0
 28 24  1  0
 29 24  2  0
 29 30  1  0
 30 31  2  0
 31 32  1  0
 33 32  2  0
 34  8  1  0
 35 37  1  1
 35 34  1  0
 36 35  1  0
 38 35  1  0
 39 40  1  0
 39 34  1  0
 40 41  2  0
 42 39  1  0
 44 40  1  0
 44 43  1  0
 45 46  1  0
 46 44  1  0
 47 46  1  0
 48 50  1  0
 50 49  1  0
 52 53  2  0
 52 51  1  0
 54 60  1  0
 54 62  1  0
 55 56  1  0
 55 60  1  0
 56 57  1  0
 58 57  1  0
 58 66  1  0
 59 58  1  0
 60 59  1  0
 61 54  2  0
 62 91  1  0
 62 53  1  0
 63 64  2  0
 64 83  1  0
 65 64  1  0
 65 68  1  0
 66 67  1  0
 66 63  1  0
 67 65  2  0
 68 73  1  0
 69 68  2  0
 69 70  1  0
 70 71  2  0
 71 72  1  0
 71 74  1  0
 73 72  2  0
 75 74  1  0
 75 80  1  0
 76 75  2  0
 77 76  1  0
 77 78  2  0
 78 79  1  0
 79 80  2  0
 80 81  1  0
 82 78  1  0
 83 85  2  0
 83 84  1  0
 84 87  1  0
 86 84  1  0
 88 63  1  0
 88 89  1  0
 90 88  1  0
 91 92  1  0
 93 94  2  0
 93 95  1  0
 94 97  1  0
 95 98  2  0
 97 99  1  0
 97 96  2  0
 98 96  1  0
 98 92  1  0
M  ISO  4   3 101   7 101  54 100  62 100
M  END
>  <TORSDO>  (73) 
F 25

>  <SCORE>  (73) 
-6.399

>  <name>  (73) 
72

>  <ligand_id>  (73) 
72

>  <original_smiles>  (73) 
[H]c1c([H])c(C([H])([H])[H])c([H])c(C([H])([H])C([H])([H])N(C(=O)N2C([H])([H])C([H])([H])C([H])([H])C([H])(n3nc(-c4c([H])c([H])c(Oc5c([H])c([H])c(F)c([H])c5F)c([H])c4[H])c(C(=O)N([H])[H])c3N([H])[H])C2([H])[H])C([H])([H])C([H])([H])C([H])([H])C([H])([H])C(N([H])Oc2c([H])c([H])c3c(c2[H])C([H])([H])N(C(=O)C([H])(N([H])C(=O)C([H])(N([H])C([H])([H])[H])C([H])([H])[H])C(C([H])([H])[H])(C([H])([H])[H])C([H])([H])[H])C([H])(C(=O)N([H])C2([H])c4c([H])c([H])c([H])c([H])c4C([H])([H])C([H])([H])C2([H])[H])C3([H])[H])=[N+]([H])C([H])([H])C([H])([H])C([H])([H])[H])c1[H]

>  <smiles>  (73) 
[H]c1c([H])c(C([H])([H])[H])c([H])c(C([H])([H])C([H])([H])N(C(=O)N2C([H])([H])C([H])([H])C([H])([H])C([H])(n3nc(-c4c([H])c([H])c(Oc5c([H])c([H])c(F)c([H])c5F)c([H])c4[H])c(C(=O)N([H])[H])c3N([H])[H])C2([H])[H])C([H])([H])C([H])([H])C([H])([H])C([H])([H])C(N([H])Oc2c([H])c([H])c3c(c2[H])C([H])([H])N(C(=O)C([H])(N([H])C(=O)C([H])(N([H])C([H])([H])[H])C([H])([H])[H])C(C([H])([H])[H])(C([H])([H])[H])C([H])([H])[H])C([H])(C(=O)N([H])C2([H])c4c([H])c([H])c([H])c([H])c4C([H])([H])C([H])([H])C2([H])[H])C3([H])[H])=[N+]([H])C([H])([H])C([H])([H])C([H])([H])[H])c1[H]

$$$$
73:0:0
     RDKit          3D

 96106  0  0  1  0  0  0  0  0999 V2000
  -30.7300  -23.7460   21.6070 C   0  0  0  0  0  3  0  0  0  0  0  0
  -31.4090  -22.8660   22.4590 C   0  0  0  0  0  3  0  0  0  0  0  0
  -29.7650  -21.8360   20.4410 C   0  0  0  0  0  3  0  0  0  0  0  0
  -30.4740  -20.9160   21.2740 C   0  0  0  0  0  0  0  0  0  0  0  0
  -29.8920  -23.2450   20.5950 C   0  0  0  0  0  0  0  0  0  0  0  0
  -31.2880  -21.4760   22.3050 C   0  0  0  0  0  0  0  0  0  0  0  0
  -31.9820  -20.7180   23.1830 F   0  0  0  0  0  0  0  0  0  0  0  0
  -31.3120  -18.5070   21.9020 C   0  0  0  0  0  2  0  0  0  0  0  0
  -28.9040  -18.8980   21.4080 C   0  0  0  0  0  2  0  0  0  0  0  0
  -30.5830  -18.9680   19.5630 C   0  0  0  0  0  2  0  0  0  0  0  0
  -31.2260  -16.9970   21.5820 C   0  0  0  0  0  2  0  0  0  0  0  0
  -28.7700  -17.3560   21.2840 C   0  0  0  0  0  2  0  0  0  0  0  0
  -30.3010  -17.4580   19.3120 C   0  0  0  0  0  2  0  0  0  0  0  0
  -30.3330  -19.3740   21.0480 C   0  0  1  0  0  0  0  0  0  0  0  0
  -30.0340  -16.7190   20.6480 C   0  0  1  0  0  0  0  0  0  0  0  0
  -30.4610  -14.3400   19.7760 C   0  0  0  0  0  0  0  0  0  0  0  0
  -30.0760  -12.2420   18.5340 C   0  0  0  0  0  2  0  0  0  0  0  0
  -29.0030  -12.4980   17.4560 C   0  0  0  0  0  2  0  0  0  0  0  0
  -27.5840  -12.3230   18.0340 C   0  0  0  0  0  2  0  0  0  0  0  0
  -27.3840  -13.0840   19.3720 C   0  0  0  0  0  3  0  0  0  0  0  0
  -28.5520  -12.7950   20.3410 C   0  0  0  0  0  2  0  0  0  0  0  0
  -29.8070  -13.1540   19.6560 N   0  0  0  0  0  0  0  0  0  0  0  0
  -31.5150  -14.5880   19.1810 O   0  0  0  0  0  0  0  0  0  0  0  0
  -29.7910  -15.2750   20.4790 N   0  0  0  0  0  0  0  0  0  0  0  0
  -28.9440  -14.9300   20.9060 H   0  0  0  0  0  0  0  0  0  0  0  0
  -25.0690  -13.6360   20.3550 C   0  0  0  0  0  0  0  0  0  0  0  0
  -24.0510  -12.8370   20.7990 C   0  0  0  0  0  0  0  0  0  0  0  0
  -24.5130  -11.4930   20.6570 C   0  0  0  0  0  0  0  0  0  0  0  0
  -26.0880  -12.7770   19.9750 N   0  0  0  0  0  0  0  0  0  0  0  0
  -25.7620  -11.4810   20.2120 N   0  0  0  0  0  0  0  0  0  0  0  0
  -23.8180  -10.2160   20.8640 C   0  0  0  0  0  0  0  0  0  0  0  0
  -24.2610   -9.2830   21.8280 C   0  0  0  0  0  3  0  0  0  0  0  0
  -23.5670   -8.0690   22.0210 C   0  0  0  0  0  3  0  0  0  0  0  0
  -22.4160   -7.7800   21.2500 C   0  0  0  0  0  0  0  0  0  0  0  0
  -21.9920   -8.7020   20.2770 C   0  0  0  0  0  3  0  0  0  0  0  0
  -22.6880   -9.9070   20.0820 C   0  0  0  0  0  3  0  0  0  0  0  0
  -21.6930   -6.6150   21.3520 O   0  0  0  0  0  0  0  0  0  0  0  0
  -21.5420   -5.9630   22.5490 C   0  0  0  0  0  0  0  0  0  0  0  0
  -20.9350   -6.5820   23.6630 C   0  0  0  0  0  3  0  0  0  0  0  0
  -20.7380   -5.8530   24.8530 C   0  0  0  0  0  3  0  0  0  0  0  0
  -21.1380   -4.5040   24.9280 C   0  0  0  0  0  0  0  0  0  0  0  0
  -21.7370   -3.8850   23.8170 C   0  0  0  0  0  3  0  0  0  0  0  0
  -21.9360   -4.6120   22.6300 C   0  0  0  0  0  0  0  0  0  0  0  0
  -22.4950   -4.0050   21.5560 F   0  0  0  0  0  0  0  0  0  0  0  0
  -20.9410   -3.8010   26.0670 F   0  0  0  0  0  0  0  0  0  0  0  0
  -22.6870  -13.2860   21.2420 C   0  0  0  0  0  0  0  0  0  0  0  0
  -22.0720  -12.5580   22.1670 N   0  0  0  0  0  0  0  0  0  0  0  0
  -22.1800  -14.3170   20.8020 O   0  0  0  0  0  0  0  0  0  0  0  0
  -22.4970  -11.7230   22.5420 H   0  0  0  0  0  0  0  0  0  0  0  0
  -21.1630  -12.8400   22.5050 H   0  0  0  0  0  0  0  0  0  0  0  0
  -25.2060  -15.0150   20.2230 N   0  0  0  0  0  0  0  0  0  0  0  0
  -24.4520  -15.6560   20.4420 H   0  0  0  0  0  0  0  0  0  0  0  0
  -26.0110  -15.4750   19.8160 H   0  0  0  0  0  0  0  0  0  0  0  0
  -29.2170  -24.2490   19.6500 C   0  0  0  0  0  2  0  0  0  0  0  0
  -28.2790  -25.2810   20.3350 C   0  0  0  0  0  2  0  0  0  0  0  0
  -28.2610  -26.5300   19.6250 O   0  0  0  0  0  0  0  0  0  0  0  0
  -24.4950  -31.5590   23.0110 C   0  0  0  0  0  0  0  0  0  0  0  0
  -27.0940  -27.2560   19.7100 C   0  0  0  0  0  0  0  0  0  0  0  0
  -23.2670  -30.2360   21.3180 C   0  0  0  0  0  3  0  0  0  0  0  0
  -24.7030  -28.7600   19.8110 C   0  0  0  0  0  0  0  0  0  0  0  0
  -25.7900  -30.6020   21.1080 C   0  0  0  0  0  2  0  0  0  0  0  0
  -25.8680  -29.2590   20.4080 C   0  0  0  0  0  0  0  0  0  0  0  0
  -27.0690  -28.5160   20.3500 C   0  0  0  0  0  3  0  0  0  0  0  0
  -25.9140  -26.7680   19.1110 C   0  0  0  0  0  3  0  0  0  0  0  0
  -24.7200  -27.5130   19.1600 C   0  0  0  0  0  3  0  0  0  0  0  0
  -23.4610  -29.6180   19.9080 C   0  0  0  0  0  2  0  0  0  0  0  0
  -24.5360  -30.8110   21.8720 N   0  0  0  0  0  0  0  0  0  0  0  0
  -23.4200  -31.8090   23.5740 O   0  0  0  0  0  0  0  0  0  0  0  0
  -22.6230  -29.1750   22.2370 C   0  0  0  0  0  0  0  0  0  0  0  0
  -21.2970  -29.0010   22.1130 N   0  0  0  0  0  0  0  0  0  0  0  0
  -23.3130  -28.5120   23.0170 O   0  0  0  0  0  0  0  0  0  0  0  0
  -20.8020  -29.5890   21.4580 H   0  0  0  0  0  0  0  0  0  0  0  0
  -17.9200  -27.8120   22.6060 C   0  0  0  0  0  0  0  0  0  0  0  0
  -20.4850  -28.0300   22.8460 C   0  0  0  0  0  3  0  0  0  0  0  0
  -20.5620  -26.6310   22.1910 C   0  0  0  0  0  2  0  0  0  0  0  0
  -19.4400  -26.3760   21.1800 C   0  0  0  0  0  2  0  0  0  0  0  0
  -18.0710  -26.5000   21.8560 C   0  0  0  0  0  2  0  0  0  0  0  0
  -19.0540  -28.5390   23.0570 C   0  0  0  0  0  0  0  0  0  0  0  0
  -18.8600  -29.7710   23.7170 C   0  0  0  0  0  3  0  0  0  0  0  0
  -17.5630  -30.2770   23.9310 C   0  0  0  0  0  3  0  0  0  0  0  0
  -16.4440  -29.5470   23.4970 C   0  0  0  0  0  3  0  0  0  0  0  0
  -16.6230  -28.3160   22.8400 C   0  0  0  0  0  3  0  0  0  0  0  0
  -25.7890  -32.1560   23.6460 C   0  0  0  0  0  3  0  0  0  0  0  0
  -26.3130  -31.3310   24.8850 C   0  0  1  0  0  0  0  0  0  0  0  0
  -25.2250  -31.0490   25.9480 C   0  0  0  0  0  1  0  0  0  0  0  0
  -26.8920  -29.9720   24.4280 C   0  0  0  0  0  1  0  0  0  0  0  0
  -27.4670  -32.0950   25.5740 C   0  0  0  0  0  1  0  0  0  0  0  0
  -25.4940  -33.5420   24.0320 N   0  0  0  0  0  0  0  0  0  0  0  0
  -25.8450  -34.6210   23.3170 C   0  0  0  0  0  0  0  0  0  0  0  0
  -26.5210  -34.5520   22.2870 O   0  0  0  0  0  0  0  0  0  0  0  0
  -24.8970  -33.6710   24.8340 H   0  0  0  0  0  0  0  0  0  0  0  0
  -24.1560  -36.4560   23.0040 C   0  0  0  0  0  1  0  0  0  0  0  0
  -25.3690  -35.9940   23.8270 C   0  0  0  0  0  3  0  0  0  0  0  0
  -27.4910  -36.8080   24.7570 C   0  0  0  0  0  1  0  0  0  0  0  0
  -26.4210  -37.0340   23.7880 N   0  0  0  0  0  0  0  0  0  0  0  0
  -26.0250  -37.9530   23.9610 H   0  0  0  0  0  0  0  0  0  0  0  0
  1  2  1  0
  3  5  1  0
  3  4  2  0
  4  6  1  0
  5  1  2  0
  6  2  2  0
  6  7  1  0
 10 14  1  0
 11  8  1  0
 12  9  1  0
 13 10  1  0
 13 15  1  0
 14  4  1  6
 14  9  1  0
 14  8  1  0
 15 24  1  6
 15 12  1  0
 15 11  1  0
 16 24  1  0
 17 22  1  0
 18 19  1  0
 18 17  1  0
 20 19  1  0
 20 29  1  0
 20 21  1  0
 22 16  1  0
 22 21  1  0
 23 16  2  0
 24 25  1  0
 26 27  2  0
 27 46  1  0
 28 27  1  0
 28 31  1  0
 29 30  1  0
 29 26  1  0
 30 28  2  0
 31 32  1  0
 32 33  2  0
 34 37  1  0
 34 33  1  0
 35 34  2  0
 36 35  1  0
 36 31  2  0
 37 38  1  0
 38 43  2  0
 38 39  1  0
 39 40  2  0
 40 41  1  0
 41 45  1  0
 42 41  2  0
 43 42  1  0
 44 43  1  0
 46 47  1  0
 47 50  1  0
 47 49  1  0
 48 46  2  0
 51 26  1  0
 51 52  1  0
 53 51  1  0
 54 55  1  0
 54  5  1  0
 56 58  1  0
 56 55  1  0
 57 68  2  0
 58 63  1  0
 59 67  1  0
 59 69  1  0
 60 66  1  0
 60 62  1  0
 61 67  1  0
 62 61  1  0
 63 62  2  0
 64 65  1  0
 64 58  2  0
 65 60  2  0
 66 59  1  0
 67 57  1  0
 69 71  2  0
 70 69  1  0
 72 70  1  0
 73 82  2  0
 73 78  1  0
 74 70  1  0
 74 78  1  0
 75 74  1  0
 76 77  1  0
 76 75  1  0
 77 73  1  0
 78 79  2  0
 79 80  1  0
 81 80  2  0
 82 81  1  0
 83 57  1  0
 83 88  1  0
 83 84  1  0
 84 87  1  1
 84 85  1  0
 86 84  1  0
 88 91  1  0
 89 93  1  0
 89 88  1  0
 90 89  2  0
 93 92  1  0
 95 93  1  0
 95 96  1  0
 95 94  1  0
M  ISO  4  16 100  24 100  55 101  56 101
M  END
>  <TORSDO>  (74) 
F 19

>  <SCORE>  (74) 
-11.123

>  <name>  (74) 
73

>  <ligand_id>  (74) 
73

>  <original_smiles>  (74) 
[H]c1c([H])c([H])c2c(c1[H])C([H])([H])C([H])([H])C([H])([H])C2([H])N([H])C(=O)C1([H])N(C(=O)C([H])(N([H])C(=O)C([H])(N([H])C([H])([H])[H])C([H])([H])[H])C(C([H])([H])[H])(C([H])([H])[H])C([H])([H])[H])C([H])([H])c2c([H])c(OC([H])([H])C([H])([H])c3c([H])c([H])c(F)c(C45C([H])([H])C([H])([H])C(N([H])C(=O)N6C([H])([H])C([H])([H])C([H])([H])C([H])(n7nc(-c8c([H])c([H])c(Oc9c([H])c([H])c(F)c([H])c9F)c([H])c8[H])c(C(=O)N([H])[H])c7N([H])[H])C6([H])[H])(C([H])([H])C4([H])[H])C([H])([H])C5([H])[H])c3[H])c([H])c([H])c2C1([H])[H]

>  <smiles>  (74) 
[H]c1c([H])c([H])c2c(c1[H])C([H])([H])C([H])([H])C([H])([H])C2([H])N([H])C(=O)C1([H])N(C(=O)C([H])(N([H])C(=O)C([H])(N([H])C([H])([H])[H])C([H])([H])[H])C(C([H])([H])[H])(C([H])([H])[H])C([H])([H])[H])C([H])([H])c2c([H])c(OC([H])([H])C([H])([H])c3c([H])c([H])c(F)c(C45C([H])([H])C([H])([H])C(N([H])C(=O)N6C([H])([H])C([H])([H])C([H])([H])C([H])(n7nc(-c8c([H])c([H])c(Oc9c([H])c([H])c(F)c([H])c9F)c([H])c8[H])c(C(=O)N([H])[H])c7N([H])[H])C6([H])[H])(C([H])([H])C4([H])[H])C([H])([H])C5([H])[H])c3[H])c([H])c([H])c2C1([H])[H]

$$$$
74:0:0
     RDKit          3D

 95103  0  0  1  0  0  0  0  0999 V2000
  -33.6200  -19.5380   22.6510 C   0  0  0  0  0  3  0  0  0  0  0  0
  -33.8810  -20.6400   21.8240 C   0  0  0  0  0  3  0  0  0  0  0  0
  -32.4020  -18.8570   22.5310 C   0  0  0  0  0  3  0  0  0  0  0  0
  -32.9060  -21.0960   20.9160 C   0  0  0  0  0  0  0  0  0  0  0  0
  -31.4140  -19.2680   21.6090 C   0  0  0  0  0  0  0  0  0  0  0  0
  -31.6330  -20.4560   20.8360 C   0  0  0  0  0  0  0  0  0  0  0  0
  -33.2790  -22.2730   20.0200 C   0  0  0  0  0  1  0  0  0  0  0  0
  -30.1670  -18.3740   21.5310 C   0  0  0  0  0  2  0  0  0  0  0  0
  -30.4610  -16.8530   21.2830 C   0  0  0  0  0  2  0  0  0  0  0  0
  -31.2560  -17.2300   18.9010 C   0  0  0  0  0  1  0  0  0  0  0  0
  -28.9580  -16.4890   19.2660 C   0  0  0  0  0  1  0  0  0  0  0  0
  -30.3880  -16.3210   19.8190 C   0  0  2  0  0  0  0  0  0  0  0  0
  -31.0030  -14.8600   19.7050 C   0  0  0  0  0  0  0  0  0  0  0  0
  -30.7030  -12.5300   18.9450 C   0  0  0  0  0  2  0  0  0  0  0  0
  -29.7030  -12.4720   17.7750 C   0  0  0  0  0  2  0  0  0  0  0  0
  -28.2740  -12.2790   18.3130 C   0  0  0  0  0  2  0  0  0  0  0  0
  -27.9250  -13.2920   19.4280 C   0  0  0  0  0  3  0  0  0  0  0  0
  -29.0510  -13.4080   20.4870 C   0  0  0  0  0  2  0  0  0  0  0  0
  -30.3200  -13.6750   19.7970 N   0  0  0  0  0  0  0  0  0  0  0  0
  -32.1750  -14.8330   19.3270 O   0  0  0  0  0  0  0  0  0  0  0  0
  -25.6370  -13.9320   20.3960 C   0  0  0  0  0  0  0  0  0  0  0  0
  -24.5830  -13.1720   20.8240 C   0  0  0  0  0  0  0  0  0  0  0  0
  -25.0020  -11.8120   20.6900 C   0  0  0  0  0  0  0  0  0  0  0  0
  -26.6250  -13.0320   20.0280 N   0  0  0  0  0  0  0  0  0  0  0  0
  -26.2570  -11.7510   20.2680 N   0  0  0  0  0  0  0  0  0  0  0  0
  -24.2610  -10.5620   20.8800 C   0  0  0  0  0  0  0  0  0  0  0  0
  -24.6650   -9.6050   21.8360 C   0  0  0  0  0  3  0  0  0  0  0  0
  -23.9290   -8.4150   22.0100 C   0  0  0  0  0  3  0  0  0  0  0  0
  -22.7750   -8.1750   21.2280 C   0  0  0  0  0  0  0  0  0  0  0  0
  -22.3930   -9.1190   20.2600 C   0  0  0  0  0  3  0  0  0  0  0  0
  -23.1290  -10.3020   20.0840 C   0  0  0  0  0  3  0  0  0  0  0  0
  -22.0100   -7.0370   21.3110 O   0  0  0  0  0  0  0  0  0  0  0  0
  -21.8160   -6.3880   22.5040 C   0  0  0  0  0  0  0  0  0  0  0  0
  -21.1930   -7.0190   23.6030 C   0  0  0  0  0  3  0  0  0  0  0  0
  -20.9530   -6.2930   24.7870 C   0  0  0  0  0  3  0  0  0  0  0  0
  -21.3210   -4.9370   24.8710 C   0  0  0  0  0  0  0  0  0  0  0  0
  -21.9370   -4.3070   23.7750 C   0  0  0  0  0  3  0  0  0  0  0  0
  -22.1810   -5.0300   22.5940 C   0  0  0  0  0  0  0  0  0  0  0  0
  -22.7570   -4.4140   21.5350 F   0  0  0  0  0  0  0  0  0  0  0  0
  -21.0790   -4.2360   26.0030 F   0  0  0  0  0  0  0  0  0  0  0  0
  -23.2310  -13.6740   21.2380 C   0  0  0  0  0  0  0  0  0  0  0  0
  -22.5750  -12.9730   22.1570 N   0  0  0  0  0  0  0  0  0  0  0  0
  -22.7660  -14.7190   20.7840 O   0  0  0  0  0  0  0  0  0  0  0  0
  -22.9650  -12.1280   22.5450 H   0  0  0  0  0  0  0  0  0  0  0  0
  -21.6700  -13.2880   22.4760 H   0  0  0  0  0  0  0  0  0  0  0  0
  -25.8200  -15.3030   20.2680 N   0  0  0  0  0  0  0  0  0  0  0  0
  -25.0880  -15.9730   20.4790 H   0  0  0  0  0  0  0  0  0  0  0  0
  -26.6500  -15.7300   19.8750 H   0  0  0  0  0  0  0  0  0  0  0  0
  -30.5710  -21.0820   19.9160 C   0  0  0  0  0  2  0  0  0  0  0  0
  -29.8810  -22.3270   20.5350 C   0  0  0  0  0  2  0  0  0  0  0  0
  -29.5540  -23.4200   19.4860 C   0  0  0  0  0  2  0  0  0  0  0  0
  -29.3710  -24.8470   20.0360 C   0  0  0  0  0  0  0  0  0  0  0  0
  -30.0840  -25.2900   20.9440 O   0  0  0  0  0  0  0  0  0  0  0  0
  -28.2700  -25.6920   19.3790 C   0  0  0  0  0  2  0  0  0  0  0  0
  -28.3560  -27.0870   19.7330 O   0  0  0  0  0  0  0  0  0  0  0  0
  -24.4980  -31.9590   23.2010 C   0  0  0  0  0  0  0  0  0  0  0  0
  -27.1650  -27.7920   19.7690 C   0  0  0  0  0  0  0  0  0  0  0  0
  -23.2830  -30.6340   21.5050 C   0  0  0  0  0  3  0  0  0  0  0  0
  -24.7330  -29.2390   19.9410 C   0  0  0  0  0  0  0  0  0  0  0  0
  -25.7930  -31.0740   21.2640 C   0  0  0  0  0  2  0  0  0  0  0  0
  -25.8940  -29.7500   20.5320 C   0  0  0  0  0  0  0  0  0  0  0  0
  -27.1120  -29.0340   20.4430 C   0  0  0  0  0  3  0  0  0  0  0  0
  -25.9830  -27.3050   19.1610 C   0  0  0  0  0  3  0  0  0  0  0  0
  -24.7740  -28.0170   19.2520 C   0  0  0  0  0  3  0  0  0  0  0  0
  -23.4680  -30.0540   20.0780 C   0  0  0  0  0  2  0  0  0  0  0  0
  -24.5440  -31.2330   22.0490 N   0  0  0  0  0  0  0  0  0  0  0  0
  -23.4270  -32.1660   23.7870 O   0  0  0  0  0  0  0  0  0  0  0  0
  -22.6860  -29.5350   22.4120 C   0  0  0  0  0  0  0  0  0  0  0  0
  -21.3660  -29.3160   22.3000 N   0  0  0  0  0  0  0  0  0  0  0  0
  -23.4050  -28.8840   23.1740 O   0  0  0  0  0  0  0  0  0  0  0  0
  -20.8430  -29.8930   21.6570 H   0  0  0  0  0  0  0  0  0  0  0  0
  -18.0430  -27.9840   22.7870 C   0  0  0  0  0  0  0  0  0  0  0  0
  -20.5960  -28.3080   23.0280 C   0  0  0  0  0  3  0  0  0  0  0  0
  -20.7330  -26.9190   22.3620 C   0  0  0  0  0  2  0  0  0  0  0  0
  -19.6200  -26.6220   21.3510 C   0  0  0  0  0  2  0  0  0  0  0  0
  -18.2480  -26.6840   22.0280 C   0  0  0  0  0  2  0  0  0  0  0  0
  -19.1460  -28.7540   23.2420 C   0  0  0  0  0  0  0  0  0  0  0  0
  -18.8990  -29.9730   23.9120 C   0  0  0  0  0  3  0  0  0  0  0  0
  -17.5830  -30.4220   24.1310 C   0  0  0  0  0  3  0  0  0  0  0  0
  -16.4950  -29.6470   23.6930 C   0  0  0  0  0  3  0  0  0  0  0  0
  -16.7270  -28.4310   23.0250 C   0  0  0  0  0  3  0  0  0  0  0  0
  -25.7850  -32.5830   23.8260 C   0  0  0  0  0  3  0  0  0  0  0  0
  -25.4880  -33.9870   24.1390 N   0  0  0  0  0  0  0  0  0  0  0  0
  -25.8600  -35.0290   23.3850 C   0  0  0  0  0  0  0  0  0  0  0  0
  -26.5620  -34.9110   22.3770 O   0  0  0  0  0  0  0  0  0  0  0  0
  -24.8690  -34.1550   24.9190 H   0  0  0  0  0  0  0  0  0  0  0  0
  -24.1910  -36.8580   22.9430 C   0  0  0  0  0  1  0  0  0  0  0  0
  -25.3780  -36.4270   23.8180 C   0  0  0  0  0  3  0  0  0  0  0  0
  -27.4790  -37.2710   24.7680 C   0  0  0  0  0  1  0  0  0  0  0  0
  -26.4380  -37.4580   23.7620 N   0  0  0  0  0  0  0  0  0  0  0  0
  -26.0430  -38.3870   23.8840 H   0  0  0  0  0  0  0  0  0  0  0  0
  -26.2860  -31.8190   25.1130 C   0  0  1  0  0  0  0  0  0  0  0  0
  -25.1820  -31.5960   26.1720 C   0  0  0  0  0  1  0  0  0  0  0  0
  -26.8640  -30.4360   24.7340 C   0  0  0  0  0  1  0  0  0  0  0  0
  -27.4360  -32.6120   25.7780 C   0  0  0  0  0  1  0  0  0  0  0  0
  2  1  2  0
  3  1  1  0
  4  2  1  0
  5  3  2  0
  6  4  2  0
  6  5  1  0
  7  4  1  0
  8  5  1  0
  9  8  1  0
 12 10  1  6
 11 12  1  0
 12  9  1  0
 13 19  1  0
 13 12  1  0
 14 19  1  0
 15 16  1  0
 15 14  1  0
 17 16  1  0
 17 24  1  0
 17 18  1  0
 19 18  1  0
 20 13  2  0
 21 22  2  0
 22 41  1  0
 23 22  1  0
 23 26  1  0
 24 25  1  0
 24 21  1  0
 25 23  2  0
 26 27  1  0
 27 28  2  0
 29 32  1  0
 29 28  1  0
 30 29  2  0
 31 30  1  0
 31 26  2  0
 32 33  1  0
 33 38  2  0
 33 34  1  0
 34 35  2  0
 35 36  1  0
 36 40  1  0
 37 36  2  0
 38 37  1  0
 39 38  1  0
 41 42  1  0
 42 45  1  0
 42 44  1  0
 43 41  2  0
 46 21  1  0
 46 47  1  0
 48 46  1  0
 49 50  1  0
 49  6  1  0
 51 52  1  0
 51 50  1  0
 52 53  2  0
 54 55  1  0
 54 52  1  0
 55 57  1  0
 56 67  2  0
 57 62  1  0
 58 66  1  0
 58 68  1  0
 59 65  1  0
 59 61  1  0
 60 66  1  0
 61 60  1  0
 62 61  2  0
 63 64  1  0
 63 57  2  0
 64 59  2  0
 65 58  1  0
 66 56  1  0
 68 70  2  0
 69 68  1  0
 71 69  1  0
 72 81  2  0
 72 77  1  0
 73 69  1  0
 73 77  1  0
 74 73  1  0
 75 76  1  0
 75 74  1  0
 76 72  1  0
 77 78  2  0
 78 79  1  0
 80 79  2  0
 81 80  1  0
 82 56  1  0
 82 83  1  0
 82 92  1  0
 83 86  1  0
 84 88  1  0
 84 83  1  0
 85 84  2  0
 88 87  1  0
 90 88  1  0
 90 91  1  0
 90 89  1  0
 92 95  1  1
 92 93  1  0
 94 92  1  0
M  ISO  4  12 100  13 100  54 101  55 101
M  END
>  <TORSDO>  (75) 
F 24

>  <SCORE>  (75) 
-11.424

>  <name>  (75) 
74

>  <ligand_id>  (75) 
74

>  <original_smiles>  (75) 
[H]c1c([H])c([H])c2c(c1[H])C([H])([H])C([H])([H])C([H])([H])C2([H])N([H])C(=O)C1([H])N(C(=O)C([H])(N([H])C(=O)C([H])(N([H])C([H])([H])[H])C([H])([H])[H])C(C([H])([H])[H])(C([H])([H])[H])C([H])([H])[H])C([H])([H])c2c([H])c(OC([H])([H])C(=O)C([H])([H])C([H])([H])C([H])([H])c3c(C([H])([H])[H])c([H])c([H])c([H])c3C([H])([H])C([H])([H])C(C(=O)N3C([H])([H])C([H])([H])C([H])([H])C([H])(n4nc(-c5c([H])c([H])c(Oc6c([H])c([H])c(F)c([H])c6F)c([H])c5[H])c(C(=O)N([H])[H])c4N([H])[H])C3([H])[H])(C([H])([H])[H])C([H])([H])[H])c([H])c([H])c2C1([H])[H]

>  <smiles>  (75) 
[H]c1c([H])c([H])c2c(c1[H])C([H])([H])C([H])([H])C([H])([H])C2([H])N([H])C(=O)C1([H])N(C(=O)C([H])(N([H])C(=O)C([H])(N([H])C([H])([H])[H])C([H])([H])[H])C(C([H])([H])[H])(C([H])([H])[H])C([H])([H])[H])C([H])([H])c2c([H])c(OC([H])([H])C(=O)C([H])([H])C([H])([H])C([H])([H])c3c(C([H])([H])[H])c([H])c([H])c([H])c3C([H])([H])C([H])([H])C(C(=O)N3C([H])([H])C([H])([H])C([H])([H])C([H])(n4nc(-c5c([H])c([H])c(Oc6c([H])c([H])c(F)c([H])c6F)c([H])c5[H])c(C(=O)N([H])[H])c4N([H])[H])C3([H])[H])(C([H])([H])[H])C([H])([H])[H])c([H])c([H])c2C1([H])[H]

$$$$
75:0:0
     RDKit          3D

 92102  0  0  1  0  0  0  0  0999 V2000
  -28.2640  -23.6220   20.5020 C   0  0  0  0  0  3  0  0  0  0  0  0
  -29.5170  -22.6360   18.8380 C   0  0  0  0  0  3  0  0  0  0  0  0
  -28.8650  -22.2960   20.0020 C   0  0  0  0  0  0  0  0  0  0  0  0
  -28.4500  -24.8580   19.7770 C   0  0  0  0  0  0  0  0  0  0  0  0
  -29.4310  -24.3640   18.4050 S   0  0  0  0  0  0  0  0  0  0  0  0
  -29.6690  -19.3190   20.3830 C   0  0  0  0  0  0  0  0  0  0  0  0
  -29.4180  -17.8680   19.9370 C   0  0  0  0  0  0  0  0  0  0  0  0
  -30.4110  -16.8400   20.2180 C   0  0  0  0  0  0  0  0  0  0  0  0
  -30.8920  -19.3050   21.0020 C   0  0  0  0  0  0  0  0  0  0  0  0
  -31.4130  -20.4860   21.7530 C   0  0  0  0  0  2  0  0  0  0  0  0
  -30.3120  -21.1640   22.6110 C   0  0  0  0  0  2  0  0  0  0  0  0
  -28.8570  -20.8880   22.1350 C   0  0  0  0  0  2  0  0  0  0  0  0
  -28.7600  -20.7240   20.6000 C   0  0  0  0  0  3  0  0  0  0  0  0
  -28.1500  -17.5300   19.2170 C   0  0  0  0  0  1  0  0  0  0  0  0
  -31.7020  -17.7290   21.0180 S   0  0  0  0  0  0  0  0  0  0  0  0
  -30.8840  -15.2900   19.8970 C   0  0  0  0  0  0  0  0  0  0  0  0
  -30.6180  -12.9260   18.9670 C   0  0  0  0  0  2  0  0  0  0  0  0
  -29.6470  -12.8730   17.7680 C   0  0  0  0  0  2  0  0  0  0  0  0
  -28.2070  -12.6620   18.2640 C   0  0  0  0  0  2  0  0  0  0  0  0
  -27.8550  -13.5930   19.4530 C   0  0  0  0  0  3  0  0  0  0  0  0
  -28.9580  -13.6620   20.5280 C   0  0  0  0  0  2  0  0  0  0  0  0
  -30.1990  -14.0620   19.8560 N   0  0  0  0  0  0  0  0  0  0  0  0
  -32.0660  -15.1880   19.5460 O   0  0  0  0  0  0  0  0  0  0  0  0
  -25.5370  -14.1720   20.3460 C   0  0  0  0  0  0  0  0  0  0  0  0
  -24.4810  -13.4020   20.7450 C   0  0  0  0  0  0  0  0  0  0  0  0
  -24.9230  -12.0460   20.6530 C   0  0  0  0  0  0  0  0  0  0  0  0
  -26.5500  -13.2890   20.0220 N   0  0  0  0  0  0  0  0  0  0  0  0
  -26.1960  -12.0010   20.2760 N   0  0  0  0  0  0  0  0  0  0  0  0
  -24.1850  -10.7900   20.8450 C   0  0  0  0  0  0  0  0  0  0  0  0
  -24.5830   -9.8380   21.8090 C   0  0  0  0  0  3  0  0  0  0  0  0
  -23.8430   -8.6490   21.9900 C   0  0  0  0  0  3  0  0  0  0  0  0
  -22.6910   -8.4030   21.2040 C   0  0  0  0  0  0  0  0  0  0  0  0
  -22.3140   -9.3430   20.2310 C   0  0  0  0  0  3  0  0  0  0  0  0
  -23.0540  -10.5240   20.0480 C   0  0  0  0  0  3  0  0  0  0  0  0
  -21.9270   -7.2640   21.2920 O   0  0  0  0  0  0  0  0  0  0  0  0
  -21.7510   -6.6040   22.4800 C   0  0  0  0  0  0  0  0  0  0  0  0
  -21.1810   -7.2370   23.6060 C   0  0  0  0  0  3  0  0  0  0  0  0
  -20.9540   -6.5020   24.7880 C   0  0  0  0  0  3  0  0  0  0  0  0
  -21.2880   -5.1350   24.8420 C   0  0  0  0  0  0  0  0  0  0  0  0
  -21.8510   -4.5020   23.7200 C   0  0  0  0  0  3  0  0  0  0  0  0
  -22.0790   -5.2350   22.5420 C   0  0  0  0  0  0  0  0  0  0  0  0
  -22.6020   -4.6160   21.4550 F   0  0  0  0  0  0  0  0  0  0  0  0
  -21.0640   -4.4260   25.9730 F   0  0  0  0  0  0  0  0  0  0  0  0
  -23.1070  -13.8920   21.0960 C   0  0  0  0  0  0  0  0  0  0  0  0
  -22.4240  -13.2040   22.0030 N   0  0  0  0  0  0  0  0  0  0  0  0
  -22.6530  -14.9240   20.6020 O   0  0  0  0  0  0  0  0  0  0  0  0
  -22.8050  -12.3700   22.4230 H   0  0  0  0  0  0  0  0  0  0  0  0
  -21.5050  -13.5160   22.2810 H   0  0  0  0  0  0  0  0  0  0  0  0
  -25.7150  -15.5450   20.2040 N   0  0  0  0  0  0  0  0  0  0  0  0
  -24.9740  -16.2110   20.3960 H   0  0  0  0  0  0  0  0  0  0  0  0
  -26.5730  -15.9800   19.8940 H   0  0  0  0  0  0  0  0  0  0  0  0
  -28.3210  -26.3130   19.8920 O   0  0  0  0  0  0  0  0  0  0  0  0
  -24.5480  -31.8550   23.0440 C   0  0  0  0  0  0  0  0  0  0  0  0
  -27.1900  -27.2220   19.8960 C   0  0  0  0  0  0  0  0  0  0  0  0
  -23.3490  -30.4360   21.4220 C   0  0  0  0  0  3  0  0  0  0  0  0
  -24.8060  -28.9110   19.9400 C   0  0  0  0  0  0  0  0  0  0  0  0
  -25.8870  -30.7790   21.1890 C   0  0  0  0  0  2  0  0  0  0  0  0
  -25.9850  -29.3880   20.5250 C   0  0  0  0  0  0  0  0  0  0  0  0
  -27.1710  -28.5580   20.4850 C   0  0  0  0  0  3  0  0  0  0  0  0
  -25.9830  -26.8510   19.2710 C   0  0  0  0  0  3  0  0  0  0  0  0
  -24.8200  -27.6610   19.2960 C   0  0  0  0  0  3  0  0  0  0  0  0
  -23.5530  -29.7740   20.0310 C   0  0  0  0  0  2  0  0  0  0  0  0
  -24.6160  -31.0480   21.9400 N   0  0  0  0  0  0  0  0  0  0  0  0
  -23.4690  -32.0980   23.6060 O   0  0  0  0  0  0  0  0  0  0  0  0
  -22.7300  -29.4010   22.3950 C   0  0  0  0  0  0  0  0  0  0  0  0
  -21.4100  -29.1680   22.2870 N   0  0  0  0  0  0  0  0  0  0  0  0
  -23.4410  -28.8080   23.2110 O   0  0  0  0  0  0  0  0  0  0  0  0
  -20.8880  -29.7020   21.6060 H   0  0  0  0  0  0  0  0  0  0  0  0
  -18.1100  -27.7590   22.7870 C   0  0  0  0  0  0  0  0  0  0  0  0
  -20.6450  -28.1900   23.0660 C   0  0  0  0  0  3  0  0  0  0  0  0
  -20.8430  -26.7610   22.5100 C   0  0  0  0  0  2  0  0  0  0  0  0
  -19.7700  -26.3540   21.4940 C   0  0  0  0  0  2  0  0  0  0  0  0
  -18.3790  -26.4170   22.1270 C   0  0  0  0  0  2  0  0  0  0  0  0
  -19.1740  -28.5980   23.2130 C   0  0  0  0  0  0  0  0  0  0  0  0
  -18.8680  -29.8490   23.7900 C   0  0  0  0  0  3  0  0  0  0  0  0
  -17.5320  -30.2640   23.9470 C   0  0  0  0  0  3  0  0  0  0  0  0
  -16.4830  -29.4240   23.5350 C   0  0  0  0  0  3  0  0  0  0  0  0
  -16.7720  -28.1740   22.9600 C   0  0  0  0  0  3  0  0  0  0  0  0
  -25.8210  -32.5290   23.6450 C   0  0  0  0  0  3  0  0  0  0  0  0
  -25.4670  -33.9080   24.0190 N   0  0  0  0  0  0  0  0  0  0  0  0
  -25.7800  -34.9990   23.3080 C   0  0  0  0  0  0  0  0  0  0  0  0
  -26.4640  -34.9530   22.2820 O   0  0  0  0  0  0  0  0  0  0  0  0
  -24.8570  -34.0150   24.8160 H   0  0  0  0  0  0  0  0  0  0  0  0
  -24.0220  -36.7730   22.9960 C   0  0  0  0  0  1  0  0  0  0  0  0
  -25.2560  -36.3580   23.8130 C   0  0  0  0  0  3  0  0  0  0  0  0
  -27.3530  -37.2540   24.7250 C   0  0  0  0  0  1  0  0  0  0  0  0
  -26.2670  -37.4370   23.7650 N   0  0  0  0  0  0  0  0  0  0  0  0
  -25.8380  -38.3420   23.9410 H   0  0  0  0  0  0  0  0  0  0  0  0
  -26.4000  -31.7540   24.8940 C   0  0  1  0  0  0  0  0  0  0  0  0
  -25.3480  -31.4630   25.9890 C   0  0  0  0  0  1  0  0  0  0  0  0
  -27.0170  -30.4030   24.4650 C   0  0  0  0  0  1  0  0  0  0  0  0
  -27.5440  -32.5770   25.5340 C   0  0  0  0  0  1  0  0  0  0  0  0
  2  3  2  0
  3  1  1  0
  4 52  1  0
  4  1  2  0
  5  2  1  0
  5  4  1  0
  6 13  1  0
  6  9  2  0
  7  8  2  0
  7  6  1  0
  8 15  1  0
  9 15  1  0
  9 10  1  0
 10 11  1  0
 12 11  1  0
 13  3  1  0
 13 12  1  0
 14  7  1  0
 16  8  1  0
 17 22  1  0
 18 19  1  0
 18 17  1  0
 20 19  1  0
 20 27  1  0
 20 21  1  0
 22 16  1  0
 22 21  1  0
 23 16  2  0
 24 25  2  0
 25 44  1  0
 26 25  1  0
 26 29  1  0
 27 28  1  0
 27 24  1  0
 28 26  2  0
 29 30  1  0
 30 31  2  0
 32 35  1  0
 32 31  1  0
 33 32  2  0
 34 33  1  0
 34 29  2  0
 35 36  1  0
 36 41  2  0
 36 37  1  0
 37 38  2  0
 38 39  1  0
 39 43  1  0
 40 39  2  0
 41 40  1  0
 42 41  1  0
 44 45  1  0
 45 48  1  0
 45 47  1  0
 46 44  2  0
 49 24  1  0
 49 50  1  0
 51 49  1  0
 52 54  1  0
 53 64  2  0
 54 59  1  0
 55 63  1  0
 55 65  1  0
 56 62  1  0
 56 58  1  0
 57 63  1  0
 58 57  1  0
 59 58  2  0
 60 61  1  0
 60 54  2  0
 61 56  2  0
 62 55  1  0
 63 53  1  0
 65 67  2  0
 66 65  1  0
 68 66  1  0
 69 78  2  0
 69 74  1  0
 70 66  1  0
 70 74  1  0
 71 70  1  0
 72 73  1  0
 72 71  1  0
 73 69  1  0
 74 75  2  0
 75 76  1  0
 77 76  2  0
 78 77  1  0
 79 53  1  0
 79 80  1  0
 79 89  1  0
 80 83  1  0
 81 85  1  0
 81 80  1  0
 82 81  2  0
 85 84  1  0
 87 85  1  0
 87 88  1  0
 87 86  1  0
 89 92  1  1
 89 90  1  0
 91 89  1  0
M  ISO  4   4 101   8 100  16 100  52 101
M  END
>  <TORSDO>  (76) 
F 17

>  <SCORE>  (76) 
-14.332

>  <name>  (76) 
75

>  <ligand_id>  (76) 
75

>  <original_smiles>  (76) 
[H]c1sc(Oc2c([H])c([H])c3c(c2[H])C([H])([H])N(C(=O)C([H])(N([H])C(=O)C([H])(N([H])C([H])([H])[H])C([H])([H])[H])C(C([H])([H])[H])(C([H])([H])[H])C([H])([H])[H])C([H])(C(=O)N([H])C2([H])c4c([H])c([H])c([H])c([H])c4C([H])([H])C([H])([H])C2([H])[H])C3([H])[H])c([H])c1C1([H])c2c(sc(C(=O)N3C([H])([H])C([H])([H])C([H])([H])C([H])(n4nc(-c5c([H])c([H])c(Oc6c([H])c([H])c(F)c([H])c6F)c([H])c5[H])c(C(=O)N([H])[H])c4N([H])[H])C3([H])[H])c2C([H])([H])[H])C([H])([H])C([H])([H])C1([H])[H]

>  <smiles>  (76) 
[H]c1sc(Oc2c([H])c([H])c3c(c2[H])C([H])([H])N(C(=O)C([H])(N([H])C(=O)C([H])(N([H])C([H])([H])[H])C([H])([H])[H])C(C([H])([H])[H])(C([H])([H])[H])C([H])([H])[H])C([H])(C(=O)N([H])C2([H])c4c([H])c([H])c([H])c([H])c4C([H])([H])C([H])([H])C2([H])[H])C3([H])[H])c([H])c1C1([H])c2c(sc(C(=O)N3C([H])([H])C([H])([H])C([H])([H])C([H])(n4nc(-c5c([H])c([H])c(Oc6c([H])c([H])c(F)c([H])c6F)c([H])c5[H])c(C(=O)N([H])[H])c4N([H])[H])C3([H])[H])c2C([H])([H])[H])C([H])([H])C([H])([H])C1([H])[H]

$$$$
76:0:0
     RDKit          3D

 95104  0  0  1  0  0  0  0  0999 V2000
  -29.6180  -22.7040   19.9140 C   0  0  0  0  0  3  0  0  0  0  0  0
  -30.1420  -23.9740   22.3490 C   0  0  0  0  0  3  0  0  0  0  0  0
  -29.9870  -24.0710   19.9080 C   0  0  0  0  0  0  0  0  0  0  0  0
  -30.2020  -24.7290   21.1550 C   0  0  0  0  0  0  0  0  0  0  0  0
  -29.5120  -21.9670   21.1130 C   0  0  0  0  0  0  0  0  0  0  0  0
  -29.8110  -22.6030   22.3400 C   0  0  0  0  0  0  0  0  0  0  0  0
  -30.0700  -24.7510   18.5760 C   0  0  0  0  0  0  0  0  0  0  0  0
  -30.4700  -26.2340   21.3030 C   0  0  0  0  0  2  0  0  0  0  0  0
  -30.9840  -25.9710   18.4530 C   0  0  0  0  0  2  0  0  0  0  0  0
  -30.3470  -27.2750   18.9630 C   0  0  0  0  0  2  0  0  0  0  0  0
  -29.6870  -27.1610   20.3440 C   0  0  0  0  0  3  0  0  0  0  0  0
  -29.7570  -21.8500   23.6600 C   0  0  0  0  0  1  0  0  0  0  0  0
  -29.4840  -24.3480   17.5660 O   0  0  0  0  0  0  0  0  0  0  0  0
  -28.3630  -26.6560   20.1540 O   0  0  0  0  0  0  0  0  0  0  0  0
  -24.6120  -31.8900   23.2520 C   0  0  0  0  0  0  0  0  0  0  0  0
  -27.2500  -27.4670   20.1910 C   0  0  0  0  0  0  0  0  0  0  0  0
  -23.3870  -30.4760   21.6300 C   0  0  0  0  0  3  0  0  0  0  0  0
  -24.8310  -28.9340   20.2000 C   0  0  0  0  0  0  0  0  0  0  0  0
  -25.9010  -30.8510   21.3960 C   0  0  0  0  0  2  0  0  0  0  0  0
  -25.9840  -29.4760   20.7750 C   0  0  0  0  0  0  0  0  0  0  0  0
  -27.1930  -28.7520   20.7800 C   0  0  0  0  0  3  0  0  0  0  0  0
  -26.0780  -26.9310   19.6200 C   0  0  0  0  0  3  0  0  0  0  0  0
  -24.8690  -27.6540   19.6190 C   0  0  0  0  0  3  0  0  0  0  0  0
  -23.5800  -29.7820   20.2530 C   0  0  0  0  0  2  0  0  0  0  0  0
  -24.6510  -31.0870   22.1520 N   0  0  0  0  0  0  0  0  0  0  0  0
  -23.5380  -32.1650   23.8050 O   0  0  0  0  0  0  0  0  0  0  0  0
  -22.7470  -29.4620   22.6030 C   0  0  0  0  0  0  0  0  0  0  0  0
  -21.4260  -29.2600   22.4730 N   0  0  0  0  0  0  0  0  0  0  0  0
  -23.4360  -28.8580   23.4290 O   0  0  0  0  0  0  0  0  0  0  0  0
  -20.9340  -29.8020   21.7760 H   0  0  0  0  0  0  0  0  0  0  0  0
  -18.0660  -28.0330   22.9590 C   0  0  0  0  0  0  0  0  0  0  0  0
  -20.6160  -28.3260   23.2520 C   0  0  0  0  0  3  0  0  0  0  0  0
  -20.7430  -26.8870   22.7000 C   0  0  0  0  0  2  0  0  0  0  0  0
  -19.6550  -26.5340   21.6810 C   0  0  0  0  0  2  0  0  0  0  0  0
  -18.2650  -26.6740   22.3090 C   0  0  0  0  0  2  0  0  0  0  0  0
  -19.1710  -28.8160   23.3870 C   0  0  0  0  0  0  0  0  0  0  0  0
  -18.9330  -30.0880   23.9510 C   0  0  0  0  0  3  0  0  0  0  0  0
  -17.6210  -30.5770   24.0930 C   0  0  0  0  0  3  0  0  0  0  0  0
  -16.5290  -29.7910   23.6830 C   0  0  0  0  0  3  0  0  0  0  0  0
  -16.7530  -28.5210   23.1210 C   0  0  0  0  0  3  0  0  0  0  0  0
  -25.9070  -32.5200   23.8560 C   0  0  0  0  0  3  0  0  0  0  0  0
  -25.6040  -33.9150   24.1990 N   0  0  0  0  0  0  0  0  0  0  0  0
  -25.9100  -34.9690   23.4310 C   0  0  0  0  0  0  0  0  0  0  0  0
  -26.5520  -34.8700   22.3820 O   0  0  0  0  0  0  0  0  0  0  0  0
  -25.0310  -34.0650   25.0170 H   0  0  0  0  0  0  0  0  0  0  0  0
  -24.1590  -36.7470   23.1260 C   0  0  0  0  0  1  0  0  0  0  0  0
  -25.4250  -36.3520   23.9030 C   0  0  0  0  0  3  0  0  0  0  0  0
  -27.5740  -37.2510   24.6770 C   0  0  0  0  0  1  0  0  0  0  0  0
  -26.4450  -37.4130   23.7640 N   0  0  0  0  0  0  0  0  0  0  0  0
  -26.0370  -38.3300   23.9270 H   0  0  0  0  0  0  0  0  0  0  0  0
  -26.4540  -31.7380   25.1120 C   0  0  1  0  0  0  0  0  0  0  0  0
  -25.3830  -31.4810   26.1990 C   0  0  0  0  0  1  0  0  0  0  0  0
  -27.0360  -30.3680   24.6890 C   0  0  0  0  0  1  0  0  0  0  0  0
  -27.6100  -32.5330   25.7640 C   0  0  0  0  0  1  0  0  0  0  0  0
  -29.0370  -20.5190   21.0560 C   0  0  0  0  0  2  0  0  0  0  0  0
  -30.1720  -19.4960   20.8630 C   0  0  0  0  0  2  0  0  0  0  0  0
  -29.6730  -18.0510   21.0460 C   0  0  0  0  0  2  0  0  0  0  0  0
  -30.7490  -16.9860   20.7650 C   0  0  0  0  0  2  0  0  0  0  0  0
  -30.2900  -15.5660   21.1730 C   0  0  0  0  0  2  0  0  0  0  0  0
  -30.9540  -14.4220   20.3800 C   0  0  0  0  0  0  0  0  0  0  0  0
  -30.6080  -12.3210   19.1260 C   0  0  0  0  0  2  0  0  0  0  0  0
  -29.6510  -12.5910   17.9470 C   0  0  0  0  0  2  0  0  0  0  0  0
  -28.1800  -12.4710   18.3950 C   0  0  0  0  0  2  0  0  0  0  0  0
  -27.8810  -13.2760   19.6880 C   0  0  0  0  0  3  0  0  0  0  0  0
  -28.9440  -12.9730   20.7690 C   0  0  0  0  0  2  0  0  0  0  0  0
  -30.2680  -13.2630   20.1990 N   0  0  0  0  0  0  0  0  0  0  0  0
  -32.0540  -14.6250   19.8550 O   0  0  0  0  0  0  0  0  0  0  0  0
  -25.4930  -13.9240   20.4030 C   0  0  0  0  0  0  0  0  0  0  0  0
  -24.4170  -13.1680   20.7810 C   0  0  0  0  0  0  0  0  0  0  0  0
  -24.8610  -11.8110   20.7570 C   0  0  0  0  0  0  0  0  0  0  0  0
  -26.5270  -13.0280   20.1740 N   0  0  0  0  0  0  0  0  0  0  0  0
  -26.1480  -11.7520   20.4410 N   0  0  0  0  0  0  0  0  0  0  0  0
  -24.1230  -10.5580   20.9580 C   0  0  0  0  0  0  0  0  0  0  0  0
  -24.5200   -9.6150   21.9330 C   0  0  0  0  0  3  0  0  0  0  0  0
  -23.7850   -8.4250   22.1190 C   0  0  0  0  0  3  0  0  0  0  0  0
  -22.6370   -8.1700   21.3330 C   0  0  0  0  0  0  0  0  0  0  0  0
  -22.2580   -9.1020   20.3500 C   0  0  0  0  0  3  0  0  0  0  0  0
  -22.9940  -10.2830   20.1610 C   0  0  0  0  0  3  0  0  0  0  0  0
  -21.8740   -7.0310   21.4280 O   0  0  0  0  0  0  0  0  0  0  0  0
  -21.7410   -6.3510   22.6120 C   0  0  0  0  0  0  0  0  0  0  0  0
  -21.2140   -6.9640   23.7700 C   0  0  0  0  0  3  0  0  0  0  0  0
  -21.0300   -6.2090   24.9450 C   0  0  0  0  0  3  0  0  0  0  0  0
  -21.3630   -4.8410   24.9630 C   0  0  0  0  0  0  0  0  0  0  0  0
  -21.8840   -4.2280   23.8100 C   0  0  0  0  0  3  0  0  0  0  0  0
  -22.0690   -4.9810   22.6380 C   0  0  0  0  0  0  0  0  0  0  0  0
  -22.5510   -4.3800   21.5220 F   0  0  0  0  0  0  0  0  0  0  0  0
  -21.1790   -4.1130   26.0890 F   0  0  0  0  0  0  0  0  0  0  0  0
  -23.0270  -13.6620   21.0610 C   0  0  0  0  0  0  0  0  0  0  0  0
  -22.2980  -12.9780   21.9360 N   0  0  0  0  0  0  0  0  0  0  0  0
  -22.5960  -14.6900   20.5410 O   0  0  0  0  0  0  0  0  0  0  0  0
  -22.6570  -12.1450   22.3780 H   0  0  0  0  0  0  0  0  0  0  0  0
  -21.3660  -13.2930   22.1680 H   0  0  0  0  0  0  0  0  0  0  0  0
  -25.6770  -15.2900   20.2140 N   0  0  0  0  0  0  0  0  0  0  0  0
  -24.9270  -15.9630   20.3270 H   0  0  0  0  0  0  0  0  0  0  0  0
  -26.5420  -15.7120   19.8970 H   0  0  0  0  0  0  0  0  0  0  0  0
  1  5  1  0
  3  1  2  0
  3  4  1  0
  4  8  1  0
  4  2  2  0
  5  6  2  0
  6  2  1  0
  6 12  1  0
  7  3  1  0
  9  7  1  0
  9 10  1  0
 10 11  1  0
 11 14  1  0
 11  8  1  0
 13  7  2  0
 14 16  1  0
 15 26  2  0
 16 21  1  0
 17 25  1  0
 17 27  1  0
 18 24  1  0
 18 20  1  0
 19 25  1  0
 20 21  2  0
 20 19  1  0
 22 16  2  0
 23 22  1  0
 23 18  2  0
 24 17  1  0
 25 15  1  0
 27 29  2  0
 28 27  1  0
 30 28  1  0
 31 40  2  0
 31 36  1  0
 32 28  1  0
 32 36  1  0
 33 32  1  0
 34 35  1  0
 34 33  1  0
 35 31  1  0
 36 37  2  0
 37 38  1  0
 39 38  2  0
 40 39  1  0
 41 15  1  0
 41 42  1  0
 41 51  1  0
 42 45  1  0
 43 47  1  0
 43 42  1  0
 44 43  2  0
 47 46  1  0
 49 47  1  0
 49 50  1  0
 49 48  1  0
 51 54  1  1
 51 52  1  0
 53 51  1  0
 55  5  1  0
 56 57  1  0
 56 55  1  0
 58 57  1  0
 58 59  1  0
 60 59  1  0
 61 66  1  0
 62 63  1  0
 62 61  1  0
 64 63  1  0
 64 71  1  0
 64 65  1  0
 66 60  1  0
 66 65  1  0
 67 60  2  0
 68 69  2  0
 69 88  1  0
 70 69  1  0
 70 73  1  0
 71 68  1  0
 71 72  1  0
 72 70  2  0
 73 74  1  0
 74 75  2  0
 76 79  1  0
 76 75  1  0
 77 76  2  0
 78 77  1  0
 78 73  2  0
 79 80  1  0
 80 85  2  0
 80 81  1  0
 81 82  2  0
 82 83  1  0
 83 87  1  0
 84 83  2  0
 85 84  1  0
 86 85  1  0
 88 89  1  0
 89 92  1  0
 89 91  1  0
 90 88  2  0
 93 94  1  0
 93 68  1  0
 95 93  1  0
M  ISO  4  11 101  14 101  59 100  60 100
M  END
>  <TORSDO>  (77) 
F 21

>  <SCORE>  (77) 
-13.752

>  <name>  (77) 
76

>  <ligand_id>  (77) 
76

>  <original_smiles>  (77) 
[H]c1c([H])c([H])c2c(c1[H])C([H])([H])C([H])([H])C([H])([H])C2([H])N([H])C(=O)C1([H])N(C(=O)C([H])(N([H])C(=O)C([H])(N([H])C([H])([H])[H])C([H])([H])[H])C(C([H])([H])[H])(C([H])([H])[H])C([H])([H])[H])C([H])([H])c2c([H])c(OC3([H])C([H])([H])c4c([H])c(C([H])([H])[H])c(C([H])([H])C([H])([H])C([H])([H])C([H])([H])C([H])([H])C(=O)N5C([H])([H])C([H])([H])C([H])([H])C([H])(n6nc(-c7c([H])c([H])c(Oc8c([H])c([H])c(F)c([H])c8F)c([H])c7[H])c(C(=O)N([H])[H])c6N([H])[H])C5([H])[H])c([H])c4C(=O)C([H])([H])C3([H])[H])c([H])c([H])c2C1([H])[H]

>  <smiles>  (77) 
[H]c1c([H])c([H])c2c(c1[H])C([H])([H])C([H])([H])C([H])([H])C2([H])N([H])C(=O)C1([H])N(C(=O)C([H])(N([H])C(=O)C([H])(N([H])C([H])([H])[H])C([H])([H])[H])C(C([H])([H])[H])(C([H])([H])[H])C([H])([H])[H])C([H])([H])c2c([H])c(OC3([H])C([H])([H])c4c([H])c(C([H])([H])[H])c(C([H])([H])C([H])([H])C([H])([H])C([H])([H])C([H])([H])C(=O)N5C([H])([H])C([H])([H])C([H])([H])C([H])(n6nc(-c7c([H])c([H])c(Oc8c([H])c([H])c(F)c([H])c8F)c([H])c7[H])c(C(=O)N([H])[H])c6N([H])[H])C5([H])[H])c([H])c4C(=O)C([H])([H])C3([H])[H])c([H])c([H])c2C1([H])[H]

$$$$
77:0:0
     RDKit          3D

 97106  0  0  1  0  0  0  0  0999 V2000
  -32.1390  -21.1940   20.4770 C   0  0  0  0  0  2  0  0  0  0  0  0
  -30.3860  -19.4060   21.0200 C   0  0  0  0  0  3  0  0  0  0  0  0
  -32.2900  -17.3240   20.7630 C   0  0  0  0  0  3  0  0  0  0  0  0
  -30.0240  -18.0580   21.1590 C   0  0  0  0  0  0  0  0  0  0  0  0
  -30.9360  -17.0150   21.0060 C   0  0  0  0  0  0  0  0  0  0  0  0
  -32.6780  -18.6770   20.5800 C   0  0  0  0  0  0  0  0  0  0  0  0
  -31.7250  -19.7320   20.7030 C   0  0  0  0  0  0  0  0  0  0  0  0
  -28.6480  -17.5640   21.4530 C   0  0  0  0  0  2  0  0  0  0  0  0
  -28.7630  -16.0720   21.1300 C   0  0  0  0  0  2  0  0  0  0  0  0
  -30.2670  -15.6360   21.1480 C   0  0  1  0  0  0  0  0  0  0  0  0
  -34.1250  -18.9680   20.2250 C   0  0  0  0  0  1  0  0  0  0  0  0
  -30.6760  -14.5990   20.0220 C   0  0  0  0  0  0  0  0  0  0  0  0
  -30.2640  -12.5630   18.6510 C   0  0  0  0  0  2  0  0  0  0  0  0
  -29.2030  -12.8390   17.5660 C   0  0  0  0  0  2  0  0  0  0  0  0
  -27.7780  -12.6230   18.1140 C   0  0  0  0  0  2  0  0  0  0  0  0
  -27.5620  -13.3580   19.4590 C   0  0  0  0  0  3  0  0  0  0  0  0
  -28.7200  -13.0340   20.4390 C   0  0  0  0  0  2  0  0  0  0  0  0
  -29.9800  -13.4410   19.8040 N   0  0  0  0  0  0  0  0  0  0  0  0
  -31.6730  -14.8430   19.3310 O   0  0  0  0  0  0  0  0  0  0  0  0
  -25.2310  -13.9450   20.3830 C   0  0  0  0  0  0  0  0  0  0  0  0
  -24.2010  -13.1540   20.8160 C   0  0  0  0  0  0  0  0  0  0  0  0
  -24.6650  -11.8080   20.7050 C   0  0  0  0  0  0  0  0  0  0  0  0
  -26.2560  -13.0740   20.0410 N   0  0  0  0  0  0  0  0  0  0  0  0
  -25.9240  -11.7850   20.2900 N   0  0  0  0  0  0  0  0  0  0  0  0
  -23.9680  -10.5350   20.9120 C   0  0  0  0  0  0  0  0  0  0  0  0
  -24.4440   -9.5770   21.8340 C   0  0  0  0  0  3  0  0  0  0  0  0
  -23.7480   -8.3660   22.0300 C   0  0  0  0  0  3  0  0  0  0  0  0
  -22.5620   -8.1050   21.3030 C   0  0  0  0  0  0  0  0  0  0  0  0
  -22.1070   -9.0510   20.3680 C   0  0  0  0  0  3  0  0  0  0  0  0
  -22.8030  -10.2550   20.1710 C   0  0  0  0  0  3  0  0  0  0  0  0
  -21.8340   -6.9450   21.4090 O   0  0  0  0  0  0  0  0  0  0  0  0
  -21.7820   -6.2330   22.5800 C   0  0  0  0  0  0  0  0  0  0  0  0
  -21.3300   -6.8130   23.7850 C   0  0  0  0  0  3  0  0  0  0  0  0
  -21.2260   -6.0260   24.9500 C   0  0  0  0  0  3  0  0  0  0  0  0
  -21.5660   -4.6610   24.9090 C   0  0  0  0  0  0  0  0  0  0  0  0
  -22.0130   -4.0800   23.7090 C   0  0  0  0  0  3  0  0  0  0  0  0
  -22.1180   -4.8650   22.5480 C   0  0  0  0  0  0  0  0  0  0  0  0
  -22.5280   -4.2960   21.3890 F   0  0  0  0  0  0  0  0  0  0  0  0
  -21.4580   -3.9020   26.0260 F   0  0  0  0  0  0  0  0  0  0  0  0
  -22.8270  -13.6090   21.2180 C   0  0  0  0  0  0  0  0  0  0  0  0
  -22.1900  -12.8910   22.1350 N   0  0  0  0  0  0  0  0  0  0  0  0
  -22.3310  -14.6350   20.7550 O   0  0  0  0  0  0  0  0  0  0  0  0
  -22.6060  -12.0610   22.5310 H   0  0  0  0  0  0  0  0  0  0  0  0
  -21.2720  -13.1760   22.4480 H   0  0  0  0  0  0  0  0  0  0  0  0
  -25.3680  -15.3220   20.2310 N   0  0  0  0  0  0  0  0  0  0  0  0
  -24.6040  -15.9620   20.4200 H   0  0  0  0  0  0  0  0  0  0  0  0
  -26.1750  -15.7780   19.8270 H   0  0  0  0  0  0  0  0  0  0  0  0
  -30.5580  -15.0910   22.4230 O   0  0  0  0  0  0  0  0  0  0  0  0
  -30.3440  -15.7630   23.0570 H   0  0  0  0  0  0  0  0  0  0  0  0
  -31.0430  -22.2640   20.7140 C   0  0  0  0  0  2  0  0  0  0  0  0
  -31.5120  -23.7050   20.4120 C   0  0  0  0  0  2  0  0  0  0  0  0
  -30.4290  -24.7040   20.5830 N   0  0  0  0  0  4  0  0  0  0  0  0
  -30.1110  -24.6870   21.5390 H   0  0  0  0  0  0  0  0  0  0  0  0
  -29.6470  -24.4420   20.0010 H   0  0  0  0  0  0  0  0  0  0  0  0
  -30.8140  -26.0930   20.2230 C   0  0  0  0  0  2  0  0  0  0  0  0
  -29.7080  -27.1240   20.5410 C   0  0  0  0  0  2  0  0  0  0  0  0
  -28.5160  -26.7240   19.8700 O   0  0  0  0  0  0  0  0  0  0  0  0
  -24.5760  -31.7570   23.1650 C   0  0  0  0  0  0  0  0  0  0  0  0
  -27.3720  -27.4870   19.9800 C   0  0  0  0  0  0  0  0  0  0  0  0
  -23.4140  -30.3650   21.4800 C   0  0  0  0  0  3  0  0  0  0  0  0
  -24.9200  -28.9020   20.0290 C   0  0  0  0  0  0  0  0  0  0  0  0
  -25.9270  -30.8000   21.3050 C   0  0  0  0  0  2  0  0  0  0  0  0
  -26.0570  -29.4470   20.6380 C   0  0  0  0  0  0  0  0  0  0  0  0
  -27.2840  -28.7470   20.6220 C   0  0  0  0  0  3  0  0  0  0  0  0
  -26.2140  -26.9510   19.3780 C   0  0  0  0  0  3  0  0  0  0  0  0
  -24.9900  -27.6480   19.3990 C   0  0  0  0  0  3  0  0  0  0  0  0
  -23.6490  -29.7220   20.0860 C   0  0  0  0  0  2  0  0  0  0  0  0
  -24.6560  -30.9890   22.0420 N   0  0  0  0  0  0  0  0  0  0  0  0
  -23.4860  -31.9890   23.7070 O   0  0  0  0  0  0  0  0  0  0  0  0
  -22.7830  -29.3060   22.4120 C   0  0  0  0  0  0  0  0  0  0  0  0
  -21.4580  -29.1160   22.2890 N   0  0  0  0  0  0  0  0  0  0  0  0
  -23.4800  -28.6610   23.1990 O   0  0  0  0  0  0  0  0  0  0  0  0
  -20.9580  -29.6900   21.6260 H   0  0  0  0  0  0  0  0  0  0  0  0
  -18.0930  -27.9110   22.8130 C   0  0  0  0  0  0  0  0  0  0  0  0
  -20.6580  -28.1440   23.0350 C   0  0  0  0  0  3  0  0  0  0  0  0
  -20.7380  -26.7430   22.3860 C   0  0  0  0  0  2  0  0  0  0  0  0
  -19.6100  -26.4760   21.3840 C   0  0  0  0  0  2  0  0  0  0  0  0
  -18.2450  -26.5970   22.0660 C   0  0  0  0  0  2  0  0  0  0  0  0
  -19.2260  -28.6450   23.2530 C   0  0  0  0  0  0  0  0  0  0  0  0
  -19.0300  -29.8800   23.9100 C   0  0  0  0  0  3  0  0  0  0  0  0
  -17.7320  -30.3800   24.1310 C   0  0  0  0  0  3  0  0  0  0  0  0
  -16.6140  -29.6410   23.7070 C   0  0  0  0  0  3  0  0  0  0  0  0
  -16.7950  -28.4080   23.0550 C   0  0  0  0  0  3  0  0  0  0  0  0
  -25.8450  -32.4020   23.8070 C   0  0  0  0  0  3  0  0  0  0  0  0
  -25.4980  -33.7770   24.1900 N   0  0  0  0  0  0  0  0  0  0  0  0
  -25.8090  -34.8660   23.4740 C   0  0  0  0  0  0  0  0  0  0  0  0
  -26.4880  -34.8210   22.4450 O   0  0  0  0  0  0  0  0  0  0  0  0
  -24.8970  -33.8860   24.9940 H   0  0  0  0  0  0  0  0  0  0  0  0
  -24.0460  -36.6300   23.1590 C   0  0  0  0  0  1  0  0  0  0  0  0
  -25.2790  -36.2210   23.9800 C   0  0  0  0  0  3  0  0  0  0  0  0
  -27.3760  -37.1160   24.8930 C   0  0  0  0  0  1  0  0  0  0  0  0
  -26.2900  -37.3010   23.9330 N   0  0  0  0  0  0  0  0  0  0  0  0
  -25.8600  -38.2050   24.1120 H   0  0  0  0  0  0  0  0  0  0  0  0
  -26.3920  -31.5960   25.0490 C   0  0  1  0  0  0  0  0  0  0  0  0
  -25.3100  -31.2770   26.1050 C   0  0  0  0  0  1  0  0  0  0  0  0
  -27.0200  -30.2580   24.5950 C   0  0  0  0  0  1  0  0  0  0  0  0
  -27.5170  -32.4010   25.7420 C   0  0  0  0  0  1  0  0  0  0  0  0
  1  7  1  0
  1 50  1  0
  2  4  1  0
  3  5  1  0
  4  8  1  0
  5 10  1  0
  5  4  2  0
  6  7  1  0
  6  3  2  0
  7  2  2  0
  9 10  1  0
  9  8  1  0
 10 12  1  0
 10 48  1  1
 11  6  1  0
 13 18  1  0
 14 15  1  0
 14 13  1  0
 16 15  1  0
 16 23  1  0
 16 17  1  0
 18 12  1  0
 18 17  1  0
 19 12  2  0
 20 21  2  0
 21 40  1  0
 22 21  1  0
 22 25  1  0
 23 24  1  0
 23 20  1  0
 24 22  2  0
 25 26  1  0
 26 27  2  0
 28 31  1  0
 28 27  1  0
 29 28  2  0
 30 29  1  0
 30 25  2  0
 31 32  1  0
 32 33  1  0
 33 34  2  0
 35 34  1  0
 35 39  1  0
 36 35  2  0
 37 32  2  0
 37 36  1  0
 38 37  1  0
 40 41  1  0
 41 44  1  0
 41 43  1  0
 42 40  2  0
 45 20  1  0
 45 46  1  0
 47 45  1  0
 48 49  1  0
 51 52  1  0
 51 50  1  0
 52 53  1  0
 54 52  1  0
 55 56  1  0
 55 52  1  0
 57 59  1  0
 57 56  1  0
 58 69  2  0
 59 64  1  0
 60 68  1  0
 60 70  1  0
 61 67  1  0
 61 63  1  0
 62 68  1  0
 63 62  1  0
 64 63  2  0
 65 66  1  0
 65 59  2  0
 66 61  2  0
 67 60  1  0
 68 58  1  0
 70 72  2  0
 71 70  1  0
 73 71  1  0
 74 83  2  0
 74 79  1  0
 75 71  1  0
 75 79  1  0
 76 75  1  0
 77 78  1  0
 77 76  1  0
 78 74  1  0
 79 80  2  0
 80 81  1  0
 82 81  2  0
 83 82  1  0
 84 58  1  0
 84 85  1  0
 84 94  1  0
 85 88  1  0
 86 90  1  0
 86 85  1  0
 87 86  2  0
 90 89  1  0
 92 90  1  0
 92 93  1  0
 92 91  1  0
 94 97  1  1
 94 95  1  0
 96 94  1  0
M  ISO  4  10 100  12 100  56 101  57 101
M  END
>  <TORSDO>  (78) 
F 23

>  <SCORE>  (78) 
-11.357

>  <name>  (78) 
77

>  <ligand_id>  (78) 
77

>  <original_smiles>  (78) 
[H]OC1(C(=O)N2C([H])([H])C([H])([H])C([H])([H])C([H])(n3nc(-c4c([H])c([H])c(Oc5c([H])c([H])c(F)c([H])c5F)c([H])c4[H])c(C(=O)N([H])[H])c3N([H])[H])C2([H])[H])c2c([H])c(C([H])([H])[H])c(C([H])([H])C([H])([H])C([H])([H])[N+]([H])([H])C([H])([H])C([H])([H])Oc3c([H])c([H])c4c(c3[H])C([H])([H])N(C(=O)C([H])(N([H])C(=O)C([H])(N([H])C([H])([H])[H])C([H])([H])[H])C(C([H])([H])[H])(C([H])([H])[H])C([H])([H])[H])C([H])(C(=O)N([H])C3([H])c5c([H])c([H])c([H])c([H])c5C([H])([H])C([H])([H])C3([H])[H])C4([H])[H])c([H])c2C([H])([H])C1([H])[H]

>  <smiles>  (78) 
[H]OC1(C(=O)N2C([H])([H])C([H])([H])C([H])([H])C([H])(n3nc(-c4c([H])c([H])c(Oc5c([H])c([H])c(F)c([H])c5F)c([H])c4[H])c(C(=O)N([H])[H])c3N([H])[H])C2([H])[H])c2c([H])c(C([H])([H])[H])c(C([H])([H])C([H])([H])C([H])([H])[N+]([H])([H])C([H])([H])C([H])([H])Oc3c([H])c([H])c4c(c3[H])C([H])([H])N(C(=O)C([H])(N([H])C(=O)C([H])(N([H])C([H])([H])[H])C([H])([H])[H])C(C([H])([H])[H])(C([H])([H])[H])C([H])([H])[H])C([H])(C(=O)N([H])C3([H])c5c([H])c([H])c([H])c([H])c5C([H])([H])C([H])([H])C3([H])[H])C4([H])[H])c([H])c2C([H])([H])C1([H])[H]

$$$$
78:0:0
     RDKit          3D

 94103  0  0  1  0  0  0  0  0999 V2000
  -28.8400  -23.5880   20.5670 C   0  0  0  0  0  3  0  0  0  0  0  0
  -28.4050  -22.1030   18.6980 C   0  0  0  0  0  3  0  0  0  0  0  0
  -27.8810  -24.5260   18.5650 C   0  0  0  0  0  3  0  0  0  0  0  0
  -28.9290  -22.1970   20.0030 C   0  0  0  0  0  0  0  0  0  0  0  0
  -28.2920  -24.8060   19.8890 C   0  0  0  0  0  0  0  0  0  0  0  0
  -27.9080  -23.2290   18.0030 C   0  0  0  0  0  0  0  0  0  0  0  0
  -27.4660  -23.0620   16.7340 F   0  0  0  0  0  0  0  0  0  0  0  0
  -30.8290  -21.6060   22.6250 C   0  0  0  0  0  0  0  0  0  0  0  0
  -31.7850  -21.8510   21.4780 C   0  0  0  0  0  2  0  0  0  0  0  0
  -29.5720  -20.8930   22.1610 C   0  0  0  0  0  2  0  0  0  0  0  0
  -31.1780  -21.0320   20.3330 C   0  0  0  0  0  2  0  0  0  0  0  0
  -29.6660  -20.8270   20.6200 C   0  0  2  0  0  0  0  0  0  0  0  0
  -31.0460  -21.9440   23.7910 O   0  0  0  0  0  0  0  0  0  0  0  0
  -29.3000  -19.2090   20.1780 C   0  0  0  0  0  3  0  0  0  0  0  0
  -30.2070  -17.8150   20.5850 C   0  0  0  0  0  3  0  0  0  0  0  0
  -30.5670  -15.0800   20.2590 C   0  0  0  0  0  0  0  0  0  0  0  0
  -30.4330  -12.7360   19.2870 C   0  0  0  0  0  2  0  0  0  0  0  0
  -29.4800  -12.6870   18.0700 C   0  0  0  0  0  2  0  0  0  0  0  0
  -28.0270  -12.4570   18.5300 C   0  0  0  0  0  2  0  0  0  0  0  0
  -27.6310  -13.3750   19.7160 C   0  0  0  0  0  3  0  0  0  0  0  0
  -28.7050  -13.3970   20.8240 C   0  0  0  0  0  2  0  0  0  0  0  0
  -29.9600  -13.8240   20.1900 N   0  0  0  0  0  0  0  0  0  0  0  0
  -31.7730  -15.1290   19.9960 O   0  0  0  0  0  0  0  0  0  0  0  0
  -29.8080  -16.2800   20.4220 N   0  0  0  0  0  0  0  0  0  0  0  0
  -28.8220  -16.1000   20.5440 H   0  0  0  0  0  0  0  0  0  0  0  0
  -25.2560  -13.9310   20.4890 C   0  0  0  0  0  0  0  0  0  0  0  0
  -24.2030  -13.1480   20.8680 C   0  0  0  0  0  0  0  0  0  0  0  0
  -24.6760  -11.8000   20.8300 C   0  0  0  0  0  0  0  0  0  0  0  0
  -26.3030  -13.0630   20.2340 N   0  0  0  0  0  0  0  0  0  0  0  0
  -25.9650  -11.7750   20.5050 N   0  0  0  0  0  0  0  0  0  0  0  0
  -23.9610  -10.5320   21.0230 C   0  0  0  0  0  0  0  0  0  0  0  0
  -24.4050   -9.5690   21.9560 C   0  0  0  0  0  3  0  0  0  0  0  0
  -23.6870   -8.3660   22.1370 C   0  0  0  0  0  3  0  0  0  0  0  0
  -22.5120   -8.1200   21.3890 C   0  0  0  0  0  0  0  0  0  0  0  0
  -22.0880   -9.0730   20.4450 C   0  0  0  0  0  3  0  0  0  0  0  0
  -22.8060  -10.2650   20.2610 C   0  0  0  0  0  3  0  0  0  0  0  0
  -21.7650   -6.9700   21.4800 O   0  0  0  0  0  0  0  0  0  0  0  0
  -21.7190   -6.2330   22.6360 C   0  0  0  0  0  0  0  0  0  0  0  0
  -21.2630   -6.7830   23.8540 C   0  0  0  0  0  3  0  0  0  0  0  0
  -21.1670   -5.9710   25.0010 C   0  0  0  0  0  3  0  0  0  0  0  0
  -21.5140   -4.6090   24.9330 C   0  0  0  0  0  0  0  0  0  0  0  0
  -21.9620   -4.0570   23.7190 C   0  0  0  0  0  3  0  0  0  0  0  0
  -22.0610   -4.8670   22.5730 C   0  0  0  0  0  0  0  0  0  0  0  0
  -22.4720   -4.3260   21.4020 F   0  0  0  0  0  0  0  0  0  0  0  0
  -21.4140   -3.8260   26.0320 F   0  0  0  0  0  0  0  0  0  0  0  0
  -22.8050  -13.6140   21.1520 C   0  0  0  0  0  0  0  0  0  0  0  0
  -22.0880  -12.9100   22.0210 N   0  0  0  0  0  0  0  0  0  0  0  0
  -22.3570  -14.6400   20.6400 O   0  0  0  0  0  0  0  0  0  0  0  0
  -22.4650  -12.0810   22.4570 H   0  0  0  0  0  0  0  0  0  0  0  0
  -21.1510  -13.2040   22.2540 H   0  0  0  0  0  0  0  0  0  0  0  0
  -25.4040  -15.3040   20.3120 N   0  0  0  0  0  0  0  0  0  0  0  0
  -24.6270  -15.9450   20.4290 H   0  0  0  0  0  0  0  0  0  0  0  0
  -26.2320  -15.7530   19.9410 H   0  0  0  0  0  0  0  0  0  0  0  0
  -28.2800  -26.2220   20.3310 O   0  0  0  0  0  0  0  0  0  0  0  0
  -24.6180  -31.9420   23.2580 C   0  0  0  0  0  0  0  0  0  0  0  0
  -27.2050  -27.1980   20.2460 C   0  0  0  0  0  0  0  0  0  0  0  0
  -23.4210  -30.5420   21.6210 C   0  0  0  0  0  3  0  0  0  0  0  0
  -24.8720  -28.9620   20.2050 C   0  0  0  0  0  0  0  0  0  0  0  0
  -25.9780  -30.8020   21.4590 C   0  0  0  0  0  2  0  0  0  0  0  0
  -26.0530  -29.4060   20.8110 C   0  0  0  0  0  0  0  0  0  0  0  0
  -27.2170  -28.5430   20.8100 C   0  0  0  0  0  3  0  0  0  0  0  0
  -25.9800  -26.8520   19.6300 C   0  0  0  0  0  3  0  0  0  0  0  0
  -24.8490  -27.6970   19.6010 C   0  0  0  0  0  3  0  0  0  0  0  0
  -23.6450  -29.8600   20.2460 C   0  0  0  0  0  2  0  0  0  0  0  0
  -24.6940  -31.1180   22.1680 N   0  0  0  0  0  0  0  0  0  0  0  0
  -23.5290  -32.2280   23.7810 O   0  0  0  0  0  0  0  0  0  0  0  0
  -22.7380  -29.5390   22.5840 C   0  0  0  0  0  0  0  0  0  0  0  0
  -21.4140  -29.3490   22.4350 N   0  0  0  0  0  0  0  0  0  0  0  0
  -23.4020  -28.9340   23.4300 O   0  0  0  0  0  0  0  0  0  0  0  0
  -20.9340  -29.8900   21.7290 H   0  0  0  0  0  0  0  0  0  0  0  0
  -18.0410  -28.1090   22.8900 C   0  0  0  0  0  0  0  0  0  0  0  0
  -20.5900  -28.4130   23.2030 C   0  0  0  0  0  3  0  0  0  0  0  0
  -20.7230  -26.9730   22.6530 C   0  0  0  0  0  2  0  0  0  0  0  0
  -19.6460  -26.6190   21.6230 C   0  0  0  0  0  2  0  0  0  0  0  0
  -18.2500  -26.7530   22.2370 C   0  0  0  0  0  2  0  0  0  0  0  0
  -19.1390  -28.8940   23.3290 C   0  0  0  0  0  0  0  0  0  0  0  0
  -18.8890  -30.1610   23.9000 C   0  0  0  0  0  3  0  0  0  0  0  0
  -17.5720  -30.6420   24.0360 C   0  0  0  0  0  3  0  0  0  0  0  0
  -16.4880  -29.8540   23.6110 C   0  0  0  0  0  3  0  0  0  0  0  0
  -16.7230  -28.5890   23.0440 C   0  0  0  0  0  3  0  0  0  0  0  0
  -25.8920  -32.5810   23.8880 C   0  0  0  0  0  3  0  0  0  0  0  0
  -26.3930  -31.8180   25.1770 C   0  0  1  0  0  0  0  0  0  0  0  0
  -25.2880  -31.5900   26.2360 C   0  0  0  0  0  1  0  0  0  0  0  0
  -26.9770  -30.4370   24.8050 C   0  0  0  0  0  1  0  0  0  0  0  0
  -27.5390  -32.6160   25.8420 C   0  0  0  0  0  1  0  0  0  0  0  0
  -25.5800  -33.9820   24.2120 N   0  0  0  0  0  0  0  0  0  0  0  0
  -25.9070  -35.0330   23.4490 C   0  0  0  0  0  0  0  0  0  0  0  0
  -26.5680  -34.9250   22.4130 O   0  0  0  0  0  0  0  0  0  0  0  0
  -24.9920  -34.1390   25.0180 H   0  0  0  0  0  0  0  0  0  0  0  0
  -24.1750  -36.8280   23.1060 C   0  0  0  0  0  1  0  0  0  0  0  0
  -25.4250  -36.4260   23.9050 C   0  0  0  0  0  3  0  0  0  0  0  0
  -27.5650  -37.3200   24.7130 C   0  0  0  0  0  1  0  0  0  0  0  0
  -26.4570  -37.4790   23.7750 N   0  0  0  0  0  0  0  0  0  0  0  0
  -26.0510  -38.4000   23.9180 H   0  0  0  0  0  0  0  0  0  0  0  0
  2  4  2  0
  3  5  1  0
  4  1  1  0
  4 12  1  0
  5 54  1  0
  5  1  2  0
  6  3  2  0
  6  2  1  0
  7  6  1  0
  8 13  2  0
  9  8  1  0
 10  8  1  0
 11 12  1  0
 11  9  1  0
 12 14  1  6
 12 10  1  0
 14 15  2  0
 16 24  1  0
 17 22  1  0
 18 19  1  0
 18 17  1  0
 20 19  1  0
 20 29  1  0
 20 21  1  0
 22 16  1  0
 22 21  1  0
 23 16  2  0
 24 25  1  0
 24 15  1  0
 26 27  2  0
 27 46  1  0
 28 27  1  0
 28 31  1  0
 29 26  1  0
 29 30  1  0
 30 28  2  0
 31 32  1  0
 32 33  2  0
 34 37  1  0
 34 33  1  0
 35 34  2  0
 36 35  1  0
 36 31  2  0
 37 38  1  0
 38 39  1  0
 39 40  2  0
 41 40  1  0
 41 45  1  0
 42 41  2  0
 43 38  2  0
 43 42  1  0
 44 43  1  0
 46 47  1  0
 47 50  1  0
 47 49  1  0
 48 46  2  0
 51 52  1  0
 51 26  1  0
 53 51  1  0
 55 66  2  0
 56 54  1  0
 56 61  1  0
 57 65  1  0
 57 67  1  0
 58 64  1  0
 58 60  1  0
 59 65  1  0
 60 59  1  0
 61 60  2  0
 62 56  2  0
 63 62  1  0
 63 58  2  0
 64 57  1  0
 65 55  1  0
 67 69  2  0
 68 67  1  0
 70 68  1  0
 71 80  2  0
 71 76  1  0
 72 68  1  0
 72 76  1  0
 73 72  1  0
 74 75  1  0
 74 73  1  0
 75 71  1  0
 76 77  2  0
 77 78  1  0
 79 78  2  0
 80 79  1  0
 81 55  1  0
 81 86  1  0
 81 82  1  0
 82 85  1  1
 82 83  1  0
 84 82  1  0
 86 89  1  0
 87 91  1  0
 87 86  1  0
 88 87  2  0
 91 90  1  0
 93 91  1  0
 93 94  1  0
 93 92  1  0
M  ISO  4   5 101  16 100  24 100  54 101
M  END
>  <TORSDO>  (79) 
F 19

>  <SCORE>  (79) 
-15.090

>  <name>  (79) 
78

>  <ligand_id>  (79) 
78

>  <original_smiles>  (79) 
[H]c1c([H])c([H])c2c(c1[H])C([H])([H])C([H])([H])C([H])([H])C2([H])N([H])C(=O)C1([H])N(C(=O)C([H])(N([H])C(=O)C([H])(N([H])C([H])([H])[H])C([H])([H])[H])C(C([H])([H])[H])(C([H])([H])[H])C([H])([H])[H])C([H])([H])c2c([H])c(Oc3c([H])c(F)c([H])c(C4(C([H])([H])C([H])([H])N([H])C(=O)N5C([H])([H])C([H])([H])C([H])([H])C([H])(n6nc(-c7c([H])c([H])c(Oc8c([H])c([H])c(F)c([H])c8F)c([H])c7[H])c(C(=O)N([H])[H])c6N([H])[H])C5([H])[H])C([H])([H])C(=O)C([H])([H])C4([H])[H])c3[H])c([H])c([H])c2C1([H])[H]

>  <smiles>  (79) 
[H]c1c([H])c([H])c2c(c1[H])C([H])([H])C([H])([H])C([H])([H])C2([H])N([H])C(=O)C1([H])N(C(=O)C([H])(N([H])C(=O)C([H])(N([H])C([H])([H])[H])C([H])([H])[H])C(C([H])([H])[H])(C([H])([H])[H])C([H])([H])[H])C([H])([H])c2c([H])c(Oc3c([H])c(F)c([H])c(C4(C([H])([H])C([H])([H])N([H])C(=O)N5C([H])([H])C([H])([H])C([H])([H])C([H])(n6nc(-c7c([H])c([H])c(Oc8c([H])c([H])c(F)c([H])c8F)c([H])c7[H])c(C(=O)N([H])[H])c6N([H])[H])C5([H])[H])C([H])([H])C(=O)C([H])([H])C4([H])[H])c3[H])c([H])c([H])c2C1([H])[H]

$$$$
79:0:0
     RDKit          3D

 99109  0  0  1  0  0  0  0  0999 V2000
  -30.1150  -18.2180   17.9890 C   0  0  0  0  0  3  0  0  0  0  0  0
  -29.7110  -17.1610   18.8210 C   0  0  0  0  0  3  0  0  0  0  0  0
  -29.9720  -18.6060   20.7520 C   0  0  0  0  0  3  0  0  0  0  0  0
  -30.4480  -19.4860   18.5210 C   0  0  0  0  0  0  0  0  0  0  0  0
  -30.3450  -19.6920   19.9220 C   0  0  0  0  0  0  0  0  0  0  0  0
  -29.6620  -17.3410   20.2150 C   0  0  0  0  0  0  0  0  0  0  0  0
  -29.4600  -22.9370   21.0120 C   0  0  0  0  0  3  0  0  0  0  0  0
  -28.9980  -24.1650   20.7180 C   0  0  0  0  0  3  0  0  0  0  0  0
  -30.8450  -21.9680   17.7850 C   0  0  0  0  0  2  0  0  0  0  0  0
  -29.8340  -23.8860   18.5070 C   0  0  0  0  0  3  0  0  0  0  0  0
  -30.5930  -20.9940   20.5630 C   0  0  0  0  0  3  0  0  0  0  0  0
  -30.9310  -20.5150   17.5510 C   0  0  0  0  0  0  0  0  0  0  0  0
  -30.1210  -22.1710   20.0990 C   0  0  0  0  0  0  0  0  0  0  0  0
  -30.2490  -22.6220   18.8100 C   0  0  0  0  0  0  0  0  0  0  0  0
  -29.2120  -24.6960   19.3870 C   0  0  0  0  0  0  0  0  0  0  0  0
  -31.4160  -20.1930   16.4610 O   0  0  0  0  0  0  0  0  0  0  0  0
  -31.2190  -20.9180   21.7500 O   0  0  0  0  0  0  0  0  0  0  0  0
  -31.1880  -21.7840   22.1380 H   0  0  0  0  0  0  0  0  0  0  0  0
  -29.2860  -16.1850   21.1330 C   0  0  0  0  0  2  0  0  0  0  0  0
  -30.7230  -14.3810   20.2940 C   0  0  0  0  0  0  0  0  0  0  0  0
  -30.2970  -12.2970   19.0430 C   0  0  0  0  0  2  0  0  0  0  0  0
  -29.3190  -12.5280   17.8760 C   0  0  0  0  0  2  0  0  0  0  0  0
  -27.8630  -12.3830   18.3540 C   0  0  0  0  0  2  0  0  0  0  0  0
  -27.5760  -13.2240   19.6230 C   0  0  0  0  0  3  0  0  0  0  0  0
  -28.6560  -12.9750   20.7000 C   0  0  0  0  0  2  0  0  0  0  0  0
  -29.9750  -13.2610   20.1080 N   0  0  0  0  0  0  0  0  0  0  0  0
  -31.7640  -14.5960   19.6620 O   0  0  0  0  0  0  0  0  0  0  0  0
  -31.3940  -15.6350   22.2500 C   0  0  0  0  0  1  0  0  0  0  0  0
  -30.3580  -15.1910   21.3140 N   0  0  0  0  0  0  0  0  0  0  0  0
  -25.2130  -13.8730   20.4130 C   0  0  0  0  0  0  0  0  0  0  0  0
  -24.1440  -13.1160   20.8080 C   0  0  0  0  0  0  0  0  0  0  0  0
  -24.5800  -11.7570   20.7510 C   0  0  0  0  0  0  0  0  0  0  0  0
  -26.2340  -12.9750   20.1410 N   0  0  0  0  0  0  0  0  0  0  0  0
  -25.8580  -11.6970   20.4000 N   0  0  0  0  0  0  0  0  0  0  0  0
  -23.8400  -10.5050   20.9520 C   0  0  0  0  0  0  0  0  0  0  0  0
  -24.2680   -9.5350   21.8840 C   0  0  0  0  0  3  0  0  0  0  0  0
  -23.5300   -8.3470   22.0730 C   0  0  0  0  0  3  0  0  0  0  0  0
  -22.3490   -8.1200   21.3260 C   0  0  0  0  0  0  0  0  0  0  0  0
  -21.9390   -9.0800   20.3830 C   0  0  0  0  0  3  0  0  0  0  0  0
  -22.6790  -10.2580   20.1940 C   0  0  0  0  0  3  0  0  0  0  0  0
  -21.5830   -6.9850   21.4220 O   0  0  0  0  0  0  0  0  0  0  0  0
  -21.5310   -6.2470   22.5780 C   0  0  0  0  0  0  0  0  0  0  0  0
  -21.0730   -6.8000   23.7940 C   0  0  0  0  0  3  0  0  0  0  0  0
  -20.9710   -5.9870   24.9410 C   0  0  0  0  0  3  0  0  0  0  0  0
  -21.3150   -4.6240   24.8730 C   0  0  0  0  0  0  0  0  0  0  0  0
  -21.7650   -4.0710   23.6610 C   0  0  0  0  0  3  0  0  0  0  0  0
  -21.8700   -4.8800   22.5160 C   0  0  0  0  0  0  0  0  0  0  0  0
  -22.2840   -4.3370   21.3460 F   0  0  0  0  0  0  0  0  0  0  0  0
  -21.2090   -3.8420   25.9720 F   0  0  0  0  0  0  0  0  0  0  0  0
  -22.7640  -13.6130   21.1310 C   0  0  0  0  0  0  0  0  0  0  0  0
  -22.0490  -12.9110   22.0010 N   0  0  0  0  0  0  0  0  0  0  0  0
  -22.3320  -14.6580   20.6490 O   0  0  0  0  0  0  0  0  0  0  0  0
  -22.4100  -12.0630   22.4100 H   0  0  0  0  0  0  0  0  0  0  0  0
  -21.1250  -13.2270   22.2630 H   0  0  0  0  0  0  0  0  0  0  0  0
  -25.3990  -15.2420   20.2420 N   0  0  0  0  0  0  0  0  0  0  0  0
  -24.6460  -15.9080   20.3710 H   0  0  0  0  0  0  0  0  0  0  0  0
  -26.2400  -15.6640   19.8710 H   0  0  0  0  0  0  0  0  0  0  0  0
  -28.8020  -26.1050   19.0000 C   0  0  0  0  0  2  0  0  0  0  0  0
  -28.4320  -26.8740   20.1430 O   0  0  0  0  0  0  0  0  0  0  0  0
  -24.5840  -31.9710   23.2160 C   0  0  0  0  0  0  0  0  0  0  0  0
  -27.2210  -27.5270   20.1480 C   0  0  0  0  0  0  0  0  0  0  0  0
  -23.3630  -30.5460   21.6010 C   0  0  0  0  0  3  0  0  0  0  0  0
  -24.8060  -28.9910   20.1850 C   0  0  0  0  0  0  0  0  0  0  0  0
  -25.8810  -30.9140   21.3720 C   0  0  0  0  0  2  0  0  0  0  0  0
  -25.9630  -29.5340   20.7570 C   0  0  0  0  0  0  0  0  0  0  0  0
  -27.1680  -28.8020   20.7490 C   0  0  0  0  0  3  0  0  0  0  0  0
  -26.0390  -26.9770   19.6020 C   0  0  0  0  0  3  0  0  0  0  0  0
  -24.8350  -27.7080   19.6130 C   0  0  0  0  0  3  0  0  0  0  0  0
  -23.5600  -29.8460   20.2290 C   0  0  0  0  0  2  0  0  0  0  0  0
  -24.6280  -31.1590   22.1220 N   0  0  0  0  0  0  0  0  0  0  0  0
  -23.5080  -32.2490   23.7630 O   0  0  0  0  0  0  0  0  0  0  0  0
  -22.7250  -29.5360   22.5800 C   0  0  0  0  0  0  0  0  0  0  0  0
  -21.4040  -29.3300   22.4480 N   0  0  0  0  0  0  0  0  0  0  0  0
  -23.4140  -28.9400   23.4140 O   0  0  0  0  0  0  0  0  0  0  0  0
  -20.9110  -29.8650   21.7470 H   0  0  0  0  0  0  0  0  0  0  0  0
  -18.0460  -28.0950   22.9360 C   0  0  0  0  0  0  0  0  0  0  0  0
  -20.5960  -28.3970   23.2300 C   0  0  0  0  0  3  0  0  0  0  0  0
  -20.7280  -26.9560   22.6880 C   0  0  0  0  0  2  0  0  0  0  0  0
  -19.6430  -26.5920   21.6710 C   0  0  0  0  0  2  0  0  0  0  0  0
  -18.2510  -26.7320   22.2950 C   0  0  0  0  0  2  0  0  0  0  0  0
  -19.1490  -28.8820   23.3610 C   0  0  0  0  0  0  0  0  0  0  0  0
  -18.9050  -30.1570   23.9160 C   0  0  0  0  0  3  0  0  0  0  0  0
  -17.5920  -30.6440   24.0530 C   0  0  0  0  0  3  0  0  0  0  0  0
  -16.5030  -29.8520   23.6480 C   0  0  0  0  0  3  0  0  0  0  0  0
  -16.7310  -28.5800   23.0940 C   0  0  0  0  0  3  0  0  0  0  0  0
  -25.8750  -32.6090   23.8160 C   0  0  0  0  0  3  0  0  0  0  0  0
  -26.4260  -31.8340   25.0750 C   0  0  1  0  0  0  0  0  0  0  0  0
  -25.3540  -31.5640   26.1570 C   0  0  0  0  0  1  0  0  0  0  0  0
  -27.0260  -30.4730   24.6530 C   0  0  0  0  0  1  0  0  0  0  0  0
  -27.5700  -32.6420   25.7300 C   0  0  0  0  0  1  0  0  0  0  0  0
  -25.5630  -34.0030   24.1580 N   0  0  0  0  0  0  0  0  0  0  0  0
  -25.8730  -35.0590   23.3930 C   0  0  0  0  0  0  0  0  0  0  0  0
  -26.5240  -34.9640   22.3490 O   0  0  0  0  0  0  0  0  0  0  0  0
  -24.9870  -34.1520   24.9720 H   0  0  0  0  0  0  0  0  0  0  0  0
  -24.1300  -36.8400   23.0640 C   0  0  0  0  0  1  0  0  0  0  0  0
  -25.3810  -36.4420   23.8630 C   0  0  0  0  0  3  0  0  0  0  0  0
  -27.5120  -37.3410   24.6870 C   0  0  0  0  0  1  0  0  0  0  0  0
  -26.4070  -37.5020   23.7450 N   0  0  0  0  0  0  0  0  0  0  0  0
  -25.9950  -38.4190   23.8920 H   0  0  0  0  0  0  0  0  0  0  0  0
  1  4  2  0
  1  2  1  0
  2  6  2  0
  4  5  1  0
  5 11  1  0
  5  3  2  0
  6  3  1  0
  6 19  1  0
  8  7  1  0
  9 14  1  0
 10 14  2  0
 10 15  1  0
 11 17  1  0
 12  9  1  0
 12  4  1  0
 13 11  1  0
 13  7  2  0
 14 13  1  0
 15  8  2  0
 16 12  2  0
 17 18  1  0
 19 29  1  0
 20 29  1  0
 21 26  1  0
 22 23  1  0
 22 21  1  0
 24 23  1  0
 24 33  1  0
 24 25  1  0
 26 20  1  0
 26 25  1  0
 27 20  2  0
 29 28  1  0
 30 31  2  0
 31 50  1  0
 32 31  1  0
 32 35  1  0
 33 34  1  0
 33 30  1  0
 34 32  2  0
 35 36  1  0
 36 37  2  0
 38 41  1  0
 38 37  1  0
 39 38  2  0
 40 39  1  0
 40 35  2  0
 41 42  1  0
 42 43  1  0
 43 44  2  0
 45 44  1  0
 45 49  1  0
 46 45  2  0
 47 42  2  0
 47 46  1  0
 48 47  1  0
 50 51  1  0
 51 54  1  0
 51 53  1  0
 52 50  2  0
 55 56  1  0
 55 30  1  0
 57 55  1  0
 58 15  1  0
 58 59  1  0
 59 61  1  0
 60 71  2  0
 61 66  1  0
 62 70  1  0
 62 72  1  0
 63 69  1  0
 63 65  1  0
 64 70  1  0
 65 64  1  0
 66 65  2  0
 67 68  1  0
 67 61  2  0
 68 63  2  0
 69 62  1  0
 70 60  1  0
 72 74  2  0
 73 72  1  0
 75 73  1  0
 76 85  2  0
 76 81  1  0
 77 73  1  0
 77 81  1  0
 78 77  1  0
 79 80  1  0
 79 78  1  0
 80 76  1  0
 81 82  2  0
 82 83  1  0
 84 83  2  0
 85 84  1  0
 86 60  1  0
 86 91  1  0
 86 87  1  0
 87 90  1  1
 87 88  1  0
 89 87  1  0
 91 94  1  0
 92 96  1  0
 92 91  1  0
 93 92  2  0
 96 95  1  0
 98 96  1  0
 98 99  1  0
 98 97  1  0
M  ISO  4  20 100  29 100  58 101  59 101
M  END
>  <TORSDO>  (80) 
F 19

>  <SCORE>  (80) 
-14.233

>  <name>  (80) 
79

>  <ligand_id>  (80) 
79

>  <original_smiles>  (80) 
[H]Oc1c2c([H])c([H])c(C([H])([H])Oc3c([H])c([H])c4c(c3[H])C([H])([H])N(C(=O)C([H])(N([H])C(=O)C([H])(N([H])C([H])([H])[H])C([H])([H])[H])C(C([H])([H])[H])(C([H])([H])[H])C([H])([H])[H])C([H])(C(=O)N([H])C3([H])c5c([H])c([H])c([H])c([H])c5C([H])([H])C([H])([H])C3([H])[H])C4([H])[H])c([H])c2c([H])c(=O)c2c([H])c([H])c(C([H])([H])N(C(=O)N3C([H])([H])C([H])([H])C([H])([H])C([H])(n4nc(-c5c([H])c([H])c(Oc6c([H])c([H])c(F)c([H])c6F)c([H])c5[H])c(C(=O)N([H])[H])c4N([H])[H])C3([H])[H])C([H])([H])[H])c([H])c12

>  <smiles>  (80) 
[H]Oc1c2c([H])c([H])c(C([H])([H])Oc3c([H])c([H])c4c(c3[H])C([H])([H])N(C(=O)C([H])(N([H])C(=O)C([H])(N([H])C([H])([H])[H])C([H])([H])[H])C(C([H])([H])[H])(C([H])([H])[H])C([H])([H])[H])C([H])(C(=O)N([H])C3([H])c5c([H])c([H])c([H])c([H])c5C([H])([H])C([H])([H])C3([H])[H])C4([H])[H])c([H])c2c([H])c(=O)c2c([H])c([H])c(C([H])([H])N(C(=O)N3C([H])([H])C([H])([H])C([H])([H])C([H])(n4nc(-c5c([H])c([H])c(Oc6c([H])c([H])c(F)c([H])c6F)c([H])c5[H])c(C(=O)N([H])[H])c4N([H])[H])C3([H])[H])C([H])([H])[H])c([H])c12

$$$$
80:0:0
     RDKit          3D

 92101  0  0  1  0  0  0  0  0999 V2000
  -26.8810  -23.1330   21.6460 C   0  0  0  0  0  3  0  0  0  0  0  0
  -27.6220  -22.0500   21.1310 C   0  0  0  0  0  3  0  0  0  0  0  0
  -27.1570  -24.4820   21.3200 C   0  0  0  0  0  3  0  0  0  0  0  0
  -28.7290  -22.2390   20.2770 C   0  0  0  0  0  0  0  0  0  0  0  0
  -28.9900  -23.6840   19.9520 C   0  0  0  0  0  0  0  0  0  0  0  0
  -28.1910  -24.8580   20.4340 C   0  0  0  0  0  0  0  0  0  0  0  0
  -30.1900  -23.9950   19.0790 C   0  0  0  0  0  1  0  0  0  0  0  0
  -28.3700  -26.3070   20.1740 O   0  0  0  0  0  0  0  0  0  0  0  0
  -24.6610  -31.9420   23.2350 C   0  0  0  0  0  0  0  0  0  0  0  0
  -27.3080  -27.2920   20.1550 C   0  0  0  0  0  0  0  0  0  0  0  0
  -23.4790  -30.5440   21.5780 C   0  0  0  0  0  3  0  0  0  0  0  0
  -24.9550  -29.0080   20.1320 C   0  0  0  0  0  0  0  0  0  0  0  0
  -26.0260  -30.8520   21.4140 C   0  0  0  0  0  2  0  0  0  0  0  0
  -26.1250  -29.4630   20.7530 C   0  0  0  0  0  0  0  0  0  0  0  0
  -27.3000  -28.6190   20.7540 C   0  0  0  0  0  3  0  0  0  0  0  0
  -26.1160  -26.9480   19.4800 C   0  0  0  0  0  3  0  0  0  0  0  0
  -24.9630  -27.7660   19.4780 C   0  0  0  0  0  3  0  0  0  0  0  0
  -23.7130  -29.8850   20.1900 C   0  0  0  0  0  2  0  0  0  0  0  0
  -24.7420  -31.1330   22.1330 N   0  0  0  0  0  0  0  0  0  0  0  0
  -23.5710  -32.2040   23.7680 O   0  0  0  0  0  0  0  0  0  0  0  0
  -22.8180  -29.5160   22.5310 C   0  0  0  0  0  0  0  0  0  0  0  0
  -21.4950  -29.3140   22.3950 N   0  0  0  0  0  0  0  0  0  0  0  0
  -23.4990  -28.9020   23.3560 O   0  0  0  0  0  0  0  0  0  0  0  0
  -21.0020  -29.8620   21.7040 H   0  0  0  0  0  0  0  0  0  0  0  0
  -18.1510  -27.9950   22.8500 C   0  0  0  0  0  0  0  0  0  0  0  0
  -20.6930  -28.3550   23.1590 C   0  0  0  0  0  3  0  0  0  0  0  0
  -20.8570  -26.9230   22.5970 C   0  0  0  0  0  2  0  0  0  0  0  0
  -19.7890  -26.5540   21.5630 C   0  0  0  0  0  2  0  0  0  0  0  0
  -18.3910  -26.6500   22.1820 C   0  0  0  0  0  2  0  0  0  0  0  0
  -19.2320  -28.8010   23.2940 C   0  0  0  0  0  0  0  0  0  0  0  0
  -18.9560  -30.0550   23.8800 C   0  0  0  0  0  3  0  0  0  0  0  0
  -17.6290  -30.5070   24.0210 C   0  0  0  0  0  3  0  0  0  0  0  0
  -16.5620  -29.7010   23.5890 C   0  0  0  0  0  3  0  0  0  0  0  0
  -16.8230  -28.4460   23.0110 C   0  0  0  0  0  3  0  0  0  0  0  0
  -25.9290  -32.5920   23.8650 C   0  0  0  0  0  3  0  0  0  0  0  0
  -25.6020  -33.9890   24.1930 N   0  0  0  0  0  0  0  0  0  0  0  0
  -25.9370  -35.0480   23.4470 C   0  0  0  0  0  0  0  0  0  0  0  0
  -26.6190  -34.9540   22.4210 O   0  0  0  0  0  0  0  0  0  0  0  0
  -24.9950  -34.1340   24.9880 H   0  0  0  0  0  0  0  0  0  0  0  0
  -24.2060  -36.8390   23.0760 C   0  0  0  0  0  1  0  0  0  0  0  0
  -25.4370  -36.4340   23.9040 C   0  0  0  0  0  3  0  0  0  0  0  0
  -27.5540  -37.3220   24.7770 C   0  0  0  0  0  1  0  0  0  0  0  0
  -26.4680  -37.4910   23.8150 N   0  0  0  0  0  0  0  0  0  0  0  0
  -26.0580  -38.4090   23.9620 H   0  0  0  0  0  0  0  0  0  0  0  0
  -26.4420  -31.8310   25.1480 C   0  0  1  0  0  0  0  0  0  0  0  0
  -25.3410  -31.5900   26.2070 C   0  0  0  0  0  1  0  0  0  0  0  0
  -27.0390  -30.4550   24.7700 C   0  0  0  0  0  1  0  0  0  0  0  0
  -27.5810  -32.6360   25.8180 C   0  0  0  0  0  1  0  0  0  0  0  0
  -29.5110  -20.8690   19.7350 C   0  0  0  0  0  2  0  0  0  0  0  0
  -31.6270  -19.0620   21.5120 C   0  0  0  0  0  2  0  0  0  0  0  0
  -30.1430  -19.3610   21.7620 C   0  0  0  0  0  2  0  0  0  0  0  0
  -31.7210  -18.2770   20.1960 C   0  0  0  0  0  2  0  0  0  0  0  0
  -29.4700  -19.2900   20.3920 C   0  0  0  0  0  3  0  0  0  0  0  0
  -30.2820  -17.9380   19.7600 C   0  0  0  0  0  3  0  0  0  0  0  0
  -30.7450  -15.1960   19.8400 C   0  0  0  0  0  0  0  0  0  0  0  0
  -30.6080  -12.8220   18.9470 C   0  0  0  0  0  2  0  0  0  0  0  0
  -29.6120  -12.7430   17.7670 C   0  0  0  0  0  2  0  0  0  0  0  0
  -28.1770  -12.5150   18.2800 C   0  0  0  0  0  2  0  0  0  0  0  0
  -27.8200  -13.4450   19.4710 C   0  0  0  0  0  3  0  0  0  0  0  0
  -28.9360  -13.5000   20.5360 C   0  0  0  0  0  2  0  0  0  0  0  0
  -30.1630  -13.9260   19.8530 N   0  0  0  0  0  0  0  0  0  0  0  0
  -31.9130  -15.2520   19.4400 O   0  0  0  0  0  0  0  0  0  0  0  0
  -29.9930  -16.3950   20.0690 N   0  0  0  0  0  0  0  0  0  0  0  0
  -29.0510  -16.2110   20.3850 H   0  0  0  0  0  0  0  0  0  0  0  0
  -25.5030  -13.9880   20.4040 C   0  0  0  0  0  0  0  0  0  0  0  0
  -24.4670  -13.1990   20.8200 C   0  0  0  0  0  0  0  0  0  0  0  0
  -24.9270  -11.8500   20.7050 C   0  0  0  0  0  0  0  0  0  0  0  0
  -26.5230  -13.1210   20.0520 N   0  0  0  0  0  0  0  0  0  0  0  0
  -26.1920  -11.8270   20.2990 N   0  0  0  0  0  0  0  0  0  0  0  0
  -24.2120  -10.5820   20.9030 C   0  0  0  0  0  0  0  0  0  0  0  0
  -24.6480   -9.6260   21.8470 C   0  0  0  0  0  3  0  0  0  0  0  0
  -23.9320   -8.4240   22.0320 C   0  0  0  0  0  3  0  0  0  0  0  0
  -22.7660   -8.1670   21.2710 C   0  0  0  0  0  0  0  0  0  0  0  0
  -22.3490   -9.1120   20.3170 C   0  0  0  0  0  3  0  0  0  0  0  0
  -23.0650  -10.3060   20.1310 C   0  0  0  0  0  3  0  0  0  0  0  0
  -22.0210   -7.0160   21.3630 O   0  0  0  0  0  0  0  0  0  0  0  0
  -21.8920   -6.3340   22.5470 C   0  0  0  0  0  0  0  0  0  0  0  0
  -21.3440   -6.9390   23.6990 C   0  0  0  0  0  3  0  0  0  0  0  0
  -21.1650   -6.1820   24.8740 C   0  0  0  0  0  3  0  0  0  0  0  0
  -21.5250   -4.8210   24.8970 C   0  0  0  0  0  0  0  0  0  0  0  0
  -22.0680   -4.2160   23.7500 C   0  0  0  0  0  3  0  0  0  0  0  0
  -22.2490   -4.9710   22.5760 C   0  0  0  0  0  0  0  0  0  0  0  0
  -22.7510   -4.3770   21.4670 F   0  0  0  0  0  0  0  0  0  0  0  0
  -21.3470   -4.0920   26.0230 F   0  0  0  0  0  0  0  0  0  0  0  0
  -23.0940  -13.6660   21.2050 C   0  0  0  0  0  0  0  0  0  0  0  0
  -22.4250  -12.9420   22.0970 N   0  0  0  0  0  0  0  0  0  0  0  0
  -22.6260  -14.7100   20.7530 O   0  0  0  0  0  0  0  0  0  0  0  0
  -22.8160  -12.0970   22.4850 H   0  0  0  0  0  0  0  0  0  0  0  0
  -21.5080  -13.2410   22.3950 H   0  0  0  0  0  0  0  0  0  0  0  0
  -25.6550  -15.3650   20.2660 N   0  0  0  0  0  0  0  0  0  0  0  0
  -24.8940  -16.0090   20.4500 H   0  0  0  0  0  0  0  0  0  0  0  0
  -26.4650  -15.8170   19.8660 H   0  0  0  0  0  0  0  0  0  0  0  0
  2  1  2  0
  3  1  1  0
  4  2  1  0
  5  4  2  0
  5  6  1  0
  6  3  2  0
  7  5  1  0
  8  6  1  0
  9 20  2  0
 10  8  1  0
 10 15  1  0
 11 19  1  0
 11 21  1  0
 12 18  1  0
 12 14  1  0
 13 19  1  0
 14 15  2  0
 14 13  1  0
 16 10  2  0
 17 16  1  0
 17 12  2  0
 18 11  1  0
 19  9  1  0
 21 23  2  0
 22 21  1  0
 24 22  1  0
 25 34  2  0
 25 30  1  0
 26 22  1  0
 26 30  1  0
 27 26  1  0
 28 29  1  0
 28 27  1  0
 29 25  1  0
 30 31  2  0
 31 32  1  0
 33 32  2  0
 34 33  1  0
 35  9  1  0
 35 36  1  0
 35 45  1  0
 36 39  1  0
 37 41  1  0
 37 36  1  0
 38 37  2  0
 41 40  1  0
 43 41  1  0
 43 44  1  0
 43 42  1  0
 45 48  1  1
 45 46  1  0
 47 45  1  0
 49  4  1  0
 50 51  1  0
 52 50  1  0
 53 49  1  0
 53 51  1  0
 54 63  1  0
 54 52  1  0
 54 53  1  0
 55 61  1  0
 55 63  1  0
 56 61  1  0
 57 58  1  0
 57 56  1  0
 59 58  1  0
 59 68  1  0
 59 60  1  0
 61 60  1  0
 62 55  2  0
 63 64  1  0
 65 66  2  0
 66 85  1  0
 67 66  1  0
 67 70  1  0
 68 69  1  0
 68 65  1  0
 69 67  2  0
 70 71  1  0
 71 72  2  0
 73 76  1  0
 73 72  1  0
 74 73  2  0
 75 74  1  0
 75 70  2  0
 76 77  1  0
 77 82  2  0
 77 78  1  0
 78 79  2  0
 79 80  1  0
 80 84  1  0
 81 80  2  0
 82 81  1  0
 83 82  1  0
 85 86  1  0
 86 89  1  0
 86 88  1  0
 87 85  2  0
 90 65  1  0
 90 91  1  0
 92 90  1  0
M  ISO  4   6 101   8 101  55 100  63 100
M  END
>  <TORSDO>  (81) 
F 18

>  <SCORE>  (81) 
-14.913

>  <name>  (81) 
80

>  <ligand_id>  (81) 
80

>  <original_smiles>  (81) 
[H]c1c([H])c([H])c2c(c1[H])C([H])([H])C([H])([H])C([H])([H])C2([H])N([H])C(=O)C1([H])N(C(=O)C([H])(N([H])C(=O)C([H])(N([H])C([H])([H])[H])C([H])([H])[H])C(C([H])([H])[H])(C([H])([H])[H])C([H])([H])[H])C([H])([H])c2c([H])c(Oc3c([H])c([H])c([H])c(C([H])([H])C4([H])C([H])([H])C([H])([H])C([H])([H])C4([H])N([H])C(=O)N4C([H])([H])C([H])([H])C([H])([H])C([H])(n5nc(-c6c([H])c([H])c(Oc7c([H])c([H])c(F)c([H])c7F)c([H])c6[H])c(C(=O)N([H])[H])c5N([H])[H])C4([H])[H])c3C([H])([H])[H])c([H])c([H])c2C1([H])[H]

>  <smiles>  (81) 
[H]c1c([H])c([H])c2c(c1[H])C([H])([H])C([H])([H])C([H])([H])C2([H])N([H])C(=O)C1([H])N(C(=O)C([H])(N([H])C(=O)C([H])(N([H])C([H])([H])[H])C([H])([H])[H])C(C([H])([H])[H])(C([H])([H])[H])C([H])([H])[H])C([H])([H])c2c([H])c(Oc3c([H])c([H])c([H])c(C([H])([H])C4([H])C([H])([H])C([H])([H])C([H])([H])C4([H])N([H])C(=O)N4C([H])([H])C([H])([H])C([H])([H])C([H])(n5nc(-c6c([H])c([H])c(Oc7c([H])c([H])c(F)c([H])c7F)c([H])c6[H])c(C(=O)N([H])[H])c5N([H])[H])C4([H])[H])c3C([H])([H])[H])c([H])c([H])c2C1([H])[H]

$$$$
81:0:0
     RDKit          3D

 94103  0  0  1  0  0  0  0  0999 V2000
  -27.6890  -23.4130   22.9260 C   0  0  0  0  0  3  0  0  0  0  0  0
  -28.0250  -24.7450   23.1110 C   0  0  0  0  0  3  0  0  0  0  0  0
  -27.8840  -22.8430   21.6700 C   0  0  0  0  0  3  0  0  0  0  0  0
  -28.3690  -25.5530   22.0180 C   0  0  0  0  0  0  0  0  0  0  0  0
  -28.3440  -23.5500   20.5340 C   0  0  0  0  0  0  0  0  0  0  0  0
  -28.3190  -25.0990   20.6550 C   0  0  0  0  0  0  0  0  0  0  0  0
  -28.8490  -26.9400   22.4140 C   0  0  0  0  0  1  0  0  0  0  0  0
  -28.2930  -26.2850   19.7580 O   0  0  0  0  0  0  0  0  0  0  0  0
  -24.6810  -31.8730   23.0860 C   0  0  0  0  0  0  0  0  0  0  0  0
  -27.2520  -27.3180   19.7910 C   0  0  0  0  0  0  0  0  0  0  0  0
  -23.4580  -30.5300   21.4220 C   0  0  0  0  0  3  0  0  0  0  0  0
  -24.8890  -29.0460   19.8830 C   0  0  0  0  0  0  0  0  0  0  0  0
  -26.0010  -30.8540   21.1840 C   0  0  0  0  0  2  0  0  0  0  0  0
  -26.0840  -29.4950   20.4580 C   0  0  0  0  0  0  0  0  0  0  0  0
  -27.2700  -28.6660   20.3590 C   0  0  0  0  0  3  0  0  0  0  0  0
  -26.0260  -26.9830   19.1810 C   0  0  0  0  0  3  0  0  0  0  0  0
  -24.8780  -27.8090   19.2160 C   0  0  0  0  0  3  0  0  0  0  0  0
  -23.6460  -29.9150   20.0100 C   0  0  0  0  0  2  0  0  0  0  0  0
  -24.7360  -31.1060   21.9530 N   0  0  0  0  0  0  0  0  0  0  0  0
  -23.6060  -32.1100   23.6590 O   0  0  0  0  0  0  0  0  0  0  0  0
  -22.8250  -29.4690   22.3600 C   0  0  0  0  0  0  0  0  0  0  0  0
  -21.4960  -29.2820   22.2650 N   0  0  0  0  0  0  0  0  0  0  0  0
  -23.5310  -28.8190   23.1350 O   0  0  0  0  0  0  0  0  0  0  0  0
  -20.9790  -29.8590   21.6150 H   0  0  0  0  0  0  0  0  0  0  0  0
  -18.1510  -27.9990   22.8190 C   0  0  0  0  0  0  0  0  0  0  0  0
  -20.7140  -28.2950   23.0140 C   0  0  0  0  0  3  0  0  0  0  0  0
  -20.8190  -26.8940   22.3690 C   0  0  0  0  0  2  0  0  0  0  0  0
  -19.6890  -26.6020   21.3760 C   0  0  0  0  0  2  0  0  0  0  0  0
  -18.3270  -26.6890   22.0700 C   0  0  0  0  0  2  0  0  0  0  0  0
  -19.2710  -28.7610   23.2480 C   0  0  0  0  0  0  0  0  0  0  0  0
  -19.0500  -29.9870   23.9130 C   0  0  0  0  0  3  0  0  0  0  0  0
  -17.7420  -30.4530   24.1490 C   0  0  0  0  0  3  0  0  0  0  0  0
  -16.6380  -29.6890   23.7330 C   0  0  0  0  0  3  0  0  0  0  0  0
  -16.8440  -28.4640   23.0740 C   0  0  0  0  0  3  0  0  0  0  0  0
  -25.9620  -32.5040   23.7100 C   0  0  0  0  0  3  0  0  0  0  0  0
  -25.6420  -33.8900   24.0880 N   0  0  0  0  0  0  0  0  0  0  0  0
  -25.9610  -34.9730   23.3660 C   0  0  0  0  0  0  0  0  0  0  0  0
  -26.6200  -34.9120   22.3250 O   0  0  0  0  0  0  0  0  0  0  0  0
  -25.0500  -34.0120   24.8940 H   0  0  0  0  0  0  0  0  0  0  0  0
  -24.2150  -36.7700   23.1070 C   0  0  0  0  0  1  0  0  0  0  0  0
  -25.4730  -36.3430   23.8790 C   0  0  0  0  0  3  0  0  0  0  0  0
  -27.6100  -37.2210   24.7100 C   0  0  0  0  0  1  0  0  0  0  0  0
  -26.4940  -37.4090   23.7850 N   0  0  0  0  0  0  0  0  0  0  0  0
  -26.0830  -38.3200   23.9670 H   0  0  0  0  0  0  0  0  0  0  0  0
  -26.5000  -31.7060   24.9630 C   0  0  1  0  0  0  0  0  0  0  0  0
  -25.4180  -31.4120   26.0300 C   0  0  0  0  0  1  0  0  0  0  0  0
  -27.1130  -30.3530   24.5310 C   0  0  0  0  0  1  0  0  0  0  0  0
  -27.6360  -32.5060   25.6420 C   0  0  0  0  0  1  0  0  0  0  0  0
  -28.6970  -22.3560   19.4310 C   0  0  0  0  0  2  0  0  0  0  0  0
  -30.3500  -20.4800   20.9920 C   0  0  0  0  0  2  0  0  0  0  0  0
  -29.1930  -19.3250   19.2690 C   0  0  0  0  0  3  0  0  0  0  0  0
  -30.9730  -19.0080   20.8980 C   0  0  0  0  0  3  0  0  0  0  0  0
  -29.9010  -18.1420   20.2020 C   0  0  0  0  0  0  0  0  0  0  0  0
  -29.6640  -20.8940   19.6330 C   0  0  1  0  0  0  0  0  0  0  0  0
  -31.4250  -18.4450   22.2540 C   0  0  0  0  0  1  0  0  0  0  0  0
  -30.8360  -21.2110   18.6740 C   0  0  0  0  0  1  0  0  0  0  0  0
  -30.8680  -15.3860   19.9820 C   0  0  0  0  0  0  0  0  0  0  0  0
  -30.8290  -12.9430   19.2080 C   0  0  0  0  0  2  0  0  0  0  0  0
  -29.8860  -12.7600   17.9930 C   0  0  0  0  0  2  0  0  0  0  0  0
  -28.4280  -12.5550   18.4510 C   0  0  0  0  0  2  0  0  0  0  0  0
  -28.0130  -13.5630   19.5560 C   0  0  0  0  0  3  0  0  0  0  0  0
  -29.0760  -13.6740   20.6690 C   0  0  0  0  0  2  0  0  0  0  0  0
  -30.3230  -14.0930   20.0150 N   0  0  0  0  0  0  0  0  0  0  0  0
  -32.0720  -15.4670   19.7190 O   0  0  0  0  0  0  0  0  0  0  0  0
  -29.9980  -16.5290   20.0650 N   0  0  0  0  0  0  0  0  0  0  0  0
  -29.0670  -16.1560   20.1780 H   0  0  0  0  0  0  0  0  0  0  0  0
  -25.6770  -14.1990   20.3840 C   0  0  0  0  0  0  0  0  0  0  0  0
  -24.5970  -13.4510   20.7650 C   0  0  0  0  0  0  0  0  0  0  0  0
  -25.0120  -12.0870   20.6810 C   0  0  0  0  0  0  0  0  0  0  0  0
  -26.6810  -13.2930   20.0850 N   0  0  0  0  0  0  0  0  0  0  0  0
  -26.2910  -12.0150   20.3260 N   0  0  0  0  0  0  0  0  0  0  0  0
  -24.2470  -10.8470   20.8560 C   0  0  0  0  0  0  0  0  0  0  0  0
  -24.5960   -9.8960   21.8410 C   0  0  0  0  0  3  0  0  0  0  0  0
  -23.8320   -8.7200   22.0040 C   0  0  0  0  0  3  0  0  0  0  0  0
  -22.7040   -8.4860   21.1790 C   0  0  0  0  0  0  0  0  0  0  0  0
  -22.3730   -9.4270   20.1880 C   0  0  0  0  0  3  0  0  0  0  0  0
  -23.1390  -10.5930   20.0230 C   0  0  0  0  0  3  0  0  0  0  0  0
  -21.9180   -7.3600   21.2480 O   0  0  0  0  0  0  0  0  0  0  0  0
  -21.6720   -6.7270   22.4400 C   0  0  0  0  0  0  0  0  0  0  0  0
  -21.0480   -7.3880   23.5190 C   0  0  0  0  0  3  0  0  0  0  0  0
  -20.7480   -6.6800   24.7010 C   0  0  0  0  0  3  0  0  0  0  0  0
  -21.0650   -5.3130   24.8030 C   0  0  0  0  0  0  0  0  0  0  0  0
  -21.6840   -4.6500   23.7270 C   0  0  0  0  0  3  0  0  0  0  0  0
  -21.9840   -5.3560   22.5480 C   0  0  0  0  0  0  0  0  0  0  0  0
  -22.5610   -4.7110   21.5060 F   0  0  0  0  0  0  0  0  0  0  0  0
  -20.7710   -4.6290   25.9330 F   0  0  0  0  0  0  0  0  0  0  0  0
  -23.2270  -13.9720   21.0860 C   0  0  0  0  0  0  0  0  0  0  0  0
  -22.5010  -13.2880   21.9630 N   0  0  0  0  0  0  0  0  0  0  0  0
  -22.8100  -15.0210   20.5980 O   0  0  0  0  0  0  0  0  0  0  0  0
  -22.8500  -12.4390   22.3840 H   0  0  0  0  0  0  0  0  0  0  0  0
  -21.5840  -13.6210   22.2210 H   0  0  0  0  0  0  0  0  0  0  0  0
  -25.8800  -15.5690   20.2400 N   0  0  0  0  0  0  0  0  0  0  0  0
  -25.1260  -16.2320   20.3800 H   0  0  0  0  0  0  0  0  0  0  0  0
  -26.6990  -15.9900   19.8250 H   0  0  0  0  0  0  0  0  0  0  0  0
  1  2  1  0
  3  1  2  0
  4  7  1  0
  4  2  2  0
  5  6  2  0
  5  3  1  0
  6  4  1  0
  8 10  1  0
  8  6  1  0
  9 20  2  0
 10 15  1  0
 11 19  1  0
 11 21  1  0
 12 18  1  0
 12 14  1  0
 13 19  1  0
 14 13  1  0
 15 14  2  0
 16 17  1  0
 16 10  2  0
 17 12  2  0
 18 11  1  0
 19  9  1  0
 21 23  2  0
 22 21  1  0
 24 22  1  0
 25 34  2  0
 25 30  1  0
 26 22  1  0
 26 30  1  0
 27 26  1  0
 28 29  1  0
 28 27  1  0
 29 25  1  0
 30 31  2  0
 31 32  1  0
 33 32  2  0
 34 33  1  0
 35  9  1  0
 35 36  1  0
 35 45  1  0
 36 39  1  0
 37 41  1  0
 37 36  1  0
 38 37  2  0
 41 40  1  0
 43 41  1  0
 43 44  1  0
 43 42  1  0
 45 48  1  1
 45 46  1  0
 47 45  1  0
 49 54  1  0
 49  5  1  0
 51 54  1  0
 51 53  2  0
 52 50  1  0
 52 55  1  0
 53 52  1  0
 54 56  1  6
 54 50  1  0
 57 63  1  0
 57 65  1  0
 58 63  1  0
 59 60  1  0
 59 58  1  0
 61 60  1  0
 61 70  1  0
 61 62  1  0
 63 62  1  0
 64 57  2  0
 65 66  1  0
 65 53  1  0
 67 68  2  0
 68 87  1  0
 69 68  1  0
 69 72  1  0
 70 71  1  0
 70 67  1  0
 71 69  2  0
 72 73  1  0
 73 74  2  0
 75 78  1  0
 75 74  1  0
 76 75  2  0
 77 76  1  0
 77 72  2  0
 78 79  1  0
 79 84  2  0
 79 80  1  0
 80 81  2  0
 81 82  1  0
 82 86  1  0
 83 82  2  0
 84 83  1  0
 85 84  1  0
 87 88  1  0
 88 91  1  0
 88 90  1  0
 89 87  2  0
 92 93  1  0
 92 67  1  0
 94 92  1  0
M  ISO  4   6 101   8 101  57 100  65 100
M  END
>  <TORSDO>  (82) 
F 18

>  <SCORE>  (82) 
-12.940

>  <name>  (82) 
81

>  <ligand_id>  (82) 
81

>  <original_smiles>  (82) 
[H]c1c([H])c([H])c2c(c1[H])C([H])([H])C([H])([H])C([H])([H])C2([H])N([H])C(=O)C1([H])N(C(=O)C([H])(N([H])C(=O)C([H])(N([H])C([H])([H])[H])C([H])([H])[H])C(C([H])([H])[H])(C([H])([H])[H])C([H])([H])[H])C([H])([H])c2c([H])c(Oc3c(C([H])([H])[H])c([H])c([H])c([H])c3C([H])([H])C3(C([H])([H])[H])C([H])([H])C([H])(N([H])C(=O)N4C([H])([H])C([H])([H])C([H])([H])C([H])(n5nc(-c6c([H])c([H])c(Oc7c([H])c([H])c(F)c([H])c7F)c([H])c6[H])c(C(=O)N([H])[H])c5N([H])[H])C4([H])[H])C([H])(C([H])([H])[H])C3([H])[H])c([H])c([H])c2C1([H])[H]

>  <smiles>  (82) 
[H]c1c([H])c([H])c2c(c1[H])C([H])([H])C([H])([H])C([H])([H])C2([H])N([H])C(=O)C1([H])N(C(=O)C([H])(N([H])C(=O)C([H])(N([H])C([H])([H])[H])C([H])([H])[H])C(C([H])([H])[H])(C([H])([H])[H])C([H])([H])[H])C([H])([H])c2c([H])c(Oc3c(C([H])([H])[H])c([H])c([H])c([H])c3C([H])([H])C3(C([H])([H])[H])C([H])([H])C([H])(N([H])C(=O)N4C([H])([H])C([H])([H])C([H])([H])C([H])(n5nc(-c6c([H])c([H])c(Oc7c([H])c([H])c(F)c([H])c7F)c([H])c6[H])c(C(=O)N([H])[H])c5N([H])[H])C4([H])[H])C([H])(C([H])([H])[H])C3([H])[H])c([H])c([H])c2C1([H])[H]

$$$$
82:0:0
     RDKit          3D

100110  0  0  1  0  0  0  0  0999 V2000
  -29.1100  -22.9500   19.8020 C   0  0  0  0  0  3  0  0  0  0  0  0
  -28.7390  -21.6440   19.1450 C   0  0  0  0  0  0  0  0  0  0  0  0
  -28.8870  -24.1630   19.0900 C   0  0  0  0  0  0  0  0  0  0  0  0
  -28.3000  -21.9780   17.8630 C   0  0  0  0  0  0  0  0  0  0  0  0
  -26.8460  -20.3400   16.8960 C   0  0  0  0  0  0  0  0  0  0  0  0
  -26.4190  -19.8420   18.2660 C   0  0  0  0  0  2  0  0  0  0  0  0
  -27.6310  -19.2130   18.9770 C   0  0  0  0  0  2  0  0  0  0  0  0
  -28.6580  -20.1120   19.7440 C   0  0  1  0  0  0  0  0  0  0  0  0
  -27.8390  -21.2260   16.8330 N   0  0  0  0  0  0  0  0  0  0  0  0
  -26.2730  -19.9350   15.8820 O   0  0  0  0  0  0  0  0  0  0  0  0
  -28.2820  -23.7000   17.5380 S   0  0  0  0  0  0  0  0  0  0  0  0
  -28.0440  -21.5660   15.9030 H   0  0  0  0  0  0  0  0  0  0  0  0
  -29.9830  -17.6350   19.8810 C   0  0  0  0  0  3  0  0  0  0  0  0
  -32.1630  -17.5920   20.9080 C   0  0  0  0  0  3  0  0  0  0  0  0
  -31.1040  -19.7450   20.4140 C   0  0  0  0  0  3  0  0  0  0  0  0
  -31.1030  -16.8220   20.3630 C   0  0  0  0  0  0  0  0  0  0  0  0
  -29.9400  -19.1230   19.9190 C   0  0  0  0  0  0  0  0  0  0  0  0
  -32.1750  -18.9970   20.9290 C   0  0  0  0  0  0  0  0  0  0  0  0
  -33.2420  -19.6480   21.4600 F   0  0  0  0  0  0  0  0  0  0  0  0
  -31.4740  -15.3040   20.1110 C   0  0  0  0  0  0  0  0  0  0  0  0
  -31.2110  -12.8810   19.5300 C   0  0  0  0  0  2  0  0  0  0  0  0
  -30.3480  -12.7160   18.2630 C   0  0  0  0  0  2  0  0  0  0  0  0
  -28.8720  -12.5680   18.6650 C   0  0  0  0  0  2  0  0  0  0  0  0
  -28.4280  -13.6430   19.6960 C   0  0  0  0  0  3  0  0  0  0  0  0
  -29.4470  -13.8620   20.8400 C   0  0  0  0  0  2  0  0  0  0  0  0
  -30.7570  -14.1170   20.2350 N   0  0  0  0  0  0  0  0  0  0  0  0
  -32.6300  -15.1850   19.6990 O   0  0  0  0  0  0  0  0  0  0  0  0
  -26.0830  -14.2870   20.4840 C   0  0  0  0  0  0  0  0  0  0  0  0
  -24.9880  -13.5480   20.8320 C   0  0  0  0  0  0  0  0  0  0  0  0
  -25.3880  -12.1780   20.7370 C   0  0  0  0  0  0  0  0  0  0  0  0
  -27.0840  -13.3780   20.1990 N   0  0  0  0  0  0  0  0  0  0  0  0
  -26.6750  -12.0980   20.4130 N   0  0  0  0  0  0  0  0  0  0  0  0
  -24.6050  -10.9430   20.8810 C   0  0  0  0  0  0  0  0  0  0  0  0
  -24.9380   -9.9580   21.8370 C   0  0  0  0  0  3  0  0  0  0  0  0
  -24.1520   -8.7930   21.9710 C   0  0  0  0  0  3  0  0  0  0  0  0
  -23.0190   -8.6010   21.1460 C   0  0  0  0  0  0  0  0  0  0  0  0
  -22.7040   -9.5740   20.1800 C   0  0  0  0  0  3  0  0  0  0  0  0
  -23.4900  -10.7310   20.0460 C   0  0  0  0  0  3  0  0  0  0  0  0
  -22.2150   -7.4870   21.1870 O   0  0  0  0  0  0  0  0  0  0  0  0
  -21.9860   -6.8070   22.3550 C   0  0  0  0  0  0  0  0  0  0  0  0
  -21.4170   -7.4330   23.4860 C   0  0  0  0  0  3  0  0  0  0  0  0
  -21.1380   -6.6790   24.6430 C   0  0  0  0  0  3  0  0  0  0  0  0
  -21.4170   -5.3000   24.6690 C   0  0  0  0  0  0  0  0  0  0  0  0
  -21.9790   -4.6730   23.5430 C   0  0  0  0  0  3  0  0  0  0  0  0
  -22.2590   -5.4250   22.3890 C   0  0  0  0  0  0  0  0  0  0  0  0
  -22.7810   -4.8100   21.2990 F   0  0  0  0  0  0  0  0  0  0  0  0
  -21.1400   -4.5750   25.7780 F   0  0  0  0  0  0  0  0  0  0  0  0
  -23.6190  -14.0790   21.1400 C   0  0  0  0  0  0  0  0  0  0  0  0
  -22.8790  -13.3980   22.0070 N   0  0  0  0  0  0  0  0  0  0  0  0
  -23.2160  -15.1300   20.6430 O   0  0  0  0  0  0  0  0  0  0  0  0
  -23.2250  -12.5530   22.4360 H   0  0  0  0  0  0  0  0  0  0  0  0
  -21.9570  -13.7300   22.2500 H   0  0  0  0  0  0  0  0  0  0  0  0
  -26.3040  -15.6530   20.3640 N   0  0  0  0  0  0  0  0  0  0  0  0
  -25.5620  -16.3270   20.5220 H   0  0  0  0  0  0  0  0  0  0  0  0
  -27.1680  -16.0740   20.0530 H   0  0  0  0  0  0  0  0  0  0  0  0
  -29.3500  -25.6990   19.1540 C   0  0  0  0  0  2  0  0  0  0  0  0
  -28.7840  -26.7540   20.0650 O   0  0  0  0  0  0  0  0  0  0  0  0
  -24.6060  -31.8350   23.0320 C   0  0  0  0  0  0  0  0  0  0  0  0
  -27.6550  -27.5840   19.8550 C   0  0  0  0  0  0  0  0  0  0  0  0
  -23.7300  -30.1530   21.4410 C   0  0  0  0  0  3  0  0  0  0  0  0
  -25.1960  -29.0560   19.7510 C   0  0  0  0  0  0  0  0  0  0  0  0
  -26.0770  -30.9780   21.1520 C   0  0  0  0  0  2  0  0  0  0  0  0
  -26.3080  -29.6330   20.4050 C   0  0  0  0  0  0  0  0  0  0  0  0
  -27.5280  -28.8840   20.4610 C   0  0  0  0  0  3  0  0  0  0  0  0
  -26.5330  -27.0940   19.1600 C   0  0  0  0  0  3  0  0  0  0  0  0
  -25.3150  -27.8030   19.1260 C   0  0  0  0  0  3  0  0  0  0  0  0
  -23.8420  -29.7270   19.9550 C   0  0  0  0  0  2  0  0  0  0  0  0
  -24.7650  -31.1150   21.8800 N   0  0  0  0  0  0  0  0  0  0  0  0
  -23.4960  -31.9650   23.5700 O   0  0  0  0  0  0  0  0  0  0  0  0
  -22.8990  -29.2850   22.4100 C   0  0  0  0  0  0  0  0  0  0  0  0
  -21.6130  -29.0510   22.1390 N   0  0  0  0  0  0  0  0  0  0  0  0
  -23.4590  -28.7160   23.3620 O   0  0  0  0  0  0  0  0  0  0  0  0
  -21.1740  -29.5110   21.3530 H   0  0  0  0  0  0  0  0  0  0  0  0
  -18.3190  -27.6570   22.6480 C   0  0  0  0  0  0  0  0  0  0  0  0
  -20.8510  -28.0310   22.8610 C   0  0  0  0  0  3  0  0  0  0  0  0
  -21.0170  -26.6440   22.2010 C   0  0  0  0  0  2  0  0  0  0  0  0
  -19.9140  -26.3410   21.1820 C   0  0  0  0  0  2  0  0  0  0  0  0
  -18.5420  -26.3660   21.8720 C   0  0  0  0  0  2  0  0  0  0  0  0
  -19.4080  -28.4490   23.0920 C   0  0  0  0  0  0  0  0  0  0  0  0
  -19.1570  -29.6560   23.7810 C   0  0  0  0  0  3  0  0  0  0  0  0
  -17.8380  -30.0750   24.0260 C   0  0  0  0  0  3  0  0  0  0  0  0
  -16.7610  -29.2820   23.5940 C   0  0  0  0  0  3  0  0  0  0  0  0
  -17.0000  -28.0750   22.9140 C   0  0  0  0  0  3  0  0  0  0  0  0
  -25.8080  -32.5660   23.6990 C   0  0  0  0  0  3  0  0  0  0  0  0
  -26.3360  -31.8270   24.9920 C   0  0  1  0  0  0  0  0  0  0  0  0
  -25.2260  -31.4920   26.0170 C   0  0  0  0  0  1  0  0  0  0  0  0
  -27.0390  -30.5030   24.6150 C   0  0  0  0  0  1  0  0  0  0  0  0
  -27.3930  -32.7050   25.7050 C   0  0  0  0  0  1  0  0  0  0  0  0
  -25.3820  -33.9350   24.0260 N   0  0  0  0  0  0  0  0  0  0  0  0
  -25.6750  -35.0160   23.2910 C   0  0  0  0  0  0  0  0  0  0  0  0
  -26.3960  -34.9680   22.2900 O   0  0  0  0  0  0  0  0  0  0  0  0
  -24.7400  -34.0370   24.7990 H   0  0  0  0  0  0  0  0  0  0  0  0
  -23.8490  -36.6980   22.8790 C   0  0  0  0  0  1  0  0  0  0  0  0
  -25.0810  -36.3660   23.7370 C   0  0  0  0  0  3  0  0  0  0  0  0
  -27.1180  -37.3800   24.6630 C   0  0  0  0  0  1  0  0  0  0  0  0
  -26.0470  -37.4850   23.6750 N   0  0  0  0  0  0  0  0  0  0  0  0
  -25.5770  -38.3760   23.8140 H   0  0  0  0  0  0  0  0  0  0  0  0
  -28.1320  -20.2460   21.2250 C   0  0  0  0  0  2  0  0  0  0  0  0
  -27.7240  -22.7660   21.7710 C   0  0  0  0  0  1  0  0  0  0  0  0
  -27.1330  -21.3580   21.6230 C   0  0  0  0  0  2  0  0  0  0  0  0
  2  8  1  0
  2  1  1  0
  3 56  1  0
  3  1  2  0
  4  2  2  0
  5  6  1  0
  6  7  1  0
  7  8  1  0
  8 17  1  0
  8 98  1  1
  9  5  1  0
  9  4  1  0
 10  5  2  0
 11  4  1  0
 11  3  1  0
 12  9  1  0
 13 17  2  0
 13 16  1  0
 14 18  1  0
 15 18  2  0
 16 14  2  0
 17 15  1  0
 18 19  1  0
 20 26  1  0
 20 16  1  0
 21 26  1  0
 22 23  1  0
 22 21  1  0
 24 23  1  0
 24 31  1  0
 24 25  1  0
 26 25  1  0
 27 20  2  0
 28 29  2  0
 29 48  1  0
 30 29  1  0
 30 33  1  0
 31 32  1  0
 31 28  1  0
 32 30  2  0
 33 34  1  0
 34 35  2  0
 36 39  1  0
 36 35  1  0
 37 36  2  0
 38 37  1  0
 38 33  2  0
 39 40  1  0
 40 45  2  0
 40 41  1  0
 41 42  2  0
 42 43  1  0
 43 47  1  0
 44 43  2  0
 45 44  1  0
 46 45  1  0
 48 49  1  0
 49 52  1  0
 49 51  1  0
 50 48  2  0
 53 28  1  0
 53 54  1  0
 55 53  1  0
 56 57  1  0
 58 69  2  0
 59 57  1  0
 59 64  1  0
 60 68  1  0
 60 70  1  0
 61 67  1  0
 61 63  1  0
 62 68  1  0
 63 64  2  0
 63 62  1  0
 65 59  2  0
 66 65  1  0
 66 61  2  0
 67 60  1  0
 68 58  1  0
 70 72  2  0
 71 70  1  0
 73 71  1  0
 74 83  2  0
 74 79  1  0
 75 71  1  0
 75 79  1  0
 76 75  1  0
 77 78  1  0
 77 76  1  0
 78 74  1  0
 79 80  2  0
 80 81  1  0
 82 81  2  0
 83 82  1  0
 84 58  1  0
 84 89  1  0
 84 85  1  0
 85 88  1  1
 85 86  1  0
 87 85  1  0
 89 92  1  0
 90 94  1  0
 90 89  1  0
 91 90  2  0
 94 93  1  0
 96 94  1  0
 96 97  1  0
 96 95  1  0
 98100  1  0
100 99  1  0
M  ISO  4  16 100  20 100  56 101  57 101
M  END
>  <TORSDO>  (83) 
F 20

>  <SCORE>  (83) 
-9.212

>  <name>  (83) 
82

>  <ligand_id>  (83) 
82

>  <original_smiles>  (83) 
[H]c1c([H])c([H])c2c(c1[H])C([H])([H])C([H])([H])C([H])([H])C2([H])N([H])C(=O)C1([H])N(C(=O)C([H])(N([H])C(=O)C([H])(N([H])C([H])([H])[H])C([H])([H])[H])C(C([H])([H])[H])(C([H])([H])[H])C([H])([H])[H])C([H])([H])c2c([H])c(OC([H])([H])c3sc4c(c3[H])C(c3c([H])c(F)c([H])c(C(=O)N5C([H])([H])C([H])([H])C([H])([H])C([H])(n6nc(-c7c([H])c([H])c(Oc8c([H])c([H])c(F)c([H])c8F)c([H])c7[H])c(C(=O)N([H])[H])c6N([H])[H])C5([H])[H])c3[H])(C([H])([H])C([H])([H])C([H])([H])[H])C([H])([H])C([H])([H])C(=O)N4[H])c([H])c([H])c2C1([H])[H]

>  <smiles>  (83) 
[H]c1c([H])c([H])c2c(c1[H])C([H])([H])C([H])([H])C([H])([H])C2([H])N([H])C(=O)C1([H])N(C(=O)C([H])(N([H])C(=O)C([H])(N([H])C([H])([H])[H])C([H])([H])[H])C(C([H])([H])[H])(C([H])([H])[H])C([H])([H])[H])C([H])([H])c2c([H])c(OC([H])([H])c3sc4c(c3[H])C(c3c([H])c(F)c([H])c(C(=O)N5C([H])([H])C([H])([H])C([H])([H])C([H])(n6nc(-c7c([H])c([H])c(Oc8c([H])c([H])c(F)c([H])c8F)c([H])c7[H])c(C(=O)N([H])[H])c6N([H])[H])C5([H])[H])c3[H])(C([H])([H])C([H])([H])C([H])([H])[H])C([H])([H])C([H])([H])C(=O)N4[H])c([H])c([H])c2C1([H])[H]

$$$$
83:0:0
     RDKit          3D

 96105  0  0  1  0  0  0  0  0999 V2000
  -28.7880  -19.9880   19.9750 C   0  0  0  0  0  3  0  0  0  0  0  0
  -29.1600  -20.9700   19.1270 C   0  0  0  0  0  3  0  0  0  0  0  0
  -30.0670  -16.4700   21.1630 C   0  0  0  0  0  0  0  0  0  0  0  0
  -29.9470  -15.7170   20.0380 C   0  0  0  0  0  0  0  0  0  0  0  0
  -30.8760  -16.1980   22.3600 C   0  0  0  0  0  0  0  0  0  0  0  0
  -29.2260  -16.2940   18.8130 C   0  0  0  0  0  2  0  0  0  0  0  0
  -30.9390  -17.4370   23.2400 C   0  0  0  0  0  2  0  0  0  0  0  0
  -28.4960  -17.6320   19.0680 C   0  0  0  0  0  2  0  0  0  0  0  0
  -30.4560  -18.5710   22.3180 C   0  0  0  0  0  2  0  0  0  0  0  0
  -29.5230  -17.8880   21.3000 C   0  0  0  0  0  3  0  0  0  0  0  0
  -29.3590  -18.5730   19.9220 C   0  0  0  0  0  3  0  0  0  0  0  0
  -31.4300  -15.1390   22.6620 O   0  0  0  0  0  0  0  0  0  0  0  0
  -30.7150  -14.4890   19.7910 C   0  0  0  0  0  0  0  0  0  0  0  0
  -30.2260  -12.3920   18.6240 C   0  0  0  0  0  2  0  0  0  0  0  0
  -29.1930  -12.7180   17.5220 C   0  0  0  0  0  2  0  0  0  0  0  0
  -27.7600  -12.6010   18.0800 C   0  0  0  0  0  2  0  0  0  0  0  0
  -27.5660  -13.3580   19.4220 C   0  0  0  0  0  3  0  0  0  0  0  0
  -28.7200  -13.0660   20.4060 C   0  0  0  0  0  2  0  0  0  0  0  0
  -29.9940  -13.3340   19.7240 N   0  0  0  0  0  0  0  0  0  0  0  0
  -31.8690  -14.5650   19.3700 O   0  0  0  0  0  0  0  0  0  0  0  0
  -25.2640  -13.9690   20.3890 C   0  0  0  0  0  0  0  0  0  0  0  0
  -24.2250  -13.1980   20.8360 C   0  0  0  0  0  0  0  0  0  0  0  0
  -24.6640  -11.8420   20.7140 C   0  0  0  0  0  0  0  0  0  0  0  0
  -26.2660  -13.0850   20.0240 N   0  0  0  0  0  0  0  0  0  0  0  0
  -25.9180  -11.7990   20.2830 N   0  0  0  0  0  0  0  0  0  0  0  0
  -23.9420  -10.5840   20.9270 C   0  0  0  0  0  0  0  0  0  0  0  0
  -24.4230   -9.6010   21.8200 C   0  0  0  0  0  3  0  0  0  0  0  0
  -23.7020   -8.4050   22.0240 C   0  0  0  0  0  3  0  0  0  0  0  0
  -22.4890   -8.1790   21.3340 C   0  0  0  0  0  0  0  0  0  0  0  0
  -22.0280   -9.1510   20.4290 C   0  0  0  0  0  3  0  0  0  0  0  0
  -22.7480  -10.3390   20.2230 C   0  0  0  0  0  3  0  0  0  0  0  0
  -21.7360   -7.0350   21.4520 O   0  0  0  0  0  0  0  0  0  0  0  0
  -21.7170   -6.3020   22.6090 C   0  0  0  0  0  0  0  0  0  0  0  0
  -21.3510   -6.8740   23.8470 C   0  0  0  0  0  3  0  0  0  0  0  0
  -21.2770   -6.0650   24.9990 C   0  0  0  0  0  3  0  0  0  0  0  0
  -21.5570   -4.6880   24.9140 C   0  0  0  0  0  0  0  0  0  0  0  0
  -21.9190   -4.1180   23.6820 C   0  0  0  0  0  3  0  0  0  0  0  0
  -21.9950   -4.9220   22.5320 C   0  0  0  0  0  0  0  0  0  0  0  0
  -22.3190   -4.3640   21.3400 F   0  0  0  0  0  0  0  0  0  0  0  0
  -21.4770   -3.9100   26.0200 F   0  0  0  0  0  0  0  0  0  0  0  0
  -22.8660  -13.6820   21.2480 C   0  0  0  0  0  0  0  0  0  0  0  0
  -22.2230  -12.9890   22.1830 N   0  0  0  0  0  0  0  0  0  0  0  0
  -22.3870  -14.7120   20.7740 O   0  0  0  0  0  0  0  0  0  0  0  0
  -22.6310  -12.1590   22.5890 H   0  0  0  0  0  0  0  0  0  0  0  0
  -21.3130  -13.2960   22.4970 H   0  0  0  0  0  0  0  0  0  0  0  0
  -25.4230  -15.3420   20.2350 N   0  0  0  0  0  0  0  0  0  0  0  0
  -24.6610  -15.9850   20.4110 H   0  0  0  0  0  0  0  0  0  0  0  0
  -26.2250  -15.7860   19.8080 H   0  0  0  0  0  0  0  0  0  0  0  0
  -28.6580  -22.4040   19.1480 C   0  0  0  0  0  2  0  0  0  0  0  0
  -29.7160  -23.4980   19.3280 C   0  0  0  0  0  0  0  0  0  0  0  0
  -29.5590  -24.6080   18.5960 N   0  0  0  0  0  0  0  0  0  0  0  0
  -30.6440  -23.3490   20.1270 O   0  0  0  0  0  0  0  0  0  0  0  0
  -28.7780  -24.6250   17.9530 H   0  0  0  0  0  0  0  0  0  0  0  0
  -30.3160  -25.8560   18.7330 C   0  0  0  0  0  2  0  0  0  0  0  0
  -29.3460  -27.0410   18.8390 C   0  0  0  0  0  2  0  0  0  0  0  0
  -28.4920  -26.7720   19.9410 O   0  0  0  0  0  0  0  0  0  0  0  0
  -24.5600  -31.7230   23.1550 C   0  0  0  0  0  0  0  0  0  0  0  0
  -27.3220  -27.4810   19.9490 C   0  0  0  0  0  0  0  0  0  0  0  0
  -23.3850  -30.3390   21.4720 C   0  0  0  0  0  3  0  0  0  0  0  0
  -24.8820  -28.8800   20.0060 C   0  0  0  0  0  0  0  0  0  0  0  0
  -25.8950  -30.7810   21.2790 C   0  0  0  0  0  2  0  0  0  0  0  0
  -26.0210  -29.4310   20.6080 C   0  0  0  0  0  0  0  0  0  0  0  0
  -27.2470  -28.7360   20.5820 C   0  0  0  0  0  3  0  0  0  0  0  0
  -26.1720  -26.9220   19.3570 C   0  0  0  0  0  3  0  0  0  0  0  0
  -24.9500  -27.6220   19.3800 C   0  0  0  0  0  3  0  0  0  0  0  0
  -23.6150  -29.7010   20.0730 C   0  0  0  0  0  2  0  0  0  0  0  0
  -24.6310  -30.9590   22.0310 N   0  0  0  0  0  0  0  0  0  0  0  0
  -23.4750  -31.9530   23.7060 O   0  0  0  0  0  0  0  0  0  0  0  0
  -22.7610  -29.2750   22.4040 C   0  0  0  0  0  0  0  0  0  0  0  0
  -21.4430  -29.0600   22.2640 N   0  0  0  0  0  0  0  0  0  0  0  0
  -23.4590  -28.6510   23.2050 O   0  0  0  0  0  0  0  0  0  0  0  0
  -20.9400  -29.6160   21.5890 H   0  0  0  0  0  0  0  0  0  0  0  0
  -18.1060  -27.7540   22.7050 C   0  0  0  0  0  0  0  0  0  0  0  0
  -20.6510  -28.0830   23.0100 C   0  0  0  0  0  3  0  0  0  0  0  0
  -20.8040  -26.6670   22.4100 C   0  0  0  0  0  2  0  0  0  0  0  0
  -19.7260  -26.3290   21.3780 C   0  0  0  0  0  2  0  0  0  0  0  0
  -18.3330  -26.4230   22.0100 C   0  0  0  0  0  2  0  0  0  0  0  0
  -19.1960  -28.5400   23.1640 C   0  0  0  0  0  0  0  0  0  0  0  0
  -18.9350  -29.7870   23.7730 C   0  0  0  0  0  3  0  0  0  0  0  0
  -17.6140  -30.2470   23.9290 C   0  0  0  0  0  3  0  0  0  0  0  0
  -16.5380  -29.4580   23.4880 C   0  0  0  0  0  3  0  0  0  0  0  0
  -16.7840  -28.2130   22.8810 C   0  0  0  0  0  3  0  0  0  0  0  0
  -25.8340  -32.3670   23.7890 C   0  0  0  0  0  3  0  0  0  0  0  0
  -25.4950  -33.7490   24.1490 N   0  0  0  0  0  0  0  0  0  0  0  0
  -25.7970  -34.8240   23.4080 C   0  0  0  0  0  0  0  0  0  0  0  0
  -26.4600  -34.7570   22.3700 O   0  0  0  0  0  0  0  0  0  0  0  0
  -24.8980  -33.8740   24.9550 H   0  0  0  0  0  0  0  0  0  0  0  0
  -24.0120  -36.5700   23.1170 C   0  0  0  0  0  1  0  0  0  0  0  0
  -25.2810  -36.1890   23.8980 C   0  0  0  0  0  3  0  0  0  0  0  0
  -27.4090  -37.1200   24.6970 C   0  0  0  0  0  1  0  0  0  0  0  0
  -26.2800  -37.2740   23.7830 N   0  0  0  0  0  0  0  0  0  0  0  0
  -25.8520  -38.1770   23.9600 H   0  0  0  0  0  0  0  0  0  0  0  0
  -26.3770  -31.5710   25.0390 C   0  0  1  0  0  0  0  0  0  0  0  0
  -25.2900  -31.2720   26.0970 C   0  0  0  0  0  1  0  0  0  0  0  0
  -26.9970  -30.2220   24.6030 C   0  0  0  0  0  1  0  0  0  0  0  0
  -27.5040  -32.3780   25.7280 C   0  0  0  0  0  1  0  0  0  0  0  0
  2 49  1  0
  2  1  2  0
  3 10  1  0
  3  5  1  0
  4  3  2  0
  5 12  2  0
  5  7  1  0
  6  8  1  0
  6  4  1  0
  8 11  1  0
  9  7  1  0
 10  9  1  0
 11  1  1  0
 11 10  1  0
 13  4  1  0
 14 19  1  0
 15 16  1  0
 15 14  1  0
 17 16  1  0
 17 24  1  0
 17 18  1  0
 19 13  1  0
 19 18  1  0
 20 13  2  0
 21 22  2  0
 22 41  1  0
 23 22  1  0
 23 26  1  0
 24 25  1  0
 24 21  1  0
 25 23  2  0
 26 27  1  0
 27 28  2  0
 29 32  1  0
 29 28  1  0
 30 29  2  0
 31 30  1  0
 31 26  2  0
 32 33  1  0
 33 34  1  0
 34 35  2  0
 36 35  1  0
 36 40  1  0
 37 36  2  0
 38 33  2  0
 38 37  1  0
 39 38  1  0
 41 42  1  0
 42 45  1  0
 42 44  1  0
 43 41  2  0
 46 21  1  0
 46 47  1  0
 48 46  1  0
 49 50  1  0
 50 52  2  0
 51 54  1  0
 51 50  1  0
 53 51  1  0
 54 55  1  0
 55 56  1  0
 56 58  1  0
 57 68  2  0
 58 63  1  0
 59 67  1  0
 59 69  1  0
 60 66  1  0
 60 62  1  0
 61 67  1  0
 62 61  1  0
 63 62  2  0
 64 65  1  0
 64 58  2  0
 65 60  2  0
 66 59  1  0
 67 57  1  0
 69 71  2  0
 70 69  1  0
 72 70  1  0
 73 82  2  0
 73 78  1  0
 74 70  1  0
 74 78  1  0
 75 74  1  0
 76 77  1  0
 76 75  1  0
 77 73  1  0
 78 79  2  0
 79 80  1  0
 81 80  2  0
 82 81  1  0
 83 57  1  0
 83 84  1  0
 83 93  1  0
 84 87  1  0
 85 89  1  0
 85 84  1  0
 86 85  2  0
 89 88  1  0
 91 89  1  0
 91 92  1  0
 91 90  1  0
 93 96  1  1
 93 94  1  0
 95 93  1  0
M  ISO  4   4 100  13 100  55 101  56 101
M  END
>  <TORSDO>  (84) 
F 21

>  <SCORE>  (84) 
-11.427

>  <name>  (84) 
83

>  <ligand_id>  (84) 
83

>  <original_smiles>  (84) 
[H]C(=C([H])C1([H])C([H])([H])C([H])([H])C(C(=O)N2C([H])([H])C([H])([H])C([H])([H])C([H])(n3nc(-c4c([H])c([H])c(Oc5c([H])c([H])c(F)c([H])c5F)c([H])c4[H])c(C(=O)N([H])[H])c3N([H])[H])C2([H])[H])=C2C(=O)C([H])([H])C([H])([H])C21[H])C([H])([H])C(=O)N([H])C([H])([H])C([H])([H])Oc1c([H])c([H])c2c(c1[H])C([H])([H])N(C(=O)C([H])(N([H])C(=O)C([H])(N([H])C([H])([H])[H])C([H])([H])[H])C(C([H])([H])[H])(C([H])([H])[H])C([H])([H])[H])C([H])(C(=O)N([H])C1([H])c3c([H])c([H])c([H])c([H])c3C([H])([H])C([H])([H])C1([H])[H])C2([H])[H]

>  <smiles>  (84) 
[H]C(=C([H])C1([H])C([H])([H])C([H])([H])C(C(=O)N2C([H])([H])C([H])([H])C([H])([H])C([H])(n3nc(-c4c([H])c([H])c(Oc5c([H])c([H])c(F)c([H])c5F)c([H])c4[H])c(C(=O)N([H])[H])c3N([H])[H])C2([H])[H])=C2C(=O)C([H])([H])C([H])([H])C21[H])C([H])([H])C(=O)N([H])C([H])([H])C([H])([H])Oc1c([H])c([H])c2c(c1[H])C([H])([H])N(C(=O)C([H])(N([H])C(=O)C([H])(N([H])C([H])([H])[H])C([H])([H])[H])C(C([H])([H])[H])(C([H])([H])[H])C([H])([H])[H])C([H])(C(=O)N([H])C1([H])c3c([H])c([H])c([H])c([H])c3C([H])([H])C([H])([H])C1([H])[H])C2([H])[H]

$$$$
84:0:0
     RDKit          3D

 95103  0  0  1  0  0  0  0  0999 V2000
  -31.2480  -20.8450   20.3530 C   0  0  0  0  0  3  0  0  0  0  0  0
  -31.0670  -21.5500   19.1530 C   0  0  0  0  0  3  0  0  0  0  0  0
  -30.9210  -21.4360   21.5900 C   0  0  0  0  0  0  0  0  0  0  0  0
  -30.4070  -22.7630   21.6200 C   0  0  0  0  0  0  0  0  0  0  0  0
  -30.3150  -23.5160   20.4140 C   0  0  0  0  0  0  0  0  0  0  0  0
  -30.6200  -22.8830   19.1810 C   0  0  0  0  0  0  0  0  0  0  0  0
  -29.9920  -23.3850   22.9520 C   0  0  0  0  0  1  0  0  0  0  0  0
  -30.5130  -23.5610   17.9690 N   0  0  0  0  0  0  0  0  0  0  0  0
  -30.4840  -23.0300   17.1040 H   0  0  0  0  0  0  0  0  0  0  0  0
  -30.0060  -24.4380   17.9290 H   0  0  0  0  0  0  0  0  0  0  0  0
  -31.2050  -20.6390   22.8640 C   0  0  0  0  0  2  0  0  0  0  0  0
  -30.1240  -19.5980   23.2240 C   0  0  0  0  0  2  0  0  0  0  0  0
  -30.1500  -18.3140   22.3720 C   0  0  0  0  0  2  0  0  0  0  0  0
  -31.3280  -17.3690   22.6910 C   0  0  0  0  0  2  0  0  0  0  0  0
  -31.6320  -16.3900   21.5470 C   0  0  0  0  0  2  0  0  0  0  0  0
  -30.5160  -15.3540   21.2850 C   0  0  0  0  0  2  0  0  0  0  0  0
  -30.8580  -14.3750   20.1480 C   0  0  0  0  0  0  0  0  0  0  0  0
  -30.3790  -12.3050   18.8860 C   0  0  0  0  0  2  0  0  0  0  0  0
  -29.3960  -12.5560   17.7310 C   0  0  0  0  0  2  0  0  0  0  0  0
  -27.9440  -12.4340   18.2260 C   0  0  0  0  0  2  0  0  0  0  0  0
  -27.6820  -13.2770   19.5030 C   0  0  0  0  0  3  0  0  0  0  0  0
  -28.7740  -13.0320   20.5680 C   0  0  0  0  0  2  0  0  0  0  0  0
  -30.0890  -13.2740   19.9530 N   0  0  0  0  0  0  0  0  0  0  0  0
  -31.8430  -14.6190   19.4440 O   0  0  0  0  0  0  0  0  0  0  0  0
  -25.3170  -13.9230   20.2890 C   0  0  0  0  0  0  0  0  0  0  0  0
  -24.2550  -13.1670   20.7120 C   0  0  0  0  0  0  0  0  0  0  0  0
  -24.7000  -11.8110   20.6840 C   0  0  0  0  0  0  0  0  0  0  0  0
  -26.3430  -13.0270   20.0350 N   0  0  0  0  0  0  0  0  0  0  0  0
  -25.9760  -11.7510   20.3260 N   0  0  0  0  0  0  0  0  0  0  0  0
  -23.9690  -10.5590   20.9240 C   0  0  0  0  0  0  0  0  0  0  0  0
  -24.4130   -9.6150   21.8750 C   0  0  0  0  0  3  0  0  0  0  0  0
  -23.6840   -8.4270   22.1020 C   0  0  0  0  0  3  0  0  0  0  0  0
  -22.4940   -8.1770   21.3750 C   0  0  0  0  0  0  0  0  0  0  0  0
  -22.0680   -9.1100   20.4130 C   0  0  0  0  0  3  0  0  0  0  0  0
  -22.8000  -10.2880   20.1860 C   0  0  0  0  0  3  0  0  0  0  0  0
  -21.7360   -7.0390   21.5080 O   0  0  0  0  0  0  0  0  0  0  0  0
  -21.6930   -6.3360   22.6850 C   0  0  0  0  0  0  0  0  0  0  0  0
  -21.2920   -6.9370   23.8980 C   0  0  0  0  0  3  0  0  0  0  0  0
  -21.1950   -6.1600   25.0700 C   0  0  0  0  0  3  0  0  0  0  0  0
  -21.4880   -4.7850   25.0290 C   0  0  0  0  0  0  0  0  0  0  0  0
  -21.8810   -4.1830   23.8200 C   0  0  0  0  0  3  0  0  0  0  0  0
  -21.9810   -4.9570   22.6510 C   0  0  0  0  0  0  0  0  0  0  0  0
  -22.3400   -4.3690   21.4850 F   0  0  0  0  0  0  0  0  0  0  0  0
  -21.3890   -4.0350   26.1520 F   0  0  0  0  0  0  0  0  0  0  0  0
  -22.8750  -13.6650   21.0310 C   0  0  0  0  0  0  0  0  0  0  0  0
  -22.1770  -12.9940   21.9420 N   0  0  0  0  0  0  0  0  0  0  0  0
  -22.4230  -14.6820   20.5080 O   0  0  0  0  0  0  0  0  0  0  0  0
  -22.5560  -12.1710   22.3850 H   0  0  0  0  0  0  0  0  0  0  0  0
  -21.2520  -13.3100   22.1980 H   0  0  0  0  0  0  0  0  0  0  0  0
  -25.4910  -15.2860   20.0840 N   0  0  0  0  0  0  0  0  0  0  0  0
  -24.7420  -15.9580   20.2140 H   0  0  0  0  0  0  0  0  0  0  0  0
  -26.3420  -15.7080   19.7320 H   0  0  0  0  0  0  0  0  0  0  0  0
  -29.9910  -25.0180   20.4400 C   0  0  0  0  0  2  0  0  0  0  0  0
  -28.5310  -25.3980   20.1200 C   0  0  0  0  0  2  0  0  0  0  0  0
  -28.4650  -26.8170   20.2360 O   0  0  0  0  0  0  0  0  0  0  0  0
  -24.5720  -31.9050   23.2620 C   0  0  0  0  0  0  0  0  0  0  0  0
  -27.2470  -27.4600   20.2290 C   0  0  0  0  0  0  0  0  0  0  0  0
  -23.3730  -30.4910   21.6210 C   0  0  0  0  0  3  0  0  0  0  0  0
  -24.8340  -28.9350   20.2230 C   0  0  0  0  0  0  0  0  0  0  0  0
  -25.8970  -30.8520   21.4350 C   0  0  0  0  0  2  0  0  0  0  0  0
  -25.9840  -29.4770   20.8070 C   0  0  0  0  0  0  0  0  0  0  0  0
  -27.1900  -28.7490   20.8020 C   0  0  0  0  0  3  0  0  0  0  0  0
  -26.0770  -26.9130   19.6550 C   0  0  0  0  0  3  0  0  0  0  0  0
  -24.8740  -27.6520   19.6450 C   0  0  0  0  0  3  0  0  0  0  0  0
  -23.5900  -29.7950   20.2500 C   0  0  0  0  0  2  0  0  0  0  0  0
  -24.6320  -31.0970   22.1650 N   0  0  0  0  0  0  0  0  0  0  0  0
  -23.4890  -32.1850   23.7940 O   0  0  0  0  0  0  0  0  0  0  0  0
  -22.7150  -29.4820   22.5880 C   0  0  0  0  0  0  0  0  0  0  0  0
  -21.3930  -29.2930   22.4440 N   0  0  0  0  0  0  0  0  0  0  0  0
  -23.3880  -28.8690   23.4210 O   0  0  0  0  0  0  0  0  0  0  0  0
  -20.9110  -29.8380   21.7420 H   0  0  0  0  0  0  0  0  0  0  0  0
  -18.0190  -28.0850   22.8940 C   0  0  0  0  0  0  0  0  0  0  0  0
  -20.5690  -28.3630   23.2150 C   0  0  0  0  0  3  0  0  0  0  0  0
  -20.6930  -26.9240   22.6640 C   0  0  0  0  0  2  0  0  0  0  0  0
  -19.6140  -26.5770   21.6320 C   0  0  0  0  0  2  0  0  0  0  0  0
  -18.2180  -26.7240   22.2450 C   0  0  0  0  0  2  0  0  0  0  0  0
  -19.1240  -28.8600   23.3350 C   0  0  0  0  0  0  0  0  0  0  0  0
  -18.8850  -30.1320   23.8980 C   0  0  0  0  0  3  0  0  0  0  0  0
  -17.5750  -30.6280   24.0280 C   0  0  0  0  0  3  0  0  0  0  0  0
  -16.4840  -29.8500   23.6050 C   0  0  0  0  0  3  0  0  0  0  0  0
  -16.7070  -28.5790   23.0440 C   0  0  0  0  0  3  0  0  0  0  0  0
  -25.8580  -32.5360   23.8850 C   0  0  0  0  0  3  0  0  0  0  0  0
  -26.3710  -31.7680   25.1650 C   0  0  1  0  0  0  0  0  0  0  0  0
  -25.2750  -31.5340   26.2300 C   0  0  0  0  0  1  0  0  0  0  0  0
  -26.9520  -30.3890   24.7760 C   0  0  0  0  0  1  0  0  0  0  0  0
  -27.5220  -32.5620   25.8270 C   0  0  0  0  0  1  0  0  0  0  0  0
  -25.5530  -33.9350   24.2070 N   0  0  0  0  0  0  0  0  0  0  0  0
  -25.8930  -34.9820   23.4410 C   0  0  0  0  0  0  0  0  0  0  0  0
  -26.5680  -34.8710   22.4140 O   0  0  0  0  0  0  0  0  0  0  0  0
  -24.9570  -34.0980   25.0040 H   0  0  0  0  0  0  0  0  0  0  0  0
  -24.1680  -36.7710   23.0670 C   0  0  0  0  0  1  0  0  0  0  0  0
  -25.4050  -36.3740   23.8870 C   0  0  0  0  0  3  0  0  0  0  0  0
  -27.5380  -37.2580   24.7210 C   0  0  0  0  0  1  0  0  0  0  0  0
  -26.4400  -37.4250   23.7710 N   0  0  0  0  0  0  0  0  0  0  0  0
  -26.0350  -38.3460   23.9150 H   0  0  0  0  0  0  0  0  0  0  0  0
  1  3  1  0
  2  6  1  0
  2  1  2  0
  3  4  2  0
  3 11  1  0
  4  7  1  0
  5 53  1  0
  5  4  1  0
  6  5  2  0
  8  6  1  0
  9  8  1  0
 10  8  1  0
 11 12  1  0
 13 14  1  0
 13 12  1  0
 15 14  1  0
 16 15  1  0
 17 16  1  0
 18 23  1  0
 19 20  1  0
 19 18  1  0
 21 20  1  0
 21 28  1  0
 21 22  1  0
 23 17  1  0
 23 22  1  0
 24 17  2  0
 25 26  2  0
 26 45  1  0
 27 26  1  0
 27 30  1  0
 28 25  1  0
 28 29  1  0
 29 27  2  0
 30 31  1  0
 31 32  2  0
 33 36  1  0
 33 32  1  0
 34 33  2  0
 35 34  1  0
 35 30  2  0
 36 37  1  0
 37 38  1  0
 38 39  2  0
 40 39  1  0
 40 44  1  0
 41 40  2  0
 42 37  2  0
 42 41  1  0
 43 42  1  0
 45 46  1  0
 46 49  1  0
 46 48  1  0
 47 45  2  0
 50 51  1  0
 50 25  1  0
 52 50  1  0
 54 55  1  0
 54 53  1  0
 56 67  2  0
 57 55  1  0
 57 62  1  0
 58 66  1  0
 58 68  1  0
 59 65  1  0
 59 61  1  0
 60 66  1  0
 61 60  1  0
 62 61  2  0
 63 57  2  0
 64 63  1  0
 64 59  2  0
 65 58  1  0
 66 56  1  0
 68 70  2  0
 69 68  1  0
 71 69  1  0
 72 81  2  0
 72 77  1  0
 73 69  1  0
 73 77  1  0
 74 73  1  0
 75 76  1  0
 75 74  1  0
 76 72  1  0
 77 78  2  0
 78 79  1  0
 80 79  2  0
 81 80  1  0
 82 56  1  0
 82 87  1  0
 82 83  1  0
 83 86  1  1
 83 84  1  0
 85 83  1  0
 87 90  1  0
 88 92  1  0
 88 87  1  0
 89 88  2  0
 92 91  1  0
 94 92  1  0
 94 95  1  0
 94 93  1  0
M  ISO  4  16 100  17 100  54 101  55 101
M  END
>  <TORSDO>  (85) 
F 25

>  <SCORE>  (85) 
-10.490

>  <name>  (85) 
84

>  <ligand_id>  (85) 
84

>  <original_smiles>  (85) 
[H]c1c([H])c([H])c2c(c1[H])C([H])([H])C([H])([H])C([H])([H])C2([H])N([H])C(=O)C1([H])N(C(=O)C([H])(N([H])C(=O)C([H])(N([H])C([H])([H])[H])C([H])([H])[H])C(C([H])([H])[H])(C([H])([H])[H])C([H])([H])[H])C([H])([H])c2c([H])c(OC([H])([H])C([H])([H])c3c(N([H])[H])c([H])c([H])c(C([H])([H])C([H])([H])C([H])([H])C([H])([H])C([H])([H])C([H])([H])C(=O)N4C([H])([H])C([H])([H])C([H])([H])C([H])(n5nc(-c6c([H])c([H])c(Oc7c([H])c([H])c(F)c([H])c7F)c([H])c6[H])c(C(=O)N([H])[H])c5N([H])[H])C4([H])[H])c3C([H])([H])[H])c([H])c([H])c2C1([H])[H]

>  <smiles>  (85) 
[H]c1c([H])c([H])c2c(c1[H])C([H])([H])C([H])([H])C([H])([H])C2([H])N([H])C(=O)C1([H])N(C(=O)C([H])(N([H])C(=O)C([H])(N([H])C([H])([H])[H])C([H])([H])[H])C(C([H])([H])[H])(C([H])([H])[H])C([H])([H])[H])C([H])([H])c2c([H])c(OC([H])([H])C([H])([H])c3c(N([H])[H])c([H])c([H])c(C([H])([H])C([H])([H])C([H])([H])C([H])([H])C([H])([H])C([H])([H])C(=O)N4C([H])([H])C([H])([H])C([H])([H])C([H])(n5nc(-c6c([H])c([H])c(Oc7c([H])c([H])c(F)c([H])c7F)c([H])c6[H])c(C(=O)N([H])[H])c5N([H])[H])C4([H])[H])c3C([H])([H])[H])c([H])c([H])c2C1([H])[H]

$$$$
85:0:0
     RDKit          3D

 98107  0  0  1  0  0  0  0  0999 V2000
  -29.4140  -24.0740   23.2980 C   0  0  0  0  0  3  0  0  0  0  0  0
  -29.1680  -23.0160   22.5040 C   0  0  0  0  0  3  0  0  0  0  0  0
  -29.8710  -25.3990   22.8380 C   0  0  0  0  0  0  0  0  0  0  0  0
  -29.4090  -25.9810   21.4950 C   0  0  0  0  0  2  0  0  0  0  0  0
  -28.4360  -23.9380   20.1910 C   0  0  0  0  0  2  0  0  0  0  0  0
  -29.3970  -22.9510   21.0050 C   0  0  0  0  0  3  0  0  0  0  0  0
  -28.1390  -25.4030   20.7940 C   0  0  1  0  0  0  0  0  0  0  0  0
  -26.9150  -25.3410   21.7600 C   0  0  0  0  0  1  0  0  0  0  0  0
  -30.6180  -26.0890   23.5900 N   0  0  0  0  0  0  0  0  0  0  0  0
  -30.8480  -25.6070   24.4540 H   0  0  0  0  0  0  0  0  0  0  0  0
  -28.7590  -20.3810   20.7930 C   0  0  0  0  0  3  0  0  0  0  0  0
  -29.1300  -19.0150   20.5740 C   0  0  0  0  0  3  0  0  0  0  0  0
  -30.9200  -21.0970   20.0390 C   0  0  0  0  0  3  0  0  0  0  0  0
  -29.6520  -21.4630   20.5470 C   0  0  0  0  0  0  0  0  0  0  0  0
  -30.4170  -18.6530   20.0880 C   0  0  0  0  0  0  0  0  0  0  0  0
  -31.3000  -19.7440   19.8100 C   0  0  0  0  0  0  0  0  0  0  0  0
  -32.6960  -19.5140   19.2450 C   0  0  0  0  0  1  0  0  0  0  0  0
  -30.2450  -16.8700   18.2990 C   0  0  0  0  0  1  0  0  0  0  0  0
  -30.8190  -17.1760   19.6930 C   0  0  0  0  0  3  0  0  0  0  0  0
  -31.3060  -14.8250   20.4700 C   0  0  0  0  0  0  0  0  0  0  0  0
  -31.0360  -12.5960   19.4380 C   0  0  0  0  0  2  0  0  0  0  0  0
  -30.1500  -12.7510   18.1830 C   0  0  0  0  0  2  0  0  0  0  0  0
  -28.6590  -12.6440   18.5560 C   0  0  0  0  0  2  0  0  0  0  0  0
  -28.2780  -13.5140   19.7850 C   0  0  0  0  0  3  0  0  0  0  0  0
  -29.2930  -13.3580   20.9390 C   0  0  0  0  0  2  0  0  0  0  0  0
  -30.6290  -13.6390   20.4010 N   0  0  0  0  0  0  0  0  0  0  0  0
  -32.5000  -14.8860   20.1650 O   0  0  0  0  0  0  0  0  0  0  0  0
  -30.5610  -15.9740   20.5610 N   0  0  0  0  0  0  0  0  0  0  0  0
  -29.6150  -15.8580   20.8870 H   0  0  0  0  0  0  0  0  0  0  0  0
  -25.8700  -14.1500   20.4100 C   0  0  0  0  0  0  0  0  0  0  0  0
  -24.7810  -13.3940   20.7490 C   0  0  0  0  0  0  0  0  0  0  0  0
  -25.2260  -12.0370   20.7500 C   0  0  0  0  0  0  0  0  0  0  0  0
  -26.9110  -13.2540   20.2240 N   0  0  0  0  0  0  0  0  0  0  0  0
  -26.5260  -11.9790   20.4900 N   0  0  0  0  0  0  0  0  0  0  0  0
  -24.4760  -10.7860   20.9260 C   0  0  0  0  0  0  0  0  0  0  0  0
  -24.8010   -9.8680   21.9480 C   0  0  0  0  0  3  0  0  0  0  0  0
  -24.0550   -8.6810   22.1080 C   0  0  0  0  0  3  0  0  0  0  0  0
  -22.9680   -8.4040   21.2450 C   0  0  0  0  0  0  0  0  0  0  0  0
  -22.6630   -9.3090   20.2130 C   0  0  0  0  0  3  0  0  0  0  0  0
  -23.4100  -10.4890   20.0520 C   0  0  0  0  0  3  0  0  0  0  0  0
  -22.2010   -7.2660   21.3100 O   0  0  0  0  0  0  0  0  0  0  0  0
  -21.9390   -6.6420   22.5040 C   0  0  0  0  0  0  0  0  0  0  0  0
  -21.2550   -7.2950   23.5520 C   0  0  0  0  0  3  0  0  0  0  0  0
  -20.9460   -6.5940   24.7340 C   0  0  0  0  0  3  0  0  0  0  0  0
  -21.3110   -5.2410   24.8670 C   0  0  0  0  0  0  0  0  0  0  0  0
  -21.9860   -4.5870   23.8210 C   0  0  0  0  0  3  0  0  0  0  0  0
  -22.2960   -5.2850   22.6420 C   0  0  0  0  0  0  0  0  0  0  0  0
  -22.9290   -4.6450   21.6280 F   0  0  0  0  0  0  0  0  0  0  0  0
  -21.0080   -4.5650   26.0000 F   0  0  0  0  0  0  0  0  0  0  0  0
  -23.3800  -13.8920   20.9640 C   0  0  0  0  0  0  0  0  0  0  0  0
  -22.6180  -13.2220   21.8210 N   0  0  0  0  0  0  0  0  0  0  0  0
  -22.9720  -14.9110   20.4100 O   0  0  0  0  0  0  0  0  0  0  0  0
  -22.9630  -12.3980   22.2920 H   0  0  0  0  0  0  0  0  0  0  0  0
  -21.6760  -13.5370   22.0090 H   0  0  0  0  0  0  0  0  0  0  0  0
  -26.0580  -15.5160   20.2240 N   0  0  0  0  0  0  0  0  0  0  0  0
  -25.2910  -16.1760   20.2940 H   0  0  0  0  0  0  0  0  0  0  0  0
  -26.9150  -15.9410   19.8930 H   0  0  0  0  0  0  0  0  0  0  0  0
  -27.9180  -26.4650   19.7740 O   0  0  0  0  0  0  0  0  0  0  0  0
  -24.4460  -31.8410   23.1130 C   0  0  0  0  0  0  0  0  0  0  0  0
  -26.8250  -27.3350   19.8430 C   0  0  0  0  0  0  0  0  0  0  0  0
  -23.1390  -30.5070   21.4940 C   0  0  0  0  0  3  0  0  0  0  0  0
  -24.4930  -28.9660   19.9670 C   0  0  0  0  0  0  0  0  0  0  0  0
  -25.6690  -30.7910   21.2000 C   0  0  0  0  0  2  0  0  0  0  0  0
  -25.6950  -29.4270   20.5230 C   0  0  0  0  0  0  0  0  0  0  0  0
  -26.8670  -28.6230   20.4520 C   0  0  0  0  0  3  0  0  0  0  0  0
  -25.6120  -26.9190   19.2590 C   0  0  0  0  0  3  0  0  0  0  0  0
  -24.4530  -27.7160   19.3250 C   0  0  0  0  0  3  0  0  0  0  0  0
  -23.2770  -29.8590   20.0900 C   0  0  0  0  0  2  0  0  0  0  0  0
  -24.4390  -31.0620   21.9930 N   0  0  0  0  0  0  0  0  0  0  0  0
  -23.3950  -32.1260   23.7050 O   0  0  0  0  0  0  0  0  0  0  0  0
  -22.5000  -29.4810   22.4600 C   0  0  0  0  0  0  0  0  0  0  0  0
  -21.1720  -29.3000   22.3560 N   0  0  0  0  0  0  0  0  0  0  0  0
  -23.1950  -28.8510   23.2610 O   0  0  0  0  0  0  0  0  0  0  0  0
  -20.6720  -29.8600   21.6810 H   0  0  0  0  0  0  0  0  0  0  0  0
  -17.8140  -28.0630   22.8740 C   0  0  0  0  0  0  0  0  0  0  0  0
  -20.3700  -28.3550   23.1330 C   0  0  0  0  0  3  0  0  0  0  0  0
  -20.4880  -26.9240   22.5630 C   0  0  0  0  0  2  0  0  0  0  0  0
  -19.3870  -26.5830   21.5540 C   0  0  0  0  0  2  0  0  0  0  0  0
  -18.0040  -26.7130   22.2020 C   0  0  0  0  0  2  0  0  0  0  0  0
  -18.9260  -28.8400   23.2960 C   0  0  0  0  0  0  0  0  0  0  0  0
  -18.6940  -30.1020   23.8850 C   0  0  0  0  0  3  0  0  0  0  0  0
  -17.3830  -30.5890   24.0540 C   0  0  0  0  0  3  0  0  0  0  0  0
  -16.2870  -29.8080   23.6500 C   0  0  0  0  0  3  0  0  0  0  0  0
  -16.5030  -28.5470   23.0650 C   0  0  0  0  0  3  0  0  0  0  0  0
  -25.7700  -32.4290   23.6920 C   0  0  0  0  0  3  0  0  0  0  0  0
  -25.5050  -33.8210   24.0810 N   0  0  0  0  0  0  0  0  0  0  0  0
  -25.8620  -34.8940   23.3620 C   0  0  0  0  0  0  0  0  0  0  0  0
  -26.5210  -34.8140   22.3210 O   0  0  0  0  0  0  0  0  0  0  0  0
  -24.9190  -33.9600   24.8910 H   0  0  0  0  0  0  0  0  0  0  0  0
  -24.2030  -36.7640   23.0760 C   0  0  0  0  0  1  0  0  0  0  0  0
  -25.4190  -36.2770   23.8800 C   0  0  0  0  0  3  0  0  0  0  0  0
  -27.5700  -37.0460   24.7790 C   0  0  0  0  0  1  0  0  0  0  0  0
  -26.4890  -37.2960   23.8290 N   0  0  0  0  0  0  0  0  0  0  0  0
  -26.1130  -38.2210   24.0170 H   0  0  0  0  0  0  0  0  0  0  0  0
  -26.3320  -31.6070   24.9170 C   0  0  1  0  0  0  0  0  0  0  0  0
  -25.2850  -31.3560   26.0280 C   0  0  0  0  0  1  0  0  0  0  0  0
  -26.8690  -30.2330   24.4540 C   0  0  0  0  0  1  0  0  0  0  0  0
  -27.5280  -32.3600   25.5470 C   0  0  0  0  0  1  0  0  0  0  0  0
  2  1  2  0
  3  1  1  0
  3  9  2  0
  4  3  1  0
  5  7  1  0
  5  6  1  0
  6 14  1  0
  6  2  1  0
  7  4  1  0
  7  8  1  1
  9 10  1  0
 12 11  1  0
 13 14  1  0
 14 11  2  0
 15 12  2  0
 16 13  2  0
 16 15  1  0
 17 16  1  0
 19 18  1  0
 19 15  1  0
 19 28  1  0
 20 28  1  0
 21 26  1  0
 22 23  1  0
 22 21  1  0
 24 23  1  0
 24 33  1  0
 24 25  1  0
 26 20  1  0
 26 25  1  0
 27 20  2  0
 28 29  1  0
 30 31  2  0
 31 32  1  0
 31 50  1  0
 32 35  1  0
 33 30  1  0
 33 34  1  0
 34 32  2  0
 35 36  1  0
 36 37  2  0
 38 41  1  0
 38 37  1  0
 39 38  2  0
 40 39  1  0
 40 35  2  0
 41 42  1  0
 42 47  2  0
 42 43  1  0
 43 44  2  0
 44 45  1  0
 45 49  1  0
 46 45  2  0
 47 46  1  0
 48 47  1  0
 50 51  1  0
 51 54  1  0
 51 53  1  0
 52 50  2  0
 55 56  1  0
 55 30  1  0
 57 55  1  0
 58 60  1  0
 58  7  1  0
 59 70  2  0
 60 65  1  0
 61 69  1  0
 61 71  1  0
 62 68  1  0
 62 64  1  0
 63 69  1  0
 64 63  1  0
 65 64  2  0
 66 67  1  0
 66 60  2  0
 67 62  2  0
 68 61  1  0
 69 59  1  0
 71 73  2  0
 72 71  1  0
 74 72  1  0
 75 84  2  0
 75 80  1  0
 76 72  1  0
 76 80  1  0
 77 76  1  0
 78 79  1  0
 78 77  1  0
 79 75  1  0
 80 81  2  0
 81 82  1  0
 83 82  2  0
 84 83  1  0
 85 59  1  0
 85 86  1  0
 85 95  1  0
 86 89  1  0
 87 91  1  0
 87 86  1  0
 88 87  2  0
 91 90  1  0
 93 91  1  0
 93 94  1  0
 93 92  1  0
 95 98  1  1
 95 96  1  0
 97 95  1  0
M  ISO  4   7 101  20 100  28 100  58 101
M  END
>  <TORSDO>  (86) 
F 18

>  <SCORE>  (86) 
-13.281

>  <name>  (86) 
85

>  <ligand_id>  (86) 
85

>  <original_smiles>  (86) 
[H]N=C1C([H])=C([H])C([H])(c2c([H])c([H])c(C([H])(N([H])C(=O)N3C([H])([H])C([H])([H])C([H])([H])C([H])(n4nc(-c5c([H])c([H])c(Oc6c([H])c([H])c(F)c([H])c6F)c([H])c5[H])c(C(=O)N([H])[H])c4N([H])[H])C3([H])[H])C([H])([H])[H])c(C([H])([H])[H])c2[H])C([H])([H])C(Oc2c([H])c([H])c3c(c2[H])C([H])([H])N(C(=O)C([H])(N([H])C(=O)C([H])(N([H])C([H])([H])[H])C([H])([H])[H])C(C([H])([H])[H])(C([H])([H])[H])C([H])([H])[H])C([H])(C(=O)N([H])C2([H])c4c([H])c([H])c([H])c([H])c4C([H])([H])C([H])([H])C2([H])[H])C3([H])[H])(C([H])([H])[H])C1([H])[H]

>  <smiles>  (86) 
[H]N=C1C([H])=C([H])C([H])(c2c([H])c([H])c(C([H])(N([H])C(=O)N3C([H])([H])C([H])([H])C([H])([H])C([H])(n4nc(-c5c([H])c([H])c(Oc6c([H])c([H])c(F)c([H])c6F)c([H])c5[H])c(C(=O)N([H])[H])c4N([H])[H])C3([H])[H])C([H])([H])[H])c(C([H])([H])[H])c2[H])C([H])([H])C(Oc2c([H])c([H])c3c(c2[H])C([H])([H])N(C(=O)C([H])(N([H])C(=O)C([H])(N([H])C([H])([H])[H])C([H])([H])[H])C(C([H])([H])[H])(C([H])([H])[H])C([H])([H])[H])C([H])(C(=O)N([H])C2([H])c4c([H])c([H])c([H])c([H])c4C([H])([H])C([H])([H])C2([H])[H])C3([H])[H])(C([H])([H])[H])C1([H])[H]

$$$$
86:0:0
     RDKit          3D

 91100  0  0  1  0  0  0  0  0999 V2000
  -29.2450  -22.6750   21.4280 C   0  0  0  0  0  2  0  0  0  0  0  0
  -28.1130  -23.0050   22.2110 C   0  0  0  0  0  2  0  0  0  0  0  0
  -28.9810  -22.4960   20.0570 C   0  0  0  0  0  3  0  0  0  0  0  0
  -26.8820  -23.2980   21.5670 C   0  0  0  0  0  0  0  0  0  0  0  0
  -26.8880  -23.6400   20.1930 C   0  0  0  0  0  0  0  0  0  0  0  0
  -28.1540  -23.8730   19.6110 C   0  0  0  0  0  3  0  0  0  0  0  0
  -25.5830  -23.1930   22.3480 C   0  0  0  0  0  1  0  0  0  0  0  0
  -25.5900  -23.7920   19.4150 C   0  0  0  0  0  1  0  0  0  0  0  0
  -30.5630  -15.9300   20.2600 C   0  0  0  0  0  0  0  0  0  0  0  0
  -30.7760  -13.3290   19.6090 C   0  0  0  0  0  2  0  0  0  0  0  0
  -29.9490  -12.7680   18.4150 C   0  0  0  0  0  2  0  0  0  0  0  0
  -28.5240  -12.3920   18.8550 C   0  0  0  0  0  2  0  0  0  0  0  0
  -27.9350  -13.4500   19.8120 C   0  0  0  0  0  3  0  0  0  0  0  0
  -28.9130  -13.9200   20.9140 C   0  0  0  0  0  2  0  0  0  0  0  0
  -30.0680  -14.5460   20.2250 N   0  0  0  0  0  0  0  0  0  0  0  0
  -31.8090  -15.8570   20.3160 O   0  0  0  0  0  0  0  0  0  0  0  0
  -27.8210  -18.5360   18.7920 C   0  0  0  0  0  2  0  0  0  0  0  0
  -28.3220  -20.0240   18.6060 C   0  0  0  0  0  2  0  0  0  0  0  0
  -28.8400  -17.3270   18.9310 C   0  0  0  0  0  2  0  0  0  0  0  0
  -29.9800  -19.0550   20.3310 C   0  0  0  0  0  2  0  0  0  0  0  0
  -28.9210  -20.6000   19.9020 C   0  0  0  0  0  3  0  0  0  0  0  0
  -29.8050  -17.3140   20.0660 N   0  0  0  0  0  0  0  0  0  0  0  0
  -25.5760  -13.9770   20.5740 C   0  0  0  0  0  0  0  0  0  0  0  0
  -24.5030  -13.1930   20.8960 C   0  0  0  0  0  0  0  0  0  0  0  0
  -24.9690  -11.8420   20.8320 C   0  0  0  0  0  0  0  0  0  0  0  0
  -26.6160  -13.1040   20.3170 N   0  0  0  0  0  0  0  0  0  0  0  0
  -26.2660  -11.8110   20.5430 N   0  0  0  0  0  0  0  0  0  0  0  0
  -24.2310  -10.5790   20.9680 C   0  0  0  0  0  0  0  0  0  0  0  0
  -24.5980   -9.6070   21.9260 C   0  0  0  0  0  3  0  0  0  0  0  0
  -23.8570   -8.4110   22.0530 C   0  0  0  0  0  3  0  0  0  0  0  0
  -22.7360   -8.1790   21.2210 C   0  0  0  0  0  0  0  0  0  0  0  0
  -22.3910   -9.1370   20.2520 C   0  0  0  0  0  3  0  0  0  0  0  0
  -23.1340  -10.3240   20.1230 C   0  0  0  0  0  3  0  0  0  0  0  0
  -21.9730   -7.0380   21.2570 O   0  0  0  0  0  0  0  0  0  0  0  0
  -21.7790   -6.3390   22.4200 C   0  0  0  0  0  0  0  0  0  0  0  0
  -21.1860   -6.9330   23.5570 C   0  0  0  0  0  3  0  0  0  0  0  0
  -20.9390   -6.1590   24.7090 C   0  0  0  0  0  3  0  0  0  0  0  0
  -21.2760   -4.7910   24.7240 C   0  0  0  0  0  0  0  0  0  0  0  0
  -21.8620   -4.1980   23.5920 C   0  0  0  0  0  3  0  0  0  0  0  0
  -22.1080   -4.9680   22.4430 C   0  0  0  0  0  0  0  0  0  0  0  0
  -22.6530   -4.3860   21.3490 F   0  0  0  0  0  0  0  0  0  0  0  0
  -21.0330   -4.0460   25.8260 F   0  0  0  0  0  0  0  0  0  0  0  0
  -23.1030  -13.6650   21.1400 C   0  0  0  0  0  0  0  0  0  0  0  0
  -22.3570  -12.9560   21.9800 N   0  0  0  0  0  0  0  0  0  0  0  0
  -22.6770  -14.7010   20.6280 O   0  0  0  0  0  0  0  0  0  0  0  0
  -22.7170  -12.1210   22.4200 H   0  0  0  0  0  0  0  0  0  0  0  0
  -21.4120  -13.2470   22.1840 H   0  0  0  0  0  0  0  0  0  0  0  0
  -25.7470  -15.3520   20.4420 N   0  0  0  0  0  0  0  0  0  0  0  0
  -24.9860  -16.0110   20.5590 H   0  0  0  0  0  0  0  0  0  0  0  0
  -26.6180  -15.7980   20.1910 H   0  0  0  0  0  0  0  0  0  0  0  0
  -28.3600  -25.5060   19.5320 O   0  0  0  0  0  0  0  0  0  0  0  0
  -25.1250  -31.6800   23.2030 C   0  0  0  0  0  0  0  0  0  0  0  0
  -27.4580  -26.7960   19.6710 C   0  0  0  0  0  0  0  0  0  0  0  0
  -23.8910  -30.4940   21.4370 C   0  0  0  0  0  3  0  0  0  0  0  0
  -25.2810  -28.9520   19.8550 C   0  0  0  0  0  0  0  0  0  0  0  0
  -26.4710  -30.5430   21.3230 C   0  0  0  0  0  2  0  0  0  0  0  0
  -26.4870  -29.1750   20.5290 C   0  0  0  0  0  0  0  0  0  0  0  0
  -27.5570  -28.1250   20.4180 C   0  0  0  0  0  3  0  0  0  0  0  0
  -26.2510  -26.8470   18.9280 C   0  0  0  0  0  3  0  0  0  0  0  0
  -25.2090  -27.8150   19.0360 C   0  0  0  0  0  3  0  0  0  0  0  0
  -24.1080  -29.9340   20.0010 C   0  0  0  0  0  2  0  0  0  0  0  0
  -25.1890  -30.9340   22.0440 N   0  0  0  0  0  0  0  0  0  0  0  0
  -24.0410  -31.9580   23.7450 O   0  0  0  0  0  0  0  0  0  0  0  0
  -23.1450  -29.4450   22.3050 C   0  0  0  0  0  0  0  0  0  0  0  0
  -21.8080  -29.3400   22.1690 N   0  0  0  0  0  0  0  0  0  0  0  0
  -23.7810  -28.7240   23.0770 O   0  0  0  0  0  0  0  0  0  0  0  0
  -21.3430  -29.9690   21.5280 H   0  0  0  0  0  0  0  0  0  0  0  0
  -18.3820  -28.2200   22.6440 C   0  0  0  0  0  0  0  0  0  0  0  0
  -20.9590  -28.3550   22.8530 C   0  0  0  0  0  3  0  0  0  0  0  0
  -20.9830  -27.0010   22.1080 C   0  0  0  0  0  2  0  0  0  0  0  0
  -19.8420  -26.8500   21.0970 C   0  0  0  0  0  2  0  0  0  0  0  0
  -18.4850  -26.9630   21.7950 C   0  0  0  0  0  2  0  0  0  0  0  0
  -19.5440  -28.8820   23.1270 C   0  0  0  0  0  0  0  0  0  0  0  0
  -19.3870  -30.0590   23.8910 C   0  0  0  0  0  3  0  0  0  0  0  0
  -18.1060  -30.5800   24.1630 C   0  0  0  0  0  3  0  0  0  0  0  0
  -16.9620  -29.9180   23.6850 C   0  0  0  0  0  3  0  0  0  0  0  0
  -17.1020  -28.7360   22.9350 C   0  0  0  0  0  3  0  0  0  0  0  0
  -26.4020  -32.2300   23.9060 C   0  0  0  0  0  3  0  0  0  0  0  0
  -26.0950  -33.5660   24.4620 N   0  0  0  0  0  0  0  0  0  0  0  0
  -26.4080  -34.7320   23.8800 C   0  0  0  0  0  0  0  0  0  0  0  0
  -27.0430  -34.7950   22.8270 O   0  0  0  0  0  0  0  0  0  0  0  0
  -25.5380  -33.5870   25.3040 H   0  0  0  0  0  0  0  0  0  0  0  0
  -24.6760  -36.5570   23.8860 C   0  0  0  0  0  1  0  0  0  0  0  0
  -25.9460  -36.0340   24.5760 C   0  0  0  0  0  3  0  0  0  0  0  0
  -28.1140  -36.7780   25.4620 C   0  0  0  0  0  1  0  0  0  0  0  0
  -26.9810  -37.0950   24.5940 N   0  0  0  0  0  0  0  0  0  0  0  0
  -26.5870  -37.9840   24.8960 H   0  0  0  0  0  0  0  0  0  0  0  0
  -26.9210  -31.2850   25.0600 C   0  0  1  0  0  0  0  0  0  0  0  0
  -25.8380  -30.9170   26.1040 C   0  0  0  0  0  1  0  0  0  0  0  0
  -27.4770  -29.9670   24.4830 C   0  0  0  0  0  1  0  0  0  0  0  0
  -28.0940  -31.9590   25.8100 C   0  0  0  0  0  1  0  0  0  0  0  0
  1  2  1  0
  3  1  1  0
  4  2  1  0
  4  7  1  0
  5  4  2  0
  6 51  1  0
  6  3  1  0
  6  5  1  0
  8  5  1  0
  9 16  2  0
 10 15  1  0
 11 12  1  0
 11 10  1  0
 13 12  1  0
 13 26  1  0
 13 14  1  0
 15  9  1  0
 15 14  1  0
 17 19  1  0
 18 17  1  0
 19 22  1  0
 21 18  1  0
 21  3  1  0
 21 20  1  0
 22  9  1  0
 22 20  1  0
 23 24  2  0
 24 43  1  0
 25 24  1  0
 25 28  1  0
 26 27  1  0
 26 23  1  0
 27 25  2  0
 28 29  1  0
 29 30  2  0
 31 34  1  0
 31 30  1  0
 32 31  2  0
 33 32  1  0
 33 28  2  0
 34 35  1  0
 35 40  2  0
 35 36  1  0
 36 37  2  0
 37 38  1  0
 38 42  1  0
 39 38  2  0
 40 39  1  0
 41 40  1  0
 43 44  1  0
 44 47  1  0
 44 46  1  0
 45 43  2  0
 48 49  1  0
 48 23  1  0
 50 48  1  0
 51 53  1  0
 52 63  2  0
 53 58  1  0
 54 62  1  0
 54 64  1  0
 55 61  1  0
 55 57  1  0
 56 62  1  0
 57 56  1  0
 58 57  2  0
 59 60  1  0
 59 53  2  0
 60 55  2  0
 61 54  1  0
 62 52  1  0
 64 66  2  0
 65 64  1  0
 67 65  1  0
 68 77  2  0
 68 73  1  0
 69 65  1  0
 69 73  1  0
 70 69  1  0
 71 72  1  0
 71 70  1  0
 72 68  1  0
 73 74  2  0
 74 75  1  0
 76 75  2  0
 77 76  1  0
 78 52  1  0
 78 79  1  0
 78 88  1  0
 79 82  1  0
 80 79  1  0
 80 84  1  0
 81 80  2  0
 84 83  1  0
 84 86  1  0
 86 87  1  0
 86 85  1  0
 88 91  1  1
 88 89  1  0
 90 88  1  0
M  ISO  4   6 101   9 100  22 100  51 101
M  END
>  <TORSDO>  (87) 
F 16

>  <SCORE>  (87) 
-13.992

>  <name>  (87) 
86

>  <ligand_id>  (87) 
86

>  <original_smiles>  (87) 
[H]c1c([H])c([H])c2c(c1[H])C([H])([H])C([H])([H])C([H])([H])C2([H])N([H])C(=O)C1([H])N(C(=O)C([H])(N([H])C(=O)C([H])(N([H])C([H])([H])[H])C([H])([H])[H])C(C([H])([H])[H])(C([H])([H])[H])C([H])([H])[H])C([H])([H])c2c([H])c(Oc3c(C([H])([H])[H])c(C([H])([H])[H])c([H])c([H])c3C3([H])C([H])([H])N(C(=O)N4C([H])([H])C([H])([H])C([H])([H])C([H])(n5nc(-c6c([H])c([H])c(Oc7c([H])c([H])c(F)c([H])c7F)c([H])c6[H])c(C(=O)N([H])[H])c5N([H])[H])C4([H])[H])C([H])([H])C([H])([H])C3([H])[H])c([H])c([H])c2C1([H])[H]

>  <smiles>  (87) 
[H]c1c([H])c([H])c2c(c1[H])C([H])([H])C([H])([H])C([H])([H])C2([H])N([H])C(=O)C1([H])N(C(=O)C([H])(N([H])C(=O)C([H])(N([H])C([H])([H])[H])C([H])([H])[H])C(C([H])([H])[H])(C([H])([H])[H])C([H])([H])[H])C([H])([H])c2c([H])c(Oc3c(C([H])([H])[H])c(C([H])([H])[H])c([H])c([H])c3C3([H])C([H])([H])N(C(=O)N4C([H])([H])C([H])([H])C([H])([H])C([H])(n5nc(-c6c([H])c([H])c(Oc7c([H])c([H])c(F)c([H])c7F)c([H])c6[H])c(C(=O)N([H])[H])c5N([H])[H])C4([H])[H])C([H])([H])C([H])([H])C3([H])[H])c([H])c([H])c2C1([H])[H]

$$$$
87:0:0
     RDKit          3D

102112  0  0  1  0  0  0  0  0999 V2000
  -28.6790  -23.5150   22.5960 C   0  0  0  0  0  3  0  0  0  0  0  0
  -26.5910  -24.7920   21.2180 C   0  0  0  0  0  3  0  0  0  0  0  0
  -27.3560  -23.0780   22.7430 C   0  0  0  0  0  0  0  0  0  0  0  0
  -26.3420  -23.6650   22.0150 C   0  0  0  0  0  0  0  0  0  0  0  0
  -28.9750  -24.5420   21.6520 C   0  0  0  0  0  0  0  0  0  0  0  0
  -27.9220  -25.2970   21.0280 C   0  0  0  0  0  0  0  0  0  0  0  0
  -26.8600  -21.9220   23.5740 C   0  0  0  0  0  2  0  0  0  0  0  0
  -24.0360  -20.8500   21.4200 C   0  0  0  0  0  2  0  0  0  0  0  0
  -24.6420  -22.1540   20.9090 C   0  0  0  0  0  2  0  0  0  0  0  0
  -25.3430  -21.8280   23.2380 C   0  0  0  0  0  3  0  0  0  0  0  0
  -24.9080  -20.4750   22.6200 C   0  0  0  0  0  3  0  0  0  0  0  0
  -25.0260  -22.9330   22.1810 C   0  0  1  0  0  0  0  0  0  0  0  0
  -24.1890  -19.5290   23.5940 C   0  0  0  0  0  1  0  0  0  0  0  0
  -23.8780  -23.8670   22.6200 C   0  0  0  0  0  1  0  0  0  0  0  0
  -31.0990  -25.7220   22.2870 C   0  0  0  0  0  1  0  0  0  0  0  0
  -30.4460  -24.7530   21.2880 C   0  0  0  0  0  3  0  0  0  0  0  0
  -31.2200  -23.4680   21.2090 N   0  0  0  0  0  4  0  0  0  0  0  0
  -32.1240  -23.6820   20.8170 H   0  0  0  0  0  0  0  0  0  0  0  0
  -31.3870  -23.1510   22.1480 H   0  0  0  0  0  0  0  0  0  0  0  0
  -30.6660  -22.3270   20.4170 C   0  0  0  0  0  2  0  0  0  0  0  0
  -30.7150  -20.9670   21.1950 C   0  0  0  0  0  2  0  0  0  0  0  0
  -30.2580  -19.7060   20.4030 C   0  0  0  0  0  2  0  0  0  0  0  0
  -30.1720  -18.4010   21.2530 C   0  0  0  0  0  2  0  0  0  0  0  0
  -30.1470  -17.0880   20.4110 C   0  0  0  0  0  2  0  0  0  0  0  0
  -29.9790  -15.7520   21.2130 C   0  0  0  0  0  2  0  0  0  0  0  0
  -30.6790  -14.5090   20.5800 C   0  0  0  0  0  0  0  0  0  0  0  0
  -30.4340  -12.3300   19.4330 C   0  0  0  0  0  2  0  0  0  0  0  0
  -29.5020  -12.5130   18.2160 C   0  0  0  0  0  2  0  0  0  0  0  0
  -28.0210  -12.3670   18.6240 C   0  0  0  0  0  2  0  0  0  0  0  0
  -27.6630  -13.2080   19.8790 C   0  0  0  0  0  3  0  0  0  0  0  0
  -28.7080  -12.9900   20.9970 C   0  0  0  0  0  2  0  0  0  0  0  0
  -30.0310  -13.3160   20.4500 N   0  0  0  0  0  0  0  0  0  0  0  0
  -31.8120  -14.6700   20.1170 O   0  0  0  0  0  0  0  0  0  0  0  0
  -25.2610  -13.8160   20.5690 C   0  0  0  0  0  0  0  0  0  0  0  0
  -24.1850  -13.0430   20.9160 C   0  0  0  0  0  0  0  0  0  0  0  0
  -24.6410  -11.6900   20.8730 C   0  0  0  0  0  0  0  0  0  0  0  0
  -26.3040  -12.9330   20.3390 N   0  0  0  0  0  0  0  0  0  0  0  0
  -25.9340  -11.6480   20.5780 N   0  0  0  0  0  0  0  0  0  0  0  0
  -23.9080  -10.4280   21.0400 C   0  0  0  0  0  0  0  0  0  0  0  0
  -24.3620   -9.4210   21.9190 C   0  0  0  0  0  3  0  0  0  0  0  0
  -23.6300   -8.2250   22.0770 C   0  0  0  0  0  3  0  0  0  0  0  0
  -22.4280   -8.0280   21.3550 C   0  0  0  0  0  0  0  0  0  0  0  0
  -21.9910   -9.0250   20.4660 C   0  0  0  0  0  3  0  0  0  0  0  0
  -22.7240  -10.2130   20.3060 C   0  0  0  0  0  3  0  0  0  0  0  0
  -21.6640   -6.8890   21.4250 O   0  0  0  0  0  0  0  0  0  0  0  0
  -21.6840   -6.0740   22.5280 C   0  0  0  0  0  0  0  0  0  0  0  0
  -21.4020   -6.5650   23.8210 C   0  0  0  0  0  3  0  0  0  0  0  0
  -21.3660   -5.6800   24.9170 C   0  0  0  0  0  3  0  0  0  0  0  0
  -21.6030   -4.3060   24.7220 C   0  0  0  0  0  0  0  0  0  0  0  0
  -21.8830   -3.8150   23.4340 C   0  0  0  0  0  3  0  0  0  0  0  0
  -21.9200   -4.6970   22.3400 C   0  0  0  0  0  0  0  0  0  0  0  0
  -22.1660   -4.2160   21.0980 F   0  0  0  0  0  0  0  0  0  0  0  0
  -21.5620   -3.4540   25.7730 F   0  0  0  0  0  0  0  0  0  0  0  0
  -22.7870  -13.5240   21.1810 C   0  0  0  0  0  0  0  0  0  0  0  0
  -22.0500  -12.8230   22.0370 N   0  0  0  0  0  0  0  0  0  0  0  0
  -22.3550  -14.5530   20.6640 O   0  0  0  0  0  0  0  0  0  0  0  0
  -22.4090  -11.9860   22.4720 H   0  0  0  0  0  0  0  0  0  0  0  0
  -21.1130  -13.1290   22.2590 H   0  0  0  0  0  0  0  0  0  0  0  0
  -25.4320  -15.1880   20.4130 N   0  0  0  0  0  0  0  0  0  0  0  0
  -24.6670  -15.8430   20.5330 H   0  0  0  0  0  0  0  0  0  0  0  0
  -26.2900  -15.6330   20.1120 H   0  0  0  0  0  0  0  0  0  0  0  0
  -28.2060  -26.4570   20.2640 O   0  0  0  0  0  0  0  0  0  0  0  0
  -24.6170  -31.8720   23.2090 C   0  0  0  0  0  0  0  0  0  0  0  0
  -27.1940  -27.3900   20.1080 C   0  0  0  0  0  0  0  0  0  0  0  0
  -23.4100  -30.4960   21.5540 C   0  0  0  0  0  3  0  0  0  0  0  0
  -24.8590  -28.9840   20.0880 C   0  0  0  0  0  0  0  0  0  0  0  0
  -25.9430  -30.8180   21.3820 C   0  0  0  0  0  2  0  0  0  0  0  0
  -26.0150  -29.4530   20.7240 C   0  0  0  0  0  0  0  0  0  0  0  0
  -27.1850  -28.6500   20.7620 C   0  0  0  0  0  3  0  0  0  0  0  0
  -26.0700  -27.0280   19.3350 C   0  0  0  0  0  3  0  0  0  0  0  0
  -24.8840  -27.7650   19.3900 C   0  0  0  0  0  3  0  0  0  0  0  0
  -23.6220  -29.8490   20.1600 C   0  0  0  0  0  2  0  0  0  0  0  0
  -24.6750  -31.0730   22.1100 N   0  0  0  0  0  0  0  0  0  0  0  0
  -23.5370  -32.1530   23.7450 O   0  0  0  0  0  0  0  0  0  0  0  0
  -22.7450  -29.4660   22.4960 C   0  0  0  0  0  0  0  0  0  0  0  0
  -21.4160  -29.3070   22.3670 N   0  0  0  0  0  0  0  0  0  0  0  0
  -23.4160  -28.8170   23.3000 O   0  0  0  0  0  0  0  0  0  0  0  0
  -20.9370  -29.8770   21.6860 H   0  0  0  0  0  0  0  0  0  0  0  0
  -18.0290  -28.1400   22.8480 C   0  0  0  0  0  0  0  0  0  0  0  0
  -20.5870  -28.3720   23.1250 C   0  0  0  0  0  3  0  0  0  0  0  0
  -20.6760  -26.9420   22.5400 C   0  0  0  0  0  2  0  0  0  0  0  0
  -19.5750  -26.6420   21.5190 C   0  0  0  0  0  2  0  0  0  0  0  0
  -18.1930  -26.7960   22.1590 C   0  0  0  0  0  2  0  0  0  0  0  0
  -19.1530  -28.8870   23.2900 C   0  0  0  0  0  0  0  0  0  0  0  0
  -18.9470  -30.1460   23.8970 C   0  0  0  0  0  3  0  0  0  0  0  0
  -17.6470  -30.6630   24.0540 C   0  0  0  0  0  3  0  0  0  0  0  0
  -16.5370  -29.9100   23.6310 C   0  0  0  0  0  3  0  0  0  0  0  0
  -16.7280  -28.6490   23.0370 C   0  0  0  0  0  3  0  0  0  0  0  0
  -25.9080  -32.4860   23.8400 C   0  0  0  0  0  3  0  0  0  0  0  0
  -25.5930  -33.8650   24.2340 N   0  0  0  0  0  0  0  0  0  0  0  0
  -25.9010  -34.9500   23.5120 C   0  0  0  0  0  0  0  0  0  0  0  0
  -26.5560  -34.8930   22.4670 O   0  0  0  0  0  0  0  0  0  0  0  0
  -25.0140  -33.9830   25.0510 H   0  0  0  0  0  0  0  0  0  0  0  0
  -24.1430  -36.7320   23.2610 C   0  0  0  0  0  1  0  0  0  0  0  0
  -25.4060  -36.3130   24.0330 C   0  0  0  0  0  3  0  0  0  0  0  0
  -27.5550  -37.1780   24.8470 C   0  0  0  0  0  1  0  0  0  0  0  0
  -26.4250  -37.3790   23.9430 N   0  0  0  0  0  0  0  0  0  0  0  0
  -26.0150  -38.2830   24.1540 H   0  0  0  0  0  0  0  0  0  0  0  0
  -26.4510  -31.6600   25.0700 C   0  0  1  0  0  0  0  0  0  0  0  0
  -25.3780  -31.3690   26.1430 C   0  0  0  0  0  1  0  0  0  0  0  0
  -27.0300  -30.2990   24.6110 C   0  0  0  0  0  1  0  0  0  0  0  0
  -27.6130  -32.4240   25.7480 C   0  0  0  0  0  1  0  0  0  0  0  0
  1  3  1  0
  2  4  1  0
  3  7  1  0
  4 12  1  0
  4  3  2  0
  5  1  2  0
  6  2  2  0
  6  5  1  0
  8 11  1  0
  9  8  1  0
  9 12  1  0
 10  7  1  0
 11 10  1  0
 11 13  1  0
 12 14  1  1
 12 10  1  0
 16  5  1  0
 16 15  1  0
 17 16  1  0
 17 19  1  0
 18 17  1  0
 20 21  1  0
 20 17  1  0
 22 21  1  0
 22 23  1  0
 24 25  1  0
 24 23  1  0
 26 25  1  0
 27 32  1  0
 28 29  1  0
 28 27  1  0
 30 29  1  0
 30 37  1  0
 30 31  1  0
 32 26  1  0
 32 31  1  0
 33 26  2  0
 34 35  2  0
 35 54  1  0
 36 35  1  0
 36 39  1  0
 37 34  1  0
 37 38  1  0
 38 36  2  0
 39 40  1  0
 40 41  2  0
 42 45  1  0
 42 41  1  0
 43 42  2  0
 44 43  1  0
 44 39  2  0
 45 46  1  0
 46 47  1  0
 47 48  2  0
 49 48  1  0
 49 53  1  0
 50 49  2  0
 51 46  2  0
 51 50  1  0
 52 51  1  0
 54 55  1  0
 55 58  1  0
 55 57  1  0
 56 54  2  0
 59 60  1  0
 59 34  1  0
 61 59  1  0
 62  6  1  0
 63 74  2  0
 64 62  1  0
 64 69  1  0
 65 73  1  0
 65 75  1  0
 66 72  1  0
 66 68  1  0
 67 73  1  0
 68 69  2  0
 68 67  1  0
 70 71  1  0
 70 64  2  0
 71 66  2  0
 72 65  1  0
 73 63  1  0
 75 77  2  0
 76 75  1  0
 78 76  1  0
 79 88  2  0
 79 84  1  0
 80 76  1  0
 80 84  1  0
 81 80  1  0
 82 83  1  0
 82 81  1  0
 83 79  1  0
 84 85  2  0
 85 86  1  0
 87 86  2  0
 88 87  1  0
 89 63  1  0
 89 90  1  0
 89 99  1  0
 90 93  1  0
 91 95  1  0
 91 90  1  0
 92 91  2  0
 95 94  1  0
 97 95  1  0
 97 98  1  0
 97 96  1  0
 99102  1  1
 99100  1  0
101 99  1  0
M  ISO  4   6 101  25 100  26 100  62 101
M  END
>  <TORSDO>  (88) 
F 24

>  <SCORE>  (88) 
30.490

>  <name>  (88) 
87

>  <ligand_id>  (88) 
87

>  <original_smiles>  (88) 
[H]c1c([H])c([H])c2c(c1[H])C([H])([H])C([H])([H])C([H])([H])C2([H])N([H])C(=O)C1([H])N(C(=O)C([H])(N([H])C(=O)C([H])(N([H])C([H])([H])[H])C([H])([H])[H])C(C([H])([H])[H])(C([H])([H])[H])C([H])([H])[H])C([H])([H])c2c([H])c(Oc3c([H])c4c(c([H])c3C([H])(C([H])([H])[H])[N+]([H])([H])C([H])([H])C([H])([H])C([H])([H])C([H])([H])C([H])([H])C([H])([H])C(=O)N3C([H])([H])C([H])([H])C([H])([H])C([H])(n5nc(-c6c([H])c([H])c(Oc7c([H])c([H])c(F)c([H])c7F)c([H])c6[H])c(C(=O)N([H])[H])c5N([H])[H])C3([H])[H])C([H])([H])C3([H])C([H])(C([H])([H])[H])C([H])([H])C([H])([H])C43C([H])([H])[H])c([H])c([H])c2C1([H])[H]

>  <smiles>  (88) 
[H]c1c([H])c([H])c2c(c1[H])C([H])([H])C([H])([H])C([H])([H])C2([H])N([H])C(=O)C1([H])N(C(=O)C([H])(N([H])C(=O)C([H])(N([H])C([H])([H])[H])C([H])([H])[H])C(C([H])([H])[H])(C([H])([H])[H])C([H])([H])[H])C([H])([H])c2c([H])c(Oc3c([H])c4c(c([H])c3C([H])(C([H])([H])[H])[N+]([H])([H])C([H])([H])C([H])([H])C([H])([H])C([H])([H])C([H])([H])C([H])([H])C(=O)N3C([H])([H])C([H])([H])C([H])([H])C([H])(n5nc(-c6c([H])c([H])c(Oc7c([H])c([H])c(F)c([H])c7F)c([H])c6[H])c(C(=O)N([H])[H])c5N([H])[H])C3([H])[H])C([H])([H])C3([H])C([H])(C([H])([H])[H])C([H])([H])C([H])([H])C43C([H])([H])[H])c([H])c([H])c2C1([H])[H]

$$$$
88:0:0
     RDKit          3D

 93102  0  0  1  0  0  0  0  0999 V2000
  -28.7150  -23.9310   23.5200 C   0  0  0  0  0  3  0  0  0  0  0  0
  -28.9610  -23.2790   22.3070 C   0  0  0  0  0  3  0  0  0  0  0  0
  -28.3610  -25.9750   22.3020 C   0  0  0  0  0  3  0  0  0  0  0  0
  -28.4140  -25.2890   23.5210 C   0  0  0  0  0  0  0  0  0  0  0  0
  -28.9070  -23.8990   21.0290 C   0  0  0  0  0  0  0  0  0  0  0  0
  -28.5620  -25.3820   21.0250 C   0  0  0  0  0  0  0  0  0  0  0  0
  -28.1530  -26.0280   24.8190 C   0  0  0  0  0  1  0  0  0  0  0  0
  -28.4470  -26.4180   20.0170 O   0  0  0  0  0  0  0  0  0  0  0  0
  -24.5800  -31.8520   23.1420 C   0  0  0  0  0  0  0  0  0  0  0  0
  -27.3710  -27.3730   20.0090 C   0  0  0  0  0  0  0  0  0  0  0  0
  -23.4440  -30.4560   21.4540 C   0  0  0  0  0  3  0  0  0  0  0  0
  -24.9660  -28.9860   19.9980 C   0  0  0  0  0  0  0  0  0  0  0  0
  -25.9810  -30.8450   21.3080 C   0  0  0  0  0  2  0  0  0  0  0  0
  -26.1200  -29.4800   20.6220 C   0  0  0  0  0  0  0  0  0  0  0  0
  -27.3280  -28.6940   20.6060 C   0  0  0  0  0  3  0  0  0  0  0  0
  -26.1940  -26.9700   19.3490 C   0  0  0  0  0  3  0  0  0  0  0  0
  -25.0140  -27.7440   19.3440 C   0  0  0  0  0  3  0  0  0  0  0  0
  -23.7010  -29.8240   20.0600 C   0  0  0  0  0  2  0  0  0  0  0  0
  -24.6870  -31.0710   22.0240 N   0  0  0  0  0  0  0  0  0  0  0  0
  -23.4810  -32.0770   23.6720 O   0  0  0  0  0  0  0  0  0  0  0  0
  -22.8040  -29.3960   22.3830 C   0  0  0  0  0  0  0  0  0  0  0  0
  -21.4830  -29.1780   22.2450 N   0  0  0  0  0  0  0  0  0  0  0  0
  -23.4960  -28.7710   23.1910 O   0  0  0  0  0  0  0  0  0  0  0  0
  -20.9800  -29.7350   21.5690 H   0  0  0  0  0  0  0  0  0  0  0  0
  -18.1450  -27.8550   22.7100 C   0  0  0  0  0  0  0  0  0  0  0  0
  -20.6950  -28.1900   22.9840 C   0  0  0  0  0  3  0  0  0  0  0  0
  -20.8420  -26.7810   22.3610 C   0  0  0  0  0  2  0  0  0  0  0  0
  -19.7490  -26.4590   21.3370 C   0  0  0  0  0  2  0  0  0  0  0  0
  -18.3640  -26.5360   21.9870 C   0  0  0  0  0  2  0  0  0  0  0  0
  -19.2390  -28.6380   23.1640 C   0  0  0  0  0  0  0  0  0  0  0  0
  -18.9790  -29.8710   23.8010 C   0  0  0  0  0  3  0  0  0  0  0  0
  -17.6590  -30.3220   23.9870 C   0  0  0  0  0  3  0  0  0  0  0  0
  -16.5800  -29.5350   23.5460 C   0  0  0  0  0  3  0  0  0  0  0  0
  -16.8230  -28.3040   22.9140 C   0  0  0  0  0  3  0  0  0  0  0  0
  -25.8290  -32.5170   23.7950 C   0  0  0  0  0  3  0  0  0  0  0  0
  -25.4690  -33.9010   24.1440 N   0  0  0  0  0  0  0  0  0  0  0  0
  -25.7910  -34.9800   23.4190 C   0  0  0  0  0  0  0  0  0  0  0  0
  -26.4920  -34.9180   22.4060 O   0  0  0  0  0  0  0  0  0  0  0  0
  -24.8460  -34.0200   24.9300 H   0  0  0  0  0  0  0  0  0  0  0  0
  -24.0300  -36.7390   23.0550 C   0  0  0  0  0  1  0  0  0  0  0  0
  -25.2550  -36.3450   23.8940 C   0  0  0  0  0  3  0  0  0  0  0  0
  -27.3370  -37.2670   24.8140 C   0  0  0  0  0  1  0  0  0  0  0  0
  -26.2630  -37.4270   23.8380 N   0  0  0  0  0  0  0  0  0  0  0  0
  -25.8280  -38.3330   23.9900 H   0  0  0  0  0  0  0  0  0  0  0  0
  -26.3480  -31.7440   25.0700 C   0  0  1  0  0  0  0  0  0  0  0  0
  -25.2430  -31.4490   26.1110 C   0  0  0  0  0  1  0  0  0  0  0  0
  -26.9890  -30.3940   24.6710 C   0  0  0  0  0  1  0  0  0  0  0  0
  -27.4540  -32.5700   25.7680 C   0  0  0  0  0  1  0  0  0  0  0  0
  -29.2330  -22.7810   19.8890 C   0  0  0  0  0  2  0  0  0  0  0  0
  -30.4020  -20.3450   19.0230 C   0  0  0  0  0  2  0  0  0  0  0  0
  -28.8760  -20.1100   20.9210 C   0  0  0  0  0  2  0  0  0  0  0  0
  -30.1890  -18.7390   18.9320 C   0  0  0  0  0  2  0  0  0  0  0  0
  -29.5590  -18.6980   21.3120 C   0  0  0  0  0  2  0  0  0  0  0  0
  -29.7820  -21.2020   20.2180 C   0  0  0  0  0  3  0  0  0  0  0  0
  -30.3790  -17.8620   20.2320 C   0  0  0  0  0  3  0  0  0  0  0  0
  -30.8750  -15.1530   19.9880 C   0  0  0  0  0  0  0  0  0  0  0  0
  -30.6990  -12.8190   19.0370 C   0  0  0  0  0  2  0  0  0  0  0  0
  -29.7290  -12.8050   17.8340 C   0  0  0  0  0  2  0  0  0  0  0  0
  -28.2740  -12.6170   18.3060 C   0  0  0  0  0  2  0  0  0  0  0  0
  -27.9130  -13.5410   19.5000 C   0  0  0  0  0  3  0  0  0  0  0  0
  -29.0000  -13.5210   20.5950 C   0  0  0  0  0  2  0  0  0  0  0  0
  -30.2640  -13.9070   19.9530 N   0  0  0  0  0  0  0  0  0  0  0  0
  -32.0680  -15.2250   19.6750 O   0  0  0  0  0  0  0  0  0  0  0  0
  -30.0940  -16.3160   20.1770 N   0  0  0  0  0  0  0  0  0  0  0  0
  -29.1260  -16.0870   20.3440 H   0  0  0  0  0  0  0  0  0  0  0  0
  -25.5620  -14.1460   20.3160 C   0  0  0  0  0  0  0  0  0  0  0  0
  -24.4980  -13.3810   20.7100 C   0  0  0  0  0  0  0  0  0  0  0  0
  -24.9430  -12.0240   20.6480 C   0  0  0  0  0  0  0  0  0  0  0  0
  -26.5850  -13.2570   20.0340 N   0  0  0  0  0  0  0  0  0  0  0  0
  -26.2230  -11.9740   20.2980 N   0  0  0  0  0  0  0  0  0  0  0  0
  -24.2040  -10.7690   20.8440 C   0  0  0  0  0  0  0  0  0  0  0  0
  -24.5860   -9.8330   21.8300 C   0  0  0  0  0  3  0  0  0  0  0  0
  -23.8470   -8.6440   22.0130 C   0  0  0  0  0  3  0  0  0  0  0  0
  -22.7130   -8.3820   21.2080 C   0  0  0  0  0  0  0  0  0  0  0  0
  -22.3500   -9.3080   20.2130 C   0  0  0  0  0  3  0  0  0  0  0  0
  -23.0890  -10.4870   20.0280 C   0  0  0  0  0  3  0  0  0  0  0  0
  -21.9510   -7.2430   21.2970 O   0  0  0  0  0  0  0  0  0  0  0  0
  -21.7490   -6.6020   22.4940 C   0  0  0  0  0  0  0  0  0  0  0  0
  -21.1660   -7.2580   23.5990 C   0  0  0  0  0  3  0  0  0  0  0  0
  -20.9120   -6.5430   24.7880 C   0  0  0  0  0  3  0  0  0  0  0  0
  -21.2330   -5.1750   24.8700 C   0  0  0  0  0  0  0  0  0  0  0  0
  -21.8110   -4.5200   23.7680 C   0  0  0  0  0  3  0  0  0  0  0  0
  -22.0650   -5.2320   22.5820 C   0  0  0  0  0  0  0  0  0  0  0  0
  -22.6010   -4.5900   21.5160 F   0  0  0  0  0  0  0  0  0  0  0  0
  -20.9840   -4.4870   26.0080 F   0  0  0  0  0  0  0  0  0  0  0  0
  -23.1160  -13.8740   21.0270 C   0  0  0  0  0  0  0  0  0  0  0  0
  -22.4080  -13.1850   21.9140 N   0  0  0  0  0  0  0  0  0  0  0  0
  -22.6740  -14.9060   20.5230 O   0  0  0  0  0  0  0  0  0  0  0  0
  -22.7780  -12.3510   22.3460 H   0  0  0  0  0  0  0  0  0  0  0  0
  -21.4810  -13.4960   22.1670 H   0  0  0  0  0  0  0  0  0  0  0  0
  -25.7370  -15.5160   20.1490 N   0  0  0  0  0  0  0  0  0  0  0  0
  -24.9770  -16.1740   20.2870 H   0  0  0  0  0  0  0  0  0  0  0  0
  -26.5650  -15.9490   19.7620 H   0  0  0  0  0  0  0  0  0  0  0  0
  1  4  1  0
  2  1  2  0
  3  4  2  0
  4  7  1  0
  5  2  1  0
  6  5  2  0
  6  3  1  0
  8  6  1  0
  9 20  2  0
 10  8  1  0
 10 15  1  0
 11 19  1  0
 11 21  1  0
 12 18  1  0
 12 14  1  0
 13 19  1  0
 14 13  1  0
 15 14  2  0
 16 10  2  0
 17 16  1  0
 17 12  2  0
 18 11  1  0
 19  9  1  0
 21 23  2  0
 22 21  1  0
 24 22  1  0
 25 34  2  0
 25 30  1  0
 26 22  1  0
 26 30  1  0
 27 26  1  0
 28 29  1  0
 28 27  1  0
 29 25  1  0
 30 31  2  0
 31 32  1  0
 33 32  2  0
 34 33  1  0
 35  9  1  0
 35 36  1  0
 35 45  1  0
 36 39  1  0
 37 41  1  0
 37 36  1  0
 38 37  2  0
 41 40  1  0
 43 41  1  0
 43 44  1  0
 43 42  1  0
 45 48  1  1
 45 46  1  0
 47 45  1  0
 49  5  1  0
 50 54  1  0
 51 53  1  0
 52 50  1  0
 52 55  1  0
 54 49  1  0
 54 51  1  0
 55 64  1  0
 55 53  1  0
 56 64  1  0
 57 62  1  0
 58 59  1  0
 58 57  1  0
 60 59  1  0
 60 69  1  0
 60 61  1  0
 62 56  1  0
 62 61  1  0
 63 56  2  0
 64 65  1  0
 66 67  2  0
 67 86  1  0
 68 67  1  0
 68 71  1  0
 69 70  1  0
 69 66  1  0
 70 68  2  0
 71 72  1  0
 72 73  2  0
 74 77  1  0
 74 73  1  0
 75 74  2  0
 76 75  1  0
 76 71  2  0
 77 78  1  0
 78 83  2  0
 78 79  1  0
 79 80  2  0
 80 81  1  0
 81 85  1  0
 82 81  2  0
 83 82  1  0
 84 83  1  0
 86 87  1  0
 87 90  1  0
 87 89  1  0
 88 86  2  0
 91 92  1  0
 91 66  1  0
 93 91  1  0
M  ISO  4   6 101   8 101  56 100  64 100
M  END
>  <TORSDO>  (89) 
F 18

>  <SCORE>  (89) 
-13.497

>  <name>  (89) 
88

>  <ligand_id>  (89) 
88

>  <original_smiles>  (89) 
[H]c1c([H])c([H])c2c(c1[H])C([H])([H])C([H])([H])C([H])([H])C2([H])N([H])C(=O)C1([H])N(C(=O)C([H])(N([H])C(=O)C([H])(N([H])C([H])([H])[H])C([H])([H])[H])C(C([H])([H])[H])(C([H])([H])[H])C([H])([H])[H])C([H])([H])c2c([H])c(Oc3c([H])c(C([H])([H])[H])c([H])c([H])c3C([H])([H])C3([H])C([H])([H])C([H])([H])C([H])(N([H])C(=O)N4C([H])([H])C([H])([H])C([H])([H])C([H])(n5nc(-c6c([H])c([H])c(Oc7c([H])c([H])c(F)c([H])c7F)c([H])c6[H])c(C(=O)N([H])[H])c5N([H])[H])C4([H])[H])C([H])([H])C3([H])[H])c([H])c([H])c2C1([H])[H]

>  <smiles>  (89) 
[H]c1c([H])c([H])c2c(c1[H])C([H])([H])C([H])([H])C([H])([H])C2([H])N([H])C(=O)C1([H])N(C(=O)C([H])(N([H])C(=O)C([H])(N([H])C([H])([H])[H])C([H])([H])[H])C(C([H])([H])[H])(C([H])([H])[H])C([H])([H])[H])C([H])([H])c2c([H])c(Oc3c([H])c(C([H])([H])[H])c([H])c([H])c3C([H])([H])C3([H])C([H])([H])C([H])([H])C([H])(N([H])C(=O)N4C([H])([H])C([H])([H])C([H])([H])C([H])(n5nc(-c6c([H])c([H])c(Oc7c([H])c([H])c(F)c([H])c7F)c([H])c6[H])c(C(=O)N([H])[H])c5N([H])[H])C4([H])[H])C([H])([H])C3([H])[H])c([H])c([H])c2C1([H])[H]

$$$$
89:0:0
     RDKit          3D

 91 99  0  0  1  0  0  0  0  0999 V2000
  -27.1450  -23.5640   20.0340 C   0  0  0  0  0  3  0  0  0  0  0  0
  -29.1370  -21.1240   20.0850 C   0  0  0  0  0  0  0  0  0  0  0  0
  -29.3880  -22.7490   20.2750 C   0  0  0  0  0  0  0  0  0  0  0  0
  -28.4360  -24.0970   20.2640 C   0  0  0  0  0  0  0  0  0  0  0  0
  -26.8250  -22.1720   19.8630 C   0  0  0  0  0  0  0  0  0  0  0  0
  -27.7320  -21.0500   19.8840 C   0  0  0  0  0  0  0  0  0  0  0  0
  -30.8420  -23.0890   20.5290 C   0  0  0  0  0  1  0  0  0  0  0  0
  -27.1990  -19.8170   19.6960 F   0  0  0  0  0  0  0  0  0  0  0  0
  -29.8350  -17.8800   20.0520 C   0  0  0  0  0  3  0  0  0  0  0  0
  -30.0230  -19.4540   20.0460 C   0  0  0  0  0  0  0  0  0  0  0  0
  -30.6920  -16.3270   19.9960 C   0  0  0  0  0  0  0  0  0  0  0  0
  -30.9010  -13.6970   19.3200 C   0  0  0  0  0  2  0  0  0  0  0  0
  -30.0370  -13.1520   18.1380 C   0  0  0  0  0  2  0  0  0  0  0  0
  -28.6390  -12.7420   18.6170 C   0  0  0  0  0  2  0  0  0  0  0  0
  -28.0790  -13.7810   19.6110 C   0  0  0  0  0  3  0  0  0  0  0  0
  -29.0860  -14.2420   20.6940 C   0  0  0  0  0  2  0  0  0  0  0  0
  -30.2290  -14.9090   20.0150 N   0  0  0  0  0  0  0  0  0  0  0  0
  -31.9260  -16.2230   19.8130 O   0  0  0  0  0  0  0  0  0  0  0  0
  -25.7510  -14.2700   20.4790 C   0  0  0  0  0  0  0  0  0  0  0  0
  -24.6990  -13.4760   20.8370 C   0  0  0  0  0  0  0  0  0  0  0  0
  -25.1620  -12.1280   20.7250 C   0  0  0  0  0  0  0  0  0  0  0  0
  -26.7830  -13.4100   20.1590 N   0  0  0  0  0  0  0  0  0  0  0  0
  -26.4460  -12.1090   20.3730 N   0  0  0  0  0  0  0  0  0  0  0  0
  -24.4310  -10.8610   20.8760 C   0  0  0  0  0  0  0  0  0  0  0  0
  -24.7810   -9.9140   21.8630 C   0  0  0  0  0  3  0  0  0  0  0  0
  -24.0440   -8.7180   22.0010 C   0  0  0  0  0  3  0  0  0  0  0  0
  -22.9420   -8.4590   21.1520 C   0  0  0  0  0  0  0  0  0  0  0  0
  -22.6120   -9.3950   20.1560 C   0  0  0  0  0  3  0  0  0  0  0  0
  -23.3490  -10.5820   20.0150 C   0  0  0  0  0  3  0  0  0  0  0  0
  -22.1860   -7.3120   21.1960 O   0  0  0  0  0  0  0  0  0  0  0  0
  -21.8850   -6.6920   22.3820 C   0  0  0  0  0  0  0  0  0  0  0  0
  -21.1590   -7.3460   23.4010 C   0  0  0  0  0  3  0  0  0  0  0  0
  -20.8120   -6.6500   24.5760 C   0  0  0  0  0  3  0  0  0  0  0  0
  -21.1800   -5.3000   24.7310 C   0  0  0  0  0  0  0  0  0  0  0  0
  -21.8990   -4.6460   23.7140 C   0  0  0  0  0  3  0  0  0  0  0  0
  -22.2470   -5.3380   22.5420 C   0  0  0  0  0  0  0  0  0  0  0  0
  -22.9210   -4.6970   21.5570 F   0  0  0  0  0  0  0  0  0  0  0  0
  -20.8410   -4.6280   25.8560 F   0  0  0  0  0  0  0  0  0  0  0  0
  -23.3130  -13.9450   21.1640 C   0  0  0  0  0  0  0  0  0  0  0  0
  -22.6120  -13.2280   22.0340 N   0  0  0  0  0  0  0  0  0  0  0  0
  -22.8630  -14.9860   20.6850 O   0  0  0  0  0  0  0  0  0  0  0  0
  -22.9930  -12.3870   22.4400 H   0  0  0  0  0  0  0  0  0  0  0  0
  -21.6830  -13.5240   22.2990 H   0  0  0  0  0  0  0  0  0  0  0  0
  -25.9110  -15.6480   20.3650 N   0  0  0  0  0  0  0  0  0  0  0  0
  -25.1460  -16.2920   20.5360 H   0  0  0  0  0  0  0  0  0  0  0  0
  -26.7530  -16.1090   20.0450 H   0  0  0  0  0  0  0  0  0  0  0  0
  -31.3220  -19.7680   19.9830 O   0  0  0  0  0  0  0  0  0  0  0  0
  -31.3860  -20.7150   19.9760 H   0  0  0  0  0  0  0  0  0  0  0  0
  -25.5040  -21.8790   19.6590 O   0  0  0  0  0  0  0  0  0  0  0  0
  -24.9440  -22.6480   19.6420 H   0  0  0  0  0  0  0  0  0  0  0  0
  -28.5230  -25.7490   20.4610 O   0  0  0  0  0  0  0  0  0  0  0  0
  -24.9120  -32.0950   23.5280 C   0  0  0  0  0  0  0  0  0  0  0  0
  -27.5490  -27.0130   20.4690 C   0  0  0  0  0  0  0  0  0  0  0  0
  -23.7870  -30.7410   21.8150 C   0  0  0  0  0  3  0  0  0  0  0  0
  -25.2850  -29.1220   20.4030 C   0  0  0  0  0  0  0  0  0  0  0  0
  -26.3720  -30.8600   21.7910 C   0  0  0  0  0  2  0  0  0  0  0  0
  -26.4600  -29.4340   21.0970 C   0  0  0  0  0  0  0  0  0  0  0  0
  -27.5680  -28.4110   21.0980 C   0  0  0  0  0  3  0  0  0  0  0  0
  -26.3450  -26.9570   19.7110 C   0  0  0  0  0  3  0  0  0  0  0  0
  -25.2750  -27.9110   19.6870 C   0  0  0  0  0  3  0  0  0  0  0  0
  -24.0780  -30.0810   20.4350 C   0  0  0  0  0  2  0  0  0  0  0  0
  -25.0480  -31.2680   22.4320 N   0  0  0  0  0  0  0  0  0  0  0  0
  -23.8010  -32.3800   24.0080 O   0  0  0  0  0  0  0  0  0  0  0  0
  -23.0350  -29.7400   22.7370 C   0  0  0  0  0  0  0  0  0  0  0  0
  -21.7150  -29.5580   22.5390 N   0  0  0  0  0  0  0  0  0  0  0  0
  -23.6570  -29.1250   23.6050 O   0  0  0  0  0  0  0  0  0  0  0  0
  -21.2610  -30.1070   21.8220 H   0  0  0  0  0  0  0  0  0  0  0  0
  -18.3290  -28.2760   22.8890 C   0  0  0  0  0  0  0  0  0  0  0  0
  -20.8720  -28.5890   23.2550 C   0  0  0  0  0  3  0  0  0  0  0  0
  -21.0230  -27.1720   22.6530 C   0  0  0  0  0  2  0  0  0  0  0  0
  -19.9690  -26.8550   21.5880 C   0  0  0  0  0  2  0  0  0  0  0  0
  -18.5600  -26.9520   22.1810 C   0  0  0  0  0  2  0  0  0  0  0  0
  -19.4140  -29.0530   23.3780 C   0  0  0  0  0  0  0  0  0  0  0  0
  -19.1400  -30.2870   24.0040 C   0  0  0  0  0  3  0  0  0  0  0  0
  -17.8180  -30.7500   24.1430 C   0  0  0  0  0  3  0  0  0  0  0  0
  -16.7480  -29.9730   23.6650 C   0  0  0  0  0  3  0  0  0  0  0  0
  -17.0040  -28.7370   23.0450 C   0  0  0  0  0  3  0  0  0  0  0  0
  -26.1470  -32.7380   24.2320 C   0  0  0  0  0  3  0  0  0  0  0  0
  -26.5430  -32.0020   25.5730 C   0  0  1  0  0  0  0  0  0  0  0  0
  -25.3590  -31.7970   26.5470 C   0  0  0  0  0  1  0  0  0  0  0  0
  -27.1530  -30.6120   25.2860 C   0  0  0  0  0  1  0  0  0  0  0  0
  -27.6340  -32.8120   26.3110 C   0  0  0  0  0  1  0  0  0  0  0  0
  -25.8350  -34.1540   24.5180 N   0  0  0  0  0  0  0  0  0  0  0  0
  -26.1930  -35.1960   23.7540 C   0  0  0  0  0  0  0  0  0  0  0  0
  -26.8740  -35.0660   22.7350 O   0  0  0  0  0  0  0  0  0  0  0  0
  -25.2280  -34.3270   25.3060 H   0  0  0  0  0  0  0  0  0  0  0  0
  -24.4740  -37.0060   23.3890 C   0  0  0  0  0  1  0  0  0  0  0  0
  -25.7260  -36.6030   24.1870 C   0  0  0  0  0  3  0  0  0  0  0  0
  -27.8700  -37.5120   24.9730 C   0  0  0  0  0  1  0  0  0  0  0  0
  -26.7640  -37.6480   24.0290 N   0  0  0  0  0  0  0  0  0  0  0  0
  -26.3640  -38.5740   24.1420 H   0  0  0  0  0  0  0  0  0  0  0  0
  1  4  1  0
  2  3  1  0
  3  7  1  0
  4  3  2  0
  4 51  1  0
  5  6  1  0
  5  1  2  0
  6  2  2  0
  8  6  1  0
 10  9  2  0
 10  2  1  0
 11 17  1  0
 11  9  1  0
 12 17  1  0
 13 14  1  0
 13 12  1  0
 15 14  1  0
 15 22  1  0
 15 16  1  0
 17 16  1  0
 18 11  2  0
 19 20  2  0
 20 39  1  0
 21 20  1  0
 21 24  1  0
 22 23  1  0
 22 19  1  0
 23 21  2  0
 24 25  1  0
 25 26  2  0
 27 30  1  0
 27 26  1  0
 28 27  2  0
 29 28  1  0
 29 24  2  0
 30 31  1  0
 31 36  2  0
 31 32  1  0
 32 33  2  0
 33 34  1  0
 34 38  1  0
 35 34  2  0
 36 35  1  0
 37 36  1  0
 39 40  1  0
 40 43  1  0
 40 42  1  0
 41 39  2  0
 44 19  1  0
 44 45  1  0
 46 44  1  0
 47 10  1  0
 48 47  1  0
 49  5  1  0
 50 49  1  0
 51 53  1  0
 52 63  2  0
 53 58  1  0
 54 62  1  0
 54 64  1  0
 55 61  1  0
 55 57  1  0
 56 62  1  0
 57 58  2  0
 57 56  1  0
 59 53  2  0
 60 59  1  0
 60 55  2  0
 61 54  1  0
 62 52  1  0
 64 66  2  0
 65 64  1  0
 67 65  1  0
 68 77  2  0
 68 73  1  0
 69 65  1  0
 69 73  1  0
 70 69  1  0
 71 72  1  0
 71 70  1  0
 72 68  1  0
 73 74  2  0
 74 75  1  0
 76 75  2  0
 77 76  1  0
 78 52  1  0
 78 83  1  0
 78 79  1  0
 79 82  1  1
 79 80  1  0
 81 79  1  0
 83 86  1  0
 84 88  1  0
 84 83  1  0
 85 84  2  0
 88 87  1  0
 90 91  1  0
 90 88  1  0
 90 89  1  0
M  ISO  4   4 101   9 100  11 100  51 101
M  END
>  <TORSDO>  (90) 
F 19

>  <SCORE>  (90) 
-14.415

>  <name>  (90) 
89

>  <ligand_id>  (90) 
89

>  <original_smiles>  (90) 
[H]OC(=C([H])C(=O)N1C([H])([H])C([H])([H])C([H])([H])C([H])(n2nc(-c3c([H])c([H])c(Oc4c([H])c([H])c(F)c([H])c4F)c([H])c3[H])c(C(=O)N([H])[H])c2N([H])[H])C1([H])[H])c1c(F)c(O[H])c([H])c(Oc2c([H])c([H])c3c(c2[H])C([H])([H])N(C(=O)C([H])(N([H])C(=O)C([H])(N([H])C([H])([H])[H])C([H])([H])[H])C(C([H])([H])[H])(C([H])([H])[H])C([H])([H])[H])C([H])(C(=O)N([H])C2([H])c4c([H])c([H])c([H])c([H])c4C([H])([H])C([H])([H])C2([H])[H])C3([H])[H])c1C([H])([H])[H]

>  <smiles>  (90) 
[H]OC(=C([H])C(=O)N1C([H])([H])C([H])([H])C([H])([H])C([H])(n2nc(-c3c([H])c([H])c(Oc4c([H])c([H])c(F)c([H])c4F)c([H])c3[H])c(C(=O)N([H])[H])c2N([H])[H])C1([H])[H])c1c(F)c(O[H])c([H])c(Oc2c([H])c([H])c3c(c2[H])C([H])([H])N(C(=O)C([H])(N([H])C(=O)C([H])(N([H])C([H])([H])[H])C([H])([H])[H])C(C([H])([H])[H])(C([H])([H])[H])C([H])([H])[H])C([H])(C(=O)N([H])C2([H])c4c([H])c([H])c([H])c([H])c4C([H])([H])C([H])([H])C2([H])[H])C3([H])[H])c1C([H])([H])[H]

$$$$
90:0:0
     RDKit          3D

 94103  0  0  1  0  0  0  0  0999 V2000
  -29.8250  -23.0380   22.8860 C   0  0  0  0  0  3  0  0  0  0  0  0
  -30.0060  -20.7450   22.1170 C   0  0  0  0  0  3  0  0  0  0  0  0
  -29.3620  -23.4480   21.6200 C   0  0  0  0  0  0  0  0  0  0  0  0
  -29.2050  -22.4840   20.5780 C   0  0  0  0  0  0  0  0  0  0  0  0
  -30.1410  -21.6950   23.1490 C   0  0  0  0  0  0  0  0  0  0  0  0
  -29.5300  -21.0930   20.8330 C   0  0  0  0  0  0  0  0  0  0  0  0
  -29.0760  -24.9550   21.4480 C   0  0  0  0  0  2  0  0  0  0  0  0
  -28.6470  -22.9890   19.2370 C   0  0  0  0  0  2  0  0  0  0  0  0
  -28.6880  -24.5380   19.0210 C   0  0  0  0  0  2  0  0  0  0  0  0
  -28.2190  -25.3730   20.2350 C   0  0  0  0  0  3  0  0  0  0  0  0
  -32.1150  -21.6200   24.7210 C   0  0  0  0  0  1  0  0  0  0  0  0
  -30.3210  -19.8390   24.9210 C   0  0  0  0  0  1  0  0  0  0  0  0
  -30.6250  -21.3010   24.5450 C   0  0  0  0  0  3  0  0  0  0  0  0
  -28.3210  -26.8260   20.0380 O   0  0  0  0  0  0  0  0  0  0  0  0
  -24.6080  -32.0190   23.3180 C   0  0  0  0  0  0  0  0  0  0  0  0
  -27.1640  -27.6020   20.0710 C   0  0  0  0  0  0  0  0  0  0  0  0
  -23.3600  -30.6530   21.6800 C   0  0  0  0  0  3  0  0  0  0  0  0
  -24.7760  -29.1520   20.1720 C   0  0  0  0  0  0  0  0  0  0  0  0
  -25.8830  -31.0120   21.4170 C   0  0  0  0  0  2  0  0  0  0  0  0
  -25.9550  -29.6510   20.7400 C   0  0  0  0  0  0  0  0  0  0  0  0
  -27.1520  -28.8900   20.6770 C   0  0  0  0  0  3  0  0  0  0  0  0
  -25.9670  -27.1390   19.4830 C   0  0  0  0  0  3  0  0  0  0  0  0
  -24.7820  -27.8980   19.5340 C   0  0  0  0  0  3  0  0  0  0  0  0
  -23.5320  -30.0090   20.2790 C   0  0  0  0  0  2  0  0  0  0  0  0
  -24.6380  -31.2430   22.1960 N   0  0  0  0  0  0  0  0  0  0  0  0
  -23.5410  -32.2740   23.8960 O   0  0  0  0  0  0  0  0  0  0  0  0
  -22.7390  -29.6070   22.6360 C   0  0  0  0  0  0  0  0  0  0  0  0
  -21.4220  -29.3770   22.5030 N   0  0  0  0  0  0  0  0  0  0  0  0
  -23.4390  -29.0070   23.4540 O   0  0  0  0  0  0  0  0  0  0  0  0
  -20.9140  -29.9170   21.8160 H   0  0  0  0  0  0  0  0  0  0  0  0
  -18.1040  -28.0070   22.9360 C   0  0  0  0  0  0  0  0  0  0  0  0
  -20.6360  -28.4050   23.2660 C   0  0  0  0  0  3  0  0  0  0  0  0
  -20.8310  -26.9740   22.7120 C   0  0  0  0  0  2  0  0  0  0  0  0
  -19.7730  -26.5810   21.6760 C   0  0  0  0  0  2  0  0  0  0  0  0
  -18.3700  -26.6600   22.2840 C   0  0  0  0  0  2  0  0  0  0  0  0
  -19.1690  -28.8320   23.3840 C   0  0  0  0  0  0  0  0  0  0  0  0
  -18.8700  -30.0890   23.9510 C   0  0  0  0  0  3  0  0  0  0  0  0
  -17.5360  -30.5220   24.0790 C   0  0  0  0  0  3  0  0  0  0  0  0
  -16.4850  -29.6920   23.6500 C   0  0  0  0  0  3  0  0  0  0  0  0
  -16.7700  -28.4370   23.0840 C   0  0  0  0  0  3  0  0  0  0  0  0
  -25.9060  -32.6420   23.9160 C   0  0  0  0  0  3  0  0  0  0  0  0
  -25.6110  -34.0420   24.2560 N   0  0  0  0  0  0  0  0  0  0  0  0
  -25.9490  -35.0950   23.5010 C   0  0  0  0  0  0  0  0  0  0  0  0
  -26.6140  -34.9910   22.4660 O   0  0  0  0  0  0  0  0  0  0  0  0
  -25.0230  -34.1980   25.0600 H   0  0  0  0  0  0  0  0  0  0  0  0
  -24.2390  -36.9090   23.1620 C   0  0  0  0  0  1  0  0  0  0  0  0
  -25.4770  -36.4860   23.9680 C   0  0  0  0  0  3  0  0  0  0  0  0
  -27.6180  -37.3450   24.8050 C   0  0  0  0  0  1  0  0  0  0  0  0
  -26.5200  -37.5290   23.8610 N   0  0  0  0  0  0  0  0  0  0  0  0
  -26.1230  -38.4530   24.0150 H   0  0  0  0  0  0  0  0  0  0  0  0
  -26.4450  -31.8660   25.1820 C   0  0  1  0  0  0  0  0  0  0  0  0
  -25.3660  -31.6160   26.2610 C   0  0  0  0  0  1  0  0  0  0  0  0
  -27.0290  -30.4960   24.7700 C   0  0  0  0  0  1  0  0  0  0  0  0
  -27.6010  -32.6630   25.8330 C   0  0  0  0  0  1  0  0  0  0  0  0
  -29.3260  -19.9130   19.8330 C   0  0  0  0  0  2  0  0  0  0  0  0
  -30.4240  -18.7710   19.7520 C   0  0  0  0  0  2  0  0  0  0  0  0
  -30.3950  -17.5130   20.7140 C   0  0  0  0  0  2  0  0  0  0  0  0
  -29.7590  -16.1490   20.2260 C   0  0  0  0  0  2  0  0  0  0  0  0
  -30.6640  -14.8790   19.9800 C   0  0  0  0  0  0  0  0  0  0  0  0
  -30.4920  -12.6210   18.9730 C   0  0  0  0  0  2  0  0  0  0  0  0
  -29.5050  -12.7260   17.7870 C   0  0  0  0  0  2  0  0  0  0  0  0
  -28.0440  -12.5620   18.2560 C   0  0  0  0  0  2  0  0  0  0  0  0
  -27.7120  -13.4340   19.4960 C   0  0  0  0  0  3  0  0  0  0  0  0
  -28.8050  -13.2810   20.5760 C   0  0  0  0  0  2  0  0  0  0  0  0
  -30.0960  -13.6340   19.9680 N   0  0  0  0  0  0  0  0  0  0  0  0
  -31.8240  -15.0490   19.5890 O   0  0  0  0  0  0  0  0  0  0  0  0
  -25.3360  -14.0230   20.2840 C   0  0  0  0  0  0  0  0  0  0  0  0
  -24.2880  -13.2450   20.6920 C   0  0  0  0  0  0  0  0  0  0  0  0
  -24.7610  -11.8970   20.6560 C   0  0  0  0  0  0  0  0  0  0  0  0
  -26.3800  -13.1490   20.0230 N   0  0  0  0  0  0  0  0  0  0  0  0
  -26.0400  -11.8660   20.3040 N   0  0  0  0  0  0  0  0  0  0  0  0
  -24.0510  -10.6300   20.8770 C   0  0  0  0  0  0  0  0  0  0  0  0
  -24.4840   -9.7030   21.8510 C   0  0  0  0  0  3  0  0  0  0  0  0
  -23.7740   -8.4990   22.0570 C   0  0  0  0  0  3  0  0  0  0  0  0
  -22.6200   -8.2150   21.2900 C   0  0  0  0  0  0  0  0  0  0  0  0
  -22.2080   -9.1310   20.3060 C   0  0  0  0  0  3  0  0  0  0  0  0
  -22.9180  -10.3260   20.0980 C   0  0  0  0  0  3  0  0  0  0  0  0
  -21.8830   -7.0610   21.4030 O   0  0  0  0  0  0  0  0  0  0  0  0
  -21.7790   -6.3870   22.5940 C   0  0  0  0  0  0  0  0  0  0  0  0
  -21.2520   -7.0000   23.7520 C   0  0  0  0  0  3  0  0  0  0  0  0
  -21.0990   -6.2510   24.9360 C   0  0  0  0  0  3  0  0  0  0  0  0
  -21.4610   -4.8910   24.9610 C   0  0  0  0  0  0  0  0  0  0  0  0
  -21.9810   -4.2790   23.8080 C   0  0  0  0  0  3  0  0  0  0  0  0
  -22.1360   -5.0240   22.6270 C   0  0  0  0  0  0  0  0  0  0  0  0
  -22.6180   -4.4240   21.5120 F   0  0  0  0  0  0  0  0  0  0  0  0
  -21.3060   -4.1690   26.0960 F   0  0  0  0  0  0  0  0  0  0  0  0
  -22.8960  -13.7120   21.0070 C   0  0  0  0  0  0  0  0  0  0  0  0
  -22.2040  -13.0190   21.9050 N   0  0  0  0  0  0  0  0  0  0  0  0
  -22.4300  -14.7280   20.4910 O   0  0  0  0  0  0  0  0  0  0  0  0
  -22.5940  -12.1980   22.3440 H   0  0  0  0  0  0  0  0  0  0  0  0
  -21.2720  -13.3140   22.1570 H   0  0  0  0  0  0  0  0  0  0  0  0
  -25.4850  -15.3940   20.0950 N   0  0  0  0  0  0  0  0  0  0  0  0
  -24.7170  -16.0450   20.2270 H   0  0  0  0  0  0  0  0  0  0  0  0
  -26.3270  -15.8400   19.7550 H   0  0  0  0  0  0  0  0  0  0  0  0
  1  5  1  0
  2  5  2  0
  3  1  2  0
  4  6  2  0
  4  3  1  0
  5 13  1  0
  6  2  1  0
  7  3  1  0
  8  4  1  0
  9  8  1  0
  9 10  1  0
 10 14  1  0
 10  7  1  0
 13 11  1  0
 13 12  1  0
 14 16  1  0
 15 26  2  0
 16 21  1  0
 17 25  1  0
 17 27  1  0
 18 24  1  0
 18 20  1  0
 19 25  1  0
 20 19  1  0
 21 20  2  0
 22 23  1  0
 22 16  2  0
 23 18  2  0
 24 17  1  0
 25 15  1  0
 27 29  2  0
 28 27  1  0
 30 28  1  0
 31 40  2  0
 31 36  1  0
 32 28  1  0
 32 36  1  0
 33 32  1  0
 34 35  1  0
 34 33  1  0
 35 31  1  0
 36 37  2  0
 37 38  1  0
 39 38  2  0
 40 39  1  0
 41 15  1  0
 41 42  1  0
 41 51  1  0
 42 45  1  0
 43 47  1  0
 43 42  1  0
 44 43  2  0
 47 46  1  0
 49 47  1  0
 49 50  1  0
 49 48  1  0
 51 54  1  1
 51 52  1  0
 53 51  1  0
 55  6  1  0
 56 55  1  0
 56 57  1  0
 58 57  1  0
 59 58  1  0
 60 65  1  0
 61 62  1  0
 61 60  1  0
 63 62  1  0
 63 70  1  0
 63 64  1  0
 65 59  1  0
 65 64  1  0
 66 59  2  0
 67 68  2  0
 68 87  1  0
 69 68  1  0
 69 72  1  0
 70 67  1  0
 70 71  1  0
 71 69  2  0
 72 73  1  0
 73 74  2  0
 75 78  1  0
 75 74  1  0
 76 75  2  0
 77 76  1  0
 77 72  2  0
 78 79  1  0
 79 84  2  0
 79 80  1  0
 80 81  2  0
 81 82  1  0
 82 86  1  0
 83 82  2  0
 84 83  1  0
 85 84  1  0
 87 88  1  0
 88 91  1  0
 88 90  1  0
 89 87  2  0
 92 93  1  0
 92 67  1  0
 94 92  1  0
M  ISO  4  10 101  14 101  58 100  59 100
M  END
>  <TORSDO>  (91) 
F 21

>  <SCORE>  (91) 
-12.927

>  <name>  (91) 
90

>  <ligand_id>  (91) 
90

>  <original_smiles>  (91) 
[H]c1c([H])c([H])c2c(c1[H])C([H])([H])C([H])([H])C([H])([H])C2([H])N([H])C(=O)C1([H])N(C(=O)C([H])(N([H])C(=O)C([H])(N([H])C([H])([H])[H])C([H])([H])[H])C(C([H])([H])[H])(C([H])([H])[H])C([H])([H])[H])C([H])([H])c2c([H])c(OC3([H])C([H])([H])c4c([H])c(C([H])(C([H])([H])[H])C([H])([H])[H])c([H])c(C([H])([H])C([H])([H])C([H])([H])C([H])([H])C(=O)N5C([H])([H])C([H])([H])C([H])([H])C([H])(n6nc(-c7c([H])c([H])c(Oc8c([H])c([H])c(F)c([H])c8F)c([H])c7[H])c(C(=O)N([H])[H])c6N([H])[H])C5([H])[H])c4C([H])([H])C3([H])[H])c([H])c([H])c2C1([H])[H]

>  <smiles>  (91) 
[H]c1c([H])c([H])c2c(c1[H])C([H])([H])C([H])([H])C([H])([H])C2([H])N([H])C(=O)C1([H])N(C(=O)C([H])(N([H])C(=O)C([H])(N([H])C([H])([H])[H])C([H])([H])[H])C(C([H])([H])[H])(C([H])([H])[H])C([H])([H])[H])C([H])([H])c2c([H])c(OC3([H])C([H])([H])c4c([H])c(C([H])(C([H])([H])[H])C([H])([H])[H])c([H])c(C([H])([H])C([H])([H])C([H])([H])C([H])([H])C(=O)N5C([H])([H])C([H])([H])C([H])([H])C([H])(n6nc(-c7c([H])c([H])c(Oc8c([H])c([H])c(F)c([H])c8F)c([H])c7[H])c(C(=O)N([H])[H])c6N([H])[H])C5([H])[H])c4C([H])([H])C3([H])[H])c([H])c([H])c2C1([H])[H]

$$$$
91:0:0
     RDKit          3D

 90 98  0  0  1  0  0  0  0  0999 V2000
  -27.5250  -21.5930   19.3700 C   0  0  0  0  0  3  0  0  0  0  0  0
  -27.1890  -20.2770   18.9920 C   0  0  0  0  0  3  0  0  0  0  0  0
  -29.4560  -20.6560   20.4910 C   0  0  0  0  0  3  0  0  0  0  0  0
  -29.1410  -19.2450   20.1300 C   0  0  0  0  0  0  0  0  0  0  0  0
  -28.6710  -21.8690   20.1360 C   0  0  0  0  0  0  0  0  0  0  0  0
  -27.9490  -19.1370   19.3510 C   0  0  0  0  0  0  0  0  0  0  0  0
  -30.0620  -17.9420   20.4490 C   0  0  0  0  0  0  0  0  0  0  0  0
  -31.2520  -18.1490   20.7050 O   0  0  0  0  0  0  0  0  0  0  0  0
  -29.5730  -16.3610   20.5270 C   0  0  0  0  0  2  0  0  0  0  0  0
  -30.5170  -15.0030   20.3790 C   0  0  0  0  0  0  0  0  0  0  0  0
  -30.4410  -12.6740   19.3920 C   0  0  0  0  0  2  0  0  0  0  0  0
  -29.4980  -12.6960   18.1650 C   0  0  0  0  0  2  0  0  0  0  0  0
  -28.0300  -12.4780   18.5870 C   0  0  0  0  0  2  0  0  0  0  0  0
  -27.6340  -13.3590   19.8020 C   0  0  0  0  0  3  0  0  0  0  0  0
  -28.6930  -13.3080   20.9210 C   0  0  0  0  0  2  0  0  0  0  0  0
  -29.9760  -13.7210   20.3420 N   0  0  0  0  0  0  0  0  0  0  0  0
  -31.7190  -15.0960   20.1050 O   0  0  0  0  0  0  0  0  0  0  0  0
  -25.2620  -13.9290   20.5640 C   0  0  0  0  0  0  0  0  0  0  0  0
  -24.1970  -13.1470   20.9230 C   0  0  0  0  0  0  0  0  0  0  0  0
  -24.6600  -11.7980   20.8680 C   0  0  0  0  0  0  0  0  0  0  0  0
  -26.2980  -13.0530   20.3000 N   0  0  0  0  0  0  0  0  0  0  0  0
  -25.9490  -11.7650   20.5520 N   0  0  0  0  0  0  0  0  0  0  0  0
  -23.9360  -10.5330   21.0430 C   0  0  0  0  0  0  0  0  0  0  0  0
  -24.3580   -9.5650   21.9800 C   0  0  0  0  0  3  0  0  0  0  0  0
  -23.6330   -8.3620   22.1420 C   0  0  0  0  0  3  0  0  0  0  0  0
  -22.4740   -8.1240   21.3680 C   0  0  0  0  0  0  0  0  0  0  0  0
  -22.0700   -9.0820   20.4230 C   0  0  0  0  0  3  0  0  0  0  0  0
  -22.7920  -10.2750   20.2600 C   0  0  0  0  0  3  0  0  0  0  0  0
  -21.7220   -6.9760   21.4370 O   0  0  0  0  0  0  0  0  0  0  0  0
  -21.6390   -6.2390   22.5910 C   0  0  0  0  0  0  0  0  0  0  0  0
  -21.1230   -6.7870   23.7870 C   0  0  0  0  0  3  0  0  0  0  0  0
  -20.9870   -5.9750   24.9310 C   0  0  0  0  0  3  0  0  0  0  0  0
  -21.3560   -4.6180   24.8810 C   0  0  0  0  0  0  0  0  0  0  0  0
  -21.8610   -4.0690   23.6890 C   0  0  0  0  0  3  0  0  0  0  0  0
  -22.0000   -4.8780   22.5470 C   0  0  0  0  0  0  0  0  0  0  0  0
  -22.4670   -4.3400   21.3950 F   0  0  0  0  0  0  0  0  0  0  0  0
  -21.2200   -3.8360   25.9780 F   0  0  0  0  0  0  0  0  0  0  0  0
  -22.8020  -13.6210   21.2020 C   0  0  0  0  0  0  0  0  0  0  0  0
  -22.0770  -12.9130   22.0630 N   0  0  0  0  0  0  0  0  0  0  0  0
  -22.3600  -14.6480   20.6940 O   0  0  0  0  0  0  0  0  0  0  0  0
  -22.4480  -12.0810   22.4990 H   0  0  0  0  0  0  0  0  0  0  0  0
  -21.1370  -13.2090   22.2850 H   0  0  0  0  0  0  0  0  0  0  0  0
  -25.4250  -15.3030   20.4070 N   0  0  0  0  0  0  0  0  0  0  0  0
  -24.6660  -15.9570   20.5500 H   0  0  0  0  0  0  0  0  0  0  0  0
  -26.2720  -15.7530   20.0780 H   0  0  0  0  0  0  0  0  0  0  0  0
  -27.4860  -17.9420   18.8860 O   0  0  0  0  0  0  0  0  0  0  0  0
  -26.7300  -18.0430   18.3150 H   0  0  0  0  0  0  0  0  0  0  0  0
  -28.9740  -23.4410   20.5130 C   0  0  0  0  0  3  0  0  0  0  0  0
  -28.0340  -24.7470   20.0340 C   0  0  0  0  0  3  0  0  0  0  0  0
  -28.2640  -26.2560   20.3100 O   0  0  0  0  0  0  0  0  0  0  0  0
  -24.6060  -31.9130   23.2550 C   0  0  0  0  0  0  0  0  0  0  0  0
  -27.1990  -27.2220   20.2300 C   0  0  0  0  0  0  0  0  0  0  0  0
  -23.4060  -30.5090   21.6220 C   0  0  0  0  0  3  0  0  0  0  0  0
  -24.8590  -28.9430   20.1980 C   0  0  0  0  0  0  0  0  0  0  0  0
  -25.9570  -30.7920   21.4500 C   0  0  0  0  0  2  0  0  0  0  0  0
  -26.0360  -29.4020   20.8000 C   0  0  0  0  0  0  0  0  0  0  0  0
  -27.2070  -28.5560   20.8010 C   0  0  0  0  0  3  0  0  0  0  0  0
  -25.9950  -26.8610   19.5850 C   0  0  0  0  0  3  0  0  0  0  0  0
  -24.8500  -27.6850   19.5780 C   0  0  0  0  0  3  0  0  0  0  0  0
  -23.6220  -29.8250   20.2460 C   0  0  0  0  0  2  0  0  0  0  0  0
  -24.6750  -31.0920   22.1630 N   0  0  0  0  0  0  0  0  0  0  0  0
  -23.5220  -32.1950   23.7850 O   0  0  0  0  0  0  0  0  0  0  0  0
  -22.7300  -29.5040   22.5900 C   0  0  0  0  0  0  0  0  0  0  0  0
  -21.4060  -29.3110   22.4540 N   0  0  0  0  0  0  0  0  0  0  0  0
  -23.4020  -28.8960   23.4280 O   0  0  0  0  0  0  0  0  0  0  0  0
  -20.9160  -29.8490   21.7520 H   0  0  0  0  0  0  0  0  0  0  0  0
  -18.0400  -28.0730   22.9450 C   0  0  0  0  0  0  0  0  0  0  0  0
  -20.5940  -28.3710   23.2290 C   0  0  0  0  0  3  0  0  0  0  0  0
  -20.7180  -26.9340   22.6710 C   0  0  0  0  0  2  0  0  0  0  0  0
  -19.6300  -26.5860   21.6500 C   0  0  0  0  0  2  0  0  0  0  0  0
  -18.2410  -26.7200   22.2810 C   0  0  0  0  0  2  0  0  0  0  0  0
  -19.1450  -28.8540   23.3760 C   0  0  0  0  0  0  0  0  0  0  0  0
  -18.9030  -30.1190   23.9570 C   0  0  0  0  0  3  0  0  0  0  0  0
  -17.5910  -30.6050   24.1060 C   0  0  0  0  0  3  0  0  0  0  0  0
  -16.5000  -29.8200   23.6960 C   0  0  0  0  0  3  0  0  0  0  0  0
  -16.7250  -28.5560   23.1200 C   0  0  0  0  0  3  0  0  0  0  0  0
  -25.8840  -32.5550   23.8790 C   0  0  0  0  0  3  0  0  0  0  0  0
  -25.5770  -33.9620   24.1780 N   0  0  0  0  0  0  0  0  0  0  0  0
  -25.9150  -35.0010   23.4020 C   0  0  0  0  0  0  0  0  0  0  0  0
  -26.5820  -34.8760   22.3720 O   0  0  0  0  0  0  0  0  0  0  0  0
  -24.9860  -34.1320   24.9780 H   0  0  0  0  0  0  0  0  0  0  0  0
  -24.2030  -36.8040   23.0150 C   0  0  0  0  0  1  0  0  0  0  0  0
  -25.4370  -36.4020   23.8370 C   0  0  0  0  0  3  0  0  0  0  0  0
  -27.5710  -37.2910   24.6680 C   0  0  0  0  0  1  0  0  0  0  0  0
  -26.4780  -37.4450   23.7100 N   0  0  0  0  0  0  0  0  0  0  0  0
  -26.0780  -38.3720   23.8310 H   0  0  0  0  0  0  0  0  0  0  0  0
  -26.3830  -31.8100   25.1800 C   0  0  1  0  0  0  0  0  0  0  0  0
  -25.2760  -31.6010   26.2390 C   0  0  0  0  0  1  0  0  0  0  0  0
  -26.9650  -30.4190   24.8350 C   0  0  0  0  0  1  0  0  0  0  0  0
  -27.5270  -32.6170   25.8390 C   0  0  0  0  0  1  0  0  0  0  0  0
  1  5  1  0
  2  6  1  0
  2  1  2  0
  4  7  1  0
  4  3  1  0
  5  3  2  0
  5 48  1  0
  6  4  2  0
  7  9  1  0
  7  8  2  0
 10  9  1  0
 11 16  1  0
 12 13  1  0
 12 11  1  0
 14 13  1  0
 14 21  1  0
 14 15  1  0
 16 10  1  0
 16 15  1  0
 17 10  2  0
 18 19  2  0
 19 38  1  0
 20 19  1  0
 20 23  1  0
 21 22  1  0
 21 18  1  0
 22 20  2  0
 23 24  1  0
 24 25  2  0
 26 29  1  0
 26 25  1  0
 27 26  2  0
 28 27  1  0
 28 23  2  0
 29 30  1  0
 30 31  1  0
 31 32  2  0
 33 32  1  0
 33 37  1  0
 34 33  2  0
 35 30  2  0
 35 34  1  0
 36 35  1  0
 38 39  1  0
 39 42  1  0
 39 41  1  0
 40 38  2  0
 43 44  1  0
 43 18  1  0
 45 43  1  0
 46  6  1  0
 47 46  1  0
 49 50  1  0
 49 48  2  0
 51 62  2  0
 52 50  1  0
 52 57  1  0
 53 61  1  0
 53 63  1  0
 54 60  1  0
 54 56  1  0
 55 61  1  0
 56 57  2  0
 56 55  1  0
 58 52  2  0
 59 58  1  0
 59 54  2  0
 60 53  1  0
 61 51  1  0
 63 65  2  0
 64 63  1  0
 66 64  1  0
 67 76  2  0
 67 72  1  0
 68 64  1  0
 68 72  1  0
 69 68  1  0
 70 71  1  0
 70 69  1  0
 71 67  1  0
 72 73  2  0
 73 74  1  0
 75 74  2  0
 76 75  1  0
 77 51  1  0
 77 78  1  0
 77 87  1  0
 78 81  1  0
 79 83  1  0
 79 78  1  0
 80 79  2  0
 83 82  1  0
 85 86  1  0
 85 83  1  0
 85 84  1  0
 87 90  1  1
 87 88  1  0
 89 87  1  0
M  ISO  4   9 100  10 100  49 101  50 101
M  END
>  <TORSDO>  (92) 
F 21

>  <SCORE>  (92) 
-13.729

>  <name>  (92) 
91

>  <ligand_id>  (92) 
91

>  <original_smiles>  (92) 
[H]Oc1c([H])c([H])c(C([H])([H])C([H])([H])Oc2c([H])c([H])c3c(c2[H])C([H])([H])N(C(=O)C([H])(N([H])C(=O)C([H])(N([H])C([H])([H])[H])C([H])([H])[H])C(C([H])([H])[H])(C([H])([H])[H])C([H])([H])[H])C([H])(C(=O)N([H])C2([H])c4c([H])c([H])c([H])c([H])c4C([H])([H])C([H])([H])C2([H])[H])C3([H])[H])c([H])c1C(=O)C([H])([H])C(=O)N1C([H])([H])C([H])([H])C([H])([H])C([H])(n2nc(-c3c([H])c([H])c(Oc4c([H])c([H])c(F)c([H])c4F)c([H])c3[H])c(C(=O)N([H])[H])c2N([H])[H])C1([H])[H]

>  <smiles>  (92) 
[H]Oc1c([H])c([H])c(C([H])([H])C([H])([H])Oc2c([H])c([H])c3c(c2[H])C([H])([H])N(C(=O)C([H])(N([H])C(=O)C([H])(N([H])C([H])([H])[H])C([H])([H])[H])C(C([H])([H])[H])(C([H])([H])[H])C([H])([H])[H])C([H])(C(=O)N([H])C2([H])c4c([H])c([H])c([H])c([H])c4C([H])([H])C([H])([H])C2([H])[H])C3([H])[H])c([H])c1C(=O)C([H])([H])C(=O)N1C([H])([H])C([H])([H])C([H])([H])C([H])(n2nc(-c3c([H])c([H])c(Oc4c([H])c([H])c(F)c([H])c4F)c([H])c3[H])c(C(=O)N([H])[H])c2N([H])[H])C1([H])[H]

$$$$
92:0:0
     RDKit          3D

 95104  0  0  1  0  0  0  0  0999 V2000
  -28.5380  -23.7000   21.6660 C   0  0  0  0  0  3  0  0  0  0  0  0
  -29.9530  -25.0910   19.6880 C   0  0  0  0  0  3  0  0  0  0  0  0
  -29.4350  -22.9960   20.8370 C   0  0  0  0  0  0  0  0  0  0  0  0
  -28.3590  -25.0950   21.5340 C   0  0  0  0  0  0  0  0  0  0  0  0
  -30.1610  -23.7000   19.8420 C   0  0  0  0  0  0  0  0  0  0  0  0
  -29.0610  -25.8030   20.5210 C   0  0  0  0  0  0  0  0  0  0  0  0
  -27.4380  -25.7980   22.5190 C   0  0  0  0  0  1  0  0  0  0  0  0
  -31.1860  -23.0030   18.9550 C   0  0  0  0  0  1  0  0  0  0  0  0
  -29.6540  -21.5530   21.1260 C   0  0  0  0  0  0  0  0  0  0  0  0
  -30.3200  -21.1640   22.0880 O   0  0  0  0  0  0  0  0  0  0  0  0
  -28.9640  -20.5640   20.1760 C   0  0  0  0  0  2  0  0  0  0  0  0
  -28.6890  -19.1480   20.7490 C   0  0  0  0  0  2  0  0  0  0  0  0
  -31.4290  -14.2070   19.7310 C   0  0  0  0  0  0  0  0  0  0  0  0
  -31.0040  -11.9050   18.9810 C   0  0  0  0  0  2  0  0  0  0  0  0
  -30.0340  -11.9500   17.7830 C   0  0  0  0  0  2  0  0  0  0  0  0
  -28.5700  -11.9560   18.2650 C   0  0  0  0  0  2  0  0  0  0  0  0
  -28.3050  -13.0040   19.3790 C   0  0  0  0  0  3  0  0  0  0  0  0
  -29.3870  -12.9260   20.4790 C   0  0  0  0  0  2  0  0  0  0  0  0
  -30.7020  -13.0640   19.8330 N   0  0  0  0  0  0  0  0  0  0  0  0
  -32.5300  -14.2580   19.1700 O   0  0  0  0  0  0  0  0  0  0  0  0
  -29.6330  -17.3950   19.1260 C   0  0  0  0  0  2  0  0  0  0  0  0
  -29.7730  -16.9850   21.5860 C   0  0  0  0  0  2  0  0  0  0  0  0
  -30.7390  -16.3500   18.9200 C   0  0  0  0  0  2  0  0  0  0  0  0
  -30.8680  -15.9300   21.3350 C   0  0  0  0  0  2  0  0  0  0  0  0
  -29.7740  -18.0750   20.4960 C   0  0  0  0  0  3  0  0  0  0  0  0
  -30.7510  -15.3440   19.9930 N   0  0  0  0  0  0  0  0  0  0  0  0
  -26.0240  -13.8420   20.2280 C   0  0  0  0  0  0  0  0  0  0  0  0
  -24.9050  -13.1780   20.6560 C   0  0  0  0  0  0  0  0  0  0  0  0
  -25.2250  -11.7870   20.5930 C   0  0  0  0  0  0  0  0  0  0  0  0
  -26.9610  -12.8630   19.9330 N   0  0  0  0  0  0  0  0  0  0  0  0
  -26.4840  -11.6200   20.2060 N   0  0  0  0  0  0  0  0  0  0  0  0
  -24.3880  -10.6010   20.8210 C   0  0  0  0  0  0  0  0  0  0  0  0
  -24.7470   -9.6150   21.7660 C   0  0  0  0  0  3  0  0  0  0  0  0
  -23.9160   -8.4930   21.9800 C   0  0  0  0  0  3  0  0  0  0  0  0
  -22.7120   -8.3530   21.2500 C   0  0  0  0  0  0  0  0  0  0  0  0
  -22.3710   -9.3260   20.2960 C   0  0  0  0  0  3  0  0  0  0  0  0
  -23.2020  -10.4390   20.0790 C   0  0  0  0  0  3  0  0  0  0  0  0
  -21.8570   -7.2850   21.3750 O   0  0  0  0  0  0  0  0  0  0  0  0
  -21.7350   -6.5930   22.5530 C   0  0  0  0  0  0  0  0  0  0  0  0
  -21.3580   -7.2300   23.7560 C   0  0  0  0  0  3  0  0  0  0  0  0
  -21.1770   -6.4690   24.9290 C   0  0  0  0  0  3  0  0  0  0  0  0
  -21.3610   -5.0730   24.8980 C   0  0  0  0  0  0  0  0  0  0  0  0
  -21.7310   -4.4370   23.7000 C   0  0  0  0  0  3  0  0  0  0  0  0
  -21.9130   -5.1950   22.5310 C   0  0  0  0  0  0  0  0  0  0  0  0
  -22.2480   -4.5730   21.3740 F   0  0  0  0  0  0  0  0  0  0  0  0
  -21.1790   -4.3420   26.0220 F   0  0  0  0  0  0  0  0  0  0  0  0
  -23.5830  -13.7900   21.0160 C   0  0  0  0  0  0  0  0  0  0  0  0
  -22.8630  -13.1870   21.9550 N   0  0  0  0  0  0  0  0  0  0  0  0
  -23.2030  -14.8390   20.4990 O   0  0  0  0  0  0  0  0  0  0  0  0
  -23.1840  -12.3370   22.3930 H   0  0  0  0  0  0  0  0  0  0  0  0
  -21.9790  -13.5820   22.2390 H   0  0  0  0  0  0  0  0  0  0  0  0
  -26.3160  -15.1900   20.0470 N   0  0  0  0  0  0  0  0  0  0  0  0
  -25.6340  -15.9200   20.2190 H   0  0  0  0  0  0  0  0  0  0  0  0
  -27.1980  -15.5430   19.7030 H   0  0  0  0  0  0  0  0  0  0  0  0
  -28.9920  -27.1730   20.3560 O   0  0  0  0  0  0  0  0  0  0  0  0
  -24.6950  -31.9570   23.3760 C   0  0  0  0  0  0  0  0  0  0  0  0
  -27.7720  -27.8100   20.3150 C   0  0  0  0  0  0  0  0  0  0  0  0
  -23.6660  -30.5430   21.6220 C   0  0  0  0  0  3  0  0  0  0  0  0
  -25.2870  -29.1450   20.2360 C   0  0  0  0  0  0  0  0  0  0  0  0
  -26.1660  -31.0690   21.5700 C   0  0  0  0  0  2  0  0  0  0  0  0
  -26.3730  -29.7270   20.9010 C   0  0  0  0  0  0  0  0  0  0  0  0
  -27.6180  -29.0650   20.9400 C   0  0  0  0  0  3  0  0  0  0  0  0
  -26.6740  -27.2310   19.6450 C   0  0  0  0  0  3  0  0  0  0  0  0
  -25.4280  -27.8940   19.6070 C   0  0  0  0  0  3  0  0  0  0  0  0
  -23.9900  -29.9260   20.2360 C   0  0  0  0  0  2  0  0  0  0  0  0
  -24.8560  -31.2030   22.2510 N   0  0  0  0  0  0  0  0  0  0  0  0
  -23.5730  -32.1430   23.8670 O   0  0  0  0  0  0  0  0  0  0  0  0
  -23.0330  -29.4520   22.5130 C   0  0  0  0  0  0  0  0  0  0  0  0
  -21.7270  -29.2070   22.3200 N   0  0  0  0  0  0  0  0  0  0  0  0
  -23.7140  -28.8290   23.3310 O   0  0  0  0  0  0  0  0  0  0  0  0
  -21.2380  -29.7620   21.6310 H   0  0  0  0  0  0  0  0  0  0  0  0
  -18.3980  -27.8460   22.6390 C   0  0  0  0  0  0  0  0  0  0  0  0
  -20.9320  -28.1970   23.0170 C   0  0  0  0  0  3  0  0  0  0  0  0
  -21.1180  -26.8020   22.3770 C   0  0  0  0  0  2  0  0  0  0  0  0
  -20.0660  -26.4850   21.3090 C   0  0  0  0  0  2  0  0  0  0  0  0
  -18.6570  -26.5400   21.9070 C   0  0  0  0  0  2  0  0  0  0  0  0
  -19.4680  -28.6310   23.1480 C   0  0  0  0  0  0  0  0  0  0  0  0
  -19.1730  -29.8560   23.7860 C   0  0  0  0  0  3  0  0  0  0  0  0
  -17.8440  -30.2950   23.9270 C   0  0  0  0  0  3  0  0  0  0  0  0
  -16.7890  -29.5060   23.4370 C   0  0  0  0  0  3  0  0  0  0  0  0
  -17.0670  -28.2830   22.8000 C   0  0  0  0  0  3  0  0  0  0  0  0
  -25.9070  -32.6400   24.0840 C   0  0  0  0  0  3  0  0  0  0  0  0
  -26.3390  -31.9160   25.4170 C   0  0  1  0  0  0  0  0  0  0  0  0
  -25.1610  -31.6320   26.3780 C   0  0  0  0  0  1  0  0  0  0  0  0
  -27.0320  -30.5700   25.1010 C   0  0  0  0  0  1  0  0  0  0  0  0
  -27.3740  -32.7830   26.1730 C   0  0  0  0  0  1  0  0  0  0  0  0
  -25.5340  -34.0360   24.3490 N   0  0  0  0  0  0  0  0  0  0  0  0
  -25.9140  -35.0790   23.5970 C   0  0  0  0  0  0  0  0  0  0  0  0
  -26.6830  -34.9690   22.6370 O   0  0  0  0  0  0  0  0  0  0  0  0
  -24.8650  -34.1950   25.0870 H   0  0  0  0  0  0  0  0  0  0  0  0
  -24.1770  -36.8020   23.0320 C   0  0  0  0  0  1  0  0  0  0  0  0
  -25.3490  -36.4630   23.9680 C   0  0  0  0  0  3  0  0  0  0  0  0
  -27.3810  -37.4220   24.9560 C   0  0  0  0  0  1  0  0  0  0  0  0
  -26.3570  -37.5440   23.9200 N   0  0  0  0  0  0  0  0  0  0  0  0
  -25.9160  -38.4550   24.0160 H   0  0  0  0  0  0  0  0  0  0  0  0
  2  5  2  0
  2  6  1  0
  3  9  1  0
  3  1  2  0
  4  1  1  0
  4  7  1  0
  5  3  1  0
  6  4  2  0
  8  5  1  0
  9 10  2  0
 11 12  1  0
 11  9  1  0
 13 19  1  0
 13 26  1  0
 14 19  1  0
 15 16  1  0
 15 14  1  0
 17 16  1  0
 17 30  1  0
 17 18  1  0
 19 18  1  0
 20 13  2  0
 21 25  1  0
 23 21  1  0
 23 26  1  0
 24 22  1  0
 25 12  1  0
 25 22  1  0
 26 24  1  0
 27 28  2  0
 28 47  1  0
 29 28  1  0
 29 32  1  0
 30 31  1  0
 30 27  1  0
 31 29  2  0
 32 33  1  0
 33 34  2  0
 35 38  1  0
 35 34  1  0
 36 35  2  0
 37 36  1  0
 37 32  2  0
 38 39  1  0
 39 40  1  0
 40 41  2  0
 42 41  1  0
 42 46  1  0
 43 42  2  0
 44 39  2  0
 44 43  1  0
 45 44  1  0
 47 48  1  0
 48 51  1  0
 48 50  1  0
 49 47  2  0
 52 53  1  0
 52 27  1  0
 54 52  1  0
 55  6  1  0
 56 67  2  0
 57 55  1  0
 57 62  1  0
 58 66  1  0
 58 68  1  0
 59 61  1  0
 60 66  1  0
 61 62  2  0
 61 60  1  0
 63 57  2  0
 64 63  1  0
 64 59  2  0
 65 59  1  0
 65 58  1  0
 66 56  1  0
 68 70  2  0
 69 68  1  0
 71 69  1  0
 72 81  2  0
 72 77  1  0
 73 69  1  0
 73 77  1  0
 74 73  1  0
 75 76  1  0
 75 74  1  0
 76 72  1  0
 77 78  2  0
 78 79  1  0
 80 79  2  0
 81 80  1  0
 82 56  1  0
 82 87  1  0
 82 83  1  0
 83 86  1  1
 83 84  1  0
 85 83  1  0
 87 90  1  0
 88 92  1  0
 88 87  1  0
 89 88  2  0
 92 91  1  0
 94 92  1  0
 94 95  1  0
 94 93  1  0
M  ISO  4   6 101  13 100  26 100  55 101
M  END
>  <TORSDO>  (93) 
F 19

>  <SCORE>  (93) 
-13.755

>  <name>  (93) 
92

>  <ligand_id>  (93) 
92

>  <original_smiles>  (93) 
[H]c1c([H])c([H])c2c(c1[H])C([H])([H])C([H])([H])C([H])([H])C2([H])N([H])C(=O)C1([H])N(C(=O)C([H])(N([H])C(=O)C([H])(N([H])C([H])([H])[H])C([H])([H])[H])C(C([H])([H])[H])(C([H])([H])[H])C([H])([H])[H])C([H])([H])c2c([H])c(Oc3c([H])c(C([H])([H])[H])c(C(=O)C([H])([H])C([H])([H])C4([H])C([H])([H])C([H])([H])N(C(=O)N5C([H])([H])C([H])([H])C([H])([H])C([H])(n6nc(-c7c([H])c([H])c(Oc8c([H])c([H])c(F)c([H])c8F)c([H])c7[H])c(C(=O)N([H])[H])c6N([H])[H])C5([H])[H])C([H])([H])C4([H])[H])c([H])c3C([H])([H])[H])c([H])c([H])c2C1([H])[H]

>  <smiles>  (93) 
[H]c1c([H])c([H])c2c(c1[H])C([H])([H])C([H])([H])C([H])([H])C2([H])N([H])C(=O)C1([H])N(C(=O)C([H])(N([H])C(=O)C([H])(N([H])C([H])([H])[H])C([H])([H])[H])C(C([H])([H])[H])(C([H])([H])[H])C([H])([H])[H])C([H])([H])c2c([H])c(Oc3c([H])c(C([H])([H])[H])c(C(=O)C([H])([H])C([H])([H])C4([H])C([H])([H])C([H])([H])N(C(=O)N5C([H])([H])C([H])([H])C([H])([H])C([H])(n6nc(-c7c([H])c([H])c(Oc8c([H])c([H])c(F)c([H])c8F)c([H])c7[H])c(C(=O)N([H])[H])c6N([H])[H])C5([H])[H])C([H])([H])C4([H])[H])c([H])c3C([H])([H])[H])c([H])c([H])c2C1([H])[H]

$$$$
93:0:0
     RDKit          3D

 96106  0  0  1  0  0  0  0  0999 V2000
  -29.6740  -23.3130   21.2590 C   0  0  0  0  0  3  0  0  0  0  0  0
  -29.3390  -25.7100   21.0100 C   0  0  0  0  0  3  0  0  0  0  0  0
  -30.2080  -24.5500   20.8520 C   0  0  0  0  0  0  0  0  0  0  0  0
  -28.3580  -23.1750   21.7370 C   0  0  0  0  0  0  0  0  0  0  0  0
  -27.5160  -24.3080   21.8860 C   0  0  0  0  0  0  0  0  0  0  0  0
  -27.9750  -25.6050   21.5310 C   0  0  0  0  0  0  0  0  0  0  0  0
  -27.8640  -21.7720   22.0650 C   0  0  0  0  0  1  0  0  0  0  0  0
  -26.1040  -24.1560   22.4470 C   0  0  0  0  0  1  0  0  0  0  0  0
  -35.6770  -24.1270   20.3790 C   0  0  0  0  0  3  0  0  0  0  0  0
  -34.9340  -21.8500   19.0040 C   0  0  0  0  0  3  0  0  0  0  0  0
  -36.7360  -23.1740   20.0450 C   0  0  0  0  0  0  0  0  0  0  0  0
  -34.2720  -23.9530   20.0270 C   0  0  0  0  0  0  0  0  0  0  0  0
  -33.9870  -22.8800   19.1630 C   0  0  0  0  0  0  0  0  0  0  0  0
  -36.2330  -21.9280   19.5550 C   0  0  0  0  0  0  0  0  0  0  0  0
  -31.4850  -23.4490   19.1390 C   0  0  0  0  0  3  0  0  0  0  0  0
  -31.5610  -24.3700   20.1170 C   0  0  0  0  0  0  0  0  0  0  0  0
  -32.6580  -22.8090   18.4250 C   0  0  0  0  0  3  0  0  0  0  0  0
  -33.0300  -24.8200   20.5340 C   0  0  0  0  0  3  0  0  0  0  0  0
  -36.9720  -20.5980   19.6870 C   0  0  0  0  0  1  0  0  0  0  0  0
  -38.2680  -23.4440   20.3210 C   0  0  0  0  0  0  0  0  0  0  0  0
  -40.4890  -24.2110   19.4090 C   0  0  0  0  0  2  0  0  0  0  0  0
  -40.3170  -25.4670   18.5140 C   0  0  0  0  0  2  0  0  0  0  0  0
  -39.9450  -25.0850   17.0650 C   0  0  0  0  0  2  0  0  0  0  0  0
  -38.8200  -24.0260   17.0150 C   0  0  0  0  0  3  0  0  0  0  0  0
  -39.1330  -22.8710   17.9670 C   0  0  0  0  0  2  0  0  0  0  0  0
  -39.2430  -23.4010   19.3330 N   0  0  0  0  0  0  0  0  0  0  0  0
  -38.5880  -23.8670   21.4390 O   0  0  0  0  0  0  0  0  0  0  0  0
  -37.3520  -23.4160   15.0000 C   0  0  0  0  0  0  0  0  0  0  0  0
  -37.6570  -22.9780   13.7410 C   0  0  0  0  0  0  0  0  0  0  0  0
  -39.0780  -22.8270   13.7120 C   0  0  0  0  0  0  0  0  0  0  0  0
  -38.5600  -23.5340   15.6660 N   0  0  0  0  0  0  0  0  0  0  0  0
  -39.5980  -23.1100   14.9000 N   0  0  0  0  0  0  0  0  0  0  0  0
  -39.9800  -22.4930   12.6040 C   0  0  0  0  0  0  0  0  0  0  0  0
  -40.8790  -21.4070   12.6830 C   0  0  0  0  0  3  0  0  0  0  0  0
  -41.7270  -21.1000   11.5970 C   0  0  0  0  0  3  0  0  0  0  0  0
  -41.6770  -21.8800   10.4170 C   0  0  0  0  0  0  0  0  0  0  0  0
  -40.7960  -22.9730   10.3540 C   0  0  0  0  0  3  0  0  0  0  0  0
  -39.9580  -23.2800   11.4370 C   0  0  0  0  0  3  0  0  0  0  0  0
  -42.4820  -21.6730    9.3230 O   0  0  0  0  0  0  0  0  0  0  0  0
  -42.9600  -20.4270    9.0060 C   0  0  0  0  0  0  0  0  0  0  0  0
  -42.0940  -19.3360    8.7700 C   0  0  0  0  0  3  0  0  0  0  0  0
  -42.6250  -18.0880    8.3790 C   0  0  0  0  0  3  0  0  0  0  0  0
  -44.0150  -17.9340    8.2150 C   0  0  0  0  0  0  0  0  0  0  0  0
  -44.8760  -19.0210    8.4470 C   0  0  0  0  0  3  0  0  0  0  0  0
  -44.3490  -20.2640    8.8380 C   0  0  0  0  0  0  0  0  0  0  0  0
  -45.1820  -21.3130    9.0380 F   0  0  0  0  0  0  0  0  0  0  0  0
  -44.5260  -16.7400    7.8350 F   0  0  0  0  0  0  0  0  0  0  0  0
  -36.6990  -22.7940   12.6000 C   0  0  0  0  0  0  0  0  0  0  0  0
  -36.9620  -21.8250   11.7320 N   0  0  0  0  0  0  0  0  0  0  0  0
  -35.6840  -23.4830   12.5000 O   0  0  0  0  0  0  0  0  0  0  0  0
  -37.7860  -21.2530   11.8300 H   0  0  0  0  0  0  0  0  0  0  0  0
  -36.3290  -21.6510   10.9640 H   0  0  0  0  0  0  0  0  0  0  0  0
  -36.1550  -23.7450   15.6300 N   0  0  0  0  0  0  0  0  0  0  0  0
  -35.2560  -23.6960   15.1620 H   0  0  0  0  0  0  0  0  0  0  0  0
  -36.0810  -24.0050   16.6060 H   0  0  0  0  0  0  0  0  0  0  0  0
  -27.1080  -26.6850   21.8630 O   0  0  0  0  0  0  0  0  0  0  0  0
  -20.1780  -26.0710   19.6740 C   0  0  0  0  0  0  0  0  0  0  0  0
  -26.0040  -27.1030   21.0980 C   0  0  0  0  0  0  0  0  0  0  0  0
  -21.6240  -27.6270   18.4210 C   0  0  0  0  0  3  0  0  0  0  0  0
  -23.8840  -28.1650   19.4900 C   0  0  0  0  0  0  0  0  0  0  0  0
  -22.0920  -27.1490   20.8940 C   0  0  0  0  0  2  0  0  0  0  0  0
  -23.5740  -27.3910   20.6140 C   0  0  0  0  0  0  0  0  0  0  0  0
  -24.6270  -26.8770   21.4310 C   0  0  0  0  0  3  0  0  0  0  0  0
  -26.2630  -27.9040   19.9700 C   0  0  0  0  0  3  0  0  0  0  0  0
  -25.2270  -28.4290   19.1700 C   0  0  0  0  0  3  0  0  0  0  0  0
  -22.7310  -28.6890   18.6580 C   0  0  0  0  0  2  0  0  0  0  0  0
  -21.2700  -26.8900   19.6770 N   0  0  0  0  0  0  0  0  0  0  0  0
  -19.4620  -25.9540   18.6700 O   0  0  0  0  0  0  0  0  0  0  0  0
  -22.0650  -26.6960   17.2630 C   0  0  0  0  0  0  0  0  0  0  0  0
  -21.8850  -27.1600   16.0150 N   0  0  0  0  0  0  0  0  0  0  0  0
  -22.5770  -25.6000   17.5000 O   0  0  0  0  0  0  0  0  0  0  0  0
  -21.4410  -28.0610   15.9030 H   0  0  0  0  0  0  0  0  0  0  0  0
  -21.8660  -27.4080   12.4020 C   0  0  0  0  0  0  0  0  0  0  0  0
  -22.2760  -26.4750   14.7800 C   0  0  0  0  0  3  0  0  0  0  0  0
  -23.7820  -26.6730   14.4880 C   0  0  0  0  0  2  0  0  0  0  0  0
  -24.0680  -27.8630   13.5670 C   0  0  0  0  0  2  0  0  0  0  0  0
  -23.3490  -27.6920   12.2250 C   0  0  0  0  0  2  0  0  0  0  0  0
  -21.3630  -26.8500   13.6080 C   0  0  0  0  0  0  0  0  0  0  0  0
  -19.9730  -26.6340   13.7360 C   0  0  0  0  0  3  0  0  0  0  0  0
  -19.0940  -26.9620   12.6880 C   0  0  0  0  0  3  0  0  0  0  0  0
  -19.6000  -27.5000   11.4900 C   0  0  0  0  0  3  0  0  0  0  0  0
  -20.9820  -27.7170   11.3470 C   0  0  0  0  0  3  0  0  0  0  0  0
  -19.7630  -25.2590   20.9410 C   0  0  0  0  0  3  0  0  0  0  0  0
  -18.4530  -25.7630   21.3780 N   0  0  0  0  0  0  0  0  0  0  0  0
  -18.2430  -26.4840   22.4900 C   0  0  0  0  0  0  0  0  0  0  0  0
  -19.1390  -26.7430   23.2970 O   0  0  0  0  0  0  0  0  0  0  0  0
  -17.6830  -25.6270   20.7400 H   0  0  0  0  0  0  0  0  0  0  0  0
  -16.7280  -28.4890   22.3700 C   0  0  0  0  0  1  0  0  0  0  0  0
  -16.8150  -27.0030   22.7470 C   0  0  0  0  0  3  0  0  0  0  0  0
  -16.1560  -25.4230   24.5110 C   0  0  0  0  0  1  0  0  0  0  0  0
  -16.3670  -26.8210   24.1460 N   0  0  0  0  0  0  0  0  0  0  0  0
  -15.5050  -27.3270   24.3160 H   0  0  0  0  0  0  0  0  0  0  0  0
  -19.7070  -23.7030   20.6850 C   0  0  1  0  0  0  0  0  0  0  0  0
  -18.8360  -23.3020   19.4730 C   0  0  0  0  0  1  0  0  0  0  0  0
  -21.1230  -23.1350   20.4500 C   0  0  0  0  0  1  0  0  0  0  0  0
  -19.1460  -22.9910   21.9380 C   0  0  0  0  0  1  0  0  0  0  0  0
  1  4  1  0
  2  6  2  0
  3  2  1  0
  3  1  2  0
  4  5  2  0
  4  7  1  0
  5  8  1  0
  6 56  1  0
  6  5  1  0
 10 13  2  0
 10 14  1  0
 11 20  1  0
 11  9  1  0
 12  9  2  0
 12 18  1  0
 13 12  1  0
 14 19  1  0
 14 11  2  0
 15 16  1  0
 16 18  2  0
 16  3  1  0
 17 15  2  0
 17 13  1  0
 20 27  2  0
 22 21  1  0
 23 22  1  0
 24 31  1  0
 24 23  1  0
 24 25  1  0
 25 26  1  0
 26 21  1  0
 26 20  1  0
 28 53  1  0
 28 31  1  0
 29 28  2  0
 30 29  1  0
 30 32  2  0
 32 31  1  0
 33 34  1  0
 33 30  1  0
 35 34  2  0
 36 35  1  0
 37 36  2  0
 37 38  1  0
 38 33  2  0
 39 36  1  0
 40 39  1  0
 41 40  2  0
 42 41  1  0
 43 42  2  0
 43 44  1  0
 44 45  2  0
 45 40  1  0
 45 46  1  0
 47 43  1  0
 48 29  1  0
 49 51  1  0
 49 48  1  0
 50 48  2  0
 52 49  1  0
 53 55  1  0
 54 53  1  0
 57 67  1  0
 58 63  1  0
 58 56  1  0
 59 69  1  0
 59 66  1  0
 59 67  1  0
 60 62  1  0
 62 61  1  0
 62 63  2  0
 64 58  2  0
 65 60  2  0
 65 64  1  0
 66 60  1  0
 67 61  1  0
 68 57  2  0
 69 71  2  0
 70 69  1  0
 72 70  1  0
 73 78  1  0
 74 70  1  0
 75 74  1  0
 76 75  1  0
 77 73  1  0
 77 76  1  0
 78 79  2  0
 78 74  1  0
 80 79  1  0
 81 80  2  0
 82 81  1  0
 82 73  2  0
 83 57  1  0
 83 84  1  0
 84 85  1  0
 85 89  1  0
 85 86  2  0
 87 84  1  0
 89 88  1  0
 89 91  1  0
 91 92  1  0
 91 90  1  0
 93 83  1  0
 93 96  1  1
 94 93  1  0
 95 93  1  0
M  ISO  4   6 101  11 100  20 100  56 101
M  END
>  <TORSDO>  (94) 
F 17

>  <SCORE>  (94) 
-3.087

>  <name>  (94) 
93

>  <ligand_id>  (94) 
93

>  <original_smiles>  (94) 
[H]C1=C(c2c([H])c(Oc3c([H])c([H])c4c(c3[H])C([H])([H])N(C(=O)C([H])(N([H])C(=O)C([H])(N([H])C([H])([H])[H])C([H])([H])[H])C(C([H])([H])[H])(C([H])([H])[H])C([H])([H])[H])C([H])(C(=O)N([H])C3([H])c5c([H])c([H])c([H])c([H])c5C([H])([H])C([H])([H])C3([H])[H])C4([H])[H])c(C([H])([H])[H])c(C([H])([H])[H])c2[H])C([H])([H])c2c([H])c(C(=O)N3C([H])([H])C([H])([H])C([H])([H])C([H])(n4nc(-c5c([H])c([H])c(Oc6c([H])c([H])c(F)c([H])c6F)c([H])c5[H])c(C(=O)N([H])[H])c4N([H])[H])C3([H])[H])c(C([H])([H])[H])c([H])c2C1([H])[H]

>  <smiles>  (94) 
[H]C1=C(c2c([H])c(Oc3c([H])c([H])c4c(c3[H])C([H])([H])N(C(=O)C([H])(N([H])C(=O)C([H])(N([H])C([H])([H])[H])C([H])([H])[H])C(C([H])([H])[H])(C([H])([H])[H])C([H])([H])[H])C([H])(C(=O)N([H])C3([H])c5c([H])c([H])c([H])c([H])c5C([H])([H])C([H])([H])C3([H])[H])C4([H])[H])c(C([H])([H])[H])c(C([H])([H])[H])c2[H])C([H])([H])c2c([H])c(C(=O)N3C([H])([H])C([H])([H])C([H])([H])C([H])(n4nc(-c5c([H])c([H])c(Oc6c([H])c([H])c(F)c([H])c6F)c([H])c5[H])c(C(=O)N([H])[H])c4N([H])[H])C3([H])[H])c(C([H])([H])[H])c([H])c2C1([H])[H]

$$$$
