0:0:0
     RDKit          3D

 86 92  0  0  1  0  0  0  0  0999 V2000
  -29.7320  -19.1100   21.1340 C   0  0  0  0  0  3  0  0  0  0  0  0
  -28.8050  -18.8730   19.2190 C   0  0  0  0  0  3  0  0  0  0  0  0
  -29.5060  -17.9270   20.1890 C   0  0  0  0  0  0  0  0  0  0  0  0
  -29.3350  -20.6410   21.1640 C   0  0  0  0  0  0  0  0  0  0  0  0
  -28.4180  -20.4060   19.2090 C   0  0  0  0  0  0  0  0  0  0  0  0
  -28.6150  -21.5780   20.1840 C   0  0  0  0  0  3  0  0  0  0  0  0
  -29.7420  -21.3200   22.4580 C   0  0  0  0  0  1  0  0  0  0  0  0
  -27.6810  -20.7910   17.9400 C   0  0  0  0  0  1  0  0  0  0  0  0
  -30.1450  -16.1580   20.1090 C   0  0  0  0  0  0  0  0  0  0  0  0
  -30.3260  -13.5230   19.3260 C   0  0  0  0  0  2  0  0  0  0  0  0
  -29.4510  -12.9520   18.1620 C   0  0  0  0  0  2  0  0  0  0  0  0
  -28.0740  -12.5070   18.6670 C   0  0  0  0  0  2  0  0  0  0  0  0
  -27.5250  -13.5260   19.6840 C   0  0  0  0  0  3  0  0  0  0  0  0
  -28.5490  -14.0040   20.7460 C   0  0  0  0  0  2  0  0  0  0  0  0
  -29.6530  -14.7320   20.0480 N   0  0  0  0  0  0  0  0  0  0  0  0
  -31.3790  -15.9940   19.9530 O   0  0  0  0  0  0  0  0  0  0  0  0
  -25.1960  -13.9900   20.5580 C   0  0  0  0  0  0  0  0  0  0  0  0
  -24.1600  -13.1890   20.9370 C   0  0  0  0  0  0  0  0  0  0  0  0
  -24.6430  -11.8460   20.8550 C   0  0  0  0  0  0  0  0  0  0  0  0
  -26.2410  -13.1400   20.2540 N   0  0  0  0  0  0  0  0  0  0  0  0
  -25.9260  -11.8380   20.4970 N   0  0  0  0  0  0  0  0  0  0  0  0
  -23.9300  -10.5710   21.0390 C   0  0  0  0  0  0  0  0  0  0  0  0
  -24.3730   -9.5980   21.9600 C   0  0  0  0  0  3  0  0  0  0  0  0
  -23.6530   -8.3960   22.1370 C   0  0  0  0  0  3  0  0  0  0  0  0
  -22.4730   -8.1590   21.3910 C   0  0  0  0  0  0  0  0  0  0  0  0
  -22.0470   -9.1220   20.4600 C   0  0  0  0  0  3  0  0  0  0  0  0
  -22.7690  -10.3150   20.2820 C   0  0  0  0  0  3  0  0  0  0  0  0
  -21.7270   -7.0080   21.4750 O   0  0  0  0  0  0  0  0  0  0  0  0
  -21.6670   -6.2710   22.6300 C   0  0  0  0  0  0  0  0  0  0  0  0
  -21.1780   -6.8180   23.8380 C   0  0  0  0  0  3  0  0  0  0  0  0
  -21.0670   -6.0060   24.9840 C   0  0  0  0  0  3  0  0  0  0  0  0
  -21.4350   -4.6480   24.9240 C   0  0  0  0  0  0  0  0  0  0  0  0
  -21.9170   -4.1010   23.7230 C   0  0  0  0  0  3  0  0  0  0  0  0
  -22.0290   -4.9100   22.5780 C   0  0  0  0  0  0  0  0  0  0  0  0
  -22.4730   -4.3720   21.4170 F   0  0  0  0  0  0  0  0  0  0  0  0
  -21.3220   -3.8650   26.0230 F   0  0  0  0  0  0  0  0  0  0  0  0
  -22.7670  -13.6460   21.2570 C   0  0  0  0  0  0  0  0  0  0  0  0
  -22.0730  -12.9300   22.1330 N   0  0  0  0  0  0  0  0  0  0  0  0
  -22.3070  -14.6770   20.7660 O   0  0  0  0  0  0  0  0  0  0  0  0
  -22.4610  -12.0980   22.5510 H   0  0  0  0  0  0  0  0  0  0  0  0
  -21.1410  -13.2210   22.3920 H   0  0  0  0  0  0  0  0  0  0  0  0
  -25.3350  -15.3670   20.4110 N   0  0  0  0  0  0  0  0  0  0  0  0
  -24.5630  -16.0050   20.5730 H   0  0  0  0  0  0  0  0  0  0  0  0
  -26.1720  -15.8350   20.0850 H   0  0  0  0  0  0  0  0  0  0  0  0
  -27.8380  -23.4280   20.2430 C   0  0  0  0  0 15  0  0  0  0  0  0
  -28.0660  -25.2930   20.2690 O   0  0  0  0  0  1  0  0  0  0  0  0
  -24.6290  -31.9040   23.2070 C   0  0  0  0  0  0  0  0  0  0  0  0
  -27.1310  -26.6220   20.2400 C   0  0  0  0  0  0  0  0  0  0  0  0
  -23.4450  -30.5000   21.5800 C   0  0  0  0  0  3  0  0  0  0  0  0
  -24.8900  -28.8060   20.1790 C   0  0  0  0  0  0  0  0  0  0  0  0
  -26.0340  -30.5750   21.4770 C   0  0  0  0  0  2  0  0  0  0  0  0
  -26.0940  -29.1170   20.8220 C   0  0  0  0  0  0  0  0  0  0  0  0
  -27.1880  -28.0620   20.8110 C   0  0  0  0  0  3  0  0  0  0  0  0
  -25.8890  -26.5850   19.5370 C   0  0  0  0  0  3  0  0  0  0  0  0
  -24.8410  -27.5680   19.5110 C   0  0  0  0  0  3  0  0  0  0  0  0
  -23.6930  -29.7840   20.2170 C   0  0  0  0  0  2  0  0  0  0  0  0
  -24.7290  -31.0330   22.1390 N   0  0  0  0  0  0  0  0  0  0  0  0
  -23.5320  -32.2140   23.7070 O   0  0  0  0  0  0  0  0  0  0  0  0
  -22.7100  -29.5430   22.5600 C   0  0  0  0  0  0  0  0  0  0  0  0
  -21.3750  -29.3950   22.4350 N   0  0  0  0  0  0  0  0  0  0  0  0
  -23.3570  -28.9280   23.4110 O   0  0  0  0  0  0  0  0  0  0  0  0
  -20.8990  -29.9400   21.7290 H   0  0  0  0  0  0  0  0  0  0  0  0
  -17.9830  -28.1860   22.9700 C   0  0  0  0  0  0  0  0  0  0  0  0
  -20.5460  -28.4620   23.2130 C   0  0  0  0  0  3  0  0  0  0  0  0
  -20.6440  -27.0280   22.6420 C   0  0  0  0  0  2  0  0  0  0  0  0
  -19.5380  -26.7040   21.6330 C   0  0  0  0  0  2  0  0  0  0  0  0
  -18.1590  -26.8420   22.2840 C   0  0  0  0  0  2  0  0  0  0  0  0
  -19.1020  -28.9550   23.3900 C   0  0  0  0  0  0  0  0  0  0  0  0
  -18.8790  -30.2080   23.9990 C   0  0  0  0  0  3  0  0  0  0  0  0
  -17.5710  -30.6960   24.1860 C   0  0  0  0  0  3  0  0  0  0  0  0
  -16.4680  -29.9270   23.7770 C   0  0  0  0  0  3  0  0  0  0  0  0
  -16.6760  -28.6730   23.1750 C   0  0  0  0  0  3  0  0  0  0  0  0
  -25.8820  -32.5680   23.8530 C   0  0  0  0  0  3  0  0  0  0  0  0
  -25.5510  -33.9720   24.1840 N   0  0  0  0  0  0  0  0  0  0  0  0
  -25.8680  -35.0410   23.4400 C   0  0  0  0  0  0  0  0  0  0  0  0
  -26.5190  -34.9520   22.3980 O   0  0  0  0  0  0  0  0  0  0  0  0
  -24.9630  -34.1130   24.9920 H   0  0  0  0  0  0  0  0  0  0  0  0
  -24.1210  -36.8410   23.1700 C   0  0  0  0  0  1  0  0  0  0  0  0
  -25.3940  -36.4290   23.9280 C   0  0  0  0  0  3  0  0  0  0  0  0
  -27.5470  -37.3360   24.6910 C   0  0  0  0  0  1  0  0  0  0  0  0
  -26.4160  -37.4900   23.7810 N   0  0  0  0  0  0  0  0  0  0  0  0
  -26.0080  -38.4080   23.9380 H   0  0  0  0  0  0  0  0  0  0  0  0
  -26.3710  -31.8240   25.1590 C   0  0  1  0  0  0  0  0  0  0  0  0
  -25.2540  -31.6060   26.2080 C   0  0  0  0  0  1  0  0  0  0  0  0
  -26.9630  -30.4380   24.8220 C   0  0  0  0  0  1  0  0  0  0  0  0
  -27.5080  -32.6310   25.8290 C   0  0  0  0  0  1  0  0  0  0  0  0
  1  4  1  0
  2  3  1  0
  3  1  2  0
  4  7  1  0
  5  2  2  0
  5  6  1  0
  6  4  2  0
  8  5  1  0
  9  3  1  0
 10 15  1  0
 11 12  1  0
 11 10  1  0
 13 12  1  0
 13 20  1  0
 13 14  1  0
 15  9  1  0
 15 14  1  0
 16  9  2  0
 17 18  2  0
 18 37  1  0
 19 18  1  0
 19 22  1  0
 20 21  1  0
 20 17  1  0
 21 19  2  0
 22 23  1  0
 23 24  2  0
 25 28  1  0
 25 24  1  0
 26 25  2  0
 27 26  1  0
 27 22  2  0
 28 29  1  0
 29 30  1  0
 30 31  2  0
 32 31  1  0
 32 36  1  0
 33 32  2  0
 34 29  2  0
 34 33  1  0
 35 34  1  0
 37 38  1  0
 38 41  1  0
 38 40  1  0
 39 37  2  0
 42 17  1  0
 42 43  1  0
 44 42  1  0
 47 58  2  0
 48 46  1  0
 48 53  1  0
 49 57  1  0
 49 59  1  0
 50 56  1  0
 50 52  1  0
 51 57  1  0
 52 51  1  0
 53 52  2  0
 54 48  2  0
 55 54  1  0
 55 50  2  0
 56 49  1  0
 57 47  1  0
 59 61  2  0
 60 59  1  0
 62 60  1  0
 63 72  2  0
 63 68  1  0
 64 60  1  0
 64 68  1  0
 65 64  1  0
 66 67  1  0
 66 65  1  0
 67 63  1  0
 68 69  2  0
 69 70  1  0
 71 70  2  0
 72 71  1  0
 73 47  1  0
 73 74  1  0
 73 83  1  0
 74 77  1  0
 75 79  1  0
 75 74  1  0
 76 75  2  0
 79 78  1  0
 81 79  1  0
 81 82  1  0
 81 80  1  0
 83 86  1  1
 83 84  1  0
 85 83  1  0
M  ISO  4   3 100   9 100  45 101  46 101
M  END
>  <TORSDO>  (1) 
F 17

>  <SCORE>  (1) 
-16.500

>  <name>  (1) 
0

>  <ligand_id>  (1) 
0

>  <original_smiles>  (1) 
[H]c1c([H])c([H])c2c(c1[H])C([H])([H])C([H])([H])C([H])([H])C2([H])N([H])C(=O)C1([H])N(C(=O)C([H])(N([H])C(=O)C([H])(N([H])C([H])([H])[H])C([H])([H])[H])C(C([H])([H])[H])(C([H])([H])[H])C([H])([H])[H])C([H])([H])c2c([H])c(OC([H])([H])c3c(C([H])([H])[H])c([H])c(C(=O)N4C([H])([H])C([H])([H])C([H])([H])C([H])(n5nc(-c6c([H])c([H])c(Oc7c([H])c([H])c(F)c([H])c7F)c([H])c6[H])c(C(=O)N([H])[H])c5N([H])[H])C4([H])[H])c([H])c3C([H])([H])[H])c([H])c([H])c2C1([H])[H]

>  <smiles>  (1) 
[H]c1c([H])c([H])c2c(c1[H])C([H])([H])C([H])([H])C([H])([H])C2([H])N([H])C(=O)C1([H])N(C(=O)C([H])(N([H])C(=O)C([H])(N([H])C([H])([H])[H])C([H])([H])[H])C(C([H])([H])[H])(C([H])([H])[H])C([H])([H])[H])C([H])([H])c2c([H])c(OC([H])([H])c3c(C([H])([H])[H])c([H])c(C(=O)N4C([H])([H])C([H])([H])C([H])([H])C([H])(n5nc(-c6c([H])c([H])c(Oc7c([H])c([H])c(F)c([H])c7F)c([H])c6[H])c(C(=O)N([H])[H])c5N([H])[H])C4([H])[H])c([H])c3C([H])([H])[H])c([H])c([H])c2C1([H])[H]

$$$$
1:0:0
     RDKit          3D

 89 98  0  0  1  0  0  0  0  0999 V2000
  -27.8340  -21.4620   21.0060 C   0  0  0  0  0  3  0  0  0  0  0  0
  -28.9170  -22.9740   19.4760 C   0  0  0  0  0  3  0  0  0  0  0  0
  -27.0800  -22.6330   21.3560 C   0  0  0  0  0  0  0  0  0  0  0  0
  -27.1690  -23.9380   20.7860 C   0  0  0  0  0  0  0  0  0  0  0  0
  -28.8850  -21.4400   20.0440 C   0  0  0  0  0  0  0  0  0  0  0  0
  -28.0560  -24.3380   19.7520 C   0  0  0  0  0  0  0  0  0  0  0  0
  -26.0980  -22.6410   22.5110 C   0  0  0  0  0  2  0  0  0  0  0  0
  -26.2620  -24.9050   21.5130 C   0  0  0  0  0  3  0  0  0  0  0  0
  -25.6110  -24.0960   22.6550 C   0  0  0  0  0  3  0  0  0  0  0  0
  -28.0540  -25.9320   19.3750 O   0  0  0  0  0  0  0  0  0  0  0  0
  -24.9220  -32.0280   23.1920 C   0  0  0  0  0  0  0  0  0  0  0  0
  -27.1220  -27.1810   19.5740 C   0  0  0  0  0  0  0  0  0  0  0  0
  -23.6100  -30.8490   21.4790 C   0  0  0  0  0  3  0  0  0  0  0  0
  -24.9360  -29.3160   19.8290 C   0  0  0  0  0  0  0  0  0  0  0  0
  -26.1870  -30.9050   21.2580 C   0  0  0  0  0  2  0  0  0  0  0  0
  -26.1710  -29.5460   20.4490 C   0  0  0  0  0  0  0  0  0  0  0  0
  -27.2400  -28.5100   20.3010 C   0  0  0  0  0  3  0  0  0  0  0  0
  -25.8680  -27.1850   18.9060 C   0  0  0  0  0  3  0  0  0  0  0  0
  -24.8250  -28.1590   19.0370 C   0  0  0  0  0  3  0  0  0  0  0  0
  -23.7720  -30.3030   20.0290 C   0  0  0  0  0  2  0  0  0  0  0  0
  -24.9320  -31.2900   22.0300 N   0  0  0  0  0  0  0  0  0  0  0  0
  -23.8640  -32.3080   23.7840 O   0  0  0  0  0  0  0  0  0  0  0  0
  -22.9120  -29.7910   22.3740 C   0  0  0  0  0  0  0  0  0  0  0  0
  -21.5840  -29.6190   22.2280 N   0  0  0  0  0  0  0  0  0  0  0  0
  -23.5740  -29.1240   23.1710 O   0  0  0  0  0  0  0  0  0  0  0  0
  -21.0960  -30.2110   21.5690 H   0  0  0  0  0  0  0  0  0  0  0  0
  -18.2140  -28.3440   22.6850 C   0  0  0  0  0  0  0  0  0  0  0  0
  -20.7770  -28.6140   22.9300 C   0  0  0  0  0  3  0  0  0  0  0  0
  -20.8800  -27.2340   22.2330 C   0  0  0  0  0  2  0  0  0  0  0  0
  -19.7650  -26.9900   21.2120 C   0  0  0  0  0  2  0  0  0  0  0  0
  -18.3920  -27.0630   21.8890 C   0  0  0  0  0  2  0  0  0  0  0  0
  -19.3320  -29.0810   23.1610 C   0  0  0  0  0  0  0  0  0  0  0  0
  -19.1060  -30.2800   23.8690 C   0  0  0  0  0  3  0  0  0  0  0  0
  -17.7980  -30.7410   24.1110 C   0  0  0  0  0  3  0  0  0  0  0  0
  -16.6960  -30.0020   23.6490 C   0  0  0  0  0  3  0  0  0  0  0  0
  -16.9040  -28.8070   22.9380 C   0  0  0  0  0  3  0  0  0  0  0  0
  -26.2350  -32.5680   23.8320 C   0  0  0  0  0  3  0  0  0  0  0  0
  -25.9600  -33.9140   24.3670 N   0  0  0  0  0  0  0  0  0  0  0  0
  -26.3110  -35.0680   23.7850 C   0  0  0  0  0  0  0  0  0  0  0  0
  -26.9550  -35.1120   22.7350 O   0  0  0  0  0  0  0  0  0  0  0  0
  -25.3840  -33.9570   25.1950 H   0  0  0  0  0  0  0  0  0  0  0  0
  -24.6550  -36.9720   23.7590 C   0  0  0  0  0  1  0  0  0  0  0  0
  -25.8820  -36.3830   24.4720 C   0  0  0  0  0  3  0  0  0  0  0  0
  -28.0490  -37.0560   25.4140 C   0  0  0  0  0  1  0  0  0  0  0  0
  -26.9520  -37.4040   24.5180 N   0  0  0  0  0  0  0  0  0  0  0  0
  -26.5770  -38.3020   24.8130 H   0  0  0  0  0  0  0  0  0  0  0  0
  -26.7910  -31.6420   24.9850 C   0  0  1  0  0  0  0  0  0  0  0  0
  -25.7490  -31.3040   26.0770 C   0  0  0  0  0  1  0  0  0  0  0  0
  -27.3240  -30.3070   24.4200 C   0  0  0  0  0  1  0  0  0  0  0  0
  -27.9870  -32.3310   25.6770 C   0  0  0  0  0  1  0  0  0  0  0  0
  -29.8740  -19.8100   19.9300 C   0  0  0  0  0  2  0  0  0  0  0  0
  -28.4990  -17.4770   20.3870 C   0  0  0  0  0  2  0  0  0  0  0  0
  -29.7380  -17.9090   20.0890 C   0  0  0  0  0  0  0  0  0  0  0  0
  -30.7100  -16.4490   19.9560 C   0  0  0  0  0  0  0  0  0  0  0  0
  -31.0480  -13.8400   19.2990 C   0  0  0  0  0  2  0  0  0  0  0  0
  -30.1910  -13.2770   18.1200 C   0  0  0  0  0  2  0  0  0  0  0  0
  -28.8100  -12.8120   18.5970 C   0  0  0  0  0  2  0  0  0  0  0  0
  -28.2250  -13.8390   19.5910 C   0  0  0  0  0  3  0  0  0  0  0  0
  -29.2270  -14.2910   20.6800 C   0  0  0  0  0  2  0  0  0  0  0  0
  -30.3380  -15.0120   20.0040 N   0  0  0  0  0  0  0  0  0  0  0  0
  -31.9330  -16.4400   19.6970 O   0  0  0  0  0  0  0  0  0  0  0  0
  -25.9190  -14.2630   20.5590 C   0  0  0  0  0  0  0  0  0  0  0  0
  -24.8990  -13.4400   20.9410 C   0  0  0  0  0  0  0  0  0  0  0  0
  -25.3720  -12.1070   20.7420 C   0  0  0  0  0  0  0  0  0  0  0  0
  -26.9480  -13.4340   20.1600 N   0  0  0  0  0  0  0  0  0  0  0  0
  -26.6370  -12.1230   20.3270 N   0  0  0  0  0  0  0  0  0  0  0  0
  -24.6620  -10.8250   20.8480 C   0  0  0  0  0  0  0  0  0  0  0  0
  -25.0730   -9.8280   21.7590 C   0  0  0  0  0  3  0  0  0  0  0  0
  -24.3540   -8.6170   21.8630 C   0  0  0  0  0  3  0  0  0  0  0  0
  -23.2140   -8.3940   21.0540 C   0  0  0  0  0  0  0  0  0  0  0  0
  -22.8290   -9.3780   20.1240 C   0  0  0  0  0  3  0  0  0  0  0  0
  -23.5480  -10.5820   20.0180 C   0  0  0  0  0  3  0  0  0  0  0  0
  -22.4770   -7.2320   21.0700 O   0  0  0  0  0  0  0  0  0  0  0  0
  -22.2260   -6.5520   22.2360 C   0  0  0  0  0  0  0  0  0  0  0  0
  -21.5640   -7.1580   23.3280 C   0  0  0  0  0  3  0  0  0  0  0  0
  -21.2530   -6.3960   24.4710 C   0  0  0  0  0  3  0  0  0  0  0  0
  -21.6090   -5.0350   24.5300 C   0  0  0  0  0  0  0  0  0  0  0  0
  -22.2730   -4.4310   23.4480 C   0  0  0  0  0  3  0  0  0  0  0  0
  -22.5740   -5.1870   22.3010 C   0  0  0  0  0  0  0  0  0  0  0  0
  -23.1900   -4.5950   21.2510 F   0  0  0  0  0  0  0  0  0  0  0  0
  -21.3020   -4.3020   25.6250 F   0  0  0  0  0  0  0  0  0  0  0  0
  -23.5220  -13.8750   21.3410 C   0  0  0  0  0  0  0  0  0  0  0  0
  -22.8610  -13.1080   22.2020 N   0  0  0  0  0  0  0  0  0  0  0  0
  -23.0430  -14.9290   20.9240 O   0  0  0  0  0  0  0  0  0  0  0  0
  -23.2580  -12.2510   22.5580 H   0  0  0  0  0  0  0  0  0  0  0  0
  -21.9350  -13.3800   22.4990 H   0  0  0  0  0  0  0  0  0  0  0  0
  -26.0400  -15.6430   20.4740 N   0  0  0  0  0  0  0  0  0  0  0  0
  -25.2450  -16.2500   20.6230 H   0  0  0  0  0  0  0  0  0  0  0  0
  -26.8110  -16.1070   20.0150 H   0  0  0  0  0  0  0  0  0  0  0  0
  1  3  1  0
  2  6  2  0
  2  5  1  0
  3  7  1  0
  4  3  2  0
  4  8  1  0
  5  1  2  0
  6  4  1  0
  7  9  1  0
  8  9  2  0
 10 12  1  0
 10  6  1  0
 11 22  2  0
 12 17  1  0
 13 21  1  0
 13 23  1  0
 14 20  1  0
 14 16  1  0
 15 21  1  0
 16 15  1  0
 17 16  2  0
 18 19  1  0
 18 12  2  0
 19 14  2  0
 20 13  1  0
 21 11  1  0
 23 25  2  0
 24 23  1  0
 26 24  1  0
 27 36  2  0
 27 32  1  0
 28 24  1  0
 28 32  1  0
 29 28  1  0
 30 31  1  0
 30 29  1  0
 31 27  1  0
 32 33  2  0
 33 34  1  0
 35 34  2  0
 36 35  1  0
 37 11  1  0
 37 38  1  0
 37 47  1  0
 38 41  1  0
 39 38  1  0
 39 43  1  0
 40 39  2  0
 43 42  1  0
 43 45  1  0
 45 46  1  0
 45 44  1  0
 47 50  1  1
 47 48  1  0
 49 47  1  0
 51  5  1  0
 51 53  1  0
 53 52  2  0
 54 60  1  0
 54 53  1  0
 55 60  1  0
 56 57  1  0
 56 55  1  0
 58 57  1  0
 58 65  1  0
 58 59  1  0
 60 59  1  0
 61 54  2  0
 62 63  2  0
 63 82  1  0
 64 67  1  0
 64 63  1  0
 65 66  1  0
 65 62  1  0
 66 64  2  0
 67 68  1  0
 68 69  2  0
 70 73  1  0
 70 69  1  0
 71 70  2  0
 72 71  1  0
 72 67  2  0
 73 74  1  0
 74 79  2  0
 74 75  1  0
 75 76  2  0
 76 77  1  0
 77 81  1  0
 78 77  2  0
 79 78  1  0
 80 79  1  0
 82 83  1  0
 83 86  1  0
 83 85  1  0
 84 82  2  0
 87 62  1  0
 87 88  1  0
 89 87  1  0
M  ISO  4   6 101  10 101  53 100  54 100
M  END
>  <TORSDO>  (2) 
F 18

>  <SCORE>  (2) 
-11.239

>  <name>  (2) 
1

>  <ligand_id>  (2) 
1

>  <original_smiles>  (2) 
[H]C([H])=C(C(=O)N1C([H])([H])C([H])([H])C([H])([H])C([H])(n2nc(-c3c([H])c([H])c(Oc4c([H])c([H])c(F)c([H])c4F)c([H])c3[H])c(C(=O)N([H])[H])c2N([H])[H])C1([H])[H])C([H])([H])c1c([H])c(Oc2c([H])c([H])c3c(c2[H])C([H])([H])N(C(=O)C([H])(N([H])C(=O)C([H])(N([H])C([H])([H])[H])C([H])([H])[H])C(C([H])([H])[H])(C([H])([H])[H])C([H])([H])[H])C([H])(C(=O)N([H])C2([H])c4c([H])c([H])c([H])c([H])c4C([H])([H])C([H])([H])C2([H])[H])C3([H])[H])c2c(c1[H])C([H])([H])C([H])([H])C2([H])[H]

>  <smiles>  (2) 
[H]C([H])=C(C(=O)N1C([H])([H])C([H])([H])C([H])([H])C([H])(n2nc(-c3c([H])c([H])c(Oc4c([H])c([H])c(F)c([H])c4F)c([H])c3[H])c(C(=O)N([H])[H])c2N([H])[H])C1([H])[H])C([H])([H])c1c([H])c(Oc2c([H])c([H])c3c(c2[H])C([H])([H])N(C(=O)C([H])(N([H])C(=O)C([H])(N([H])C([H])([H])[H])C([H])([H])[H])C(C([H])([H])[H])(C([H])([H])[H])C([H])([H])[H])C([H])(C(=O)N([H])C2([H])c4c([H])c([H])c([H])c([H])c4C([H])([H])C([H])([H])C2([H])[H])C3([H])[H])c2c(c1[H])C([H])([H])C([H])([H])C2([H])[H]

$$$$
2:0:0
     RDKit          3D

 91 99  0  0  1  0  0  0  0  0999 V2000
  -28.7980  -21.9490   21.7810 C   0  0  0  0  0  3  0  0  0  0  0  0
  -28.5360  -23.1920   22.4160 C   0  0  0  0  0  3  0  0  0  0  0  0
  -28.4460  -23.1430   19.7010 C   0  0  0  0  0  0  0  0  0  0  0  0
  -28.7670  -21.7720   20.3840 C   0  0  0  0  0  0  0  0  0  0  0  0
  -28.1710  -24.5450   20.3340 C   0  0  0  0  0  0  0  0  0  0  0  0
  -28.2450  -24.4130   21.7450 C   0  0  0  0  0  0  0  0  0  0  0  0
  -28.4010  -23.1210   18.1870 C   0  0  0  0  0  1  0  0  0  0  0  0
  -29.8120  -26.2040   23.1360 C   0  0  0  0  0  1  0  0  0  0  0  0
  -27.3850  -25.3990   24.1160 O   0  0  0  0  0  0  0  0  0  0  0  0
  -28.0140  -25.8900   22.8070 S   0  0  0  0  0  0  0  0  0  0  0  0
  -29.0050  -20.3030   19.8890 N   0  0  0  0  0  0  0  0  0  0  0  0
  -28.8260  -20.2240   18.8890 H   0  0  0  0  0  0  0  0  0  0  0  0
  -29.7160  -18.9010   20.4530 C   0  0  0  0  0  2  0  0  0  0  0  0
  -29.4300  -17.1180   20.1400 C   0  0  0  0  0  2  0  0  0  0  0  0
  -30.3590  -15.5920   20.1790 C   0  0  0  0  0  0  0  0  0  0  0  0
  -30.4610  -13.1080   19.3670 C   0  0  0  0  0  2  0  0  0  0  0  0
  -29.5430  -12.8540   18.1390 C   0  0  0  0  0  2  0  0  0  0  0  0
  -28.1050  -12.5350   18.5820 C   0  0  0  0  0  2  0  0  0  0  0  0
  -27.6240  -13.4940   19.6950 C   0  0  0  0  0  3  0  0  0  0  0  0
  -28.6680  -13.6960   20.8130 C   0  0  0  0  0  2  0  0  0  0  0  0
  -29.8840  -14.2400   20.1860 N   0  0  0  0  0  0  0  0  0  0  0  0
  -31.5840  -15.6230   19.9710 O   0  0  0  0  0  0  0  0  0  0  0  0
  -25.2540  -13.9900   20.4860 C   0  0  0  0  0  0  0  0  0  0  0  0
  -24.2150  -13.1870   20.8600 C   0  0  0  0  0  0  0  0  0  0  0  0
  -24.7100  -11.8480   20.8130 C   0  0  0  0  0  0  0  0  0  0  0  0
  -26.3120  -13.1400   20.2190 N   0  0  0  0  0  0  0  0  0  0  0  0
  -25.9980  -11.8440   20.4850 N   0  0  0  0  0  0  0  0  0  0  0  0
  -24.0120  -10.5690   21.0020 C   0  0  0  0  0  0  0  0  0  0  0  0
  -24.4590   -9.6100   21.9370 C   0  0  0  0  0  3  0  0  0  0  0  0
  -23.7570   -8.3980   22.1140 C   0  0  0  0  0  3  0  0  0  0  0  0
  -22.5910   -8.1360   21.3550 C   0  0  0  0  0  0  0  0  0  0  0  0
  -22.1640   -9.0830   20.4070 C   0  0  0  0  0  3  0  0  0  0  0  0
  -22.8680  -10.2860   20.2300 C   0  0  0  0  0  3  0  0  0  0  0  0
  -21.8590   -6.9760   21.4400 O   0  0  0  0  0  0  0  0  0  0  0  0
  -21.8090   -6.2410   22.5970 C   0  0  0  0  0  0  0  0  0  0  0  0
  -21.3080   -6.7800   23.8020 C   0  0  0  0  0  3  0  0  0  0  0  0
  -21.2080   -5.9690   24.9500 C   0  0  0  0  0  3  0  0  0  0  0  0
  -21.5990   -4.6180   24.8930 C   0  0  0  0  0  0  0  0  0  0  0  0
  -22.0920   -4.0760   23.6930 C   0  0  0  0  0  3  0  0  0  0  0  0
  -22.1930   -4.8860   22.5470 C   0  0  0  0  0  0  0  0  0  0  0  0
  -22.6490   -4.3530   21.3870 F   0  0  0  0  0  0  0  0  0  0  0  0
  -21.4960   -3.8360   25.9930 F   0  0  0  0  0  0  0  0  0  0  0  0
  -22.8110  -13.6300   21.1480 C   0  0  0  0  0  0  0  0  0  0  0  0
  -22.1050  -12.9130   22.0160 N   0  0  0  0  0  0  0  0  0  0  0  0
  -22.3460  -14.6490   20.6390 O   0  0  0  0  0  0  0  0  0  0  0  0
  -22.4970  -12.0880   22.4470 H   0  0  0  0  0  0  0  0  0  0  0  0
  -21.1640  -13.1920   22.2530 H   0  0  0  0  0  0  0  0  0  0  0  0
  -25.3890  -15.3660   20.3200 N   0  0  0  0  0  0  0  0  0  0  0  0
  -24.6200  -16.0130   20.4550 H   0  0  0  0  0  0  0  0  0  0  0  0
  -26.2320  -15.8180   19.9870 H   0  0  0  0  0  0  0  0  0  0  0  0
  -28.0620  -26.0000   19.7950 O   0  0  0  0  0  0  0  0  0  0  0  0
  -24.5390  -31.9440   23.0490 C   0  0  0  0  0  0  0  0  0  0  0  0
  -27.0320  -27.0900   19.9060 C   0  0  0  0  0  0  0  0  0  0  0  0
  -23.3140  -30.5760   21.4110 C   0  0  0  0  0  3  0  0  0  0  0  0
  -24.7350  -28.9900   19.9360 C   0  0  0  0  0  0  0  0  0  0  0  0
  -25.8790  -30.7840   21.2170 C   0  0  0  0  0  2  0  0  0  0  0  0
  -25.9360  -29.3790   20.5430 C   0  0  0  0  0  0  0  0  0  0  0  0
  -27.0790  -28.4530   20.5020 C   0  0  0  0  0  3  0  0  0  0  0  0
  -25.7980  -26.8640   19.2570 C   0  0  0  0  0  3  0  0  0  0  0  0
  -24.6920  -27.7530   19.2730 C   0  0  0  0  0  3  0  0  0  0  0  0
  -23.5180  -29.9130   20.0200 C   0  0  0  0  0  2  0  0  0  0  0  0
  -24.6000  -31.1300   21.9450 N   0  0  0  0  0  0  0  0  0  0  0  0
  -23.4600  -32.2240   23.5970 O   0  0  0  0  0  0  0  0  0  0  0  0
  -22.6380  -29.5650   22.3750 C   0  0  0  0  0  0  0  0  0  0  0  0
  -21.3060  -29.4020   22.2760 N   0  0  0  0  0  0  0  0  0  0  0  0
  -23.3220  -28.9260   23.1780 O   0  0  0  0  0  0  0  0  0  0  0  0
  -20.8060  -29.9690   21.6060 H   0  0  0  0  0  0  0  0  0  0  0  0
  -17.9330  -28.2000   22.8660 C   0  0  0  0  0  0  0  0  0  0  0  0
  -20.5010  -28.4480   23.0480 C   0  0  0  0  0  3  0  0  0  0  0  0
  -20.5760  -27.0320   22.4300 C   0  0  0  0  0  2  0  0  0  0  0  0
  -19.4380  -26.7430   21.4450 C   0  0  0  0  0  2  0  0  0  0  0  0
  -18.0790  -26.8720   22.1400 C   0  0  0  0  0  2  0  0  0  0  0  0
  -19.0690  -28.9470   23.2770 C   0  0  0  0  0  0  0  0  0  0  0  0
  -18.8740  -30.1870   23.9210 C   0  0  0  0  0  3  0  0  0  0  0  0
  -17.5770  -30.6830   24.1530 C   0  0  0  0  0  3  0  0  0  0  0  0
  -16.4560  -29.9350   23.7550 C   0  0  0  0  0  3  0  0  0  0  0  0
  -16.6350  -28.6940   23.1170 C   0  0  0  0  0  3  0  0  0  0  0  0
  -25.8220  -32.5790   23.6680 C   0  0  0  0  0  3  0  0  0  0  0  0
  -26.3680  -31.7760   24.9130 C   0  0  1  0  0  0  0  0  0  0  0  0
  -25.3000  -31.5010   25.9980 C   0  0  0  0  0  1  0  0  0  0  0  0
  -26.9540  -30.4140   24.4800 C   0  0  0  0  0  1  0  0  0  0  0  0
  -27.5270  -32.5590   25.5730 C   0  0  0  0  0  1  0  0  0  0  0  0
  -25.5020  -33.9640   24.0610 N   0  0  0  0  0  0  0  0  0  0  0  0
  -25.8450  -35.0580   23.3680 C   0  0  0  0  0  0  0  0  0  0  0  0
  -26.5280  -35.0080   22.3420 O   0  0  0  0  0  0  0  0  0  0  0  0
  -24.8970  -34.0750   24.8620 H   0  0  0  0  0  0  0  0  0  0  0  0
  -24.1540  -36.8990   23.0700 C   0  0  0  0  0  1  0  0  0  0  0  0
  -25.3590  -36.4230   23.8960 C   0  0  0  0  0  3  0  0  0  0  0  0
  -27.4660  -37.2340   24.8640 C   0  0  0  0  0  1  0  0  0  0  0  0
  -26.4060  -37.4690   23.8860 N   0  0  0  0  0  0  0  0  0  0  0  0
  -26.0050  -38.3830   24.0700 H   0  0  0  0  0  0  0  0  0  0  0  0
  1  2  1  0
  3  5  2  0
  3  4  1  0
  4  1  2  0
  5  6  1  0
  6  2  2  0
  6 10  1  0
  7  3  1  0
 10  8  1  1
 10  9  2  0
 11  4  1  0
 11 13  1  0
 12 11  1  0
 14 15  1  0
 14 13  1  0
 15 21  1  0
 16 21  1  0
 17 18  1  0
 17 16  1  0
 19 18  1  0
 19 26  1  0
 19 20  1  0
 21 20  1  0
 22 15  2  0
 23 24  2  0
 24 43  1  0
 25 24  1  0
 25 28  1  0
 26 27  1  0
 26 23  1  0
 27 25  2  0
 28 29  1  0
 29 30  2  0
 31 34  1  0
 31 30  1  0
 32 31  2  0
 33 32  1  0
 33 28  2  0
 34 35  1  0
 35 36  1  0
 36 37  2  0
 38 37  1  0
 38 42  1  0
 39 38  2  0
 40 35  2  0
 40 39  1  0
 41 40  1  0
 43 44  1  0
 44 47  1  0
 44 46  1  0
 45 43  2  0
 48 49  1  0
 48 23  1  0
 50 48  1  0
 51 53  1  0
 51  5  1  0
 52 63  2  0
 53 58  1  0
 54 62  1  0
 54 64  1  0
 55 61  1  0
 55 57  1  0
 56 62  1  0
 57 56  1  0
 58 57  2  0
 59 60  1  0
 59 53  2  0
 60 55  2  0
 61 54  1  0
 62 52  1  0
 64 66  2  0
 65 64  1  0
 67 65  1  0
 68 77  2  0
 68 73  1  0
 69 65  1  0
 69 73  1  0
 70 69  1  0
 71 72  1  0
 71 70  1  0
 72 68  1  0
 73 74  2  0
 74 75  1  0
 76 75  2  0
 77 76  1  0
 78 52  1  0
 78 83  1  0
 78 79  1  0
 79 82  1  1
 79 80  1  0
 81 79  1  0
 83 86  1  0
 84 88  1  0
 84 83  1  0
 85 84  2  0
 88 87  1  0
 90 88  1  0
 90 91  1  0
 90 89  1  0
M  ISO  4   5 101  14 100  15 100  51 101
M  END
>  <TORSDO>  (3) 
F 20

>  <SCORE>  (3) 
-14.287

>  <name>  (3) 
2

>  <ligand_id>  (3) 
2

>  <original_smiles>  (3) 
[H]c1c([H])c([H])c2c(c1[H])C([H])([H])C([H])([H])C([H])([H])C2([H])N([H])C(=O)C1([H])N(C(=O)C([H])(N([H])C(=O)C([H])(N([H])C([H])([H])[H])C([H])([H])[H])C(C([H])([H])[H])(C([H])([H])[H])C([H])([H])[H])C([H])([H])c2c([H])c(Oc3c(S(=O)C([H])([H])[H])c([H])c([H])c(N([H])C([H])([H])C([H])([H])C(=O)N4C([H])([H])C([H])([H])C([H])([H])C([H])(n5nc(-c6c([H])c([H])c(Oc7c([H])c([H])c(F)c([H])c7F)c([H])c6[H])c(C(=O)N([H])[H])c5N([H])[H])C4([H])[H])c3C([H])([H])[H])c([H])c([H])c2C1([H])[H]

>  <smiles>  (3) 
[H]c1c([H])c([H])c2c(c1[H])C([H])([H])C([H])([H])C([H])([H])C2([H])N([H])C(=O)C1([H])N(C(=O)C([H])(N([H])C(=O)C([H])(N([H])C([H])([H])[H])C([H])([H])[H])C(C([H])([H])[H])(C([H])([H])[H])C([H])([H])[H])C([H])([H])c2c([H])c(Oc3c(S(=O)C([H])([H])[H])c([H])c([H])c(N([H])C([H])([H])C([H])([H])C(=O)N4C([H])([H])C([H])([H])C([H])([H])C([H])(n5nc(-c6c([H])c([H])c(Oc7c([H])c([H])c(F)c([H])c7F)c([H])c6[H])c(C(=O)N([H])[H])c5N([H])[H])C4([H])[H])c3C([H])([H])[H])c([H])c([H])c2C1([H])[H]

$$$$
3:0:0
     RDKit          3D

 88 95  0  0  1  0  0  0  0  0999 V2000
  -28.1770  -21.5440   18.1180 C   0  0  0  0  0  3  0  0  0  0  0  0
  -28.7250  -21.7840   20.6370 C   0  0  0  0  0  3  0  0  0  0  0  0
  -28.6460  -20.3260   18.7430 C   0  0  0  0  0  0  0  0  0  0  0  0
  -28.9460  -20.1590   20.1160 C   0  0  0  0  0  3  0  0  0  0  0  0
  -27.9690  -22.8800   18.6580 C   0  0  0  0  0  0  0  0  0  0  0  0
  -28.2030  -23.3010   20.0140 C   0  0  0  0  0  0  0  0  0  0  0  0
  -29.0080  -19.1290   17.8790 C   0  0  0  0  0  2  0  0  0  0  0  0
  -30.4690  -18.6510   18.1330 C   0  0  0  0  0  2  0  0  0  0  0  0
  -30.9220  -18.7350   19.6200 C   0  0  0  0  0  2  0  0  0  0  0  0
  -29.7500  -18.3100   20.5520 C   0  0  0  0  0  1  0  0  0  0  0  0
  -27.5270  -23.9110   17.6320 C   0  0  0  0  0  1  0  0  0  0  0  0
  -30.1640  -16.2580   20.3370 C   0  0  0  0  0  2  0  0  0  0  0  0
  -30.4010  -13.5410   19.6570 C   0  0  0  0  0  2  0  0  0  0  0  0
  -29.6260  -12.8940   18.4570 C   0  0  0  0  0  2  0  0  0  0  0  0
  -28.2310  -12.4280   18.8790 C   0  0  0  0  0  2  0  0  0  0  0  0
  -27.6100  -13.4550   19.8470 C   0  0  0  0  0  3  0  0  0  0  0  0
  -28.5580  -14.0260   20.9480 C   0  0  0  0  0  2  0  0  0  0  0  0
  -29.6790  -14.7960   20.3020 N   0  0  0  0  0  0  0  0  0  0  0  0
  -31.3840  -15.9700   20.1900 O   0  0  0  0  0  1  0  0  0  0  0  0
  -25.2370  -13.8980   20.5820 C   0  0  0  0  0  0  0  0  0  0  0  0
  -24.1900  -13.0970   20.9270 C   0  0  0  0  0  0  0  0  0  0  0  0
  -24.6890  -11.7570   20.9060 C   0  0  0  0  0  0  0  0  0  0  0  0
  -26.3060  -13.0560   20.3590 N   0  0  0  0  0  0  0  0  0  0  0  0
  -25.9910  -11.7550   20.6160 N   0  0  0  0  0  0  0  0  0  0  0  0
  -23.9730  -10.4820   21.0870 C   0  0  0  0  0  0  0  0  0  0  0  0
  -24.3990   -9.5180   22.0260 C   0  0  0  0  0  3  0  0  0  0  0  0
  -23.6760   -8.3170   22.2010 C   0  0  0  0  0  3  0  0  0  0  0  0
  -22.5110   -8.0700   21.4350 C   0  0  0  0  0  0  0  0  0  0  0  0
  -22.1030   -9.0230   20.4860 C   0  0  0  0  0  3  0  0  0  0  0  0
  -22.8280  -10.2150   20.3100 C   0  0  0  0  0  3  0  0  0  0  0  0
  -21.7610   -6.9210   21.5160 O   0  0  0  0  0  0  0  0  0  0  0  0
  -21.7130   -6.1690   22.6630 C   0  0  0  0  0  0  0  0  0  0  0  0
  -21.2770   -6.7120   23.8920 C   0  0  0  0  0  3  0  0  0  0  0  0
  -21.1790   -5.8890   25.0310 C   0  0  0  0  0  3  0  0  0  0  0  0
  -21.5050   -4.5220   24.9420 C   0  0  0  0  0  0  0  0  0  0  0  0
  -21.9310   -3.9770   23.7180 C   0  0  0  0  0  3  0  0  0  0  0  0
  -22.0330   -4.7990   22.5820 C   0  0  0  0  0  0  0  0  0  0  0  0
  -22.4250   -4.2640   21.4000 F   0  0  0  0  0  0  0  0  0  0  0  0
  -21.4020   -3.7280   26.0340 F   0  0  0  0  0  0  0  0  0  0  0  0
  -22.7790  -13.5500   21.1570 C   0  0  0  0  0  0  0  0  0  0  0  0
  -22.0430  -12.8510   22.0110 N   0  0  0  0  0  0  0  0  0  0  0  0
  -22.3410  -14.5640   20.6140 O   0  0  0  0  0  0  0  0  0  0  0  0
  -22.4130  -12.0360   22.4760 H   0  0  0  0  0  0  0  0  0  0  0  0
  -21.0940  -13.1370   22.2060 H   0  0  0  0  0  0  0  0  0  0  0  0
  -25.3680  -15.2720   20.4030 N   0  0  0  0  0  0  0  0  0  0  0  0
  -24.5760  -15.9010   20.4880 H   0  0  0  0  0  0  0  0  0  0  0  0
  -26.2130  -15.7380   20.0990 H   0  0  0  0  0  0  0  0  0  0  0  0
  -28.0910  -25.0240   20.3280 O   0  0  0  0  0  0  0  0  0  0  0  0
  -24.6060  -31.8060   23.1030 C   0  0  0  0  0  0  0  0  0  0  0  0
  -27.1600  -26.3990   20.2160 C   0  0  0  0  0  0  0  0  0  0  0  0
  -23.4460  -30.3650   21.4900 C   0  0  0  0  0  3  0  0  0  0  0  0
  -24.9140  -28.6460   20.1170 C   0  0  0  0  0  0  0  0  0  0  0  0
  -26.0390  -30.4250   21.4150 C   0  0  0  0  0  2  0  0  0  0  0  0
  -26.1100  -28.9460   20.7790 C   0  0  0  0  0  0  0  0  0  0  0  0
  -27.1930  -27.8600   20.7910 C   0  0  0  0  0  3  0  0  0  0  0  0
  -25.9250  -26.4090   19.4880 C   0  0  0  0  0  3  0  0  0  0  0  0
  -24.8850  -27.4100   19.4430 C   0  0  0  0  0  3  0  0  0  0  0  0
  -23.7110  -29.6250   20.1400 C   0  0  0  0  0  2  0  0  0  0  0  0
  -24.7250  -30.9090   22.0540 N   0  0  0  0  0  0  0  0  0  0  0  0
  -23.5020  -32.1200   23.5870 O   0  0  0  0  0  0  0  0  0  0  0  0
  -22.7010  -29.4270   22.4820 C   0  0  0  0  0  0  0  0  0  0  0  0
  -21.3640  -29.2910   22.3690 N   0  0  0  0  0  0  0  0  0  0  0  0
  -23.3480  -28.8120   23.3330 O   0  0  0  0  0  0  0  0  0  0  0  0
  -20.8880  -29.8410   21.6670 H   0  0  0  0  0  0  0  0  0  0  0  0
  -17.9690  -28.0920   22.9300 C   0  0  0  0  0  0  0  0  0  0  0  0
  -20.5350  -28.3660   23.1560 C   0  0  0  0  0  3  0  0  0  0  0  0
  -20.6250  -26.9260   22.5950 C   0  0  0  0  0  2  0  0  0  0  0  0
  -19.5130  -26.5990   21.5930 C   0  0  0  0  0  2  0  0  0  0  0  0
  -18.1390  -26.7440   22.2510 C   0  0  0  0  0  2  0  0  0  0  0  0
  -19.0930  -28.8620   23.3390 C   0  0  0  0  0  0  0  0  0  0  0  0
  -18.8750  -30.1200   23.9420 C   0  0  0  0  0  3  0  0  0  0  0  0
  -17.5690  -30.6100   24.1330 C   0  0  0  0  0  3  0  0  0  0  0  0
  -16.4620  -29.8400   23.7350 C   0  0  0  0  0  3  0  0  0  0  0  0
  -16.6630  -28.5820   23.1400 C   0  0  0  0  0  3  0  0  0  0  0  0
  -25.8460  -32.4950   23.7530 C   0  0  0  0  0  3  0  0  0  0  0  0
  -25.4900  -33.8920   24.0910 N   0  0  0  0  0  0  0  0  0  0  0  0
  -25.8110  -34.9750   23.3690 C   0  0  0  0  0  0  0  0  0  0  0  0
  -26.4850  -34.9060   22.3390 O   0  0  0  0  0  0  0  0  0  0  0  0
  -24.8900  -34.0190   24.8930 H   0  0  0  0  0  0  0  0  0  0  0  0
  -24.0610  -36.7680   23.0680 C   0  0  0  0  0  1  0  0  0  0  0  0
  -25.3110  -36.3530   23.8620 C   0  0  0  0  0  3  0  0  0  0  0  0
  -27.4360  -37.2550   24.7030 C   0  0  0  0  0  1  0  0  0  0  0  0
  -26.3280  -37.4240   23.7680 N   0  0  0  0  0  0  0  0  0  0  0  0
  -25.9090  -38.3340   23.9350 H   0  0  0  0  0  0  0  0  0  0  0  0
  -26.3470  -31.7560   25.0560 C   0  0  1  0  0  0  0  0  0  0  0  0
  -25.2370  -31.5210   26.1090 C   0  0  0  0  0  1  0  0  0  0  0  0
  -26.9620  -30.3820   24.7190 C   0  0  0  0  0  1  0  0  0  0  0  0
  -27.4720  -32.5820   25.7250 C   0  0  0  0  0  1  0  0  0  0  0  0
  1  5  2  0
  1  3  1  0
  3  4  2  0
  4  2  1  0
  5  6  1  0
  6 48  1  0
  6  2  2  0
  7  8  1  0
  7  3  1  0
  8  9  1  0
  9 10  1  0
 11  5  1  0
 13 18  1  0
 14 15  1  0
 14 13  1  0
 16 15  1  0
 16 23  1  0
 16 17  1  0
 18 12  1  0
 18 17  1  0
 19 12  1  0
 20 21  2  0
 21 40  1  0
 22 21  1  0
 22 25  1  0
 23 20  1  0
 23 24  1  0
 24 22  2  0
 25 26  1  0
 26 27  2  0
 28 31  1  0
 28 27  1  0
 29 28  2  0
 30 29  1  0
 30 25  2  0
 31 32  1  0
 32 33  1  0
 33 34  2  0
 35 34  1  0
 35 39  1  0
 36 35  2  0
 37 32  2  0
 37 36  1  0
 38 37  1  0
 40 41  1  0
 41 44  1  0
 41 43  1  0
 42 40  2  0
 45 46  1  0
 45 20  1  0
 47 45  1  0
 49 60  2  0
 50 48  1  0
 50 55  1  0
 51 59  1  0
 51 61  1  0
 52 58  1  0
 52 54  1  0
 53 59  1  0
 54 55  2  0
 54 53  1  0
 56 50  2  0
 57 56  1  0
 57 52  2  0
 58 51  1  0
 59 49  1  0
 61 63  2  0
 62 61  1  0
 64 62  1  0
 65 74  2  0
 65 70  1  0
 66 62  1  0
 66 70  1  0
 67 66  1  0
 68 69  1  0
 68 67  1  0
 69 65  1  0
 70 71  2  0
 71 72  1  0
 73 72  2  0
 74 73  1  0
 75 49  1  0
 75 76  1  0
 75 85  1  0
 76 79  1  0
 77 81  1  0
 77 76  1  0
 78 77  2  0
 81 80  1  0
 83 81  1  0
 83 84  1  0
 83 82  1  0
 85 88  1  1
 85 86  1  0
 87 85  1  0
M  ISO  4   6 101  10 100  12 100  48 101
M  END
>  <TORSDO>  (4) 
F 16

>  <SCORE>  (4) 
-16.856

>  <name>  (4) 
3

>  <ligand_id>  (4) 
3

>  <original_smiles>  (4) 
[H]c1c([H])c([H])c2c(c1[H])C([H])([H])C([H])([H])C([H])([H])C2([H])N([H])C(=O)C1([H])N(C(=O)C([H])(N([H])C(=O)C([H])(N([H])C([H])([H])[H])C([H])([H])[H])C(C([H])([H])[H])(C([H])([H])[H])C([H])([H])[H])C([H])([H])c2c([H])c(Oc3c([H])c4c(c([H])c3C([H])([H])[H])C([H])([H])C([H])([H])C([H])([H])C4([H])C(=O)N3C([H])([H])C([H])([H])C([H])([H])C([H])(n4nc(-c5c([H])c([H])c(Oc6c([H])c([H])c(F)c([H])c6F)c([H])c5[H])c(C(=O)N([H])[H])c4N([H])[H])C3([H])[H])c([H])c([H])c2C1([H])[H]

>  <smiles>  (4) 
[H]c1c([H])c([H])c2c(c1[H])C([H])([H])C([H])([H])C([H])([H])C2([H])N([H])C(=O)C1([H])N(C(=O)C([H])(N([H])C(=O)C([H])(N([H])C([H])([H])[H])C([H])([H])[H])C(C([H])([H])[H])(C([H])([H])[H])C([H])([H])[H])C([H])([H])c2c([H])c(Oc3c([H])c4c(c([H])c3C([H])([H])[H])C([H])([H])C([H])([H])C([H])([H])C4([H])C(=O)N3C([H])([H])C([H])([H])C([H])([H])C([H])(n4nc(-c5c([H])c([H])c(Oc6c([H])c([H])c(F)c([H])c6F)c([H])c5[H])c(C(=O)N([H])[H])c4N([H])[H])C3([H])[H])c([H])c([H])c2C1([H])[H]

$$$$
4:0:0
     RDKit          3D

 93102  0  0  1  0  0  0  0  0999 V2000
  -28.2540  -24.8990   23.4120 C   0  0  0  0  0  2  0  0  0  0  0  0
  -28.3470  -23.4790   22.8300 C   0  0  0  0  0  2  0  0  0  0  0  0
  -27.8050  -25.9120   22.3460 C   0  0  0  0  0  2  0  0  0  0  0  0
  -28.8110  -24.4340   20.5330 C   0  0  0  0  0  2  0  0  0  0  0  0
  -29.2980  -23.4330   21.6160 C   0  0  0  0  0  3  0  0  0  0  0  0
  -28.7260  -25.8730   21.0990 C   0  0  0  0  0  3  0  0  0  0  0  0
  -30.6480  -21.2660   21.6080 C   0  0  0  0  0  3  0  0  0  0  0  0
  -28.6210  -21.3390   20.2740 C   0  0  0  0  0  3  0  0  0  0  0  0
  -30.8370  -19.9090   21.2620 C   0  0  0  0  0  3  0  0  0  0  0  0
  -28.8110  -19.9850   19.9230 C   0  0  0  0  0  3  0  0  0  0  0  0
  -29.5290  -21.9920   21.1360 C   0  0  0  0  0  0  0  0  0  0  0  0
  -29.9010  -19.2470   20.4360 C   0  0  0  0  0  0  0  0  0  0  0  0
  -30.0370  -17.7580   20.0980 C   0  0  0  0  0  2  0  0  0  0  0  0
  -30.3710  -16.8530   21.3120 C   0  0  0  0  0  2  0  0  0  0  0  0
  -30.7210  -14.5050   20.4460 C   0  0  0  0  0  0  0  0  0  0  0  0
  -30.4410  -12.3760   19.2290 C   0  0  0  0  0  2  0  0  0  0  0  0
  -29.4950  -12.5980   18.0290 C   0  0  0  0  0  2  0  0  0  0  0  0
  -28.0140  -12.4840   18.4510 C   0  0  0  0  0  2  0  0  0  0  0  0
  -27.6850  -13.2890   19.7370 C   0  0  0  0  0  3  0  0  0  0  0  0
  -28.7350  -13.0050   20.8340 C   0  0  0  0  0  2  0  0  0  0  0  0
  -30.0630  -13.3280   20.2830 N   0  0  0  0  0  0  0  0  0  0  0  0
  -31.8220  -14.7460   19.9440 O   0  0  0  0  0  0  0  0  0  0  0  0
  -30.0220  -15.4450   21.1000 N   0  0  0  0  0  0  0  0  0  0  0  0
  -29.1280  -15.1420   21.4580 H   0  0  0  0  0  0  0  0  0  0  0  0
  -25.2820  -13.9140   20.4210 C   0  0  0  0  0  0  0  0  0  0  0  0
  -24.2080  -13.1500   20.7920 C   0  0  0  0  0  0  0  0  0  0  0  0
  -24.6650  -11.7970   20.7800 C   0  0  0  0  0  0  0  0  0  0  0  0
  -26.3250  -13.0270   20.2060 N   0  0  0  0  0  0  0  0  0  0  0  0
  -25.9570  -11.7480   20.4780 N   0  0  0  0  0  0  0  0  0  0  0  0
  -23.9350  -10.5380   20.9810 C   0  0  0  0  0  0  0  0  0  0  0  0
  -24.3690   -9.5770   21.9200 C   0  0  0  0  0  3  0  0  0  0  0  0
  -23.6410   -8.3820   22.1110 C   0  0  0  0  0  3  0  0  0  0  0  0
  -22.4660   -8.1400   21.3630 C   0  0  0  0  0  0  0  0  0  0  0  0
  -22.0490   -9.0910   20.4140 C   0  0  0  0  0  3  0  0  0  0  0  0
  -22.7750  -10.2770   20.2210 C   0  0  0  0  0  3  0  0  0  0  0  0
  -21.7100   -6.9960   21.4610 O   0  0  0  0  0  0  0  0  0  0  0  0
  -21.6730   -6.2540   22.6140 C   0  0  0  0  0  0  0  0  0  0  0  0
  -21.2710   -6.8130   23.8470 C   0  0  0  0  0  3  0  0  0  0  0  0
  -21.1810   -5.9990   24.9940 C   0  0  0  0  0  3  0  0  0  0  0  0
  -21.4820   -4.6270   24.9090 C   0  0  0  0  0  0  0  0  0  0  0  0
  -21.8770   -4.0670   23.6800 C   0  0  0  0  0  3  0  0  0  0  0  0
  -21.9690   -4.8790   22.5360 C   0  0  0  0  0  0  0  0  0  0  0  0
  -22.3290   -4.3300   21.3510 F   0  0  0  0  0  0  0  0  0  0  0  0
  -21.3890   -3.8420   26.0080 F   0  0  0  0  0  0  0  0  0  0  0  0
  -22.8100  -13.6320   21.0530 C   0  0  0  0  0  0  0  0  0  0  0  0
  -22.0770  -12.9430   21.9220 N   0  0  0  0  0  0  0  0  0  0  0  0
  -22.3740  -14.6500   20.5190 O   0  0  0  0  0  0  0  0  0  0  0  0
  -22.4430  -12.1180   22.3740 H   0  0  0  0  0  0  0  0  0  0  0  0
  -21.1360  -13.2450   22.1360 H   0  0  0  0  0  0  0  0  0  0  0  0
  -25.4580  -15.2840   20.2300 N   0  0  0  0  0  0  0  0  0  0  0  0
  -24.7150  -15.9590   20.3630 H   0  0  0  0  0  0  0  0  0  0  0  0
  -26.3150  -15.7010   19.8870 H   0  0  0  0  0  0  0  0  0  0  0  0
  -28.4240  -26.7950   20.0350 O   0  0  0  0  0  0  0  0  0  0  0  0
  -24.5980  -31.8960   23.2020 C   0  0  0  0  0  0  0  0  0  0  0  0
  -27.2470  -27.5030   20.0870 C   0  0  0  0  0  0  0  0  0  0  0  0
  -23.3870  -30.4920   21.5640 C   0  0  0  0  0  3  0  0  0  0  0  0
  -24.8410  -28.9720   20.1140 C   0  0  0  0  0  0  0  0  0  0  0  0
  -25.8990  -30.8850   21.3320 C   0  0  0  0  0  2  0  0  0  0  0  0
  -25.9960  -29.5130   20.6950 C   0  0  0  0  0  0  0  0  0  0  0  0
  -27.2060  -28.7830   20.6800 C   0  0  0  0  0  3  0  0  0  0  0  0
  -26.0820  -26.9720   19.4950 C   0  0  0  0  0  3  0  0  0  0  0  0
  -24.8760  -27.7020   19.5100 C   0  0  0  0  0  3  0  0  0  0  0  0
  -23.5860  -29.8190   20.1770 C   0  0  0  0  0  2  0  0  0  0  0  0
  -24.6480  -31.1030   22.0930 N   0  0  0  0  0  0  0  0  0  0  0  0
  -23.5210  -32.1580   23.7570 O   0  0  0  0  0  0  0  0  0  0  0  0
  -22.7510  -29.4640   22.5250 C   0  0  0  0  0  0  0  0  0  0  0  0
  -21.4240  -29.2850   22.4130 N   0  0  0  0  0  0  0  0  0  0  0  0
  -23.4460  -28.8290   23.3220 O   0  0  0  0  0  0  0  0  0  0  0  0
  -20.9290  -29.8560   21.7410 H   0  0  0  0  0  0  0  0  0  0  0  0
  -18.0530  -28.0910   22.9300 C   0  0  0  0  0  0  0  0  0  0  0  0
  -20.6130  -28.3370   23.1790 C   0  0  0  0  0  3  0  0  0  0  0  0
  -20.7070  -26.9140   22.5840 C   0  0  0  0  0  2  0  0  0  0  0  0
  -19.5920  -26.6070   21.5800 C   0  0  0  0  0  2  0  0  0  0  0  0
  -18.2170  -26.7490   22.2380 C   0  0  0  0  0  2  0  0  0  0  0  0
  -19.1790  -28.8450   23.3550 C   0  0  0  0  0  0  0  0  0  0  0  0
  -18.9710  -30.1030   23.9600 C   0  0  0  0  0  3  0  0  0  0  0  0
  -17.6690  -30.6060   24.1480 C   0  0  0  0  0  3  0  0  0  0  0  0
  -16.5580  -29.8470   23.7430 C   0  0  0  0  0  3  0  0  0  0  0  0
  -16.7510  -28.5920   23.1380 C   0  0  0  0  0  3  0  0  0  0  0  0
  -25.8870  -32.5290   23.8170 C   0  0  0  0  0  3  0  0  0  0  0  0
  -26.4200  -31.7500   25.0810 C   0  0  1  0  0  0  0  0  0  0  0  0
  -25.3370  -31.5010   26.1590 C   0  0  0  0  0  1  0  0  0  0  0  0
  -27.0030  -30.3800   24.6620 C   0  0  0  0  0  1  0  0  0  0  0  0
  -27.5750  -32.5420   25.7400 C   0  0  0  0  0  1  0  0  0  0  0  0
  -25.5770  -33.9230   24.1600 N   0  0  0  0  0  0  0  0  0  0  0  0
  -25.9100  -34.9820   23.4100 C   0  0  0  0  0  0  0  0  0  0  0  0
  -26.5820  -34.8890   22.3790 O   0  0  0  0  0  0  0  0  0  0  0  0
  -24.9770  -34.0710   24.9590 H   0  0  0  0  0  0  0  0  0  0  0  0
  -24.1820  -36.7760   23.0600 C   0  0  0  0  0  1  0  0  0  0  0  0
  -25.4180  -36.3650   23.8760 C   0  0  0  0  0  3  0  0  0  0  0  0
  -27.5490  -37.2350   24.7300 C   0  0  0  0  0  1  0  0  0  0  0  0
  -26.4510  -37.4190   23.7830 N   0  0  0  0  0  0  0  0  0  0  0  0
  -26.0440  -38.3360   23.9450 H   0  0  0  0  0  0  0  0  0  0  0  0
  2  1  1  0
  3  1  1  0
  4  6  1  0
  4  5  1  0
  5 11  1  0
  5  2  1  0
  6 53  1  0
  6  3  1  0
  8 11  1  0
  9  7  1  0
 10  8  2  0
 10 12  1  0
 11  7  2  0
 12  9  2  0
 13 12  1  0
 13 14  1  0
 15 23  1  0
 16 21  1  0
 17 18  1  0
 17 16  1  0
 19 18  1  0
 19 28  1  0
 19 20  1  0
 21 15  1  0
 21 20  1  0
 22 15  2  0
 23 14  1  0
 23 24  1  0
 25 26  2  0
 26 45  1  0
 27 26  1  0
 27 30  1  0
 28 25  1  0
 28 29  1  0
 29 27  2  0
 30 31  1  0
 31 32  2  0
 33 36  1  0
 33 32  1  0
 34 33  2  0
 35 34  1  0
 35 30  2  0
 36 37  1  0
 37 38  1  0
 38 39  2  0
 40 39  1  0
 40 44  1  0
 41 40  2  0
 42 37  2  0
 42 41  1  0
 43 42  1  0
 45 46  1  0
 46 49  1  0
 46 48  1  0
 47 45  2  0
 50 51  1  0
 50 25  1  0
 52 50  1  0
 53 55  1  0
 54 65  2  0
 55 60  1  0
 56 64  1  0
 56 66  1  0
 57 63  1  0
 57 59  1  0
 58 64  1  0
 59 58  1  0
 60 59  2  0
 61 62  1  0
 61 55  2  0
 62 57  2  0
 63 56  1  0
 64 54  1  0
 66 68  2  0
 67 66  1  0
 69 67  1  0
 70 79  2  0
 70 75  1  0
 71 67  1  0
 71 75  1  0
 72 71  1  0
 73 74  1  0
 73 72  1  0
 74 70  1  0
 75 76  2  0
 76 77  1  0
 78 77  2  0
 79 78  1  0
 80 54  1  0
 80 85  1  0
 80 81  1  0
 81 84  1  1
 81 82  1  0
 83 81  1  0
 85 88  1  0
 86 90  1  0
 86 85  1  0
 87 86  2  0
 90 89  1  0
 92 90  1  0
 92 93  1  0
 92 91  1  0
M  ISO  4   6 101  15 100  23 100  53 101
M  END
>  <TORSDO>  (5) 
F 19

>  <SCORE>  (5) 
-13.727

>  <name>  (5) 
4

>  <ligand_id>  (5) 
4

>  <original_smiles>  (5) 
[H]c1c([H])c([H])c2c(c1[H])C([H])([H])C([H])([H])C([H])([H])C2([H])N([H])C(=O)C1([H])N(C(=O)C([H])(N([H])C(=O)C([H])(N([H])C([H])([H])[H])C([H])([H])[H])C(C([H])([H])[H])(C([H])([H])[H])C([H])([H])[H])C([H])([H])c2c([H])c(OC3([H])C([H])([H])C([H])([H])C([H])([H])C([H])(c4c([H])c([H])c(C([H])([H])C([H])([H])N([H])C(=O)N5C([H])([H])C([H])([H])C([H])([H])C([H])(n6nc(-c7c([H])c([H])c(Oc8c([H])c([H])c(F)c([H])c8F)c([H])c7[H])c(C(=O)N([H])[H])c6N([H])[H])C5([H])[H])c([H])c4[H])C3([H])[H])c([H])c([H])c2C1([H])[H]

>  <smiles>  (5) 
[H]c1c([H])c([H])c2c(c1[H])C([H])([H])C([H])([H])C([H])([H])C2([H])N([H])C(=O)C1([H])N(C(=O)C([H])(N([H])C(=O)C([H])(N([H])C([H])([H])[H])C([H])([H])[H])C(C([H])([H])[H])(C([H])([H])[H])C([H])([H])[H])C([H])([H])c2c([H])c(OC3([H])C([H])([H])C([H])([H])C([H])([H])C([H])(c4c([H])c([H])c(C([H])([H])C([H])([H])N([H])C(=O)N5C([H])([H])C([H])([H])C([H])([H])C([H])(n6nc(-c7c([H])c([H])c(Oc8c([H])c([H])c(F)c([H])c8F)c([H])c7[H])c(C(=O)N([H])[H])c6N([H])[H])C5([H])[H])c([H])c4[H])C3([H])[H])c([H])c([H])c2C1([H])[H]

$$$$
5:0:0
     RDKit          3D

 90 99  0  0  1  0  0  0  0  0999 V2000
  -31.0290  -19.5180   22.2670 C   0  0  0  0  0  3  0  0  0  0  0  0
  -30.7890  -18.2010   21.8000 C   0  0  0  0  0  3  0  0  0  0  0  0
  -30.3810  -20.6580   21.7290 C   0  0  0  0  0  3  0  0  0  0  0  0
  -29.8990  -17.9510   20.7370 C   0  0  0  0  0  0  0  0  0  0  0  0
  -29.2760  -19.1720   20.1670 C   0  0  0  0  0  0  0  0  0  0  0  0
  -29.4670  -20.5580   20.6590 C   0  0  0  0  0  0  0  0  0  0  0  0
  -28.3900  -18.9600   18.9550 C   0  0  0  0  0  2  0  0  0  0  0  0
  -28.8520  -17.7390   18.1510 C   0  0  0  0  0  2  0  0  0  0  0  0
  -28.7300  -16.4480   18.9740 C   0  0  0  0  0  2  0  0  0  0  0  0
  -29.5090  -16.4050   20.3240 C   0  0  0  0  0  3  0  0  0  0  0  0
  -30.4540  -15.0250   20.3710 C   0  0  0  0  0  0  0  0  0  0  0  0
  -30.3970  -12.6670   19.4500 C   0  0  0  0  0  2  0  0  0  0  0  0
  -29.4610  -12.6300   18.2150 C   0  0  0  0  0  2  0  0  0  0  0  0
  -27.9930  -12.4100   18.6340 C   0  0  0  0  0  2  0  0  0  0  0  0
  -27.5750  -13.3030   19.8280 C   0  0  0  0  0  3  0  0  0  0  0  0
  -28.6340  -13.3120   20.9500 C   0  0  0  0  0  2  0  0  0  0  0  0
  -29.9140  -13.7370   20.3660 N   0  0  0  0  0  0  0  0  0  0  0  0
  -31.6680  -15.1150   20.1550 O   0  0  0  0  0  0  0  0  0  0  0  0
  -25.1860  -13.8740   20.5550 C   0  0  0  0  0  0  0  0  0  0  0  0
  -24.1260  -13.0900   20.9140 C   0  0  0  0  0  0  0  0  0  0  0  0
  -24.6040  -11.7440   20.8860 C   0  0  0  0  0  0  0  0  0  0  0  0
  -26.2380  -13.0020   20.3210 N   0  0  0  0  0  0  0  0  0  0  0  0
  -25.8960  -11.7170   20.5870 N   0  0  0  0  0  0  0  0  0  0  0  0
  -23.8910  -10.4750   21.0670 C   0  0  0  0  0  0  0  0  0  0  0  0
  -24.3310   -9.5100   22.0000 C   0  0  0  0  0  3  0  0  0  0  0  0
  -23.6180   -8.3050   22.1710 C   0  0  0  0  0  3  0  0  0  0  0  0
  -22.4520   -8.0550   21.4070 C   0  0  0  0  0  0  0  0  0  0  0  0
  -22.0330   -9.0090   20.4620 C   0  0  0  0  0  3  0  0  0  0  0  0
  -22.7460  -10.2060   20.2910 C   0  0  0  0  0  3  0  0  0  0  0  0
  -21.7110   -6.9020   21.4880 O   0  0  0  0  0  0  0  0  0  0  0  0
  -21.6660   -6.1540   22.6370 C   0  0  0  0  0  0  0  0  0  0  0  0
  -21.2060   -6.6940   23.8580 C   0  0  0  0  0  3  0  0  0  0  0  0
  -21.1100   -5.8720   24.9990 C   0  0  0  0  0  3  0  0  0  0  0  0
  -21.4630   -4.5110   24.9180 C   0  0  0  0  0  0  0  0  0  0  0  0
  -21.9150   -3.9710   23.7010 C   0  0  0  0  0  3  0  0  0  0  0  0
  -22.0130   -4.7910   22.5630 C   0  0  0  0  0  0  0  0  0  0  0  0
  -22.4300   -4.2610   21.3880 F   0  0  0  0  0  0  0  0  0  0  0  0
  -21.3640   -3.7180   26.0110 F   0  0  0  0  0  0  0  0  0  0  0  0
  -22.7220  -13.5520   21.1740 C   0  0  0  0  0  0  0  0  0  0  0  0
  -21.9910  -12.8440   22.0280 N   0  0  0  0  0  0  0  0  0  0  0  0
  -22.2790  -14.5770   20.6560 O   0  0  0  0  0  0  0  0  0  0  0  0
  -22.3620  -12.0160   22.4700 H   0  0  0  0  0  0  0  0  0  0  0  0
  -21.0480  -13.1350   22.2430 H   0  0  0  0  0  0  0  0  0  0  0  0
  -25.3360  -15.2480   20.3860 N   0  0  0  0  0  0  0  0  0  0  0  0
  -24.5620  -15.8920   20.5040 H   0  0  0  0  0  0  0  0  0  0  0  0
  -26.1880  -15.7050   20.0910 H   0  0  0  0  0  0  0  0  0  0  0  0
  -28.7120  -21.9150   20.1230 C   0  0  0  0  0  2  0  0  0  0  0  0
  -28.9690  -23.4950   20.6200 C   0  0  0  0  0  3  0  0  0  0  0  0
  -28.0250  -24.7860   20.1220 C   0  0  0  0  0  3  0  0  0  0  0  0
  -28.2430  -26.2910   20.3980 O   0  0  0  0  0  0  0  0  0  0  0  0
  -24.6170  -31.9880   23.2710 C   0  0  0  0  0  0  0  0  0  0  0  0
  -27.1780  -27.2530   20.2960 C   0  0  0  0  0  0  0  0  0  0  0  0
  -23.4100  -30.5860   21.6400 C   0  0  0  0  0  3  0  0  0  0  0  0
  -24.8510  -28.9890   20.2350 C   0  0  0  0  0  0  0  0  0  0  0  0
  -25.9630  -30.8380   21.4800 C   0  0  0  0  0  2  0  0  0  0  0  0
  -26.0290  -29.4420   20.8440 C   0  0  0  0  0  0  0  0  0  0  0  0
  -27.1910  -28.5880   20.8590 C   0  0  0  0  0  3  0  0  0  0  0  0
  -25.9760  -26.8970   19.6420 C   0  0  0  0  0  3  0  0  0  0  0  0
  -24.8370  -27.7290   19.6190 C   0  0  0  0  0  3  0  0  0  0  0  0
  -23.6280  -29.8920   20.2700 C   0  0  0  0  0  2  0  0  0  0  0  0
  -24.6830  -31.1590   22.1850 N   0  0  0  0  0  0  0  0  0  0  0  0
  -23.5330  -32.2880   23.7930 O   0  0  0  0  0  0  0  0  0  0  0  0
  -22.7200  -29.5950   22.6100 C   0  0  0  0  0  0  0  0  0  0  0  0
  -21.3920  -29.4300   22.4740 N   0  0  0  0  0  0  0  0  0  0  0  0
  -23.3820  -28.9780   23.4490 O   0  0  0  0  0  0  0  0  0  0  0  0
  -20.9160  -29.9780   21.7710 H   0  0  0  0  0  0  0  0  0  0  0  0
  -17.9970  -28.2710   22.9760 C   0  0  0  0  0  0  0  0  0  0  0  0
  -20.5580  -28.5090   23.2500 C   0  0  0  0  0  3  0  0  0  0  0  0
  -20.6460  -27.0700   22.6890 C   0  0  0  0  0  2  0  0  0  0  0  0
  -19.5440  -26.7500   21.6730 C   0  0  0  0  0  2  0  0  0  0  0  0
  -18.1610  -26.9150   22.3110 C   0  0  0  0  0  2  0  0  0  0  0  0
  -19.1230  -29.0260   23.4020 C   0  0  0  0  0  0  0  0  0  0  0  0
  -18.9140  -30.2950   23.9850 C   0  0  0  0  0  3  0  0  0  0  0  0
  -17.6130  -30.8100   24.1440 C   0  0  0  0  0  3  0  0  0  0  0  0
  -16.5020  -30.0520   23.7340 C   0  0  0  0  0  3  0  0  0  0  0  0
  -16.6960  -28.7850   23.1550 C   0  0  0  0  0  3  0  0  0  0  0  0
  -25.9000  -32.6180   23.8950 C   0  0  0  0  0  3  0  0  0  0  0  0
  -26.4060  -31.8480   25.1780 C   0  0  1  0  0  0  0  0  0  0  0  0
  -25.3040  -31.6100   26.2370 C   0  0  0  0  0  1  0  0  0  0  0  0
  -26.9930  -30.4700   24.7960 C   0  0  0  0  0  1  0  0  0  0  0  0
  -27.5510  -32.6430   25.8480 C   0  0  0  0  0  1  0  0  0  0  0  0
  -25.5960  -34.0190   24.2260 N   0  0  0  0  0  0  0  0  0  0  0  0
  -25.9210  -35.0700   23.4620 C   0  0  0  0  0  0  0  0  0  0  0  0
  -26.5740  -34.9630   22.4210 O   0  0  0  0  0  0  0  0  0  0  0  0
  -25.0140  -34.1760   25.0350 H   0  0  0  0  0  0  0  0  0  0  0  0
  -24.1880  -36.8680   23.1420 C   0  0  0  0  0  1  0  0  0  0  0  0
  -25.4470  -36.4630   23.9260 C   0  0  0  0  0  3  0  0  0  0  0  0
  -27.6000  -37.3520   24.7060 C   0  0  0  0  0  1  0  0  0  0  0  0
  -26.4790  -37.5140   23.7840 N   0  0  0  0  0  0  0  0  0  0  0  0
  -26.0770  -38.4360   23.9320 H   0  0  0  0  0  0  0  0  0  0  0  0
  2  1  1  0
  3  1  2  0
  4  2  2  0
  5  6  2  0
  5  4  1  0
  6  3  1  0
  7  5  1  0
  8  7  1  0
  8  9  1  0
  9 10  1  0
 10 11  1  0
 10  4  1  0
 12 17  1  0
 13 14  1  0
 13 12  1  0
 15 14  1  0
 15 22  1  0
 15 16  1  0
 17 11  1  0
 17 16  1  0
 18 11  2  0
 19 20  2  0
 20 39  1  0
 21 20  1  0
 21 24  1  0
 22 19  1  0
 22 23  1  0
 23 21  2  0
 24 25  1  0
 25 26  2  0
 27 30  1  0
 27 26  1  0
 28 27  2  0
 29 28  1  0
 29 24  2  0
 30 31  1  0
 31 32  1  0
 32 33  2  0
 34 33  1  0
 34 38  1  0
 35 34  2  0
 36 31  2  0
 36 35  1  0
 37 36  1  0
 39 40  1  0
 40 43  1  0
 40 42  1  0
 41 39  2  0
 44 45  1  0
 44 19  1  0
 46 44  1  0
 47 48  1  0
 47  6  1  0
 49 50  1  0
 49 48  2  0
 51 62  2  0
 52 50  1  0
 52 57  1  0
 53 61  1  0
 53 63  1  0
 54 60  1  0
 54 56  1  0
 55 61  1  0
 56 57  2  0
 56 55  1  0
 58 52  2  0
 59 58  1  0
 59 54  2  0
 60 53  1  0
 61 51  1  0
 63 65  2  0
 64 63  1  0
 66 64  1  0
 67 76  2  0
 67 72  1  0
 68 64  1  0
 68 72  1  0
 69 68  1  0
 70 71  1  0
 70 69  1  0
 71 67  1  0
 72 73  2  0
 73 74  1  0
 75 74  2  0
 76 75  1  0
 77 51  1  0
 77 82  1  0
 77 78  1  0
 78 81  1  1
 78 79  1  0
 80 78  1  0
 82 85  1  0
 83 87  1  0
 83 82  1  0
 84 83  2  0
 87 86  1  0
 89 87  1  0
 89 90  1  0
 89 88  1  0
M  ISO  4  10 100  11 100  49 101  50 101
M  END
>  <TORSDO>  (6) 
F 19

>  <SCORE>  (6) 
-14.379

>  <name>  (6) 
5

>  <ligand_id>  (6) 
5

>  <original_smiles>  (6) 
[H]c1c([H])c([H])c2c(c1[H])C([H])([H])C([H])([H])C([H])([H])C2([H])N([H])C(=O)C1([H])N(C(=O)C([H])(N([H])C(=O)C([H])(N([H])C([H])([H])[H])C([H])([H])[H])C(C([H])([H])[H])(C([H])([H])[H])C([H])([H])[H])C([H])([H])c2c([H])c(OC([H])([H])C([H])([H])C([H])([H])c3c([H])c([H])c([H])c4c3C([H])([H])C([H])([H])C([H])([H])C4([H])C(=O)N3C([H])([H])C([H])([H])C([H])([H])C([H])(n4nc(-c5c([H])c([H])c(Oc6c([H])c([H])c(F)c([H])c6F)c([H])c5[H])c(C(=O)N([H])[H])c4N([H])[H])C3([H])[H])c([H])c([H])c2C1([H])[H]

>  <smiles>  (6) 
[H]c1c([H])c([H])c2c(c1[H])C([H])([H])C([H])([H])C([H])([H])C2([H])N([H])C(=O)C1([H])N(C(=O)C([H])(N([H])C(=O)C([H])(N([H])C([H])([H])[H])C([H])([H])[H])C(C([H])([H])[H])(C([H])([H])[H])C([H])([H])[H])C([H])([H])c2c([H])c(OC([H])([H])C([H])([H])C([H])([H])c3c([H])c([H])c([H])c4c3C([H])([H])C([H])([H])C([H])([H])C4([H])C(=O)N3C([H])([H])C([H])([H])C([H])([H])C([H])(n4nc(-c5c([H])c([H])c(Oc6c([H])c([H])c(F)c([H])c6F)c([H])c5[H])c(C(=O)N([H])[H])c4N([H])[H])C3([H])[H])c([H])c([H])c2C1([H])[H]

$$$$
6:0:0
     RDKit          3D

 89 98  0  0  1  0  0  0  0  0999 V2000
  -28.0970  -23.1420   20.2660 C   0  0  0  0  0  3  0  0  0  0  0  0
  -29.0440  -21.8760   20.2770 C   0  0  0  0  0  0  0  0  0  0  0  0
  -28.5930  -24.5370   20.2610 C   0  0  0  0  0  0  0  0  0  0  0  0
  -30.2800  -22.4730   20.2710 C   0  0  0  0  0  0  0  0  0  0  0  0
  -31.4270  -21.7560   20.2670 F   0  0  0  0  0  0  0  0  0  0  0  0
  -30.3360  -24.2580   20.2540 S   0  0  0  0  0  0  0  0  0  0  0  0
  -28.3300  -26.0240   20.2600 O   0  0  0  0  0  0  0  0  0  0  0  0
  -24.6540  -31.8980   23.2290 C   0  0  0  0  0  0  0  0  0  0  0  0
  -27.2150  -27.0040   20.2580 C   0  0  0  0  0  0  0  0  0  0  0  0
  -23.4570  -30.4870   21.6010 C   0  0  0  0  0  3  0  0  0  0  0  0
  -24.9000  -28.8570   20.2020 C   0  0  0  0  0  0  0  0  0  0  0  0
  -26.0200  -30.6960   21.4510 C   0  0  0  0  0  2  0  0  0  0  0  0
  -26.0840  -29.2780   20.8160 C   0  0  0  0  0  0  0  0  0  0  0  0
  -27.2320  -28.3720   20.8160 C   0  0  0  0  0  3  0  0  0  0  0  0
  -26.0000  -26.7180   19.5980 C   0  0  0  0  0  3  0  0  0  0  0  0
  -24.8810  -27.5970   19.5720 C   0  0  0  0  0  3  0  0  0  0  0  0
  -23.6850  -29.7820   20.2340 C   0  0  0  0  0  2  0  0  0  0  0  0
  -24.7330  -31.0580   22.1460 N   0  0  0  0  0  0  0  0  0  0  0  0
  -23.5670  -32.1950   23.7480 O   0  0  0  0  0  0  0  0  0  0  0  0
  -22.7600  -29.5080   22.5810 C   0  0  0  0  0  0  0  0  0  0  0  0
  -21.4290  -29.3480   22.4570 N   0  0  0  0  0  0  0  0  0  0  0  0
  -23.4230  -28.8920   23.4180 O   0  0  0  0  0  0  0  0  0  0  0  0
  -20.9500  -29.8950   21.7540 H   0  0  0  0  0  0  0  0  0  0  0  0
  -18.0450  -28.1400   22.9670 C   0  0  0  0  0  0  0  0  0  0  0  0
  -20.6040  -28.4190   23.2360 C   0  0  0  0  0  3  0  0  0  0  0  0
  -20.7130  -26.9800   22.6820 C   0  0  0  0  0  2  0  0  0  0  0  0
  -19.6160  -26.6400   21.6680 C   0  0  0  0  0  2  0  0  0  0  0  0
  -18.2300  -26.7840   22.3050 C   0  0  0  0  0  2  0  0  0  0  0  0
  -19.1590  -28.9140   23.3900 C   0  0  0  0  0  0  0  0  0  0  0  0
  -18.9290  -30.1780   23.9750 C   0  0  0  0  0  3  0  0  0  0  0  0
  -17.6200  -30.6690   24.1400 C   0  0  0  0  0  3  0  0  0  0  0  0
  -16.5220  -29.8940   23.7300 C   0  0  0  0  0  3  0  0  0  0  0  0
  -16.7360  -28.6320   23.1470 C   0  0  0  0  0  3  0  0  0  0  0  0
  -25.9270  -32.5450   23.8590 C   0  0  0  0  0  3  0  0  0  0  0  0
  -26.4320  -31.7880   25.1500 C   0  0  1  0  0  0  0  0  0  0  0  0
  -25.3330  -31.5690   26.2170 C   0  0  0  0  0  1  0  0  0  0  0  0
  -27.0140  -30.4030   24.7870 C   0  0  0  0  0  1  0  0  0  0  0  0
  -27.5810  -32.5860   25.8100 C   0  0  0  0  0  1  0  0  0  0  0  0
  -25.6090  -33.9470   24.1880 N   0  0  0  0  0  0  0  0  0  0  0  0
  -25.9240  -35.0050   23.4300 C   0  0  0  0  0  0  0  0  0  0  0  0
  -26.5770  -34.9050   22.3890 O   0  0  0  0  0  0  0  0  0  0  0  0
  -25.0280  -34.0970   25.0000 H   0  0  0  0  0  0  0  0  0  0  0  0
  -24.1820  -36.8010   23.1200 C   0  0  0  0  0  1  0  0  0  0  0  0
  -25.4440  -36.3950   23.8990 C   0  0  0  0  0  3  0  0  0  0  0  0
  -27.5950  -37.2960   24.6720 C   0  0  0  0  0  1  0  0  0  0  0  0
  -26.4680  -37.4530   23.7570 N   0  0  0  0  0  0  0  0  0  0  0  0
  -26.0600  -38.3720   23.9110 H   0  0  0  0  0  0  0  0  0  0  0  0
  -28.8420  -20.1450   20.2470 C   0  0  0  0  0  3  0  0  0  0  0  0
  -29.9070  -18.6860   20.3340 C   0  0  0  0  0  3  0  0  0  0  0  0
  -27.4830  -17.2180   19.1970 C   0  0  0  0  0  2  0  0  0  0  0  0
  -28.8510  -16.8560   18.6500 C   0  0  0  0  0  2  0  0  0  0  0  0
  -28.0180  -16.8060   20.5780 C   0  0  0  0  0  2  0  0  0  0  0  0
  -29.4680  -16.9590   20.0680 C   0  0  2  0  0  0  0  0  0  0  0  0
  -30.3690  -15.4050   20.1830 C   0  0  0  0  0  0  0  0  0  0  0  0
  -30.4590  -12.9410   19.3310 C   0  0  0  0  0  2  0  0  0  0  0  0
  -29.5130  -12.6870   18.1230 C   0  0  0  0  0  2  0  0  0  0  0  0
  -28.0610  -12.4120   18.5610 C   0  0  0  0  0  2  0  0  0  0  0  0
  -27.6160  -13.3440   19.7140 C   0  0  0  0  0  3  0  0  0  0  0  0
  -28.6930  -13.4450   20.8160 C   0  0  0  0  0  2  0  0  0  0  0  0
  -29.8880  -14.0490   20.1850 N   0  0  0  0  0  0  0  0  0  0  0  0
  -31.6000  -15.4240   20.0200 O   0  0  0  0  0  0  0  0  0  0  0  0
  -25.2300  -13.8730   20.4730 C   0  0  0  0  0  0  0  0  0  0  0  0
  -24.1810  -13.0880   20.8400 C   0  0  0  0  0  0  0  0  0  0  0  0
  -24.6680  -11.7500   20.8000 C   0  0  0  0  0  0  0  0  0  0  0  0
  -26.2930  -13.0180   20.2260 N   0  0  0  0  0  0  0  0  0  0  0  0
  -25.9610  -11.7300   20.4910 N   0  0  0  0  0  0  0  0  0  0  0  0
  -23.9510  -10.4880   20.9880 C   0  0  0  0  0  0  0  0  0  0  0  0
  -24.3950   -9.5260   21.9190 C   0  0  0  0  0  3  0  0  0  0  0  0
  -23.6750   -8.3270   22.1020 C   0  0  0  0  0  3  0  0  0  0  0  0
  -22.4970   -8.0880   21.3540 C   0  0  0  0  0  0  0  0  0  0  0  0
  -22.0740   -9.0390   20.4100 C   0  0  0  0  0  3  0  0  0  0  0  0
  -22.7960  -10.2280   20.2250 C   0  0  0  0  0  3  0  0  0  0  0  0
  -21.7440   -6.9450   21.4490 O   0  0  0  0  0  0  0  0  0  0  0  0
  -21.6990   -6.2090   22.6040 C   0  0  0  0  0  0  0  0  0  0  0  0
  -21.2660   -6.7660   23.8270 C   0  0  0  0  0  3  0  0  0  0  0  0
  -21.1690   -5.9530   24.9740 C   0  0  0  0  0  3  0  0  0  0  0  0
  -21.4960   -4.5860   24.8990 C   0  0  0  0  0  0  0  0  0  0  0  0
  -21.9240   -4.0310   23.6800 C   0  0  0  0  0  3  0  0  0  0  0  0
  -22.0210   -4.8390   22.5360 C   0  0  0  0  0  0  0  0  0  0  0  0
  -22.4130   -4.2940   21.3590 F   0  0  0  0  0  0  0  0  0  0  0  0
  -21.3950   -3.8040   25.9990 F   0  0  0  0  0  0  0  0  0  0  0  0
  -22.7850  -13.5610   21.1190 C   0  0  0  0  0  0  0  0  0  0  0  0
  -22.0720  -12.8650   21.9990 N   0  0  0  0  0  0  0  0  0  0  0  0
  -22.3400  -14.5820   20.5990 O   0  0  0  0  0  0  0  0  0  0  0  0
  -22.4500  -12.0320   22.4290 H   0  0  0  0  0  0  0  0  0  0  0  0
  -21.1390  -13.1610   22.2470 H   0  0  0  0  0  0  0  0  0  0  0  0
  -25.3260  -15.2420   20.3240 N   0  0  0  0  0  0  0  0  0  0  0  0
  -24.5230  -15.8440   20.4660 H   0  0  0  0  0  0  0  0  0  0  0  0
  -26.1690  -15.7450   20.0730 H   0  0  0  0  0  0  0  0  0  0  0  0
  1  2  1  0
  3  1  2  0
  4  2  2  0
  5  4  1  0
  6  3  1  0
  6  4  1  0
  7  3  1  0
  8 19  2  0
  9  7  1  0
  9 14  1  0
 10 18  1  0
 10 20  1  0
 11 17  1  0
 11 13  1  0
 12 18  1  0
 13 14  2  0
 13 12  1  0
 15  9  2  0
 16 15  1  0
 16 11  2  0
 17 10  1  0
 18  8  1  0
 20 22  2  0
 21 20  1  0
 23 21  1  0
 24 33  2  0
 24 29  1  0
 25 21  1  0
 25 29  1  0
 26 25  1  0
 27 28  1  0
 27 26  1  0
 28 24  1  0
 29 30  2  0
 30 31  1  0
 32 31  2  0
 33 32  1  0
 34  8  1  0
 34 39  1  0
 34 35  1  0
 35 38  1  1
 35 36  1  0
 37 35  1  0
 39 42  1  0
 40 44  1  0
 40 39  1  0
 41 40  2  0
 44 43  1  0
 46 44  1  0
 46 47  1  0
 46 45  1  0
 48  2  1  0
 48 49  2  0
 50 52  1  0
 51 50  1  0
 51 53  1  0
 53 54  1  0
 53 49  1  6
 53 52  1  0
 54 60  1  0
 55 60  1  0
 56 57  1  0
 56 55  1  0
 58 57  1  0
 58 65  1  0
 58 59  1  0
 60 59  1  0
 61 54  2  0
 62 63  2  0
 63 82  1  0
 64 63  1  0
 64 67  1  0
 65 62  1  0
 65 66  1  0
 66 64  2  0
 67 68  1  0
 68 69  2  0
 70 73  1  0
 70 69  1  0
 71 70  2  0
 72 71  1  0
 72 67  2  0
 73 74  1  0
 74 75  1  0
 75 76  2  0
 77 76  1  0
 77 81  1  0
 78 77  2  0
 79 74  2  0
 79 78  1  0
 80 79  1  0
 82 83  1  0
 83 86  1  0
 83 85  1  0
 84 82  2  0
 87 88  1  0
 87 62  1  0
 89 87  1  0
M  ISO  4   3 101   7 101  53 100  54 100
M  END
>  <TORSDO>  (7) 
F 19

>  <SCORE>  (7) 
-15.963

>  <name>  (7) 
6

>  <ligand_id>  (7) 
6

>  <original_smiles>  (7) 
[H]c1c([H])c([H])c2c(c1[H])C([H])([H])C([H])([H])C([H])([H])C2([H])N([H])C(=O)C1([H])N(C(=O)C([H])(N([H])C(=O)C([H])(N([H])C([H])([H])[H])C([H])([H])[H])C(C([H])([H])[H])(C([H])([H])[H])C([H])([H])[H])C([H])([H])c2c([H])c(Oc3sc(F)c(C([H])([H])C([H])([H])C4(C(=O)N5C([H])([H])C([H])([H])C([H])([H])C([H])(n6nc(-c7c([H])c([H])c(Oc8c([H])c([H])c(F)c([H])c8F)c([H])c7[H])c(C(=O)N([H])[H])c6N([H])[H])C5([H])[H])C([H])([H])C([H])([H])C4([H])[H])c3[H])c([H])c([H])c2C1([H])[H]

>  <smiles>  (7) 
[H]c1c([H])c([H])c2c(c1[H])C([H])([H])C([H])([H])C([H])([H])C2([H])N([H])C(=O)C1([H])N(C(=O)C([H])(N([H])C(=O)C([H])(N([H])C([H])([H])[H])C([H])([H])[H])C(C([H])([H])[H])(C([H])([H])[H])C([H])([H])[H])C([H])([H])c2c([H])c(Oc3sc(F)c(C([H])([H])C([H])([H])C4(C(=O)N5C([H])([H])C([H])([H])C([H])([H])C([H])(n6nc(-c7c([H])c([H])c(Oc8c([H])c([H])c(F)c([H])c8F)c([H])c7[H])c(C(=O)N([H])[H])c6N([H])[H])C5([H])[H])C([H])([H])C([H])([H])C4([H])[H])c3[H])c([H])c([H])c2C1([H])[H]

$$$$
7:0:0
     RDKit          3D

 90 98  0  0  1  0  0  0  0  0999 V2000
  -26.0560  -22.6710   21.9180 C   0  0  0  0  0  3  0  0  0  0  0  0
  -27.1530  -22.2480   21.1780 C   0  0  0  0  0  3  0  0  0  0  0  0
  -26.6820  -24.9410   21.4600 C   0  0  0  0  0  3  0  0  0  0  0  0
  -25.8450  -24.0230   22.0980 C   0  0  0  0  0  0  0  0  0  0  0  0
  -28.1150  -23.0690   20.5280 C   0  0  0  0  0  0  0  0  0  0  0  0
  -27.7560  -24.6540   20.5570 C   0  0  0  0  0  0  0  0  0  0  0  0
  -24.7080  -24.4980   22.9770 C   0  0  0  0  0  1  0  0  0  0  0  0
  -28.1180  -26.0760   20.0400 O   0  0  0  0  0  0  0  0  0  0  0  0
  -24.7240  -32.0570   23.3470 C   0  0  0  0  0  0  0  0  0  0  0  0
  -27.2040  -27.2900   20.0380 C   0  0  0  0  0  0  0  0  0  0  0  0
  -23.5040  -30.7520   21.6570 C   0  0  0  0  0  3  0  0  0  0  0  0
  -24.9280  -29.2210   20.1250 C   0  0  0  0  0  0  0  0  0  0  0  0
  -26.0740  -30.9390   21.4990 C   0  0  0  0  0  2  0  0  0  0  0  0
  -26.1280  -29.5640   20.7640 C   0  0  0  0  0  0  0  0  0  0  0  0
  -27.2570  -28.6170   20.7080 C   0  0  0  0  0  3  0  0  0  0  0  0
  -25.9850  -27.1340   19.3350 C   0  0  0  0  0  3  0  0  0  0  0  0
  -24.8860  -28.0280   19.3890 C   0  0  0  0  0  3  0  0  0  0  0  0
  -23.7150  -30.1450   20.2420 C   0  0  0  0  0  2  0  0  0  0  0  0
  -24.7900  -31.2740   22.2220 N   0  0  0  0  0  0  0  0  0  0  0  0
  -23.6410  -32.3290   23.8930 O   0  0  0  0  0  0  0  0  0  0  0  0
  -22.8120  -29.7120   22.5770 C   0  0  0  0  0  0  0  0  0  0  0  0
  -21.4840  -29.5380   22.4370 N   0  0  0  0  0  0  0  0  0  0  0  0
  -23.4760  -29.0630   23.3880 O   0  0  0  0  0  0  0  0  0  0  0  0
  -21.0010  -30.1140   21.7610 H   0  0  0  0  0  0  0  0  0  0  0  0
  -18.1110  -28.2620   22.8670 C   0  0  0  0  0  0  0  0  0  0  0  0
  -20.6640  -28.5640   23.1660 C   0  0  0  0  0  3  0  0  0  0  0  0
  -20.7950  -27.1520   22.5460 C   0  0  0  0  0  2  0  0  0  0  0  0
  -19.7080  -26.8460   21.5090 C   0  0  0  0  0  2  0  0  0  0  0  0
  -18.3180  -26.9420   22.1440 C   0  0  0  0  0  2  0  0  0  0  0  0
  -19.2110  -29.0310   23.3320 C   0  0  0  0  0  0  0  0  0  0  0  0
  -18.9590  -30.2640   23.9720 C   0  0  0  0  0  3  0  0  0  0  0  0
  -17.6420  -30.7310   24.1470 C   0  0  0  0  0  3  0  0  0  0  0  0
  -16.5570  -29.9590   23.6920 C   0  0  0  0  0  3  0  0  0  0  0  0
  -16.7930  -28.7260   23.0610 C   0  0  0  0  0  3  0  0  0  0  0  0
  -26.0030  -32.6620   23.9980 C   0  0  0  0  0  3  0  0  0  0  0  0
  -25.7050  -34.0560   24.3780 N   0  0  0  0  0  0  0  0  0  0  0  0
  -26.0540  -35.1370   23.6670 C   0  0  0  0  0  0  0  0  0  0  0  0
  -26.7210  -35.0640   22.6320 O   0  0  0  0  0  0  0  0  0  0  0  0
  -25.1110  -34.1850   25.1820 H   0  0  0  0  0  0  0  0  0  0  0  0
  -24.3480  -36.9710   23.4060 C   0  0  0  0  0  1  0  0  0  0  0  0
  -25.5930  -36.5160   24.1840 C   0  0  0  0  0  3  0  0  0  0  0  0
  -27.7490  -37.3400   25.0230 C   0  0  0  0  0  1  0  0  0  0  0  0
  -26.6390  -37.5600   24.1000 N   0  0  0  0  0  0  0  0  0  0  0  0
  -26.2460  -38.4780   24.2890 H   0  0  0  0  0  0  0  0  0  0  0  0
  -26.4950  -31.8520   25.2620 C   0  0  1  0  0  0  0  0  0  0  0  0
  -25.3870  -31.6020   26.3140 C   0  0  0  0  0  1  0  0  0  0  0  0
  -27.0620  -30.4760   24.8490 C   0  0  0  0  0  1  0  0  0  0  0  0
  -27.6520  -32.6110   25.9530 C   0  0  0  0  0  1  0  0  0  0  0  0
  -29.2490  -21.8080   20.0380 C   0  0  0  0  0  3  0  0  0  0  0  0
  -29.1430  -19.9760   20.3300 C   0  0  0  0  0  3  0  0  0  0  0  0
  -30.6810  -15.7970   20.1310 C   0  0  0  0  0  0  0  0  0  0  0  0
  -30.7280  -13.3180   19.3220 C   0  0  0  0  0  2  0  0  0  0  0  0
  -29.8120  -13.0320   18.1040 C   0  0  0  0  0  2  0  0  0  0  0  0
  -28.3790  -12.7150   18.5580 C   0  0  0  0  0  2  0  0  0  0  0  0
  -27.8950  -13.6890   19.6610 C   0  0  0  0  0  3  0  0  0  0  0  0
  -28.9450  -13.9120   20.7710 C   0  0  0  0  0  2  0  0  0  0  0  0
  -30.1470  -14.4660   20.1210 N   0  0  0  0  0  0  0  0  0  0  0  0
  -31.8950  -15.7880   19.8780 O   0  0  0  0  0  0  0  0  0  0  0  0
  -30.1460  -18.5400   20.0480 C   0  0  0  0  0  0  0  0  0  0  0  0
  -29.9000  -17.0740   20.2480 N   0  0  0  0  0  0  0  0  0  0  0  0
  -31.2540  -18.8420   19.6020 O   0  0  0  0  0  0  0  0  0  0  0  0
  -28.9470  -16.8990   20.5270 H   0  0  0  0  0  0  0  0  0  0  0  0
  -25.5300  -14.1850   20.4770 C   0  0  0  0  0  0  0  0  0  0  0  0
  -24.4880  -13.3820   20.8460 C   0  0  0  0  0  0  0  0  0  0  0  0
  -24.9750  -12.0400   20.7710 C   0  0  0  0  0  0  0  0  0  0  0  0
  -26.5820  -13.3340   20.1890 N   0  0  0  0  0  0  0  0  0  0  0  0
  -26.2610  -12.0350   20.4340 N   0  0  0  0  0  0  0  0  0  0  0  0
  -24.2700  -10.7620   20.9430 C   0  0  0  0  0  0  0  0  0  0  0  0
  -24.6780   -9.8160   21.9080 C   0  0  0  0  0  3  0  0  0  0  0  0
  -23.9700   -8.6040   22.0700 C   0  0  0  0  0  3  0  0  0  0  0  0
  -22.8380   -8.3310   21.2650 C   0  0  0  0  0  0  0  0  0  0  0  0
  -22.4480   -9.2670   20.2900 C   0  0  0  0  0  3  0  0  0  0  0  0
  -23.1580  -10.4680   20.1280 C   0  0  0  0  0  3  0  0  0  0  0  0
  -22.1070   -7.1700   21.3310 O   0  0  0  0  0  0  0  0  0  0  0  0
  -21.9480   -6.4870   22.5110 C   0  0  0  0  0  0  0  0  0  0  0  0
  -21.3530   -7.0850   23.6420 C   0  0  0  0  0  3  0  0  0  0  0  0
  -21.1420   -6.3260   24.8110 C   0  0  0  0  0  3  0  0  0  0  0  0
  -21.5180   -4.9690   24.8470 C   0  0  0  0  0  0  0  0  0  0  0  0
  -22.1070   -4.3720   23.7190 C   0  0  0  0  0  3  0  0  0  0  0  0
  -22.3170   -5.1290   22.5530 C   0  0  0  0  0  0  0  0  0  0  0  0
  -22.8650   -4.5410   21.4620 F   0  0  0  0  0  0  0  0  0  0  0  0
  -21.3090   -4.2380   25.9660 F   0  0  0  0  0  0  0  0  0  0  0  0
  -23.0870  -13.8310   21.1480 C   0  0  0  0  0  0  0  0  0  0  0  0
  -22.3840  -13.1110   22.0140 N   0  0  0  0  0  0  0  0  0  0  0  0
  -22.6260  -14.8570   20.6500 O   0  0  0  0  0  0  0  0  0  0  0  0
  -22.7700  -12.2810   22.4410 H   0  0  0  0  0  0  0  0  0  0  0  0
  -21.4470  -13.3960   22.2570 H   0  0  0  0  0  0  0  0  0  0  0  0
  -25.6650  -15.5630   20.3320 N   0  0  0  0  0  0  0  0  0  0  0  0
  -24.8790  -16.1920   20.4590 H   0  0  0  0  0  0  0  0  0  0  0  0
  -26.4780  -16.0190   19.9400 H   0  0  0  0  0  0  0  0  0  0  0  0
  1  4  1  0
  2  1  2  0
  3  4  2  0
  4  7  1  0
  5  6  2  0
  5  2  1  0
  6  3  1  0
  8  6  1  0
  9 20  2  0
 10  8  1  0
 10 15  1  0
 11 19  1  0
 11 21  1  0
 12 18  1  0
 12 14  1  0
 13 19  1  0
 14 13  1  0
 15 14  2  0
 16 17  1  0
 16 10  2  0
 17 12  2  0
 18 11  1  0
 19  9  1  0
 21 23  2  0
 22 21  1  0
 24 22  1  0
 25 34  2  0
 25 30  1  0
 26 22  1  0
 26 30  1  0
 27 26  1  0
 28 29  1  0
 28 27  1  0
 29 25  1  0
 30 31  2  0
 31 32  1  0
 33 32  2  0
 34 33  1  0
 35  9  1  0
 35 36  1  0
 35 45  1  0
 36 39  1  0
 37 41  1  0
 37 36  1  0
 38 37  2  0
 41 40  1  0
 43 41  1  0
 43 44  1  0
 43 42  1  0
 45 48  1  1
 45 46  1  0
 47 45  1  0
 49 50  2  0
 49  5  1  0
 51 60  1  0
 52 57  1  0
 53 54  1  0
 53 52  1  0
 55 54  1  0
 55 66  1  0
 55 56  1  0
 57 51  1  0
 57 56  1  0
 58 51  2  0
 59 60  1  0
 59 50  1  0
 60 62  1  0
 61 59  2  0
 63 64  2  0
 64 83  1  0
 65 64  1  0
 65 68  1  0
 66 67  1  0
 66 63  1  0
 67 65  2  0
 68 69  1  0
 69 70  2  0
 71 74  1  0
 71 70  1  0
 72 71  2  0
 73 72  1  0
 73 68  2  0
 74 75  1  0
 75 80  2  0
 75 76  1  0
 76 77  2  0
 77 78  1  0
 78 82  1  0
 79 78  2  0
 80 79  1  0
 81 80  1  0
 83 84  1  0
 84 87  1  0
 84 86  1  0
 85 83  2  0
 88 89  1  0
 88 63  1  0
 90 88  1  0
M  ISO  4   6 101   8 101  51 100  60 100
M  END
>  <TORSDO>  (8) 
F 18

>  <SCORE>  (8) 
-14.455

>  <name>  (8) 
7

>  <ligand_id>  (8) 
7

>  <original_smiles>  (8) 
[H]c1c([H])c([H])c2c(c1[H])C([H])([H])C([H])([H])C([H])([H])C2([H])N([H])C(=O)C1([H])N(C(=O)C([H])(N([H])C(=O)C([H])(N([H])C([H])([H])[H])C([H])([H])[H])C(C([H])([H])[H])(C([H])([H])[H])C([H])([H])[H])C([H])([H])c2c([H])c(Oc3c([H])c(C([H])([H])[H])c([H])c([H])c3C([H])([H])C([H])([H])C(=O)N([H])C(=O)N3C([H])([H])C([H])([H])C([H])([H])C([H])(n4nc(-c5c([H])c([H])c(Oc6c([H])c([H])c(F)c([H])c6F)c([H])c5[H])c(C(=O)N([H])[H])c4N([H])[H])C3([H])[H])c([H])c([H])c2C1([H])[H]

>  <smiles>  (8) 
[H]c1c([H])c([H])c2c(c1[H])C([H])([H])C([H])([H])C([H])([H])C2([H])N([H])C(=O)C1([H])N(C(=O)C([H])(N([H])C(=O)C([H])(N([H])C([H])([H])[H])C([H])([H])[H])C(C([H])([H])[H])(C([H])([H])[H])C([H])([H])[H])C([H])([H])c2c([H])c(Oc3c([H])c(C([H])([H])[H])c([H])c([H])c3C([H])([H])C([H])([H])C(=O)N([H])C(=O)N3C([H])([H])C([H])([H])C([H])([H])C([H])(n4nc(-c5c([H])c([H])c(Oc6c([H])c([H])c(F)c([H])c6F)c([H])c5[H])c(C(=O)N([H])[H])c4N([H])[H])C3([H])[H])c([H])c([H])c2C1([H])[H]

$$$$
8:0:0
     RDKit          3D

 90 98  0  0  1  0  0  0  0  0999 V2000
  -27.4190  -20.5860   18.9790 C   0  0  0  0  0  3  0  0  0  0  0  0
  -28.0910  -21.8110   19.1540 C   0  0  0  0  0  3  0  0  0  0  0  0
  -27.9250  -19.4040   19.5550 C   0  0  0  0  0  3  0  0  0  0  0  0
  -29.7910  -20.6630   20.4790 C   0  0  0  0  0  3  0  0  0  0  0  0
  -29.2800  -21.8670   19.9100 C   0  0  0  0  0  0  0  0  0  0  0  0
  -29.1170  -19.4200   20.3080 C   0  0  0  0  0  0  0  0  0  0  0  0
  -30.0450  -23.1970   20.0250 C   0  0  0  0  0  2  0  0  0  0  0  0
  -29.3340  -24.4260   20.6730 C   0  0  0  0  0  2  0  0  0  0  0  0
  -28.3630  -25.2560   19.7950 C   0  0  0  0  0  2  0  0  0  0  0  0
  -28.3610  -26.6510   20.1930 O   0  0  0  0  0  0  0  0  0  0  0  0
  -24.5830  -31.8820   23.2460 C   0  0  0  0  0  0  0  0  0  0  0  0
  -27.1900  -27.3940   20.1520 C   0  0  0  0  0  0  0  0  0  0  0  0
  -23.3690  -30.4910   21.6050 C   0  0  0  0  0  3  0  0  0  0  0  0
  -24.8100  -28.9460   20.1770 C   0  0  0  0  0  0  0  0  0  0  0  0
  -25.9010  -30.8250   21.4060 C   0  0  0  0  0  2  0  0  0  0  0  0
  -25.9750  -29.4520   20.7610 C   0  0  0  0  0  0  0  0  0  0  0  0
  -27.1670  -28.6860   20.7410 C   0  0  0  0  0  3  0  0  0  0  0  0
  -26.0000  -26.9190   19.5490 C   0  0  0  0  0  3  0  0  0  0  0  0
  -24.8180  -27.6780   19.5710 C   0  0  0  0  0  3  0  0  0  0  0  0
  -23.5730  -29.8160   20.2250 C   0  0  0  0  0  2  0  0  0  0  0  0
  -24.6370  -31.0820   22.1430 N   0  0  0  0  0  0  0  0  0  0  0  0
  -23.5030  -32.1600   23.7840 O   0  0  0  0  0  0  0  0  0  0  0  0
  -22.7100  -29.4720   22.5620 C   0  0  0  0  0  0  0  0  0  0  0  0
  -21.3850  -29.2990   22.4310 N   0  0  0  0  0  0  0  0  0  0  0  0
  -23.3880  -28.8390   23.3740 O   0  0  0  0  0  0  0  0  0  0  0  0
  -20.9000  -29.8610   21.7450 H   0  0  0  0  0  0  0  0  0  0  0  0
  -18.0020  -28.1300   22.9300 C   0  0  0  0  0  0  0  0  0  0  0  0
  -20.5620  -28.3650   23.1990 C   0  0  0  0  0  3  0  0  0  0  0  0
  -20.6530  -26.9360   22.6170 C   0  0  0  0  0  2  0  0  0  0  0  0
  -19.5470  -26.6250   21.6040 C   0  0  0  0  0  2  0  0  0  0  0  0
  -18.1670  -26.7820   22.2490 C   0  0  0  0  0  2  0  0  0  0  0  0
  -19.1280  -28.8800   23.3640 C   0  0  0  0  0  0  0  0  0  0  0  0
  -18.9220  -30.1430   23.9590 C   0  0  0  0  0  3  0  0  0  0  0  0
  -17.6220  -30.6570   24.1260 C   0  0  0  0  0  3  0  0  0  0  0  0
  -16.5100  -29.9040   23.7090 C   0  0  0  0  0  3  0  0  0  0  0  0
  -16.7020  -28.6410   23.1190 C   0  0  0  0  0  3  0  0  0  0  0  0
  -25.8710  -32.5060   23.8700 C   0  0  0  0  0  3  0  0  0  0  0  0
  -25.5710  -33.9060   24.1950 N   0  0  0  0  0  0  0  0  0  0  0  0
  -25.9080  -34.9530   23.4310 C   0  0  0  0  0  0  0  0  0  0  0  0
  -26.5760  -34.8410   22.3990 O   0  0  0  0  0  0  0  0  0  0  0  0
  -24.9820  -34.0670   24.9990 H   0  0  0  0  0  0  0  0  0  0  0  0
  -24.1910  -36.7540   23.0670 C   0  0  0  0  0  1  0  0  0  0  0  0
  -25.4270  -36.3450   23.8840 C   0  0  0  0  0  3  0  0  0  0  0  0
  -27.5660  -37.2180   24.7180 C   0  0  0  0  0  1  0  0  0  0  0  0
  -26.4660  -37.3910   23.7730 N   0  0  0  0  0  0  0  0  0  0  0  0
  -26.0650  -38.3140   23.9170 H   0  0  0  0  0  0  0  0  0  0  0  0
  -26.3790  -31.7340   25.1490 C   0  0  1  0  0  0  0  0  0  0  0  0
  -25.2800  -31.5100   26.2140 C   0  0  0  0  0  1  0  0  0  0  0  0
  -26.9540  -30.3530   24.7590 C   0  0  0  0  0  1  0  0  0  0  0  0
  -27.5340  -32.5230   25.8120 C   0  0  0  0  0  1  0  0  0  0  0  0
  -29.5690  -18.1130   21.0030 C   0  0  0  0  0  2  0  0  0  0  0  0
  -30.1890  -16.9960   20.1030 C   0  0  0  0  0  2  0  0  0  0  0  0
  -30.7200  -14.5320   20.2730 C   0  0  0  0  0  0  0  0  0  0  0  0
  -30.3910  -12.3570   19.1740 C   0  0  0  0  0  2  0  0  0  0  0  0
  -29.4380  -12.5680   17.9810 C   0  0  0  0  0  2  0  0  0  0  0  0
  -27.9690  -12.4230   18.4250 C   0  0  0  0  0  2  0  0  0  0  0  0
  -27.6450  -13.2670   19.6870 C   0  0  0  0  0  3  0  0  0  0  0  0
  -28.7180  -13.0730   20.7880 C   0  0  0  0  0  2  0  0  0  0  0  0
  -30.0380  -13.3530   20.2000 N   0  0  0  0  0  0  0  0  0  0  0  0
  -31.8610  -14.6630   19.8250 O   0  0  0  0  0  0  0  0  0  0  0  0
  -29.9900  -15.6170   20.6220 N   0  0  0  0  0  0  0  0  0  0  0  0
  -29.0900  -15.4220   21.0320 H   0  0  0  0  0  0  0  0  0  0  0  0
  -25.2590  -13.8790   20.4310 C   0  0  0  0  0  0  0  0  0  0  0  0
  -24.1930  -13.1110   20.8200 C   0  0  0  0  0  0  0  0  0  0  0  0
  -24.6500  -11.7590   20.7850 C   0  0  0  0  0  0  0  0  0  0  0  0
  -26.2990  -12.9960   20.1880 N   0  0  0  0  0  0  0  0  0  0  0  0
  -25.9350  -11.7150   20.4590 N   0  0  0  0  0  0  0  0  0  0  0  0
  -23.9210  -10.4990   20.9860 C   0  0  0  0  0  0  0  0  0  0  0  0
  -24.3560   -9.5350   21.9210 C   0  0  0  0  0  3  0  0  0  0  0  0
  -23.6270   -8.3410   22.1120 C   0  0  0  0  0  3  0  0  0  0  0  0
  -22.4460   -8.1040   21.3690 C   0  0  0  0  0  0  0  0  0  0  0  0
  -22.0290   -9.0570   20.4230 C   0  0  0  0  0  3  0  0  0  0  0  0
  -22.7600  -10.2420   20.2300 C   0  0  0  0  0  3  0  0  0  0  0  0
  -21.6900   -6.9600   21.4670 O   0  0  0  0  0  0  0  0  0  0  0  0
  -21.6440   -6.2260   22.6240 C   0  0  0  0  0  0  0  0  0  0  0  0
  -21.2190   -6.7880   23.8480 C   0  0  0  0  0  3  0  0  0  0  0  0
  -21.1200   -5.9770   24.9970 C   0  0  0  0  0  3  0  0  0  0  0  0
  -21.4360   -4.6070   24.9230 C   0  0  0  0  0  0  0  0  0  0  0  0
  -21.8540   -4.0460   23.7030 C   0  0  0  0  0  3  0  0  0  0  0  0
  -21.9530   -4.8520   22.5570 C   0  0  0  0  0  0  0  0  0  0  0  0
  -22.3360   -4.3030   21.3790 F   0  0  0  0  0  0  0  0  0  0  0  0
  -21.3330   -3.8270   26.0240 F   0  0  0  0  0  0  0  0  0  0  0  0
  -22.8010  -13.5960   21.1070 C   0  0  0  0  0  0  0  0  0  0  0  0
  -22.0750  -12.9030   21.9800 N   0  0  0  0  0  0  0  0  0  0  0  0
  -22.3630  -14.6230   20.5910 O   0  0  0  0  0  0  0  0  0  0  0  0
  -22.4360  -12.0700   22.4200 H   0  0  0  0  0  0  0  0  0  0  0  0
  -21.1420  -13.2150   22.2060 H   0  0  0  0  0  0  0  0  0  0  0  0
  -25.4180  -15.2500   20.2460 N   0  0  0  0  0  0  0  0  0  0  0  0
  -24.6360  -15.8890   20.3440 H   0  0  0  0  0  0  0  0  0  0  0  0
  -26.2560  -15.7060   19.9110 H   0  0  0  0  0  0  0  0  0  0  0  0
  1  2  2  0
  1  3  1  0
  2  5  1  0
  3  6  2  0
  5  7  1  0
  5  4  2  0
  6  4  1  0
  6 51  1  0
  7  8  1  0
  9 10  1  0
  9  8  1  0
 11 22  2  0
 12 10  1  0
 12 17  1  0
 13 21  1  0
 13 23  1  0
 14 20  1  0
 14 16  1  0
 15 21  1  0
 16 15  1  0
 17 16  2  0
 18 19  1  0
 18 12  2  0
 19 14  2  0
 20 13  1  0
 21 11  1  0
 23 25  2  0
 24 23  1  0
 26 24  1  0
 27 36  2  0
 27 32  1  0
 28 24  1  0
 28 32  1  0
 29 28  1  0
 30 31  1  0
 30 29  1  0
 31 27  1  0
 32 33  2  0
 33 34  1  0
 35 34  2  0
 36 35  1  0
 37 11  1  0
 37 38  1  0
 37 47  1  0
 38 41  1  0
 39 43  1  0
 39 38  1  0
 40 39  2  0
 43 42  1  0
 45 43  1  0
 45 46  1  0
 45 44  1  0
 47 50  1  1
 47 48  1  0
 49 47  1  0
 52 61  1  0
 52 51  1  0
 53 61  1  0
 54 59  1  0
 55 56  1  0
 55 54  1  0
 57 56  1  0
 57 66  1  0
 57 58  1  0
 59 53  1  0
 59 58  1  0
 60 53  2  0
 61 62  1  0
 63 64  2  0
 64 83  1  0
 65 64  1  0
 65 68  1  0
 66 63  1  0
 66 67  1  0
 67 65  2  0
 68 69  1  0
 69 70  2  0
 71 74  1  0
 71 70  1  0
 72 71  2  0
 73 72  1  0
 73 68  2  0
 74 75  1  0
 75 76  1  0
 76 77  2  0
 78 77  1  0
 78 82  1  0
 79 78  2  0
 80 75  2  0
 80 79  1  0
 81 80  1  0
 83 84  1  0
 84 87  1  0
 84 86  1  0
 85 83  2  0
 88 89  1  0
 88 63  1  0
 90 88  1  0
M  ISO  4   9 101  10 101  53 100  61 100
M  END
>  <TORSDO>  (9) 
F 21

>  <SCORE>  (9) 
-13.470

>  <name>  (9) 
8

>  <ligand_id>  (9) 
8

>  <original_smiles>  (9) 
[H]c1c([H])c(C([H])([H])C([H])([H])N([H])C(=O)N2C([H])([H])C([H])([H])C([H])([H])C([H])(n3nc(-c4c([H])c([H])c(Oc5c([H])c([H])c(F)c([H])c5F)c([H])c4[H])c(C(=O)N([H])[H])c3N([H])[H])C2([H])[H])c([H])c(C([H])([H])C([H])([H])C([H])([H])Oc2c([H])c([H])c3c(c2[H])C([H])([H])N(C(=O)C([H])(N([H])C(=O)C([H])(N([H])C([H])([H])[H])C([H])([H])[H])C(C([H])([H])[H])(C([H])([H])[H])C([H])([H])[H])C([H])(C(=O)N([H])C2([H])c4c([H])c([H])c([H])c([H])c4C([H])([H])C([H])([H])C2([H])[H])C3([H])[H])c1[H]

>  <smiles>  (9) 
[H]c1c([H])c(C([H])([H])C([H])([H])N([H])C(=O)N2C([H])([H])C([H])([H])C([H])([H])C([H])(n3nc(-c4c([H])c([H])c(Oc5c([H])c([H])c(F)c([H])c5F)c([H])c4[H])c(C(=O)N([H])[H])c3N([H])[H])C2([H])[H])c([H])c(C([H])([H])C([H])([H])C([H])([H])Oc2c([H])c([H])c3c(c2[H])C([H])([H])N(C(=O)C([H])(N([H])C(=O)C([H])(N([H])C([H])([H])[H])C([H])([H])[H])C(C([H])([H])[H])(C([H])([H])[H])C([H])([H])[H])C([H])(C(=O)N([H])C2([H])c4c([H])c([H])c([H])c([H])c4C([H])([H])C([H])([H])C2([H])[H])C3([H])[H])c1[H]

$$$$
9:0:0
     RDKit          3D

 88 96  0  0  1  0  0  0  0  0999 V2000
  -27.5910  -21.0530   20.7990 C   0  0  0  0  0  3  0  0  0  0  0  0
  -26.7370  -22.1550   21.1140 C   0  0  0  0  0  3  0  0  0  0  0  0
  -29.0490  -22.7650   19.9580 C   0  0  0  0  0  3  0  0  0  0  0  0
  -28.8620  -21.1740   20.1980 C   0  0  0  0  0  0  0  0  0  0  0  0
  -26.9790  -23.5490   20.8850 C   0  0  0  0  0  0  0  0  0  0  0  0
  -28.1440  -24.0770   20.2520 C   0  0  0  0  0  0  0  0  0  0  0  0
  -26.0220  -24.4060   21.3430 O   0  0  0  0  0  0  0  0  0  0  0  0
  -25.2900  -23.9640   21.7590 H   0  0  0  0  0  0  0  0  0  0  0  0
  -28.2480  -25.6990   20.1090 O   0  0  0  0  0  0  0  0  0  0  0  0
  -24.7110  -31.9450   23.2060 C   0  0  0  0  0  0  0  0  0  0  0  0
  -27.2630  -26.9180   20.1270 C   0  0  0  0  0  0  0  0  0  0  0  0
  -23.5250  -30.5630   21.5550 C   0  0  0  0  0  3  0  0  0  0  0  0
  -24.9810  -28.9510   20.1060 C   0  0  0  0  0  0  0  0  0  0  0  0
  -26.1020  -30.7210   21.4270 C   0  0  0  0  0  2  0  0  0  0  0  0
  -26.1740  -29.2970   20.7520 C   0  0  0  0  0  0  0  0  0  0  0  0
  -27.2950  -28.3070   20.7370 C   0  0  0  0  0  3  0  0  0  0  0  0
  -26.0460  -26.8070   19.4030 C   0  0  0  0  0  3  0  0  0  0  0  0
  -24.9560  -27.7320   19.4080 C   0  0  0  0  0  3  0  0  0  0  0  0
  -23.7650  -29.8900   20.1710 C   0  0  0  0  0  2  0  0  0  0  0  0
  -24.8030  -31.1100   22.1140 N   0  0  0  0  0  0  0  0  0  0  0  0
  -23.6190  -32.2280   23.7270 O   0  0  0  0  0  0  0  0  0  0  0  0
  -22.8230  -29.5650   22.5150 C   0  0  0  0  0  0  0  0  0  0  0  0
  -21.4930  -29.3880   22.3830 N   0  0  0  0  0  0  0  0  0  0  0  0
  -23.4850  -28.9490   23.3520 O   0  0  0  0  0  0  0  0  0  0  0  0
  -21.0070  -29.9370   21.6880 H   0  0  0  0  0  0  0  0  0  0  0  0
  -18.1220  -28.1270   22.8960 C   0  0  0  0  0  0  0  0  0  0  0  0
  -20.6810  -28.4310   23.1450 C   0  0  0  0  0  3  0  0  0  0  0  0
  -20.7990  -27.0070   22.5510 C   0  0  0  0  0  2  0  0  0  0  0  0
  -19.6960  -26.6840   21.5380 C   0  0  0  0  0  2  0  0  0  0  0  0
  -18.3150  -26.7950   22.1920 C   0  0  0  0  0  2  0  0  0  0  0  0
  -19.2320  -28.9030   23.3280 C   0  0  0  0  0  0  0  0  0  0  0  0
  -18.9930  -30.1460   23.9520 C   0  0  0  0  0  3  0  0  0  0  0  0
  -17.6800  -30.6170   24.1430 C   0  0  0  0  0  3  0  0  0  0  0  0
  -16.5860  -29.8410   23.7220 C   0  0  0  0  0  3  0  0  0  0  0  0
  -16.8090  -28.5970   23.1050 C   0  0  0  0  0  3  0  0  0  0  0  0
  -25.9730  -32.5970   23.8490 C   0  0  0  0  0  3  0  0  0  0  0  0
  -26.4800  -31.8260   25.1320 C   0  0  1  0  0  0  0  0  0  0  0  0
  -25.3770  -31.5810   26.1900 C   0  0  0  0  0  1  0  0  0  0  0  0
  -27.0750  -30.4520   24.7570 C   0  0  0  0  0  1  0  0  0  0  0  0
  -27.6190  -32.6260   25.8060 C   0  0  0  0  0  1  0  0  0  0  0  0
  -25.6410  -33.9910   24.2040 N   0  0  0  0  0  0  0  0  0  0  0  0
  -25.9290  -35.0680   23.4600 C   0  0  0  0  0  0  0  0  0  0  0  0
  -26.5570  -34.9930   22.4020 O   0  0  0  0  0  0  0  0  0  0  0  0
  -25.0740  -34.1210   25.0280 H   0  0  0  0  0  0  0  0  0  0  0  0
  -24.1450  -36.8370   23.2460 C   0  0  0  0  0  1  0  0  0  0  0  0
  -25.4470  -36.4450   23.9650 C   0  0  0  0  0  3  0  0  0  0  0  0
  -27.6080  -37.3800   24.6690 C   0  0  0  0  0  1  0  0  0  0  0  0
  -26.4470  -37.5220   23.7930 N   0  0  0  0  0  0  0  0  0  0  0  0
  -26.0300  -38.4330   23.9650 H   0  0  0  0  0  0  0  0  0  0  0  0
  -29.7970  -19.5600   19.9720 C   0  0  0  0  0  2  0  0  0  0  0  0
  -28.1990  -17.4860   19.3330 C   0  0  0  0  0  1  0  0  0  0  0  0
  -29.5220  -17.6290   20.0910 C   0  0  0  0  0  3  0  0  0  0  0  0
  -30.3980  -15.9530   19.8770 C   0  0  0  0  0  0  0  0  0  0  0  0
  -30.5310  -13.3910   19.0540 C   0  0  0  0  0  2  0  0  0  0  0  0
  -29.5790  -12.9790   17.8900 C   0  0  0  0  0  2  0  0  0  0  0  0
  -28.1940  -12.5760   18.4200 C   0  0  0  0  0  2  0  0  0  0  0  0
  -27.7170  -13.5610   19.5060 C   0  0  0  0  0  3  0  0  0  0  0  0
  -28.7970  -13.9080   20.5600 C   0  0  0  0  0  2  0  0  0  0  0  0
  -29.9390  -14.5540   19.8650 N   0  0  0  0  0  0  0  0  0  0  0  0
  -31.6120  -15.9150   19.5950 O   0  0  0  0  0  0  0  0  0  0  0  0
  -25.4110  -14.0560   20.4540 C   0  0  0  0  0  0  0  0  0  0  0  0
  -24.3810  -13.2580   20.8600 C   0  0  0  0  0  0  0  0  0  0  0  0
  -24.8550  -11.9150   20.7480 C   0  0  0  0  0  0  0  0  0  0  0  0
  -26.4390  -13.2000   20.1030 N   0  0  0  0  0  0  0  0  0  0  0  0
  -26.1240  -11.9020   20.3480 N   0  0  0  0  0  0  0  0  0  0  0  0
  -24.1460  -10.6420   20.9370 C   0  0  0  0  0  0  0  0  0  0  0  0
  -24.5910   -9.6800   21.8710 C   0  0  0  0  0  3  0  0  0  0  0  0
  -23.8790   -8.4750   22.0500 C   0  0  0  0  0  3  0  0  0  0  0  0
  -22.7060   -8.2230   21.2970 C   0  0  0  0  0  0  0  0  0  0  0  0
  -22.2810   -9.1750   20.3530 C   0  0  0  0  0  3  0  0  0  0  0  0
  -22.9950  -10.3710   20.1720 C   0  0  0  0  0  3  0  0  0  0  0  0
  -21.9650   -7.0700   21.3860 O   0  0  0  0  0  0  0  0  0  0  0  0
  -21.8590   -6.3720   22.5620 C   0  0  0  0  0  0  0  0  0  0  0  0
  -21.3190   -6.9550   23.7290 C   0  0  0  0  0  3  0  0  0  0  0  0
  -21.1650   -6.1810   24.8960 C   0  0  0  0  0  3  0  0  0  0  0  0
  -21.5400   -4.8230   24.8970 C   0  0  0  0  0  0  0  0  0  0  0  0
  -22.0730   -4.2400   23.7340 C   0  0  0  0  0  3  0  0  0  0  0  0
  -22.2290   -5.0110   22.5700 C   0  0  0  0  0  0  0  0  0  0  0  0
  -22.7240   -4.4390   21.4460 F   0  0  0  0  0  0  0  0  0  0  0  0
  -21.3840   -4.0780   26.0160 F   0  0  0  0  0  0  0  0  0  0  0  0
  -23.0020  -13.7160   21.2330 C   0  0  0  0  0  0  0  0  0  0  0  0
  -22.3380  -12.9960   22.1280 N   0  0  0  0  0  0  0  0  0  0  0  0
  -22.5250  -14.7500   20.7660 O   0  0  0  0  0  0  0  0  0  0  0  0
  -22.7390  -12.1600   22.5270 H   0  0  0  0  0  0  0  0  0  0  0  0
  -21.4160  -13.2840   22.4210 H   0  0  0  0  0  0  0  0  0  0  0  0
  -25.5480  -15.4340   20.3230 N   0  0  0  0  0  0  0  0  0  0  0  0
  -24.7840  -16.0720   20.5230 H   0  0  0  0  0  0  0  0  0  0  0  0
  -26.3740  -15.9010   19.9760 H   0  0  0  0  0  0  0  0  0  0  0  0
  1  2  1  0
  3  4  1  0
  3  6  2  0
  4  1  2  0
  5  2  2  0
  5  7  1  0
  6  5  1  0
  7  8  1  0
  9 11  1  0
  9  6  1  0
 10 21  2  0
 11 16  1  0
 12 20  1  0
 12 22  1  0
 13 19  1  0
 13 15  1  0
 14 20  1  0
 15 14  1  0
 16 15  2  0
 17 18  1  0
 17 11  2  0
 18 13  2  0
 19 12  1  0
 20 10  1  0
 22 24  2  0
 23 22  1  0
 25 23  1  0
 26 35  2  0
 26 31  1  0
 27 23  1  0
 27 31  1  0
 28 27  1  0
 29 30  1  0
 29 28  1  0
 30 26  1  0
 31 32  2  0
 32 33  1  0
 34 33  2  0
 35 34  1  0
 36 10  1  0
 36 41  1  0
 36 37  1  0
 37 40  1  1
 37 38  1  0
 39 37  1  0
 41 44  1  0
 42 46  1  0
 42 41  1  0
 43 42  2  0
 46 45  1  0
 48 49  1  0
 48 46  1  0
 48 47  1  0
 50 52  1  0
 50  4  1  0
 52 51  1  0
 53 52  1  0
 54 59  1  0
 55 56  1  0
 55 54  1  0
 57 56  1  0
 57 64  1  0
 57 58  1  0
 59 53  1  0
 59 58  1  0
 60 53  2  0
 61 62  2  0
 62 81  1  0
 63 62  1  0
 63 66  1  0
 64 65  1  0
 64 61  1  0
 65 63  2  0
 66 67  1  0
 67 68  2  0
 69 72  1  0
 69 68  1  0
 70 69  2  0
 71 70  1  0
 71 66  2  0
 72 73  1  0
 73 78  2  0
 73 74  1  0
 74 75  2  0
 75 76  1  0
 76 80  1  0
 77 76  2  0
 78 77  1  0
 79 78  1  0
 81 82  1  0
 82 85  1  0
 82 84  1  0
 83 81  2  0
 86 61  1  0
 86 87  1  0
 88 86  1  0
M  ISO  4   6 101   9 101  52 100  53 100
M  END
>  <TORSDO>  (10) 
F 19

>  <SCORE>  (10) 
-14.654

>  <name>  (10) 
9

>  <ligand_id>  (10) 
9

>  <original_smiles>  (10) 
[H]Oc1c([H])c([H])c(C([H])([H])C([H])(C(=O)N2C([H])([H])C([H])([H])C([H])([H])C([H])(n3nc(-c4c([H])c([H])c(Oc5c([H])c([H])c(F)c([H])c5F)c([H])c4[H])c(C(=O)N([H])[H])c3N([H])[H])C2([H])[H])C([H])([H])[H])c([H])c1Oc1c([H])c([H])c2c(c1[H])C([H])([H])N(C(=O)C([H])(N([H])C(=O)C([H])(N([H])C([H])([H])[H])C([H])([H])[H])C(C([H])([H])[H])(C([H])([H])[H])C([H])([H])[H])C([H])(C(=O)N([H])C1([H])c3c([H])c([H])c([H])c([H])c3C([H])([H])C([H])([H])C1([H])[H])C2([H])[H]

>  <smiles>  (10) 
[H]Oc1c([H])c([H])c(C([H])([H])C([H])(C(=O)N2C([H])([H])C([H])([H])C([H])([H])C([H])(n3nc(-c4c([H])c([H])c(Oc5c([H])c([H])c(F)c([H])c5F)c([H])c4[H])c(C(=O)N([H])[H])c3N([H])[H])C2([H])[H])C([H])([H])[H])c([H])c1Oc1c([H])c([H])c2c(c1[H])C([H])([H])N(C(=O)C([H])(N([H])C(=O)C([H])(N([H])C([H])([H])[H])C([H])([H])[H])C(C([H])([H])[H])(C([H])([H])[H])C([H])([H])[H])C([H])(C(=O)N([H])C1([H])c3c([H])c([H])c([H])c([H])c3C([H])([H])C([H])([H])C1([H])[H])C2([H])[H]

$$$$
10:0:0
     RDKit          3D

 93101  0  0  1  0  0  0  0  0999 V2000
  -29.1180  -24.2590   23.3640 C   0  0  0  0  0  3  0  0  0  0  0  0
  -29.2370  -25.6540   23.4680 C   0  0  0  0  0  3  0  0  0  0  0  0
  -28.7420  -23.6780   22.1400 C   0  0  0  0  0  3  0  0  0  0  0  0
  -28.9700  -26.4600   22.3500 C   0  0  0  0  0  3  0  0  0  0  0  0
  -28.4970  -24.4690   20.9870 C   0  0  0  0  0  0  0  0  0  0  0  0
  -28.6010  -25.8900   21.1120 C   0  0  0  0  0  0  0  0  0  0  0  0
  -28.1770  -23.7950   19.6810 C   0  0  0  0  0  0  0  0  0  0  0  0
  -28.1920  -24.3690   18.5880 O   0  0  0  0  0  0  0  0  0  0  0  0
  -27.7920  -22.3030   19.6990 C   0  0  0  0  0  2  0  0  0  0  0  0
  -28.9990  -21.3370   19.7110 C   0  0  0  0  0  2  0  0  0  0  0  0
  -28.5960  -19.9110   20.1310 C   0  0  0  0  0  2  0  0  0  0  0  0
  -29.7930  -19.0390   20.5380 C   0  0  0  0  0  2  0  0  0  0  0  0
  -29.4010  -17.5670   20.7430 C   0  0  0  0  0  2  0  0  0  0  0  0
  -30.5220  -16.7110   21.3600 C   0  0  0  0  0  2  0  0  0  0  0  0
  -30.7280  -14.4050   20.4330 C   0  0  0  0  0  0  0  0  0  0  0  0
  -30.3650  -12.3160   19.1800 C   0  0  0  0  0  2  0  0  0  0  0  0
  -29.3950  -12.5670   18.0070 C   0  0  0  0  0  2  0  0  0  0  0  0
  -27.9240  -12.4580   18.4600 C   0  0  0  0  0  2  0  0  0  0  0  0
  -27.6320  -13.2580   19.7560 C   0  0  0  0  0  3  0  0  0  0  0  0
  -28.7010  -12.9580   20.8320 C   0  0  0  0  0  2  0  0  0  0  0  0
  -30.0280  -13.2560   20.2600 N   0  0  0  0  0  0  0  0  0  0  0  0
  -31.7700  -14.6620   19.8200 O   0  0  0  0  0  0  0  0  0  0  0  0
  -30.1700  -15.2920   21.2700 N   0  0  0  0  0  0  0  0  0  0  0  0
  -29.3510  -14.9860   21.7740 H   0  0  0  0  0  0  0  0  0  0  0  0
  -25.2410  -13.8900   20.4840 C   0  0  0  0  0  0  0  0  0  0  0  0
  -24.1680  -13.1250   20.8610 C   0  0  0  0  0  0  0  0  0  0  0  0
  -24.6170  -11.7690   20.8170 C   0  0  0  0  0  0  0  0  0  0  0  0
  -26.2760  -12.9990   20.2420 N   0  0  0  0  0  0  0  0  0  0  0  0
  -25.9010  -11.7190   20.4950 N   0  0  0  0  0  0  0  0  0  0  0  0
  -23.8830  -10.5120   21.0100 C   0  0  0  0  0  0  0  0  0  0  0  0
  -24.3380   -9.5170   21.9060 C   0  0  0  0  0  3  0  0  0  0  0  0
  -23.6030   -8.3270   22.0860 C   0  0  0  0  0  3  0  0  0  0  0  0
  -22.3990   -8.1200   21.3730 C   0  0  0  0  0  0  0  0  0  0  0  0
  -21.9610   -9.1030   20.4670 C   0  0  0  0  0  3  0  0  0  0  0  0
  -22.6970  -10.2850   20.2840 C   0  0  0  0  0  3  0  0  0  0  0  0
  -21.6360   -6.9810   21.4650 O   0  0  0  0  0  0  0  0  0  0  0  0
  -21.6410   -6.1990   22.5920 C   0  0  0  0  0  0  0  0  0  0  0  0
  -21.3200   -6.7230   23.8630 C   0  0  0  0  0  3  0  0  0  0  0  0
  -21.2700   -5.8710   24.9830 C   0  0  0  0  0  3  0  0  0  0  0  0
  -21.5320   -4.4960   24.8350 C   0  0  0  0  0  0  0  0  0  0  0  0
  -21.8450   -3.9700   23.5700 C   0  0  0  0  0  3  0  0  0  0  0  0
  -21.8960   -4.8190   22.4490 C   0  0  0  0  0  0  0  0  0  0  0  0
  -22.1790   -4.3050   21.2280 F   0  0  0  0  0  0  0  0  0  0  0  0
  -21.4760   -3.6760   25.9090 F   0  0  0  0  0  0  0  0  0  0  0  0
  -22.7800  -13.6160   21.1560 C   0  0  0  0  0  0  0  0  0  0  0  0
  -22.0550  -12.9280   22.0310 N   0  0  0  0  0  0  0  0  0  0  0  0
  -22.3430  -14.6450   20.6420 O   0  0  0  0  0  0  0  0  0  0  0  0
  -22.4150  -12.0970   22.4760 H   0  0  0  0  0  0  0  0  0  0  0  0
  -21.1260  -13.2480   22.2720 H   0  0  0  0  0  0  0  0  0  0  0  0
  -25.4200  -15.2600   20.3090 N   0  0  0  0  0  0  0  0  0  0  0  0
  -24.6770  -15.9370   20.4410 H   0  0  0  0  0  0  0  0  0  0  0  0
  -26.2810  -15.6760   19.9750 H   0  0  0  0  0  0  0  0  0  0  0  0
  -28.3710  -26.7510   20.0610 O   0  0  0  0  0  0  0  0  0  0  0  0
  -24.5780  -31.9040   23.2040 C   0  0  0  0  0  0  0  0  0  0  0  0
  -27.2110  -27.4860   20.1030 C   0  0  0  0  0  0  0  0  0  0  0  0
  -23.3620  -30.4920   21.5800 C   0  0  0  0  0  3  0  0  0  0  0  0
  -24.8040  -28.9610   20.1420 C   0  0  0  0  0  0  0  0  0  0  0  0
  -25.8780  -30.8730   21.3450 C   0  0  0  0  0  2  0  0  0  0  0  0
  -25.9650  -29.5000   20.7150 C   0  0  0  0  0  0  0  0  0  0  0  0
  -27.1730  -28.7710   20.6880 C   0  0  0  0  0  3  0  0  0  0  0  0
  -26.0390  -26.9550   19.5300 C   0  0  0  0  0  3  0  0  0  0  0  0
  -24.8350  -27.6870   19.5460 C   0  0  0  0  0  3  0  0  0  0  0  0
  -23.5550  -29.8080   20.2000 C   0  0  0  0  0  2  0  0  0  0  0  0
  -24.6250  -31.1050   22.1020 N   0  0  0  0  0  0  0  0  0  0  0  0
  -23.4990  -32.1700   23.7550 O   0  0  0  0  0  0  0  0  0  0  0  0
  -22.7290  -29.4680   22.5500 C   0  0  0  0  0  0  0  0  0  0  0  0
  -21.4050  -29.2770   22.4340 N   0  0  0  0  0  0  0  0  0  0  0  0
  -23.4260  -28.8470   23.3580 O   0  0  0  0  0  0  0  0  0  0  0  0
  -20.9100  -29.8320   21.7490 H   0  0  0  0  0  0  0  0  0  0  0  0
  -18.0380  -28.0670   22.9480 C   0  0  0  0  0  0  0  0  0  0  0  0
  -20.5960  -28.3370   23.2090 C   0  0  0  0  0  3  0  0  0  0  0  0
  -20.7020  -26.9050   22.6340 C   0  0  0  0  0  2  0  0  0  0  0  0
  -19.5970  -26.5760   21.6260 C   0  0  0  0  0  2  0  0  0  0  0  0
  -18.2180  -26.7150   22.2770 C   0  0  0  0  0  2  0  0  0  0  0  0
  -19.1550  -28.8360   23.3710 C   0  0  0  0  0  0  0  0  0  0  0  0
  -18.9340  -30.1000   23.9570 C   0  0  0  0  0  3  0  0  0  0  0  0
  -17.6270  -30.5980   24.1250 C   0  0  0  0  0  3  0  0  0  0  0  0
  -16.5250  -29.8250   23.7210 C   0  0  0  0  0  3  0  0  0  0  0  0
  -16.7310  -28.5610   23.1410 C   0  0  0  0  0  3  0  0  0  0  0  0
  -25.8650  -32.5440   23.8100 C   0  0  0  0  0  3  0  0  0  0  0  0
  -25.5480  -33.9350   24.1530 N   0  0  0  0  0  0  0  0  0  0  0  0
  -25.8580  -34.9960   23.3980 C   0  0  0  0  0  0  0  0  0  0  0  0
  -26.5170  -34.9050   22.3570 O   0  0  0  0  0  0  0  0  0  0  0  0
  -24.9640  -34.0740   24.9650 H   0  0  0  0  0  0  0  0  0  0  0  0
  -24.1040  -36.7690   23.0810 C   0  0  0  0  0  1  0  0  0  0  0  0
  -25.3620  -36.3740   23.8710 C   0  0  0  0  0  3  0  0  0  0  0  0
  -27.5020  -37.2780   24.6680 C   0  0  0  0  0  1  0  0  0  0  0  0
  -26.3800  -37.4400   23.7460 N   0  0  0  0  0  0  0  0  0  0  0  0
  -25.9650  -38.3550   23.9050 H   0  0  0  0  0  0  0  0  0  0  0  0
  -26.4110  -31.7690   25.0710 C   0  0  1  0  0  0  0  0  0  0  0  0
  -25.3410  -31.5180   26.1590 C   0  0  0  0  0  1  0  0  0  0  0  0
  -26.9980  -30.4000   24.6540 C   0  0  0  0  0  1  0  0  0  0  0  0
  -27.5650  -32.5720   25.7160 C   0  0  0  0  0  1  0  0  0  0  0  0
  1  2  1  0
  3  1  2  0
  4  2  2  0
  5  6  2  0
  5  3  1  0
  6  4  1  0
  7  9  1  0
  7  5  1  0
  8  7  2  0
  9 10  1  0
 10 11  1  0
 11 12  1  0
 12 13  1  0
 13 14  1  0
 15 23  1  0
 16 21  1  0
 17 18  1  0
 17 16  1  0
 19 18  1  0
 19 28  1  0
 19 20  1  0
 21 15  1  0
 21 20  1  0
 22 15  2  0
 23 14  1  0
 23 24  1  0
 25 26  2  0
 26 45  1  0
 27 26  1  0
 27 30  1  0
 28 25  1  0
 28 29  1  0
 29 27  2  0
 30 31  1  0
 31 32  2  0
 33 36  1  0
 33 32  1  0
 34 33  2  0
 35 34  1  0
 35 30  2  0
 36 37  1  0
 37 38  1  0
 38 39  2  0
 40 39  1  0
 40 44  1  0
 41 40  2  0
 42 37  2  0
 42 41  1  0
 43 42  1  0
 45 46  1  0
 46 49  1  0
 46 48  1  0
 47 45  2  0
 50 51  1  0
 50 25  1  0
 52 50  1  0
 53 55  1  0
 53  6  1  0
 54 65  2  0
 55 60  1  0
 56 64  1  0
 56 66  1  0
 57 63  1  0
 57 59  1  0
 58 64  1  0
 59 58  1  0
 60 59  2  0
 61 62  1  0
 61 55  2  0
 62 57  2  0
 63 56  1  0
 64 54  1  0
 66 68  2  0
 67 66  1  0
 69 67  1  0
 70 79  2  0
 70 75  1  0
 71 67  1  0
 71 75  1  0
 72 71  1  0
 73 74  1  0
 73 72  1  0
 74 70  1  0
 75 76  2  0
 76 77  1  0
 78 77  2  0
 79 78  1  0
 80 54  1  0
 80 81  1  0
 80 90  1  0
 81 84  1  0
 82 86  1  0
 82 81  1  0
 83 82  2  0
 86 85  1  0
 88 86  1  0
 88 89  1  0
 88 87  1  0
 90 93  1  1
 90 91  1  0
 92 90  1  0
M  ISO  4   6 101  15 100  23 100  53 101
M  END
>  <TORSDO>  (11) 
F 23

>  <SCORE>  (11) 
-12.841

>  <name>  (11) 
10

>  <ligand_id>  (11) 
10

>  <original_smiles>  (11) 
[H]c1c([H])c([H])c(C(=O)C([H])([H])C([H])([H])C([H])([H])C([H])([H])C([H])([H])C([H])([H])N([H])C(=O)N2C([H])([H])C([H])([H])C([H])([H])C([H])(n3nc(-c4c([H])c([H])c(Oc5c([H])c([H])c(F)c([H])c5F)c([H])c4[H])c(C(=O)N([H])[H])c3N([H])[H])C2([H])[H])c(Oc2c([H])c([H])c3c(c2[H])C([H])([H])N(C(=O)C([H])(N([H])C(=O)C([H])(N([H])C([H])([H])[H])C([H])([H])[H])C(C([H])([H])[H])(C([H])([H])[H])C([H])([H])[H])C([H])(C(=O)N([H])C2([H])c4c([H])c([H])c([H])c([H])c4C([H])([H])C([H])([H])C2([H])[H])C3([H])[H])c1[H]

>  <smiles>  (11) 
[H]c1c([H])c([H])c(C(=O)C([H])([H])C([H])([H])C([H])([H])C([H])([H])C([H])([H])C([H])([H])N([H])C(=O)N2C([H])([H])C([H])([H])C([H])([H])C([H])(n3nc(-c4c([H])c([H])c(Oc5c([H])c([H])c(F)c([H])c5F)c([H])c4[H])c(C(=O)N([H])[H])c3N([H])[H])C2([H])[H])c(Oc2c([H])c([H])c3c(c2[H])C([H])([H])N(C(=O)C([H])(N([H])C(=O)C([H])(N([H])C([H])([H])[H])C([H])([H])[H])C(C([H])([H])[H])(C([H])([H])[H])C([H])([H])[H])C([H])(C(=O)N([H])C2([H])c4c([H])c([H])c([H])c([H])c4C([H])([H])C([H])([H])C2([H])[H])C3([H])[H])c1[H]

$$$$
11:0:0
     RDKit          3D

 94103  0  0  1  0  0  0  0  0999 V2000
  -31.6030  -23.0160   19.8820 C   0  0  0  0  0  3  0  0  0  0  0  0
  -31.1220  -21.7120   20.1150 C   0  0  0  0  0  3  0  0  0  0  0  0
  -28.8510  -22.5540   19.9060 C   0  0  0  0  0  3  0  0  0  0  0  0
  -30.7200  -24.0910   19.6380 C   0  0  0  0  0  0  0  0  0  0  0  0
  -29.3230  -23.9110   19.7060 C   0  0  0  0  0  0  0  0  0  0  0  0
  -29.7420  -21.4180   20.0960 C   0  0  0  0  0  0  0  0  0  0  0  0
  -31.2550  -25.4410   19.1880 C   0  0  0  0  0  2  0  0  0  0  0  0
  -30.4660  -26.0200   17.9850 C   0  0  0  0  0  2  0  0  0  0  0  0
  -29.0010  -25.5260   17.8660 C   0  0  0  0  0  2  0  0  0  0  0  0
  -28.4250  -25.1340   19.2420 C   0  0  0  0  0  3  0  0  0  0  0  0
  -27.7870  -19.7320   20.3560 C   0  0  0  0  0  1  0  0  0  0  0  0
  -29.3150  -19.9100   20.3940 C   0  0  0  0  0  3  0  0  0  0  0  0
  -29.9800  -18.7910   19.5890 N   0  0  0  0  0  4  0  0  0  0  0  0
  -29.3390  -18.4850   18.8770 H   0  0  0  0  0  0  0  0  0  0  0  0
  -30.7300  -19.2450   19.0940 H   0  0  0  0  0  0  0  0  0  0  0  0
  -30.6250  -17.5760   20.2780 C   0  0  0  0  0  2  0  0  0  0  0  0
  -29.9190  -16.1220   20.2160 C   0  0  0  0  0  2  0  0  0  0  0  0
  -30.7700  -14.7840   19.9630 C   0  0  0  0  0  0  0  0  0  0  0  0
  -30.5690  -12.4510   19.0880 C   0  0  0  0  0  2  0  0  0  0  0  0
  -29.5770  -12.4730   17.9030 C   0  0  0  0  0  2  0  0  0  0  0  0
  -28.1250  -12.3160   18.4020 C   0  0  0  0  0  2  0  0  0  0  0  0
  -27.7980  -13.2630   19.5860 C   0  0  0  0  0  3  0  0  0  0  0  0
  -28.9050  -13.2210   20.6620 C   0  0  0  0  0  2  0  0  0  0  0  0
  -30.1830  -13.5380   20.0130 N   0  0  0  0  0  0  0  0  0  0  0  0
  -31.9270  -14.8910   19.5450 O   0  0  0  0  0  0  0  0  0  0  0  0
  -25.4870  -13.9110   20.5000 C   0  0  0  0  0  0  0  0  0  0  0  0
  -24.4200  -13.1610   20.9090 C   0  0  0  0  0  0  0  0  0  0  0  0
  -24.8260  -11.7960   20.7880 C   0  0  0  0  0  0  0  0  0  0  0  0
  -26.4770  -13.0040   20.1510 N   0  0  0  0  0  0  0  0  0  0  0  0
  -26.0900  -11.7250   20.3860 N   0  0  0  0  0  0  0  0  0  0  0  0
  -24.0640  -10.5540   20.9770 C   0  0  0  0  0  0  0  0  0  0  0  0
  -24.5040   -9.5460   21.8640 C   0  0  0  0  0  3  0  0  0  0  0  0
  -23.7450   -8.3690   22.0390 C   0  0  0  0  0  3  0  0  0  0  0  0
  -22.5340   -8.1910   21.3280 C   0  0  0  0  0  0  0  0  0  0  0  0
  -22.1130   -9.1880   20.4300 C   0  0  0  0  0  3  0  0  0  0  0  0
  -22.8710  -10.3560   20.2530 C   0  0  0  0  0  3  0  0  0  0  0  0
  -21.7450   -7.0700   21.4170 O   0  0  0  0  0  0  0  0  0  0  0  0
  -21.7070   -6.3040   22.5540 C   0  0  0  0  0  0  0  0  0  0  0  0
  -21.3130   -6.8400   23.8010 C   0  0  0  0  0  3  0  0  0  0  0  0
  -21.2200   -6.0030   24.9290 C   0  0  0  0  0  3  0  0  0  0  0  0
  -21.5130   -4.6300   24.8140 C   0  0  0  0  0  0  0  0  0  0  0  0
  -21.8990   -4.0930   23.5730 C   0  0  0  0  0  3  0  0  0  0  0  0
  -21.9950   -4.9290   22.4470 C   0  0  0  0  0  0  0  0  0  0  0  0
  -22.3470   -4.4030   21.2490 F   0  0  0  0  0  0  0  0  0  0  0  0
  -21.4170   -3.8240   25.8960 F   0  0  0  0  0  0  0  0  0  0  0  0
  -23.0630  -13.6730   21.2950 C   0  0  0  0  0  0  0  0  0  0  0  0
  -22.3720  -12.9690   22.1860 N   0  0  0  0  0  0  0  0  0  0  0  0
  -22.6250  -14.7310   20.8450 O   0  0  0  0  0  0  0  0  0  0  0  0
  -22.7440  -12.1150   22.5730 H   0  0  0  0  0  0  0  0  0  0  0  0
  -21.4620  -13.2880   22.4810 H   0  0  0  0  0  0  0  0  0  0  0  0
  -25.6920  -15.2820   20.3730 N   0  0  0  0  0  0  0  0  0  0  0  0
  -24.9590  -15.9570   20.5610 H   0  0  0  0  0  0  0  0  0  0  0  0
  -26.5290  -15.7050   19.9900 H   0  0  0  0  0  0  0  0  0  0  0  0
  -28.4020  -26.4360   19.9830 O   0  0  0  0  0  0  0  0  0  0  0  0
  -24.4850  -31.7040   23.0550 C   0  0  0  0  0  0  0  0  0  0  0  0
  -27.2730  -27.2890   19.9050 C   0  0  0  0  0  0  0  0  0  0  0  0
  -23.3490  -30.3240   21.3550 C   0  0  0  0  0  3  0  0  0  0  0  0
  -24.8670  -28.8630   19.9060 C   0  0  0  0  0  0  0  0  0  0  0  0
  -25.8840  -30.7100   21.2280 C   0  0  0  0  0  2  0  0  0  0  0  0
  -26.0130  -29.3520   20.5440 C   0  0  0  0  0  0  0  0  0  0  0  0
  -27.2140  -28.5740   20.5430 C   0  0  0  0  0  3  0  0  0  0  0  0
  -26.0980  -26.8770   19.2290 C   0  0  0  0  0  3  0  0  0  0  0  0
  -24.9130  -27.6330   19.2400 C   0  0  0  0  0  3  0  0  0  0  0  0
  -23.6050  -29.7010   19.9590 C   0  0  0  0  0  2  0  0  0  0  0  0
  -24.5900  -30.9290   21.9360 N   0  0  0  0  0  0  0  0  0  0  0  0
  -23.3850  -31.9350   23.5790 O   0  0  0  0  0  0  0  0  0  0  0  0
  -22.6980  -29.2590   22.2730 C   0  0  0  0  0  0  0  0  0  0  0  0
  -21.3730  -29.0710   22.1400 N   0  0  0  0  0  0  0  0  0  0  0  0
  -23.3840  -28.6090   23.0660 O   0  0  0  0  0  0  0  0  0  0  0  0
  -20.8780  -29.6500   21.4770 H   0  0  0  0  0  0  0  0  0  0  0  0
  -18.0050  -27.8340   22.6150 C   0  0  0  0  0  0  0  0  0  0  0  0
  -20.5660  -28.0920   22.8720 C   0  0  0  0  0  3  0  0  0  0  0  0
  -20.6650  -26.6890   22.2260 C   0  0  0  0  0  2  0  0  0  0  0  0
  -19.5540  -26.4120   21.2090 C   0  0  0  0  0  2  0  0  0  0  0  0
  -18.1790  -26.5200   21.8730 C   0  0  0  0  0  2  0  0  0  0  0  0
  -19.1260  -28.5800   23.0700 C   0  0  0  0  0  0  0  0  0  0  0  0
  -18.9080  -29.8120   23.7230 C   0  0  0  0  0  3  0  0  0  0  0  0
  -17.6030  -30.2990   23.9280 C   0  0  0  0  0  3  0  0  0  0  0  0
  -16.4970  -29.5500   23.4890 C   0  0  0  0  0  3  0  0  0  0  0  0
  -16.6990  -28.3200   22.8370 C   0  0  0  0  0  3  0  0  0  0  0  0
  -25.7390  -32.3530   23.7180 C   0  0  0  0  0  3  0  0  0  0  0  0
  -26.2420  -31.5660   24.9900 C   0  0  1  0  0  0  0  0  0  0  0  0
  -25.1310  -31.2850   26.0300 C   0  0  0  0  0  1  0  0  0  0  0  0
  -26.8630  -30.2090   24.5860 C   0  0  0  0  0  1  0  0  0  0  0  0
  -27.3600  -32.3720   25.6930 C   0  0  0  0  0  1  0  0  0  0  0  0
  -25.3880  -33.7370   24.0680 N   0  0  0  0  0  0  0  0  0  0  0  0
  -25.7140  -34.8130   23.3390 C   0  0  0  0  0  0  0  0  0  0  0  0
  -26.4070  -34.7460   22.3210 O   0  0  0  0  0  0  0  0  0  0  0  0
  -24.7710  -33.8610   24.8570 H   0  0  0  0  0  0  0  0  0  0  0  0
  -23.9530  -36.5750   22.9840 C   0  0  0  0  0  1  0  0  0  0  0  0
  -25.1860  -36.1800   23.8130 C   0  0  0  0  0  3  0  0  0  0  0  0
  -27.2800  -37.0990   24.7100 C   0  0  0  0  0  1  0  0  0  0  0  0
  -26.1960  -37.2590   23.7440 N   0  0  0  0  0  0  0  0  0  0  0  0
  -25.7640  -38.1670   23.8970 H   0  0  0  0  0  0  0  0  0  0  0  0
  1  2  1  0
  3  6  1  0
  4  5  1  0
  4  1  2  0
  5  3  2  0
  6  2  2  0
  6 12  1  0
  7  4  1  0
  8  7  1  0
  9  8  1  0
  9 10  1  0
 10  5  1  0
 10 54  1  0
 12 11  1  0
 13 16  1  0
 13 12  1  0
 14 13  1  0
 15 13  1  0
 17 16  1  0
 18 24  1  0
 18 17  1  0
 19 24  1  0
 20 21  1  0
 20 19  1  0
 22 21  1  0
 22 29  1  0
 22 23  1  0
 24 23  1  0
 25 18  2  0
 26 27  2  0
 27 46  1  0
 28 27  1  0
 28 31  1  0
 29 30  1  0
 29 26  1  0
 30 28  2  0
 31 32  1  0
 32 33  2  0
 34 37  1  0
 34 33  1  0
 35 34  2  0
 36 35  1  0
 36 31  2  0
 37 38  1  0
 38 39  1  0
 39 40  2  0
 41 40  1  0
 41 45  1  0
 42 41  2  0
 43 38  2  0
 43 42  1  0
 44 43  1  0
 46 47  1  0
 47 50  1  0
 47 49  1  0
 48 46  2  0
 51 26  1  0
 51 52  1  0
 53 51  1  0
 55 66  2  0
 56 54  1  0
 56 61  1  0
 57 65  1  0
 57 67  1  0
 58 64  1  0
 58 60  1  0
 59 65  1  0
 60 59  1  0
 61 60  2  0
 62 63  1  0
 62 56  2  0
 63 58  2  0
 64 57  1  0
 65 55  1  0
 67 69  2  0
 68 67  1  0
 70 68  1  0
 71 80  2  0
 71 76  1  0
 72 68  1  0
 72 76  1  0
 73 72  1  0
 74 75  1  0
 74 73  1  0
 75 71  1  0
 76 77  2  0
 77 78  1  0
 79 78  2  0
 80 79  1  0
 81 55  1  0
 81 86  1  0
 81 82  1  0
 82 85  1  1
 82 83  1  0
 84 82  1  0
 86 89  1  0
 87 91  1  0
 87 86  1  0
 88 87  2  0
 91 90  1  0
 93 91  1  0
 93 94  1  0
 93 92  1  0
M  ISO  4  10 101  17 100  18 100  54 101
M  END
>  <TORSDO>  (12) 
F 20

>  <SCORE>  (12) 
-13.265

>  <name>  (12) 
11

>  <ligand_id>  (12) 
11

>  <original_smiles>  (12) 
[H]c1c([H])c([H])c2c(c1[H])C([H])([H])C([H])([H])C([H])([H])C2([H])N([H])C(=O)C1([H])N(C(=O)C([H])(N([H])C(=O)C([H])(N([H])C([H])([H])[H])C([H])([H])[H])C(C([H])([H])[H])(C([H])([H])[H])C([H])([H])[H])C([H])([H])c2c([H])c(OC3([H])c4c([H])c(C([H])(C([H])([H])[H])[N+]([H])([H])C([H])([H])C([H])([H])C(=O)N5C([H])([H])C([H])([H])C([H])([H])C([H])(n6nc(-c7c([H])c([H])c(Oc8c([H])c([H])c(F)c([H])c8F)c([H])c7[H])c(C(=O)N([H])[H])c6N([H])[H])C5([H])[H])c([H])c([H])c4C([H])([H])C([H])([H])C3([H])[H])c([H])c([H])c2C1([H])[H]

>  <smiles>  (12) 
[H]c1c([H])c([H])c2c(c1[H])C([H])([H])C([H])([H])C([H])([H])C2([H])N([H])C(=O)C1([H])N(C(=O)C([H])(N([H])C(=O)C([H])(N([H])C([H])([H])[H])C([H])([H])[H])C(C([H])([H])[H])(C([H])([H])[H])C([H])([H])[H])C([H])([H])c2c([H])c(OC3([H])c4c([H])c(C([H])(C([H])([H])[H])[N+]([H])([H])C([H])([H])C([H])([H])C(=O)N5C([H])([H])C([H])([H])C([H])([H])C([H])(n6nc(-c7c([H])c([H])c(Oc8c([H])c([H])c(F)c([H])c8F)c([H])c7[H])c(C(=O)N([H])[H])c6N([H])[H])C5([H])[H])c([H])c([H])c4C([H])([H])C([H])([H])C3([H])[H])c([H])c([H])c2C1([H])[H]

$$$$
12:0:0
     RDKit          3D

 88 97  0  0  1  0  0  0  0  0999 V2000
  -29.5470  -21.6080   19.5490 C   0  0  0  0  0  3  0  0  0  0  0  0
  -28.6070  -22.7990   19.9910 C   0  0  0  0  0  0  0  0  0  0  0  0
  -27.7640  -22.1360   20.8400 C   0  0  0  0  0  0  0  0  0  0  0  0
  -29.4110  -20.1970   20.0350 C   0  0  0  0  0  0  0  0  0  0  0  0
  -26.6170  -22.9240   21.3400 C   0  0  0  0  0  2  0  0  0  0  0  0
  -26.8080  -24.3670   20.8110 C   0  0  0  0  0  2  0  0  0  0  0  0
  -27.9400  -24.4370   19.7390 C   0  0  0  0  0  3  0  0  0  0  0  0
  -28.0460  -20.3790   21.1350 S   0  0  0  0  0  0  0  0  0  0  0  0
  -28.3460  -26.0580   19.8400 O   0  0  0  0  0  0  0  0  0  0  0  0
  -24.7710  -31.8720   23.2050 C   0  0  0  0  0  0  0  0  0  0  0  0
  -27.3670  -27.2100   19.8410 C   0  0  0  0  0  0  0  0  0  0  0  0
  -23.5900  -30.5790   21.4770 C   0  0  0  0  0  3  0  0  0  0  0  0
  -25.0560  -29.1000   19.9350 C   0  0  0  0  0  0  0  0  0  0  0  0
  -26.1580  -30.8200   21.3430 C   0  0  0  0  0  2  0  0  0  0  0  0
  -26.2430  -29.4580   20.5860 C   0  0  0  0  0  0  0  0  0  0  0  0
  -27.3910  -28.5360   20.5180 C   0  0  0  0  0  3  0  0  0  0  0  0
  -26.1540  -27.0400   19.1300 C   0  0  0  0  0  3  0  0  0  0  0  0
  -25.0400  -27.9160   19.1850 C   0  0  0  0  0  3  0  0  0  0  0  0
  -23.8270  -30.0020   20.0540 C   0  0  0  0  0  2  0  0  0  0  0  0
  -24.8610  -31.1160   22.0620 N   0  0  0  0  0  0  0  0  0  0  0  0
  -23.6790  -32.1100   23.7470 O   0  0  0  0  0  0  0  0  0  0  0  0
  -22.9130  -29.5080   22.3720 C   0  0  0  0  0  0  0  0  0  0  0  0
  -21.5830  -29.3360   22.2440 N   0  0  0  0  0  0  0  0  0  0  0  0
  -23.5900  -28.8340   23.1520 O   0  0  0  0  0  0  0  0  0  0  0  0
  -21.0880  -29.9310   21.5950 H   0  0  0  0  0  0  0  0  0  0  0  0
  -18.2120  -28.0840   22.7340 C   0  0  0  0  0  0  0  0  0  0  0  0
  -20.7770  -28.3340   22.9540 C   0  0  0  0  0  3  0  0  0  0  0  0
  -20.8640  -26.9560   22.2560 C   0  0  0  0  0  2  0  0  0  0  0  0
  -19.7380  -26.7200   21.2450 C   0  0  0  0  0  2  0  0  0  0  0  0
  -18.3720  -26.8020   21.9340 C   0  0  0  0  0  2  0  0  0  0  0  0
  -19.3400  -28.8110   23.1980 C   0  0  0  0  0  0  0  0  0  0  0  0
  -19.1320  -30.0120   23.9120 C   0  0  0  0  0  3  0  0  0  0  0  0
  -17.8290  -30.4860   24.1600 C   0  0  0  0  0  3  0  0  0  0  0  0
  -16.7170  -29.7560   23.7080 C   0  0  0  0  0  3  0  0  0  0  0  0
  -16.9090  -28.5560   23.0010 C   0  0  0  0  0  3  0  0  0  0  0  0
  -26.0340  -32.4900   23.8760 C   0  0  0  0  0  3  0  0  0  0  0  0
  -25.7100  -33.8740   24.2660 N   0  0  0  0  0  0  0  0  0  0  0  0
  -26.0100  -34.9660   23.5490 C   0  0  0  0  0  0  0  0  0  0  0  0
  -26.6500  -34.9140   22.4970 O   0  0  0  0  0  0  0  0  0  0  0  0
  -25.1360  -33.9860   25.0890 H   0  0  0  0  0  0  0  0  0  0  0  0
  -24.2390  -36.7470   23.3540 C   0  0  0  0  0  1  0  0  0  0  0  0
  -25.5270  -36.3310   24.0830 C   0  0  0  0  0  3  0  0  0  0  0  0
  -27.6810  -37.2350   24.8430 C   0  0  0  0  0  1  0  0  0  0  0  0
  -26.5360  -37.4070   23.9540 N   0  0  0  0  0  0  0  0  0  0  0  0
  -26.1210  -38.3150   24.1430 H   0  0  0  0  0  0  0  0  0  0  0  0
  -26.5250  -31.6740   25.1360 C   0  0  1  0  0  0  0  0  0  0  0  0
  -25.4120  -31.3990   26.1740 C   0  0  0  0  0  1  0  0  0  0  0  0
  -27.1170  -30.3100   24.7170 C   0  0  0  0  0  1  0  0  0  0  0  0
  -27.6620  -32.4450   25.8490 C   0  0  0  0  0  1  0  0  0  0  0  0
  -30.2600  -18.6490   19.8280 C   0  0  0  0  0  2  0  0  0  0  0  0
  -30.6990  -15.7050   19.9240 C   0  0  0  0  0  0  0  0  0  0  0  0
  -30.6590  -13.2440   19.0540 C   0  0  0  0  0  2  0  0  0  0  0  0
  -29.6930  -13.0060   17.8650 C   0  0  0  0  0  2  0  0  0  0  0  0
  -28.2690  -12.7130   18.3700 C   0  0  0  0  0  2  0  0  0  0  0  0
  -27.8540  -13.6740   19.5110 C   0  0  0  0  0  3  0  0  0  0  0  0
  -28.9490  -13.8540   20.5860 C   0  0  0  0  0  2  0  0  0  0  0  0
  -30.1370  -14.3880   19.9000 N   0  0  0  0  0  0  0  0  0  0  0  0
  -31.9030  -15.6910   19.6280 O   0  0  0  0  0  0  0  0  0  0  0  0
  -29.9580  -17.0020   20.0740 N   0  0  0  0  0  0  0  0  0  0  0  0
  -28.9900  -16.8330   20.3070 H   0  0  0  0  0  0  0  0  0  0  0  0
  -25.5320  -14.2110   20.4090 C   0  0  0  0  0  0  0  0  0  0  0  0
  -24.4870  -13.4240   20.8060 C   0  0  0  0  0  0  0  0  0  0  0  0
  -24.9460  -12.0750   20.7040 C   0  0  0  0  0  0  0  0  0  0  0  0
  -26.5560  -13.3410   20.0800 N   0  0  0  0  0  0  0  0  0  0  0  0
  -26.2200  -12.0470   20.3260 N   0  0  0  0  0  0  0  0  0  0  0  0
  -24.2210  -10.8090   20.8890 C   0  0  0  0  0  0  0  0  0  0  0  0
  -24.6480   -9.8420   21.8240 C   0  0  0  0  0  3  0  0  0  0  0  0
  -23.9200   -8.6440   21.9980 C   0  0  0  0  0  3  0  0  0  0  0  0
  -22.7520   -8.4050   21.2360 C   0  0  0  0  0  0  0  0  0  0  0  0
  -22.3450   -9.3620   20.2890 C   0  0  0  0  0  3  0  0  0  0  0  0
  -23.0730  -10.5510   20.1140 C   0  0  0  0  0  3  0  0  0  0  0  0
  -21.9970   -7.2600   21.3180 O   0  0  0  0  0  0  0  0  0  0  0  0
  -21.8890   -6.5530   22.4890 C   0  0  0  0  0  0  0  0  0  0  0  0
  -21.3520   -7.1290   23.6600 C   0  0  0  0  0  3  0  0  0  0  0  0
  -21.1940   -6.3460   24.8220 C   0  0  0  0  0  3  0  0  0  0  0  0
  -21.5620   -4.9870   24.8110 C   0  0  0  0  0  0  0  0  0  0  0  0
  -22.0920   -4.4100   23.6430 C   0  0  0  0  0  3  0  0  0  0  0  0
  -22.2510   -5.1900   22.4840 C   0  0  0  0  0  0  0  0  0  0  0  0
  -22.7420   -4.6250   21.3560 F   0  0  0  0  0  0  0  0  0  0  0  0
  -21.4040   -4.2330   25.9230 F   0  0  0  0  0  0  0  0  0  0  0  0
  -23.1090  -13.8980   21.1580 C   0  0  0  0  0  0  0  0  0  0  0  0
  -22.4220  -13.1820   22.0410 N   0  0  0  0  0  0  0  0  0  0  0  0
  -22.6510  -14.9390   20.6870 O   0  0  0  0  0  0  0  0  0  0  0  0
  -22.8060  -12.3410   22.4450 H   0  0  0  0  0  0  0  0  0  0  0  0
  -21.4970  -13.4810   22.3190 H   0  0  0  0  0  0  0  0  0  0  0  0
  -25.6910  -15.5870   20.2700 N   0  0  0  0  0  0  0  0  0  0  0  0
  -24.9310  -16.2350   20.4420 H   0  0  0  0  0  0  0  0  0  0  0  0
  -26.5100  -16.0340   19.8790 H   0  0  0  0  0  0  0  0  0  0  0  0
  1  2  1  0
  1  4  2  0
  2  3  2  0
  3  8  1  0
  3  5  1  0
  4  8  1  0
  6  5  1  0
  7  9  1  0
  7  2  1  0
  7  6  1  0
  9 11  1  0
 10 21  2  0
 11 16  1  0
 12 20  1  0
 12 22  1  0
 13 19  1  0
 13 15  1  0
 14 20  1  0
 15 14  1  0
 16 15  2  0
 17 18  1  0
 17 11  2  0
 18 13  2  0
 19 12  1  0
 20 10  1  0
 22 24  2  0
 23 22  1  0
 25 23  1  0
 26 35  2  0
 26 31  1  0
 27 23  1  0
 27 31  1  0
 28 27  1  0
 29 30  1  0
 29 28  1  0
 30 26  1  0
 31 32  2  0
 32 33  1  0
 34 33  2  0
 35 34  1  0
 36 10  1  0
 36 37  1  0
 36 46  1  0
 37 40  1  0
 38 42  1  0
 38 37  1  0
 39 38  2  0
 42 41  1  0
 44 42  1  0
 44 45  1  0
 44 43  1  0
 46 49  1  1
 46 47  1  0
 48 46  1  0
 50  4  1  0
 50 59  1  0
 51 59  1  0
 52 57  1  0
 53 54  1  0
 53 52  1  0
 55 54  1  0
 55 64  1  0
 55 56  1  0
 57 51  1  0
 57 56  1  0
 58 51  2  0
 59 60  1  0
 61 62  2  0
 62 81  1  0
 63 62  1  0
 63 66  1  0
 64 65  1  0
 64 61  1  0
 65 63  2  0
 66 67  1  0
 67 68  2  0
 69 72  1  0
 69 68  1  0
 70 69  2  0
 71 70  1  0
 71 66  2  0
 72 73  1  0
 73 74  1  0
 74 75  2  0
 76 75  1  0
 76 80  1  0
 77 76  2  0
 78 73  2  0
 78 77  1  0
 79 78  1  0
 81 82  1  0
 82 85  1  0
 82 84  1  0
 83 81  2  0
 86 61  1  0
 86 87  1  0
 88 86  1  0
M  ISO  4   7 101   9 101  51 100  59 100
M  END
>  <TORSDO>  (13) 
F 17

>  <SCORE>  (13) 
-15.167

>  <name>  (13) 
12

>  <ligand_id>  (13) 
12

>  <original_smiles>  (13) 
[H]c1c([H])c([H])c2c(c1[H])C([H])([H])C([H])([H])C([H])([H])C2([H])N([H])C(=O)C1([H])N(C(=O)C([H])(N([H])C(=O)C([H])(N([H])C([H])([H])[H])C([H])([H])[H])C(C([H])([H])[H])(C([H])([H])[H])C([H])([H])[H])C([H])([H])c2c([H])c(OC3([H])c4c(sc(C([H])([H])N([H])C(=O)N5C([H])([H])C([H])([H])C([H])([H])C([H])(n6nc(-c7c([H])c([H])c(Oc8c([H])c([H])c(F)c([H])c8F)c([H])c7[H])c(C(=O)N([H])[H])c6N([H])[H])C5([H])[H])c4[H])C([H])([H])C3([H])[H])c([H])c([H])c2C1([H])[H]

>  <smiles>  (13) 
[H]c1c([H])c([H])c2c(c1[H])C([H])([H])C([H])([H])C([H])([H])C2([H])N([H])C(=O)C1([H])N(C(=O)C([H])(N([H])C(=O)C([H])(N([H])C([H])([H])[H])C([H])([H])[H])C(C([H])([H])[H])(C([H])([H])[H])C([H])([H])[H])C([H])([H])c2c([H])c(OC3([H])c4c(sc(C([H])([H])N([H])C(=O)N5C([H])([H])C([H])([H])C([H])([H])C([H])(n6nc(-c7c([H])c([H])c(Oc8c([H])c([H])c(F)c([H])c8F)c([H])c7[H])c(C(=O)N([H])[H])c6N([H])[H])C5([H])[H])c4[H])C([H])([H])C3([H])[H])c([H])c([H])c2C1([H])[H]

$$$$
13:0:0
     RDKit          3D

 93101  0  0  1  0  0  0  0  0999 V2000
  -27.7220  -20.2490   19.5140 C   0  0  0  0  0  3  0  0  0  0  0  0
  -27.6390  -22.6090   18.9040 C   0  0  0  0  0  3  0  0  0  0  0  0
  -29.2800  -21.8300   20.5270 C   0  0  0  0  0  3  0  0  0  0  0  0
  -27.1390  -21.2940   18.7680 C   0  0  0  0  0  0  0  0  0  0  0  0
  -28.8040  -20.4970   20.3880 C   0  0  0  0  0  0  0  0  0  0  0  0
  -28.7130  -22.8910   19.7750 C   0  0  0  0  0  0  0  0  0  0  0  0
  -25.2710  -19.6900   17.9660 C   0  0  0  0  0  1  0  0  0  0  0  0
  -26.0370  -21.0080   17.7540 C   0  0  0  0  0  2  0  0  0  0  0  0
  -29.4870  -19.3390   21.1390 C   0  0  0  0  0  2  0  0  0  0  0  0
  -29.1150  -17.9000   20.6600 C   0  0  0  0  0  2  0  0  0  0  0  0
  -30.6750  -14.5090   20.2420 C   0  0  0  0  0  0  0  0  0  0  0  0
  -30.4080  -12.3280   19.1060 C   0  0  0  0  0  2  0  0  0  0  0  0
  -29.4340  -12.4910   17.9210 C   0  0  0  0  0  2  0  0  0  0  0  0
  -27.9650  -12.3600   18.3770 C   0  0  0  0  0  2  0  0  0  0  0  0
  -27.6470  -13.2130   19.6360 C   0  0  0  0  0  3  0  0  0  0  0  0
  -28.7220  -12.9870   20.7200 C   0  0  0  0  0  2  0  0  0  0  0  0
  -30.0260  -13.3190   20.1240 N   0  0  0  0  0  0  0  0  0  0  0  0
  -31.8330  -14.6620   19.8350 O   0  0  0  0  0  0  0  0  0  0  0  0
  -30.2190  -16.8310   20.8340 C   0  0  0  0  0  0  0  0  0  0  0  0
  -29.8770  -15.5400   20.6140 N   0  0  0  0  0  0  0  0  0  0  0  0
  -31.3560  -17.1860   21.1640 O   0  0  0  0  0  0  0  0  0  0  0  0
  -28.8910  -15.3350   20.6200 H   0  0  0  0  0  0  0  0  0  0  0  0
  -25.2760  -13.8560   20.4260 C   0  0  0  0  0  0  0  0  0  0  0  0
  -24.2120  -13.0950   20.8230 C   0  0  0  0  0  0  0  0  0  0  0  0
  -24.6490  -11.7370   20.7620 C   0  0  0  0  0  0  0  0  0  0  0  0
  -26.3010  -12.9610   20.1480 N   0  0  0  0  0  0  0  0  0  0  0  0
  -25.9280  -11.6830   20.4070 N   0  0  0  0  0  0  0  0  0  0  0  0
  -23.9120  -10.4850   20.9620 C   0  0  0  0  0  0  0  0  0  0  0  0
  -24.3580   -9.5090   21.8830 C   0  0  0  0  0  3  0  0  0  0  0  0
  -23.6280   -8.3160   22.0690 C   0  0  0  0  0  3  0  0  0  0  0  0
  -22.4380   -8.0890   21.3360 C   0  0  0  0  0  0  0  0  0  0  0  0
  -22.0100   -9.0540   20.4060 C   0  0  0  0  0  3  0  0  0  0  0  0
  -22.7390  -10.2400   20.2190 C   0  0  0  0  0  3  0  0  0  0  0  0
  -21.6780   -6.9490   21.4320 O   0  0  0  0  0  0  0  0  0  0  0  0
  -21.6220   -6.2140   22.5880 C   0  0  0  0  0  0  0  0  0  0  0  0
  -21.1650   -6.7700   23.8040 C   0  0  0  0  0  3  0  0  0  0  0  0
  -21.0620   -5.9620   24.9530 C   0  0  0  0  0  3  0  0  0  0  0  0
  -21.4060   -4.5980   24.8880 C   0  0  0  0  0  0  0  0  0  0  0  0
  -21.8540   -4.0410   23.6780 C   0  0  0  0  0  3  0  0  0  0  0  0
  -21.9600   -4.8470   22.5310 C   0  0  0  0  0  0  0  0  0  0  0  0
  -22.3740   -4.3020   21.3610 F   0  0  0  0  0  0  0  0  0  0  0  0
  -21.2990   -3.8180   25.9880 F   0  0  0  0  0  0  0  0  0  0  0  0
  -22.8290  -13.5880   21.1500 C   0  0  0  0  0  0  0  0  0  0  0  0
  -22.1290  -12.9060   22.0500 N   0  0  0  0  0  0  0  0  0  0  0  0
  -22.3830  -14.6120   20.6380 O   0  0  0  0  0  0  0  0  0  0  0  0
  -22.4980  -12.0740   22.4850 H   0  0  0  0  0  0  0  0  0  0  0  0
  -21.2060  -13.2250   22.3120 H   0  0  0  0  0  0  0  0  0  0  0  0
  -25.4460  -15.2270   20.2630 N   0  0  0  0  0  0  0  0  0  0  0  0
  -24.6650  -15.8610   20.3940 H   0  0  0  0  0  0  0  0  0  0  0  0
  -26.2530  -15.6740   19.8510 H   0  0  0  0  0  0  0  0  0  0  0  0
  -29.2970  -24.3140   19.8020 C   0  0  0  0  0  2  0  0  0  0  0  0
  -28.5850  -25.2940   20.7680 C   0  0  0  0  0  2  0  0  0  0  0  0
  -28.7520  -26.6950   20.4310 O   0  0  0  0  0  0  0  0  0  0  0  0
  -24.7370  -31.8730   23.2700 C   0  0  0  0  0  0  0  0  0  0  0  0
  -27.5870  -27.4340   20.3560 C   0  0  0  0  0  0  0  0  0  0  0  0
  -23.6260  -30.4190   21.6060 C   0  0  0  0  0  3  0  0  0  0  0  0
  -25.1650  -28.8980   20.2570 C   0  0  0  0  0  0  0  0  0  0  0  0
  -26.1510  -30.8330   21.4940 C   0  0  0  0  0  2  0  0  0  0  0  0
  -26.2920  -29.4560   20.8730 C   0  0  0  0  0  0  0  0  0  0  0  0
  -27.5090  -28.7330   20.9160 C   0  0  0  0  0  3  0  0  0  0  0  0
  -26.4440  -26.9000   19.7220 C   0  0  0  0  0  3  0  0  0  0  0  0
  -25.2370  -27.6200   19.6750 C   0  0  0  0  0  3  0  0  0  0  0  0
  -23.9000  -29.7250   20.2460 C   0  0  0  0  0  2  0  0  0  0  0  0
  -24.8540  -31.0600   22.1820 N   0  0  0  0  0  0  0  0  0  0  0  0
  -23.6310  -32.1240   23.7670 O   0  0  0  0  0  0  0  0  0  0  0  0
  -22.9650  -29.3970   22.5600 C   0  0  0  0  0  0  0  0  0  0  0  0
  -21.6470  -29.1870   22.3980 N   0  0  0  0  0  0  0  0  0  0  0  0
  -23.6360  -28.7920   23.4020 O   0  0  0  0  0  0  0  0  0  0  0  0
  -21.1650  -29.7220   21.6880 H   0  0  0  0  0  0  0  0  0  0  0  0
  -18.2760  -27.9730   22.8570 C   0  0  0  0  0  0  0  0  0  0  0  0
  -20.8280  -28.2420   23.1570 C   0  0  0  0  0  3  0  0  0  0  0  0
  -20.9460  -26.8150   22.5720 C   0  0  0  0  0  2  0  0  0  0  0  0
  -19.8560  -26.4930   21.5440 C   0  0  0  0  0  2  0  0  0  0  0  0
  -18.4660  -26.6280   22.1740 C   0  0  0  0  0  2  0  0  0  0  0  0
  -19.3860  -28.7370   23.3040 C   0  0  0  0  0  0  0  0  0  0  0  0
  -19.1550  -29.9960   23.8990 C   0  0  0  0  0  3  0  0  0  0  0  0
  -17.8460  -30.4910   24.0540 C   0  0  0  0  0  3  0  0  0  0  0  0
  -16.7510  -29.7240   23.6220 C   0  0  0  0  0  3  0  0  0  0  0  0
  -16.9650  -28.4650   23.0300 C   0  0  0  0  0  3  0  0  0  0  0  0
  -25.9860  -32.5450   23.9240 C   0  0  0  0  0  3  0  0  0  0  0  0
  -25.6300  -33.9370   24.2290 N   0  0  0  0  0  0  0  0  0  0  0  0
  -25.9500  -34.9890   23.4630 C   0  0  0  0  0  0  0  0  0  0  0  0
  -26.6450  -34.8900   22.4460 O   0  0  0  0  0  0  0  0  0  0  0  0
  -25.0200  -34.0860   25.0190 H   0  0  0  0  0  0  0  0  0  0  0  0
  -24.1750  -36.7180   23.0520 C   0  0  0  0  0  1  0  0  0  0  0  0
  -25.4140  -36.3670   23.8900 C   0  0  0  0  0  3  0  0  0  0  0  0
  -27.5010  -37.3370   24.7460 C   0  0  0  0  0  1  0  0  0  0  0  0
  -26.4160  -37.4500   23.7750 N   0  0  0  0  0  0  0  0  0  0  0  0
  -25.9770  -38.3590   23.8910 H   0  0  0  0  0  0  0  0  0  0  0  0
  -26.4830  -31.8000   25.2220 C   0  0  1  0  0  0  0  0  0  0  0  0
  -25.3580  -31.5070   26.2410 C   0  0  0  0  0  1  0  0  0  0  0  0
  -27.1470  -30.4520   24.8560 C   0  0  0  0  0  1  0  0  0  0  0  0
  -27.5640  -32.6480   25.9300 C   0  0  0  0  0  1  0  0  0  0  0  0
  1  5  1  0
  2  6  2  0
  4  2  1  0
  4  1  2  0
  5  3  2  0
  5  9  1  0
  6 51  1  0
  6  3  1  0
  8  7  1  0
  8  4  1  0
 10 19  1  0
 10  9  1  0
 11 20  1  0
 12 17  1  0
 13 14  1  0
 13 12  1  0
 15 14  1  0
 15 26  1  0
 15 16  1  0
 17 11  1  0
 17 16  1  0
 18 11  2  0
 19 21  2  0
 20 22  1  0
 20 19  1  0
 23 24  2  0
 24 43  1  0
 25 24  1  0
 25 28  1  0
 26 27  1  0
 26 23  1  0
 27 25  2  0
 28 29  1  0
 29 30  2  0
 31 34  1  0
 31 30  1  0
 32 31  2  0
 33 32  1  0
 33 28  2  0
 34 35  1  0
 35 36  1  0
 36 37  2  0
 38 37  1  0
 38 42  1  0
 39 38  2  0
 40 35  2  0
 40 39  1  0
 41 40  1  0
 43 44  1  0
 44 47  1  0
 44 46  1  0
 45 43  2  0
 48 49  1  0
 48 23  1  0
 50 48  1  0
 51 52  1  0
 53 52  1  0
 54 65  2  0
 55 53  1  0
 55 60  1  0
 56 64  1  0
 56 66  1  0
 57 59  1  0
 58 64  1  0
 59 60  2  0
 59 58  1  0
 61 55  2  0
 62 61  1  0
 62 57  2  0
 63 57  1  0
 63 56  1  0
 64 54  1  0
 66 68  2  0
 67 66  1  0
 69 67  1  0
 70 79  2  0
 70 75  1  0
 71 67  1  0
 71 75  1  0
 72 71  1  0
 73 74  1  0
 73 72  1  0
 74 70  1  0
 75 76  2  0
 76 77  1  0
 78 77  2  0
 79 78  1  0
 80 54  1  0
 80 81  1  0
 80 90  1  0
 81 84  1  0
 82 86  1  0
 82 81  1  0
 83 82  2  0
 86 85  1  0
 88 86  1  0
 88 89  1  0
 88 87  1  0
 90 93  1  1
 90 91  1  0
 92 90  1  0
M  ISO  4  11 100  20 100  52 101  53 101
M  END
>  <TORSDO>  (14) 
F 21

>  <SCORE>  (14) 
-13.112

>  <name>  (14) 
13

>  <ligand_id>  (14) 
13

>  <original_smiles>  (14) 
[H]c1c([H])c([H])c2c(c1[H])C([H])([H])C([H])([H])C([H])([H])C2([H])N([H])C(=O)C1([H])N(C(=O)C([H])(N([H])C(=O)C([H])(N([H])C([H])([H])[H])C([H])([H])[H])C(C([H])([H])[H])(C([H])([H])[H])C([H])([H])[H])C([H])([H])c2c([H])c(OC([H])([H])C([H])([H])c3c([H])c(C([H])([H])C([H])([H])[H])c([H])c(C([H])([H])C([H])([H])C(=O)N([H])C(=O)N4C([H])([H])C([H])([H])C([H])([H])C([H])(n5nc(-c6c([H])c([H])c(Oc7c([H])c([H])c(F)c([H])c7F)c([H])c6[H])c(C(=O)N([H])[H])c5N([H])[H])C4([H])[H])c3[H])c([H])c([H])c2C1([H])[H]

>  <smiles>  (14) 
[H]c1c([H])c([H])c2c(c1[H])C([H])([H])C([H])([H])C([H])([H])C2([H])N([H])C(=O)C1([H])N(C(=O)C([H])(N([H])C(=O)C([H])(N([H])C([H])([H])[H])C([H])([H])[H])C(C([H])([H])[H])(C([H])([H])[H])C([H])([H])[H])C([H])([H])c2c([H])c(OC([H])([H])C([H])([H])c3c([H])c(C([H])([H])C([H])([H])[H])c([H])c(C([H])([H])C([H])([H])C(=O)N([H])C(=O)N4C([H])([H])C([H])([H])C([H])([H])C([H])(n5nc(-c6c([H])c([H])c(Oc7c([H])c([H])c(F)c([H])c7F)c([H])c6[H])c(C(=O)N([H])[H])c5N([H])[H])C4([H])[H])c3[H])c([H])c([H])c2C1([H])[H]

$$$$
14:0:0
     RDKit          3D

 90 98  0  0  1  0  0  0  0  0999 V2000
  -28.1300  -22.9390   17.0220 C   0  0  0  0  0  3  0  0  0  0  0  0
  -28.0560  -24.3190   16.9530 C   0  0  0  0  0  3  0  0  0  0  0  0
  -28.4030  -22.3240   18.2450 C   0  0  0  0  0  3  0  0  0  0  0  0
  -28.1720  -25.0710   18.1210 C   0  0  0  0  0  3  0  0  0  0  0  0
  -28.5950  -22.9780   19.4970 C   0  0  0  0  0  0  0  0  0  0  0  0
  -28.3280  -24.5660   19.4440 C   0  0  0  0  0  0  0  0  0  0  0  0
  -28.6220  -21.8910   21.9250 C   0  0  0  0  0  1  0  0  0  0  0  0
  -29.1410  -21.6560   20.5010 C   0  0  0  0  0  3  0  0  0  0  0  0
  -29.0310  -20.0080   20.1510 N   0  0  0  0  0  4  0  0  0  0  0  0
  -28.0760  -19.7740   20.3650 H   0  0  0  0  0  0  0  0  0  0  0  0
  -29.0880  -19.9800   19.1460 H   0  0  0  0  0  0  0  0  0  0  0  0
  -29.9160  -18.6560   20.6020 C   0  0  0  0  0  2  0  0  0  0  0  0
  -29.5370  -16.8880   20.4350 C   0  0  0  0  0  2  0  0  0  0  0  0
  -30.4340  -15.3640   20.4340 C   0  0  0  0  0  0  0  0  0  0  0  0
  -30.4910  -12.8940   19.6080 C   0  0  0  0  0  2  0  0  0  0  0  0
  -29.6080  -12.6820   18.3490 C   0  0  0  0  0  2  0  0  0  0  0  0
  -28.1450  -12.4070   18.7410 C   0  0  0  0  0  2  0  0  0  0  0  0
  -27.6530  -13.3760   19.8440 C   0  0  0  0  0  3  0  0  0  0  0  0
  -28.6640  -13.5310   20.9980 C   0  0  0  0  0  2  0  0  0  0  0  0
  -29.9210  -14.0320   20.4190 N   0  0  0  0  0  0  0  0  0  0  0  0
  -31.6620  -15.3800   20.2510 O   0  0  0  0  0  0  0  0  0  0  0  0
  -25.2550  -13.9250   20.5180 C   0  0  0  0  0  0  0  0  0  0  0  0
  -24.1870  -13.1460   20.8650 C   0  0  0  0  0  0  0  0  0  0  0  0
  -24.6650  -11.7990   20.8690 C   0  0  0  0  0  0  0  0  0  0  0  0
  -26.3110  -13.0550   20.3170 N   0  0  0  0  0  0  0  0  0  0  0  0
  -25.9670  -11.7710   20.5990 N   0  0  0  0  0  0  0  0  0  0  0  0
  -23.9410  -10.5330   21.0550 C   0  0  0  0  0  0  0  0  0  0  0  0
  -24.3580   -9.5740   22.0050 C   0  0  0  0  0  3  0  0  0  0  0  0
  -23.6310   -8.3770   22.1790 C   0  0  0  0  0  3  0  0  0  0  0  0
  -22.4730   -8.1300   21.4030 C   0  0  0  0  0  0  0  0  0  0  0  0
  -22.0750   -9.0770   20.4450 C   0  0  0  0  0  3  0  0  0  0  0  0
  -22.8030  -10.2660   20.2690 C   0  0  0  0  0  3  0  0  0  0  0  0
  -21.7200   -6.9830   21.4860 O   0  0  0  0  0  0  0  0  0  0  0  0
  -21.6610   -6.2410   22.6390 C   0  0  0  0  0  0  0  0  0  0  0  0
  -21.2360   -6.8010   23.8640 C   0  0  0  0  0  3  0  0  0  0  0  0
  -21.1240   -5.9860   25.0080 C   0  0  0  0  0  3  0  0  0  0  0  0
  -21.4260   -4.6140   24.9290 C   0  0  0  0  0  0  0  0  0  0  0  0
  -21.8440   -4.0540   23.7090 C   0  0  0  0  0  3  0  0  0  0  0  0
  -21.9570   -4.8660   22.5670 C   0  0  0  0  0  0  0  0  0  0  0  0
  -22.3400   -4.3160   21.3890 F   0  0  0  0  0  0  0  0  0  0  0  0
  -21.3110   -3.8300   26.0270 F   0  0  0  0  0  0  0  0  0  0  0  0
  -22.7790  -13.6150   21.0790 C   0  0  0  0  0  0  0  0  0  0  0  0
  -22.0270  -12.9290   21.9320 N   0  0  0  0  0  0  0  0  0  0  0  0
  -22.3530  -14.6280   20.5250 O   0  0  0  0  0  0  0  0  0  0  0  0
  -22.3840  -12.1110   22.4010 H   0  0  0  0  0  0  0  0  0  0  0  0
  -21.0790  -13.2280   22.1190 H   0  0  0  0  0  0  0  0  0  0  0  0
  -25.4140  -15.2950   20.3270 N   0  0  0  0  0  0  0  0  0  0  0  0
  -24.6380  -15.9450   20.4070 H   0  0  0  0  0  0  0  0  0  0  0  0
  -26.2700  -15.7360   20.0170 H   0  0  0  0  0  0  0  0  0  0  0  0
  -28.2580  -25.8580   20.2640 O   0  0  0  0  0  0  0  0  0  0  0  0
  -24.7050  -31.8820   23.2050 C   0  0  0  0  0  0  0  0  0  0  0  0
  -27.2690  -26.9950   20.1760 C   0  0  0  0  0  0  0  0  0  0  0  0
  -23.5080  -30.4730   21.5830 C   0  0  0  0  0  3  0  0  0  0  0  0
  -24.9560  -28.8750   20.1540 C   0  0  0  0  0  0  0  0  0  0  0  0
  -26.0750  -30.6930   21.4190 C   0  0  0  0  0  2  0  0  0  0  0  0
  -26.1500  -29.2810   20.7640 C   0  0  0  0  0  0  0  0  0  0  0  0
  -27.2970  -28.3620   20.7550 C   0  0  0  0  0  3  0  0  0  0  0  0
  -26.0280  -26.7420   19.5430 C   0  0  0  0  0  3  0  0  0  0  0  0
  -24.9190  -27.6250   19.5250 C   0  0  0  0  0  3  0  0  0  0  0  0
  -23.7320  -29.7900   20.2070 C   0  0  0  0  0  2  0  0  0  0  0  0
  -24.7850  -31.0430   22.1220 N   0  0  0  0  0  0  0  0  0  0  0  0
  -23.6170  -32.1680   23.7320 O   0  0  0  0  0  0  0  0  0  0  0  0
  -22.8250  -29.4760   22.5560 C   0  0  0  0  0  0  0  0  0  0  0  0
  -21.4950  -29.3040   22.4420 N   0  0  0  0  0  0  0  0  0  0  0  0
  -23.5000  -28.8580   23.3840 O   0  0  0  0  0  0  0  0  0  0  0  0
  -21.0030  -29.8540   21.7510 H   0  0  0  0  0  0  0  0  0  0  0  0
  -18.1260  -28.0620   22.9650 C   0  0  0  0  0  0  0  0  0  0  0  0
  -20.6820  -28.3660   23.2240 C   0  0  0  0  0  3  0  0  0  0  0  0
  -20.8020  -26.9280   22.6680 C   0  0  0  0  0  2  0  0  0  0  0  0
  -19.7050  -26.5780   21.6570 C   0  0  0  0  0  2  0  0  0  0  0  0
  -18.3210  -26.7090   22.3010 C   0  0  0  0  0  2  0  0  0  0  0  0
  -19.2330  -28.8460   23.3840 C   0  0  0  0  0  0  0  0  0  0  0  0
  -18.9940  -30.1080   23.9690 C   0  0  0  0  0  3  0  0  0  0  0  0
  -17.6800  -30.5880   24.1360 C   0  0  0  0  0  3  0  0  0  0  0  0
  -16.5880  -29.8020   23.7320 C   0  0  0  0  0  3  0  0  0  0  0  0
  -16.8110  -28.5400   23.1510 C   0  0  0  0  0  3  0  0  0  0  0  0
  -25.9760  -32.5350   23.8260 C   0  0  0  0  0  3  0  0  0  0  0  0
  -26.5090  -31.7650   25.0970 C   0  0  1  0  0  0  0  0  0  0  0  0
  -25.4270  -31.5150   26.1750 C   0  0  0  0  0  1  0  0  0  0  0  0
  -27.1020  -30.3920   24.7040 C   0  0  0  0  0  1  0  0  0  0  0  0
  -27.6590  -32.5680   25.7510 C   0  0  0  0  0  1  0  0  0  0  0  0
  -25.6440  -33.9270   24.1800 N   0  0  0  0  0  0  0  0  0  0  0  0
  -25.9560  -35.0020   23.4470 C   0  0  0  0  0  0  0  0  0  0  0  0
  -26.6180  -34.9290   22.4080 O   0  0  0  0  0  0  0  0  0  0  0  0
  -25.0540  -34.0560   24.9900 H   0  0  0  0  0  0  0  0  0  0  0  0
  -24.2070  -36.7900   23.1540 C   0  0  0  0  0  1  0  0  0  0  0  0
  -25.4610  -36.3780   23.9410 C   0  0  0  0  0  3  0  0  0  0  0  0
  -27.5970  -37.2680   24.7660 C   0  0  0  0  0  1  0  0  0  0  0  0
  -26.4810  -37.4450   23.8390 N   0  0  0  0  0  0  0  0  0  0  0  0
  -26.0670  -38.3570   24.0130 H   0  0  0  0  0  0  0  0  0  0  0  0
  1  3  1  0
  2  1  2  0
  2  4  1  0
  3  5  2  0
  4  6  2  0
  5  8  1  0
  6  5  1  0
  6 50  1  0
  8  7  1  0
  9 10  1  0
  9  8  1  0
  9 12  1  0
 11  9  1  0
 13 12  1  0
 14 13  1  0
 15 20  1  0
 16 17  1  0
 16 15  1  0
 18 17  1  0
 18 25  1  0
 18 19  1  0
 20 14  1  0
 20 19  1  0
 21 14  2  0
 22 23  2  0
 23 24  1  0
 23 42  1  0
 24 27  1  0
 25 22  1  0
 25 26  1  0
 26 24  2  0
 27 28  1  0
 28 29  2  0
 30 33  1  0
 30 29  1  0
 31 30  2  0
 32 31  1  0
 32 27  2  0
 33 34  1  0
 34 35  1  0
 35 36  2  0
 37 36  1  0
 37 41  1  0
 38 37  2  0
 39 34  2  0
 39 38  1  0
 40 39  1  0
 42 43  1  0
 43 46  1  0
 43 45  1  0
 44 42  2  0
 47 48  1  0
 47 22  1  0
 49 47  1  0
 51 62  2  0
 52 50  1  0
 52 57  1  0
 53 61  1  0
 53 63  1  0
 54 60  1  0
 54 56  1  0
 55 61  1  0
 56 55  1  0
 57 56  2  0
 58 52  2  0
 59 58  1  0
 59 54  2  0
 60 53  1  0
 61 51  1  0
 63 65  2  0
 64 63  1  0
 66 64  1  0
 67 76  2  0
 67 72  1  0
 68 64  1  0
 68 72  1  0
 69 68  1  0
 70 71  1  0
 70 69  1  0
 71 67  1  0
 72 73  2  0
 73 74  1  0
 75 74  2  0
 76 75  1  0
 77 51  1  0
 77 82  1  0
 77 78  1  0
 78 81  1  1
 78 79  1  0
 80 78  1  0
 82 85  1  0
 83 87  1  0
 83 82  1  0
 84 83  2  0
 87 86  1  0
 89 87  1  0
 89 90  1  0
 89 88  1  0
M  ISO  4   6 101  13 100  14 100  50 101
M  END
>  <TORSDO>  (15) 
F 20

>  <SCORE>  (15) 
-15.363

>  <name>  (15) 
14

>  <ligand_id>  (15) 
14

>  <original_smiles>  (15) 
[H]c1c([H])c([H])c(C([H])(C([H])([H])[H])[N+]([H])([H])C([H])([H])C([H])([H])C(=O)N2C([H])([H])C([H])([H])C([H])([H])C([H])(n3nc(-c4c([H])c([H])c(Oc5c([H])c([H])c(F)c([H])c5F)c([H])c4[H])c(C(=O)N([H])[H])c3N([H])[H])C2([H])[H])c(Oc2c([H])c([H])c3c(c2[H])C([H])([H])N(C(=O)C([H])(N([H])C(=O)C([H])(N([H])C([H])([H])[H])C([H])([H])[H])C(C([H])([H])[H])(C([H])([H])[H])C([H])([H])[H])C([H])(C(=O)N([H])C2([H])c4c([H])c([H])c([H])c([H])c4C([H])([H])C([H])([H])C2([H])[H])C3([H])[H])c1[H]

>  <smiles>  (15) 
[H]c1c([H])c([H])c(C([H])(C([H])([H])[H])[N+]([H])([H])C([H])([H])C([H])([H])C(=O)N2C([H])([H])C([H])([H])C([H])([H])C([H])(n3nc(-c4c([H])c([H])c(Oc5c([H])c([H])c(F)c([H])c5F)c([H])c4[H])c(C(=O)N([H])[H])c3N([H])[H])C2([H])[H])c(Oc2c([H])c([H])c3c(c2[H])C([H])([H])N(C(=O)C([H])(N([H])C(=O)C([H])(N([H])C([H])([H])[H])C([H])([H])[H])C(C([H])([H])[H])(C([H])([H])[H])C([H])([H])[H])C([H])(C(=O)N([H])C2([H])c4c([H])c([H])c([H])c([H])c4C([H])([H])C([H])([H])C2([H])[H])C3([H])[H])c1[H]

$$$$
15:0:0
     RDKit          3D

 95103  0  0  1  0  0  0  0  0999 V2000
  -30.2290  -23.2940   23.4910 C   0  0  0  0  0  1  0  0  0  0  0  0
  -29.5350  -22.4380   22.4140 C   0  0  0  0  0  3  0  0  0  0  0  0
  -32.2890  -19.4680   20.8220 C   0  0  0  0  0  3  0  0  0  0  0  0
  -31.5930  -21.7950   21.0500 C   0  0  0  0  0  3  0  0  0  0  0  0
  -30.2830  -20.0210   22.0900 C   0  0  0  0  0  3  0  0  0  0  0  0
  -32.4930  -20.8350   20.5450 C   0  0  0  0  0  0  0  0  0  0  0  0
  -31.1860  -19.0550   21.5970 C   0  0  0  0  0  0  0  0  0  0  0  0
  -30.4840  -21.3960   21.8280 C   0  0  0  0  0  0  0  0  0  0  0  0
  -33.6810  -21.2650   19.7060 C   0  0  0  0  0  1  0  0  0  0  0  0
  -30.9770  -17.5760   21.8960 C   0  0  0  0  0  2  0  0  0  0  0  0
  -30.1730  -16.8740   20.7900 C   0  0  0  0  0  2  0  0  0  0  0  0
  -30.6770  -14.4550   20.4820 C   0  0  0  0  0  0  0  0  0  0  0  0
  -30.3680  -12.3190   19.3030 C   0  0  0  0  0  2  0  0  0  0  0  0
  -29.4170  -12.5570   18.1110 C   0  0  0  0  0  2  0  0  0  0  0  0
  -27.9450  -12.4210   18.5490 C   0  0  0  0  0  2  0  0  0  0  0  0
  -27.6230  -13.2400   19.8280 C   0  0  0  0  0  3  0  0  0  0  0  0
  -28.6830  -12.9800   20.9240 C   0  0  0  0  0  2  0  0  0  0  0  0
  -30.0100  -13.2790   20.3570 N   0  0  0  0  0  0  0  0  0  0  0  0
  -31.7780  -14.6740   19.9680 O   0  0  0  0  0  0  0  0  0  0  0  0
  -29.9660  -15.4440   21.0420 N   0  0  0  0  0  0  0  0  0  0  0  0
  -29.0860  -15.1780   21.4600 H   0  0  0  0  0  0  0  0  0  0  0  0
  -25.2250  -13.8530   20.5470 C   0  0  0  0  0  0  0  0  0  0  0  0
  -24.1570  -13.0800   20.9200 C   0  0  0  0  0  0  0  0  0  0  0  0
  -24.6160  -11.7290   20.8830 C   0  0  0  0  0  0  0  0  0  0  0  0
  -26.2680  -12.9700   20.3100 N   0  0  0  0  0  0  0  0  0  0  0  0
  -25.9040  -11.6870   20.5680 N   0  0  0  0  0  0  0  0  0  0  0  0
  -23.8910  -10.4670   21.0740 C   0  0  0  0  0  0  0  0  0  0  0  0
  -24.3470   -9.4840   21.9810 C   0  0  0  0  0  3  0  0  0  0  0  0
  -23.6220   -8.2860   22.1620 C   0  0  0  0  0  3  0  0  0  0  0  0
  -22.4280   -8.0620   21.4350 C   0  0  0  0  0  0  0  0  0  0  0  0
  -21.9920   -9.0350   20.5170 C   0  0  0  0  0  3  0  0  0  0  0  0
  -22.7160  -10.2250   20.3350 C   0  0  0  0  0  3  0  0  0  0  0  0
  -21.6720   -6.9180   21.5250 O   0  0  0  0  0  0  0  0  0  0  0  0
  -21.6720   -6.1440   22.6570 C   0  0  0  0  0  0  0  0  0  0  0  0
  -21.3260   -6.6710   23.9200 C   0  0  0  0  0  3  0  0  0  0  0  0
  -21.2710   -5.8240   25.0460 C   0  0  0  0  0  3  0  0  0  0  0  0
  -21.5530   -4.4510   24.9090 C   0  0  0  0  0  0  0  0  0  0  0  0
  -21.8910   -3.9240   23.6500 C   0  0  0  0  0  3  0  0  0  0  0  0
  -21.9480   -4.7670   22.5270 C   0  0  0  0  0  0  0  0  0  0  0  0
  -22.2550   -4.2500   21.3140 F   0  0  0  0  0  0  0  0  0  0  0  0
  -21.4920   -3.6350   25.9880 F   0  0  0  0  0  0  0  0  0  0  0  0
  -22.7620  -13.5590   21.2030 C   0  0  0  0  0  0  0  0  0  0  0  0
  -22.0380  -12.8630   22.0730 N   0  0  0  0  0  0  0  0  0  0  0  0
  -22.3200  -14.5840   20.6870 O   0  0  0  0  0  0  0  0  0  0  0  0
  -22.4080  -12.0350   22.5150 H   0  0  0  0  0  0  0  0  0  0  0  0
  -21.1030  -13.1660   22.3020 H   0  0  0  0  0  0  0  0  0  0  0  0
  -25.3890  -15.2230   20.3730 N   0  0  0  0  0  0  0  0  0  0  0  0
  -24.6220  -15.8790   20.4830 H   0  0  0  0  0  0  0  0  0  0  0  0
  -26.2380  -15.6630   20.0360 H   0  0  0  0  0  0  0  0  0  0  0  0
  -28.8340  -23.1980   21.3480 N   0  0  0  0  0  4  0  0  0  0  0  0
  -28.9490  -22.6850   20.4870 H   0  0  0  0  0  0  0  0  0  0  0  0
  -27.8530  -23.1440   21.5760 H   0  0  0  0  0  0  0  0  0  0  0  0
  -29.1740  -24.6350   21.1410 C   0  0  0  0  0  2  0  0  0  0  0  0
  -28.2500  -25.2840   20.0940 C   0  0  0  0  0  2  0  0  0  0  0  0
  -28.3490  -26.7170   20.1380 O   0  0  0  0  0  0  0  0  0  0  0  0
  -24.5590  -31.8810   23.2210 C   0  0  0  0  0  0  0  0  0  0  0  0
  -27.1720  -27.4400   20.1130 C   0  0  0  0  0  0  0  0  0  0  0  0
  -23.3380  -30.4810   21.5900 C   0  0  0  0  0  3  0  0  0  0  0  0
  -24.7770  -28.9480   20.1480 C   0  0  0  0  0  0  0  0  0  0  0  0
  -25.8630  -30.8370   21.3720 C   0  0  0  0  0  2  0  0  0  0  0  0
  -25.9410  -29.4680   20.7300 C   0  0  0  0  0  0  0  0  0  0  0  0
  -27.1410  -28.7210   20.7100 C   0  0  0  0  0  3  0  0  0  0  0  0
  -25.9920  -26.9460   19.5040 C   0  0  0  0  0  3  0  0  0  0  0  0
  -24.7980  -27.6870   19.5330 C   0  0  0  0  0  3  0  0  0  0  0  0
  -23.5330  -29.8040   20.2080 C   0  0  0  0  0  2  0  0  0  0  0  0
  -24.6060  -31.0810   22.1190 N   0  0  0  0  0  0  0  0  0  0  0  0
  -23.4840  -32.1540   23.7710 O   0  0  0  0  0  0  0  0  0  0  0  0
  -22.6980  -29.4580   22.5550 C   0  0  0  0  0  0  0  0  0  0  0  0
  -21.3720  -29.2750   22.4380 N   0  0  0  0  0  0  0  0  0  0  0  0
  -23.3890  -28.8310   23.3630 O   0  0  0  0  0  0  0  0  0  0  0  0
  -20.8780  -29.8300   21.7540 H   0  0  0  0  0  0  0  0  0  0  0  0
  -18.0030  -28.0750   22.9530 C   0  0  0  0  0  0  0  0  0  0  0  0
  -20.5620  -28.3380   23.2150 C   0  0  0  0  0  3  0  0  0  0  0  0
  -20.6650  -26.9070   22.6410 C   0  0  0  0  0  2  0  0  0  0  0  0
  -19.5590  -26.5780   21.6330 C   0  0  0  0  0  2  0  0  0  0  0  0
  -18.1800  -26.7240   22.2830 C   0  0  0  0  0  2  0  0  0  0  0  0
  -19.1220  -28.8400   23.3780 C   0  0  0  0  0  0  0  0  0  0  0  0
  -18.9050  -30.1060   23.9640 C   0  0  0  0  0  3  0  0  0  0  0  0
  -17.6000  -30.6070   24.1320 C   0  0  0  0  0  3  0  0  0  0  0  0
  -16.4960  -29.8380   23.7250 C   0  0  0  0  0  3  0  0  0  0  0  0
  -16.6970  -28.5750   23.1420 C   0  0  0  0  0  3  0  0  0  0  0  0
  -25.8530  -32.5110   23.8290 C   0  0  0  0  0  3  0  0  0  0  0  0
  -25.5450  -33.9050   24.1730 N   0  0  0  0  0  0  0  0  0  0  0  0
  -25.8650  -34.9630   23.4160 C   0  0  0  0  0  0  0  0  0  0  0  0
  -26.5220  -34.8680   22.3760 O   0  0  0  0  0  0  0  0  0  0  0  0
  -24.9620  -34.0530   24.9840 H   0  0  0  0  0  0  0  0  0  0  0  0
  -24.1230  -36.7480   23.0950 C   0  0  0  0  0  1  0  0  0  0  0  0
  -25.3770  -36.3460   23.8890 C   0  0  0  0  0  3  0  0  0  0  0  0
  -27.5210  -37.2300   24.6920 C   0  0  0  0  0  1  0  0  0  0  0  0
  -26.4040  -37.4040   23.7680 N   0  0  0  0  0  0  0  0  0  0  0  0
  -25.9970  -38.3210   23.9310 H   0  0  0  0  0  0  0  0  0  0  0  0
  -26.3920  -31.7300   25.0900 C   0  0  1  0  0  0  0  0  0  0  0  0
  -25.3160  -31.4800   26.1710 C   0  0  0  0  0  1  0  0  0  0  0  0
  -26.9720  -30.3580   24.6740 C   0  0  0  0  0  1  0  0  0  0  0  0
  -27.5510  -32.5220   25.7400 C   0  0  0  0  0  1  0  0  0  0  0  0
  2  1  1  0
  3  7  1  0
  4  8  2  0
  6  3  2  0
  6  4  1  0
  7 10  1  0
  7  5  2  0
  8  5  1  0
  8  2  1  0
  9  6  1  0
 11 20  1  0
 11 10  1  0
 12 20  1  0
 13 18  1  0
 14 15  1  0
 14 13  1  0
 16 15  1  0
 16 25  1  0
 16 17  1  0
 18 12  1  0
 18 17  1  0
 19 12  2  0
 20 21  1  0
 22 23  2  0
 23 42  1  0
 24 23  1  0
 24 27  1  0
 25 22  1  0
 25 26  1  0
 26 24  2  0
 27 28  1  0
 28 29  2  0
 30 33  1  0
 30 29  1  0
 31 30  2  0
 32 31  1  0
 32 27  2  0
 33 34  1  0
 34 35  1  0
 35 36  2  0
 37 36  1  0
 37 41  1  0
 38 37  2  0
 39 34  2  0
 39 38  1  0
 40 39  1  0
 42 43  1  0
 43 46  1  0
 43 45  1  0
 44 42  2  0
 47 48  1  0
 47 22  1  0
 49 47  1  0
 50 52  1  0
 50  2  1  0
 51 50  1  0
 53 50  1  0
 54 55  1  0
 54 53  1  0
 56 67  2  0
 57 55  1  0
 57 62  1  0
 58 66  1  0
 58 68  1  0
 59 65  1  0
 59 61  1  0
 60 66  1  0
 61 60  1  0
 62 61  2  0
 63 64  1  0
 63 57  2  0
 64 59  2  0
 65 58  1  0
 66 56  1  0
 68 70  2  0
 69 68  1  0
 71 69  1  0
 72 81  2  0
 72 77  1  0
 73 69  1  0
 73 77  1  0
 74 73  1  0
 75 76  1  0
 75 74  1  0
 76 72  1  0
 77 78  2  0
 78 79  1  0
 80 79  2  0
 81 80  1  0
 82 56  1  0
 82 83  1  0
 82 92  1  0
 83 86  1  0
 84 88  1  0
 84 83  1  0
 85 84  2  0
 88 87  1  0
 90 88  1  0
 90 91  1  0
 90 89  1  0
 92 95  1  1
 92 93  1  0
 94 92  1  0
M  ISO  4  12 100  20 100  54 101  55 101
M  END
>  <TORSDO>  (16) 
F 22

>  <SCORE>  (16) 
-13.098

>  <name>  (16) 
15

>  <ligand_id>  (16) 
15

>  <original_smiles>  (16) 
[H]c1c([H])c([H])c2c(c1[H])C([H])([H])C([H])([H])C([H])([H])C2([H])N([H])C(=O)C1([H])N(C(=O)C([H])(N([H])C(=O)C([H])(N([H])C([H])([H])[H])C([H])([H])[H])C(C([H])([H])[H])(C([H])([H])[H])C([H])([H])[H])C([H])([H])c2c([H])c(OC([H])([H])C([H])([H])[N+]([H])([H])C([H])(c3c([H])c(C([H])([H])[H])c([H])c(C([H])([H])C([H])([H])N([H])C(=O)N4C([H])([H])C([H])([H])C([H])([H])C([H])(n5nc(-c6c([H])c([H])c(Oc7c([H])c([H])c(F)c([H])c7F)c([H])c6[H])c(C(=O)N([H])[H])c5N([H])[H])C4([H])[H])c3[H])C([H])([H])[H])c([H])c([H])c2C1([H])[H]

>  <smiles>  (16) 
[H]c1c([H])c([H])c2c(c1[H])C([H])([H])C([H])([H])C([H])([H])C2([H])N([H])C(=O)C1([H])N(C(=O)C([H])(N([H])C(=O)C([H])(N([H])C([H])([H])[H])C([H])([H])[H])C(C([H])([H])[H])(C([H])([H])[H])C([H])([H])[H])C([H])([H])c2c([H])c(OC([H])([H])C([H])([H])[N+]([H])([H])C([H])(c3c([H])c(C([H])([H])[H])c([H])c(C([H])([H])C([H])([H])N([H])C(=O)N4C([H])([H])C([H])([H])C([H])([H])C([H])(n5nc(-c6c([H])c([H])c(Oc7c([H])c([H])c(F)c([H])c7F)c([H])c6[H])c(C(=O)N([H])[H])c5N([H])[H])C4([H])[H])c3[H])C([H])([H])[H])c([H])c([H])c2C1([H])[H]

$$$$
16:0:0
     RDKit          3D

 94103  0  0  1  0  0  0  0  0999 V2000
  -28.5370  -23.9630   20.6490 C   0  0  0  0  0  3  0  0  0  0  0  0
  -28.4000  -22.5680   20.8160 C   0  0  0  0  0  3  0  0  0  0  0  0
  -28.8700  -22.2450   18.4570 C   0  0  0  0  0  3  0  0  0  0  0  0
  -29.0390  -23.6400   18.2790 C   0  0  0  0  0  0  0  0  0  0  0  0
  -28.8430  -24.5200   19.3840 C   0  0  0  0  0  0  0  0  0  0  0  0
  -28.5520  -21.6980   19.7170 C   0  0  0  0  0  0  0  0  0  0  0  0
  -29.3700  -24.1120   16.8980 C   0  0  0  0  0  0  0  0  0  0  0  0
  -30.3530  -25.2760   16.7050 C   0  0  0  0  0  2  0  0  0  0  0  0
  -31.1910  -25.6450   17.9430 C   0  0  0  0  0  2  0  0  0  0  0  0
  -30.4220  -26.4870   18.9750 C   0  0  0  0  0  2  0  0  0  0  0  0
  -28.9710  -26.0440   19.2240 C   0  0  0  0  0  3  0  0  0  0  0  0
  -28.9210  -23.5630   15.8880 O   0  0  0  0  0  0  0  0  0  0  0  0
  -28.5470  -26.8100   20.3580 O   0  0  0  0  0  0  0  0  0  0  0  0
  -24.5810  -31.9380   23.2810 C   0  0  0  0  0  0  0  0  0  0  0  0
  -27.3480  -27.4930   20.3080 C   0  0  0  0  0  0  0  0  0  0  0  0
  -23.4300  -30.5100   21.6220 C   0  0  0  0  0  3  0  0  0  0  0  0
  -24.9320  -28.9660   20.2550 C   0  0  0  0  0  0  0  0  0  0  0  0
  -25.9550  -30.8860   21.4890 C   0  0  0  0  0  2  0  0  0  0  0  0
  -26.0670  -29.5070   20.8710 C   0  0  0  0  0  0  0  0  0  0  0  0
  -27.2720  -28.7720   20.9060 C   0  0  0  0  0  3  0  0  0  0  0  0
  -26.1890  -26.9530   19.7060 C   0  0  0  0  0  3  0  0  0  0  0  0
  -24.9860  -27.6860   19.6760 C   0  0  0  0  0  3  0  0  0  0  0  0
  -23.6810  -29.8150   20.2570 C   0  0  0  0  0  2  0  0  0  0  0  0
  -24.6720  -31.1280   22.1900 N   0  0  0  0  0  0  0  0  0  0  0  0
  -23.4830  -32.2090   23.7890 O   0  0  0  0  0  0  0  0  0  0  0  0
  -22.7610  -29.4950   22.5770 C   0  0  0  0  0  0  0  0  0  0  0  0
  -21.4360  -29.3240   22.4350 N   0  0  0  0  0  0  0  0  0  0  0  0
  -23.4300  -28.8630   23.3990 O   0  0  0  0  0  0  0  0  0  0  0  0
  -20.9600  -29.8830   21.7400 H   0  0  0  0  0  0  0  0  0  0  0  0
  -18.0400  -28.2000   22.9290 C   0  0  0  0  0  0  0  0  0  0  0  0
  -20.6040  -28.3950   23.1960 C   0  0  0  0  0  3  0  0  0  0  0  0
  -20.6730  -26.9710   22.5980 C   0  0  0  0  0  2  0  0  0  0  0  0
  -19.5590  -26.6870   21.5840 C   0  0  0  0  0  2  0  0  0  0  0  0
  -18.1830  -26.8560   22.2350 C   0  0  0  0  0  2  0  0  0  0  0  0
  -19.1770  -28.9290   23.3670 C   0  0  0  0  0  0  0  0  0  0  0  0
  -18.9900  -30.1910   23.9740 C   0  0  0  0  0  3  0  0  0  0  0  0
  -17.6980  -30.7200   24.1510 C   0  0  0  0  0  3  0  0  0  0  0  0
  -16.5750  -29.9850   23.7330 C   0  0  0  0  0  3  0  0  0  0  0  0
  -16.7470  -28.7280   23.1270 C   0  0  0  0  0  3  0  0  0  0  0  0
  -25.8460  -32.5850   23.9290 C   0  0  0  0  0  3  0  0  0  0  0  0
  -25.5240  -33.9870   24.2230 N   0  0  0  0  0  0  0  0  0  0  0  0
  -25.8820  -35.0260   23.4570 C   0  0  0  0  0  0  0  0  0  0  0  0
  -26.5900  -34.9070   22.4530 O   0  0  0  0  0  0  0  0  0  0  0  0
  -24.8990  -34.1540   24.9980 H   0  0  0  0  0  0  0  0  0  0  0  0
  -24.1620  -36.8050   23.0070 C   0  0  0  0  0  1  0  0  0  0  0  0
  -25.3740  -36.4200   23.8710 C   0  0  0  0  0  3  0  0  0  0  0  0
  -27.4760  -37.3230   24.7630 C   0  0  0  0  0  1  0  0  0  0  0  0
  -26.4060  -37.4760   23.7810 N   0  0  0  0  0  0  0  0  0  0  0  0
  -25.9910  -38.3950   23.9090 H   0  0  0  0  0  0  0  0  0  0  0  0
  -26.3280  -31.8360   25.2310 C   0  0  1  0  0  0  0  0  0  0  0  0
  -25.2050  -31.6070   26.2680 C   0  0  0  0  0  1  0  0  0  0  0  0
  -26.9340  -30.4580   24.8770 C   0  0  0  0  0  1  0  0  0  0  0  0
  -27.4520  -32.6490   25.9160 C   0  0  0  0  0  1  0  0  0  0  0  0
  -28.3250  -20.1950   19.8660 C   0  0  0  0  0  2  0  0  0  0  0  0
  -29.5930  -19.3810   20.1990 C   0  0  0  0  0  2  0  0  0  0  0  0
  -29.2900  -17.8800   20.4170 C   0  0  0  0  0  2  0  0  0  0  0  0
  -30.5260  -17.0260   20.7860 C   0  0  0  0  0  2  0  0  0  0  0  0
  -30.1770  -15.5580   21.1740 C   0  0  0  0  0  2  0  0  0  0  0  0
  -30.7310  -14.4520   20.2410 C   0  0  0  0  0  0  0  0  0  0  0  0
  -30.3720  -12.3400   19.0000 C   0  0  0  0  0  2  0  0  0  0  0  0
  -29.3820  -12.5860   17.8440 C   0  0  0  0  0  2  0  0  0  0  0  0
  -27.9220  -12.4580   18.3260 C   0  0  0  0  0  2  0  0  0  0  0  0
  -27.6500  -13.2630   19.6250 C   0  0  0  0  0  3  0  0  0  0  0  0
  -28.7430  -12.9640   20.6780 C   0  0  0  0  0  2  0  0  0  0  0  0
  -30.0440  -13.2890   20.0750 N   0  0  0  0  0  0  0  0  0  0  0  0
  -31.7880  -14.6720   19.6400 O   0  0  0  0  0  0  0  0  0  0  0  0
  -25.2720  -13.8870   20.3960 C   0  0  0  0  0  0  0  0  0  0  0  0
  -24.2110  -13.1200   20.7950 C   0  0  0  0  0  0  0  0  0  0  0  0
  -24.6630  -11.7660   20.7490 C   0  0  0  0  0  0  0  0  0  0  0  0
  -26.3080  -13.0000   20.1400 N   0  0  0  0  0  0  0  0  0  0  0  0
  -25.9430  -11.7190   20.4030 N   0  0  0  0  0  0  0  0  0  0  0  0
  -23.9350  -10.5080   20.9610 C   0  0  0  0  0  0  0  0  0  0  0  0
  -24.3880   -9.5400   21.8840 C   0  0  0  0  0  3  0  0  0  0  0  0
  -23.6610   -8.3460   22.0850 C   0  0  0  0  0  3  0  0  0  0  0  0
  -22.4660   -8.1130   21.3630 C   0  0  0  0  0  0  0  0  0  0  0  0
  -22.0330   -9.0710   20.4300 C   0  0  0  0  0  3  0  0  0  0  0  0
  -22.7600  -10.2560   20.2280 C   0  0  0  0  0  3  0  0  0  0  0  0
  -21.7080   -6.9720   21.4730 O   0  0  0  0  0  0  0  0  0  0  0  0
  -21.6870   -6.2320   22.6270 C   0  0  0  0  0  0  0  0  0  0  0  0
  -21.2960   -6.7890   23.8650 C   0  0  0  0  0  3  0  0  0  0  0  0
  -21.2230   -5.9740   25.0120 C   0  0  0  0  0  3  0  0  0  0  0  0
  -21.5300   -4.6040   24.9250 C   0  0  0  0  0  0  0  0  0  0  0  0
  -21.9150   -4.0470   23.6930 C   0  0  0  0  0  3  0  0  0  0  0  0
  -21.9900   -4.8570   22.5470 C   0  0  0  0  0  0  0  0  0  0  0  0
  -22.3400   -4.3110   21.3580 F   0  0  0  0  0  0  0  0  0  0  0  0
  -21.4520   -3.8200   26.0250 F   0  0  0  0  0  0  0  0  0  0  0  0
  -22.8260  -13.6050   21.1150 C   0  0  0  0  0  0  0  0  0  0  0  0
  -22.1250  -12.9110   22.0040 N   0  0  0  0  0  0  0  0  0  0  0  0
  -22.3780  -14.6340   20.6140 O   0  0  0  0  0  0  0  0  0  0  0  0
  -22.4980  -12.0730   22.4270 H   0  0  0  0  0  0  0  0  0  0  0  0
  -21.2020  -13.2240   22.2710 H   0  0  0  0  0  0  0  0  0  0  0  0
  -25.4360  -15.2570   20.2130 N   0  0  0  0  0  0  0  0  0  0  0  0
  -24.6750  -15.9150   20.3480 H   0  0  0  0  0  0  0  0  0  0  0  0
  -26.2830  -15.6980   19.8790 H   0  0  0  0  0  0  0  0  0  0  0  0
  1  2  1  0
  3  6  1  0
  4  3  2  0
  4  5  1  0
  5  1  2  0
  6 54  1  0
  6  2  2  0
  7  4  1  0
  8  7  1  0
  8  9  1  0
  9 10  1  0
 10 11  1  0
 11  5  1  0
 11 13  1  0
 12  7  2  0
 14 25  2  0
 15 13  1  0
 15 20  1  0
 16 24  1  0
 16 26  1  0
 17 23  1  0
 17 19  1  0
 18 24  1  0
 19 20  2  0
 19 18  1  0
 21 15  2  0
 22 21  1  0
 22 17  2  0
 23 16  1  0
 24 14  1  0
 26 28  2  0
 27 26  1  0
 29 27  1  0
 30 39  2  0
 30 35  1  0
 31 27  1  0
 31 35  1  0
 32 31  1  0
 33 34  1  0
 33 32  1  0
 34 30  1  0
 35 36  2  0
 36 37  1  0
 38 37  2  0
 39 38  1  0
 40 14  1  0
 40 41  1  0
 40 50  1  0
 41 44  1  0
 42 46  1  0
 42 41  1  0
 43 42  2  0
 46 45  1  0
 48 46  1  0
 48 49  1  0
 48 47  1  0
 50 53  1  1
 50 51  1  0
 52 50  1  0
 54 55  1  0
 55 56  1  0
 56 57  1  0
 57 58  1  0
 59 58  1  0
 60 65  1  0
 61 62  1  0
 61 60  1  0
 63 62  1  0
 63 70  1  0
 63 64  1  0
 65 59  1  0
 65 64  1  0
 66 59  2  0
 67 68  2  0
 68 87  1  0
 69 68  1  0
 69 72  1  0
 70 67  1  0
 70 71  1  0
 71 69  2  0
 72 73  1  0
 73 74  2  0
 75 78  1  0
 75 74  1  0
 76 75  2  0
 77 76  1  0
 77 72  2  0
 78 79  1  0
 79 80  1  0
 80 81  2  0
 82 81  1  0
 82 86  1  0
 83 82  2  0
 84 79  2  0
 84 83  1  0
 85 84  1  0
 87 88  1  0
 88 91  1  0
 88 90  1  0
 89 87  2  0
 92 93  1  0
 92 67  1  0
 94 92  1  0
M  ISO  4  11 101  13 101  58 100  59 100
M  END
>  <TORSDO>  (17) 
F 21

>  <SCORE>  (17) 
-13.659

>  <name>  (17) 
16

>  <ligand_id>  (17) 
16

>  <original_smiles>  (17) 
[H]c1c([H])c([H])c2c(c1[H])C([H])([H])C([H])([H])C([H])([H])C2([H])N([H])C(=O)C1([H])N(C(=O)C([H])(N([H])C(=O)C([H])(N([H])C([H])([H])[H])C([H])([H])[H])C(C([H])([H])[H])(C([H])([H])[H])C([H])([H])[H])C([H])([H])c2c([H])c(OC3([H])c4c([H])c([H])c(C([H])([H])C([H])([H])C([H])([H])C([H])([H])C([H])([H])C(=O)N5C([H])([H])C([H])([H])C([H])([H])C([H])(n6nc(-c7c([H])c([H])c(Oc8c([H])c([H])c(F)c([H])c8F)c([H])c7[H])c(C(=O)N([H])[H])c6N([H])[H])C5([H])[H])c([H])c4C(=O)C([H])([H])C([H])([H])C3([H])[H])c([H])c([H])c2C1([H])[H]

>  <smiles>  (17) 
[H]c1c([H])c([H])c2c(c1[H])C([H])([H])C([H])([H])C([H])([H])C2([H])N([H])C(=O)C1([H])N(C(=O)C([H])(N([H])C(=O)C([H])(N([H])C([H])([H])[H])C([H])([H])[H])C(C([H])([H])[H])(C([H])([H])[H])C([H])([H])[H])C([H])([H])c2c([H])c(OC3([H])c4c([H])c([H])c(C([H])([H])C([H])([H])C([H])([H])C([H])([H])C([H])([H])C(=O)N5C([H])([H])C([H])([H])C([H])([H])C([H])(n6nc(-c7c([H])c([H])c(Oc8c([H])c([H])c(F)c([H])c8F)c([H])c7[H])c(C(=O)N([H])[H])c6N([H])[H])C5([H])[H])c([H])c4C(=O)C([H])([H])C([H])([H])C3([H])[H])c([H])c([H])c2C1([H])[H]

$$$$
17:0:0
     RDKit          3D

 91100  0  0  1  0  0  0  0  0999 V2000
  -29.6070  -22.9970   19.4750 C   0  0  0  0  0  3  0  0  0  0  0  0
  -27.4060  -23.7650   19.9470 C   0  0  0  0  0  3  0  0  0  0  0  0
  -29.4130  -21.3850   19.7330 C   0  0  0  0  0  0  0  0  0  0  0  0
  -28.1110  -21.3020   20.2790 C   0  0  0  0  0  0  0  0  0  0  0  0
  -27.1400  -22.3760   20.2390 C   0  0  0  0  0  0  0  0  0  0  0  0
  -28.6550  -24.3320   19.5870 C   0  0  0  0  0  0  0  0  0  0  0  0
  -27.8210  -20.0030   21.0350 C   0  0  0  0  0  2  0  0  0  0  0  0
  -29.0050  -19.4840   21.9200 C   0  0  0  0  0  2  0  0  0  0  0  0
  -30.4350  -19.7290   21.3760 C   0  0  0  0  0  2  0  0  0  0  0  0
  -30.3840  -19.7260   19.8530 C   0  0  0  0  0  3  0  0  0  0  0  0
  -31.0460  -16.5180   19.6720 C   0  0  0  0  0  0  0  0  0  0  0  0
  -31.2280  -13.9270   18.9100 C   0  0  0  0  0  2  0  0  0  0  0  0
  -30.2950  -13.3800   17.7880 C   0  0  0  0  0  2  0  0  0  0  0  0
  -28.9320  -12.9540   18.3550 C   0  0  0  0  0  2  0  0  0  0  0  0
  -28.4290  -13.9650   19.4090 C   0  0  0  0  0  3  0  0  0  0  0  0
  -29.5100  -14.4190   20.4230 C   0  0  0  0  0  2  0  0  0  0  0  0
  -30.5720  -15.1150   19.6440 N   0  0  0  0  0  0  0  0  0  0  0  0
  -32.2830  -16.4570   19.5120 O   0  0  0  0  0  0  0  0  0  0  0  0
  -30.2560  -17.9040   19.6920 N   0  0  0  0  0  0  0  0  0  0  0  0
  -29.2770  -17.6690   19.6420 H   0  0  0  0  0  0  0  0  0  0  0  0
  -26.1760  -14.4060   20.4860 C   0  0  0  0  0  0  0  0  0  0  0  0
  -25.1500  -13.5940   20.8760 C   0  0  0  0  0  0  0  0  0  0  0  0
  -25.5950  -12.2540   20.6460 C   0  0  0  0  0  0  0  0  0  0  0  0
  -27.1760  -13.5670   20.0360 N   0  0  0  0  0  0  0  0  0  0  0  0
  -26.8490  -12.2560   20.1990 N   0  0  0  0  0  0  0  0  0  0  0  0
  -24.8690  -10.9800   20.7670 C   0  0  0  0  0  0  0  0  0  0  0  0
  -25.2730   -9.9810   21.6810 C   0  0  0  0  0  3  0  0  0  0  0  0
  -24.5440   -8.7790   21.7990 C   0  0  0  0  0  3  0  0  0  0  0  0
  -23.3950   -8.5650   21.0010 C   0  0  0  0  0  0  0  0  0  0  0  0
  -23.0080   -9.5510   20.0780 C   0  0  0  0  0  3  0  0  0  0  0  0
  -23.7390  -10.7460   19.9580 C   0  0  0  0  0  3  0  0  0  0  0  0
  -22.6390   -7.4150   21.0270 O   0  0  0  0  0  0  0  0  0  0  0  0
  -22.3940   -6.7430   22.1980 C   0  0  0  0  0  0  0  0  0  0  0  0
  -21.7820   -7.3740   23.3040 C   0  0  0  0  0  3  0  0  0  0  0  0
  -21.4830   -6.6290   24.4620 C   0  0  0  0  0  3  0  0  0  0  0  0
  -21.7850   -5.2550   24.5130 C   0  0  0  0  0  0  0  0  0  0  0  0
  -22.3880   -4.6250   23.4110 C   0  0  0  0  0  3  0  0  0  0  0  0
  -22.6890   -5.3670   22.2560 C   0  0  0  0  0  0  0  0  0  0  0  0
  -23.2520   -4.7490   21.1890 F   0  0  0  0  0  0  0  0  0  0  0  0
  -21.4910   -4.5380   25.6230 F   0  0  0  0  0  0  0  0  0  0  0  0
  -23.7940  -14.0410   21.3320 C   0  0  0  0  0  0  0  0  0  0  0  0
  -23.1590  -13.2800   22.2140 N   0  0  0  0  0  0  0  0  0  0  0  0
  -23.3100  -15.1040   20.9430 O   0  0  0  0  0  0  0  0  0  0  0  0
  -23.5670  -12.4190   22.5480 H   0  0  0  0  0  0  0  0  0  0  0  0
  -22.2540  -13.5610   22.5640 H   0  0  0  0  0  0  0  0  0  0  0  0
  -26.3300  -15.7880   20.4360 N   0  0  0  0  0  0  0  0  0  0  0  0
  -25.5620  -16.4150   20.6510 H   0  0  0  0  0  0  0  0  0  0  0  0
  -27.1110  -16.2520   19.9930 H   0  0  0  0  0  0  0  0  0  0  0  0
  -24.9110  -22.9730   21.3880 C   0  0  0  0  0  1  0  0  0  0  0  0
  -25.6670  -22.0300   20.4440 C   0  0  0  0  0  2  0  0  0  0  0  0
  -28.7150  -25.9880   19.4550 O   0  0  0  0  0  0  0  0  0  0  0  0
  -25.5020  -31.9450   23.5650 C   0  0  0  0  0  0  0  0  0  0  0  0
  -27.7780  -27.2490   19.7100 C   0  0  0  0  0  0  0  0  0  0  0  0
  -24.2240  -30.8440   21.7800 C   0  0  0  0  0  3  0  0  0  0  0  0
  -25.5740  -29.3870   20.0730 C   0  0  0  0  0  0  0  0  0  0  0  0
  -26.8040  -30.9140   21.5880 C   0  0  0  0  0  2  0  0  0  0  0  0
  -26.8040  -29.5880   20.7130 C   0  0  0  0  0  0  0  0  0  0  0  0
  -27.8810  -28.5540   20.5050 C   0  0  0  0  0  3  0  0  0  0  0  0
  -26.5180  -27.3040   19.0460 C   0  0  0  0  0  3  0  0  0  0  0  0
  -25.4770  -28.2740   19.2210 C   0  0  0  0  0  3  0  0  0  0  0  0
  -24.4030  -30.3570   20.3120 C   0  0  0  0  0  2  0  0  0  0  0  0
  -25.5390  -31.2610   22.3660 N   0  0  0  0  0  0  0  0  0  0  0  0
  -24.4330  -32.1860   24.1550 O   0  0  0  0  0  0  0  0  0  0  0  0
  -23.5080  -29.7480   22.6180 C   0  0  0  0  0  0  0  0  0  0  0  0
  -22.1880  -29.5630   22.4310 N   0  0  0  0  0  0  0  0  0  0  0  0
  -24.1600  -29.0670   23.4130 O   0  0  0  0  0  0  0  0  0  0  0  0
  -21.7050  -30.1660   21.7790 H   0  0  0  0  0  0  0  0  0  0  0  0
  -18.8440  -28.1400   22.6490 C   0  0  0  0  0  0  0  0  0  0  0  0
  -21.3740  -28.5150   23.0620 C   0  0  0  0  0  3  0  0  0  0  0  0
  -21.5800  -27.1520   22.3610 C   0  0  0  0  0  2  0  0  0  0  0  0
  -20.5420  -26.8700   21.2690 C   0  0  0  0  0  2  0  0  0  0  0  0
  -19.1290  -26.8760   21.8550 C   0  0  0  0  0  2  0  0  0  0  0  0
  -19.8990  -28.9150   23.2020 C   0  0  0  0  0  0  0  0  0  0  0  0
  -19.5820  -30.0930   23.9070 C   0  0  0  0  0  3  0  0  0  0  0  0
  -18.2450  -30.5010   24.0680 C   0  0  0  0  0  3  0  0  0  0  0  0
  -17.2040  -29.7250   23.5300 C   0  0  0  0  0  3  0  0  0  0  0  0
  -17.5050  -28.5450   22.8270 C   0  0  0  0  0  3  0  0  0  0  0  0
  -26.7990  -32.4630   24.2570 C   0  0  0  0  0  3  0  0  0  0  0  0
  -26.5060  -33.7700   24.8800 N   0  0  0  0  0  0  0  0  0  0  0  0
  -26.7660  -34.9640   24.3290 C   0  0  0  0  0  0  0  0  0  0  0  0
  -27.3360  -35.0840   23.2430 O   0  0  0  0  0  0  0  0  0  0  0  0
  -25.9830  -33.7480   25.7430 H   0  0  0  0  0  0  0  0  0  0  0  0
  -24.9930  -36.7440   24.5570 C   0  0  0  0  0  1  0  0  0  0  0  0
  -26.3330  -36.2270   25.1070 C   0  0  0  0  0  3  0  0  0  0  0  0
  -28.5430  -37.0230   25.8270 C   0  0  0  0  0  1  0  0  0  0  0  0
  -27.3320  -37.3190   25.0690 N   0  0  0  0  0  0  0  0  0  0  0  0
  -26.9360  -38.1840   25.4270 H   0  0  0  0  0  0  0  0  0  0  0  0
  -27.3540  -31.4670   25.3530 C   0  0  1  0  0  0  0  0  0  0  0  0
  -26.3020  -31.0480   26.4080 C   0  0  0  0  0  1  0  0  0  0  0  0
  -27.9030  -30.1750   24.7060 C   0  0  0  0  0  1  0  0  0  0  0  0
  -28.5430  -32.1200   26.0970 C   0  0  0  0  0  1  0  0  0  0  0  0
  1  6  2  0
  1  3  1  0
  2  5  2  0
  3 10  1  0
  3  4  2  0
  4  7  1  0
  5  4  1  0
  5 50  1  0
  6  2  1  0
  7  8  1  0
  9  8  1  0
 10 19  1  0
 10  9  1  0
 11 19  1  0
 12 17  1  0
 13 14  1  0
 13 12  1  0
 15 14  1  0
 15 24  1  0
 15 16  1  0
 17 11  1  0
 17 16  1  0
 18 11  2  0
 20 19  1  0
 21 22  2  0
 22 41  1  0
 23 26  1  0
 23 22  1  0
 24 25  1  0
 24 21  1  0
 25 23  2  0
 26 27  1  0
 27 28  2  0
 29 32  1  0
 29 28  1  0
 30 29  2  0
 31 30  1  0
 31 26  2  0
 32 33  1  0
 33 38  2  0
 33 34  1  0
 34 35  2  0
 35 36  1  0
 36 40  1  0
 37 36  2  0
 38 37  1  0
 39 38  1  0
 41 42  1  0
 42 44  1  0
 42 45  1  0
 43 41  2  0
 46 21  1  0
 46 47  1  0
 48 46  1  0
 50 49  1  0
 51  6  1  0
 51 53  1  0
 52 63  2  0
 53 58  1  0
 54 62  1  0
 54 64  1  0
 55 61  1  0
 55 57  1  0
 56 62  1  0
 57 56  1  0
 58 57  2  0
 59 60  1  0
 59 53  2  0
 60 55  2  0
 61 54  1  0
 62 52  1  0
 64 66  2  0
 65 64  1  0
 67 65  1  0
 68 77  2  0
 68 73  1  0
 69 65  1  0
 69 73  1  0
 70 69  1  0
 71 72  1  0
 71 70  1  0
 72 68  1  0
 73 74  2  0
 74 75  1  0
 76 75  2  0
 77 76  1  0
 78 52  1  0
 78 79  1  0
 78 88  1  0
 79 82  1  0
 80 79  1  0
 80 84  1  0
 81 80  2  0
 84 83  1  0
 86 84  1  0
 86 87  1  0
 86 85  1  0
 88 91  1  1
 88 89  1  0
 90 88  1  0
M  ISO  4   6 101  11 100  19 100  51 101
M  END
>  <TORSDO>  (18) 
F 17

>  <SCORE>  (18) 
-7.080

>  <name>  (18) 
17

>  <ligand_id>  (18) 
17

>  <original_smiles>  (18) 
[H]c1c([H])c([H])c2c(c1[H])C([H])([H])C([H])([H])C([H])([H])C2([H])N([H])C(=O)C1([H])N(C(=O)C([H])(N([H])C(=O)C([H])(N([H])C([H])([H])[H])C([H])([H])[H])C(C([H])([H])[H])(C([H])([H])[H])C([H])([H])[H])C([H])([H])c2c([H])c(Oc3c([H])c(C([H])([H])C([H])([H])[H])c4c(c3[H])C([H])(N([H])C(=O)N3C([H])([H])C([H])([H])C([H])([H])C([H])(n5nc(-c6c([H])c([H])c(Oc7c([H])c([H])c(F)c([H])c7F)c([H])c6[H])c(C(=O)N([H])[H])c5N([H])[H])C3([H])[H])C([H])([H])C([H])([H])C4([H])[H])c([H])c([H])c2C1([H])[H]

>  <smiles>  (18) 
[H]c1c([H])c([H])c2c(c1[H])C([H])([H])C([H])([H])C([H])([H])C2([H])N([H])C(=O)C1([H])N(C(=O)C([H])(N([H])C(=O)C([H])(N([H])C([H])([H])[H])C([H])([H])[H])C(C([H])([H])[H])(C([H])([H])[H])C([H])([H])[H])C([H])([H])c2c([H])c(Oc3c([H])c(C([H])([H])C([H])([H])[H])c4c(c3[H])C([H])(N([H])C(=O)N3C([H])([H])C([H])([H])C([H])([H])C([H])(n5nc(-c6c([H])c([H])c(Oc7c([H])c([H])c(F)c([H])c7F)c([H])c6[H])c(C(=O)N([H])[H])c5N([H])[H])C3([H])[H])C([H])([H])C([H])([H])C4([H])[H])c([H])c([H])c2C1([H])[H]

$$$$
18:0:0
     RDKit          3D

 92101  0  0  1  0  0  0  0  0999 V2000
  -30.4450  -19.8060   18.2770 C   0  0  0  0  0  3  0  0  0  0  0  0
  -30.3990  -18.5220   18.8810 C   0  0  0  0  0  3  0  0  0  0  0  0
  -29.0930  -19.5950   20.5980 C   0  0  0  0  0  3  0  0  0  0  0  0
  -29.8220  -20.9980   18.7670 C   0  0  0  0  0  0  0  0  0  0  0  0
  -29.1160  -21.0490   20.0090 C   0  0  0  0  0  0  0  0  0  0  0  0
  -29.7010  -18.2510   20.0730 C   0  0  0  0  0  0  0  0  0  0  0  0
  -30.0280  -22.2070   17.9290 C   0  0  0  0  0  0  0  0  0  0  0  0
  -28.6280  -22.6340   20.5980 C   0  0  0  0  0  0  0  0  0  0  0  0
  -28.7930  -23.0340   17.5850 C   0  0  0  0  0  2  0  0  0  0  0  0
  -28.7160  -24.3250   18.4130 C   0  0  0  0  0  2  0  0  0  0  0  0
  -28.1350  -24.1780   19.8300 C   0  0  0  0  0  3  0  0  0  0  0  0
  -31.1240  -22.5330   17.4640 O   0  0  0  0  0  0  0  0  0  0  0  0
  -28.5670  -22.7010   21.8280 O   0  0  0  0  0  0  0  0  0  0  0  0
  -30.3970  -15.3800   20.2660 C   0  0  0  0  0  0  0  0  0  0  0  0
  -30.4160  -12.9010   19.4370 C   0  0  0  0  0  2  0  0  0  0  0  0
  -29.5090  -12.6600   18.2030 C   0  0  0  0  0  2  0  0  0  0  0  0
  -28.0650  -12.3650   18.6390 C   0  0  0  0  0  2  0  0  0  0  0  0
  -27.5960  -13.3310   19.7530 C   0  0  0  0  0  3  0  0  0  0  0  0
  -28.6340  -13.5170   20.8820 C   0  0  0  0  0  2  0  0  0  0  0  0
  -29.8590  -14.0500   20.2590 N   0  0  0  0  0  0  0  0  0  0  0  0
  -31.6010  -15.3760   19.9670 O   0  0  0  0  0  0  0  0  0  0  0  0
  -29.6450  -16.6630   20.4970 N   0  0  0  0  0  0  0  0  0  0  0  0
  -28.7790  -16.4460   20.9700 H   0  0  0  0  0  0  0  0  0  0  0  0
  -25.2220  -13.8660   20.5040 C   0  0  0  0  0  0  0  0  0  0  0  0
  -24.1660  -13.0810   20.8710 C   0  0  0  0  0  0  0  0  0  0  0  0
  -24.6420  -11.7330   20.8380 C   0  0  0  0  0  0  0  0  0  0  0  0
  -26.2710  -12.9990   20.2600 N   0  0  0  0  0  0  0  0  0  0  0  0
  -25.9350  -11.7100   20.5280 N   0  0  0  0  0  0  0  0  0  0  0  0
  -23.9220  -10.4670   21.0240 C   0  0  0  0  0  0  0  0  0  0  0  0
  -24.3470   -9.5040   21.9660 C   0  0  0  0  0  3  0  0  0  0  0  0
  -23.6240   -8.3050   22.1420 C   0  0  0  0  0  3  0  0  0  0  0  0
  -22.4600   -8.0590   21.3760 C   0  0  0  0  0  0  0  0  0  0  0  0
  -22.0530   -9.0090   20.4230 C   0  0  0  0  0  3  0  0  0  0  0  0
  -22.7780  -10.2000   20.2450 C   0  0  0  0  0  3  0  0  0  0  0  0
  -21.7090   -6.9110   21.4600 O   0  0  0  0  0  0  0  0  0  0  0  0
  -21.6410   -6.1790   22.6180 C   0  0  0  0  0  0  0  0  0  0  0  0
  -21.1660   -6.7370   23.8250 C   0  0  0  0  0  3  0  0  0  0  0  0
  -21.0460   -5.9310   24.9750 C   0  0  0  0  0  3  0  0  0  0  0  0
  -21.3910   -4.5670   24.9180 C   0  0  0  0  0  0  0  0  0  0  0  0
  -21.8590   -4.0080   23.7150 C   0  0  0  0  0  3  0  0  0  0  0  0
  -21.9790   -4.8120   22.5680 C   0  0  0  0  0  0  0  0  0  0  0  0
  -22.4100   -4.2630   21.4070 F   0  0  0  0  0  0  0  0  0  0  0  0
  -21.2690   -3.7900   26.0200 F   0  0  0  0  0  0  0  0  0  0  0  0
  -22.7650  -13.5490   21.1350 C   0  0  0  0  0  0  0  0  0  0  0  0
  -22.0340  -12.8440   21.9910 N   0  0  0  0  0  0  0  0  0  0  0  0
  -22.3280  -14.5770   20.6180 O   0  0  0  0  0  0  0  0  0  0  0  0
  -22.4020  -12.0130   22.4300 H   0  0  0  0  0  0  0  0  0  0  0  0
  -21.0940  -13.1400   22.2110 H   0  0  0  0  0  0  0  0  0  0  0  0
  -25.3740  -15.2380   20.3290 N   0  0  0  0  0  0  0  0  0  0  0  0
  -24.5980  -15.8830   20.4330 H   0  0  0  0  0  0  0  0  0  0  0  0
  -26.2090  -15.6820   19.9700 H   0  0  0  0  0  0  0  0  0  0  0  0
  -28.1890  -25.7600   20.3860 O   0  0  0  0  0  0  0  0  0  0  0  0
  -24.6780  -31.8400   23.2570 C   0  0  0  0  0  0  0  0  0  0  0  0
  -27.2120  -26.9030   20.2500 C   0  0  0  0  0  0  0  0  0  0  0  0
  -23.4850  -30.4520   21.6130 C   0  0  0  0  0  3  0  0  0  0  0  0
  -24.9320  -28.8330   20.1900 C   0  0  0  0  0  0  0  0  0  0  0  0
  -26.0550  -30.6300   21.4860 C   0  0  0  0  0  2  0  0  0  0  0  0
  -26.1170  -29.2170   20.8260 C   0  0  0  0  0  0  0  0  0  0  0  0
  -27.2460  -28.2700   20.8370 C   0  0  0  0  0  3  0  0  0  0  0  0
  -26.0020  -26.6910   19.5490 C   0  0  0  0  0  3  0  0  0  0  0  0
  -24.9030  -27.5930   19.5290 C   0  0  0  0  0  3  0  0  0  0  0  0
  -23.7190  -29.7660   20.2360 C   0  0  0  0  0  2  0  0  0  0  0  0
  -24.7610  -31.0030   22.1720 N   0  0  0  0  0  0  0  0  0  0  0  0
  -23.5880  -32.1390   23.7720 O   0  0  0  0  0  0  0  0  0  0  0  0
  -22.7750  -29.4640   22.5760 C   0  0  0  0  0  0  0  0  0  0  0  0
  -21.4440  -29.3110   22.4470 N   0  0  0  0  0  0  0  0  0  0  0  0
  -23.4310  -28.8350   23.4100 O   0  0  0  0  0  0  0  0  0  0  0  0
  -20.9670  -29.8690   21.7520 H   0  0  0  0  0  0  0  0  0  0  0  0
  -18.0510  -28.1230   22.9450 C   0  0  0  0  0  0  0  0  0  0  0  0
  -20.6110  -28.3790   23.2150 C   0  0  0  0  0  3  0  0  0  0  0  0
  -20.7080  -26.9460   22.6410 C   0  0  0  0  0  2  0  0  0  0  0  0
  -19.6070  -26.6280   21.6240 C   0  0  0  0  0  2  0  0  0  0  0  0
  -18.2250  -26.7760   22.2640 C   0  0  0  0  0  2  0  0  0  0  0  0
  -19.1710  -28.8830   23.3770 C   0  0  0  0  0  0  0  0  0  0  0  0
  -18.9520  -30.1410   23.9780 C   0  0  0  0  0  3  0  0  0  0  0  0
  -17.6470  -30.6410   24.1480 C   0  0  0  0  0  3  0  0  0  0  0  0
  -16.5420  -29.8800   23.7300 C   0  0  0  0  0  3  0  0  0  0  0  0
  -16.7450  -28.6230   23.1340 C   0  0  0  0  0  3  0  0  0  0  0  0
  -25.9490  -32.4770   23.8980 C   0  0  0  0  0  3  0  0  0  0  0  0
  -25.6450  -33.8850   24.2120 N   0  0  0  0  0  0  0  0  0  0  0  0
  -26.0030  -34.9350   23.4610 C   0  0  0  0  0  0  0  0  0  0  0  0
  -26.6850  -34.8210   22.4400 O   0  0  0  0  0  0  0  0  0  0  0  0
  -25.0390  -34.0480   25.0020 H   0  0  0  0  0  0  0  0  0  0  0  0
  -24.3100  -36.7630   23.0850 C   0  0  0  0  0  1  0  0  0  0  0  0
  -25.5330  -36.3350   23.9110 C   0  0  0  0  0  3  0  0  0  0  0  0
  -27.6680  -37.1940   24.7750 C   0  0  0  0  0  1  0  0  0  0  0  0
  -26.5840  -37.3720   23.8100 N   0  0  0  0  0  0  0  0  0  0  0  0
  -26.1900  -38.2990   23.9430 H   0  0  0  0  0  0  0  0  0  0  0  0
  -26.4270  -31.7250   25.2030 C   0  0  1  0  0  0  0  0  0  0  0  0
  -25.3090  -31.5280   26.2540 C   0  0  0  0  0  1  0  0  0  0  0  0
  -26.9980  -30.3300   24.8610 C   0  0  0  0  0  1  0  0  0  0  0  0
  -27.5770  -32.5160   25.8710 C   0  0  0  0  0  1  0  0  0  0  0  0
  1  4  2  0
  1  2  1  0
  2  6  2  0
  4  5  1  0
  5  8  1  0
  5  3  2  0
  6 22  1  0
  6  3  1  0
  7  4  1  0
  8 13  2  0
  9  7  1  0
  9 10  1  0
 10 11  1  0
 11 52  1  0
 11  8  1  0
 12  7  2  0
 14 22  1  0
 15 20  1  0
 16 17  1  0
 16 15  1  0
 18 17  1  0
 18 27  1  0
 18 19  1  0
 20 14  1  0
 20 19  1  0
 21 14  2  0
 22 23  1  0
 24 25  2  0
 25 44  1  0
 26 25  1  0
 26 29  1  0
 27 24  1  0
 27 28  1  0
 28 26  2  0
 29 30  1  0
 30 31  2  0
 32 35  1  0
 32 31  1  0
 33 32  2  0
 34 33  1  0
 34 29  2  0
 35 36  1  0
 36 37  1  0
 37 38  2  0
 39 38  1  0
 39 43  1  0
 40 39  2  0
 41 36  2  0
 41 40  1  0
 42 41  1  0
 44 45  1  0
 45 48  1  0
 45 47  1  0
 46 44  2  0
 49 50  1  0
 49 24  1  0
 51 49  1  0
 53 64  2  0
 54 52  1  0
 54 59  1  0
 55 63  1  0
 55 65  1  0
 56 62  1  0
 56 58  1  0
 57 63  1  0
 58 59  2  0
 58 57  1  0
 60 54  2  0
 61 60  1  0
 61 56  2  0
 62 55  1  0
 63 53  1  0
 65 67  2  0
 66 65  1  0
 68 66  1  0
 69 78  2  0
 69 74  1  0
 70 66  1  0
 70 74  1  0
 71 70  1  0
 72 73  1  0
 72 71  1  0
 73 69  1  0
 74 75  2  0
 75 76  1  0
 77 76  2  0
 78 77  1  0
 79 53  1  0
 79 80  1  0
 79 89  1  0
 80 83  1  0
 81 85  1  0
 81 80  1  0
 82 81  2  0
 85 84  1  0
 87 85  1  0
 87 88  1  0
 87 86  1  0
 89 92  1  1
 89 90  1  0
 91 89  1  0
M  ISO  4  11 101  14 100  22 100  52 101
M  END
>  <TORSDO>  (19) 
F 16

>  <SCORE>  (19) 
-16.229

>  <name>  (19) 
18

>  <ligand_id>  (19) 
18

>  <original_smiles>  (19) 
[H]c1c([H])c([H])c2c(c1[H])C([H])([H])C([H])([H])C([H])([H])C2([H])N([H])C(=O)C1([H])N(C(=O)C([H])(N([H])C(=O)C([H])(N([H])C([H])([H])[H])C([H])([H])[H])C(C([H])([H])[H])(C([H])([H])[H])C([H])([H])[H])C([H])([H])c2c([H])c(OC3([H])C(=O)c4c([H])c(N([H])C(=O)N5C([H])([H])C([H])([H])C([H])([H])C([H])(n6nc(-c7c([H])c([H])c(Oc8c([H])c([H])c(F)c([H])c8F)c([H])c7[H])c(C(=O)N([H])[H])c6N([H])[H])C5([H])[H])c([H])c([H])c4C(=O)C([H])([H])C3([H])[H])c([H])c([H])c2C1([H])[H]

>  <smiles>  (19) 
[H]c1c([H])c([H])c2c(c1[H])C([H])([H])C([H])([H])C([H])([H])C2([H])N([H])C(=O)C1([H])N(C(=O)C([H])(N([H])C(=O)C([H])(N([H])C([H])([H])[H])C([H])([H])[H])C(C([H])([H])[H])(C([H])([H])[H])C([H])([H])[H])C([H])([H])c2c([H])c(OC3([H])C(=O)c4c([H])c(N([H])C(=O)N5C([H])([H])C([H])([H])C([H])([H])C([H])(n6nc(-c7c([H])c([H])c(Oc8c([H])c([H])c(F)c([H])c8F)c([H])c7[H])c(C(=O)N([H])[H])c6N([H])[H])C5([H])[H])c([H])c([H])c4C(=O)C([H])([H])C3([H])[H])c([H])c([H])c2C1([H])[H]

$$$$
19:0:0
     RDKit          3D

 90 98  0  0  1  0  0  0  0  0999 V2000
  -32.1910  -22.5660   19.9150 C   0  0  0  0  0  3  0  0  0  0  0  0
  -31.1290  -21.6620   20.0340 C   0  0  0  0  0  3  0  0  0  0  0  0
  -30.6060  -24.3880   19.9080 C   0  0  0  0  0  3  0  0  0  0  0  0
  -31.9300  -23.9310   19.8310 C   0  0  0  0  0  0  0  0  0  0  0  0
  -29.7610  -22.0370   20.0720 C   0  0  0  0  0  0  0  0  0  0  0  0
  -29.4660  -23.5500   20.0410 C   0  0  0  0  0  0  0  0  0  0  0  0
  -33.0750  -24.9100   19.6460 C   0  0  0  0  0  1  0  0  0  0  0  0
  -28.9080  -20.6310   20.0420 C   0  0  0  0  0  2  0  0  0  0  0  0
  -29.4220  -19.0830   20.6060 C   0  0  0  0  0  2  0  0  0  0  0  0
  -29.9350  -17.6560   19.8120 C   0  0  0  0  0  2  0  0  0  0  0  0
  -30.5780  -14.9610   19.9810 C   0  0  0  0  0  0  0  0  0  0  0  0
  -30.3220  -12.6360   18.9610 C   0  0  0  0  0  2  0  0  0  0  0  0
  -29.3120  -12.6500   17.7900 C   0  0  0  0  0  2  0  0  0  0  0  0
  -27.8740  -12.4500   18.3050 C   0  0  0  0  0  2  0  0  0  0  0  0
  -27.5660  -13.3310   19.5420 C   0  0  0  0  0  3  0  0  0  0  0  0
  -28.6940  -13.2780   20.5930 C   0  0  0  0  0  2  0  0  0  0  0  0
  -29.9370  -13.7120   19.9310 N   0  0  0  0  0  0  0  0  0  0  0  0
  -31.6960  -15.0170   19.4550 O   0  0  0  0  0  0  0  0  0  0  0  0
  -29.6840  -16.2370   21.8640 C   0  0  0  0  0  1  0  0  0  0  0  0
  -29.9330  -16.1720   20.4220 N   0  0  0  0  0  0  0  0  0  0  0  0
  -25.2380  -13.9140   20.4330 C   0  0  0  0  0  0  0  0  0  0  0  0
  -24.1900  -13.1400   20.8500 C   0  0  0  0  0  0  0  0  0  0  0  0
  -24.6360  -11.7860   20.7600 C   0  0  0  0  0  0  0  0  0  0  0  0
  -26.2560  -13.0320   20.1130 N   0  0  0  0  0  0  0  0  0  0  0  0
  -25.9060  -11.7440   20.3720 N   0  0  0  0  0  0  0  0  0  0  0  0
  -23.9070  -10.5280   20.9690 C   0  0  0  0  0  0  0  0  0  0  0  0
  -24.3640   -9.5470   21.8780 C   0  0  0  0  0  3  0  0  0  0  0  0
  -23.6340   -8.3550   22.0730 C   0  0  0  0  0  3  0  0  0  0  0  0
  -22.4330   -8.1330   21.3580 C   0  0  0  0  0  0  0  0  0  0  0  0
  -21.9950   -9.0990   20.4370 C   0  0  0  0  0  3  0  0  0  0  0  0
  -22.7230  -10.2850   20.2410 C   0  0  0  0  0  3  0  0  0  0  0  0
  -21.6700   -6.9950   21.4640 O   0  0  0  0  0  0  0  0  0  0  0  0
  -21.6350   -6.2570   22.6190 C   0  0  0  0  0  0  0  0  0  0  0  0
  -21.2460   -6.8240   23.8540 C   0  0  0  0  0  3  0  0  0  0  0  0
  -21.1600   -6.0140   25.0030 C   0  0  0  0  0  3  0  0  0  0  0  0
  -21.4490   -4.6380   24.9220 C   0  0  0  0  0  0  0  0  0  0  0  0
  -21.8300   -4.0710   23.6930 C   0  0  0  0  0  3  0  0  0  0  0  0
  -21.9210   -4.8790   22.5450 C   0  0  0  0  0  0  0  0  0  0  0  0
  -22.2690   -4.3220   21.3600 F   0  0  0  0  0  0  0  0  0  0  0  0
  -21.3570   -3.8590   26.0250 F   0  0  0  0  0  0  0  0  0  0  0  0
  -22.8170  -13.6230   21.2170 C   0  0  0  0  0  0  0  0  0  0  0  0
  -22.1420  -12.9230   22.1210 N   0  0  0  0  0  0  0  0  0  0  0  0
  -22.3570  -14.6600   20.7380 O   0  0  0  0  0  0  0  0  0  0  0  0
  -22.5310  -12.0850   22.5250 H   0  0  0  0  0  0  0  0  0  0  0  0
  -21.2250  -13.2310   22.4110 H   0  0  0  0  0  0  0  0  0  0  0  0
  -25.4080  -15.2860   20.2750 N   0  0  0  0  0  0  0  0  0  0  0  0
  -24.6600  -15.9500   20.4460 H   0  0  0  0  0  0  0  0  0  0  0  0
  -26.2460  -15.7170   19.9060 H   0  0  0  0  0  0  0  0  0  0  0  0
  -28.1480  -24.5550   20.0710 C   0  0  0  0  0  2  0  0  0  0  0  0
  -28.3030  -26.1290   20.1600 O   0  0  0  0  0  0  0  0  0  0  0  0
  -24.6330  -31.8330   23.1590 C   0  0  0  0  0  0  0  0  0  0  0  0
  -27.2230  -27.0990   20.1240 C   0  0  0  0  0  0  0  0  0  0  0  0
  -23.4360  -30.4320   21.5220 C   0  0  0  0  0  3  0  0  0  0  0  0
  -24.8880  -28.8520   20.0990 C   0  0  0  0  0  0  0  0  0  0  0  0
  -25.9900  -30.6970   21.3550 C   0  0  0  0  0  2  0  0  0  0  0  0
  -26.0680  -29.3010   20.7020 C   0  0  0  0  0  0  0  0  0  0  0  0
  -27.2350  -28.4420   20.6930 C   0  0  0  0  0  3  0  0  0  0  0  0
  -26.0100  -26.7510   19.4920 C   0  0  0  0  0  3  0  0  0  0  0  0
  -24.8720  -27.5930   19.4780 C   0  0  0  0  0  3  0  0  0  0  0  0
  -23.6580  -29.7490   20.1440 C   0  0  0  0  0  2  0  0  0  0  0  0
  -24.7070  -31.0110   22.0660 N   0  0  0  0  0  0  0  0  0  0  0  0
  -23.5470  -32.1150   23.6880 O   0  0  0  0  0  0  0  0  0  0  0  0
  -22.7570  -29.4270   22.4860 C   0  0  0  0  0  0  0  0  0  0  0  0
  -21.4240  -29.2720   22.3770 N   0  0  0  0  0  0  0  0  0  0  0  0
  -23.4310  -28.7890   23.2980 O   0  0  0  0  0  0  0  0  0  0  0  0
  -20.9360  -29.8370   21.6970 H   0  0  0  0  0  0  0  0  0  0  0  0
  -18.0380  -28.1080   22.9240 C   0  0  0  0  0  0  0  0  0  0  0  0
  -20.6040  -28.3370   23.1510 C   0  0  0  0  0  3  0  0  0  0  0  0
  -20.6770  -26.9100   22.5610 C   0  0  0  0  0  2  0  0  0  0  0  0
  -19.5570  -26.6120   21.5610 C   0  0  0  0  0  2  0  0  0  0  0  0
  -18.1870  -26.7650   22.2290 C   0  0  0  0  0  2  0  0  0  0  0  0
  -19.1730  -28.8540   23.3430 C   0  0  0  0  0  0  0  0  0  0  0  0
  -18.9770  -30.1110   23.9540 C   0  0  0  0  0  3  0  0  0  0  0  0
  -17.6800  -30.6230   24.1490 C   0  0  0  0  0  3  0  0  0  0  0  0
  -16.5610  -29.8750   23.7450 C   0  0  0  0  0  3  0  0  0  0  0  0
  -16.7410  -28.6190   23.1390 C   0  0  0  0  0  3  0  0  0  0  0  0
  -25.9100  -32.4720   23.7860 C   0  0  0  0  0  3  0  0  0  0  0  0
  -26.4340  -31.6940   25.0560 C   0  0  1  0  0  0  0  0  0  0  0  0
  -25.3460  -31.4440   26.1260 C   0  0  0  0  0  1  0  0  0  0  0  0
  -27.0210  -30.3210   24.6580 C   0  0  0  0  0  1  0  0  0  0  0  0
  -27.5850  -32.4870   25.7180 C   0  0  0  0  0  1  0  0  0  0  0  0
  -25.5880  -33.8650   24.1380 N   0  0  0  0  0  0  0  0  0  0  0  0
  -25.9100  -34.9350   23.3960 C   0  0  0  0  0  0  0  0  0  0  0  0
  -26.5730  -34.8520   22.3590 O   0  0  0  0  0  0  0  0  0  0  0  0
  -24.9980  -34.0020   24.9450 H   0  0  0  0  0  0  0  0  0  0  0  0
  -24.1680  -36.7260   23.0900 C   0  0  0  0  0  1  0  0  0  0  0  0
  -25.4190  -36.3130   23.8810 C   0  0  0  0  0  3  0  0  0  0  0  0
  -27.5570  -37.1990   24.7050 C   0  0  0  0  0  1  0  0  0  0  0  0
  -26.4440  -37.3760   23.7750 N   0  0  0  0  0  0  0  0  0  0  0  0
  -26.0330  -38.2900   23.9460 H   0  0  0  0  0  0  0  0  0  0  0  0
  1  2  1  0
  2  5  2  0
  3  6  2  0
  4  3  1  0
  4  1  2  0
  6 49  1  0
  6  5  1  0
  7  4  1  0
  8  5  1  0
  8  9  1  0
 10 20  1  0
 10  9  1  0
 11 20  1  0
 12 17  1  0
 13 14  1  0
 13 12  1  0
 15 14  1  0
 15 24  1  0
 15 16  1  0
 17 11  1  0
 17 16  1  0
 18 11  2  0
 20 19  1  0
 21 22  2  0
 22 41  1  0
 23 22  1  0
 23 26  1  0
 24 25  1  0
 24 21  1  0
 25 23  2  0
 26 27  1  0
 27 28  2  0
 29 32  1  0
 29 28  1  0
 30 29  2  0
 31 30  1  0
 31 26  2  0
 32 33  1  0
 33 34  1  0
 34 35  2  0
 36 35  1  0
 36 40  1  0
 37 36  2  0
 38 33  2  0
 38 37  1  0
 39 38  1  0
 41 42  1  0
 42 45  1  0
 42 44  1  0
 43 41  2  0
 46 21  1  0
 46 47  1  0
 48 46  1  0
 49 50  1  0
 51 62  2  0
 52 50  1  0
 52 57  1  0
 53 61  1  0
 53 63  1  0
 54 60  1  0
 54 56  1  0
 55 61  1  0
 56 55  1  0
 57 56  2  0
 58 52  2  0
 59 58  1  0
 59 54  2  0
 60 53  1  0
 61 51  1  0
 63 65  2  0
 64 63  1  0
 66 64  1  0
 67 76  2  0
 67 72  1  0
 68 64  1  0
 68 72  1  0
 69 68  1  0
 70 71  1  0
 70 69  1  0
 71 67  1  0
 72 73  2  0
 73 74  1  0
 75 74  2  0
 76 75  1  0
 77 51  1  0
 77 82  1  0
 77 78  1  0
 78 81  1  1
 78 79  1  0
 80 78  1  0
 82 85  1  0
 83 87  1  0
 83 82  1  0
 84 83  2  0
 87 86  1  0
 89 87  1  0
 89 90  1  0
 89 88  1  0
M  ISO  4  11 100  20 100  49 101  50 101
M  END
>  <TORSDO>  (20) 
F 20

>  <SCORE>  (20) 
-14.615

>  <name>  (20) 
19

>  <ligand_id>  (20) 
19

>  <original_smiles>  (20) 
[H]c1c([H])c([H])c2c(c1[H])C([H])([H])C([H])([H])C([H])([H])C2([H])N([H])C(=O)C1([H])N(C(=O)C([H])(N([H])C(=O)C([H])(N([H])C([H])([H])[H])C([H])([H])[H])C(C([H])([H])[H])(C([H])([H])[H])C([H])([H])[H])C([H])([H])c2c([H])c(OC([H])([H])c3c([H])c(C([H])([H])[H])c([H])c([H])c3C([H])([H])C([H])([H])C([H])([H])N(C(=O)N3C([H])([H])C([H])([H])C([H])([H])C([H])(n4nc(-c5c([H])c([H])c(Oc6c([H])c([H])c(F)c([H])c6F)c([H])c5[H])c(C(=O)N([H])[H])c4N([H])[H])C3([H])[H])C([H])([H])[H])c([H])c([H])c2C1([H])[H]

>  <smiles>  (20) 
[H]c1c([H])c([H])c2c(c1[H])C([H])([H])C([H])([H])C([H])([H])C2([H])N([H])C(=O)C1([H])N(C(=O)C([H])(N([H])C(=O)C([H])(N([H])C([H])([H])[H])C([H])([H])[H])C(C([H])([H])[H])(C([H])([H])[H])C([H])([H])[H])C([H])([H])c2c([H])c(OC([H])([H])c3c([H])c(C([H])([H])[H])c([H])c([H])c3C([H])([H])C([H])([H])C([H])([H])N(C(=O)N3C([H])([H])C([H])([H])C([H])([H])C([H])(n4nc(-c5c([H])c([H])c(Oc6c([H])c([H])c(F)c([H])c6F)c([H])c5[H])c(C(=O)N([H])[H])c4N([H])[H])C3([H])[H])C([H])([H])[H])c([H])c([H])c2C1([H])[H]

$$$$
20:0:0
     RDKit          3D

 94103  0  0  1  0  0  0  0  0999 V2000
  -27.8900  -23.2720   22.7830 C   0  0  0  0  0  3  0  0  0  0  0  0
  -29.2280  -24.9610   21.5980 C   0  0  0  0  0  3  0  0  0  0  0  0
  -26.7570  -23.7890   22.1560 C   0  0  0  0  0  0  0  0  0  0  0  0
  -26.8750  -24.7780   21.1730 C   0  0  0  0  0  0  0  0  0  0  0  0
  -29.1440  -23.7790   22.3980 C   0  0  0  0  0  0  0  0  0  0  0  0
  -28.0860  -25.5320   20.9750 C   0  0  0  0  0  0  0  0  0  0  0  0
  -25.4200  -23.0880   22.1300 C   0  0  0  0  0  2  0  0  0  0  0  0
  -25.6800  -24.5820   20.2570 C   0  0  0  0  0  2  0  0  0  0  0  0
  -25.1330  -23.1880   20.6370 C   0  0  0  0  0  2  0  0  0  0  0  0
  -28.2800  -26.6740   20.1570 O   0  0  0  0  0  0  0  0  0  0  0  0
  -24.5580  -31.9840   23.1530 C   0  0  0  0  0  0  0  0  0  0  0  0
  -27.2520  -27.5900   20.0420 C   0  0  0  0  0  0  0  0  0  0  0  0
  -23.3960  -30.6030   21.4650 C   0  0  0  0  0  3  0  0  0  0  0  0
  -24.8970  -29.1460   20.0030 C   0  0  0  0  0  0  0  0  0  0  0  0
  -25.9270  -30.9780   21.3350 C   0  0  0  0  0  2  0  0  0  0  0  0
  -26.0360  -29.6240   20.6700 C   0  0  0  0  0  0  0  0  0  0  0  0
  -27.2210  -28.8400   20.7150 C   0  0  0  0  0  3  0  0  0  0  0  0
  -26.1620  -27.2490   19.2260 C   0  0  0  0  0  3  0  0  0  0  0  0
  -24.9590  -27.9640   19.2580 C   0  0  0  0  0  3  0  0  0  0  0  0
  -23.6420  -29.9800   20.0650 C   0  0  0  0  0  2  0  0  0  0  0  0
  -24.6420  -31.1980   22.0470 N   0  0  0  0  0  0  0  0  0  0  0  0
  -23.4620  -32.2240   23.6780 O   0  0  0  0  0  0  0  0  0  0  0  0
  -22.7470  -29.5390   22.3870 C   0  0  0  0  0  0  0  0  0  0  0  0
  -21.4270  -29.3430   22.2650 N   0  0  0  0  0  0  0  0  0  0  0  0
  -23.4440  -28.8960   23.1820 O   0  0  0  0  0  0  0  0  0  0  0  0
  -20.9160  -29.9110   21.6030 H   0  0  0  0  0  0  0  0  0  0  0  0
  -18.0670  -28.1020   22.7290 C   0  0  0  0  0  0  0  0  0  0  0  0
  -20.6280  -28.3600   23.0020 C   0  0  0  0  0  3  0  0  0  0  0  0
  -20.7280  -26.9630   22.3470 C   0  0  0  0  0  2  0  0  0  0  0  0
  -19.6200  -26.6940   21.3220 C   0  0  0  0  0  2  0  0  0  0  0  0
  -18.2430  -26.7930   21.9850 C   0  0  0  0  0  2  0  0  0  0  0  0
  -19.1900  -28.8490   23.1860 C   0  0  0  0  0  0  0  0  0  0  0  0
  -18.9630  -30.0900   23.8250 C   0  0  0  0  0  3  0  0  0  0  0  0
  -17.6600  -30.5850   23.9980 C   0  0  0  0  0  3  0  0  0  0  0  0
  -16.5540  -29.8370   23.5550 C   0  0  0  0  0  3  0  0  0  0  0  0
  -16.7600  -28.5940   22.9310 C   0  0  0  0  0  3  0  0  0  0  0  0
  -25.8260  -32.6340   23.7960 C   0  0  0  0  0  3  0  0  0  0  0  0
  -25.4960  -34.0320   24.1140 N   0  0  0  0  0  0  0  0  0  0  0  0
  -25.8320  -35.0810   23.3540 C   0  0  0  0  0  0  0  0  0  0  0  0
  -26.5160  -34.9710   22.3320 O   0  0  0  0  0  0  0  0  0  0  0  0
  -24.8850  -34.1940   24.9020 H   0  0  0  0  0  0  0  0  0  0  0  0
  -24.0850  -36.8470   22.9750 C   0  0  0  0  0  1  0  0  0  0  0  0
  -25.3300  -36.4670   23.7950 C   0  0  0  0  0  3  0  0  0  0  0  0
  -27.4550  -37.3790   24.6190 C   0  0  0  0  0  1  0  0  0  0  0  0
  -26.3540  -37.5290   23.6720 N   0  0  0  0  0  0  0  0  0  0  0  0
  -25.9380  -38.4470   23.8130 H   0  0  0  0  0  0  0  0  0  0  0  0
  -26.3300  -31.8710   25.0830 C   0  0  1  0  0  0  0  0  0  0  0  0
  -25.2160  -31.6260   26.1250 C   0  0  0  0  0  1  0  0  0  0  0  0
  -26.9310  -30.4980   24.7130 C   0  0  0  0  0  1  0  0  0  0  0  0
  -27.4640  -32.6780   25.7580 C   0  0  0  0  0  1  0  0  0  0  0  0
  -30.3450  -22.8960   22.7080 C   0  0  0  0  0  2  0  0  0  0  0  0
  -30.4720  -21.7520   21.6500 C   0  0  0  0  0  2  0  0  0  0  0  0
  -30.8090  -20.3220   22.1940 C   0  0  0  0  0  2  0  0  0  0  0  0
  -30.2520  -19.2040   21.2760 C   0  0  0  0  0  2  0  0  0  0  0  0
  -30.1660  -17.7560   21.8300 C   0  0  0  0  0  2  0  0  0  0  0  0
  -31.2720  -16.7630   21.3770 C   0  0  0  0  0  2  0  0  0  0  0  0
  -31.0740  -14.5860   20.1260 C   0  0  0  0  0  0  0  0  0  0  0  0
  -30.6370  -12.4410   18.9660 C   0  0  0  0  0  2  0  0  0  0  0  0
  -29.6770  -12.6210   17.7760 C   0  0  0  0  0  2  0  0  0  0  0  0
  -28.2150  -12.5230   18.2510 C   0  0  0  0  0  2  0  0  0  0  0  0
  -27.9150  -13.4200   19.4830 C   0  0  0  0  0  3  0  0  0  0  0  0
  -28.9880  -13.2190   20.5760 C   0  0  0  0  0  2  0  0  0  0  0  0
  -30.3240  -13.4540   19.9900 N   0  0  0  0  0  0  0  0  0  0  0  0
  -32.0530  -14.8270   19.4170 O   0  0  0  0  0  0  0  0  0  0  0  0
  -30.7120  -15.4210   21.1170 N   0  0  0  0  0  0  0  0  0  0  0  0
  -29.9490  -15.1100   21.7020 H   0  0  0  0  0  0  0  0  0  0  0  0
  -25.5470  -14.0860   20.2500 C   0  0  0  0  0  0  0  0  0  0  0  0
  -24.4700  -13.3430   20.6570 C   0  0  0  0  0  0  0  0  0  0  0  0
  -24.9020  -11.9800   20.6320 C   0  0  0  0  0  0  0  0  0  0  0  0
  -26.5660  -13.1810   19.9990 N   0  0  0  0  0  0  0  0  0  0  0  0
  -26.1800  -11.9100   20.2820 N   0  0  0  0  0  0  0  0  0  0  0  0
  -24.1570  -10.7360   20.8660 C   0  0  0  0  0  0  0  0  0  0  0  0
  -24.5820   -9.7880   21.8230 C   0  0  0  0  0  3  0  0  0  0  0  0
  -23.8370   -8.6110   22.0440 C   0  0  0  0  0  3  0  0  0  0  0  0
  -22.6520   -8.3720   21.3100 C   0  0  0  0  0  0  0  0  0  0  0  0
  -22.2430   -9.3100   20.3470 C   0  0  0  0  0  3  0  0  0  0  0  0
  -22.9890  -10.4800   20.1220 C   0  0  0  0  0  3  0  0  0  0  0  0
  -21.8770   -7.2440   21.4440 O   0  0  0  0  0  0  0  0  0  0  0  0
  -21.8120   -6.5490   22.6240 C   0  0  0  0  0  0  0  0  0  0  0  0
  -21.4010   -7.1640   23.8270 C   0  0  0  0  0  3  0  0  0  0  0  0
  -21.2810   -6.3980   25.0020 C   0  0  0  0  0  3  0  0  0  0  0  0
  -21.5570   -5.0170   24.9770 C   0  0  0  0  0  0  0  0  0  0  0  0
  -21.9580   -4.4020   23.7780 C   0  0  0  0  0  3  0  0  0  0  0  0
  -22.0810   -5.1650   22.6030 C   0  0  0  0  0  0  0  0  0  0  0  0
  -22.4500   -4.5640   21.4460 F   0  0  0  0  0  0  0  0  0  0  0  0
  -21.4320   -4.2790   26.1030 F   0  0  0  0  0  0  0  0  0  0  0  0
  -23.0930  -13.8510   20.9690 C   0  0  0  0  0  0  0  0  0  0  0  0
  -22.3890  -13.1880   21.8790 N   0  0  0  0  0  0  0  0  0  0  0  0
  -22.6540  -14.8760   20.4440 O   0  0  0  0  0  0  0  0  0  0  0  0
  -22.7630  -12.3640   22.3280 H   0  0  0  0  0  0  0  0  0  0  0  0
  -21.4640  -13.5060   22.1340 H   0  0  0  0  0  0  0  0  0  0  0  0
  -25.7340  -15.4490   20.0530 N   0  0  0  0  0  0  0  0  0  0  0  0
  -24.9960  -16.1300   20.1950 H   0  0  0  0  0  0  0  0  0  0  0  0
  -26.6030  -15.8700   19.7510 H   0  0  0  0  0  0  0  0  0  0  0  0
  2  5  2  0
  3  1  2  0
  4  3  1  0
  5 51  1  0
  5  1  1  0
  6  4  2  0
  6  2  1  0
  7  3  1  0
  8  9  1  0
  8  4  1  0
  9  7  1  0
 10  6  1  0
 11 22  2  0
 12 10  1  0
 12 17  1  0
 13 21  1  0
 13 23  1  0
 14 20  1  0
 14 16  1  0
 15 21  1  0
 16 17  2  0
 16 15  1  0
 18 19  1  0
 18 12  2  0
 19 14  2  0
 20 13  1  0
 21 11  1  0
 23 25  2  0
 24 23  1  0
 26 24  1  0
 27 36  2  0
 27 32  1  0
 28 24  1  0
 28 32  1  0
 29 28  1  0
 30 31  1  0
 30 29  1  0
 31 27  1  0
 32 33  2  0
 33 34  1  0
 35 34  2  0
 36 35  1  0
 37 11  1  0
 37 38  1  0
 37 47  1  0
 38 41  1  0
 39 43  1  0
 39 38  1  0
 40 39  2  0
 43 42  1  0
 45 43  1  0
 45 46  1  0
 45 44  1  0
 47 50  1  1
 47 48  1  0
 49 47  1  0
 52 53  1  0
 52 51  1  0
 54 55  1  0
 54 53  1  0
 56 55  1  0
 57 65  1  0
 58 63  1  0
 59 60  1  0
 59 58  1  0
 61 60  1  0
 61 70  1  0
 61 62  1  0
 63 57  1  0
 63 62  1  0
 64 57  2  0
 65 56  1  0
 65 66  1  0
 67 68  2  0
 68 87  1  0
 69 68  1  0
 69 72  1  0
 70 67  1  0
 70 71  1  0
 71 69  2  0
 72 73  1  0
 73 74  2  0
 75 78  1  0
 75 74  1  0
 76 75  2  0
 77 76  1  0
 77 72  2  0
 78 79  1  0
 79 80  1  0
 80 81  2  0
 82 81  1  0
 82 86  1  0
 83 82  2  0
 84 79  2  0
 84 83  1  0
 85 84  1  0
 87 88  1  0
 88 91  1  0
 88 90  1  0
 89 87  2  0
 92 93  1  0
 92 67  1  0
 94 92  1  0
M  ISO  4   6 101  10 101  57 100  65 100
M  END
>  <TORSDO>  (21) 
F 22

>  <SCORE>  (21) 
-11.436

>  <name>  (21) 
20

>  <ligand_id>  (21) 
20

>  <original_smiles>  (21) 
[H]c1c([H])c([H])c2c(c1[H])C([H])([H])C([H])([H])C([H])([H])C2([H])N([H])C(=O)C1([H])N(C(=O)C([H])(N([H])C(=O)C([H])(N([H])C([H])([H])[H])C([H])([H])[H])C(C([H])([H])[H])(C([H])([H])[H])C([H])([H])[H])C([H])([H])c2c([H])c(Oc3c([H])c(C([H])([H])C([H])([H])C([H])([H])C([H])([H])C([H])([H])C([H])([H])N([H])C(=O)N4C([H])([H])C([H])([H])C([H])([H])C([H])(n5nc(-c6c([H])c([H])c(Oc7c([H])c([H])c(F)c([H])c7F)c([H])c6[H])c(C(=O)N([H])[H])c5N([H])[H])C4([H])[H])c([H])c4c3C([H])([H])C([H])([H])C4([H])[H])c([H])c([H])c2C1([H])[H]

>  <smiles>  (21) 
[H]c1c([H])c([H])c2c(c1[H])C([H])([H])C([H])([H])C([H])([H])C2([H])N([H])C(=O)C1([H])N(C(=O)C([H])(N([H])C(=O)C([H])(N([H])C([H])([H])[H])C([H])([H])[H])C(C([H])([H])[H])(C([H])([H])[H])C([H])([H])[H])C([H])([H])c2c([H])c(Oc3c([H])c(C([H])([H])C([H])([H])C([H])([H])C([H])([H])C([H])([H])C([H])([H])N([H])C(=O)N4C([H])([H])C([H])([H])C([H])([H])C([H])(n5nc(-c6c([H])c([H])c(Oc7c([H])c([H])c(F)c([H])c7F)c([H])c6[H])c(C(=O)N([H])[H])c5N([H])[H])C4([H])[H])c([H])c4c3C([H])([H])C([H])([H])C4([H])[H])c([H])c([H])c2C1([H])[H]

$$$$
21:0:0
     RDKit          3D

 90 98  0  0  1  0  0  0  0  0999 V2000
  -28.6290  -22.5310   18.6390 C   0  0  0  0  0  3  0  0  0  0  0  0
  -28.9370  -21.3350   17.9420 C   0  0  0  0  0  3  0  0  0  0  0  0
  -28.9310  -21.2090   20.6320 C   0  0  0  0  0  3  0  0  0  0  0  0
  -29.2720  -19.8450   19.9400 C   0  0  0  0  0  0  0  0  0  0  0  0
  -28.6040  -22.6230   20.0380 C   0  0  0  0  0  0  0  0  0  0  0  0
  -29.2690  -20.0700   18.5250 C   0  0  0  0  0  0  0  0  0  0  0  0
  -29.6170  -16.8320   20.0450 C   0  0  0  0  0  2  0  0  0  0  0  0
  -29.8080  -18.2640   20.4370 C   0  0  0  0  0  3  0  0  0  0  0  0
  -30.3990  -15.3860   20.2240 C   0  0  0  0  0  0  0  0  0  0  0  0
  -30.3710  -12.9100   19.3720 C   0  0  0  0  0  2  0  0  0  0  0  0
  -29.4460  -12.6590   18.1530 C   0  0  0  0  0  2  0  0  0  0  0  0
  -28.0070  -12.3680   18.6110 C   0  0  0  0  0  2  0  0  0  0  0  0
  -27.5490  -13.3500   19.7160 C   0  0  0  0  0  3  0  0  0  0  0  0
  -28.6030  -13.5620   20.8190 C   0  0  0  0  0  2  0  0  0  0  0  0
  -29.8210  -14.0740   20.1680 N   0  0  0  0  0  0  0  0  0  0  0  0
  -31.6330  -15.3080   20.1070 O   0  0  0  0  0  0  0  0  0  0  0  0
  -25.2000  -13.8940   20.5260 C   0  0  0  0  0  0  0  0  0  0  0  0
  -24.1430  -13.1140   20.8990 C   0  0  0  0  0  0  0  0  0  0  0  0
  -24.6080  -11.7640   20.8460 C   0  0  0  0  0  0  0  0  0  0  0  0
  -26.2360  -13.0230   20.2500 N   0  0  0  0  0  0  0  0  0  0  0  0
  -25.8960  -11.7330   20.5160 N   0  0  0  0  0  0  0  0  0  0  0  0
  -23.8820  -10.4990   21.0300 C   0  0  0  0  0  0  0  0  0  0  0  0
  -24.3110   -9.5260   21.9600 C   0  0  0  0  0  3  0  0  0  0  0  0
  -23.5800   -8.3320   22.1350 C   0  0  0  0  0  3  0  0  0  0  0  0
  -22.4070   -8.0990   21.3800 C   0  0  0  0  0  0  0  0  0  0  0  0
  -21.9970   -9.0590   20.4380 C   0  0  0  0  0  3  0  0  0  0  0  0
  -22.7270  -10.2460   20.2620 C   0  0  0  0  0  3  0  0  0  0  0  0
  -21.6500   -6.9550   21.4610 O   0  0  0  0  0  0  0  0  0  0  0  0
  -21.5830   -6.2170   22.6150 C   0  0  0  0  0  0  0  0  0  0  0  0
  -21.1050   -6.7660   23.8250 C   0  0  0  0  0  3  0  0  0  0  0  0
  -20.9900   -5.9540   24.9700 C   0  0  0  0  0  3  0  0  0  0  0  0
  -21.3410   -4.5910   24.9070 C   0  0  0  0  0  0  0  0  0  0  0  0
  -21.8100   -4.0410   23.7010 C   0  0  0  0  0  3  0  0  0  0  0  0
  -21.9280   -4.8510   22.5580 C   0  0  0  0  0  0  0  0  0  0  0  0
  -22.3600   -4.3110   21.3930 F   0  0  0  0  0  0  0  0  0  0  0  0
  -21.2240   -3.8090   26.0040 F   0  0  0  0  0  0  0  0  0  0  0  0
  -22.7490  -13.5890   21.1890 C   0  0  0  0  0  0  0  0  0  0  0  0
  -22.0280  -12.8780   22.0470 N   0  0  0  0  0  0  0  0  0  0  0  0
  -22.3120  -14.6270   20.6910 O   0  0  0  0  0  0  0  0  0  0  0  0
  -22.3990  -12.0390   22.4680 H   0  0  0  0  0  0  0  0  0  0  0  0
  -21.0930  -13.1740   22.2860 H   0  0  0  0  0  0  0  0  0  0  0  0
  -25.3650  -15.2670   20.3700 N   0  0  0  0  0  0  0  0  0  0  0  0
  -24.6110  -15.9300   20.5160 H   0  0  0  0  0  0  0  0  0  0  0  0
  -26.2220  -15.7050   20.0580 H   0  0  0  0  0  0  0  0  0  0  0  0
  -30.7720  -18.4510   21.3450 O   0  0  0  0  0  0  0  0  0  0  0  0
  -30.8640  -19.3880   21.4770 H   0  0  0  0  0  0  0  0  0  0  0  0
  -30.0910  -19.3260   16.1470 C   0  0  0  0  0  1  0  0  0  0  0  0
  -29.7000  -18.9350   17.5840 C   0  0  0  0  0  2  0  0  0  0  0  0
  -28.0300  -24.1840   20.6670 C   0  0  0  0  0  2  0  0  0  0  0  0
  -28.2350  -25.7950   20.2580 O   0  0  0  0  0  0  0  0  0  0  0  0
  -24.6560  -31.8490   23.2260 C   0  0  0  0  0  0  0  0  0  0  0  0
  -27.2240  -26.9120   20.2620 C   0  0  0  0  0  0  0  0  0  0  0  0
  -23.4710  -30.4440   21.5890 C   0  0  0  0  0  3  0  0  0  0  0  0
  -24.9280  -28.8240   20.1840 C   0  0  0  0  0  0  0  0  0  0  0  0
  -26.0430  -30.6460   21.4550 C   0  0  0  0  0  2  0  0  0  0  0  0
  -26.1170  -29.2250   20.8090 C   0  0  0  0  0  0  0  0  0  0  0  0
  -27.2600  -28.2940   20.8170 C   0  0  0  0  0  3  0  0  0  0  0  0
  -26.0040  -26.6760   19.5870 C   0  0  0  0  0  3  0  0  0  0  0  0
  -24.9000  -27.5690   19.5520 C   0  0  0  0  0  3  0  0  0  0  0  0
  -23.7090  -29.7530   20.2180 C   0  0  0  0  0  2  0  0  0  0  0  0
  -24.7450  -31.0090   22.1410 N   0  0  0  0  0  0  0  0  0  0  0  0
  -23.5640  -32.1420   23.7380 O   0  0  0  0  0  0  0  0  0  0  0  0
  -22.7720  -29.4530   22.5560 C   0  0  0  0  0  0  0  0  0  0  0  0
  -21.4430  -29.2860   22.4230 N   0  0  0  0  0  0  0  0  0  0  0  0
  -23.4330  -28.8340   23.3910 O   0  0  0  0  0  0  0  0  0  0  0  0
  -20.9620  -29.8340   21.7230 H   0  0  0  0  0  0  0  0  0  0  0  0
  -18.0570  -28.0860   22.9360 C   0  0  0  0  0  0  0  0  0  0  0  0
  -20.6190  -28.3500   23.1940 C   0  0  0  0  0  3  0  0  0  0  0  0
  -20.7170  -26.9190   22.6170 C   0  0  0  0  0  2  0  0  0  0  0  0
  -19.6130  -26.5990   21.6030 C   0  0  0  0  0  2  0  0  0  0  0  0
  -18.2320  -26.7410   22.2510 C   0  0  0  0  0  2  0  0  0  0  0  0
  -19.1770  -28.8490   23.3640 C   0  0  0  0  0  0  0  0  0  0  0  0
  -18.9570  -30.1050   23.9690 C   0  0  0  0  0  3  0  0  0  0  0  0
  -17.6530  -30.6020   24.1450 C   0  0  0  0  0  3  0  0  0  0  0  0
  -16.5480  -29.8380   23.7300 C   0  0  0  0  0  3  0  0  0  0  0  0
  -16.7500  -28.5810   23.1340 C   0  0  0  0  0  3  0  0  0  0  0  0
  -25.9210  -32.4970   23.8660 C   0  0  0  0  0  3  0  0  0  0  0  0
  -26.4040  -31.7530   25.1730 C   0  0  1  0  0  0  0  0  0  0  0  0
  -25.2850  -31.5500   26.2200 C   0  0  0  0  0  1  0  0  0  0  0  0
  -26.9840  -30.3610   24.8380 C   0  0  0  0  0  1  0  0  0  0  0  0
  -27.5480  -32.5550   25.8390 C   0  0  0  0  0  1  0  0  0  0  0  0
  -25.6100  -33.9050   24.1670 N   0  0  0  0  0  0  0  0  0  0  0  0
  -25.9650  -34.9510   23.4090 C   0  0  0  0  0  0  0  0  0  0  0  0
  -26.6540  -34.8300   22.3930 O   0  0  0  0  0  0  0  0  0  0  0  0
  -25.0000  -34.0780   24.9540 H   0  0  0  0  0  0  0  0  0  0  0  0
  -24.2670  -36.7670   23.0020 C   0  0  0  0  0  1  0  0  0  0  0  0
  -25.4830  -36.3500   23.8460 C   0  0  0  0  0  3  0  0  0  0  0  0
  -27.6010  -37.2200   24.7340 C   0  0  0  0  0  1  0  0  0  0  0  0
  -26.5320  -37.3900   23.7550 N   0  0  0  0  0  0  0  0  0  0  0  0
  -26.1320  -38.3170   23.8780 H   0  0  0  0  0  0  0  0  0  0  0  0
  1  5  1  0
  2  6  1  0
  2  1  2  0
  4  8  1  0
  4  3  1  0
  5  3  2  0
  5 49  1  0
  6  4  2  0
  7  9  1  0
  8  7  1  0
  8 45  1  0
 10 15  1  0
 11 12  1  0
 11 10  1  0
 13 12  1  0
 13 20  1  0
 13 14  1  0
 15  9  1  0
 15 14  1  0
 16  9  2  0
 17 18  2  0
 18 37  1  0
 19 18  1  0
 19 22  1  0
 20 21  1  0
 20 17  1  0
 21 19  2  0
 22 23  1  0
 23 24  2  0
 25 28  1  0
 25 24  1  0
 26 25  2  0
 27 26  1  0
 27 22  2  0
 28 29  1  0
 29 30  1  0
 30 31  2  0
 32 31  1  0
 32 36  1  0
 33 32  2  0
 34 29  2  0
 34 33  1  0
 35 34  1  0
 37 38  1  0
 38 41  1  0
 38 40  1  0
 39 37  2  0
 42 43  1  0
 42 17  1  0
 44 42  1  0
 45 46  1  0
 47 48  1  0
 48  6  1  0
 50 52  1  0
 50 49  1  0
 51 62  2  0
 52 57  1  0
 53 61  1  0
 53 63  1  0
 54 60  1  0
 54 56  1  0
 55 61  1  0
 56 57  2  0
 56 55  1  0
 58 52  2  0
 59 58  1  0
 59 54  2  0
 60 53  1  0
 61 51  1  0
 63 65  2  0
 64 63  1  0
 66 64  1  0
 67 76  2  0
 67 72  1  0
 68 64  1  0
 68 72  1  0
 69 68  1  0
 70 71  1  0
 70 69  1  0
 71 67  1  0
 72 73  2  0
 73 74  1  0
 75 74  2  0
 76 75  1  0
 77 51  1  0
 77 82  1  0
 77 78  1  0
 78 81  1  1
 78 79  1  0
 80 78  1  0
 82 85  1  0
 83 87  1  0
 83 82  1  0
 84 83  2  0
 87 86  1  0
 89 87  1  0
 89 90  1  0
 89 88  1  0
M  ISO  4   7 100   9 100  49 101  50 101
M  END
>  <TORSDO>  (22) 
F 20

>  <SCORE>  (22) 
-15.527

>  <name>  (22) 
21

>  <ligand_id>  (22) 
21

>  <original_smiles>  (22) 
[H]OC(=C([H])C(=O)N1C([H])([H])C([H])([H])C([H])([H])C([H])(n2nc(-c3c([H])c([H])c(Oc4c([H])c([H])c(F)c([H])c4F)c([H])c3[H])c(C(=O)N([H])[H])c2N([H])[H])C1([H])[H])c1c([H])c(C([H])([H])Oc2c([H])c([H])c3c(c2[H])C([H])([H])N(C(=O)C([H])(N([H])C(=O)C([H])(N([H])C([H])([H])[H])C([H])([H])[H])C(C([H])([H])[H])(C([H])([H])[H])C([H])([H])[H])C([H])(C(=O)N([H])C2([H])c4c([H])c([H])c([H])c([H])c4C([H])([H])C([H])([H])C2([H])[H])C3([H])[H])c([H])c([H])c1C([H])([H])C([H])([H])[H]

>  <smiles>  (22) 
[H]OC(=C([H])C(=O)N1C([H])([H])C([H])([H])C([H])([H])C([H])(n2nc(-c3c([H])c([H])c(Oc4c([H])c([H])c(F)c([H])c4F)c([H])c3[H])c(C(=O)N([H])[H])c2N([H])[H])C1([H])[H])c1c([H])c(C([H])([H])Oc2c([H])c([H])c3c(c2[H])C([H])([H])N(C(=O)C([H])(N([H])C(=O)C([H])(N([H])C([H])([H])[H])C([H])([H])[H])C(C([H])([H])[H])(C([H])([H])[H])C([H])([H])[H])C([H])(C(=O)N([H])C2([H])c4c([H])c([H])c([H])c([H])c4C([H])([H])C([H])([H])C2([H])[H])C3([H])[H])c([H])c([H])c1C([H])([H])C([H])([H])[H]

$$$$
22:0:0
     RDKit          3D

 93102  0  0  1  0  0  0  0  0999 V2000
  -28.7420  -21.9400   20.0020 C   0  0  0  0  0  0  0  0  0  0  0  0
  -28.6370  -20.4930   19.9340 C   0  0  0  0  0  0  0  0  0  0  0  0
  -29.8090  -22.3570   20.7460 C   0  0  0  0  0  0  0  0  0  0  0  0
  -29.5900  -19.8160   20.6870 C   0  0  0  0  0  0  0  0  0  0  0  0
  -27.8240  -22.9780   19.3720 C   0  0  0  0  0  2  0  0  0  0  0  0
  -30.2040  -23.8030   20.9690 C   0  0  0  0  0  2  0  0  0  0  0  0
  -27.1020  -23.8960   20.4000 C   0  0  0  0  0  2  0  0  0  0  0  0
  -29.1760  -24.6930   21.7280 C   0  0  0  0  0  2  0  0  0  0  0  0
  -27.8590  -25.1260   21.0100 C   0  0  0  0  0  3  0  0  0  0  0  0
  -30.6710  -20.9850   21.4300 S   0  0  0  0  0  0  0  0  0  0  0  0
  -27.9950  -26.3620   20.2280 O   0  0  0  0  0  0  0  0  0  0  0  0
  -24.3370  -31.8220   23.1840 C   0  0  0  0  0  0  0  0  0  0  0  0
  -26.9000  -27.2220   20.2020 C   0  0  0  0  0  0  0  0  0  0  0  0
  -23.1330  -30.4530   21.5170 C   0  0  0  0  0  3  0  0  0  0  0  0
  -24.5740  -28.8610   20.1300 C   0  0  0  0  0  0  0  0  0  0  0  0
  -25.6780  -30.7110   21.3900 C   0  0  0  0  0  2  0  0  0  0  0  0
  -25.7360  -29.3300   20.7580 C   0  0  0  0  0  0  0  0  0  0  0  0
  -26.9030  -28.5170   20.7920 C   0  0  0  0  0  3  0  0  0  0  0  0
  -25.7330  -26.8080   19.5290 C   0  0  0  0  0  3  0  0  0  0  0  0
  -24.5710  -27.6020   19.5080 C   0  0  0  0  0  3  0  0  0  0  0  0
  -23.3590  -29.7640   20.1440 C   0  0  0  0  0  2  0  0  0  0  0  0
  -24.4010  -31.0110   22.0880 N   0  0  0  0  0  0  0  0  0  0  0  0
  -23.2510  -32.1310   23.6930 O   0  0  0  0  0  0  0  0  0  0  0  0
  -22.4210  -29.4570   22.4630 C   0  0  0  0  0  0  0  0  0  0  0  0
  -21.0890  -29.3430   22.3280 N   0  0  0  0  0  0  0  0  0  0  0  0
  -23.0660  -28.7920   23.2780 O   0  0  0  0  0  0  0  0  0  0  0  0
  -20.6310  -29.9290   21.6440 H   0  0  0  0  0  0  0  0  0  0  0  0
  -17.6480  -28.3670   22.8590 C   0  0  0  0  0  0  0  0  0  0  0  0
  -20.2230  -28.4390   23.0850 C   0  0  0  0  0  3  0  0  0  0  0  0
  -20.2150  -27.0240   22.4620 C   0  0  0  0  0  2  0  0  0  0  0  0
  -19.0750  -26.8130   21.4610 C   0  0  0  0  0  2  0  0  0  0  0  0
  -17.7190  -27.0320   22.1370 C   0  0  0  0  0  2  0  0  0  0  0  0
  -18.8250  -29.0350   23.2900 C   0  0  0  0  0  0  0  0  0  0  0  0
  -18.7060  -30.2900   23.9250 C   0  0  0  0  0  3  0  0  0  0  0  0
  -17.4430  -30.8740   24.1330 C   0  0  0  0  0  3  0  0  0  0  0  0
  -16.2800  -30.2010   23.7190 C   0  0  0  0  0  3  0  0  0  0  0  0
  -16.3840  -28.9490   23.0870 C   0  0  0  0  0  3  0  0  0  0  0  0
  -25.6260  -32.4170   23.8340 C   0  0  0  0  0  3  0  0  0  0  0  0
  -25.3440  -33.8180   24.1730 N   0  0  0  0  0  0  0  0  0  0  0  0
  -25.7020  -34.8700   23.4240 C   0  0  0  0  0  0  0  0  0  0  0  0
  -26.3760  -34.7610   22.3950 O   0  0  0  0  0  0  0  0  0  0  0  0
  -24.7480  -33.9790   24.9720 H   0  0  0  0  0  0  0  0  0  0  0  0
  -24.0050  -36.6940   23.0850 C   0  0  0  0  0  1  0  0  0  0  0  0
  -25.2420  -36.2640   23.8890 C   0  0  0  0  0  3  0  0  0  0  0  0
  -27.3970  -37.1050   24.7130 C   0  0  0  0  0  1  0  0  0  0  0  0
  -26.2920  -37.3000   23.7780 N   0  0  0  0  0  0  0  0  0  0  0  0
  -25.9030  -38.2260   23.9360 H   0  0  0  0  0  0  0  0  0  0  0  0
  -26.1030  -31.6200   25.1080 C   0  0  1  0  0  0  0  0  0  0  0  0
  -24.9850  -31.3880   26.1520 C   0  0  0  0  0  1  0  0  0  0  0  0
  -26.6680  -30.2360   24.7090 C   0  0  0  0  0  1  0  0  0  0  0  0
  -27.2550  -32.3830   25.8030 C   0  0  0  0  0  1  0  0  0  0  0  0
  -27.5580  -19.7840   19.1590 C   0  0  0  0  0  2  0  0  0  0  0  0
  -25.1540  -18.9250   19.1770 C   0  0  0  0  0  1  0  0  0  0  0  0
  -26.2490  -19.6660   19.9540 C   0  0  0  0  0  2  0  0  0  0  0  0
  -29.6490  -18.3130   21.0450 C   0  0  0  0  0  2  0  0  0  0  0  0
  -30.5060  -17.2790   20.2150 C   0  0  0  0  0  2  0  0  0  0  0  0
  -30.3240  -15.7730   20.6850 C   0  0  0  0  0  2  0  0  0  0  0  0
  -30.9300  -14.6110   19.8110 C   0  0  0  0  0  0  0  0  0  0  0  0
  -30.4890  -12.5560   18.4780 C   0  0  0  0  0  2  0  0  0  0  0  0
  -29.3950  -12.8760   17.4350 C   0  0  0  0  0  2  0  0  0  0  0  0
  -27.9870  -12.6930   18.0380 C   0  0  0  0  0  2  0  0  0  0  0  0
  -27.8360  -13.3910   19.4170 C   0  0  0  0  0  3  0  0  0  0  0  0
  -29.0240  -13.0440   20.3420 C   0  0  0  0  0  2  0  0  0  0  0  0
  -30.2600  -13.4290   19.6450 N   0  0  0  0  0  0  0  0  0  0  0  0
  -31.9890  -14.8250   19.2130 O   0  0  0  0  0  0  0  0  0  0  0  0
  -25.5790  -13.9530   20.5110 C   0  0  0  0  0  0  0  0  0  0  0  0
  -24.5400  -13.1640   20.9270 C   0  0  0  0  0  0  0  0  0  0  0  0
  -24.9430  -11.8160   20.6730 C   0  0  0  0  0  0  0  0  0  0  0  0
  -26.5500  -13.0850   20.0380 N   0  0  0  0  0  0  0  0  0  0  0  0
  -26.1790  -11.7880   20.1900 N   0  0  0  0  0  0  0  0  0  0  0  0
  -24.2010  -10.5560   20.8090 C   0  0  0  0  0  0  0  0  0  0  0  0
  -24.6990   -9.4870   21.5860 C   0  0  0  0  0  3  0  0  0  0  0  0
  -23.9600   -8.2910   21.7150 C   0  0  0  0  0  3  0  0  0  0  0  0
  -22.7070   -8.1580   21.0680 C   0  0  0  0  0  0  0  0  0  0  0  0
  -22.2280   -9.2180   20.2790 C   0  0  0  0  0  3  0  0  0  0  0  0
  -22.9680  -10.4050   20.1460 C   0  0  0  0  0  3  0  0  0  0  0  0
  -21.9320   -7.0250   21.1170 O   0  0  0  0  0  0  0  0  0  0  0  0
  -21.9500   -6.1860   22.2020 C   0  0  0  0  0  0  0  0  0  0  0  0
  -21.6530   -6.6440   23.5040 C   0  0  0  0  0  3  0  0  0  0  0  0
  -21.6160   -5.7340   24.5790 C   0  0  0  0  0  3  0  0  0  0  0  0
  -21.8660   -4.3670   24.3540 C   0  0  0  0  0  0  0  0  0  0  0  0
  -22.1570   -3.9080   23.0580 C   0  0  0  0  0  3  0  0  0  0  0  0
  -22.1960   -4.8150   21.9850 C   0  0  0  0  0  0  0  0  0  0  0  0
  -22.4550   -4.3640   20.7340 F   0  0  0  0  0  0  0  0  0  0  0  0
  -21.8220   -3.4910   25.3850 F   0  0  0  0  0  0  0  0  0  0  0  0
  -23.2110  -13.6330   21.4420 C   0  0  0  0  0  0  0  0  0  0  0  0
  -22.5890  -12.8610   22.3260 N   0  0  0  0  0  0  0  0  0  0  0  0
  -22.7370  -14.7160   21.0980 O   0  0  0  0  0  0  0  0  0  0  0  0
  -22.9870  -11.9830   22.6240 H   0  0  0  0  0  0  0  0  0  0  0  0
  -21.7020  -13.1540   22.7130 H   0  0  0  0  0  0  0  0  0  0  0  0
  -25.7700  -15.3310   20.4770 N   0  0  0  0  0  0  0  0  0  0  0  0
  -25.0500  -15.9840   20.7650 H   0  0  0  0  0  0  0  0  0  0  0  0
  -26.5900  -15.7850   20.0960 H   0  0  0  0  0  0  0  0  0  0  0  0
  1  3  2  0
  2  1  1  0
  2  4  2  0
  3  6  1  0
  3 10  1  0
  4 55  1  0
  4 10  1  0
  5  1  1  0
  5  7  1  0
  6  8  1  0
  7  9  1  0
  9 11  1  0
  9  8  1  0
 12 23  2  0
 13 11  1  0
 13 18  1  0
 14 22  1  0
 14 24  1  0
 15 21  1  0
 15 17  1  0
 16 22  1  0
 17 18  2  0
 17 16  1  0
 19 13  2  0
 20 19  1  0
 20 15  2  0
 21 14  1  0
 22 12  1  0
 24 26  2  0
 25 24  1  0
 27 25  1  0
 28 37  2  0
 28 33  1  0
 29 25  1  0
 29 33  1  0
 30 29  1  0
 31 32  1  0
 31 30  1  0
 32 28  1  0
 33 34  2  0
 34 35  1  0
 36 35  2  0
 37 36  1  0
 38 12  1  0
 38 39  1  0
 38 48  1  0
 39 42  1  0
 40 44  1  0
 40 39  1  0
 41 40  2  0
 44 43  1  0
 46 44  1  0
 46 47  1  0
 46 45  1  0
 48 51  1  1
 48 49  1  0
 50 48  1  0
 52  2  1  0
 52 54  1  0
 53 54  1  0
 56 57  1  0
 56 55  1  0
 58 57  1  0
 59 64  1  0
 60 61  1  0
 60 59  1  0
 62 61  1  0
 62 69  1  0
 62 63  1  0
 64 58  1  0
 64 63  1  0
 65 58  2  0
 66 67  2  0
 67 86  1  0
 68 71  1  0
 68 67  1  0
 69 70  1  0
 69 66  1  0
 70 68  2  0
 71 72  1  0
 72 73  2  0
 74 77  1  0
 74 73  1  0
 75 74  2  0
 76 75  1  0
 76 71  2  0
 77 78  1  0
 78 79  1  0
 79 80  2  0
 81 80  1  0
 81 85  1  0
 82 81  2  0
 83 78  2  0
 83 82  1  0
 84 83  1  0
 86 87  1  0
 87 89  1  0
 87 90  1  0
 88 86  2  0
 91 66  1  0
 91 92  1  0
 93 91  1  0
M  ISO  4   9 101  11 101  57 100  58 100
M  END
>  <TORSDO>  (23) 
F 21

>  <SCORE>  (23) 
-10.195

>  <name>  (23) 
22

>  <ligand_id>  (23) 
22

>  <original_smiles>  (23) 
[H]c1c([H])c([H])c2c(c1[H])C([H])([H])C([H])([H])C([H])([H])C2([H])N([H])C(=O)C1([H])N(C(=O)C([H])(N([H])C(=O)C([H])(N([H])C([H])([H])[H])C([H])([H])[H])C(C([H])([H])[H])(C([H])([H])[H])C([H])([H])[H])C([H])([H])c2c([H])c(OC3([H])C([H])([H])C([H])([H])c4sc(C([H])([H])C([H])([H])C([H])([H])C(=O)N5C([H])([H])C([H])([H])C([H])([H])C([H])(n6nc(-c7c([H])c([H])c(Oc8c([H])c([H])c(F)c([H])c8F)c([H])c7[H])c(C(=O)N([H])[H])c6N([H])[H])C5([H])[H])c(C([H])([H])C([H])([H])C([H])([H])[H])c4C([H])([H])C3([H])[H])c([H])c([H])c2C1([H])[H]

>  <smiles>  (23) 
[H]c1c([H])c([H])c2c(c1[H])C([H])([H])C([H])([H])C([H])([H])C2([H])N([H])C(=O)C1([H])N(C(=O)C([H])(N([H])C(=O)C([H])(N([H])C([H])([H])[H])C([H])([H])[H])C(C([H])([H])[H])(C([H])([H])[H])C([H])([H])[H])C([H])([H])c2c([H])c(OC3([H])C([H])([H])C([H])([H])c4sc(C([H])([H])C([H])([H])C([H])([H])C(=O)N5C([H])([H])C([H])([H])C([H])([H])C([H])(n6nc(-c7c([H])c([H])c(Oc8c([H])c([H])c(F)c([H])c8F)c([H])c7[H])c(C(=O)N([H])[H])c6N([H])[H])C5([H])[H])c(C([H])([H])C([H])([H])C([H])([H])[H])c4C([H])([H])C3([H])[H])c([H])c([H])c2C1([H])[H]

$$$$
23:0:0
     RDKit          3D

 88 97  0  0  1  0  0  0  0  0999 V2000
  -28.6950  -21.3470   19.7340 C   0  0  0  0  0  3  0  0  0  0  0  0
  -29.4400  -20.1070   20.3650 C   0  0  0  0  0  0  0  0  0  0  0  0
  -29.9480  -20.6740   21.5010 C   0  0  0  0  0  0  0  0  0  0  0  0
  -28.6710  -22.7210   20.3290 C   0  0  0  0  0  0  0  0  0  0  0  0
  -30.8500  -19.7890   22.2710 C   0  0  0  0  0  2  0  0  0  0  0  0
  -31.2020  -18.6130   21.3170 C   0  0  0  0  0  2  0  0  0  0  0  0
  -30.1510  -18.4820   20.1640 C   0  0  0  0  0  3  0  0  0  0  0  0
  -29.5940  -22.4200   21.8130 S   0  0  0  0  0  0  0  0  0  0  0  0
  -30.5180  -15.5160   20.0980 C   0  0  0  0  0  0  0  0  0  0  0  0
  -30.5290  -13.0260   19.2760 C   0  0  0  0  0  2  0  0  0  0  0  0
  -29.6030  -12.7150   18.0680 C   0  0  0  0  0  2  0  0  0  0  0  0
  -28.1680  -12.4150   18.5360 C   0  0  0  0  0  2  0  0  0  0  0  0
  -27.7100  -13.4000   19.6390 C   0  0  0  0  0  3  0  0  0  0  0  0
  -28.7660  -13.6690   20.7330 C   0  0  0  0  0  2  0  0  0  0  0  0
  -29.9620  -14.1940   20.0590 N   0  0  0  0  0  0  0  0  0  0  0  0
  -31.7410  -15.4950   19.8850 O   0  0  0  0  0  0  0  0  0  0  0  0
  -29.7690  -16.8230   20.1800 N   0  0  0  0  0  0  0  0  0  0  0  0
  -28.7730  -16.6720   20.2600 H   0  0  0  0  0  0  0  0  0  0  0  0
  -25.3830  -13.9360   20.5180 C   0  0  0  0  0  0  0  0  0  0  0  0
  -24.3320  -13.1480   20.9000 C   0  0  0  0  0  0  0  0  0  0  0  0
  -24.7960  -11.7990   20.8180 C   0  0  0  0  0  0  0  0  0  0  0  0
  -26.4090  -13.0640   20.1990 N   0  0  0  0  0  0  0  0  0  0  0  0
  -26.0730  -11.7730   20.4510 N   0  0  0  0  0  0  0  0  0  0  0  0
  -24.0690  -10.5360   21.0080 C   0  0  0  0  0  0  0  0  0  0  0  0
  -24.5070   -9.5650   21.9350 C   0  0  0  0  0  3  0  0  0  0  0  0
  -23.7780   -8.3690   22.1160 C   0  0  0  0  0  3  0  0  0  0  0  0
  -22.5980   -8.1360   21.3670 C   0  0  0  0  0  0  0  0  0  0  0  0
  -22.1800   -9.0990   20.4300 C   0  0  0  0  0  3  0  0  0  0  0  0
  -22.9080  -10.2860   20.2490 C   0  0  0  0  0  3  0  0  0  0  0  0
  -21.8370   -6.9960   21.4550 O   0  0  0  0  0  0  0  0  0  0  0  0
  -21.7690   -6.2650   22.6160 C   0  0  0  0  0  0  0  0  0  0  0  0
  -21.2810   -6.8250   23.8140 C   0  0  0  0  0  3  0  0  0  0  0  0
  -21.1600   -6.0210   24.9670 C   0  0  0  0  0  3  0  0  0  0  0  0
  -21.5170   -4.6600   24.9180 C   0  0  0  0  0  0  0  0  0  0  0  0
  -21.9980   -4.1020   23.7210 C   0  0  0  0  0  3  0  0  0  0  0  0
  -22.1230   -4.9040   22.5720 C   0  0  0  0  0  0  0  0  0  0  0  0
  -22.5660   -4.3540   21.4160 F   0  0  0  0  0  0  0  0  0  0  0  0
  -21.3950   -3.8840   26.0220 F   0  0  0  0  0  0  0  0  0  0  0  0
  -22.9460  -13.6240   21.2250 C   0  0  0  0  0  0  0  0  0  0  0  0
  -22.2530  -12.9160   22.1090 N   0  0  0  0  0  0  0  0  0  0  0  0
  -22.4880  -14.6510   20.7230 O   0  0  0  0  0  0  0  0  0  0  0  0
  -22.6400  -12.0790   22.5250 H   0  0  0  0  0  0  0  0  0  0  0  0
  -21.3190  -13.1980   22.3640 H   0  0  0  0  0  0  0  0  0  0  0  0
  -25.5490  -15.3100   20.3900 N   0  0  0  0  0  0  0  0  0  0  0  0
  -24.8030  -15.9700   20.5810 H   0  0  0  0  0  0  0  0  0  0  0  0
  -26.4210  -15.7600   20.1500 H   0  0  0  0  0  0  0  0  0  0  0  0
  -27.8350  -24.2530   20.0190 C   0  0  0  0  0  2  0  0  0  0  0  0
  -28.1780  -25.8500   20.3490 O   0  0  0  0  0  0  0  0  0  0  0  0
  -24.6730  -31.9020   23.2930 C   0  0  0  0  0  0  0  0  0  0  0  0
  -27.2140  -27.0030   20.2590 C   0  0  0  0  0  0  0  0  0  0  0  0
  -23.4800  -30.5250   21.6470 C   0  0  0  0  0  3  0  0  0  0  0  0
  -24.9290  -28.9210   20.2120 C   0  0  0  0  0  0  0  0  0  0  0  0
  -26.0540  -30.7190   21.5020 C   0  0  0  0  0  2  0  0  0  0  0  0
  -26.1210  -29.3090   20.8370 C   0  0  0  0  0  0  0  0  0  0  0  0
  -27.2560  -28.3730   20.8380 C   0  0  0  0  0  3  0  0  0  0  0  0
  -25.9950  -26.7760   19.5820 C   0  0  0  0  0  3  0  0  0  0  0  0
  -24.8910  -27.6690   19.5740 C   0  0  0  0  0  3  0  0  0  0  0  0
  -23.7120  -29.8470   20.2680 C   0  0  0  0  0  2  0  0  0  0  0  0
  -24.7600  -31.0720   22.2020 N   0  0  0  0  0  0  0  0  0  0  0  0
  -23.5810  -32.1920   23.8120 O   0  0  0  0  0  0  0  0  0  0  0  0
  -22.7780  -29.5250   22.6000 C   0  0  0  0  0  0  0  0  0  0  0  0
  -21.4470  -29.3610   22.4710 N   0  0  0  0  0  0  0  0  0  0  0  0
  -23.4380  -28.8910   23.4270 O   0  0  0  0  0  0  0  0  0  0  0  0
  -20.9610  -29.9340   21.7940 H   0  0  0  0  0  0  0  0  0  0  0  0
  -18.0750  -28.1230   22.9540 C   0  0  0  0  0  0  0  0  0  0  0  0
  -20.6290  -28.4120   23.2330 C   0  0  0  0  0  3  0  0  0  0  0  0
  -20.7480  -26.9830   22.6560 C   0  0  0  0  0  2  0  0  0  0  0  0
  -19.6570  -26.6600   21.6300 C   0  0  0  0  0  2  0  0  0  0  0  0
  -18.2700  -26.7800   22.2700 C   0  0  0  0  0  2  0  0  0  0  0  0
  -19.1830  -28.8980   23.3900 C   0  0  0  0  0  0  0  0  0  0  0  0
  -18.9460  -30.1540   23.9930 C   0  0  0  0  0  3  0  0  0  0  0  0
  -17.6350  -30.6450   24.1460 C   0  0  0  0  0  3  0  0  0  0  0  0
  -16.5430  -29.8680   23.7260 C   0  0  0  0  0  3  0  0  0  0  0  0
  -16.7630  -28.6090   23.1390 C   0  0  0  0  0  3  0  0  0  0  0  0
  -25.9400  -32.5420   23.9370 C   0  0  0  0  0  3  0  0  0  0  0  0
  -25.6280  -33.9460   24.2600 N   0  0  0  0  0  0  0  0  0  0  0  0
  -25.9410  -34.9980   23.4920 C   0  0  0  0  0  0  0  0  0  0  0  0
  -26.5850  -34.8890   22.4460 O   0  0  0  0  0  0  0  0  0  0  0  0
  -25.0390  -34.1020   25.0650 H   0  0  0  0  0  0  0  0  0  0  0  0
  -24.1840  -36.7780   23.2050 C   0  0  0  0  0  1  0  0  0  0  0  0
  -25.4690  -36.3920   23.9530 C   0  0  0  0  0  3  0  0  0  0  0  0
  -27.6330  -37.3080   24.6680 C   0  0  0  0  0  1  0  0  0  0  0  0
  -26.4900  -37.4480   23.7710 N   0  0  0  0  0  0  0  0  0  0  0  0
  -26.0850  -38.3710   23.9130 H   0  0  0  0  0  0  0  0  0  0  0  0
  -26.4190  -31.7830   25.2360 C   0  0  1  0  0  0  0  0  0  0  0  0
  -25.2970  -31.5720   26.2800 C   0  0  0  0  0  1  0  0  0  0  0  0
  -27.0000  -30.3950   24.8830 C   0  0  0  0  0  1  0  0  0  0  0  0
  -27.5640  -32.5740   25.9120 C   0  0  0  0  0  1  0  0  0  0  0  0
  1  4  2  0
  1  2  1  0
  2  3  2  0
  3  8  1  0
  3  5  1  0
  4  8  1  0
  6  5  1  0
  7 17  1  0
  7  2  1  0
  7  6  1  0
  9 17  1  0
 10 15  1  0
 11 12  1  0
 11 10  1  0
 13 12  1  0
 13 22  1  0
 13 14  1  0
 15  9  1  0
 15 14  1  0
 16  9  2  0
 17 18  1  0
 19 20  2  0
 20 39  1  0
 21 20  1  0
 21 24  1  0
 22 23  1  0
 22 19  1  0
 23 21  2  0
 24 25  1  0
 25 26  2  0
 27 30  1  0
 27 26  1  0
 28 27  2  0
 29 28  1  0
 29 24  2  0
 30 31  1  0
 31 32  1  0
 32 33  2  0
 34 33  1  0
 34 38  1  0
 35 34  2  0
 36 31  2  0
 36 35  1  0
 37 36  1  0
 39 40  1  0
 40 43  1  0
 40 42  1  0
 41 39  2  0
 44 19  1  0
 44 45  1  0
 46 44  1  0
 47  4  1  0
 47 48  1  0
 49 60  2  0
 50 48  1  0
 50 55  1  0
 51 59  1  0
 51 61  1  0
 52 58  1  0
 52 54  1  0
 53 59  1  0
 54 55  2  0
 54 53  1  0
 56 50  2  0
 57 56  1  0
 57 52  2  0
 58 51  1  0
 59 49  1  0
 61 63  2  0
 62 61  1  0
 64 62  1  0
 65 74  2  0
 65 70  1  0
 66 62  1  0
 66 70  1  0
 67 66  1  0
 68 69  1  0
 68 67  1  0
 69 65  1  0
 70 71  2  0
 71 72  1  0
 73 72  2  0
 74 73  1  0
 75 49  1  0
 75 76  1  0
 75 85  1  0
 76 79  1  0
 77 81  1  0
 77 76  1  0
 78 77  2  0
 81 80  1  0
 83 84  1  0
 83 81  1  0
 83 82  1  0
 85 88  1  1
 85 86  1  0
 87 85  1  0
M  ISO  4   9 100  17 100  47 101  48 101
M  END
>  <TORSDO>  (24) 
F 17

>  <SCORE>  (24) 
-16.705

>  <name>  (24) 
23

>  <ligand_id>  (24) 
23

>  <original_smiles>  (24) 
[H]c1c([H])c([H])c2c(c1[H])C([H])([H])C([H])([H])C([H])([H])C2([H])N([H])C(=O)C1([H])N(C(=O)C([H])(N([H])C(=O)C([H])(N([H])C([H])([H])[H])C([H])([H])[H])C(C([H])([H])[H])(C([H])([H])[H])C([H])([H])[H])C([H])([H])c2c([H])c(OC([H])([H])c3sc4c(c3[H])C([H])(N([H])C(=O)N3C([H])([H])C([H])([H])C([H])([H])C([H])(n5nc(-c6c([H])c([H])c(Oc7c([H])c([H])c(F)c([H])c7F)c([H])c6[H])c(C(=O)N([H])[H])c5N([H])[H])C3([H])[H])C([H])([H])C4([H])[H])c([H])c([H])c2C1([H])[H]

>  <smiles>  (24) 
[H]c1c([H])c([H])c2c(c1[H])C([H])([H])C([H])([H])C([H])([H])C2([H])N([H])C(=O)C1([H])N(C(=O)C([H])(N([H])C(=O)C([H])(N([H])C([H])([H])[H])C([H])([H])[H])C(C([H])([H])[H])(C([H])([H])[H])C([H])([H])[H])C([H])([H])c2c([H])c(OC([H])([H])c3sc4c(c3[H])C([H])(N([H])C(=O)N3C([H])([H])C([H])([H])C([H])([H])C([H])(n5nc(-c6c([H])c([H])c(Oc7c([H])c([H])c(F)c([H])c7F)c([H])c6[H])c(C(=O)N([H])[H])c5N([H])[H])C3([H])[H])C([H])([H])C4([H])[H])c([H])c([H])c2C1([H])[H]

$$$$
24:0:0
     RDKit          3D

 92100  0  0  1  0  0  0  0  0999 V2000
  -27.0350  -21.0200   19.2900 C   0  0  0  0  0  3  0  0  0  0  0  0
  -27.2680  -22.4330   19.1090 C   0  0  0  0  0  3  0  0  0  0  0  0
  -29.5090  -21.6480   18.8290 C   0  0  0  0  0  3  0  0  0  0  0  0
  -27.9610  -19.9040   19.2720 C   0  0  0  0  0  0  0  0  0  0  0  0
  -29.3560  -19.9370   18.9570 C   0  0  0  0  0  3  0  0  0  0  0  0
  -28.5230  -23.0590   18.8920 C   0  0  0  0  0  0  0  0  0  0  0  0
  -27.4760  -18.6050   19.8670 C   0  0  0  0  0  2  0  0  0  0  0  0
  -28.3920  -18.2780   21.0350 C   0  0  0  0  0  3  0  0  0  0  0  0
  -28.9050  -16.8950   21.2440 C   0  0  0  0  0  3  0  0  0  0  0  0
  -30.3240  -18.1250   19.2580 C   0  0  0  0  0  2  0  0  0  0  0  0
  -29.8530  -17.9540   20.7220 C   0  0  1  0  0  0  0  0  0  0  0  0
  -28.9940  -16.3240   22.6500 C   0  0  0  0  0  1  0  0  0  0  0  0
  -31.7630  -18.6870   19.1880 C   0  0  0  0  0  1  0  0  0  0  0  0
  -30.8120  -16.1260   18.7970 C   0  0  0  0  0  2  0  0  0  0  0  0
  -31.0050  -13.3990   18.1100 C   0  0  0  0  0  2  0  0  0  0  0  0
  -29.9740  -12.6770   17.1620 C   0  0  0  0  0  2  0  0  0  0  0  0
  -28.7310  -12.1910   17.9150 C   0  0  0  0  0  2  0  0  0  0  0  0
  -28.3340  -13.2430   18.9650 C   0  0  0  0  0  3  0  0  0  0  0  0
  -29.5280  -13.7850   19.8070 C   0  0  0  0  0  2  0  0  0  0  0  0
  -30.4260  -14.6300   18.9220 N   0  0  0  0  0  0  0  0  0  0  0  0
  -31.9370  -15.9340   18.2580 O   0  0  0  0  0  1  0  0  0  0  0  0
  -26.2820  -13.7190   20.3710 C   0  0  0  0  0  0  0  0  0  0  0  0
  -25.3000  -12.9400   20.9050 C   0  0  0  0  0  0  0  0  0  0  0  0
  -25.6310  -11.5940   20.5590 C   0  0  0  0  0  0  0  0  0  0  0  0
  -27.1690  -12.8580   19.7570 N   0  0  0  0  0  0  0  0  0  0  0  0
  -26.8000  -11.5560   19.9170 N   0  0  0  0  0  0  0  0  0  0  0  0
  -24.8590  -10.3570   20.7530 C   0  0  0  0  0  0  0  0  0  0  0  0
  -25.2640   -9.3650   21.6720 C   0  0  0  0  0  3  0  0  0  0  0  0
  -24.4870   -8.2020   21.8600 C   0  0  0  0  0  3  0  0  0  0  0  0
  -23.2870   -8.0220   21.1320 C   0  0  0  0  0  0  0  0  0  0  0  0
  -22.8980   -9.0030   20.2020 C   0  0  0  0  0  3  0  0  0  0  0  0
  -23.6750  -10.1570   20.0120 C   0  0  0  0  0  3  0  0  0  0  0  0
  -22.4820   -6.9130   21.2310 O   0  0  0  0  0  0  0  0  0  0  0  0
  -22.2340   -6.3080   22.4370 C   0  0  0  0  0  0  0  0  0  0  0  0
  -21.6510   -7.0100   23.5160 C   0  0  0  0  0  3  0  0  0  0  0  0
  -21.3490   -6.3330   24.7140 C   0  0  0  0  0  3  0  0  0  0  0  0
  -21.6210   -4.9580   24.8350 C   0  0  0  0  0  0  0  0  0  0  0  0
  -22.1960   -4.2560   23.7610 C   0  0  0  0  0  3  0  0  0  0  0  0
  -22.4980   -4.9290   22.5650 C   0  0  0  0  0  0  0  0  0  0  0  0
  -23.0330   -4.2440   21.5260 F   0  0  0  0  0  0  0  0  0  0  0  0
  -21.3240   -4.3060   25.9840 F   0  0  0  0  0  0  0  0  0  0  0  0
  -24.0630  -13.4410   21.5910 C   0  0  0  0  0  0  0  0  0  0  0  0
  -23.5400  -12.6770   22.5410 N   0  0  0  0  0  0  0  0  0  0  0  0
  -23.5890  -14.5450   21.3260 O   0  0  0  0  0  0  0  0  0  0  0  0
  -23.9450  -11.7820   22.7740 H   0  0  0  0  0  0  0  0  0  0  0  0
  -22.7210  -12.9900   23.0430 H   0  0  0  0  0  0  0  0  0  0  0  0
  -26.4670  -15.0930   20.3180 N   0  0  0  0  0  0  0  0  0  0  0  0
  -25.7770  -15.7350   20.6920 H   0  0  0  0  0  0  0  0  0  0  0  0
  -27.1770  -15.5470   19.7640 H   0  0  0  0  0  0  0  0  0  0  0  0
  -30.7170  -18.4440   21.7410 O   0  0  0  0  0  0  0  0  0  0  0  0
  -30.7940  -19.3840   21.6170 H   0  0  0  0  0  0  0  0  0  0  0  0
  -28.4890  -24.8050   18.8080 O   0  0  0  0  0  0  0  0  0  0  0  0
  -24.8000  -31.1160   22.3710 C   0  0  0  0  0  0  0  0  0  0  0  0
  -27.4960  -26.1330   18.9210 C   0  0  0  0  0  0  0  0  0  0  0  0
  -23.6710  -29.8260   20.6150 C   0  0  0  0  0  3  0  0  0  0  0  0
  -25.1770  -28.3010   19.0680 C   0  0  0  0  0  0  0  0  0  0  0  0
  -26.2590  -29.9680   20.5380 C   0  0  0  0  0  2  0  0  0  0  0  0
  -26.3690  -28.5680   19.7500 C   0  0  0  0  0  0  0  0  0  0  0  0
  -27.4880  -27.5250   19.6440 C   0  0  0  0  0  3  0  0  0  0  0  0
  -26.2600  -26.1810   18.1940 C   0  0  0  0  0  3  0  0  0  0  0  0
  -25.1810  -27.1420   18.2670 C   0  0  0  0  0  3  0  0  0  0  0  0
  -23.9500  -29.2420   19.1940 C   0  0  0  0  0  2  0  0  0  0  0  0
  -24.9370  -30.3420   21.2300 N   0  0  0  0  0  0  0  0  0  0  0  0
  -23.6930  -31.3430   22.8920 O   0  0  0  0  0  0  0  0  0  0  0  0
  -22.9600  -28.7660   21.5030 C   0  0  0  0  0  0  0  0  0  0  0  0
  -21.6150  -28.6860   21.4670 N   0  0  0  0  0  0  0  0  0  0  0  0
  -23.6380  -28.0100   22.2040 O   0  0  0  0  0  0  0  0  0  0  0  0
  -21.1120  -29.3460   20.8890 H   0  0  0  0  0  0  0  0  0  0  0  0
  -18.2180  -27.5840   22.1870 C   0  0  0  0  0  0  0  0  0  0  0  0
  -20.8050  -27.6730   22.1620 C   0  0  0  0  0  3  0  0  0  0  0  0
  -20.7310  -26.3640   21.3410 C   0  0  0  0  0  2  0  0  0  0  0  0
  -19.5020  -26.2920   20.4310 C   0  0  0  0  0  2  0  0  0  0  0  0
  -18.2170  -26.3820   21.2590 C   0  0  0  0  0  2  0  0  0  0  0  0
  -19.4300  -28.2010   22.6000 C   0  0  0  0  0  0  0  0  0  0  0  0
  -19.3690  -29.3290   23.4440 C   0  0  0  0  0  3  0  0  0  0  0  0
  -18.1300  -29.8430   23.8720 C   0  0  0  0  0  3  0  0  0  0  0  0
  -16.9340  -29.2240   23.4690 C   0  0  0  0  0  3  0  0  0  0  0  0
  -16.9800  -28.0940   22.6330 C   0  0  0  0  0  3  0  0  0  0  0  0
  -26.0280  -31.7650   23.0830 C   0  0  0  0  0  3  0  0  0  0  0  0
  -25.5900  -33.0240   23.7290 N   0  0  0  0  0  0  0  0  0  0  0  0
  -25.7860  -34.2580   23.2450 C   0  0  0  0  0  0  0  0  0  0  0  0
  -26.4010  -34.4650   22.1970 O   0  0  0  0  0  0  0  0  0  0  0  0
  -25.0250  -32.9240   24.5600 H   0  0  0  0  0  0  0  0  0  0  0  0
  -23.8870  -35.9110   23.4170 C   0  0  0  0  0  1  0  0  0  0  0  0
  -25.2150  -35.4530   24.0430 C   0  0  0  0  0  3  0  0  0  0  0  0
  -27.3100  -36.3540   24.9600 C   0  0  0  0  0  1  0  0  0  0  0  0
  -26.1400  -36.6070   24.1250 N   0  0  0  0  0  0  0  0  0  0  0  0
  -25.6610  -37.4250   24.4910 H   0  0  0  0  0  0  0  0  0  0  0  0
  -26.6770  -30.8210   24.1710 C   0  0  1  0  0  0  0  0  0  0  0  0
  -25.6720  -30.2910   25.2220 C   0  0  0  0  0  1  0  0  0  0  0  0
  -27.3490  -29.5940   23.5180 C   0  0  0  0  0  1  0  0  0  0  0  0
  -27.7970  -31.5790   24.9210 C   0  0  0  0  0  1  0  0  0  0  0  0
  2  1  2  0
  3  6  2  0
  3  5  1  0
  4  1  1  0
  4  7  1  0
  5  4  2  0
  6  2  1  0
  8  7  1  0
  8  9  1  0
  9 12  1  0
 11 10  1  6
 11  8  1  0
 11  9  1  0
 11 50  1  0
 13 10  1  0
 14 20  1  0
 15 20  1  0
 16 17  1  0
 16 15  1  0
 18 17  1  0
 18 25  1  0
 18 19  1  0
 20 19  1  0
 21 14  1  0
 22 23  2  0
 23 42  1  0
 24 27  1  0
 24 23  1  0
 25 26  1  0
 25 22  1  0
 26 24  2  0
 27 28  1  0
 28 29  2  0
 30 33  1  0
 30 29  1  0
 31 30  2  0
 32 31  1  0
 32 27  2  0
 33 34  1  0
 34 39  2  0
 34 35  1  0
 35 36  2  0
 36 37  1  0
 37 41  1  0
 38 37  2  0
 39 38  1  0
 40 39  1  0
 42 43  1  0
 43 45  1  0
 43 46  1  0
 44 42  2  0
 47 22  1  0
 47 48  1  0
 49 47  1  0
 51 50  1  0
 52  6  1  0
 52 54  1  0
 53 64  2  0
 54 59  1  0
 55 63  1  0
 55 65  1  0
 56 62  1  0
 56 58  1  0
 57 63  1  0
 58 57  1  0
 59 58  2  0
 60 61  1  0
 60 54  2  0
 61 56  2  0
 62 55  1  0
 63 53  1  0
 65 67  2  0
 66 65  1  0
 68 66  1  0
 69 74  2  0
 69 78  1  0
 70 66  1  0
 70 74  1  0
 71 70  1  0
 72 73  1  0
 72 71  1  0
 73 69  1  0
 74 75  1  0
 75 76  2  0
 77 76  1  0
 78 77  2  0
 79 53  1  0
 79 80  1  0
 79 89  1  0
 80 83  1  0
 81 80  1  0
 81 85  1  0
 82 81  2  0
 85 84  1  0
 85 87  1  0
 87 88  1  0
 87 86  1  0
 89 92  1  1
 89 90  1  0
 91 89  1  0
M  ISO  4   6 101  10 100  14 100  52 101
M  END
>  <TORSDO>  (25) 
F 17

>  <SCORE>  (25) 
-6.734

>  <name>  (25) 
24

>  <ligand_id>  (25) 
24

>  <original_smiles>  (25) 
[H]OC12C(C(=O)N3C([H])([H])C([H])([H])C([H])([H])C([H])(n4nc(-c5c([H])c([H])c(Oc6c([H])c([H])c(F)c([H])c6F)c([H])c5[H])c(C(=O)N([H])[H])c4N([H])[H])C3([H])[H])(C([H])([H])[H])c3c([H])c(Oc4c([H])c([H])c5c(c4[H])C([H])([H])N(C(=O)C([H])(N([H])C(=O)C([H])(N([H])C([H])([H])[H])C([H])([H])[H])C(C([H])([H])[H])(C([H])([H])[H])C([H])([H])[H])C([H])(C(=O)N([H])C4([H])c6c([H])c([H])c([H])c([H])c6C([H])([H])C([H])([H])C4([H])[H])C5([H])[H])c([H])c([H])c3C([H])([H])C1([H])C2([H])C([H])([H])[H]

>  <smiles>  (25) 
[H]OC12C(C(=O)N3C([H])([H])C([H])([H])C([H])([H])C([H])(n4nc(-c5c([H])c([H])c(Oc6c([H])c([H])c(F)c([H])c6F)c([H])c5[H])c(C(=O)N([H])[H])c4N([H])[H])C3([H])[H])(C([H])([H])[H])c3c([H])c(Oc4c([H])c([H])c5c(c4[H])C([H])([H])N(C(=O)C([H])(N([H])C(=O)C([H])(N([H])C([H])([H])[H])C([H])([H])[H])C(C([H])([H])[H])(C([H])([H])[H])C([H])([H])[H])C([H])(C(=O)N([H])C4([H])c6c([H])c([H])c([H])c([H])c6C([H])([H])C([H])([H])C4([H])[H])C5([H])[H])c([H])c([H])c3C([H])([H])C1([H])C2([H])C([H])([H])[H]

$$$$
25:0:0
     RDKit          3D

 91 99  0  0  1  0  0  0  0  0999 V2000
  -28.9620  -23.9740   19.5930 C   0  0  0  0  0  3  0  0  0  0  0  0
  -27.6620  -25.1450   21.2470 C   0  0  0  0  0  3  0  0  0  0  0  0
  -28.9830  -22.6670   20.3410 C   0  0  0  0  0  0  0  0  0  0  0  0
  -27.6650  -23.9710   22.0310 C   0  0  0  0  0  0  0  0  0  0  0  0
  -28.2860  -22.7500   21.5970 C   0  0  0  0  0  0  0  0  0  0  0  0
  -28.2960  -25.2460   20.0030 C   0  0  0  0  0  0  0  0  0  0  0  0
  -27.0060  -24.1150   23.4030 C   0  0  0  0  0  1  0  0  0  0  0  0
  -28.1970  -21.5400   22.5200 C   0  0  0  0  0  1  0  0  0  0  0  0
  -29.8010  -21.3340   19.8680 C   0  0  0  0  0  0  0  0  0  0  0  0
  -29.6520  -19.9630   20.2940 N   0  0  0  0  0  0  0  0  0  0  0  0
  -30.6810  -21.5470   19.0320 O   0  0  0  0  0  0  0  0  0  0  0  0
  -28.9040  -19.8340   20.9640 H   0  0  0  0  0  0  0  0  0  0  0  0
  -30.5370  -18.6390   20.0330 C   0  0  0  0  0  3  0  0  0  0  0  0
  -30.1100  -16.9940   20.2610 C   0  0  0  0  0  3  0  0  0  0  0  0
  -31.0120  -15.6090   19.9250 C   0  0  0  0  0  0  0  0  0  0  0  0
  -30.9680  -13.2410   18.9550 C   0  0  0  0  0  2  0  0  0  0  0  0
  -29.9640  -13.1650   17.7730 C   0  0  0  0  0  2  0  0  0  0  0  0
  -28.5330  -12.9090   18.2780 C   0  0  0  0  0  2  0  0  0  0  0  0
  -28.1620  -13.8130   19.4740 C   0  0  0  0  0  3  0  0  0  0  0  0
  -29.2690  -13.8490   20.5480 C   0  0  0  0  0  2  0  0  0  0  0  0
  -30.5010  -14.3030   19.8960 N   0  0  0  0  0  0  0  0  0  0  0  0
  -32.1850  -15.7240   19.5500 O   0  0  0  0  0  0  0  0  0  0  0  0
  -25.8450  -14.3340   20.4240 C   0  0  0  0  0  0  0  0  0  0  0  0
  -24.8060  -13.5340   20.8120 C   0  0  0  0  0  0  0  0  0  0  0  0
  -25.2620  -12.1880   20.6520 C   0  0  0  0  0  0  0  0  0  0  0  0
  -26.8620  -13.4760   20.0430 N   0  0  0  0  0  0  0  0  0  0  0  0
  -26.5260  -12.1750   20.2440 N   0  0  0  0  0  0  0  0  0  0  0  0
  -24.5410  -10.9160   20.8070 C   0  0  0  0  0  0  0  0  0  0  0  0
  -24.9720   -9.9230   21.7150 C   0  0  0  0  0  3  0  0  0  0  0  0
  -24.2550   -8.7140   21.8480 C   0  0  0  0  0  3  0  0  0  0  0  0
  -23.0890   -8.4930   21.0770 C   0  0  0  0  0  0  0  0  0  0  0  0
  -22.6830   -9.4700   20.1480 C   0  0  0  0  0  3  0  0  0  0  0  0
  -23.4020  -10.6680   20.0150 C   0  0  0  0  0  3  0  0  0  0  0  0
  -22.3380   -7.3430   21.1250 O   0  0  0  0  0  0  0  0  0  0  0  0
  -22.1720   -6.6360   22.2900 C   0  0  0  0  0  0  0  0  0  0  0  0
  -21.5960   -7.2210   23.4370 C   0  0  0  0  0  3  0  0  0  0  0  0
  -21.3870   -6.4440   24.5940 C   0  0  0  0  0  3  0  0  0  0  0  0
  -21.7430   -5.0810   24.6000 C   0  0  0  0  0  0  0  0  0  0  0  0
  -22.3130   -4.4940   23.4570 C   0  0  0  0  0  3  0  0  0  0  0  0
  -22.5250   -5.2700   22.3030 C   0  0  0  0  0  0  0  0  0  0  0  0
  -23.0590   -4.6970   21.1970 F   0  0  0  0  0  0  0  0  0  0  0  0
  -21.5320   -4.3330   25.7070 F   0  0  0  0  0  0  0  0  0  0  0  0
  -23.4320  -13.9850   21.2180 C   0  0  0  0  0  0  0  0  0  0  0  0
  -22.7640  -13.2290   22.0820 N   0  0  0  0  0  0  0  0  0  0  0  0
  -22.9630  -15.0470   20.8030 O   0  0  0  0  0  0  0  0  0  0  0  0
  -23.1550  -12.3720   22.4450 H   0  0  0  0  0  0  0  0  0  0  0  0
  -21.8450  -13.5070   22.3940 H   0  0  0  0  0  0  0  0  0  0  0  0
  -26.0060  -15.7140   20.3420 N   0  0  0  0  0  0  0  0  0  0  0  0
  -25.2520  -16.3660   20.5330 H   0  0  0  0  0  0  0  0  0  0  0  0
  -26.8380  -16.1640   19.9850 H   0  0  0  0  0  0  0  0  0  0  0  0
  -28.2920  -26.5880   19.3900 O   0  0  0  0  0  0  0  0  0  0  0  0
  -24.8080  -31.9560   23.1130 C   0  0  0  0  0  0  0  0  0  0  0  0
  -27.2360  -27.5650   19.5330 C   0  0  0  0  0  0  0  0  0  0  0  0
  -23.5250  -30.7180   21.4080 C   0  0  0  0  0  3  0  0  0  0  0  0
  -24.9050  -29.2910   19.7760 C   0  0  0  0  0  0  0  0  0  0  0  0
  -26.0690  -31.0150   21.1420 C   0  0  0  0  0  2  0  0  0  0  0  0
  -26.1150  -29.6920   20.3580 C   0  0  0  0  0  0  0  0  0  0  0  0
  -27.2820  -28.8460   20.2200 C   0  0  0  0  0  3  0  0  0  0  0  0
  -25.9980  -27.2660   18.9240 C   0  0  0  0  0  3  0  0  0  0  0  0
  -24.8570  -28.0940   19.0480 C   0  0  0  0  0  3  0  0  0  0  0  0
  -23.6790  -30.1710   19.9640 C   0  0  0  0  0  2  0  0  0  0  0  0
  -24.8220  -31.2480   21.9430 N   0  0  0  0  0  0  0  0  0  0  0  0
  -23.7500  -32.1830   23.7190 O   0  0  0  0  0  0  0  0  0  0  0  0
  -22.8970  -29.6230   22.3000 C   0  0  0  0  0  0  0  0  0  0  0  0
  -21.5680  -29.4310   22.1890 N   0  0  0  0  0  0  0  0  0  0  0  0
  -23.6020  -28.9530   23.0580 O   0  0  0  0  0  0  0  0  0  0  0  0
  -21.0560  -30.0230   21.5490 H   0  0  0  0  0  0  0  0  0  0  0  0
  -18.2180  -28.1470   22.7110 C   0  0  0  0  0  0  0  0  0  0  0  0
  -20.7830  -28.4150   22.8990 C   0  0  0  0  0  3  0  0  0  0  0  0
  -20.8760  -27.0450   22.1900 C   0  0  0  0  0  2  0  0  0  0  0  0
  -19.7380  -26.8030   21.1940 C   0  0  0  0  0  2  0  0  0  0  0  0
  -18.3810  -26.8690   21.9020 C   0  0  0  0  0  2  0  0  0  0  0  0
  -19.3470  -28.8800   23.1640 C   0  0  0  0  0  0  0  0  0  0  0  0
  -19.1410  -30.0740   23.8860 C   0  0  0  0  0  3  0  0  0  0  0  0
  -17.8400  -30.5400   24.1520 C   0  0  0  0  0  3  0  0  0  0  0  0
  -16.7260  -29.8010   23.7160 C   0  0  0  0  0  3  0  0  0  0  0  0
  -16.9150  -28.6050   23.0000 C   0  0  0  0  0  3  0  0  0  0  0  0
  -26.1170  -32.5310   23.7320 C   0  0  0  0  0  3  0  0  0  0  0  0
  -26.7190  -31.6180   24.8710 C   0  0  1  0  0  0  0  0  0  0  0  0
  -25.6950  -31.2360   25.9660 C   0  0  0  0  0  1  0  0  0  0  0  0
  -27.2880  -30.3040   24.2820 C   0  0  0  0  0  1  0  0  0  0  0  0
  -27.9060  -32.3380   25.5490 C   0  0  0  0  0  1  0  0  0  0  0  0
  -25.8160  -33.8720   24.2570 N   0  0  0  0  0  0  0  0  0  0  0  0
  -26.0890  -35.0210   23.6240 C   0  0  0  0  0  0  0  0  0  0  0  0
  -26.6970  -35.0630   22.5500 O   0  0  0  0  0  0  0  0  0  0  0  0
  -25.2870  -33.9110   25.1140 H   0  0  0  0  0  0  0  0  0  0  0  0
  -24.3280  -36.8090   23.6020 C   0  0  0  0  0  1  0  0  0  0  0  0
  -25.6190  -36.3290   24.2850 C   0  0  0  0  0  3  0  0  0  0  0  0
  -27.7880  -37.1350   25.1060 C   0  0  0  0  0  1  0  0  0  0  0  0
  -26.6340  -37.4060   24.2500 N   0  0  0  0  0  0  0  0  0  0  0  0
  -26.2300  -38.2930   24.5390 H   0  0  0  0  0  0  0  0  0  0  0  0
  1  6  2  0
  1  3  1  0
  2  4  2  0
  3  5  2  0
  4  7  1  0
  5  4  1  0
  5  8  1  0
  6  2  1  0
  9 10  1  0
  9  3  1  0
 10 12  1  0
 11  9  2  0
 13 14  2  0
 13 10  1  0
 15 14  1  0
 16 21  1  0
 17 18  1  0
 17 16  1  0
 19 18  1  0
 19 26  1  0
 19 20  1  0
 21 15  1  0
 21 20  1  0
 22 15  2  0
 23 24  2  0
 24 43  1  0
 25 28  1  0
 25 24  1  0
 26 27  1  0
 26 23  1  0
 27 25  2  0
 28 29  1  0
 29 30  2  0
 31 34  1  0
 31 30  1  0
 32 31  2  0
 33 32  1  0
 33 28  2  0
 34 35  1  0
 35 40  2  0
 35 36  1  0
 36 37  2  0
 37 38  1  0
 38 42  1  0
 39 38  2  0
 40 39  1  0
 41 40  1  0
 43 44  1  0
 44 47  1  0
 44 46  1  0
 45 43  2  0
 48 23  1  0
 48 49  1  0
 50 48  1  0
 51 53  1  0
 51  6  1  0
 52 63  2  0
 53 58  1  0
 54 62  1  0
 54 64  1  0
 55 61  1  0
 55 57  1  0
 56 62  1  0
 57 56  1  0
 58 57  2  0
 59 60  1  0
 59 53  2  0
 60 55  2  0
 61 54  1  0
 62 52  1  0
 64 66  2  0
 65 64  1  0
 67 65  1  0
 68 77  2  0
 68 73  1  0
 69 65  1  0
 69 73  1  0
 70 69  1  0
 71 72  1  0
 71 70  1  0
 72 68  1  0
 73 74  2  0
 74 75  1  0
 76 75  2  0
 77 76  1  0
 78 52  1  0
 78 83  1  0
 78 79  1  0
 79 82  1  1
 79 80  1  0
 81 79  1  0
 83 86  1  0
 84 83  1  0
 84 88  1  0
 85 84  2  0
 88 87  1  0
 90 88  1  0
 90 91  1  0
 90 89  1  0
M  ISO  4   6 101  14 100  15 100  51 101
M  END
>  <TORSDO>  (26) 
F 19

>  <SCORE>  (26) 
-9.942

>  <name>  (26) 
25

>  <ligand_id>  (26) 
25

>  <original_smiles>  (26) 
[H]c1c([H])c([H])c2c(c1[H])C([H])([H])C([H])([H])C([H])([H])C2([H])N([H])C(=O)C1([H])N(C(=O)C([H])(N([H])C(=O)C([H])(N([H])C([H])([H])[H])C([H])([H])[H])C(C([H])([H])[H])(C([H])([H])[H])C([H])([H])[H])C([H])([H])c2c([H])c(Oc3c([H])c(C(=O)N([H])C([H])([H])C([H])([H])C(=O)N4C([H])([H])C([H])([H])C([H])([H])C([H])(n5nc(-c6c([H])c([H])c(Oc7c([H])c([H])c(F)c([H])c7F)c([H])c6[H])c(C(=O)N([H])[H])c5N([H])[H])C4([H])[H])c(C([H])([H])[H])c(C([H])([H])[H])c3[H])c([H])c([H])c2C1([H])[H]

>  <smiles>  (26) 
[H]c1c([H])c([H])c2c(c1[H])C([H])([H])C([H])([H])C([H])([H])C2([H])N([H])C(=O)C1([H])N(C(=O)C([H])(N([H])C(=O)C([H])(N([H])C([H])([H])[H])C([H])([H])[H])C(C([H])([H])[H])(C([H])([H])[H])C([H])([H])[H])C([H])([H])c2c([H])c(Oc3c([H])c(C(=O)N([H])C([H])([H])C([H])([H])C(=O)N4C([H])([H])C([H])([H])C([H])([H])C([H])(n5nc(-c6c([H])c([H])c(Oc7c([H])c([H])c(F)c([H])c7F)c([H])c6[H])c(C(=O)N([H])[H])c5N([H])[H])C4([H])[H])c(C([H])([H])[H])c(C([H])([H])[H])c3[H])c([H])c([H])c2C1([H])[H]

$$$$
26:0:0
     RDKit          3D

 88 97  0  0  1  0  0  0  0  0999 V2000
  -28.6950  -21.3470   19.7340 C   0  0  0  0  0  3  0  0  0  0  0  0
  -29.4400  -20.1070   20.3650 C   0  0  0  0  0  0  0  0  0  0  0  0
  -29.9480  -20.6740   21.5010 C   0  0  0  0  0  0  0  0  0  0  0  0
  -28.6710  -22.7210   20.3290 C   0  0  0  0  0  0  0  0  0  0  0  0
  -30.8500  -19.7890   22.2710 C   0  0  0  0  0  2  0  0  0  0  0  0
  -31.2020  -18.6130   21.3170 C   0  0  0  0  0  2  0  0  0  0  0  0
  -30.1510  -18.4820   20.1640 C   0  0  0  0  0  3  0  0  0  0  0  0
  -29.5940  -22.4200   21.8130 S   0  0  0  0  0  0  0  0  0  0  0  0
  -30.5180  -15.5160   20.0980 C   0  0  0  0  0  0  0  0  0  0  0  0
  -30.5290  -13.0260   19.2760 C   0  0  0  0  0  2  0  0  0  0  0  0
  -29.6030  -12.7150   18.0680 C   0  0  0  0  0  2  0  0  0  0  0  0
  -28.1680  -12.4150   18.5360 C   0  0  0  0  0  2  0  0  0  0  0  0
  -27.7100  -13.4000   19.6390 C   0  0  0  0  0  3  0  0  0  0  0  0
  -28.7660  -13.6690   20.7330 C   0  0  0  0  0  2  0  0  0  0  0  0
  -29.9620  -14.1940   20.0590 N   0  0  0  0  0  0  0  0  0  0  0  0
  -31.7410  -15.4950   19.8850 O   0  0  0  0  0  0  0  0  0  0  0  0
  -29.7690  -16.8230   20.1800 N   0  0  0  0  0  0  0  0  0  0  0  0
  -28.7730  -16.6720   20.2600 H   0  0  0  0  0  0  0  0  0  0  0  0
  -25.3830  -13.9360   20.5180 C   0  0  0  0  0  0  0  0  0  0  0  0
  -24.3320  -13.1480   20.9000 C   0  0  0  0  0  0  0  0  0  0  0  0
  -24.7960  -11.7990   20.8180 C   0  0  0  0  0  0  0  0  0  0  0  0
  -26.4090  -13.0640   20.1990 N   0  0  0  0  0  0  0  0  0  0  0  0
  -26.0730  -11.7730   20.4510 N   0  0  0  0  0  0  0  0  0  0  0  0
  -24.0690  -10.5360   21.0080 C   0  0  0  0  0  0  0  0  0  0  0  0
  -24.5070   -9.5650   21.9350 C   0  0  0  0  0  3  0  0  0  0  0  0
  -23.7780   -8.3690   22.1160 C   0  0  0  0  0  3  0  0  0  0  0  0
  -22.5980   -8.1360   21.3670 C   0  0  0  0  0  0  0  0  0  0  0  0
  -22.1800   -9.0990   20.4300 C   0  0  0  0  0  3  0  0  0  0  0  0
  -22.9080  -10.2860   20.2490 C   0  0  0  0  0  3  0  0  0  0  0  0
  -21.8370   -6.9960   21.4550 O   0  0  0  0  0  0  0  0  0  0  0  0
  -21.7690   -6.2650   22.6160 C   0  0  0  0  0  0  0  0  0  0  0  0
  -21.2810   -6.8250   23.8140 C   0  0  0  0  0  3  0  0  0  0  0  0
  -21.1600   -6.0210   24.9670 C   0  0  0  0  0  3  0  0  0  0  0  0
  -21.5170   -4.6600   24.9180 C   0  0  0  0  0  0  0  0  0  0  0  0
  -21.9980   -4.1020   23.7210 C   0  0  0  0  0  3  0  0  0  0  0  0
  -22.1230   -4.9040   22.5720 C   0  0  0  0  0  0  0  0  0  0  0  0
  -22.5660   -4.3540   21.4160 F   0  0  0  0  0  0  0  0  0  0  0  0
  -21.3950   -3.8840   26.0220 F   0  0  0  0  0  0  0  0  0  0  0  0
  -22.9460  -13.6240   21.2250 C   0  0  0  0  0  0  0  0  0  0  0  0
  -22.2530  -12.9160   22.1090 N   0  0  0  0  0  0  0  0  0  0  0  0
  -22.4880  -14.6510   20.7230 O   0  0  0  0  0  0  0  0  0  0  0  0
  -22.6400  -12.0790   22.5250 H   0  0  0  0  0  0  0  0  0  0  0  0
  -21.3190  -13.1980   22.3640 H   0  0  0  0  0  0  0  0  0  0  0  0
  -25.5490  -15.3100   20.3900 N   0  0  0  0  0  0  0  0  0  0  0  0
  -24.8030  -15.9700   20.5810 H   0  0  0  0  0  0  0  0  0  0  0  0
  -26.4210  -15.7600   20.1500 H   0  0  0  0  0  0  0  0  0  0  0  0
  -27.8350  -24.2530   20.0190 C   0  0  0  0  0  2  0  0  0  0  0  0
  -28.1780  -25.8500   20.3490 O   0  0  0  0  0  0  0  0  0  0  0  0
  -24.6730  -31.9020   23.2930 C   0  0  0  0  0  0  0  0  0  0  0  0
  -27.2140  -27.0030   20.2590 C   0  0  0  0  0  0  0  0  0  0  0  0
  -23.4800  -30.5250   21.6470 C   0  0  0  0  0  3  0  0  0  0  0  0
  -24.9290  -28.9210   20.2120 C   0  0  0  0  0  0  0  0  0  0  0  0
  -26.0540  -30.7190   21.5020 C   0  0  0  0  0  2  0  0  0  0  0  0
  -26.1210  -29.3090   20.8370 C   0  0  0  0  0  0  0  0  0  0  0  0
  -27.2560  -28.3730   20.8380 C   0  0  0  0  0  3  0  0  0  0  0  0
  -25.9950  -26.7760   19.5820 C   0  0  0  0  0  3  0  0  0  0  0  0
  -24.8910  -27.6690   19.5740 C   0  0  0  0  0  3  0  0  0  0  0  0
  -23.7120  -29.8470   20.2680 C   0  0  0  0  0  2  0  0  0  0  0  0
  -24.7600  -31.0720   22.2020 N   0  0  0  0  0  0  0  0  0  0  0  0
  -23.5810  -32.1920   23.8120 O   0  0  0  0  0  0  0  0  0  0  0  0
  -22.7780  -29.5250   22.6000 C   0  0  0  0  0  0  0  0  0  0  0  0
  -21.4470  -29.3610   22.4710 N   0  0  0  0  0  0  0  0  0  0  0  0
  -23.4380  -28.8910   23.4270 O   0  0  0  0  0  0  0  0  0  0  0  0
  -20.9610  -29.9340   21.7940 H   0  0  0  0  0  0  0  0  0  0  0  0
  -18.0750  -28.1230   22.9540 C   0  0  0  0  0  0  0  0  0  0  0  0
  -20.6290  -28.4120   23.2330 C   0  0  0  0  0  3  0  0  0  0  0  0
  -20.7480  -26.9830   22.6560 C   0  0  0  0  0  2  0  0  0  0  0  0
  -19.6570  -26.6600   21.6300 C   0  0  0  0  0  2  0  0  0  0  0  0
  -18.2700  -26.7800   22.2700 C   0  0  0  0  0  2  0  0  0  0  0  0
  -19.1830  -28.8980   23.3900 C   0  0  0  0  0  0  0  0  0  0  0  0
  -18.9460  -30.1540   23.9930 C   0  0  0  0  0  3  0  0  0  0  0  0
  -17.6350  -30.6450   24.1460 C   0  0  0  0  0  3  0  0  0  0  0  0
  -16.5430  -29.8680   23.7260 C   0  0  0  0  0  3  0  0  0  0  0  0
  -16.7630  -28.6090   23.1390 C   0  0  0  0  0  3  0  0  0  0  0  0
  -25.9400  -32.5420   23.9370 C   0  0  0  0  0  3  0  0  0  0  0  0
  -25.6280  -33.9460   24.2600 N   0  0  0  0  0  0  0  0  0  0  0  0
  -25.9410  -34.9980   23.4920 C   0  0  0  0  0  0  0  0  0  0  0  0
  -26.5850  -34.8890   22.4460 O   0  0  0  0  0  0  0  0  0  0  0  0
  -25.0390  -34.1020   25.0650 H   0  0  0  0  0  0  0  0  0  0  0  0
  -24.1840  -36.7780   23.2050 C   0  0  0  0  0  1  0  0  0  0  0  0
  -25.4690  -36.3920   23.9530 C   0  0  0  0  0  3  0  0  0  0  0  0
  -27.6330  -37.3080   24.6680 C   0  0  0  0  0  1  0  0  0  0  0  0
  -26.4900  -37.4480   23.7710 N   0  0  0  0  0  0  0  0  0  0  0  0
  -26.0850  -38.3710   23.9130 H   0  0  0  0  0  0  0  0  0  0  0  0
  -26.4190  -31.7830   25.2360 C   0  0  1  0  0  0  0  0  0  0  0  0
  -25.2970  -31.5720   26.2800 C   0  0  0  0  0  1  0  0  0  0  0  0
  -27.0000  -30.3950   24.8830 C   0  0  0  0  0  1  0  0  0  0  0  0
  -27.5640  -32.5740   25.9120 C   0  0  0  0  0  1  0  0  0  0  0  0
  1  4  2  0
  1  2  1  0
  2  3  2  0
  3  8  1  0
  3  5  1  0
  4  8  1  0
  6  5  1  0
  7 17  1  0
  7  2  1  0
  7  6  1  0
  9 17  1  0
 10 15  1  0
 11 12  1  0
 11 10  1  0
 13 12  1  0
 13 22  1  0
 13 14  1  0
 15  9  1  0
 15 14  1  0
 16  9  2  0
 17 18  1  0
 19 20  2  0
 20 39  1  0
 21 20  1  0
 21 24  1  0
 22 23  1  0
 22 19  1  0
 23 21  2  0
 24 25  1  0
 25 26  2  0
 27 30  1  0
 27 26  1  0
 28 27  2  0
 29 28  1  0
 29 24  2  0
 30 31  1  0
 31 32  1  0
 32 33  2  0
 34 33  1  0
 34 38  1  0
 35 34  2  0
 36 31  2  0
 36 35  1  0
 37 36  1  0
 39 40  1  0
 40 43  1  0
 40 42  1  0
 41 39  2  0
 44 19  1  0
 44 45  1  0
 46 44  1  0
 47  4  1  0
 47 48  1  0
 49 60  2  0
 50 48  1  0
 50 55  1  0
 51 59  1  0
 51 61  1  0
 52 58  1  0
 52 54  1  0
 53 59  1  0
 54 55  2  0
 54 53  1  0
 56 50  2  0
 57 56  1  0
 57 52  2  0
 58 51  1  0
 59 49  1  0
 61 63  2  0
 62 61  1  0
 64 62  1  0
 65 74  2  0
 65 70  1  0
 66 62  1  0
 66 70  1  0
 67 66  1  0
 68 69  1  0
 68 67  1  0
 69 65  1  0
 70 71  2  0
 71 72  1  0
 73 72  2  0
 74 73  1  0
 75 49  1  0
 75 76  1  0
 75 85  1  0
 76 79  1  0
 77 81  1  0
 77 76  1  0
 78 77  2  0
 81 80  1  0
 83 84  1  0
 83 81  1  0
 83 82  1  0
 85 88  1  1
 85 86  1  0
 87 85  1  0
M  ISO  4   9 100  17 100  47 101  48 101
M  END
>  <TORSDO>  (27) 
F 17

>  <SCORE>  (27) 
-16.705

>  <name>  (27) 
26

>  <ligand_id>  (27) 
26

>  <original_smiles>  (27) 
[H]c1c([H])c([H])c2c(c1[H])C([H])([H])C([H])([H])C([H])([H])C2([H])N([H])C(=O)C1([H])N(C(=O)C([H])(N([H])C(=O)C([H])(N([H])C([H])([H])[H])C([H])([H])[H])C(C([H])([H])[H])(C([H])([H])[H])C([H])([H])[H])C([H])([H])c2c([H])c(OC([H])([H])c3sc4c(c3[H])C([H])(N([H])C(=O)N3C([H])([H])C([H])([H])C([H])([H])C([H])(n5nc(-c6c([H])c([H])c(Oc7c([H])c([H])c(F)c([H])c7F)c([H])c6[H])c(C(=O)N([H])[H])c5N([H])[H])C3([H])[H])C([H])([H])C4([H])[H])c([H])c([H])c2C1([H])[H]

>  <smiles>  (27) 
[H]c1c([H])c([H])c2c(c1[H])C([H])([H])C([H])([H])C([H])([H])C2([H])N([H])C(=O)C1([H])N(C(=O)C([H])(N([H])C(=O)C([H])(N([H])C([H])([H])[H])C([H])([H])[H])C(C([H])([H])[H])(C([H])([H])[H])C([H])([H])[H])C([H])([H])c2c([H])c(OC([H])([H])c3sc4c(c3[H])C([H])(N([H])C(=O)N3C([H])([H])C([H])([H])C([H])([H])C([H])(n5nc(-c6c([H])c([H])c(Oc7c([H])c([H])c(F)c([H])c7F)c([H])c6[H])c(C(=O)N([H])[H])c5N([H])[H])C3([H])[H])C([H])([H])C4([H])[H])c([H])c([H])c2C1([H])[H]

$$$$
27:0:0
     RDKit          3D

 92101  0  0  1  0  0  0  0  0999 V2000
  -26.7580  -23.7550   21.6420 C   0  0  0  0  0  3  0  0  0  0  0  0
  -27.1180  -25.0100   21.1350 C   0  0  0  0  0  3  0  0  0  0  0  0
  -28.7740  -23.9000   19.7390 C   0  0  0  0  0  3  0  0  0  0  0  0
  -28.4400  -22.5480   20.2690 C   0  0  0  0  0  0  0  0  0  0  0  0
  -27.3920  -22.5640   21.2470 C   0  0  0  0  0  0  0  0  0  0  0  0
  -28.1150  -25.1740   20.1540 C   0  0  0  0  0  0  0  0  0  0  0  0
  -26.8580  -21.3050   21.9400 C   0  0  0  0  0  1  0  0  0  0  0  0
  -30.1650  -20.4410   20.8650 C   0  0  0  0  0  2  0  0  0  0  0  0
  -29.3070  -20.3370   18.5750 C   0  0  0  0  0  2  0  0  0  0  0  0
  -30.2260  -18.8450   20.9780 C   0  0  0  0  0  2  0  0  0  0  0  0
  -29.3340  -18.7160   18.6620 C   0  0  0  0  0  2  0  0  0  0  0  0
  -29.0320  -21.0340   19.9560 C   0  0  0  0  0  3  0  0  0  0  0  0
  -30.3490  -17.9880   19.6580 C   0  0  0  0  0  3  0  0  0  0  0  0
  -31.0080  -15.3280   19.7520 C   0  0  0  0  0  0  0  0  0  0  0  0
  -30.9260  -12.9530   18.9270 C   0  0  0  0  0  2  0  0  0  0  0  0
  -29.9230  -12.8490   17.7570 C   0  0  0  0  0  2  0  0  0  0  0  0
  -28.4940  -12.6080   18.2850 C   0  0  0  0  0  2  0  0  0  0  0  0
  -28.1220  -13.5570   19.4510 C   0  0  0  0  0  3  0  0  0  0  0  0
  -29.2430  -13.6370   20.5110 C   0  0  0  0  0  2  0  0  0  0  0  0
  -30.4660  -14.0540   19.8120 N   0  0  0  0  0  0  0  0  0  0  0  0
  -32.1830  -15.4530   19.3980 O   0  0  0  0  0  0  0  0  0  0  0  0
  -30.1650  -16.4480   19.8720 N   0  0  0  0  0  0  0  0  0  0  0  0
  -29.2200  -16.1860   20.1130 H   0  0  0  0  0  0  0  0  0  0  0  0
  -25.7960  -14.0720   20.3980 C   0  0  0  0  0  0  0  0  0  0  0  0
  -24.7730  -13.2660   20.8140 C   0  0  0  0  0  0  0  0  0  0  0  0
  -25.2470  -11.9260   20.6820 C   0  0  0  0  0  0  0  0  0  0  0  0
  -26.8290  -13.2220   20.0370 N   0  0  0  0  0  0  0  0  0  0  0  0
  -26.5090  -11.9210   20.2710 N   0  0  0  0  0  0  0  0  0  0  0  0
  -24.5470  -10.6460   20.8640 C   0  0  0  0  0  0  0  0  0  0  0  0
  -24.9340   -9.7270   21.8660 C   0  0  0  0  0  3  0  0  0  0  0  0
  -24.2330   -8.5130   22.0340 C   0  0  0  0  0  3  0  0  0  0  0  0
  -23.1330   -8.2080   21.1970 C   0  0  0  0  0  0  0  0  0  0  0  0
  -22.7670   -9.1140   20.1860 C   0  0  0  0  0  3  0  0  0  0  0  0
  -23.4690  -10.3190   20.0180 C   0  0  0  0  0  3  0  0  0  0  0  0
  -22.4100   -7.0430   21.2700 O   0  0  0  0  0  0  0  0  0  0  0  0
  -22.1070   -6.4580   22.4750 C   0  0  0  0  0  0  0  0  0  0  0  0
  -21.3710   -7.1360   23.4690 C   0  0  0  0  0  3  0  0  0  0  0  0
  -21.0240   -6.4740   24.6640 C   0  0  0  0  0  3  0  0  0  0  0  0
  -21.4020   -5.1320   24.8610 C   0  0  0  0  0  0  0  0  0  0  0  0
  -22.1300   -4.4530   23.8690 C   0  0  0  0  0  3  0  0  0  0  0  0
  -22.4800   -5.1150   22.6780 C   0  0  0  0  0  0  0  0  0  0  0  0
  -23.1640   -4.4480   21.7160 F   0  0  0  0  0  0  0  0  0  0  0  0
  -21.0630   -4.4920   26.0050 F   0  0  0  0  0  0  0  0  0  0  0  0
  -23.3950  -13.7120   21.2160 C   0  0  0  0  0  0  0  0  0  0  0  0
  -22.7460  -12.9700   22.1050 N   0  0  0  0  0  0  0  0  0  0  0  0
  -22.9070  -14.7520   20.7760 O   0  0  0  0  0  0  0  0  0  0  0  0
  -23.1580  -12.1320   22.4860 H   0  0  0  0  0  0  0  0  0  0  0  0
  -21.8240  -13.2460   22.4130 H   0  0  0  0  0  0  0  0  0  0  0  0
  -25.9270  -15.4530   20.2730 N   0  0  0  0  0  0  0  0  0  0  0  0
  -25.1480  -16.0770   20.4510 H   0  0  0  0  0  0  0  0  0  0  0  0
  -26.7140  -15.9170   19.8410 H   0  0  0  0  0  0  0  0  0  0  0  0
  -28.3590  -26.5560   19.7330 O   0  0  0  0  0  0  0  0  0  0  0  0
  -24.8110  -31.9510   23.2750 C   0  0  0  0  0  0  0  0  0  0  0  0
  -27.3330  -27.5600   19.7890 C   0  0  0  0  0  0  0  0  0  0  0  0
  -23.5760  -30.6900   21.5550 C   0  0  0  0  0  3  0  0  0  0  0  0
  -24.9970  -29.2570   19.9650 C   0  0  0  0  0  0  0  0  0  0  0  0
  -26.1230  -30.9890   21.3540 C   0  0  0  0  0  2  0  0  0  0  0  0
  -26.1880  -29.6620   20.5870 C   0  0  0  0  0  0  0  0  0  0  0  0
  -27.3570  -28.8220   20.4970 C   0  0  0  0  0  3  0  0  0  0  0  0
  -26.1300  -27.2690   19.1140 C   0  0  0  0  0  3  0  0  0  0  0  0
  -24.9760  -28.0700   19.2150 C   0  0  0  0  0  3  0  0  0  0  0  0
  -23.7670  -30.1350   20.1200 C   0  0  0  0  0  2  0  0  0  0  0  0
  -24.8580  -31.2260   22.1170 N   0  0  0  0  0  0  0  0  0  0  0  0
  -23.7360  -32.1840   23.8490 O   0  0  0  0  0  0  0  0  0  0  0  0
  -22.9290  -29.5980   22.4440 C   0  0  0  0  0  0  0  0  0  0  0  0
  -21.6040  -29.4100   22.3150 N   0  0  0  0  0  0  0  0  0  0  0  0
  -23.6210  -28.9290   23.2160 O   0  0  0  0  0  0  0  0  0  0  0  0
  -21.0940  -30.0280   21.6990 H   0  0  0  0  0  0  0  0  0  0  0  0
  -18.2650  -28.0640   22.7040 C   0  0  0  0  0  0  0  0  0  0  0  0
  -20.8120  -28.3880   23.0060 C   0  0  0  0  0  3  0  0  0  0  0  0
  -20.9660  -27.0060   22.3310 C   0  0  0  0  0  2  0  0  0  0  0  0
  -19.8730  -26.7070   21.3010 C   0  0  0  0  0  2  0  0  0  0  0  0
  -18.4880  -26.7620   21.9520 C   0  0  0  0  0  2  0  0  0  0  0  0
  -19.3570  -28.8310   23.1910 C   0  0  0  0  0  0  0  0  0  0  0  0
  -19.0940  -30.0470   23.8610 C   0  0  0  0  0  3  0  0  0  0  0  0
  -17.7740  -30.4970   24.0430 C   0  0  0  0  0  3  0  0  0  0  0  0
  -16.6980  -29.7260   23.5730 C   0  0  0  0  0  3  0  0  0  0  0  0
  -16.9430  -28.5110   22.9090 C   0  0  0  0  0  3  0  0  0  0  0  0
  -26.1020  -32.5380   23.9210 C   0  0  0  0  0  3  0  0  0  0  0  0
  -25.8050  -33.9180   24.3360 N   0  0  0  0  0  0  0  0  0  0  0  0
  -26.1390  -35.0120   23.6410 C   0  0  0  0  0  0  0  0  0  0  0  0
  -26.7960  -34.9680   22.5980 O   0  0  0  0  0  0  0  0  0  0  0  0
  -25.2200  -34.0280   25.1510 H   0  0  0  0  0  0  0  0  0  0  0  0
  -24.4190  -36.8370   23.4260 C   0  0  0  0  0  1  0  0  0  0  0  0
  -25.6700  -36.3750   24.1890 C   0  0  0  0  0  3  0  0  0  0  0  0
  -27.8190  -37.1990   25.0430 C   0  0  0  0  0  1  0  0  0  0  0  0
  -26.7080  -37.4250   24.1230 N   0  0  0  0  0  0  0  0  0  0  0  0
  -26.3110  -38.3370   24.3260 H   0  0  0  0  0  0  0  0  0  0  0  0
  -26.6220  -31.6920   25.1490 C   0  0  1  0  0  0  0  0  0  0  0  0
  -25.5310  -31.4010   26.2070 C   0  0  0  0  0  1  0  0  0  0  0  0
  -27.1970  -30.3350   24.6800 C   0  0  0  0  0  1  0  0  0  0  0  0
  -27.7800  -32.4440   25.8470 C   0  0  0  0  0  1  0  0  0  0  0  0
  2  1  2  0
  3  6  2  0
  3  4  1  0
  4  5  2  0
  5  1  1  0
  5  7  1  0
  6  2  1  0
  8 10  1  0
  9 11  1  0
  9 12  1  0
 11 13  1  0
 12  4  1  0
 12  8  1  0
 13 22  1  0
 13 10  1  0
 14 20  1  0
 14 22  1  0
 15 20  1  0
 16 17  1  0
 16 15  1  0
 18 17  1  0
 18 27  1  0
 18 19  1  0
 20 19  1  0
 21 14  2  0
 22 23  1  0
 24 25  2  0
 25 44  1  0
 26 25  1  0
 26 29  1  0
 27 28  1  0
 27 24  1  0
 28 26  2  0
 29 30  1  0
 30 31  2  0
 32 35  1  0
 32 31  1  0
 33 32  2  0
 34 33  1  0
 34 29  2  0
 35 36  1  0
 36 41  2  0
 36 37  1  0
 37 38  2  0
 38 39  1  0
 39 43  1  0
 40 39  2  0
 41 40  1  0
 42 41  1  0
 44 45  1  0
 45 48  1  0
 45 47  1  0
 46 44  2  0
 49 24  1  0
 49 50  1  0
 51 49  1  0
 52 54  1  0
 52  6  1  0
 53 64  2  0
 54 59  1  0
 55 63  1  0
 55 65  1  0
 56 62  1  0
 56 58  1  0
 57 63  1  0
 58 57  1  0
 59 58  2  0
 60 61  1  0
 60 54  2  0
 61 56  2  0
 62 55  1  0
 63 53  1  0
 65 67  2  0
 66 65  1  0
 68 66  1  0
 69 78  2  0
 69 74  1  0
 70 66  1  0
 70 74  1  0
 71 70  1  0
 72 73  1  0
 72 71  1  0
 73 69  1  0
 74 75  2  0
 75 76  1  0
 77 76  2  0
 78 77  1  0
 79 53  1  0
 79 80  1  0
 79 89  1  0
 80 83  1  0
 81 85  1  0
 81 80  1  0
 82 81  2  0
 85 84  1  0
 87 85  1  0
 87 88  1  0
 87 86  1  0
 89 92  1  1
 89 90  1  0
 91 89  1  0
M  ISO  4   6 101  14 100  22 100  52 101
M  END
>  <TORSDO>  (28) 
F 17

>  <SCORE>  (28) 
-10.931

>  <name>  (28) 
27

>  <ligand_id>  (28) 
27

>  <original_smiles>  (28) 
[H]c1c([H])c([H])c2c(c1[H])C([H])([H])C([H])([H])C([H])([H])C2([H])N([H])C(=O)C1([H])N(C(=O)C([H])(N([H])C(=O)C([H])(N([H])C([H])([H])[H])C([H])([H])[H])C(C([H])([H])[H])(C([H])([H])[H])C([H])([H])[H])C([H])([H])c2c([H])c(Oc3c([H])c([H])c(C([H])([H])[H])c(C4([H])C([H])([H])C([H])([H])C([H])(N([H])C(=O)N5C([H])([H])C([H])([H])C([H])([H])C([H])(n6nc(-c7c([H])c([H])c(Oc8c([H])c([H])c(F)c([H])c8F)c([H])c7[H])c(C(=O)N([H])[H])c6N([H])[H])C5([H])[H])C([H])([H])C4([H])[H])c3[H])c([H])c([H])c2C1([H])[H]

>  <smiles>  (28) 
[H]c1c([H])c([H])c2c(c1[H])C([H])([H])C([H])([H])C([H])([H])C2([H])N([H])C(=O)C1([H])N(C(=O)C([H])(N([H])C(=O)C([H])(N([H])C([H])([H])[H])C([H])([H])[H])C(C([H])([H])[H])(C([H])([H])[H])C([H])([H])[H])C([H])([H])c2c([H])c(Oc3c([H])c([H])c(C([H])([H])[H])c(C4([H])C([H])([H])C([H])([H])C([H])(N([H])C(=O)N5C([H])([H])C([H])([H])C([H])([H])C([H])(n6nc(-c7c([H])c([H])c(Oc8c([H])c([H])c(F)c([H])c8F)c([H])c7[H])c(C(=O)N([H])[H])c6N([H])[H])C5([H])[H])C([H])([H])C4([H])[H])c3[H])c([H])c([H])c2C1([H])[H]

$$$$
28:0:0
     RDKit          3D

 90 98  0  0  1  0  0  0  0  0999 V2000
  -28.5960  -23.4970   20.4950 C   0  0  0  0  0  3  0  0  0  0  0  0
  -28.3950  -23.3090   17.7710 C   0  0  0  0  0  3  0  0  0  0  0  0
  -28.7610  -22.1260   19.9020 C   0  0  0  0  0  0  0  0  0  0  0  0
  -28.3250  -24.5980   18.3550 C   0  0  0  0  0  0  0  0  0  0  0  0
  -28.3290  -24.7850   19.7640 C   0  0  0  0  0  0  0  0  0  0  0  0
  -28.5880  -22.1180   18.5010 C   0  0  0  0  0  0  0  0  0  0  0  0
  -28.3600  -25.7850   17.4040 C   0  0  0  0  0  1  0  0  0  0  0  0
  -28.6670  -20.9600   17.8080 F   0  0  0  0  0  0  0  0  0  0  0  0
  -28.2880  -26.1790   20.2700 O   0  0  0  0  0  0  0  0  0  0  0  0
  -24.6260  -31.8920   23.2320 C   0  0  0  0  0  0  0  0  0  0  0  0
  -27.2100  -27.1510   20.2070 C   0  0  0  0  0  0  0  0  0  0  0  0
  -23.4250  -30.4840   21.6060 C   0  0  0  0  0  3  0  0  0  0  0  0
  -24.8700  -28.8960   20.1900 C   0  0  0  0  0  0  0  0  0  0  0  0
  -25.9770  -30.7540   21.4250 C   0  0  0  0  0  2  0  0  0  0  0  0
  -26.0540  -29.3550   20.7800 C   0  0  0  0  0  0  0  0  0  0  0  0
  -27.2250  -28.4990   20.7650 C   0  0  0  0  0  3  0  0  0  0  0  0
  -25.9800  -26.7840   19.6240 C   0  0  0  0  0  3  0  0  0  0  0  0
  -24.8450  -27.6250   19.5980 C   0  0  0  0  0  3  0  0  0  0  0  0
  -23.6460  -29.7990   20.2320 C   0  0  0  0  0  2  0  0  0  0  0  0
  -24.6970  -31.0650   22.1440 N   0  0  0  0  0  0  0  0  0  0  0  0
  -23.5400  -32.1760   23.7640 O   0  0  0  0  0  0  0  0  0  0  0  0
  -22.7510  -29.4820   22.5790 C   0  0  0  0  0  0  0  0  0  0  0  0
  -21.4230  -29.3040   22.4580 N   0  0  0  0  0  0  0  0  0  0  0  0
  -23.4250  -28.8690   23.4100 O   0  0  0  0  0  0  0  0  0  0  0  0
  -20.9330  -29.8470   21.7610 H   0  0  0  0  0  0  0  0  0  0  0  0
  -18.0520  -28.0740   22.9700 C   0  0  0  0  0  0  0  0  0  0  0  0
  -20.6090  -28.3690   23.2390 C   0  0  0  0  0  3  0  0  0  0  0  0
  -20.7280  -26.9310   22.6830 C   0  0  0  0  0  2  0  0  0  0  0  0
  -19.6310  -26.5830   21.6720 C   0  0  0  0  0  2  0  0  0  0  0  0
  -18.2450  -26.7210   22.3090 C   0  0  0  0  0  2  0  0  0  0  0  0
  -19.1620  -28.8550   23.3930 C   0  0  0  0  0  0  0  0  0  0  0  0
  -18.9260  -30.1210   23.9730 C   0  0  0  0  0  3  0  0  0  0  0  0
  -17.6150  -30.6070   24.1320 C   0  0  0  0  0  3  0  0  0  0  0  0
  -16.5200  -29.8250   23.7230 C   0  0  0  0  0  3  0  0  0  0  0  0
  -16.7400  -28.5600   23.1490 C   0  0  0  0  0  3  0  0  0  0  0  0
  -25.9040  -32.5390   23.8490 C   0  0  0  0  0  3  0  0  0  0  0  0
  -26.4210  -31.7800   25.1340 C   0  0  1  0  0  0  0  0  0  0  0  0
  -25.3300  -31.5530   26.2050 C   0  0  0  0  0  1  0  0  0  0  0  0
  -27.0060  -30.4000   24.7570 C   0  0  0  0  0  1  0  0  0  0  0  0
  -27.5760  -32.5780   25.7840 C   0  0  0  0  0  1  0  0  0  0  0  0
  -25.5880  -33.9380   24.1770 N   0  0  0  0  0  0  0  0  0  0  0  0
  -25.9110  -34.9930   23.4160 C   0  0  0  0  0  0  0  0  0  0  0  0
  -26.5710  -34.8890   22.3780 O   0  0  0  0  0  0  0  0  0  0  0  0
  -25.0060  -34.0920   24.9870 H   0  0  0  0  0  0  0  0  0  0  0  0
  -24.1760  -36.7820   23.0760 C   0  0  0  0  0  1  0  0  0  0  0  0
  -25.4250  -36.3820   23.8770 C   0  0  0  0  0  3  0  0  0  0  0  0
  -27.5650  -37.2720   24.6880 C   0  0  0  0  0  1  0  0  0  0  0  0
  -26.4550  -37.4370   23.7530 N   0  0  0  0  0  0  0  0  0  0  0  0
  -26.0470  -38.3570   23.9040 H   0  0  0  0  0  0  0  0  0  0  0  0
  -29.2170  -20.6970   20.6420 C   0  0  0  0  0  2  0  0  0  0  0  0
  -29.0650  -19.0750   20.1030 C   0  0  0  0  0  3  0  0  0  0  0  0
  -29.9900  -17.7420   20.6260 C   0  0  0  0  0  3  0  0  0  0  0  0
  -30.4760  -15.0180   20.3250 C   0  0  0  0  0  0  0  0  0  0  0  0
  -30.3990  -12.6670   19.3660 C   0  0  0  0  0  2  0  0  0  0  0  0
  -29.4670  -12.6130   18.1340 C   0  0  0  0  0  2  0  0  0  0  0  0
  -28.0010  -12.4030   18.5610 C   0  0  0  0  0  2  0  0  0  0  0  0
  -27.5900  -13.3070   19.7530 C   0  0  0  0  0  3  0  0  0  0  0  0
  -28.6430  -13.3060   20.8770 C   0  0  0  0  0  2  0  0  0  0  0  0
  -29.9020  -13.7490   20.2630 N   0  0  0  0  0  0  0  0  0  0  0  0
  -31.6890  -15.0960   20.0940 O   0  0  0  0  0  0  0  0  0  0  0  0
  -29.6720  -16.1920   20.4430 N   0  0  0  0  0  0  0  0  0  0  0  0
  -28.6880  -15.9760   20.5160 H   0  0  0  0  0  0  0  0  0  0  0  0
  -25.2050  -13.8630   20.4870 C   0  0  0  0  0  0  0  0  0  0  0  0
  -24.1480  -13.0780   20.8580 C   0  0  0  0  0  0  0  0  0  0  0  0
  -24.6260  -11.7320   20.8320 C   0  0  0  0  0  0  0  0  0  0  0  0
  -26.2560  -12.9930   20.2490 N   0  0  0  0  0  0  0  0  0  0  0  0
  -25.9180  -11.7070   20.5250 N   0  0  0  0  0  0  0  0  0  0  0  0
  -23.9120  -10.4630   21.0220 C   0  0  0  0  0  0  0  0  0  0  0  0
  -24.3550   -9.5030   21.9590 C   0  0  0  0  0  3  0  0  0  0  0  0
  -23.6440   -8.2970   22.1380 C   0  0  0  0  0  3  0  0  0  0  0  0
  -22.4760   -8.0440   21.3820 C   0  0  0  0  0  0  0  0  0  0  0  0
  -22.0520   -8.9920   20.4360 C   0  0  0  0  0  3  0  0  0  0  0  0
  -22.7620  -10.1890   20.2540 C   0  0  0  0  0  3  0  0  0  0  0  0
  -21.7340   -6.8900   21.4730 O   0  0  0  0  0  0  0  0  0  0  0  0
  -21.6940   -6.1480   22.6270 C   0  0  0  0  0  0  0  0  0  0  0  0
  -21.2580   -6.6970   23.8520 C   0  0  0  0  0  3  0  0  0  0  0  0
  -21.1660   -5.8810   24.9960 C   0  0  0  0  0  3  0  0  0  0  0  0
  -21.5020   -4.5160   24.9180 C   0  0  0  0  0  0  0  0  0  0  0  0
  -21.9300   -3.9650   23.6970 C   0  0  0  0  0  3  0  0  0  0  0  0
  -22.0230   -4.7790   22.5550 C   0  0  0  0  0  0  0  0  0  0  0  0
  -22.4190   -4.2380   21.3770 F   0  0  0  0  0  0  0  0  0  0  0  0
  -21.4060   -3.7310   26.0150 F   0  0  0  0  0  0  0  0  0  0  0  0
  -22.7450  -13.5400   21.1190 C   0  0  0  0  0  0  0  0  0  0  0  0
  -22.0160  -12.8410   21.9820 N   0  0  0  0  0  0  0  0  0  0  0  0
  -22.3000  -14.5600   20.5920 O   0  0  0  0  0  0  0  0  0  0  0  0
  -22.3870  -12.0200   22.4400 H   0  0  0  0  0  0  0  0  0  0  0  0
  -21.0710  -13.1310   22.1910 H   0  0  0  0  0  0  0  0  0  0  0  0
  -25.3570  -15.2340   20.3020 N   0  0  0  0  0  0  0  0  0  0  0  0
  -24.5870  -15.8860   20.4090 H   0  0  0  0  0  0  0  0  0  0  0  0
  -26.1940  -15.6690   19.9400 H   0  0  0  0  0  0  0  0  0  0  0  0
  2  4  2  0
  2  6  1  0
  3  1  1  0
  3 50  1  0
  4  5  1  0
  5  9  1  0
  5  1  2  0
  6  3  2  0
  7  4  1  0
  8  6  1  0
 10 21  2  0
 11  9  1  0
 11 16  1  0
 12 20  1  0
 12 22  1  0
 13 19  1  0
 13 15  1  0
 14 20  1  0
 15 14  1  0
 16 15  2  0
 17 11  2  0
 18 17  1  0
 18 13  2  0
 19 12  1  0
 20 10  1  0
 22 24  2  0
 23 22  1  0
 25 23  1  0
 26 35  2  0
 26 31  1  0
 27 23  1  0
 27 31  1  0
 28 27  1  0
 29 30  1  0
 29 28  1  0
 30 26  1  0
 31 32  2  0
 32 33  1  0
 34 33  2  0
 35 34  1  0
 36 10  1  0
 36 41  1  0
 36 37  1  0
 37 40  1  1
 37 38  1  0
 39 37  1  0
 41 44  1  0
 42 46  1  0
 42 41  1  0
 43 42  2  0
 46 45  1  0
 48 46  1  0
 48 49  1  0
 48 47  1  0
 51 52  2  0
 51 50  1  0
 53 61  1  0
 54 59  1  0
 55 56  1  0
 55 54  1  0
 57 56  1  0
 57 66  1  0
 57 58  1  0
 59 53  1  0
 59 58  1  0
 60 53  2  0
 61 62  1  0
 61 52  1  0
 63 64  2  0
 64 83  1  0
 65 64  1  0
 65 68  1  0
 66 63  1  0
 66 67  1  0
 67 65  2  0
 68 69  1  0
 69 70  2  0
 71 74  1  0
 71 70  1  0
 72 71  2  0
 73 72  1  0
 73 68  2  0
 74 75  1  0
 75 76  1  0
 76 77  2  0
 78 77  1  0
 78 82  1  0
 79 78  2  0
 80 75  2  0
 80 79  1  0
 81 80  1  0
 83 84  1  0
 84 87  1  0
 84 86  1  0
 85 83  2  0
 88 89  1  0
 88 63  1  0
 90 88  1  0
M  ISO  4   5 101   9 101  53 100  61 100
M  END
>  <TORSDO>  (29) 
F 19

>  <SCORE>  (29) 
-15.468

>  <name>  (29) 
28

>  <ligand_id>  (29) 
28

>  <original_smiles>  (29) 
[H]c1c([H])c([H])c2c(c1[H])C([H])([H])C([H])([H])C([H])([H])C2([H])N([H])C(=O)C1([H])N(C(=O)C([H])(N([H])C(=O)C([H])(N([H])C([H])([H])[H])C([H])([H])[H])C(C([H])([H])[H])(C([H])([H])[H])C([H])([H])[H])C([H])([H])c2c([H])c(Oc3c([H])c(C([H])([H])C([H])([H])C([H])([H])N([H])C(=O)N4C([H])([H])C([H])([H])C([H])([H])C([H])(n5nc(-c6c([H])c([H])c(Oc7c([H])c([H])c(F)c([H])c7F)c([H])c6[H])c(C(=O)N([H])[H])c5N([H])[H])C4([H])[H])c(F)c([H])c3C([H])([H])[H])c([H])c([H])c2C1([H])[H]

>  <smiles>  (29) 
[H]c1c([H])c([H])c2c(c1[H])C([H])([H])C([H])([H])C([H])([H])C2([H])N([H])C(=O)C1([H])N(C(=O)C([H])(N([H])C(=O)C([H])(N([H])C([H])([H])[H])C([H])([H])[H])C(C([H])([H])[H])(C([H])([H])[H])C([H])([H])[H])C([H])([H])c2c([H])c(Oc3c([H])c(C([H])([H])C([H])([H])C([H])([H])N([H])C(=O)N4C([H])([H])C([H])([H])C([H])([H])C([H])(n5nc(-c6c([H])c([H])c(Oc7c([H])c([H])c(F)c([H])c7F)c([H])c6[H])c(C(=O)N([H])[H])c5N([H])[H])C4([H])[H])c(F)c([H])c3C([H])([H])[H])c([H])c([H])c2C1([H])[H]

$$$$
29:0:0
     RDKit          3D

 90 98  0  0  1  0  0  0  0  0999 V2000
  -28.9980  -21.3260   19.7620 C   0  0  0  0  0  3  0  0  0  0  0  0
  -29.5580  -22.7790   21.5930 C   0  0  0  0  0  3  0  0  0  0  0  0
  -30.1770  -20.3280   21.6100 C   0  0  0  0  0  3  0  0  0  0  0  0
  -28.9170  -22.7710   20.3350 C   0  0  0  0  0  0  0  0  0  0  0  0
  -29.6270  -20.0270   20.3460 C   0  0  0  0  0  0  0  0  0  0  0  0
  -30.1580  -21.6360   22.2060 C   0  0  0  0  0  0  0  0  0  0  0  0
  -29.2280  -18.3490   18.3400 C   0  0  0  0  0  1  0  0  0  0  0  0
  -29.9180  -18.3970   19.7100 C   0  0  0  0  0  0  0  0  0  0  0  0
  -30.6060  -15.5170   20.1960 C   0  0  0  0  0  0  0  0  0  0  0  0
  -30.6370  -13.0150   19.4520 C   0  0  0  0  0  2  0  0  0  0  0  0
  -29.7520  -12.7300   18.2100 C   0  0  0  0  0  2  0  0  0  0  0  0
  -28.3000  -12.4480   18.6310 C   0  0  0  0  0  2  0  0  0  0  0  0
  -27.8100  -13.4520   19.7020 C   0  0  0  0  0  3  0  0  0  0  0  0
  -28.8280  -13.6800   20.8420 C   0  0  0  0  0  2  0  0  0  0  0  0
  -30.0630  -14.1900   20.2190 N   0  0  0  0  0  0  0  0  0  0  0  0
  -31.8140  -15.5060   19.9200 O   0  0  0  0  0  0  0  0  0  0  0  0
  -29.8380  -16.8040   20.2880 N   0  0  0  0  0  4  0  0  0  0  0  0
  -28.9110  -16.6100   20.6360 H   0  0  0  0  0  0  0  0  0  0  0  0
  -25.4320  -14.0100   20.4230 C   0  0  0  0  0  0  0  0  0  0  0  0
  -24.3660  -13.2360   20.7850 C   0  0  0  0  0  0  0  0  0  0  0  0
  -24.8330  -11.8850   20.7690 C   0  0  0  0  0  0  0  0  0  0  0  0
  -26.4770  -13.1340   20.1970 N   0  0  0  0  0  0  0  0  0  0  0  0
  -26.1290  -11.8490   20.4730 N   0  0  0  0  0  0  0  0  0  0  0  0
  -24.1020  -10.6250   20.9570 C   0  0  0  0  0  0  0  0  0  0  0  0
  -24.5160   -9.6640   21.9060 C   0  0  0  0  0  3  0  0  0  0  0  0
  -23.7820   -8.4710   22.0840 C   0  0  0  0  0  3  0  0  0  0  0  0
  -22.6190   -8.2310   21.3150 C   0  0  0  0  0  0  0  0  0  0  0  0
  -22.2240   -9.1800   20.3550 C   0  0  0  0  0  3  0  0  0  0  0  0
  -22.9590  -10.3640   20.1750 C   0  0  0  0  0  3  0  0  0  0  0  0
  -21.8590   -7.0900   21.4010 O   0  0  0  0  0  0  0  0  0  0  0  0
  -21.7810   -6.3620   22.5620 C   0  0  0  0  0  0  0  0  0  0  0  0
  -21.3220   -6.9320   23.7690 C   0  0  0  0  0  3  0  0  0  0  0  0
  -21.1920   -6.1310   24.9210 C   0  0  0  0  0  3  0  0  0  0  0  0
  -21.5110   -4.7620   24.8670 C   0  0  0  0  0  0  0  0  0  0  0  0
  -21.9640   -4.1910   23.6640 C   0  0  0  0  0  3  0  0  0  0  0  0
  -22.0950   -4.9890   22.5140 C   0  0  0  0  0  0  0  0  0  0  0  0
  -22.5110   -4.4290   21.3530 F   0  0  0  0  0  0  0  0  0  0  0  0
  -21.3800   -3.9900   25.9710 F   0  0  0  0  0  0  0  0  0  0  0  0
  -22.9650  -13.7160   21.0290 C   0  0  0  0  0  0  0  0  0  0  0  0
  -22.2290  -13.0350   21.9000 N   0  0  0  0  0  0  0  0  0  0  0  0
  -22.5350  -14.7320   20.4840 O   0  0  0  0  0  0  0  0  0  0  0  0
  -22.5900  -12.2140   22.3610 H   0  0  0  0  0  0  0  0  0  0  0  0
  -21.2880  -13.3410   22.1070 H   0  0  0  0  0  0  0  0  0  0  0  0
  -25.5950  -15.3800   20.2350 N   0  0  0  0  0  0  0  0  0  0  0  0
  -24.8220  -16.0310   20.3280 H   0  0  0  0  0  0  0  0  0  0  0  0
  -26.4360  -15.8140   19.8770 H   0  0  0  0  0  0  0  0  0  0  0  0
  -31.4970  -20.8790   24.0660 C   0  0  0  0  0  1  0  0  0  0  0  0
  -30.7260  -21.8960   23.4350 O   0  0  0  0  0  0  0  0  0  0  0  0
  -28.0970  -24.2630   19.8380 C   0  0  0  0  0  2  0  0  0  0  0  0
  -28.2700  -25.8890   20.1830 O   0  0  0  0  0  0  0  0  0  0  0  0
  -24.6710  -31.8790   23.1310 C   0  0  0  0  0  0  0  0  0  0  0  0
  -27.2700  -27.0120   20.0770 C   0  0  0  0  0  0  0  0  0  0  0  0
  -23.4890  -30.4780   21.4880 C   0  0  0  0  0  3  0  0  0  0  0  0
  -24.9520  -28.8960   20.0470 C   0  0  0  0  0  0  0  0  0  0  0  0
  -26.0540  -30.7080   21.3390 C   0  0  0  0  0  2  0  0  0  0  0  0
  -26.1370  -29.2990   20.6730 C   0  0  0  0  0  0  0  0  0  0  0  0
  -27.2840  -28.3770   20.6690 C   0  0  0  0  0  3  0  0  0  0  0  0
  -26.0570  -26.7790   19.3870 C   0  0  0  0  0  3  0  0  0  0  0  0
  -24.9410  -27.6580   19.3820 C   0  0  0  0  0  3  0  0  0  0  0  0
  -23.7230  -29.8050   20.1070 C   0  0  0  0  0  2  0  0  0  0  0  0
  -24.7600  -31.0510   22.0390 N   0  0  0  0  0  0  0  0  0  0  0  0
  -23.5790  -32.1550   23.6560 O   0  0  0  0  0  0  0  0  0  0  0  0
  -22.8070  -29.4720   22.4530 C   0  0  0  0  0  0  0  0  0  0  0  0
  -21.4810  -29.2790   22.3190 N   0  0  0  0  0  0  0  0  0  0  0  0
  -23.4780  -28.8660   23.2910 O   0  0  0  0  0  0  0  0  0  0  0  0
  -20.9890  -29.8210   21.6220 H   0  0  0  0  0  0  0  0  0  0  0  0
  -18.1340  -27.9510   22.7710 C   0  0  0  0  0  0  0  0  0  0  0  0
  -20.6740  -28.3240   23.0890 C   0  0  0  0  0  3  0  0  0  0  0  0
  -20.8450  -26.8860   22.5420 C   0  0  0  0  0  2  0  0  0  0  0  0
  -19.7810  -26.5030   21.5080 C   0  0  0  0  0  2  0  0  0  0  0  0
  -18.3800  -26.6010   22.1180 C   0  0  0  0  0  2  0  0  0  0  0  0
  -19.2100  -28.7660   23.2120 C   0  0  0  0  0  0  0  0  0  0  0  0
  -18.9240  -30.0240   23.7840 C   0  0  0  0  0  3  0  0  0  0  0  0
  -17.5950  -30.4700   23.9190 C   0  0  0  0  0  3  0  0  0  0  0  0
  -16.5330  -29.6540   23.4920 C   0  0  0  0  0  3  0  0  0  0  0  0
  -16.8030  -28.3960   22.9240 C   0  0  0  0  0  3  0  0  0  0  0  0
  -25.9360  -32.5360   23.7640 C   0  0  0  0  0  3  0  0  0  0  0  0
  -26.4550  -31.7700   25.0440 C   0  0  1  0  0  0  0  0  0  0  0  0
  -25.3610  -31.5230   26.1100 C   0  0  0  0  0  1  0  0  0  0  0  0
  -27.0530  -30.3970   24.6630 C   0  0  0  0  0  1  0  0  0  0  0  0
  -27.5960  -32.5760   25.7080 C   0  0  0  0  0  1  0  0  0  0  0  0
  -25.6000  -33.9290   24.1120 N   0  0  0  0  0  0  0  0  0  0  0  0
  -25.9280  -35.0050   23.3850 C   0  0  0  0  0  0  0  0  0  0  0  0
  -26.6080  -34.9290   22.3580 O   0  0  0  0  0  0  0  0  0  0  0  0
  -24.9950  -34.0590   24.9090 H   0  0  0  0  0  0  0  0  0  0  0  0
  -24.1870  -36.7970   23.0640 C   0  0  0  0  0  1  0  0  0  0  0  0
  -25.4280  -36.3810   23.8700 C   0  0  0  0  0  3  0  0  0  0  0  0
  -27.5500  -37.2710   24.7300 C   0  0  0  0  0  1  0  0  0  0  0  0
  -26.4510  -37.4470   23.7830 N   0  0  0  0  0  0  0  0  0  0  0  0
  -26.0360  -38.3600   23.9450 H   0  0  0  0  0  0  0  0  0  0  0  0
  1  4  2  0
  1  5  1  0
  2  6  2  0
  3  6  1  0
  4  2  1  0
  5  3  2  0
  6 48  1  0
  7  8  1  0
  8 17  2  3
  8  5  1  0
  9 15  1  0
  9 17  1  0
 10 15  1  0
 11 12  1  0
 11 10  1  0
 13 12  1  0
 13 22  1  0
 13 14  1  0
 15 14  1  0
 16  9  2  0
 17 18  1  0
 19 20  2  0
 20 39  1  0
 21 20  1  0
 21 24  1  0
 22 19  1  0
 22 23  1  0
 23 21  2  0
 24 25  1  0
 25 26  2  0
 27 30  1  0
 27 26  1  0
 28 27  2  0
 29 28  1  0
 29 24  2  0
 30 31  1  0
 31 32  1  0
 32 33  2  0
 34 33  1  0
 34 38  1  0
 35 34  2  0
 36 31  2  0
 36 35  1  0
 37 36  1  0
 39 40  1  0
 40 43  1  0
 40 42  1  0
 41 39  2  0
 44 45  1  0
 44 19  1  0
 46 44  1  0
 48 47  1  0
 49 50  1  0
 49  4  1  0
 51 62  2  0
 52 50  1  0
 52 57  1  0
 53 61  1  0
 53 63  1  0
 54 60  1  0
 54 56  1  0
 55 61  1  0
 56 55  1  0
 57 56  2  0
 58 52  2  0
 59 58  1  0
 59 54  2  0
 60 53  1  0
 61 51  1  0
 63 65  2  0
 64 63  1  0
 66 64  1  0
 67 76  2  0
 67 72  1  0
 68 64  1  0
 68 72  1  0
 69 68  1  0
 70 71  1  0
 70 69  1  0
 71 67  1  0
 72 73  2  0
 73 74  1  0
 75 74  2  0
 76 75  1  0
 77 51  1  0
 77 82  1  0
 77 78  1  0
 78 81  1  1
 78 79  1  0
 80 78  1  0
 82 85  1  0
 83 87  1  0
 83 82  1  0
 84 83  2  0
 87 86  1  0
 89 87  1  0
 89 90  1  0
 89 88  1  0
M  ISO  4   9 100  17 100  49 101  50 101
M  END
>  <TORSDO>  (30) 
F 19

>  <SCORE>  (30) 
-16.539

>  <name>  (30) 
29

>  <ligand_id>  (30) 
29

>  <original_smiles>  (30) 
[H]c1c([H])c([H])c2c(c1[H])C([H])([H])C([H])([H])C([H])([H])C2([H])N([H])C(=O)C1([H])N(C(=O)C([H])(N([H])C(=O)C([H])(N([H])C([H])([H])[H])C([H])([H])[H])C(C([H])([H])[H])(C([H])([H])[H])C([H])([H])[H])C([H])([H])c2c([H])c(OC([H])([H])c3c([H])c(OC([H])([H])[H])c([H])c(C([H])(N([H])C(=O)N4C([H])([H])C([H])([H])C([H])([H])C([H])(n5nc(-c6c([H])c([H])c(Oc7c([H])c([H])c(F)c([H])c7F)c([H])c6[H])c(C(=O)N([H])[H])c5N([H])[H])C4([H])[H])C([H])([H])[H])c3[H])c([H])c([H])c2C1([H])[H]

>  <smiles>  (30) 
[H]c1c([H])c([H])c2c(c1[H])C([H])([H])C([H])([H])C([H])([H])C2([H])N([H])C(=O)C1([H])N(C(=O)C([H])(N([H])C(=O)C([H])(N([H])C([H])([H])[H])C([H])([H])[H])C(C([H])([H])[H])(C([H])([H])[H])C([H])([H])[H])C([H])([H])c2c([H])c(OC([H])([H])c3c([H])c(OC([H])([H])[H])c([H])c(C([H])(N([H])C(=O)N4C([H])([H])C([H])([H])C([H])([H])C([H])(n5nc(-c6c([H])c([H])c(Oc7c([H])c([H])c(F)c([H])c7F)c([H])c6[H])c(C(=O)N([H])[H])c5N([H])[H])C4([H])[H])C([H])([H])[H])c3[H])c([H])c([H])c2C1([H])[H]

$$$$
30:0:0
     RDKit          3D

 92102  0  0  1  0  0  0  0  0999 V2000
  -30.9530  -16.7020   20.8370 C   0  0  0  0  0  3  0  0  0  0  0  0
  -30.6050  -17.7770   21.6670 C   0  0  0  0  0  3  0  0  0  0  0  0
  -30.7530  -16.6230   19.4370 C   0  0  0  0  0  0  0  0  0  0  0  0
  -30.1620  -18.0280   18.9170 C   0  0  0  0  0  0  0  0  0  0  0  0
  -29.6750  -19.0750   19.8190 C   0  0  0  0  0  0  0  0  0  0  0  0
  -29.9540  -18.9270   21.2030 C   0  0  0  0  0  0  0  0  0  0  0  0
  -29.9340  -18.9180   17.5510 C   0  0  0  0  0  2  0  0  0  0  0  0
  -28.1350  -23.0710   19.1200 C   0  0  0  0  0  2  0  0  0  0  0  0
  -29.0360  -21.8440   19.6970 C   0  0  0  0  0  2  0  0  0  0  0  0
  -28.9590  -21.9770   17.0430 C   0  0  0  0  0  2  0  0  0  0  0  0
  -28.9580  -20.3360   17.7130 C   0  0  0  0  0  3  0  0  0  0  0  0
  -27.9600  -23.3220   17.5650 C   0  0  0  0  0  3  0  0  0  0  0  0
  -28.7880  -20.3230   19.2400 C   0  0  1  0  0  0  0  0  0  0  0  0
  -29.6320  -19.9890   22.2400 C   0  0  0  0  0  1  0  0  0  0  0  0
  -27.3060  -20.0130   19.5580 C   0  0  0  0  0  1  0  0  0  0  0  0
  -31.3760  -15.1130   18.9320 C   0  0  0  0  0  0  0  0  0  0  0  0
  -31.2620  -12.5280   18.4220 C   0  0  0  0  0  2  0  0  0  0  0  0
  -30.1670  -12.1300   17.3920 C   0  0  0  0  0  2  0  0  0  0  0  0
  -28.7980  -11.9450   18.0690 C   0  0  0  0  0  2  0  0  0  0  0  0
  -28.5220  -13.0750   19.0880 C   0  0  0  0  0  3  0  0  0  0  0  0
  -29.7210  -13.3430   20.0170 C   0  0  0  0  0  2  0  0  0  0  0  0
  -30.8530  -13.7870   19.1710 N   0  0  0  0  0  0  0  0  0  0  0  0
  -32.4620  -15.0540   18.3310 O   0  0  0  0  0  0  0  0  0  0  0  0
  -26.4770  -13.8540   20.3950 C   0  0  0  0  0  0  0  0  0  0  0  0
  -25.3870  -13.1960   20.8920 C   0  0  0  0  0  0  0  0  0  0  0  0
  -25.5940  -11.8120   20.6010 C   0  0  0  0  0  0  0  0  0  0  0  0
  -27.2800  -12.8810   19.8250 N   0  0  0  0  0  0  0  0  0  0  0  0
  -26.7730  -11.6340   20.0120 N   0  0  0  0  0  0  0  0  0  0  0  0
  -24.7070  -10.6570   20.7940 C   0  0  0  0  0  0  0  0  0  0  0  0
  -25.0580   -9.5910   21.6530 C   0  0  0  0  0  3  0  0  0  0  0  0
  -24.1790   -8.5010   21.8390 C   0  0  0  0  0  3  0  0  0  0  0  0
  -22.9340   -8.4720   21.1670 C   0  0  0  0  0  0  0  0  0  0  0  0
  -22.5990   -9.5230   20.2960 C   0  0  0  0  0  3  0  0  0  0  0  0
  -23.4780  -10.6030   20.1080 C   0  0  0  0  0  3  0  0  0  0  0  0
  -22.0270   -7.4450   21.2680 O   0  0  0  0  0  0  0  0  0  0  0  0
  -21.7800   -6.8170   22.4610 C   0  0  0  0  0  0  0  0  0  0  0  0
  -21.2700   -7.5130   23.5790 C   0  0  0  0  0  3  0  0  0  0  0  0
  -20.9660   -6.8160   24.7650 C   0  0  0  0  0  3  0  0  0  0  0  0
  -21.1590   -5.4230   24.8330 C   0  0  0  0  0  0  0  0  0  0  0  0
  -21.6580   -4.7270   23.7190 C   0  0  0  0  0  3  0  0  0  0  0  0
  -21.9650   -5.4210   22.5360 C   0  0  0  0  0  0  0  0  0  0  0  0
  -22.4280   -4.7420   21.4580 F   0  0  0  0  0  0  0  0  0  0  0  0
  -20.8580   -4.7500   25.9680 F   0  0  0  0  0  0  0  0  0  0  0  0
  -24.1750  -13.8290   21.5100 C   0  0  0  0  0  0  0  0  0  0  0  0
  -23.5260  -13.1310   22.4360 N   0  0  0  0  0  0  0  0  0  0  0  0
  -23.8250  -14.9690   21.2090 O   0  0  0  0  0  0  0  0  0  0  0  0
  -23.8270  -12.2030   22.6950 H   0  0  0  0  0  0  0  0  0  0  0  0
  -22.7170  -13.5300   22.8900 H   0  0  0  0  0  0  0  0  0  0  0  0
  -26.8420  -15.1970   20.3540 N   0  0  0  0  0  0  0  0  0  0  0  0
  -26.2580  -15.9310   20.7400 H   0  0  0  0  0  0  0  0  0  0  0  0
  -27.7030  -15.5460   19.9540 H   0  0  0  0  0  0  0  0  0  0  0  0
  -27.8470  -24.9400   17.1040 O   0  0  0  0  0  0  0  0  0  0  0  0
  -25.8970  -29.6020   22.8030 C   0  0  0  0  0  0  0  0  0  0  0  0
  -27.0900  -26.1130   17.6790 C   0  0  0  0  0  0  0  0  0  0  0  0
  -24.3230  -29.2930   20.9360 C   0  0  0  0  0  3  0  0  0  0  0  0
  -25.2820  -28.2290   18.7730 C   0  0  0  0  0  0  0  0  0  0  0  0
  -26.8560  -29.0740   20.5000 C   0  0  0  0  0  2  0  0  0  0  0  0
  -26.5660  -28.0980   19.3160 C   0  0  0  0  0  0  0  0  0  0  0  0
  -27.4630  -27.0750   18.7520 C   0  0  0  0  0  3  0  0  0  0  0  0
  -25.8050  -26.4120   17.1690 C   0  0  0  0  0  3  0  0  0  0  0  0
  -24.9310  -27.4070   17.6870 C   0  0  0  0  0  3  0  0  0  0  0  0
  -24.3110  -29.2420   19.3820 C   0  0  0  0  0  2  0  0  0  0  0  0
  -25.7240  -29.3220   21.4690 N   0  0  0  0  0  0  0  0  0  0  0  0
  -24.9340  -29.8250   23.5550 O   0  0  0  0  0  0  0  0  0  0  0  0
  -23.4800  -28.1210   21.5050 C   0  0  0  0  0  0  0  0  0  0  0  0
  -22.1440  -28.1810   21.3550 N   0  0  0  0  0  0  0  0  0  0  0  0
  -24.0380  -27.1660   22.0510 O   0  0  0  0  0  0  0  0  0  0  0  0
  -21.7520  -28.9970   20.9060 H   0  0  0  0  0  0  0  0  0  0  0  0
  -18.6300  -27.2690   21.4040 C   0  0  0  0  0  0  0  0  0  0  0  0
  -21.1900  -27.1410   21.7620 C   0  0  0  0  0  3  0  0  0  0  0  0
  -21.1680  -25.9810   20.7390 C   0  0  0  0  0  2  0  0  0  0  0  0
  -20.0850  -26.1440   19.6670 C   0  0  0  0  0  2  0  0  0  0  0  0
  -18.6970  -26.2170   20.3100 C   0  0  0  0  0  2  0  0  0  0  0  0
  -19.8000  -27.7160   22.0740 C   0  0  0  0  0  0  0  0  0  0  0  0
  -19.6830  -28.7190   23.0600 C   0  0  0  0  0  3  0  0  0  0  0  0
  -18.4280  -29.2710   23.3800 C   0  0  0  0  0  3  0  0  0  0  0  0
  -17.2710  -28.8170   22.7230 C   0  0  0  0  0  3  0  0  0  0  0  0
  -17.3730  -27.8160   21.7410 C   0  0  0  0  0  3  0  0  0  0  0  0
  -27.3150  -29.6700   23.4460 C   0  0  0  0  0  3  0  0  0  0  0  0
  -27.2710  -30.6520   24.5430 N   0  0  0  0  0  0  0  0  0  0  0  0
  -27.6840  -31.9240   24.4580 C   0  0  0  0  0  0  0  0  0  0  0  0
  -28.2020  -32.3860   23.4380 O   0  0  0  0  0  0  0  0  0  0  0  0
  -26.8050  -30.3560   25.3890 H   0  0  0  0  0  0  0  0  0  0  0  0
  -26.2330  -33.6880   25.5170 C   0  0  0  0  0  1  0  0  0  0  0  0
  -27.4940  -32.8270   25.6940 C   0  0  0  0  0  3  0  0  0  0  0  0
  -29.8290  -32.9730   26.4420 C   0  0  0  0  0  1  0  0  0  0  0  0
  -28.6550  -33.7030   25.9710 N   0  0  0  0  0  0  0  0  0  0  0  0
  -28.4170  -34.4050   26.6660 H   0  0  0  0  0  0  0  0  0  0  0  0
  -27.8170  -28.2750   23.9870 C   0  0  1  0  0  0  0  0  0  0  0  0
  -26.8050  -27.5670   24.9200 C   0  0  0  0  0  1  0  0  0  0  0  0
  -28.1300  -27.3090   22.8210 C   0  0  0  0  0  1  0  0  0  0  0  0
  -29.1410  -28.4610   24.7650 C   0  0  0  0  0  1  0  0  0  0  0  0
  1  2  1  0
  3  1  2  0
  4  3  1  0
  4  5  2  0
  5  6  1  0
  6  2  2  0
  6 14  1  0
  7 11  1  0
  7  4  1  0
  8  9  1  0
 10 12  1  0
 11 10  1  0
 11 13  1  0
 12 52  1  0
 12  8  1  0
 13 15  1  6
 13  9  1  0
 13  5  1  0
 16 22  1  0
 16  3  1  0
 17 22  1  0
 18 19  1  0
 18 17  1  0
 20 19  1  0
 20 27  1  0
 20 21  1  0
 22 21  1  0
 23 16  2  0
 24 25  2  0
 25 44  1  0
 26 29  1  0
 26 25  1  0
 27 28  1  0
 27 24  1  0
 28 26  2  0
 29 30  1  0
 30 31  2  0
 32 35  1  0
 32 31  1  0
 33 32  2  0
 34 33  1  0
 34 29  2  0
 35 36  1  0
 36 41  2  0
 36 37  1  0
 37 38  2  0
 38 39  1  0
 39 43  1  0
 40 39  2  0
 41 40  1  0
 42 41  1  0
 44 45  1  0
 45 47  1  0
 45 48  1  0
 46 44  2  0
 49 24  1  0
 49 50  1  0
 51 49  1  0
 52 54  1  0
 53 64  2  0
 54 59  1  0
 55 63  1  0
 55 65  1  0
 56 58  1  0
 56 62  1  0
 57 63  1  0
 58 57  1  0
 59 58  2  0
 60 54  2  0
 60 61  1  0
 61 56  2  0
 62 55  1  0
 63 53  1  0
 65 67  2  0
 66 65  1  0
 68 66  1  0
 69 78  2  0
 69 74  1  0
 70 66  1  0
 70 74  1  0
 71 70  1  0
 72 73  1  0
 72 71  1  0
 73 69  1  0
 74 75  2  0
 75 76  1  0
 77 76  2  0
 78 77  1  0
 79 53  1  0
 79 89  1  0
 79 80  1  0
 80 83  1  0
 81 80  1  0
 81 85  1  0
 82 81  2  0
 85 84  1  0
 85 87  1  0
 87 86  1  0
 87 88  1  0
 89 92  1  1
 89 90  1  0
 91 89  1  0
M  ISO  4   3 100  12 101  16 100  52 101
M  END
>  <TORSDO>  (31) 
F 16

>  <SCORE>  (31) 
-10.090

>  <name>  (31) 
30

>  <ligand_id>  (31) 
30

>  <original_smiles>  (31) 
[H]c1c([H])c([H])c2c(c1[H])C([H])([H])C([H])([H])C([H])([H])C2([H])N([H])C(=O)C1([H])N(C(=O)C([H])(N([H])C(=O)C([H])(N([H])C([H])([H])[H])C([H])([H])[H])C(C([H])([H])[H])(C([H])([H])[H])C([H])([H])[H])C([H])([H])c2c([H])c(OC3([H])C([H])([H])C([H])([H])C4(C([H])([H])[H])c5c(C([H])([H])[H])c([H])c([H])c(C(=O)N6C([H])([H])C([H])([H])C([H])([H])C([H])(n7nc(-c8c([H])c([H])c(Oc9c([H])c([H])c(F)c([H])c9F)c([H])c8[H])c(C(=O)N([H])[H])c7N([H])[H])C6([H])[H])c5C([H])([H])C4([H])C3([H])[H])c([H])c([H])c2C1([H])[H]

>  <smiles>  (31) 
[H]c1c([H])c([H])c2c(c1[H])C([H])([H])C([H])([H])C([H])([H])C2([H])N([H])C(=O)C1([H])N(C(=O)C([H])(N([H])C(=O)C([H])(N([H])C([H])([H])[H])C([H])([H])[H])C(C([H])([H])[H])(C([H])([H])[H])C([H])([H])[H])C([H])([H])c2c([H])c(OC3([H])C([H])([H])C([H])([H])C4(C([H])([H])[H])c5c(C([H])([H])[H])c([H])c([H])c(C(=O)N6C([H])([H])C([H])([H])C([H])([H])C([H])(n7nc(-c8c([H])c([H])c(Oc9c([H])c([H])c(F)c([H])c9F)c([H])c8[H])c(C(=O)N([H])[H])c7N([H])[H])C6([H])[H])c5C([H])([H])C4([H])C3([H])[H])c([H])c([H])c2C1([H])[H]

$$$$
31:0:0
     RDKit          3D

 88 96  0  0  1  0  0  0  0  0999 V2000
  -27.7060  -22.6290   18.0430 C   0  0  0  0  0  3  0  0  0  0  0  0
  -28.2140  -21.4650   18.6830 C   0  0  0  0  0  3  0  0  0  0  0  0
  -27.7090  -23.9410   18.6000 C   0  0  0  0  0  3  0  0  0  0  0  0
  -28.7340  -22.9390   20.5260 C   0  0  0  0  0  3  0  0  0  0  0  0
  -28.7760  -21.4720   19.9750 C   0  0  0  0  0  0  0  0  0  0  0  0
  -28.1920  -24.2620   19.8920 C   0  0  0  0  0  0  0  0  0  0  0  0
  -28.1980  -25.7760   20.2760 O   0  0  0  0  0  0  0  0  0  0  0  0
  -24.6440  -31.8450   23.1820 C   0  0  0  0  0  0  0  0  0  0  0  0
  -27.1860  -26.8940   20.1810 C   0  0  0  0  0  0  0  0  0  0  0  0
  -23.4460  -30.4370   21.5630 C   0  0  0  0  0  3  0  0  0  0  0  0
  -24.8870  -28.8150   20.1420 C   0  0  0  0  0  0  0  0  0  0  0  0
  -26.0190  -30.6270   21.4110 C   0  0  0  0  0  2  0  0  0  0  0  0
  -26.0830  -29.2100   20.7550 C   0  0  0  0  0  0  0  0  0  0  0  0
  -27.2190  -28.2730   20.7480 C   0  0  0  0  0  3  0  0  0  0  0  0
  -25.9460  -26.6610   19.5360 C   0  0  0  0  0  3  0  0  0  0  0  0
  -24.8490  -27.5620   19.5110 C   0  0  0  0  0  3  0  0  0  0  0  0
  -23.6720  -29.7460   20.1890 C   0  0  0  0  0  2  0  0  0  0  0  0
  -24.7260  -30.9980   22.1040 N   0  0  0  0  0  0  0  0  0  0  0  0
  -23.5550  -32.1390   23.7030 O   0  0  0  0  0  0  0  0  0  0  0  0
  -22.7520  -29.4490   22.5370 C   0  0  0  0  0  0  0  0  0  0  0  0
  -21.4200  -29.2890   22.4210 N   0  0  0  0  0  0  0  0  0  0  0  0
  -23.4210  -28.8240   23.3640 O   0  0  0  0  0  0  0  0  0  0  0  0
  -20.9350  -29.8400   21.7270 H   0  0  0  0  0  0  0  0  0  0  0  0
  -18.0360  -28.0870   22.9550 C   0  0  0  0  0  0  0  0  0  0  0  0
  -20.5980  -28.3600   23.2040 C   0  0  0  0  0  3  0  0  0  0  0  0
  -20.6980  -26.9230   22.6400 C   0  0  0  0  0  2  0  0  0  0  0  0
  -19.5920  -26.5900   21.6340 C   0  0  0  0  0  2  0  0  0  0  0  0
  -18.2130  -26.7340   22.2840 C   0  0  0  0  0  2  0  0  0  0  0  0
  -19.1550  -28.8550   23.3730 C   0  0  0  0  0  0  0  0  0  0  0  0
  -18.9330  -30.1190   23.9630 C   0  0  0  0  0  3  0  0  0  0  0  0
  -17.6260  -30.6110   24.1390 C   0  0  0  0  0  3  0  0  0  0  0  0
  -16.5220  -29.8400   23.7370 C   0  0  0  0  0  3  0  0  0  0  0  0
  -16.7290  -28.5800   23.1490 C   0  0  0  0  0  3  0  0  0  0  0  0
  -25.9140  -32.4950   23.8080 C   0  0  0  0  0  3  0  0  0  0  0  0
  -25.5920  -33.8940   24.1430 N   0  0  0  0  0  0  0  0  0  0  0  0
  -25.9190  -34.9590   23.3970 C   0  0  0  0  0  0  0  0  0  0  0  0
  -26.5840  -34.8670   22.3630 O   0  0  0  0  0  0  0  0  0  0  0  0
  -25.0030  -34.0400   24.9490 H   0  0  0  0  0  0  0  0  0  0  0  0
  -24.1870  -36.7580   23.0700 C   0  0  0  0  0  1  0  0  0  0  0  0
  -25.4320  -36.3440   23.8710 C   0  0  0  0  0  3  0  0  0  0  0  0
  -27.5670  -37.2290   24.7030 C   0  0  0  0  0  1  0  0  0  0  0  0
  -26.4620  -37.4010   23.7630 N   0  0  0  0  0  0  0  0  0  0  0  0
  -26.0550  -38.3190   23.9160 H   0  0  0  0  0  0  0  0  0  0  0  0
  -26.4260  -31.7390   25.0960 C   0  0  1  0  0  0  0  0  0  0  0  0
  -25.3280  -31.5160   26.1620 C   0  0  0  0  0  1  0  0  0  0  0  0
  -27.0110  -30.3560   24.7310 C   0  0  0  0  0  1  0  0  0  0  0  0
  -27.5740  -32.5410   25.7520 C   0  0  0  0  0  1  0  0  0  0  0  0
  -29.2400  -19.8780   20.6080 C   0  0  0  0  0  2  0  0  0  0  0  0
  -31.0590  -18.4470   19.1390 C   0  0  0  0  0  1  0  0  0  0  0  0
  -29.7160  -18.2670   19.8720 C   0  0  0  0  0  0  0  0  0  0  0  0
  -30.4030  -15.3550   20.2980 C   0  0  0  0  0  0  0  0  0  0  0  0
  -30.3950  -12.8700   19.5050 C   0  0  0  0  0  2  0  0  0  0  0  0
  -29.5120  -12.6430   18.2510 C   0  0  0  0  0  2  0  0  0  0  0  0
  -28.0560  -12.3640   18.6600 C   0  0  0  0  0  2  0  0  0  0  0  0
  -27.5730  -13.3500   19.7500 C   0  0  0  0  0  3  0  0  0  0  0  0
  -28.5910  -13.5430   20.8970 C   0  0  0  0  0  2  0  0  0  0  0  0
  -29.8390  -14.0410   20.2890 N   0  0  0  0  0  0  0  0  0  0  0  0
  -31.6160  -15.3320   20.0420 O   0  0  0  0  0  0  0  0  0  0  0  0
  -29.6530  -16.6480   20.3930 N   0  0  0  0  0  4  0  0  0  0  0  0
  -28.7150  -16.4410   20.7060 H   0  0  0  0  0  0  0  0  0  0  0  0
  -25.1910  -13.9120   20.4510 C   0  0  0  0  0  0  0  0  0  0  0  0
  -24.1230  -13.1390   20.8100 C   0  0  0  0  0  0  0  0  0  0  0  0
  -24.5910  -11.7880   20.8050 C   0  0  0  0  0  0  0  0  0  0  0  0
  -26.2380  -13.0340   20.2390 N   0  0  0  0  0  0  0  0  0  0  0  0
  -25.8870  -11.7520   20.5170 N   0  0  0  0  0  0  0  0  0  0  0  0
  -23.8610  -10.5280   20.9950 C   0  0  0  0  0  0  0  0  0  0  0  0
  -24.2740   -9.5680   21.9450 C   0  0  0  0  0  3  0  0  0  0  0  0
  -23.5420   -8.3740   22.1200 C   0  0  0  0  0  3  0  0  0  0  0  0
  -22.3790   -8.1320   21.3510 C   0  0  0  0  0  0  0  0  0  0  0  0
  -21.9850   -9.0820   20.3910 C   0  0  0  0  0  3  0  0  0  0  0  0
  -22.7180  -10.2680   20.2140 C   0  0  0  0  0  3  0  0  0  0  0  0
  -21.6180   -6.9900   21.4370 O   0  0  0  0  0  0  0  0  0  0  0  0
  -21.5510   -6.2570   22.5940 C   0  0  0  0  0  0  0  0  0  0  0  0
  -21.1170   -6.8230   23.8130 C   0  0  0  0  0  3  0  0  0  0  0  0
  -20.9960   -6.0150   24.9610 C   0  0  0  0  0  3  0  0  0  0  0  0
  -21.3020   -4.6430   24.8920 C   0  0  0  0  0  0  0  0  0  0  0  0
  -21.7290   -4.0750   23.6780 C   0  0  0  0  0  3  0  0  0  0  0  0
  -21.8520   -4.8810   22.5320 C   0  0  0  0  0  0  0  0  0  0  0  0
  -22.2430   -4.3260   21.3600 F   0  0  0  0  0  0  0  0  0  0  0  0
  -21.1790   -3.8640   25.9930 F   0  0  0  0  0  0  0  0  0  0  0  0
  -22.7210  -13.6150   21.0420 C   0  0  0  0  0  0  0  0  0  0  0  0
  -21.9730  -12.9330   21.9030 N   0  0  0  0  0  0  0  0  0  0  0  0
  -22.2990  -14.6370   20.4990 O   0  0  0  0  0  0  0  0  0  0  0  0
  -22.3230  -12.1080   22.3670 H   0  0  0  0  0  0  0  0  0  0  0  0
  -21.0300  -13.2420   22.1010 H   0  0  0  0  0  0  0  0  0  0  0  0
  -25.3600  -15.2800   20.2600 N   0  0  0  0  0  0  0  0  0  0  0  0
  -24.5920  -15.9390   20.3380 H   0  0  0  0  0  0  0  0  0  0  0  0
  -26.2140  -15.7080   19.9310 H   0  0  0  0  0  0  0  0  0  0  0  0
  1  3  2  0
  1  2  1  0
  2  5  2  0
  3  6  1  0
  5  4  1  0
  5 48  1  0
  6  7  1  0
  6  4  2  0
  8 19  2  0
  9  7  1  0
  9 14  1  0
 10 18  1  0
 10 20  1  0
 11 17  1  0
 11 13  1  0
 12 18  1  0
 13 12  1  0
 14 13  2  0
 15  9  2  0
 16 15  1  0
 16 11  2  0
 17 10  1  0
 18  8  1  0
 20 22  2  0
 21 20  1  0
 23 21  1  0
 24 33  2  0
 24 29  1  0
 25 21  1  0
 25 29  1  0
 26 25  1  0
 27 28  1  0
 27 26  1  0
 28 24  1  0
 29 30  2  0
 30 31  1  0
 32 31  2  0
 33 32  1  0
 34  8  1  0
 34 35  1  0
 34 44  1  0
 35 38  1  0
 36 40  1  0
 36 35  1  0
 37 36  2  0
 40 39  1  0
 42 40  1  0
 42 43  1  0
 42 41  1  0
 44 47  1  1
 44 45  1  0
 46 44  1  0
 49 50  1  0
 50 59  2  0
 50 48  1  0
 51 59  1  0
 52 57  1  0
 53 54  1  0
 53 52  1  0
 55 54  1  0
 55 64  1  0
 55 56  1  0
 57 51  1  0
 57 56  1  0
 58 51  2  0
 59 60  1  0
 61 62  2  0
 62 81  1  0
 63 62  1  0
 63 66  1  0
 64 61  1  0
 64 65  1  0
 65 63  2  0
 66 67  1  0
 67 68  2  0
 69 72  1  0
 69 68  1  0
 70 69  2  0
 71 70  1  0
 71 66  2  0
 72 73  1  0
 73 74  1  0
 74 75  2  0
 76 75  1  0
 76 80  1  0
 77 76  2  0
 78 73  2  0
 78 77  1  0
 79 78  1  0
 81 82  1  0
 82 85  1  0
 82 84  1  0
 83 81  2  0
 86 87  1  0
 86 61  1  0
 88 86  1  0
M  ISO  4   6 101   7 101  51 100  59 100
M  END
>  <TORSDO>  (32) 
F 18

>  <SCORE>  (32) 
-15.686

>  <name>  (32) 
31

>  <ligand_id>  (32) 
31

>  <original_smiles>  (32) 
[H]c1c([H])c([H])c2c(c1[H])C([H])([H])C([H])([H])C([H])([H])C2([H])N([H])C(=O)C1([H])N(C(=O)C([H])(N([H])C(=O)C([H])(N([H])C([H])([H])[H])C([H])([H])[H])C(C([H])([H])[H])(C([H])([H])[H])C([H])([H])[H])C([H])([H])c2c([H])c(Oc3c([H])c([H])c([H])c(C([H])([H])C([H])(N([H])C(=O)N4C([H])([H])C([H])([H])C([H])([H])C([H])(n5nc(-c6c([H])c([H])c(Oc7c([H])c([H])c(F)c([H])c7F)c([H])c6[H])c(C(=O)N([H])[H])c5N([H])[H])C4([H])[H])C([H])([H])[H])c3[H])c([H])c([H])c2C1([H])[H]

>  <smiles>  (32) 
[H]c1c([H])c([H])c2c(c1[H])C([H])([H])C([H])([H])C([H])([H])C2([H])N([H])C(=O)C1([H])N(C(=O)C([H])(N([H])C(=O)C([H])(N([H])C([H])([H])[H])C([H])([H])[H])C(C([H])([H])[H])(C([H])([H])[H])C([H])([H])[H])C([H])([H])c2c([H])c(Oc3c([H])c([H])c([H])c(C([H])([H])C([H])(N([H])C(=O)N4C([H])([H])C([H])([H])C([H])([H])C([H])(n5nc(-c6c([H])c([H])c(Oc7c([H])c([H])c(F)c([H])c7F)c([H])c6[H])c(C(=O)N([H])[H])c5N([H])[H])C4([H])[H])C([H])([H])[H])c3[H])c([H])c([H])c2C1([H])[H]

$$$$
32:0:0
     RDKit          3D

 90 98  0  0  1  0  0  0  0  0999 V2000
  -28.9460  -23.6560   20.1020 C   0  0  0  0  0  3  0  0  0  0  0  0
  -27.5200  -22.0480   21.2350 C   0  0  0  0  0  3  0  0  0  0  0  0
  -26.9740  -24.4730   21.2230 C   0  0  0  0  0  3  0  0  0  0  0  0
  -28.7040  -22.2250   20.4900 C   0  0  0  0  0  0  0  0  0  0  0  0
  -28.0930  -24.8420   20.4400 C   0  0  0  0  0  0  0  0  0  0  0  0
  -26.6900  -23.1360   21.5920 C   0  0  0  0  0  0  0  0  0  0  0  0
  -25.5740  -22.8890   22.3200 F   0  0  0  0  0  0  0  0  0  0  0  0
  -29.6020  -20.9290   20.1460 C   0  0  0  0  0  0  0  0  0  0  0  0
  -29.3680  -19.5730   20.5450 N   0  0  0  0  0  0  0  0  0  0  0  0
  -30.6040  -21.1460   19.4640 O   0  0  0  0  0  0  0  0  0  0  0  0
  -28.5370  -19.4500   21.1080 H   0  0  0  0  0  0  0  0  0  0  0  0
  -30.1950  -18.2290   20.2690 C   0  0  0  0  0  3  0  0  0  0  0  0
  -29.7780  -16.6360   20.7160 C   0  0  0  0  0  3  0  0  0  0  0  0
  -30.6340  -15.2180   20.4270 C   0  0  0  0  0  0  0  0  0  0  0  0
  -30.5840  -12.8560   19.4710 C   0  0  0  0  0  2  0  0  0  0  0  0
  -29.6780  -12.8200   18.2160 C   0  0  0  0  0  2  0  0  0  0  0  0
  -28.2050  -12.5970   18.6070 C   0  0  0  0  0  2  0  0  0  0  0  0
  -27.7660  -13.5070   19.7830 C   0  0  0  0  0  3  0  0  0  0  0  0
  -28.7930  -13.5110   20.9340 C   0  0  0  0  0  2  0  0  0  0  0  0
  -30.0830  -13.9340   20.3750 N   0  0  0  0  0  0  0  0  0  0  0  0
  -31.8350  -15.2940   20.1310 O   0  0  0  0  0  0  0  0  0  0  0  0
  -25.3660  -14.0740   20.4630 C   0  0  0  0  0  0  0  0  0  0  0  0
  -24.2970  -13.2930   20.8080 C   0  0  0  0  0  0  0  0  0  0  0  0
  -24.7700  -11.9450   20.7930 C   0  0  0  0  0  0  0  0  0  0  0  0
  -26.4200  -13.2000   20.2500 N   0  0  0  0  0  0  0  0  0  0  0  0
  -26.0680  -11.9160   20.5160 N   0  0  0  0  0  0  0  0  0  0  0  0
  -24.0460  -10.6800   20.9690 C   0  0  0  0  0  0  0  0  0  0  0  0
  -24.4520   -9.7210   21.9230 C   0  0  0  0  0  3  0  0  0  0  0  0
  -23.7250   -8.5210   22.0860 C   0  0  0  0  0  3  0  0  0  0  0  0
  -22.5800   -8.2710   21.2940 C   0  0  0  0  0  0  0  0  0  0  0  0
  -22.1930   -9.2200   20.3310 C   0  0  0  0  0  3  0  0  0  0  0  0
  -22.9200  -10.4100   20.1660 C   0  0  0  0  0  3  0  0  0  0  0  0
  -21.8280   -7.1230   21.3660 O   0  0  0  0  0  0  0  0  0  0  0  0
  -21.7430   -6.3900   22.5220 C   0  0  0  0  0  0  0  0  0  0  0  0
  -21.2400   -6.9430   23.7200 C   0  0  0  0  0  3  0  0  0  0  0  0
  -21.1040   -6.1340   24.8650 C   0  0  0  0  0  3  0  0  0  0  0  0
  -21.4590   -4.7730   24.8140 C   0  0  0  0  0  0  0  0  0  0  0  0
  -21.9540   -4.2200   23.6200 C   0  0  0  0  0  3  0  0  0  0  0  0
  -22.0920   -5.0260   22.4770 C   0  0  0  0  0  0  0  0  0  0  0  0
  -22.5500   -4.4810   21.3240 F   0  0  0  0  0  0  0  0  0  0  0  0
  -21.3210   -3.9950   25.9130 F   0  0  0  0  0  0  0  0  0  0  0  0
  -22.8900  -13.7640   21.0410 C   0  0  0  0  0  0  0  0  0  0  0  0
  -22.1470  -13.0740   21.8980 N   0  0  0  0  0  0  0  0  0  0  0  0
  -22.4590  -14.7800   20.4960 O   0  0  0  0  0  0  0  0  0  0  0  0
  -22.5090  -12.2530   22.3610 H   0  0  0  0  0  0  0  0  0  0  0  0
  -21.2020  -13.3710   22.0950 H   0  0  0  0  0  0  0  0  0  0  0  0
  -25.5260  -15.4450   20.2880 N   0  0  0  0  0  0  0  0  0  0  0  0
  -24.7530  -16.0960   20.3800 H   0  0  0  0  0  0  0  0  0  0  0  0
  -26.3800  -15.8880   19.9750 H   0  0  0  0  0  0  0  0  0  0  0  0
  -28.2820  -26.2830   20.1260 O   0  0  0  0  0  0  0  0  0  0  0  0
  -24.6450  -31.9410   23.2690 C   0  0  0  0  0  0  0  0  0  0  0  0
  -27.2360  -27.2920   20.1250 C   0  0  0  0  0  0  0  0  0  0  0  0
  -23.4480  -30.5720   21.6070 C   0  0  0  0  0  3  0  0  0  0  0  0
  -24.9020  -29.0400   20.1360 C   0  0  0  0  0  0  0  0  0  0  0  0
  -26.0000  -30.8520   21.4400 C   0  0  0  0  0  2  0  0  0  0  0  0
  -26.0800  -29.4710   20.7600 C   0  0  0  0  0  0  0  0  0  0  0  0
  -27.2460  -28.6120   20.7430 C   0  0  0  0  0  3  0  0  0  0  0  0
  -26.0410  -26.9840   19.4390 C   0  0  0  0  0  3  0  0  0  0  0  0
  -24.8950  -27.8100   19.4600 C   0  0  0  0  0  3  0  0  0  0  0  0
  -23.6670  -29.9280   20.2110 C   0  0  0  0  0  2  0  0  0  0  0  0
  -24.7180  -31.1430   22.1600 N   0  0  0  0  0  0  0  0  0  0  0  0
  -23.5590  -32.2060   23.8080 O   0  0  0  0  0  0  0  0  0  0  0  0
  -22.7810  -29.5390   22.5500 C   0  0  0  0  0  0  0  0  0  0  0  0
  -21.4560  -29.3500   22.4170 N   0  0  0  0  0  0  0  0  0  0  0  0
  -23.4590  -28.9120   23.3680 O   0  0  0  0  0  0  0  0  0  0  0  0
  -20.9650  -29.9020   21.7290 H   0  0  0  0  0  0  0  0  0  0  0  0
  -18.0920  -28.1010   22.9120 C   0  0  0  0  0  0  0  0  0  0  0  0
  -20.6490  -28.3890   23.1760 C   0  0  0  0  0  3  0  0  0  0  0  0
  -20.7640  -26.9680   22.5780 C   0  0  0  0  0  2  0  0  0  0  0  0
  -19.6650  -26.6500   21.5600 C   0  0  0  0  0  2  0  0  0  0  0  0
  -18.2830  -26.7680   22.2080 C   0  0  0  0  0  2  0  0  0  0  0  0
  -19.2020  -28.8690   23.3520 C   0  0  0  0  0  0  0  0  0  0  0  0
  -18.9700  -30.1140   23.9740 C   0  0  0  0  0  3  0  0  0  0  0  0
  -17.6590  -30.5950   24.1570 C   0  0  0  0  0  3  0  0  0  0  0  0
  -16.5640  -29.8250   23.7310 C   0  0  0  0  0  3  0  0  0  0  0  0
  -16.7800  -28.5780   23.1140 C   0  0  0  0  0  3  0  0  0  0  0  0
  -25.9210  -32.5750   23.9030 C   0  0  0  0  0  3  0  0  0  0  0  0
  -26.4220  -31.8050   25.1870 C   0  0  1  0  0  0  0  0  0  0  0  0
  -25.3170  -31.5660   26.2420 C   0  0  0  0  0  1  0  0  0  0  0  0
  -27.0110  -30.4270   24.8070 C   0  0  0  0  0  1  0  0  0  0  0  0
  -27.5640  -32.6010   25.8610 C   0  0  0  0  0  1  0  0  0  0  0  0
  -25.6070  -33.9740   24.2370 N   0  0  0  0  0  0  0  0  0  0  0  0
  -25.9310  -35.0320   23.4820 C   0  0  0  0  0  0  0  0  0  0  0  0
  -26.5910  -34.9330   22.4440 O   0  0  0  0  0  0  0  0  0  0  0  0
  -25.0180  -34.1240   25.0430 H   0  0  0  0  0  0  0  0  0  0  0  0
  -24.1950  -36.8270   23.1590 C   0  0  0  0  0  1  0  0  0  0  0  0
  -25.4490  -36.4190   23.9510 C   0  0  0  0  0  3  0  0  0  0  0  0
  -27.5900  -37.3110   24.7580 C   0  0  0  0  0  1  0  0  0  0  0  0
  -26.4770  -37.4750   23.8260 N   0  0  0  0  0  0  0  0  0  0  0  0
  -26.0710  -38.3950   23.9750 H   0  0  0  0  0  0  0  0  0  0  0  0
  1  5  2  0
  1  4  1  0
  2  6  1  0
  3  6  2  0
  4  2  2  0
  5  3  1  0
  6  7  1  0
  8  4  1  0
  8  9  1  0
  9 11  1  0
 10  8  2  0
 12  9  1  0
 12 13  2  0
 14 13  1  0
 15 20  1  0
 16 17  1  0
 16 15  1  0
 18 17  1  0
 18 25  1  0
 18 19  1  0
 20 14  1  0
 20 19  1  0
 21 14  2  0
 22 23  2  0
 23 42  1  0
 24 23  1  0
 24 27  1  0
 25 22  1  0
 25 26  1  0
 26 24  2  0
 27 28  1  0
 28 29  2  0
 30 33  1  0
 30 29  1  0
 31 30  2  0
 32 31  1  0
 32 27  2  0
 33 34  1  0
 34 35  1  0
 35 36  2  0
 37 36  1  0
 37 41  1  0
 38 37  2  0
 39 34  2  0
 39 38  1  0
 40 39  1  0
 42 43  1  0
 43 46  1  0
 43 45  1  0
 44 42  2  0
 47 48  1  0
 47 22  1  0
 49 47  1  0
 50  5  1  0
 51 62  2  0
 52 50  1  0
 52 57  1  0
 53 61  1  0
 53 63  1  0
 54 60  1  0
 54 56  1  0
 55 61  1  0
 56 55  1  0
 57 56  2  0
 58 59  1  0
 58 52  2  0
 59 54  2  0
 60 53  1  0
 61 51  1  0
 63 65  2  0
 64 63  1  0
 66 64  1  0
 67 76  2  0
 67 72  1  0
 68 64  1  0
 68 72  1  0
 69 68  1  0
 70 71  1  0
 70 69  1  0
 71 67  1  0
 72 73  2  0
 73 74  1  0
 75 74  2  0
 76 75  1  0
 77 51  1  0
 77 82  1  0
 77 78  1  0
 78 81  1  1
 78 79  1  0
 80 78  1  0
 82 85  1  0
 83 87  1  0
 83 82  1  0
 84 83  2  0
 87 86  1  0
 89 87  1  0
 89 90  1  0
 89 88  1  0
M  ISO  4   5 101  13 100  14 100  50 101
M  END
>  <TORSDO>  (33) 
F 19

>  <SCORE>  (33) 
-14.967

>  <name>  (33) 
32

>  <ligand_id>  (33) 
32

>  <original_smiles>  (33) 
[H]c1c([H])c([H])c2c(c1[H])C([H])([H])C([H])([H])C([H])([H])C2([H])N([H])C(=O)C1([H])N(C(=O)C([H])(N([H])C(=O)C([H])(N([H])C([H])([H])[H])C([H])([H])[H])C(C([H])([H])[H])(C([H])([H])[H])C([H])([H])[H])C([H])([H])c2c([H])c(Oc3c([H])c(F)c([H])c(C(=O)N([H])C([H])([H])C([H])([H])C(=O)N4C([H])([H])C([H])([H])C([H])([H])C([H])(n5nc(-c6c([H])c([H])c(Oc7c([H])c([H])c(F)c([H])c7F)c([H])c6[H])c(C(=O)N([H])[H])c5N([H])[H])C4([H])[H])c3[H])c([H])c([H])c2C1([H])[H]

>  <smiles>  (33) 
[H]c1c([H])c([H])c2c(c1[H])C([H])([H])C([H])([H])C([H])([H])C2([H])N([H])C(=O)C1([H])N(C(=O)C([H])(N([H])C(=O)C([H])(N([H])C([H])([H])[H])C([H])([H])[H])C(C([H])([H])[H])(C([H])([H])[H])C([H])([H])[H])C([H])([H])c2c([H])c(Oc3c([H])c(F)c([H])c(C(=O)N([H])C([H])([H])C([H])([H])C(=O)N4C([H])([H])C([H])([H])C([H])([H])C([H])(n5nc(-c6c([H])c([H])c(Oc7c([H])c([H])c(F)c([H])c7F)c([H])c6[H])c(C(=O)N([H])[H])c5N([H])[H])C4([H])[H])c3[H])c([H])c([H])c2C1([H])[H]

$$$$
33:0:0
     RDKit          3D

 90 98  0  0  1  0  0  0  0  0999 V2000
  -28.6330  -22.8780   19.7980 C   0  0  0  0  0  3  0  0  0  0  0  0
  -28.4240  -24.2460   19.4510 C   0  0  0  0  0  3  0  0  0  0  0  0
  -28.8670  -24.9050   21.7270 C   0  0  0  0  0  3  0  0  0  0  0  0
  -28.9720  -22.4930   21.1220 C   0  0  0  0  0  0  0  0  0  0  0  0
  -28.5570  -25.2880   20.4050 C   0  0  0  0  0  0  0  0  0  0  0  0
  -29.0570  -23.5420   22.0860 C   0  0  0  0  0  0  0  0  0  0  0  0
  -29.3310  -23.2700   23.3960 O   0  0  0  0  0  0  0  0  0  0  0  0
  -29.3550  -22.3410   23.5990 H   0  0  0  0  0  0  0  0  0  0  0  0
  -28.5160  -26.6400   20.0430 O   0  0  0  0  0  0  0  0  0  0  0  0
  -24.6570  -31.8120   23.1900 C   0  0  0  0  0  0  0  0  0  0  0  0
  -27.3430  -27.3800   20.0910 C   0  0  0  0  0  0  0  0  0  0  0  0
  -23.4670  -30.4080   21.5390 C   0  0  0  0  0  3  0  0  0  0  0  0
  -24.9390  -28.8940   20.1000 C   0  0  0  0  0  0  0  0  0  0  0  0
  -25.9900  -30.7900   21.3430 C   0  0  0  0  0  2  0  0  0  0  0  0
  -26.0920  -29.4190   20.6930 C   0  0  0  0  0  0  0  0  0  0  0  0
  -27.2960  -28.6690   20.6880 C   0  0  0  0  0  3  0  0  0  0  0  0
  -26.1720  -26.8860   19.4780 C   0  0  0  0  0  3  0  0  0  0  0  0
  -24.9740  -27.6280   19.4900 C   0  0  0  0  0  3  0  0  0  0  0  0
  -23.6850  -29.7420   20.1550 C   0  0  0  0  0  2  0  0  0  0  0  0
  -24.7240  -31.0200   22.0820 N   0  0  0  0  0  0  0  0  0  0  0  0
  -23.5730  -32.0680   23.7330 O   0  0  0  0  0  0  0  0  0  0  0  0
  -22.8290  -29.3730   22.4940 C   0  0  0  0  0  0  0  0  0  0  0  0
  -21.5090  -29.1540   22.3520 N   0  0  0  0  0  0  0  0  0  0  0  0
  -23.5160  -28.7690   23.3230 O   0  0  0  0  0  0  0  0  0  0  0  0
  -21.0110  -29.6990   21.6610 H   0  0  0  0  0  0  0  0  0  0  0  0
  -18.1750  -27.8240   22.7700 C   0  0  0  0  0  0  0  0  0  0  0  0
  -20.7090  -28.1940   23.1130 C   0  0  0  0  0  3  0  0  0  0  0  0
  -20.8880  -26.7600   22.5630 C   0  0  0  0  0  2  0  0  0  0  0  0
  -19.8310  -26.3760   21.5220 C   0  0  0  0  0  2  0  0  0  0  0  0
  -18.4260  -26.4730   22.1210 C   0  0  0  0  0  2  0  0  0  0  0  0
  -19.2470  -28.6380   23.2200 C   0  0  0  0  0  0  0  0  0  0  0  0
  -18.9580  -29.9010   23.7830 C   0  0  0  0  0  3  0  0  0  0  0  0
  -17.6290  -30.3490   23.9030 C   0  0  0  0  0  3  0  0  0  0  0  0
  -16.5710  -29.5330   23.4670 C   0  0  0  0  0  3  0  0  0  0  0  0
  -16.8450  -28.2710   22.9080 C   0  0  0  0  0  3  0  0  0  0  0  0
  -25.9360  -32.4560   23.8150 C   0  0  0  0  0  3  0  0  0  0  0  0
  -25.6080  -33.8460   24.1630 N   0  0  0  0  0  0  0  0  0  0  0  0
  -25.9230  -34.9120   23.4140 C   0  0  0  0  0  0  0  0  0  0  0  0
  -26.5890  -34.8290   22.3770 O   0  0  0  0  0  0  0  0  0  0  0  0
  -25.0190  -33.9830   24.9700 H   0  0  0  0  0  0  0  0  0  0  0  0
  -24.1640  -36.6810   23.0890 C   0  0  0  0  0  1  0  0  0  0  0  0
  -25.4160  -36.2880   23.8890 C   0  0  0  0  0  3  0  0  0  0  0  0
  -27.5440  -37.1950   24.7110 C   0  0  0  0  0  1  0  0  0  0  0  0
  -26.4320  -37.3560   23.7790 N   0  0  0  0  0  0  0  0  0  0  0  0
  -26.0120  -38.2680   23.9420 H   0  0  0  0  0  0  0  0  0  0  0  0
  -26.4690  -31.6740   25.0770 C   0  0  1  0  0  0  0  0  0  0  0  0
  -25.3900  -31.4120   26.1520 C   0  0  0  0  0  1  0  0  0  0  0  0
  -27.0680  -30.3080   24.6660 C   0  0  0  0  0  1  0  0  0  0  0  0
  -27.6130  -32.4760   25.7440 C   0  0  0  0  0  1  0  0  0  0  0  0
  -29.1860  -21.0070   21.5620 C   0  0  0  0  0  2  0  0  0  0  0  0
  -29.5770  -19.8660   20.5420 C   0  0  0  0  0  2  0  0  0  0  0  0
  -29.6550  -18.4150   21.1820 C   0  0  0  0  0  2  0  0  0  0  0  0
  -30.2880  -17.2310   20.3470 C   0  0  0  0  0  3  0  0  0  0  0  0
  -30.0680  -15.7840   20.9450 C   0  0  0  0  0  3  0  0  0  0  0  0
  -30.6970  -14.5630   20.1760 C   0  0  0  0  0  0  0  0  0  0  0  0
  -30.3590  -12.4030   18.9870 C   0  0  0  0  0  2  0  0  0  0  0  0
  -29.3750  -12.6400   17.8220 C   0  0  0  0  0  2  0  0  0  0  0  0
  -27.9140  -12.5130   18.3000 C   0  0  0  0  0  2  0  0  0  0  0  0
  -27.6390  -13.3100   19.6010 C   0  0  0  0  0  3  0  0  0  0  0  0
  -28.7340  -13.0440   20.6580 C   0  0  0  0  0  2  0  0  0  0  0  0
  -30.0320  -13.3710   20.0500 N   0  0  0  0  0  0  0  0  0  0  0  0
  -31.7880  -14.7390   19.6250 O   0  0  0  0  0  0  0  0  0  0  0  0
  -25.2730  -13.9430   20.3850 C   0  0  0  0  0  0  0  0  0  0  0  0
  -24.2060  -13.1850   20.7910 C   0  0  0  0  0  0  0  0  0  0  0  0
  -24.6460  -11.8280   20.7420 C   0  0  0  0  0  0  0  0  0  0  0  0
  -26.2980  -13.0480   20.1200 N   0  0  0  0  0  0  0  0  0  0  0  0
  -25.9260  -11.7690   20.3900 N   0  0  0  0  0  0  0  0  0  0  0  0
  -23.9080  -10.5760   20.9610 C   0  0  0  0  0  0  0  0  0  0  0  0
  -24.3690   -9.6010   21.8720 C   0  0  0  0  0  3  0  0  0  0  0  0
  -23.6370   -8.4120   22.0790 C   0  0  0  0  0  3  0  0  0  0  0  0
  -22.4300   -8.1920   21.3750 C   0  0  0  0  0  0  0  0  0  0  0  0
  -21.9890   -9.1540   20.4510 C   0  0  0  0  0  3  0  0  0  0  0  0
  -22.7200  -10.3360   20.2420 C   0  0  0  0  0  3  0  0  0  0  0  0
  -21.6630   -7.0580   21.4940 O   0  0  0  0  0  0  0  0  0  0  0  0
  -21.6590   -6.3070   22.6400 C   0  0  0  0  0  0  0  0  0  0  0  0
  -21.3110   -6.8610   23.8930 C   0  0  0  0  0  3  0  0  0  0  0  0
  -21.2520   -6.0390   25.0360 C   0  0  0  0  0  3  0  0  0  0  0  0
  -21.5320   -4.6630   24.9310 C   0  0  0  0  0  0  0  0  0  0  0  0
  -21.8690   -4.1080   23.6840 C   0  0  0  0  0  3  0  0  0  0  0  0
  -21.9330   -4.9280   22.5440 C   0  0  0  0  0  0  0  0  0  0  0  0
  -22.2420   -4.3840   21.3430 F   0  0  0  0  0  0  0  0  0  0  0  0
  -21.4670   -3.8720   26.0270 F   0  0  0  0  0  0  0  0  0  0  0  0
  -22.8250  -13.6820   21.1170 C   0  0  0  0  0  0  0  0  0  0  0  0
  -22.1220  -12.9910   22.0070 N   0  0  0  0  0  0  0  0  0  0  0  0
  -22.3790  -14.7130   20.6150 O   0  0  0  0  0  0  0  0  0  0  0  0
  -22.5020  -12.1590   22.4340 H   0  0  0  0  0  0  0  0  0  0  0  0
  -21.1940  -13.2950   22.2660 H   0  0  0  0  0  0  0  0  0  0  0  0
  -25.4510  -15.3120   20.2010 N   0  0  0  0  0  0  0  0  0  0  0  0
  -24.7000  -15.9810   20.3250 H   0  0  0  0  0  0  0  0  0  0  0  0
  -26.3040  -15.7340   19.8560 H   0  0  0  0  0  0  0  0  0  0  0  0
  1  4  1  0
  2  1  2  0
  2  5  1  0
  3  6  1  0
  4 50  1  0
  4  6  2  0
  5  3  2  0
  6  7  1  0
  7  8  1  0
  9 11  1  0
  9  5  1  0
 10 21  2  0
 11 16  1  0
 12 20  1  0
 12 22  1  0
 13 19  1  0
 13 15  1  0
 14 20  1  0
 15 14  1  0
 16 15  2  0
 17 18  1  0
 17 11  2  0
 18 13  2  0
 19 12  1  0
 20 10  1  0
 22 24  2  0
 23 22  1  0
 25 23  1  0
 26 35  2  0
 26 31  1  0
 27 23  1  0
 27 31  1  0
 28 27  1  0
 29 30  1  0
 29 28  1  0
 30 26  1  0
 31 32  2  0
 32 33  1  0
 34 33  2  0
 35 34  1  0
 36 10  1  0
 36 37  1  0
 36 46  1  0
 37 40  1  0
 38 42  1  0
 38 37  1  0
 39 38  2  0
 42 41  1  0
 44 42  1  0
 44 45  1  0
 44 43  1  0
 46 49  1  1
 46 47  1  0
 48 46  1  0
 51 52  1  0
 51 50  1  0
 53 54  2  0
 53 52  1  0
 55 54  1  0
 56 61  1  0
 57 58  1  0
 57 56  1  0
 59 58  1  0
 59 66  1  0
 59 60  1  0
 61 55  1  0
 61 60  1  0
 62 55  2  0
 63 64  2  0
 64 83  1  0
 65 64  1  0
 65 68  1  0
 66 63  1  0
 66 67  1  0
 67 65  2  0
 68 69  1  0
 69 70  2  0
 71 74  1  0
 71 70  1  0
 72 71  2  0
 73 72  1  0
 73 68  2  0
 74 75  1  0
 75 76  1  0
 76 77  2  0
 78 77  1  0
 78 82  1  0
 79 78  2  0
 80 75  2  0
 80 79  1  0
 81 80  1  0
 83 84  1  0
 84 87  1  0
 84 86  1  0
 85 83  2  0
 88 89  1  0
 88 63  1  0
 90 88  1  0
M  ISO  4   5 101   9 101  54 100  55 100
M  END
>  <TORSDO>  (34) 
F 22

>  <SCORE>  (34) 
-13.124

>  <name>  (34) 
33

>  <ligand_id>  (34) 
33

>  <original_smiles>  (34) 
[H]Oc1c([H])c(Oc2c([H])c([H])c3c(c2[H])C([H])([H])N(C(=O)C([H])(N([H])C(=O)C([H])(N([H])C([H])([H])[H])C([H])([H])[H])C(C([H])([H])[H])(C([H])([H])[H])C([H])([H])[H])C([H])(C(=O)N([H])C2([H])c4c([H])c([H])c([H])c([H])c4C([H])([H])C([H])([H])C2([H])[H])C3([H])[H])c([H])c([H])c1C([H])([H])C([H])([H])C([H])([H])C([H])([H])C([H])([H])C(=O)N1C([H])([H])C([H])([H])C([H])([H])C([H])(n2nc(-c3c([H])c([H])c(Oc4c([H])c([H])c(F)c([H])c4F)c([H])c3[H])c(C(=O)N([H])[H])c2N([H])[H])C1([H])[H]

>  <smiles>  (34) 
[H]Oc1c([H])c(Oc2c([H])c([H])c3c(c2[H])C([H])([H])N(C(=O)C([H])(N([H])C(=O)C([H])(N([H])C([H])([H])[H])C([H])([H])[H])C(C([H])([H])[H])(C([H])([H])[H])C([H])([H])[H])C([H])(C(=O)N([H])C2([H])c4c([H])c([H])c([H])c([H])c4C([H])([H])C([H])([H])C2([H])[H])C3([H])[H])c([H])c([H])c1C([H])([H])C([H])([H])C([H])([H])C([H])([H])C([H])([H])C(=O)N1C([H])([H])C([H])([H])C([H])([H])C([H])(n2nc(-c3c([H])c([H])c(Oc4c([H])c([H])c(F)c([H])c4F)c([H])c3[H])c(C(=O)N([H])[H])c2N([H])[H])C1([H])[H]

$$$$
34:0:0
     RDKit          3D

 94103  0  0  1  0  0  0  0  0999 V2000
  -28.3950  -20.5900   18.9420 C   0  0  0  0  0  3  0  0  0  0  0  0
  -28.4900  -19.4340   18.1440 C   0  0  0  0  0  3  0  0  0  0  0  0
  -29.7090  -19.5080   20.7120 C   0  0  0  0  0  3  0  0  0  0  0  0
  -29.0500  -20.6710   20.2000 C   0  0  0  0  0  0  0  0  0  0  0  0
  -29.2310  -18.3460   18.6320 C   0  0  0  0  0  0  0  0  0  0  0  0
  -29.7860  -18.3350   19.9110 C   0  0  0  0  0  0  0  0  0  0  0  0
  -29.7070  -17.1800   17.8160 C   0  0  0  0  0  2  0  0  0  0  0  0
  -30.9480  -16.7300   18.6070 C   0  0  0  0  0  2  0  0  0  0  0  0
  -30.6800  -17.1000   20.0950 C   0  0  0  0  0  3  0  0  0  0  0  0
  -30.8350  -14.7720   20.9270 C   0  0  0  0  0  0  0  0  0  0  0  0
  -30.6210  -12.5610   19.8980 C   0  0  0  0  0  2  0  0  0  0  0  0
  -29.7880  -12.7130   18.6090 C   0  0  0  0  0  2  0  0  0  0  0  0
  -28.2850  -12.5700   18.9190 C   0  0  0  0  0  2  0  0  0  0  0  0
  -27.8280  -13.4330   20.1280 C   0  0  0  0  0  3  0  0  0  0  0  0
  -28.8030  -13.3200   21.3230 C   0  0  0  0  0  2  0  0  0  0  0  0
  -30.1560  -13.5980   20.8310 N   0  0  0  0  0  0  0  0  0  0  0  0
  -32.0570  -14.8340   20.7830 O   0  0  0  0  0  0  0  0  0  0  0  0
  -30.1070  -15.9050   20.7730 N   0  0  0  0  0  0  0  0  0  0  0  0
  -29.1040  -15.8350   20.8270 H   0  0  0  0  0  0  0  0  0  0  0  0
  -25.3750  -13.9880   20.6580 C   0  0  0  0  0  0  0  0  0  0  0  0
  -24.2990  -13.1960   20.9560 C   0  0  0  0  0  0  0  0  0  0  0  0
  -24.7910  -11.8560   20.9830 C   0  0  0  0  0  0  0  0  0  0  0  0
  -26.4520  -13.1280   20.5170 N   0  0  0  0  0  0  0  0  0  0  0  0
  -26.1010  -11.8410   20.7760 N   0  0  0  0  0  0  0  0  0  0  0  0
  -24.0770  -10.5800   21.1360 C   0  0  0  0  0  0  0  0  0  0  0  0
  -24.4520   -9.6360   22.1180 C   0  0  0  0  0  3  0  0  0  0  0  0
  -23.7390   -8.4260   22.2570 C   0  0  0  0  0  3  0  0  0  0  0  0
  -22.6380   -8.1500   21.4130 C   0  0  0  0  0  0  0  0  0  0  0  0
  -22.2840   -9.0810   20.4210 C   0  0  0  0  0  3  0  0  0  0  0  0
  -22.9980  -10.2830   20.2800 C   0  0  0  0  0  3  0  0  0  0  0  0
  -21.9040   -6.9890   21.4600 O   0  0  0  0  0  0  0  0  0  0  0  0
  -21.7620   -6.2710   22.6200 C   0  0  0  0  0  0  0  0  0  0  0  0
  -21.1750   -6.8320   23.7750 C   0  0  0  0  0  3  0  0  0  0  0  0
  -20.9850   -6.0380   24.9240 C   0  0  0  0  0  3  0  0  0  0  0  0
  -21.3710   -4.6850   24.9180 C   0  0  0  0  0  0  0  0  0  0  0  0
  -21.9510   -4.1230   23.7660 C   0  0  0  0  0  3  0  0  0  0  0  0
  -22.1430   -4.9150   22.6200 C   0  0  0  0  0  0  0  0  0  0  0  0
  -22.6820   -4.3620   21.5070 F   0  0  0  0  0  0  0  0  0  0  0  0
  -21.1830   -3.9200   26.0180 F   0  0  0  0  0  0  0  0  0  0  0  0
  -22.8750  -13.6460   21.1110 C   0  0  0  0  0  0  0  0  0  0  0  0
  -22.0940  -12.9420   21.9240 N   0  0  0  0  0  0  0  0  0  0  0  0
  -22.4590  -14.6560   20.5460 O   0  0  0  0  0  0  0  0  0  0  0  0
  -22.4440  -12.1310   22.4090 H   0  0  0  0  0  0  0  0  0  0  0  0
  -21.1340  -13.2240   22.0640 H   0  0  0  0  0  0  0  0  0  0  0  0
  -25.5220  -15.3580   20.4690 N   0  0  0  0  0  0  0  0  0  0  0  0
  -24.7300  -15.9920   20.4990 H   0  0  0  0  0  0  0  0  0  0  0  0
  -26.3770  -15.8140   20.1760 H   0  0  0  0  0  0  0  0  0  0  0  0
  -29.0650  -21.9930   20.9460 C   0  0  0  0  0  0  0  0  0  0  0  0
  -29.2450  -23.0940   20.1870 N   0  0  0  0  0  0  0  0  0  0  0  0
  -28.9830  -22.0320   22.1760 O   0  0  0  0  0  0  0  0  0  0  0  0
  -29.3480  -22.9190   19.1980 H   0  0  0  0  0  0  0  0  0  0  0  0
  -29.3780  -24.5040   20.6070 C   0  0  0  0  0  2  0  0  0  0  0  0
  -28.2180  -25.3800   20.0640 C   0  0  0  0  0  2  0  0  0  0  0  0
  -28.3630  -26.8110   20.2510 O   0  0  0  0  0  0  0  0  0  0  0  0
  -24.5280  -32.0110   23.3080 C   0  0  0  0  0  0  0  0  0  0  0  0
  -27.2000  -27.5700   20.2110 C   0  0  0  0  0  0  0  0  0  0  0  0
  -23.3330  -30.6090   21.6620 C   0  0  0  0  0  3  0  0  0  0  0  0
  -24.7980  -29.0910   20.2260 C   0  0  0  0  0  0  0  0  0  0  0  0
  -25.8600  -30.9810   21.4650 C   0  0  0  0  0  2  0  0  0  0  0  0
  -25.9560  -29.6110   20.8170 C   0  0  0  0  0  0  0  0  0  0  0  0
  -27.1600  -28.8600   20.8040 C   0  0  0  0  0  3  0  0  0  0  0  0
  -26.0160  -27.0830   19.6040 C   0  0  0  0  0  3  0  0  0  0  0  0
  -24.8230  -27.8280   19.6190 C   0  0  0  0  0  3  0  0  0  0  0  0
  -23.5490  -29.9420   20.2780 C   0  0  0  0  0  2  0  0  0  0  0  0
  -24.5910  -31.2140   22.2030 N   0  0  0  0  0  0  0  0  0  0  0  0
  -23.4450  -32.2730   23.8490 O   0  0  0  0  0  0  0  0  0  0  0  0
  -22.6900  -29.5760   22.6170 C   0  0  0  0  0  0  0  0  0  0  0  0
  -21.3690  -29.3730   22.4820 N   0  0  0  0  0  0  0  0  0  0  0  0
  -23.3770  -28.9600   23.4360 O   0  0  0  0  0  0  0  0  0  0  0  0
  -20.8740  -29.9230   21.7950 H   0  0  0  0  0  0  0  0  0  0  0  0
  -18.0120  -28.1200   22.9570 C   0  0  0  0  0  0  0  0  0  0  0  0
  -20.5630  -28.4220   23.2490 C   0  0  0  0  0  3  0  0  0  0  0  0
  -20.6940  -26.9920   22.6780 C   0  0  0  0  0  2  0  0  0  0  0  0
  -19.6070  -26.6480   21.6540 C   0  0  0  0  0  2  0  0  0  0  0  0
  -18.2180  -26.7720   22.2870 C   0  0  0  0  0  2  0  0  0  0  0  0
  -19.1150  -28.9010   23.3950 C   0  0  0  0  0  0  0  0  0  0  0  0
  -18.8700  -30.1620   23.9820 C   0  0  0  0  0  3  0  0  0  0  0  0
  -17.5560  -30.6440   24.1340 C   0  0  0  0  0  3  0  0  0  0  0  0
  -16.4690  -29.8590   23.7120 C   0  0  0  0  0  3  0  0  0  0  0  0
  -16.6970  -28.5990   23.1300 C   0  0  0  0  0  3  0  0  0  0  0  0
  -25.8080  -32.6520   23.9280 C   0  0  0  0  0  3  0  0  0  0  0  0
  -26.3210  -31.8940   25.2140 C   0  0  1  0  0  0  0  0  0  0  0  0
  -25.2200  -31.6550   26.2740 C   0  0  0  0  0  1  0  0  0  0  0  0
  -26.9170  -30.5190   24.8350 C   0  0  0  0  0  1  0  0  0  0  0  0
  -27.4620  -32.7010   25.8770 C   0  0  0  0  0  1  0  0  0  0  0  0
  -25.4970  -34.0530   24.2390 N   0  0  0  0  0  0  0  0  0  0  0  0
  -25.8670  -35.0990   23.4870 C   0  0  0  0  0  0  0  0  0  0  0  0
  -26.5760  -34.9840   22.4830 O   0  0  0  0  0  0  0  0  0  0  0  0
  -24.8720  -34.2170   25.0140 H   0  0  0  0  0  0  0  0  0  0  0  0
  -24.1910  -36.9150   23.0250 C   0  0  0  0  0  1  0  0  0  0  0  0
  -25.3700  -36.4920   23.9150 C   0  0  0  0  0  3  0  0  0  0  0  0
  -27.4580  -37.3450   24.8890 C   0  0  0  0  0  1  0  0  0  0  0  0
  -26.4240  -37.5310   23.8740 N   0  0  0  0  0  0  0  0  0  0  0  0
  -26.0230  -38.4550   23.9960 H   0  0  0  0  0  0  0  0  0  0  0  0
  1  4  1  0
  2  5  1  0
  2  1  2  0
  4  3  2  0
  4 48  1  0
  5  6  2  0
  6  9  1  0
  6  3  1  0
  7  8  1  0
  7  5  1  0
  8  9  1  0
  9 18  1  0
 11 16  1  0
 12 13  1  0
 12 11  1  0
 14 13  1  0
 14 23  1  0
 14 15  1  0
 16 10  1  0
 16 15  1  0
 17 10  2  0
 18 19  1  0
 18 10  1  0
 20 21  2  0
 21 22  1  0
 21 40  1  0
 22 25  1  0
 23 20  1  0
 23 24  1  0
 24 22  2  0
 25 26  1  0
 26 27  2  0
 28 31  1  0
 28 27  1  0
 29 28  2  0
 30 29  1  0
 30 25  2  0
 31 32  1  0
 32 37  2  0
 32 33  1  0
 33 34  2  0
 35 34  1  0
 35 39  1  0
 36 35  2  0
 37 36  1  0
 38 37  1  0
 40 41  1  0
 41 44  1  0
 41 43  1  0
 42 40  2  0
 45 46  1  0
 45 20  1  0
 47 45  1  0
 48 50  2  0
 49 52  1  0
 49 48  1  0
 51 49  1  0
 53 54  1  0
 53 52  1  0
 55 66  2  0
 56 54  1  0
 56 61  1  0
 57 65  1  0
 57 67  1  0
 58 64  1  0
 58 60  1  0
 59 65  1  0
 60 59  1  0
 61 60  2  0
 62 63  1  0
 62 56  2  0
 63 58  2  0
 64 57  1  0
 65 55  1  0
 67 69  2  0
 68 67  1  0
 70 68  1  0
 71 80  2  0
 71 76  1  0
 72 68  1  0
 72 76  1  0
 73 72  1  0
 74 75  1  0
 74 73  1  0
 75 71  1  0
 76 77  2  0
 77 78  1  0
 79 78  2  0
 80 79  1  0
 81 55  1  0
 81 86  1  0
 81 82  1  0
 82 85  1  1
 82 83  1  0
 84 82  1  0
 86 89  1  0
 87 91  1  0
 87 86  1  0
 88 87  2  0
 91 90  1  0
 93 91  1  0
 93 94  1  0
 93 92  1  0
M  ISO  4  10 100  18 100  53 101  54 101
M  END
>  <TORSDO>  (35) 
F 19

>  <SCORE>  (35) 
-13.898

>  <name>  (35) 
34

>  <ligand_id>  (35) 
34

>  <original_smiles>  (35) 
[H]c1c([H])c([H])c2c(c1[H])C([H])([H])C([H])([H])C([H])([H])C2([H])N([H])C(=O)C1([H])N(C(=O)C([H])(N([H])C(=O)C([H])(N([H])C([H])([H])[H])C([H])([H])[H])C(C([H])([H])[H])(C([H])([H])[H])C([H])([H])[H])C([H])([H])c2c([H])c(OC([H])([H])C([H])([H])N([H])C(=O)c3c([H])c([H])c4c(c3[H])C([H])(N([H])C(=O)N3C([H])([H])C([H])([H])C([H])([H])C([H])(n5nc(-c6c([H])c([H])c(Oc7c([H])c([H])c(F)c([H])c7F)c([H])c6[H])c(C(=O)N([H])[H])c5N([H])[H])C3([H])[H])C([H])([H])C4([H])[H])c([H])c([H])c2C1([H])[H]

>  <smiles>  (35) 
[H]c1c([H])c([H])c2c(c1[H])C([H])([H])C([H])([H])C([H])([H])C2([H])N([H])C(=O)C1([H])N(C(=O)C([H])(N([H])C(=O)C([H])(N([H])C([H])([H])[H])C([H])([H])[H])C(C([H])([H])[H])(C([H])([H])[H])C([H])([H])[H])C([H])([H])c2c([H])c(OC([H])([H])C([H])([H])N([H])C(=O)c3c([H])c([H])c4c(c3[H])C([H])(N([H])C(=O)N3C([H])([H])C([H])([H])C([H])([H])C([H])(n5nc(-c6c([H])c([H])c(Oc7c([H])c([H])c(F)c([H])c7F)c([H])c6[H])c(C(=O)N([H])[H])c5N([H])[H])C3([H])[H])C([H])([H])C4([H])[H])c([H])c([H])c2C1([H])[H]

$$$$
35:0:0
     RDKit          3D

 92101  0  0  1  0  0  0  0  0999 V2000
  -28.4500  -20.3280   19.5310 C   0  0  0  0  0  3  0  0  0  0  0  0
  -28.0080  -21.7320   19.3690 C   0  0  0  0  0  3  0  0  0  0  0  0
  -29.9670  -21.0270   21.1110 C   0  0  0  0  0  3  0  0  0  0  0  0
  -29.4920  -19.8290   20.4060 C   0  0  0  0  0  0  0  0  0  0  0  0
  -28.5120  -22.9190   20.0420 C   0  0  0  0  0  0  0  0  0  0  0  0
  -29.5120  -22.4400   20.9710 C   0  0  0  0  0  0  0  0  0  0  0  0
  -27.9680  -24.6520   22.7340 C   0  0  0  0  0  0  0  0  0  0  0  0
  -30.0980  -23.5220   21.8720 C   0  0  0  0  0  2  0  0  0  0  0  0
  -27.0760  -24.4260   21.4990 C   0  0  0  0  0  2  0  0  0  0  0  0
  -27.7180  -24.4440   20.0880 C   0  0  0  0  0  3  0  0  0  0  0  0
  -29.1860  -24.0930   22.8710 N   0  0  0  0  0  0  0  0  0  0  0  0
  -27.4910  -25.2810   23.6790 O   0  0  0  0  0  0  0  0  0  0  0  0
  -29.6110  -24.2360   23.7790 H   0  0  0  0  0  0  0  0  0  0  0  0
  -30.1340  -18.2720   20.5670 C   0  0  0  0  0  3  0  0  0  0  0  0
  -29.7800  -16.8550   20.5380 C   0  0  0  0  0  3  0  0  0  0  0  0
  -30.6450  -15.4890   20.5880 C   0  0  0  0  0  0  0  0  0  0  0  0
  -30.7120  -13.0190   19.8100 C   0  0  0  0  0  2  0  0  0  0  0  0
  -29.8670  -12.7470   18.5400 C   0  0  0  0  0  2  0  0  0  0  0  0
  -28.3990  -12.4620   18.9060 C   0  0  0  0  0  2  0  0  0  0  0  0
  -27.8600  -13.4640   19.9560 C   0  0  0  0  0  3  0  0  0  0  0  0
  -28.8350  -13.6950   21.1300 C   0  0  0  0  0  2  0  0  0  0  0  0
  -30.1060  -14.1770   20.5630 N   0  0  0  0  0  0  0  0  0  0  0  0
  -31.8780  -15.4890   20.4490 O   0  0  0  0  0  0  0  0  0  0  0  0
  -25.4590  -13.9920   20.6290 C   0  0  0  0  0  0  0  0  0  0  0  0
  -24.3910  -13.2030   20.9480 C   0  0  0  0  0  0  0  0  0  0  0  0
  -24.8720  -11.8580   20.9300 C   0  0  0  0  0  0  0  0  0  0  0  0
  -26.5180  -13.1300   20.4150 N   0  0  0  0  0  0  0  0  0  0  0  0
  -26.1760  -11.8370   20.6680 N   0  0  0  0  0  0  0  0  0  0  0  0
  -24.1520  -10.5870   21.0800 C   0  0  0  0  0  0  0  0  0  0  0  0
  -24.5520   -9.6140   22.0220 C   0  0  0  0  0  3  0  0  0  0  0  0
  -23.8250   -8.4110   22.1620 C   0  0  0  0  0  3  0  0  0  0  0  0
  -22.6880   -8.1720   21.3550 C   0  0  0  0  0  0  0  0  0  0  0  0
  -22.3070   -9.1330   20.4040 C   0  0  0  0  0  3  0  0  0  0  0  0
  -23.0330  -10.3270   20.2620 C   0  0  0  0  0  3  0  0  0  0  0  0
  -21.9360   -7.0210   21.4080 O   0  0  0  0  0  0  0  0  0  0  0  0
  -21.8360   -6.2740   22.5550 C   0  0  0  0  0  0  0  0  0  0  0  0
  -21.3520   -6.8250   23.7620 C   0  0  0  0  0  3  0  0  0  0  0  0
  -21.1980   -6.0050   24.8970 C   0  0  0  0  0  3  0  0  0  0  0  0
  -21.5180   -4.6370   24.8270 C   0  0  0  0  0  0  0  0  0  0  0  0
  -21.9990   -4.0860   23.6280 C   0  0  0  0  0  3  0  0  0  0  0  0
  -22.1530   -4.9020   22.4930 C   0  0  0  0  0  0  0  0  0  0  0  0
  -22.5930   -4.3620   21.3310 F   0  0  0  0  0  0  0  0  0  0  0  0
  -21.3640   -3.8480   25.9160 F   0  0  0  0  0  0  0  0  0  0  0  0
  -22.9790  -13.6650   21.1580 C   0  0  0  0  0  0  0  0  0  0  0  0
  -22.2240  -12.9640   21.9950 N   0  0  0  0  0  0  0  0  0  0  0  0
  -22.5540  -14.6830   20.6160 O   0  0  0  0  0  0  0  0  0  0  0  0
  -22.5820  -12.1370   22.4500 H   0  0  0  0  0  0  0  0  0  0  0  0
  -21.2760  -13.2550   22.1820 H   0  0  0  0  0  0  0  0  0  0  0  0
  -25.6150  -15.3660   20.4680 N   0  0  0  0  0  0  0  0  0  0  0  0
  -24.8380  -16.0130   20.5470 H   0  0  0  0  0  0  0  0  0  0  0  0
  -26.4700  -15.8170   20.1700 H   0  0  0  0  0  0  0  0  0  0  0  0
  -28.0990  -25.9830   19.6760 O   0  0  0  0  0  0  0  0  0  0  0  0
  -24.7780  -31.8190   23.0350 C   0  0  0  0  0  0  0  0  0  0  0  0
  -27.1290  -27.1090   19.6830 C   0  0  0  0  0  0  0  0  0  0  0  0
  -23.4980  -30.5280   21.3740 C   0  0  0  0  0  3  0  0  0  0  0  0
  -24.8690  -29.0110   19.7950 C   0  0  0  0  0  0  0  0  0  0  0  0
  -26.0550  -30.7380   21.1260 C   0  0  0  0  0  2  0  0  0  0  0  0
  -26.0810  -29.3670   20.4000 C   0  0  0  0  0  0  0  0  0  0  0  0
  -27.2060  -28.4330   20.3290 C   0  0  0  0  0  3  0  0  0  0  0  0
  -25.9000  -26.9190   19.0090 C   0  0  0  0  0  3  0  0  0  0  0  0
  -24.8030  -27.8120   19.0740 C   0  0  0  0  0  3  0  0  0  0  0  0
  -23.6580  -29.9290   19.9480 C   0  0  0  0  0  2  0  0  0  0  0  0
  -24.8000  -31.0520   21.8980 N   0  0  0  0  0  0  0  0  0  0  0  0
  -23.7170  -32.0830   23.6220 O   0  0  0  0  0  0  0  0  0  0  0  0
  -22.8510  -29.4740   22.3070 C   0  0  0  0  0  0  0  0  0  0  0  0
  -21.5180  -29.3120   22.2260 N   0  0  0  0  0  0  0  0  0  0  0  0
  -23.5510  -28.8020   23.0690 O   0  0  0  0  0  0  0  0  0  0  0  0
  -21.0070  -29.9020   21.5850 H   0  0  0  0  0  0  0  0  0  0  0  0
  -18.1590  -28.0690   22.7990 C   0  0  0  0  0  0  0  0  0  0  0  0
  -20.7260  -28.3320   22.9800 C   0  0  0  0  0  3  0  0  0  0  0  0
  -20.8100  -26.9320   22.3280 C   0  0  0  0  0  2  0  0  0  0  0  0
  -19.6700  -26.6560   21.3420 C   0  0  0  0  0  2  0  0  0  0  0  0
  -18.3150  -26.7580   22.0470 C   0  0  0  0  0  2  0  0  0  0  0  0
  -19.2910  -28.8160   23.2240 C   0  0  0  0  0  0  0  0  0  0  0  0
  -19.0880  -30.0430   23.8920 C   0  0  0  0  0  3  0  0  0  0  0  0
  -17.7880  -30.5220   24.1400 C   0  0  0  0  0  3  0  0  0  0  0  0
  -16.6720  -29.7720   23.7280 C   0  0  0  0  0  3  0  0  0  0  0  0
  -16.8590  -28.5480   23.0630 C   0  0  0  0  0  3  0  0  0  0  0  0
  -26.0820  -32.4180   23.6400 C   0  0  0  0  0  3  0  0  0  0  0  0
  -25.7670  -33.7600   24.1560 N   0  0  0  0  0  0  0  0  0  0  0  0
  -26.0300  -34.9080   23.5160 C   0  0  0  0  0  0  0  0  0  0  0  0
  -26.6280  -34.9480   22.4390 O   0  0  0  0  0  0  0  0  0  0  0  0
  -25.2220  -33.8000   25.0060 H   0  0  0  0  0  0  0  0  0  0  0  0
  -24.2530  -36.6920   23.5140 C   0  0  0  0  0  1  0  0  0  0  0  0
  -25.5570  -36.2200   24.1760 C   0  0  0  0  0  3  0  0  0  0  0  0
  -27.7330  -37.0520   24.9560 C   0  0  0  0  0  1  0  0  0  0  0  0
  -26.5630  -37.3030   24.1190 N   0  0  0  0  0  0  0  0  0  0  0  0
  -26.1540  -38.1890   24.4060 H   0  0  0  0  0  0  0  0  0  0  0  0
  -26.6990  -31.5240   24.7880 C   0  0  1  0  0  0  0  0  0  0  0  0
  -25.6880  -31.1490   25.8970 C   0  0  0  0  0  1  0  0  0  0  0  0
  -27.2750  -30.2100   24.2130 C   0  0  0  0  0  1  0  0  0  0  0  0
  -27.8830  -32.2690   25.4500 C   0  0  0  0  0  1  0  0  0  0  0  0
  1  4  1  0
  2  1  2  0
  2  5  1  0
  4 14  1  0
  4  3  2  0
  5 10  1  0
  5  6  2  0
  6  3  1  0
  6  8  1  0
  7 11  1  0
  7 12  2  0
  8 11  1  0
  9  7  1  0
 10 52  1  0
 10  9  1  0
 11 13  1  0
 15 14  2  0
 15 16  1  0
 17 22  1  0
 18 19  1  0
 18 17  1  0
 20 19  1  0
 20 27  1  0
 20 21  1  0
 22 16  1  0
 22 21  1  0
 23 16  2  0
 24 25  2  0
 25 44  1  0
 26 25  1  0
 26 29  1  0
 27 24  1  0
 27 28  1  0
 28 26  2  0
 29 30  1  0
 30 31  2  0
 32 35  1  0
 32 31  1  0
 33 32  2  0
 34 33  1  0
 34 29  2  0
 35 36  1  0
 36 37  1  0
 37 38  2  0
 39 38  1  0
 39 43  1  0
 40 39  2  0
 41 36  2  0
 41 40  1  0
 42 41  1  0
 44 45  1  0
 45 48  1  0
 45 47  1  0
 46 44  2  0
 49 50  1  0
 49 24  1  0
 51 49  1  0
 52 54  1  0
 53 64  2  0
 54 59  1  0
 55 63  1  0
 55 65  1  0
 56 62  1  0
 56 58  1  0
 57 63  1  0
 58 57  1  0
 59 58  2  0
 60 61  1  0
 60 54  2  0
 61 56  2  0
 62 55  1  0
 63 53  1  0
 65 67  2  0
 66 65  1  0
 68 66  1  0
 69 78  2  0
 69 74  1  0
 70 66  1  0
 70 74  1  0
 71 70  1  0
 72 73  1  0
 72 71  1  0
 73 69  1  0
 74 75  2  0
 75 76  1  0
 77 76  2  0
 78 77  1  0
 79 53  1  0
 79 80  1  0
 79 89  1  0
 80 83  1  0
 81 80  1  0
 81 85  1  0
 82 81  2  0
 85 84  1  0
 87 85  1  0
 87 88  1  0
 87 86  1  0
 89 92  1  1
 89 90  1  0
 91 89  1  0
M  ISO  4  10 101  15 100  16 100  52 101
M  END
>  <TORSDO>  (36) 
F 17

>  <SCORE>  (36) 
-14.308

>  <name>  (36) 
35

>  <ligand_id>  (36) 
35

>  <original_smiles>  (36) 
[H]C(C(=O)N1C([H])([H])C([H])([H])C([H])([H])C([H])(n2nc(-c3c([H])c([H])c(Oc4c([H])c([H])c(F)c([H])c4F)c([H])c3[H])c(C(=O)N([H])[H])c2N([H])[H])C1([H])[H])=C([H])c1c([H])c([H])c2c(c1[H])C([H])([H])N([H])C(=O)C([H])([H])C2([H])Oc1c([H])c([H])c2c(c1[H])C([H])([H])N(C(=O)C([H])(N([H])C(=O)C([H])(N([H])C([H])([H])[H])C([H])([H])[H])C(C([H])([H])[H])(C([H])([H])[H])C([H])([H])[H])C([H])(C(=O)N([H])C1([H])c3c([H])c([H])c([H])c([H])c3C([H])([H])C([H])([H])C1([H])[H])C2([H])[H]

>  <smiles>  (36) 
[H]C(C(=O)N1C([H])([H])C([H])([H])C([H])([H])C([H])(n2nc(-c3c([H])c([H])c(Oc4c([H])c([H])c(F)c([H])c4F)c([H])c3[H])c(C(=O)N([H])[H])c2N([H])[H])C1([H])[H])=C([H])c1c([H])c([H])c2c(c1[H])C([H])([H])N([H])C(=O)C([H])([H])C2([H])Oc1c([H])c([H])c2c(c1[H])C([H])([H])N(C(=O)C([H])(N([H])C(=O)C([H])(N([H])C([H])([H])[H])C([H])([H])[H])C(C([H])([H])[H])(C([H])([H])[H])C([H])([H])[H])C([H])(C(=O)N([H])C1([H])c3c([H])c([H])c([H])c([H])c3C([H])([H])C([H])([H])C1([H])[H])C2([H])[H]

$$$$
36:0:0
     RDKit          3D

 92101  0  0  1  0  0  0  0  0999 V2000
  -29.7580  -21.6730   21.4470 C   0  0  0  0  0  0  0  0  0  0  0  0
  -29.2370  -22.6390   20.6230 N   0  0  0  0  0  0  0  0  0  0  0  0
  -30.2080  -21.9940   22.5490 O   0  0  0  0  0  0  0  0  0  0  0  0
  -28.8270  -22.3220   19.7550 H   0  0  0  0  0  0  0  0  0  0  0  0
  -30.7340  -14.8580   20.2030 C   0  0  0  0  0  0  0  0  0  0  0  0
  -30.5590  -12.5410   19.3140 C   0  0  0  0  0  2  0  0  0  0  0  0
  -29.6000  -12.5400   18.1050 C   0  0  0  0  0  2  0  0  0  0  0  0
  -28.1180  -12.4670   18.5410 C   0  0  0  0  0  2  0  0  0  0  0  0
  -27.7680  -13.3460   19.7740 C   0  0  0  0  0  3  0  0  0  0  0  0
  -28.8560  -13.2850   20.8640 C   0  0  0  0  0  2  0  0  0  0  0  0
  -30.1270  -13.6240   20.2160 N   0  0  0  0  0  0  0  0  0  0  0  0
  -31.9510  -14.9390   20.0030 O   0  0  0  0  0  0  0  0  0  0  0  0
  -29.8620  -19.1560   22.0930 C   0  0  0  0  0  3  0  0  0  0  0  0
  -29.9560  -17.7520   21.8130 C   0  0  0  0  0  3  0  0  0  0  0  0
  -29.8270  -19.6940   19.7330 C   0  0  0  0  0  3  0  0  0  0  0  0
  -29.7820  -20.1660   21.0730 C   0  0  0  0  0  0  0  0  0  0  0  0
  -29.9070  -18.2910   19.4730 C   0  0  0  0  0  0  0  0  0  0  0  0
  -29.9750  -17.3030   20.4670 C   0  0  0  0  0  0  0  0  0  0  0  0
  -29.9090  -17.6460   18.1190 C   0  0  0  0  0  2  0  0  0  0  0  0
  -29.5990  -16.1700   18.4560 C   0  0  0  0  0  2  0  0  0  0  0  0
  -29.9280  -15.9520   19.8980 N   0  0  0  0  0  0  0  0  0  0  0  0
  -25.4070  -13.9250   20.5780 C   0  0  0  0  0  0  0  0  0  0  0  0
  -24.3470  -13.1460   20.9510 C   0  0  0  0  0  0  0  0  0  0  0  0
  -24.8110  -11.7960   20.8850 C   0  0  0  0  0  0  0  0  0  0  0  0
  -26.4420  -13.0490   20.2990 N   0  0  0  0  0  0  0  0  0  0  0  0
  -26.0940  -11.7640   20.5490 N   0  0  0  0  0  0  0  0  0  0  0  0
  -24.0930  -10.5280   21.0650 C   0  0  0  0  0  0  0  0  0  0  0  0
  -24.5180   -9.5630   22.0070 C   0  0  0  0  0  3  0  0  0  0  0  0
  -23.7940   -8.3630   22.1770 C   0  0  0  0  0  3  0  0  0  0  0  0
  -22.6350   -8.1200   21.4060 C   0  0  0  0  0  0  0  0  0  0  0  0
  -22.2310   -9.0700   20.4510 C   0  0  0  0  0  3  0  0  0  0  0  0
  -22.9540  -10.2620   20.2780 C   0  0  0  0  0  3  0  0  0  0  0  0
  -21.8840   -6.9720   21.4840 O   0  0  0  0  0  0  0  0  0  0  0  0
  -21.7660   -6.2680   22.6560 C   0  0  0  0  0  0  0  0  0  0  0  0
  -21.2270   -6.8500   23.8260 C   0  0  0  0  0  3  0  0  0  0  0  0
  -21.0590   -6.0700   24.9880 C   0  0  0  0  0  3  0  0  0  0  0  0
  -21.4170   -4.7090   24.9810 C   0  0  0  0  0  0  0  0  0  0  0  0
  -21.9500   -4.1270   23.8170 C   0  0  0  0  0  3  0  0  0  0  0  0
  -22.1190   -4.9030   22.6570 C   0  0  0  0  0  0  0  0  0  0  0  0
  -22.6110   -4.3310   21.5310 F   0  0  0  0  0  0  0  0  0  0  0  0
  -21.2520   -3.9590   26.0960 F   0  0  0  0  0  0  0  0  0  0  0  0
  -22.9540  -13.6160   21.2600 C   0  0  0  0  0  0  0  0  0  0  0  0
  -22.2470  -12.9130   22.1380 N   0  0  0  0  0  0  0  0  0  0  0  0
  -22.5000  -14.6430   20.7570 O   0  0  0  0  0  0  0  0  0  0  0  0
  -22.6260  -12.0850   22.5680 H   0  0  0  0  0  0  0  0  0  0  0  0
  -21.3180  -13.2160   22.3920 H   0  0  0  0  0  0  0  0  0  0  0  0
  -25.5710  -15.3010   20.4320 N   0  0  0  0  0  0  0  0  0  0  0  0
  -24.8270  -15.9680   20.6090 H   0  0  0  0  0  0  0  0  0  0  0  0
  -26.4430  -15.7440   20.1600 H   0  0  0  0  0  0  0  0  0  0  0  0
  -29.3510  -24.1400   20.8380 C   0  0  0  0  0  3  0  0  0  0  0  0
  -28.2990  -25.1100   20.1330 C   0  0  0  0  0  3  0  0  0  0  0  0
  -28.4430  -26.5800   20.3310 O   0  0  0  0  0  0  0  0  0  0  0  0
  -24.6410  -31.9370   23.2890 C   0  0  0  0  0  0  0  0  0  0  0  0
  -27.3110  -27.4110   20.2400 C   0  0  0  0  0  0  0  0  0  0  0  0
  -23.4560  -30.5350   21.6340 C   0  0  0  0  0  3  0  0  0  0  0  0
  -24.9290  -28.9990   20.2120 C   0  0  0  0  0  0  0  0  0  0  0  0
  -25.9900  -30.8820   21.4570 C   0  0  0  0  0  2  0  0  0  0  0  0
  -26.0880  -29.5030   20.8120 C   0  0  0  0  0  0  0  0  0  0  0  0
  -27.2810  -28.7210   20.8130 C   0  0  0  0  0  3  0  0  0  0  0  0
  -26.1300  -26.9680   19.6010 C   0  0  0  0  0  3  0  0  0  0  0  0
  -24.9500  -27.7370   19.6000 C   0  0  0  0  0  3  0  0  0  0  0  0
  -23.6850  -29.8630   20.2530 C   0  0  0  0  0  2  0  0  0  0  0  0
  -24.7140  -31.1370   22.1830 N   0  0  0  0  0  0  0  0  0  0  0  0
  -23.5550  -32.1990   23.8240 O   0  0  0  0  0  0  0  0  0  0  0  0
  -22.7970  -29.5080   22.5870 C   0  0  0  0  0  0  0  0  0  0  0  0
  -21.4740  -29.3200   22.4530 N   0  0  0  0  0  0  0  0  0  0  0  0
  -23.4800  -28.8820   23.4030 O   0  0  0  0  0  0  0  0  0  0  0  0
  -20.9850  -29.8730   21.7630 H   0  0  0  0  0  0  0  0  0  0  0  0
  -18.1050  -28.1020   22.9440 C   0  0  0  0  0  0  0  0  0  0  0  0
  -20.6630  -28.3720   23.2180 C   0  0  0  0  0  3  0  0  0  0  0  0
  -20.7710  -26.9440   22.6340 C   0  0  0  0  0  2  0  0  0  0  0  0
  -19.6720  -26.6220   21.6150 C   0  0  0  0  0  2  0  0  0  0  0  0
  -18.2900  -26.7570   22.2610 C   0  0  0  0  0  2  0  0  0  0  0  0
  -19.2200  -28.8660   23.3810 C   0  0  0  0  0  0  0  0  0  0  0  0
  -18.9940  -30.1240   23.9810 C   0  0  0  0  0  3  0  0  0  0  0  0
  -17.6880  -30.6190   24.1490 C   0  0  0  0  0  3  0  0  0  0  0  0
  -16.5870  -29.8530   23.7280 C   0  0  0  0  0  3  0  0  0  0  0  0
  -16.7970  -28.5980   23.1310 C   0  0  0  0  0  3  0  0  0  0  0  0
  -25.9170  -32.5770   23.9150 C   0  0  0  0  0  3  0  0  0  0  0  0
  -25.6000  -33.9770   24.2340 N   0  0  0  0  0  0  0  0  0  0  0  0
  -25.9220  -35.0240   23.4610 C   0  0  0  0  0  0  0  0  0  0  0  0
  -26.5860  -34.9110   22.4260 O   0  0  0  0  0  0  0  0  0  0  0  0
  -24.9940  -34.1330   25.0270 H   0  0  0  0  0  0  0  0  0  0  0  0
  -24.1770  -36.8020   23.1010 C   0  0  0  0  0  1  0  0  0  0  0  0
  -25.4280  -36.4140   23.9060 C   0  0  0  0  0  3  0  0  0  0  0  0
  -27.5620  -37.3270   24.7090 C   0  0  0  0  0  1  0  0  0  0  0  0
  -26.4520  -37.4730   23.7710 N   0  0  0  0  0  0  0  0  0  0  0  0
  -26.0390  -38.3910   23.9110 H   0  0  0  0  0  0  0  0  0  0  0  0
  -26.4250  -31.8170   25.2020 C   0  0  1  0  0  0  0  0  0  0  0  0
  -25.3210  -31.5820   26.2610 C   0  0  0  0  0  1  0  0  0  0  0  0
  -27.0210  -30.4400   24.8270 C   0  0  0  0  0  1  0  0  0  0  0  0
  -27.5640  -32.6220   25.8720 C   0  0  0  0  0  1  0  0  0  0  0  0
  1  3  2  0
  2 50  1  0
  2  1  1  0
  4  2  1  0
  5 11  1  0
  6 11  1  0
  7  8  1  0
  7  6  1  0
  9  8  1  0
  9 25  1  0
  9 10  1  0
 11 10  1  0
 12  5  2  0
 14 13  1  0
 15 16  1  0
 16  1  1  0
 16 13  2  0
 17 15  2  0
 17 18  1  0
 18 14  2  0
 19 20  1  0
 19 17  1  0
 20 21  1  0
 21  5  1  0
 21 18  1  0
 22 23  2  0
 23 42  1  0
 24 23  1  0
 24 27  1  0
 25 26  1  0
 25 22  1  0
 26 24  2  0
 27 28  1  0
 28 29  2  0
 30 33  1  0
 30 29  1  0
 31 30  2  0
 32 31  1  0
 32 27  2  0
 33 34  1  0
 34 39  2  0
 34 35  1  0
 35 36  2  0
 37 36  1  0
 37 41  1  0
 38 37  2  0
 39 38  1  0
 40 39  1  0
 42 43  1  0
 43 46  1  0
 43 45  1  0
 44 42  2  0
 47 22  1  0
 47 48  1  0
 49 47  1  0
 51 52  1  0
 51 50  2  0
 53 64  2  0
 54 52  1  0
 54 59  1  0
 55 63  1  0
 55 65  1  0
 56 62  1  0
 56 58  1  0
 57 63  1  0
 58 59  2  0
 58 57  1  0
 60 54  2  0
 61 60  1  0
 61 56  2  0
 62 55  1  0
 63 53  1  0
 65 67  2  0
 66 65  1  0
 68 66  1  0
 69 78  2  0
 69 74  1  0
 70 66  1  0
 70 74  1  0
 71 70  1  0
 72 73  1  0
 72 71  1  0
 73 69  1  0
 74 75  2  0
 75 76  1  0
 77 76  2  0
 78 77  1  0
 79 53  1  0
 79 80  1  0
 79 89  1  0
 80 83  1  0
 81 85  1  0
 81 80  1  0
 82 81  2  0
 85 84  1  0
 87 85  1  0
 87 88  1  0
 87 86  1  0
 89 92  1  1
 89 90  1  0
 91 89  1  0
M  ISO  4   5 100  21 100  51 101  52 101
M  END
>  <TORSDO>  (37) 
F 18

>  <SCORE>  (37) 
-13.266

>  <name>  (37) 
36

>  <ligand_id>  (37) 
36

>  <original_smiles>  (37) 
[H]c1c([H])c([H])c2c(c1[H])C([H])([H])C([H])([H])C([H])([H])C2([H])N([H])C(=O)C1([H])N(C(=O)C([H])(N([H])C(=O)C([H])(N([H])C([H])([H])[H])C([H])([H])[H])C(C([H])([H])[H])(C([H])([H])[H])C([H])([H])[H])C([H])([H])c2c([H])c(OC([H])([H])C([H])([H])N([H])C(=O)c3c([H])c([H])c4c(c3[H])C([H])([H])C([H])([H])N4C(=O)N3C([H])([H])C([H])([H])C([H])([H])C([H])(n4nc(-c5c([H])c([H])c(Oc6c([H])c([H])c(F)c([H])c6F)c([H])c5[H])c(C(=O)N([H])[H])c4N([H])[H])C3([H])[H])c([H])c([H])c2C1([H])[H]

>  <smiles>  (37) 
[H]c1c([H])c([H])c2c(c1[H])C([H])([H])C([H])([H])C([H])([H])C2([H])N([H])C(=O)C1([H])N(C(=O)C([H])(N([H])C(=O)C([H])(N([H])C([H])([H])[H])C([H])([H])[H])C(C([H])([H])[H])(C([H])([H])[H])C([H])([H])[H])C([H])([H])c2c([H])c(OC([H])([H])C([H])([H])N([H])C(=O)c3c([H])c([H])c4c(c3[H])C([H])([H])C([H])([H])N4C(=O)N3C([H])([H])C([H])([H])C([H])([H])C([H])(n4nc(-c5c([H])c([H])c(Oc6c([H])c([H])c(F)c([H])c6F)c([H])c5[H])c(C(=O)N([H])[H])c4N([H])[H])C3([H])[H])c([H])c([H])c2C1([H])[H]

$$$$
37:0:0
     RDKit          3D

 89 97  0  0  1  0  0  0  0  0999 V2000
  -28.6780  -22.2330   18.6990 C   0  0  0  0  0  3  0  0  0  0  0  0
  -28.1510  -24.6610   18.6310 C   0  0  0  0  0  3  0  0  0  0  0  0
  -28.7280  -23.5810   20.7150 C   0  0  0  0  0  3  0  0  0  0  0  0
  -28.3490  -23.4100   17.9850 C   0  0  0  0  0  0  0  0  0  0  0  0
  -28.9020  -22.2300   20.0890 C   0  0  0  0  0  0  0  0  0  0  0  0
  -28.3220  -24.8490   20.0230 C   0  0  0  0  0  0  0  0  0  0  0  0
  -28.2890  -23.3390   16.4680 C   0  0  0  0  0  1  0  0  0  0  0  0
  -28.2710  -26.2370   20.5380 O   0  0  0  0  0  0  0  0  0  0  0  0
  -24.5760  -31.9860   23.3790 C   0  0  0  0  0  0  0  0  0  0  0  0
  -27.2060  -27.2200   20.4230 C   0  0  0  0  0  0  0  0  0  0  0  0
  -23.4100  -30.5820   21.7270 C   0  0  0  0  0  3  0  0  0  0  0  0
  -24.8820  -28.9890   20.3390 C   0  0  0  0  0  0  0  0  0  0  0  0
  -25.9740  -30.8240   21.6240 C   0  0  0  0  0  2  0  0  0  0  0  0
  -26.0510  -29.4290   20.9740 C   0  0  0  0  0  0  0  0  0  0  0  0
  -27.2100  -28.5590   20.9960 C   0  0  0  0  0  3  0  0  0  0  0  0
  -26.0020  -26.8810   19.7660 C   0  0  0  0  0  3  0  0  0  0  0  0
  -24.8730  -27.7320   19.7190 C   0  0  0  0  0  3  0  0  0  0  0  0
  -23.6600  -29.8960   20.3570 C   0  0  0  0  0  2  0  0  0  0  0  0
  -24.6730  -31.1550   22.2960 N   0  0  0  0  0  0  0  0  0  0  0  0
  -23.4780  -32.2760   23.8790 O   0  0  0  0  0  0  0  0  0  0  0  0
  -22.7090  -29.5820   22.6830 C   0  0  0  0  0  0  0  0  0  0  0  0
  -21.3870  -29.3980   22.5160 N   0  0  0  0  0  0  0  0  0  0  0  0
  -23.3610  -28.9770   23.5380 O   0  0  0  0  0  0  0  0  0  0  0  0
  -20.9200  -29.9400   21.8030 H   0  0  0  0  0  0  0  0  0  0  0  0
  -17.9970  -28.1910   22.9360 C   0  0  0  0  0  0  0  0  0  0  0  0
  -20.5470  -28.4670   23.2730 C   0  0  0  0  0  3  0  0  0  0  0  0
  -20.6680  -27.0290   22.7190 C   0  0  0  0  0  2  0  0  0  0  0  0
  -19.5960  -26.6890   21.6800 C   0  0  0  0  0  2  0  0  0  0  0  0
  -18.1960  -26.8360   22.2820 C   0  0  0  0  0  2  0  0  0  0  0  0
  -19.1000  -28.9650   23.3870 C   0  0  0  0  0  0  0  0  0  0  0  0
  -18.8550  -30.2340   23.9600 C   0  0  0  0  0  3  0  0  0  0  0  0
  -17.5410  -30.7260   24.0880 C   0  0  0  0  0  3  0  0  0  0  0  0
  -16.4530  -29.9500   23.6520 C   0  0  0  0  0  3  0  0  0  0  0  0
  -16.6840  -28.6850   23.0820 C   0  0  0  0  0  3  0  0  0  0  0  0
  -25.8370  -32.6270   24.0330 C   0  0  0  0  0  3  0  0  0  0  0  0
  -26.2900  -31.8990   25.3600 C   0  0  1  0  0  0  0  0  0  0  0  0
  -25.1510  -31.6910   26.3870 C   0  0  0  0  0  1  0  0  0  0  0  0
  -26.8910  -30.5100   25.0480 C   0  0  0  0  0  1  0  0  0  0  0  0
  -27.4080  -32.7210   26.0450 C   0  0  0  0  0  1  0  0  0  0  0  0
  -25.5350  -34.0420   24.3050 N   0  0  0  0  0  0  0  0  0  0  0  0
  -25.8920  -35.0650   23.5170 C   0  0  0  0  0  0  0  0  0  0  0  0
  -26.5700  -34.9180   22.4970 O   0  0  0  0  0  0  0  0  0  0  0  0
  -24.9320  -34.2310   25.0930 H   0  0  0  0  0  0  0  0  0  0  0  0
  -24.1870  -36.8690   23.0920 C   0  0  0  0  0  1  0  0  0  0  0  0
  -25.4200  -36.4770   23.9200 C   0  0  0  0  0  3  0  0  0  0  0  0
  -27.5550  -37.3820   24.7370 C   0  0  0  0  0  1  0  0  0  0  0  0
  -26.4660  -37.5140   23.7730 N   0  0  0  0  0  0  0  0  0  0  0  0
  -26.0680  -38.4440   23.8660 H   0  0  0  0  0  0  0  0  0  0  0  0
  -29.4790  -20.8100   20.7380 C   0  0  0  0  0  2  0  0  0  0  0  0
  -29.1620  -19.2010   20.2610 C   0  0  0  0  0  3  0  0  0  0  0  0
  -30.1410  -17.8390   20.5780 C   0  0  0  0  0  3  0  0  0  0  0  0
  -30.5040  -15.1040   20.2900 C   0  0  0  0  0  0  0  0  0  0  0  0
  -30.3630  -12.7830   19.2630 C   0  0  0  0  0  2  0  0  0  0  0  0
  -29.3930  -12.7640   18.0560 C   0  0  0  0  0  2  0  0  0  0  0  0
  -27.9460  -12.5270   18.5290 C   0  0  0  0  0  2  0  0  0  0  0  0
  -27.5660  -13.4070   19.7440 C   0  0  0  0  0  3  0  0  0  0  0  0
  -28.6560  -13.4010   20.8370 C   0  0  0  0  0  2  0  0  0  0  0  0
  -29.9010  -13.8480   20.2010 N   0  0  0  0  0  0  0  0  0  0  0  0
  -31.7080  -15.1670   20.0130 O   0  0  0  0  0  0  0  0  0  0  0  0
  -29.7410  -16.2990   20.4810 N   0  0  0  0  0  0  0  0  0  0  0  0
  -28.7590  -16.1180   20.6260 H   0  0  0  0  0  0  0  0  0  0  0  0
  -25.1980  -13.9250   20.5540 C   0  0  0  0  0  0  0  0  0  0  0  0
  -24.1550  -13.1230   20.9240 C   0  0  0  0  0  0  0  0  0  0  0  0
  -24.6410  -11.7810   20.8590 C   0  0  0  0  0  0  0  0  0  0  0  0
  -26.2510  -13.0720   20.2750 N   0  0  0  0  0  0  0  0  0  0  0  0
  -25.9270  -11.7750   20.5230 N   0  0  0  0  0  0  0  0  0  0  0  0
  -23.9390  -10.5010   21.0350 C   0  0  0  0  0  0  0  0  0  0  0  0
  -24.3750   -9.5400   21.9730 C   0  0  0  0  0  3  0  0  0  0  0  0
  -23.6690   -8.3300   22.1400 C   0  0  0  0  0  3  0  0  0  0  0  0
  -22.5150   -8.0710   21.3640 C   0  0  0  0  0  0  0  0  0  0  0  0
  -22.0990   -9.0190   20.4140 C   0  0  0  0  0  3  0  0  0  0  0  0
  -22.8060  -10.2190   20.2440 C   0  0  0  0  0  3  0  0  0  0  0  0
  -21.7790   -6.9110   21.4410 O   0  0  0  0  0  0  0  0  0  0  0  0
  -21.6920   -6.1880   22.6040 C   0  0  0  0  0  0  0  0  0  0  0  0
  -21.1450   -6.7380   23.7830 C   0  0  0  0  0  3  0  0  0  0  0  0
  -21.0120   -5.9390   24.9370 C   0  0  0  0  0  3  0  0  0  0  0  0
  -21.4180   -4.5910   24.9110 C   0  0  0  0  0  0  0  0  0  0  0  0
  -21.9610   -4.0410   23.7380 C   0  0  0  0  0  3  0  0  0  0  0  0
  -22.0970   -4.8370   22.5870 C   0  0  0  0  0  0  0  0  0  0  0  0
  -22.6010   -4.2970   21.4500 F   0  0  0  0  0  0  0  0  0  0  0  0
  -21.2830   -3.8210   26.0160 F   0  0  0  0  0  0  0  0  0  0  0  0
  -22.7540  -13.5690   21.2300 C   0  0  0  0  0  0  0  0  0  0  0  0
  -22.0560  -12.8380   22.0930 N   0  0  0  0  0  0  0  0  0  0  0  0
  -22.2870  -14.5930   20.7350 O   0  0  0  0  0  0  0  0  0  0  0  0
  -22.4560  -12.0120   22.5140 H   0  0  0  0  0  0  0  0  0  0  0  0
  -21.1130  -13.1030   22.3390 H   0  0  0  0  0  0  0  0  0  0  0  0
  -25.3390  -15.3040   20.4070 N   0  0  0  0  0  0  0  0  0  0  0  0
  -24.5670  -15.9480   20.5360 H   0  0  0  0  0  0  0  0  0  0  0  0
  -26.1790  -15.7550   20.0690 H   0  0  0  0  0  0  0  0  0  0  0  0
  1  5  1  0
  2  6  2  0
  4  2  1  0
  4  1  2  0
  5  3  2  0
  5 49  1  0
  6  8  1  0
  6  3  1  0
  7  4  1  0
  9 20  2  0
 10  8  1  0
 10 15  1  0
 11 19  1  0
 11 21  1  0
 12 18  1  0
 12 14  1  0
 13 19  1  0
 14 15  2  0
 14 13  1  0
 16 10  2  0
 17 16  1  0
 17 12  2  0
 18 11  1  0
 19  9  1  0
 21 23  2  0
 22 21  1  0
 24 22  1  0
 25 34  2  0
 25 30  1  0
 26 22  1  0
 26 30  1  0
 27 26  1  0
 28 29  1  0
 28 27  1  0
 29 25  1  0
 30 31  2  0
 31 32  1  0
 33 32  2  0
 34 33  1  0
 35  9  1  0
 35 40  1  0
 35 36  1  0
 36 39  1  1
 36 37  1  0
 38 36  1  0
 40 43  1  0
 41 45  1  0
 41 40  1  0
 42 41  2  0
 45 44  1  0
 47 48  1  0
 47 45  1  0
 47 46  1  0
 50 51  2  0
 50 49  1  0
 52 60  1  0
 53 58  1  0
 54 55  1  0
 54 53  1  0
 56 55  1  0
 56 65  1  0
 56 57  1  0
 58 52  1  0
 58 57  1  0
 59 52  2  0
 60 51  1  0
 60 61  1  0
 62 63  2  0
 63 82  1  0
 64 63  1  0
 64 67  1  0
 65 66  1  0
 65 62  1  0
 66 64  2  0
 67 68  1  0
 68 69  2  0
 70 73  1  0
 70 69  1  0
 71 70  2  0
 72 71  1  0
 72 67  2  0
 73 74  1  0
 74 75  1  0
 75 76  2  0
 77 76  1  0
 77 81  1  0
 78 77  2  0
 79 74  2  0
 79 78  1  0
 80 79  1  0
 82 83  1  0
 83 86  1  0
 83 85  1  0
 84 82  2  0
 87 88  1  0
 87 62  1  0
 89 87  1  0
M  ISO  4   6 101   8 101  52 100  60 100
M  END
>  <TORSDO>  (38) 
F 19

>  <SCORE>  (38) 
-14.749

>  <name>  (38) 
37

>  <ligand_id>  (38) 
37

>  <original_smiles>  (38) 
[H]c1c([H])c([H])c2c(c1[H])C([H])([H])C([H])([H])C([H])([H])C2([H])N([H])C(=O)C1([H])N(C(=O)C([H])(N([H])C(=O)C([H])(N([H])C([H])([H])[H])C([H])([H])[H])C(C([H])([H])[H])(C([H])([H])[H])C([H])([H])[H])C([H])([H])c2c([H])c(Oc3c([H])c(C([H])([H])[H])c([H])c(C([H])([H])C([H])([H])C([H])([H])N([H])C(=O)N4C([H])([H])C([H])([H])C([H])([H])C([H])(n5nc(-c6c([H])c([H])c(Oc7c([H])c([H])c(F)c([H])c7F)c([H])c6[H])c(C(=O)N([H])[H])c5N([H])[H])C4([H])[H])c3[H])c([H])c([H])c2C1([H])[H]

>  <smiles>  (38) 
[H]c1c([H])c([H])c2c(c1[H])C([H])([H])C([H])([H])C([H])([H])C2([H])N([H])C(=O)C1([H])N(C(=O)C([H])(N([H])C(=O)C([H])(N([H])C([H])([H])[H])C([H])([H])[H])C(C([H])([H])[H])(C([H])([H])[H])C([H])([H])[H])C([H])([H])c2c([H])c(Oc3c([H])c(C([H])([H])[H])c([H])c(C([H])([H])C([H])([H])C([H])([H])N([H])C(=O)N4C([H])([H])C([H])([H])C([H])([H])C([H])(n5nc(-c6c([H])c([H])c(Oc7c([H])c([H])c(F)c([H])c7F)c([H])c6[H])c(C(=O)N([H])[H])c5N([H])[H])C4([H])[H])c3[H])c([H])c([H])c2C1([H])[H]

$$$$
38:0:0
     RDKit          3D

 93101  0  0  1  0  0  0  0  0999 V2000
  -28.6790  -20.1930   17.1120 C   0  0  0  0  0  3  0  0  0  0  0  0
  -28.9660  -19.5960   18.3190 C   0  0  0  0  0  3  0  0  0  0  0  0
  -28.3580  -21.5220   17.0890 C   0  0  0  0  0  3  0  0  0  0  0  0
  -29.0350  -20.2010   19.6070 C   0  0  0  0  0  0  0  0  0  0  0  0
  -28.2950  -22.3130   18.2470 C   0  0  0  0  0  0  0  0  0  0  0  0
  -28.6500  -21.8950   19.6010 C   0  0  0  0  0  0  0  0  0  0  0  0
  -30.2910  -15.7640   20.2340 C   0  0  0  0  0  0  0  0  0  0  0  0
  -30.4150  -13.2080   19.3410 C   0  0  0  0  0  2  0  0  0  0  0  0
  -29.5230  -12.7310   18.1570 C   0  0  0  0  0  2  0  0  0  0  0  0
  -28.1140  -12.3460   18.6350 C   0  0  0  0  0  2  0  0  0  0  0  0
  -27.5940  -13.3470   19.6900 C   0  0  0  0  0  3  0  0  0  0  0  0
  -28.6370  -13.7090   20.7760 C   0  0  0  0  0  2  0  0  0  0  0  0
  -29.7610  -14.3920   20.0770 N   0  0  0  0  0  0  0  0  0  0  0  0
  -31.5340  -15.6420   20.2100 O   0  0  0  0  0  0  0  0  0  0  0  0
  -29.6580  -18.7370   20.4440 C   0  0  0  0  0  0  0  0  0  0  0  0
  -29.5570  -17.1740   20.1390 N   0  0  0  0  0  0  0  0  0  0  0  0
  -30.3630  -19.0270   21.4140 O   0  0  0  0  0  0  0  0  0  0  0  0
  -28.6830  -17.0200   19.6620 H   0  0  0  0  0  0  0  0  0  0  0  0
  -25.2420  -13.8590   20.4880 C   0  0  0  0  0  0  0  0  0  0  0  0
  -24.1890  -13.0730   20.8550 C   0  0  0  0  0  0  0  0  0  0  0  0
  -24.6660  -11.7250   20.8160 C   0  0  0  0  0  0  0  0  0  0  0  0
  -26.2890  -12.9950   20.2310 N   0  0  0  0  0  0  0  0  0  0  0  0
  -25.9590  -11.7030   20.4970 N   0  0  0  0  0  0  0  0  0  0  0  0
  -23.9440  -10.4590   21.0030 C   0  0  0  0  0  0  0  0  0  0  0  0
  -24.3650   -9.4990   21.9500 C   0  0  0  0  0  3  0  0  0  0  0  0
  -23.6380   -8.3010   22.1270 C   0  0  0  0  0  3  0  0  0  0  0  0
  -22.4750   -8.0560   21.3580 C   0  0  0  0  0  0  0  0  0  0  0  0
  -22.0730   -9.0040   20.4020 C   0  0  0  0  0  3  0  0  0  0  0  0
  -22.8010  -10.1920   20.2230 C   0  0  0  0  0  3  0  0  0  0  0  0
  -21.7210   -6.9090   21.4450 O   0  0  0  0  0  0  0  0  0  0  0  0
  -21.6410   -6.1870   22.6090 C   0  0  0  0  0  0  0  0  0  0  0  0
  -21.1450   -6.7520   23.8040 C   0  0  0  0  0  3  0  0  0  0  0  0
  -21.0130   -5.9550   24.9590 C   0  0  0  0  0  3  0  0  0  0  0  0
  -21.3670   -4.5920   24.9190 C   0  0  0  0  0  0  0  0  0  0  0  0
  -21.8560   -4.0270   23.7270 C   0  0  0  0  0  3  0  0  0  0  0  0
  -21.9890   -4.8210   22.5750 C   0  0  0  0  0  0  0  0  0  0  0  0
  -22.4400   -4.2650   21.4250 F   0  0  0  0  0  0  0  0  0  0  0  0
  -21.2330   -3.8250   26.0250 F   0  0  0  0  0  0  0  0  0  0  0  0
  -22.7890  -13.5410   21.1230 C   0  0  0  0  0  0  0  0  0  0  0  0
  -22.0610  -12.8420   21.9850 N   0  0  0  0  0  0  0  0  0  0  0  0
  -22.3500  -14.5660   20.6020 O   0  0  0  0  0  0  0  0  0  0  0  0
  -22.4300  -12.0140   22.4310 H   0  0  0  0  0  0  0  0  0  0  0  0
  -21.1210  -13.1380   22.2050 H   0  0  0  0  0  0  0  0  0  0  0  0
  -25.3920  -15.2320   20.3140 N   0  0  0  0  0  0  0  0  0  0  0  0
  -24.6210  -15.8790   20.4340 H   0  0  0  0  0  0  0  0  0  0  0  0
  -26.2380  -15.6770   19.9850 H   0  0  0  0  0  0  0  0  0  0  0  0
  -27.6930  -23.6650   17.8430 C   0  0  0  0  0  2  0  0  0  0  0  0
  -26.2230  -23.5860   17.8540 N   0  0  0  0  0  4  0  0  0  0  0  0
  -25.9230  -22.8270   17.2690 H   0  0  0  0  0  0  0  0  0  0  0  0
  -25.8270  -24.4330   17.4870 H   0  0  0  0  0  0  0  0  0  0  0  0
  -25.8730  -23.4210   18.7800 H   0  0  0  0  0  0  0  0  0  0  0  0
  -28.3440  -23.5200   20.5750 C   0  0  0  0  0  2  0  0  0  0  0  0
  -28.3330  -25.3440   20.3490 O   0  0  0  0  0  0  0  0  0  0  0  0
  -24.7510  -31.7920   23.2270 C   0  0  0  0  0  0  0  0  0  0  0  0
  -27.3420  -26.5870   20.3660 C   0  0  0  0  0  0  0  0  0  0  0  0
  -23.6020  -30.3680   21.5900 C   0  0  0  0  0  3  0  0  0  0  0  0
  -25.0790  -28.6880   20.2410 C   0  0  0  0  0  0  0  0  0  0  0  0
  -26.1910  -30.4870   21.5240 C   0  0  0  0  0  2  0  0  0  0  0  0
  -26.2710  -29.0340   20.8900 C   0  0  0  0  0  0  0  0  0  0  0  0
  -27.3850  -28.0210   20.9060 C   0  0  0  0  0  3  0  0  0  0  0  0
  -26.1010  -26.4780   19.6830 C   0  0  0  0  0  3  0  0  0  0  0  0
  -25.0390  -27.4340   19.6130 C   0  0  0  0  0  3  0  0  0  0  0  0
  -23.8770  -29.6490   20.2380 C   0  0  0  0  0  2  0  0  0  0  0  0
  -24.8730  -30.9180   22.1660 N   0  0  0  0  0  0  0  0  0  0  0  0
  -23.6440  -32.0980   23.7060 O   0  0  0  0  0  0  0  0  0  0  0  0
  -22.8610  -29.4070   22.5610 C   0  0  0  0  0  0  0  0  0  0  0  0
  -21.5280  -29.2690   22.4270 N   0  0  0  0  0  0  0  0  0  0  0  0
  -23.5010  -28.7810   23.4100 O   0  0  0  0  0  0  0  0  0  0  0  0
  -21.0600  -29.8220   21.7220 H   0  0  0  0  0  0  0  0  0  0  0  0
  -18.1200  -28.1050   22.9400 C   0  0  0  0  0  0  0  0  0  0  0  0
  -20.6850  -28.3440   23.1970 C   0  0  0  0  0  3  0  0  0  0  0  0
  -20.7660  -26.9100   22.6220 C   0  0  0  0  0  2  0  0  0  0  0  0
  -19.6600  -26.6020   21.6080 C   0  0  0  0  0  2  0  0  0  0  0  0
  -18.2800  -26.7580   22.2540 C   0  0  0  0  0  2  0  0  0  0  0  0
  -19.2470  -28.8560   23.3690 C   0  0  0  0  0  0  0  0  0  0  0  0
  -19.0380  -30.1120   23.9770 C   0  0  0  0  0  3  0  0  0  0  0  0
  -17.7380  -30.6200   24.1570 C   0  0  0  0  0  3  0  0  0  0  0  0
  -16.6260  -29.8680   23.7400 C   0  0  0  0  0  3  0  0  0  0  0  0
  -16.8180  -28.6110   23.1390 C   0  0  0  0  0  3  0  0  0  0  0  0
  -25.9930  -32.4600   23.8880 C   0  0  0  0  0  3  0  0  0  0  0  0
  -26.4540  -31.7310   25.2110 C   0  0  1  0  0  0  0  0  0  0  0  0
  -25.3180  -31.5290   26.2440 C   0  0  0  0  0  1  0  0  0  0  0  0
  -27.0490  -30.3400   24.9020 C   0  0  0  0  0  1  0  0  0  0  0  0
  -27.5790  -32.5440   25.8920 C   0  0  0  0  0  1  0  0  0  0  0  0
  -25.6570  -33.8680   24.1890 N   0  0  0  0  0  0  0  0  0  0  0  0
  -26.0040  -34.9230   23.4390 C   0  0  0  0  0  0  0  0  0  0  0  0
  -26.6950  -34.8150   22.4240 O   0  0  0  0  0  0  0  0  0  0  0  0
  -25.0410  -34.0240   24.9730 H   0  0  0  0  0  0  0  0  0  0  0  0
  -24.2830  -36.7270   23.0560 C   0  0  0  0  0  1  0  0  0  0  0  0
  -25.5140  -36.3190   23.8840 C   0  0  0  0  0  3  0  0  0  0  0  0
  -27.6320  -37.2200   24.7420 C   0  0  0  0  0  1  0  0  0  0  0  0
  -26.5490  -37.3720   23.7750 N   0  0  0  0  0  0  0  0  0  0  0  0
  -26.1390  -38.2940   23.8990 H   0  0  0  0  0  0  0  0  0  0  0  0
  1  2  1  0
  2  4  2  0
  3  1  2  0
  3  5  1  0
  4 15  1  0
  5  6  2  0
  6  4  1  0
  6 52  1  0
  8 13  1  0
  9 10  1  0
  9  8  1  0
 11 10  1  0
 11 22  1  0
 11 12  1  0
 13  7  1  0
 13 12  1  0
 14  7  2  0
 15 17  2  0
 16  7  1  0
 16 15  1  0
 18 16  1  0
 19 20  2  0
 20 39  1  0
 21 20  1  0
 21 24  1  0
 22 19  1  0
 22 23  1  0
 23 21  2  0
 24 25  1  0
 25 26  2  0
 27 30  1  0
 27 26  1  0
 28 27  2  0
 29 28  1  0
 29 24  2  0
 30 31  1  0
 31 32  1  0
 32 33  2  0
 34 33  1  0
 34 38  1  0
 35 34  2  0
 36 31  2  0
 36 35  1  0
 37 36  1  0
 39 40  1  0
 40 43  1  0
 40 42  1  0
 41 39  2  0
 44 45  1  0
 44 19  1  0
 46 44  1  0
 47 48  1  0
 47  5  1  0
 48 51  1  0
 49 48  1  0
 50 48  1  0
 53 55  1  0
 53 52  1  0
 54 65  2  0
 55 60  1  0
 56 64  1  0
 56 66  1  0
 57 59  1  0
 58 64  1  0
 59 60  2  0
 59 58  1  0
 61 55  2  0
 62 61  1  0
 62 57  2  0
 63 57  1  0
 63 56  1  0
 64 54  1  0
 66 68  2  0
 67 66  1  0
 69 67  1  0
 70 79  2  0
 70 75  1  0
 71 67  1  0
 71 75  1  0
 72 71  1  0
 73 74  1  0
 73 72  1  0
 74 70  1  0
 75 76  2  0
 76 77  1  0
 78 77  2  0
 79 78  1  0
 80 54  1  0
 80 85  1  0
 80 81  1  0
 81 84  1  1
 81 82  1  0
 83 81  1  0
 85 88  1  0
 86 90  1  0
 86 85  1  0
 87 86  2  0
 90 89  1  0
 92 90  1  0
 92 93  1  0
 92 91  1  0
M  ISO  4   7 100  16 100  52 101  53 101
M  END
>  <TORSDO>  (39) 
F 19

>  <SCORE>  (39) 
-15.581

>  <name>  (39) 
38

>  <ligand_id>  (39) 
38

>  <original_smiles>  (39) 
[H]c1c([H])c([H])c2c(c1[H])C([H])([H])C([H])([H])C([H])([H])C2([H])N([H])C(=O)C1([H])N(C(=O)C([H])(N([H])C(=O)C([H])(N([H])C([H])([H])[H])C([H])([H])[H])C(C([H])([H])[H])(C([H])([H])[H])C([H])([H])[H])C([H])([H])c2c([H])c(OC([H])([H])c3c(C(=O)N([H])C(=O)N4C([H])([H])C([H])([H])C([H])([H])C([H])(n5nc(-c6c([H])c([H])c(Oc7c([H])c([H])c(F)c([H])c7F)c([H])c6[H])c(C(=O)N([H])[H])c5N([H])[H])C4([H])[H])c([H])c([H])c([H])c3C([H])([H])[N+]([H])([H])[H])c([H])c([H])c2C1([H])[H]

>  <smiles>  (39) 
[H]c1c([H])c([H])c2c(c1[H])C([H])([H])C([H])([H])C([H])([H])C2([H])N([H])C(=O)C1([H])N(C(=O)C([H])(N([H])C(=O)C([H])(N([H])C([H])([H])[H])C([H])([H])[H])C(C([H])([H])[H])(C([H])([H])[H])C([H])([H])[H])C([H])([H])c2c([H])c(OC([H])([H])c3c(C(=O)N([H])C(=O)N4C([H])([H])C([H])([H])C([H])([H])C([H])(n5nc(-c6c([H])c([H])c(Oc7c([H])c([H])c(F)c([H])c7F)c([H])c6[H])c(C(=O)N([H])[H])c5N([H])[H])C4([H])[H])c([H])c([H])c([H])c3C([H])([H])[N+]([H])([H])[H])c([H])c([H])c2C1([H])[H]

$$$$
39:0:0
     RDKit          3D

 91 99  0  0  1  0  0  0  0  0999 V2000
  -28.4820  -20.7260   19.0730 C   0  0  0  0  0  3  0  0  0  0  0  0
  -28.1680  -22.2770   19.0350 C   0  0  0  0  0  3  0  0  0  0  0  0
  -29.7640  -21.0290   20.7520 C   0  0  0  0  0  0  0  0  0  0  0  0
  -29.4450  -22.5730   20.7250 C   0  0  0  0  0  0  0  0  0  0  0  0
  -29.3560  -19.8030   19.9300 C   0  0  0  0  0  3  0  0  0  0  0  0
  -28.5640  -23.4980   19.8720 C   0  0  0  0  0  0  0  0  0  0  0  0
  -29.4940  -24.3730   23.9480 C   0  0  0  0  0  3  0  0  0  0  0  0
  -29.6030  -24.3440   22.6100 C   0  0  0  0  0  3  0  0  0  0  0  0
  -30.7040  -20.7610   21.9030 C   0  0  0  0  0  2  0  0  0  0  0  0
  -29.9590  -23.2410   24.8380 C   0  0  0  0  0  2  0  0  0  0  0  0
  -30.0380  -21.9220   24.0560 C   0  0  0  0  0  2  0  0  0  0  0  0
  -30.2660  -23.2120   21.8320 C   0  0  0  0  0  3  0  0  0  0  0  0
  -30.8050  -22.0600   22.7240 C   0  0  0  0  0  3  0  0  0  0  0  0
  -28.4170  -25.1980   19.7250 O   0  0  0  0  0  0  0  0  0  0  0  0
  -24.7540  -31.5320   22.9970 C   0  0  0  0  0  0  0  0  0  0  0  0
  -27.4210  -26.4800   19.7760 C   0  0  0  0  0  0  0  0  0  0  0  0
  -23.6470  -30.2360   21.2290 C   0  0  0  0  0  3  0  0  0  0  0  0
  -25.1590  -28.6470   19.7750 C   0  0  0  0  0  0  0  0  0  0  0  0
  -26.2360  -30.3300   21.2370 C   0  0  0  0  0  2  0  0  0  0  0  0
  -26.3310  -28.9190   20.4910 C   0  0  0  0  0  0  0  0  0  0  0  0
  -27.4310  -27.8730   20.4550 C   0  0  0  0  0  3  0  0  0  0  0  0
  -26.2150  -26.4850   19.0130 C   0  0  0  0  0  3  0  0  0  0  0  0
  -25.1540  -27.4610   19.0160 C   0  0  0  0  0  3  0  0  0  0  0  0
  -23.9550  -29.6160   19.8310 C   0  0  0  0  0  2  0  0  0  0  0  0
  -24.9030  -30.7360   21.8760 N   0  0  0  0  0  0  0  0  0  0  0  0
  -23.6370  -31.8010   23.4740 O   0  0  0  0  0  0  0  0  0  0  0  0
  -22.8820  -29.2110   22.1110 C   0  0  0  0  0  0  0  0  0  0  0  0
  -21.5410  -29.1360   21.9930 N   0  0  0  0  0  0  0  0  0  0  0  0
  -23.5100  -28.4800   22.8790 O   0  0  0  0  0  0  0  0  0  0  0  0
  -21.0800  -29.7760   21.3610 H   0  0  0  0  0  0  0  0  0  0  0  0
  -18.0960  -28.0960   22.5420 C   0  0  0  0  0  0  0  0  0  0  0  0
  -20.6810  -28.1580   22.6770 C   0  0  0  0  0  3  0  0  0  0  0  0
  -20.6440  -26.8180   21.9060 C   0  0  0  0  0  2  0  0  0  0  0  0
  -19.4710  -26.7190   20.9250 C   0  0  0  0  0  2  0  0  0  0  0  0
  -18.1390  -26.8550   21.6660 C   0  0  0  0  0  2  0  0  0  0  0  0
  -19.2880  -28.7180   23.0030 C   0  0  0  0  0  0  0  0  0  0  0  0
  -19.1890  -29.8820   23.7930 C   0  0  0  0  0  3  0  0  0  0  0  0
  -17.9310  -30.4270   24.1200 C   0  0  0  0  0  3  0  0  0  0  0  0
  -16.7560  -29.8030   23.6700 C   0  0  0  0  0  3  0  0  0  0  0  0
  -16.8390  -28.6370   22.8870 C   0  0  0  0  0  3  0  0  0  0  0  0
  -25.9780  -32.1540   23.7370 C   0  0  0  0  0  3  0  0  0  0  0  0
  -25.6280  -33.5330   24.1420 N   0  0  0  0  0  0  0  0  0  0  0  0
  -25.9530  -34.6480   23.4710 C   0  0  0  0  0  0  0  0  0  0  0  0
  -26.6300  -34.6240   22.4410 O   0  0  0  0  0  0  0  0  0  0  0  0
  -25.0230  -33.6230   24.9460 H   0  0  0  0  0  0  0  0  0  0  0  0
  -24.1990  -36.4490   23.2600 C   0  0  0  0  0  1  0  0  0  0  0  0
  -25.4550  -36.0020   24.0260 C   0  0  0  0  0  3  0  0  0  0  0  0
  -27.5790  -36.8770   24.9010 C   0  0  0  0  0  1  0  0  0  0  0  0
  -26.4720  -37.0760   23.9700 N   0  0  0  0  0  0  0  0  0  0  0  0
  -26.0520  -37.9810   24.1650 H   0  0  0  0  0  0  0  0  0  0  0  0
  -26.4140  -31.3280   25.0110 C   0  0  1  0  0  0  0  0  0  0  0  0
  -25.2630  -31.0620   26.0090 C   0  0  0  0  0  1  0  0  0  0  0  0
  -27.0030  -29.9560   24.6120 C   0  0  0  0  0  1  0  0  0  0  0  0
  -27.5370  -32.0790   25.7650 C   0  0  0  0  0  1  0  0  0  0  0  0
  -29.5360  -17.8190   20.1750 C   0  0  0  0  0 15  0  0  0  0  0  0
  -30.4350  -16.0450   19.9280 C   0  0  0  0  0  2  0  0  0  0  0  0
  -30.6410  -13.4150   19.0920 C   0  0  0  0  0  2  0  0  0  0  0  0
  -29.7310  -12.9000   17.9260 C   0  0  0  0  0  2  0  0  0  0  0  0
  -28.3470  -12.4670   18.4330 C   0  0  0  0  0  2  0  0  0  0  0  0
  -27.8380  -13.4610   19.4950 C   0  0  0  0  0  3  0  0  0  0  0  0
  -28.8920  -13.8640   20.5600 C   0  0  0  0  0  2  0  0  0  0  0  0
  -30.0040  -14.5990   19.8800 N   0  0  0  0  0  0  0  0  0  0  0  0
  -31.6610  -15.9520   19.6740 O   0  0  0  0  0  1  0  0  0  0  0  0
  -25.5140  -13.9440   20.3770 C   0  0  0  0  0  0  0  0  0  0  0  0
  -24.4770  -13.1510   20.7750 C   0  0  0  0  0  0  0  0  0  0  0  0
  -24.9530  -11.8060   20.7020 C   0  0  0  0  0  0  0  0  0  0  0  0
  -26.5520  -13.0870   20.0720 N   0  0  0  0  0  0  0  0  0  0  0  0
  -26.2340  -11.7890   20.3320 N   0  0  0  0  0  0  0  0  0  0  0  0
  -24.2370  -10.5370   20.9040 C   0  0  0  0  0  0  0  0  0  0  0  0
  -24.6350   -9.6080   21.8900 C   0  0  0  0  0  3  0  0  0  0  0  0
  -23.9120   -8.4100   22.0800 C   0  0  0  0  0  3  0  0  0  0  0  0
  -22.7760   -8.1310   21.2840 C   0  0  0  0  0  0  0  0  0  0  0  0
  -22.3960   -9.0490   20.2880 C   0  0  0  0  0  3  0  0  0  0  0  0
  -23.1200  -10.2380   20.0970 C   0  0  0  0  0  3  0  0  0  0  0  0
  -22.0300   -6.9810   21.3800 O   0  0  0  0  0  0  0  0  0  0  0  0
  -21.8020   -6.3680   22.5860 C   0  0  0  0  0  0  0  0  0  0  0  0
  -21.1860   -7.0440   23.6620 C   0  0  0  0  0  3  0  0  0  0  0  0
  -20.9080   -6.3570   24.8590 C   0  0  0  0  0  3  0  0  0  0  0  0
  -21.2360   -4.9930   24.9820 C   0  0  0  0  0  0  0  0  0  0  0  0
  -21.8450   -4.3150   23.9100 C   0  0  0  0  0  3  0  0  0  0  0  0
  -22.1230   -5.0010   22.7150 C   0  0  0  0  0  0  0  0  0  0  0  0
  -22.6900   -4.3380   21.6780 F   0  0  0  0  0  0  0  0  0  0  0  0
  -20.9640   -4.3300   26.1300 F   0  0  0  0  0  0  0  0  0  0  0  0
  -23.0890  -13.6180   21.1020 C   0  0  0  0  0  0  0  0  0  0  0  0
  -22.4090  -12.9310   22.0120 N   0  0  0  0  0  0  0  0  0  0  0  0
  -22.6190  -14.6320   20.5860 O   0  0  0  0  0  0  0  0  0  0  0  0
  -22.8050  -12.1120   22.4500 H   0  0  0  0  0  0  0  0  0  0  0  0
  -21.4800  -13.2270   22.2740 H   0  0  0  0  0  0  0  0  0  0  0  0
  -25.6580  -15.3190   20.2140 N   0  0  0  0  0  0  0  0  0  0  0  0
  -24.8910  -15.9650   20.3710 H   0  0  0  0  0  0  0  0  0  0  0  0
  -26.4890  -15.7710   19.8540 H   0  0  0  0  0  0  0  0  0  0  0  0
  1  5  1  0
  2  1  2  0
  2  6  1  0
  3  9  1  0
  4  3  1  0
  4 12  1  0
  5  3  2  0
  6  4  2  0
  7 10  1  0
  8  7  2  0
 11 10  1  0
 12  8  1  0
 12 13  1  0
 13  9  1  0
 13 11  1  0
 14 16  1  0
 14  6  1  0
 15 26  2  0
 16 21  1  0
 17 25  1  0
 17 27  1  0
 18 24  1  0
 18 20  1  0
 19 25  1  0
 20 19  1  0
 21 20  2  0
 22 23  1  0
 22 16  2  0
 23 18  2  0
 24 17  1  0
 25 15  1  0
 27 29  2  0
 28 27  1  0
 30 28  1  0
 31 40  2  0
 31 36  1  0
 32 28  1  0
 32 36  1  0
 33 32  1  0
 34 35  1  0
 34 33  1  0
 35 31  1  0
 36 37  2  0
 37 38  1  0
 39 38  2  0
 40 39  1  0
 41 15  1  0
 41 42  1  0
 41 51  1  0
 42 45  1  0
 43 47  1  0
 43 42  1  0
 44 43  2  0
 47 46  1  0
 49 47  1  0
 49 50  1  0
 49 48  1  0
 51 54  1  1
 51 52  1  0
 53 51  1  0
 57 62  1  0
 58 59  1  0
 58 57  1  0
 60 59  1  0
 60 67  1  0
 60 61  1  0
 62 56  1  0
 62 61  1  0
 63 56  1  0
 64 65  2  0
 65 84  1  0
 66 65  1  0
 66 69  1  0
 67 68  1  0
 67 64  1  0
 68 66  2  0
 69 70  1  0
 70 71  2  0
 72 75  1  0
 72 71  1  0
 73 72  2  0
 74 73  1  0
 74 69  2  0
 75 76  1  0
 76 81  2  0
 76 77  1  0
 77 78  2  0
 78 79  1  0
 79 83  1  0
 80 79  2  0
 81 80  1  0
 82 81  1  0
 84 85  1  0
 85 88  1  0
 85 87  1  0
 86 84  2  0
 89 90  1  0
 89 64  1  0
 91 89  1  0
M  ISO  4   6 101  14 101  55 100  56 100
M  END
>  <TORSDO>  (40) 
F 17

>  <SCORE>  (40) 
-15.050

>  <name>  (40) 
39

>  <ligand_id>  (40) 
39

>  <original_smiles>  (40) 
[H]C1=C([H])C2([H])c3c(Oc4c([H])c([H])c5c(c4[H])C([H])([H])N(C(=O)C([H])(N([H])C(=O)C([H])(N([H])C([H])([H])[H])C([H])([H])[H])C(C([H])([H])[H])(C([H])([H])[H])C([H])([H])[H])C([H])(C(=O)N([H])C4([H])c6c([H])c([H])c([H])c([H])c6C([H])([H])C([H])([H])C4([H])[H])C5([H])[H])c([H])c([H])c(C([H])([H])C(=O)N4C([H])([H])C([H])([H])C([H])([H])C([H])(n5nc(-c6c([H])c([H])c(Oc7c([H])c([H])c(F)c([H])c7F)c([H])c6[H])c(C(=O)N([H])[H])c5N([H])[H])C4([H])[H])c3C([H])([H])C2([H])C([H])([H])C1([H])[H]

>  <smiles>  (40) 
[H]C1=C([H])C2([H])c3c(Oc4c([H])c([H])c5c(c4[H])C([H])([H])N(C(=O)C([H])(N([H])C(=O)C([H])(N([H])C([H])([H])[H])C([H])([H])[H])C(C([H])([H])[H])(C([H])([H])[H])C([H])([H])[H])C([H])(C(=O)N([H])C4([H])c6c([H])c([H])c([H])c([H])c6C([H])([H])C([H])([H])C4([H])[H])C5([H])[H])c([H])c([H])c(C([H])([H])C(=O)N4C([H])([H])C([H])([H])C([H])([H])C([H])(n5nc(-c6c([H])c([H])c(Oc7c([H])c([H])c(F)c([H])c7F)c([H])c6[H])c(C(=O)N([H])[H])c5N([H])[H])C4([H])[H])c3C([H])([H])C2([H])C([H])([H])C1([H])[H]

$$$$
40:0:0
     RDKit          3D

 91100  0  0  1  0  0  0  0  0999 V2000
  -30.4200  -23.2930   18.7880 C   0  0  0  0  0  3  0  0  0  0  0  0
  -29.6520  -22.8300   19.7930 C   0  0  0  0  0  0  0  0  0  0  0  0
  -31.5010  -22.5920   17.9860 C   0  0  0  0  0  2  0  0  0  0  0  0
  -29.8630  -21.1820   20.3190 C   0  0  0  0  0  2  0  0  0  0  0  0
  -31.1990  -21.1520   17.5490 C   0  0  0  0  0  2  0  0  0  0  0  0
  -31.6330  -20.0910   18.5700 C   0  0  0  0  0  2  0  0  0  0  0  0
  -30.5510  -19.6870   19.5730 C   0  0  0  0  0  3  0  0  0  0  0  0
  -30.1750  -17.2110   22.7000 C   0  0  0  0  0  3  0  0  0  0  0  0
  -31.1540  -18.2130   22.7620 C   0  0  0  0  0  3  0  0  0  0  0  0
  -29.9600  -16.5180   21.4940 C   0  0  0  0  0  3  0  0  0  0  0  0
  -31.6760  -18.7220   21.5640 C   0  0  0  0  0  3  0  0  0  0  0  0
  -30.7830  -16.7310   20.3650 C   0  0  0  0  0  0  0  0  0  0  0  0
  -31.1610  -18.2560   20.3370 C   0  0  0  0  0  0  0  0  0  0  0  0
  -31.5070  -15.2850   19.8500 C   0  0  0  0  0  0  0  0  0  0  0  0
  -31.2950  -12.9510   18.7020 C   0  0  0  0  0  2  0  0  0  0  0  0
  -30.2190  -12.9340   17.5810 C   0  0  0  0  0  2  0  0  0  0  0  0
  -28.8000  -12.7110   18.1430 C   0  0  0  0  0  2  0  0  0  0  0  0
  -28.5580  -13.5410   19.4270 C   0  0  0  0  0  3  0  0  0  0  0  0
  -29.7380  -13.3870   20.4120 C   0  0  0  0  0  2  0  0  0  0  0  0
  -30.9160  -13.9800   19.7410 N   0  0  0  0  0  0  0  0  0  0  0  0
  -32.6710  -15.2940   19.4190 O   0  0  0  0  0  0  0  0  0  0  0  0
  -26.3060  -14.1850   20.4610 C   0  0  0  0  0  0  0  0  0  0  0  0
  -25.2370  -13.4450   20.8780 C   0  0  0  0  0  0  0  0  0  0  0  0
  -25.5980  -12.0790   20.6690 C   0  0  0  0  0  0  0  0  0  0  0  0
  -27.2600  -13.2730   20.0370 N   0  0  0  0  0  0  0  0  0  0  0  0
  -26.8460  -11.9930   20.2200 N   0  0  0  0  0  0  0  0  0  0  0  0
  -24.7990  -10.8550   20.8140 C   0  0  0  0  0  0  0  0  0  0  0  0
  -25.1120   -9.8800   21.7860 C   0  0  0  0  0  3  0  0  0  0  0  0
  -24.3150   -8.7230   21.9210 C   0  0  0  0  0  3  0  0  0  0  0  0
  -23.1910   -8.5330   21.0830 C   0  0  0  0  0  0  0  0  0  0  0  0
  -22.8970   -9.4970   20.1020 C   0  0  0  0  0  3  0  0  0  0  0  0
  -23.6940  -10.6450   19.9650 C   0  0  0  0  0  3  0  0  0  0  0  0
  -22.3760   -7.4290   21.1240 O   0  0  0  0  0  0  0  0  0  0  0  0
  -22.0330   -6.8320   22.3110 C   0  0  0  0  0  0  0  0  0  0  0  0
  -21.3630   -7.5390   23.3340 C   0  0  0  0  0  3  0  0  0  0  0  0
  -20.9680   -6.8690   24.5090 C   0  0  0  0  0  3  0  0  0  0  0  0
  -21.2300   -5.4950   24.6610 C   0  0  0  0  0  0  0  0  0  0  0  0
  -21.8920   -4.7880   23.6410 C   0  0  0  0  0  3  0  0  0  0  0  0
  -22.2890   -5.4550   22.4680 C   0  0  0  0  0  0  0  0  0  0  0  0
  -22.9080   -4.7640   21.4800 F   0  0  0  0  0  0  0  0  0  0  0  0
  -20.8440   -4.8500   25.7860 F   0  0  0  0  0  0  0  0  0  0  0  0
  -23.9160  -13.9830   21.3430 C   0  0  0  0  0  0  0  0  0  0  0  0
  -23.2480  -13.2730   22.2440 N   0  0  0  0  0  0  0  0  0  0  0  0
  -23.4910  -15.0680   20.9450 O   0  0  0  0  0  0  0  0  0  0  0  0
  -23.6070  -12.3940   22.5870 H   0  0  0  0  0  0  0  0  0  0  0  0
  -22.3650  -13.6140   22.5990 H   0  0  0  0  0  0  0  0  0  0  0  0
  -26.5230  -15.5570   20.3770 N   0  0  0  0  0  0  0  0  0  0  0  0
  -25.7990  -16.2220   20.6210 H   0  0  0  0  0  0  0  0  0  0  0  0
  -27.3290  -15.9940   19.9480 H   0  0  0  0  0  0  0  0  0  0  0  0
  -28.6050  -24.0640   20.4100 C   0  0  0  0  0  2  0  0  0  0  0  0
  -28.7930  -25.6950   20.4610 O   0  0  0  0  0  0  0  0  0  0  0  0
  -24.7860  -31.5900   22.9700 C   0  0  0  0  0  0  0  0  0  0  0  0
  -27.7240  -26.7230   20.3370 C   0  0  0  0  0  0  0  0  0  0  0  0
  -23.7560  -30.0860   21.3160 C   0  0  0  0  0  3  0  0  0  0  0  0
  -25.3550  -28.4860   20.0650 C   0  0  0  0  0  0  0  0  0  0  0  0
  -26.3160  -30.3990   21.3270 C   0  0  0  0  0  2  0  0  0  0  0  0
  -26.4830  -28.9700   20.7400 C   0  0  0  0  0  0  0  0  0  0  0  0
  -27.6650  -28.1090   20.8460 C   0  0  0  0  0  3  0  0  0  0  0  0
  -26.5600  -26.3800   19.6120 C   0  0  0  0  0  3  0  0  0  0  0  0
  -25.4170  -27.2090   19.4830 C   0  0  0  0  0  3  0  0  0  0  0  0
  -24.1030  -29.3570   19.9900 C   0  0  0  0  0  2  0  0  0  0  0  0
  -24.9700  -30.7210   21.9250 N   0  0  0  0  0  0  0  0  0  0  0  0
  -23.6540  -31.8570   23.4060 O   0  0  0  0  0  0  0  0  0  0  0  0
  -23.0360  -29.1020   22.2750 C   0  0  0  0  0  0  0  0  0  0  0  0
  -21.7000  -28.9840   22.1570 N   0  0  0  0  0  0  0  0  0  0  0  0
  -23.6840  -28.4450   23.0920 O   0  0  0  0  0  0  0  0  0  0  0  0
  -21.2310  -29.5620   21.4750 H   0  0  0  0  0  0  0  0  0  0  0  0
  -18.2700  -27.9670   22.7600 C   0  0  0  0  0  0  0  0  0  0  0  0
  -20.8500  -28.0650   22.9220 C   0  0  0  0  0  3  0  0  0  0  0  0
  -20.8380  -26.6560   22.2840 C   0  0  0  0  0  2  0  0  0  0  0  0
  -19.6770  -26.4470   21.3060 C   0  0  0  0  0  2  0  0  0  0  0  0
  -18.3350  -26.6430   22.0160 C   0  0  0  0  0  2  0  0  0  0  0  0
  -19.4500  -28.6420   23.1710 C   0  0  0  0  0  0  0  0  0  0  0  0
  -19.3310  -29.8840   23.8320 C   0  0  0  0  0  3  0  0  0  0  0  0
  -18.0670  -30.4500   24.0810 C   0  0  0  0  0  3  0  0  0  0  0  0
  -16.9030  -29.7700   23.6830 C   0  0  0  0  0  3  0  0  0  0  0  0
  -17.0050  -28.5300   23.0280 C   0  0  0  0  0  3  0  0  0  0  0  0
  -25.9880  -32.3050   23.6580 C   0  0  0  0  0  3  0  0  0  0  0  0
  -25.5600  -33.6710   24.0130 N   0  0  0  0  0  0  0  0  0  0  0  0
  -25.8710  -34.7760   23.3230 C   0  0  0  0  0  0  0  0  0  0  0  0
  -26.6080  -34.7570   22.3340 O   0  0  0  0  0  0  0  0  0  0  0  0
  -24.9070  -33.7520   24.7780 H   0  0  0  0  0  0  0  0  0  0  0  0
  -24.0580  -36.4800   22.9320 C   0  0  0  0  0  1  0  0  0  0  0  0
  -25.2710  -36.1140   23.8020 C   0  0  0  0  0  3  0  0  0  0  0  0
  -27.2880  -37.0950   24.8030 C   0  0  0  0  0  1  0  0  0  0  0  0
  -26.2400  -37.2320   23.7950 N   0  0  0  0  0  0  0  0  0  0  0  0
  -25.7680  -38.1190   23.9460 H   0  0  0  0  0  0  0  0  0  0  0  0
  -26.5050  -31.5480   24.9440 C   0  0  1  0  0  0  0  0  0  0  0  0
  -25.3890  -31.2090   25.9600 C   0  0  0  0  0  1  0  0  0  0  0  0
  -27.2050  -30.2240   24.5610 C   0  0  0  0  0  1  0  0  0  0  0  0
  -27.5650  -32.4110   25.6680 C   0  0  0  0  0  1  0  0  0  0  0  0
  1  2  2  0
  2  4  1  0
  2 50  1  0
  3  1  1  0
  5  3  1  0
  5  6  1  0
  6  7  1  0
  7  4  1  0
  7 13  1  0
  8  9  1  0
 10  8  2  0
 11  9  2  0
 12 10  1  0
 13 12  2  3
 13 11  1  0
 14 12  1  0
 15 20  1  0
 16 17  1  0
 16 15  1  0
 18 17  1  0
 18 25  1  0
 18 19  1  0
 20 14  1  0
 20 19  1  0
 21 14  2  0
 22 23  2  0
 23 42  1  0
 24 27  1  0
 24 23  1  0
 25 26  1  0
 25 22  1  0
 26 24  2  0
 27 28  1  0
 28 29  2  0
 30 33  1  0
 30 29  1  0
 31 30  2  0
 32 31  1  0
 32 27  2  0
 33 34  1  0
 34 39  2  0
 34 35  1  0
 35 36  2  0
 36 37  1  0
 37 41  1  0
 38 37  2  0
 39 38  1  0
 40 39  1  0
 42 43  1  0
 43 45  1  0
 43 46  1  0
 44 42  2  0
 47 22  1  0
 47 48  1  0
 49 47  1  0
 50 51  1  0
 52 63  2  0
 53 51  1  0
 53 58  1  0
 54 62  1  0
 54 64  1  0
 55 57  1  0
 56 62  1  0
 57 58  2  0
 57 56  1  0
 59 53  2  0
 60 59  1  0
 60 55  2  0
 61 55  1  0
 61 54  1  0
 62 52  1  0
 64 66  2  0
 65 64  1  0
 67 65  1  0
 68 77  2  0
 68 73  1  0
 69 65  1  0
 69 73  1  0
 70 69  1  0
 71 72  1  0
 71 70  1  0
 72 68  1  0
 73 74  2  0
 74 75  1  0
 76 75  2  0
 77 76  1  0
 78 52  1  0
 78 79  1  0
 78 88  1  0
 79 82  1  0
 80 84  1  0
 80 79  1  0
 81 80  2  0
 84 83  1  0
 86 84  1  0
 86 87  1  0
 86 85  1  0
 88 91  1  1
 88 89  1  0
 90 88  1  0
M  ISO  4  12 100  14 100  50 101  51 101
M  END
>  <TORSDO>  (41) 
F 18

>  <SCORE>  (41) 
-13.265

>  <name>  (41) 
40

>  <ligand_id>  (41) 
40

>  <original_smiles>  (41) 
[H]C1=C(C([H])([H])Oc2c([H])c([H])c3c(c2[H])C([H])([H])N(C(=O)C([H])(N([H])C(=O)C([H])(N([H])C([H])([H])[H])C([H])([H])[H])C(C([H])([H])[H])(C([H])([H])[H])C([H])([H])[H])C([H])(C(=O)N([H])C2([H])c4c([H])c([H])c([H])c([H])c4C([H])([H])C([H])([H])C2([H])[H])C3([H])[H])C([H])([H])C([H])(c2c([H])c([H])c([H])c([H])c2C(=O)N2C([H])([H])C([H])([H])C([H])([H])C([H])(n3nc(-c4c([H])c([H])c(Oc5c([H])c([H])c(F)c([H])c5F)c([H])c4[H])c(C(=O)N([H])[H])c3N([H])[H])C2([H])[H])C([H])([H])C([H])([H])C1([H])[H]

>  <smiles>  (41) 
[H]C1=C(C([H])([H])Oc2c([H])c([H])c3c(c2[H])C([H])([H])N(C(=O)C([H])(N([H])C(=O)C([H])(N([H])C([H])([H])[H])C([H])([H])[H])C(C([H])([H])[H])(C([H])([H])[H])C([H])([H])[H])C([H])(C(=O)N([H])C2([H])c4c([H])c([H])c([H])c([H])c4C([H])([H])C([H])([H])C2([H])[H])C3([H])[H])C([H])([H])C([H])(c2c([H])c([H])c([H])c([H])c2C(=O)N2C([H])([H])C([H])([H])C([H])([H])C([H])(n3nc(-c4c([H])c([H])c(Oc5c([H])c([H])c(F)c([H])c5F)c([H])c4[H])c(C(=O)N([H])[H])c3N([H])[H])C2([H])[H])C([H])([H])C([H])([H])C1([H])[H]

$$$$
41:0:0
     RDKit          3D

 89 98  0  0  1  0  0  0  0  0999 V2000
  -30.4840  -21.1040   20.8580 C   0  0  0  0  0  3  0  0  0  0  0  0
  -29.9210  -22.4620   20.7580 C   0  0  0  0  0  3  0  0  0  0  0  0
  -28.0590  -21.5220   19.7110 C   0  0  0  0  0  3  0  0  0  0  0  0
  -29.8780  -19.8660   20.3990 C   0  0  0  0  0  0  0  0  0  0  0  0
  -28.6220  -20.1340   19.8060 C   0  0  0  0  0  0  0  0  0  0  0  0
  -28.6490  -22.8090   20.1700 C   0  0  0  0  0  0  0  0  0  0  0  0
  -30.5310  -18.3280   20.4970 C   0  0  0  0  0  2  0  0  0  0  0  0
  -27.9100  -18.8210   19.3300 C   0  0  0  0  0  2  0  0  0  0  0  0
  -28.7480  -17.4440   19.1080 C   0  0  0  0  0  2  0  0  0  0  0  0
  -29.7040  -16.8720   20.2490 C   0  0  2  0  0  0  0  0  0  0  0  0
  -28.8540  -16.6670   21.5210 C   0  0  0  0  0  1  0  0  0  0  0  0
  -30.4960  -15.3230   19.9530 C   0  0  0  0  0  0  0  0  0  0  0  0
  -30.5050  -12.8750   19.0910 C   0  0  0  0  0  2  0  0  0  0  0  0
  -29.5260  -12.6770   17.9040 C   0  0  0  0  0  2  0  0  0  0  0  0
  -28.1010  -12.3770   18.4040 C   0  0  0  0  0  2  0  0  0  0  0  0
  -27.6920  -13.3180   19.5650 C   0  0  0  0  0  3  0  0  0  0  0  0
  -28.7940  -13.4450   20.6350 C   0  0  0  0  0  2  0  0  0  0  0  0
  -29.9890  -13.9900   19.9670 N   0  0  0  0  0  0  0  0  0  0  0  0
  -31.6850  -15.3490   19.6020 O   0  0  0  0  0  0  0  0  0  0  0  0
  -25.3650  -13.8260   20.4810 C   0  0  0  0  0  0  0  0  0  0  0  0
  -24.3320  -13.0260   20.8790 C   0  0  0  0  0  0  0  0  0  0  0  0
  -24.8060  -11.6830   20.7670 C   0  0  0  0  0  0  0  0  0  0  0  0
  -26.3970  -12.9720   20.1380 N   0  0  0  0  0  0  0  0  0  0  0  0
  -26.0770  -11.6740   20.3770 N   0  0  0  0  0  0  0  0  0  0  0  0
  -24.1020  -10.4070   20.9490 C   0  0  0  0  0  0  0  0  0  0  0  0
  -24.5350   -9.4490   21.8920 C   0  0  0  0  0  3  0  0  0  0  0  0
  -23.8260   -8.2400   22.0630 C   0  0  0  0  0  3  0  0  0  0  0  0
  -22.6690   -7.9800   21.2910 C   0  0  0  0  0  0  0  0  0  0  0  0
  -22.2540   -8.9270   20.3370 C   0  0  0  0  0  3  0  0  0  0  0  0
  -22.9640  -10.1270   20.1650 C   0  0  0  0  0  3  0  0  0  0  0  0
  -21.9320   -6.8230   21.3710 O   0  0  0  0  0  0  0  0  0  0  0  0
  -21.7850   -6.1440   22.5540 C   0  0  0  0  0  0  0  0  0  0  0  0
  -21.2080   -6.7460   23.6920 C   0  0  0  0  0  3  0  0  0  0  0  0
  -21.0130   -5.9910   24.8660 C   0  0  0  0  0  3  0  0  0  0  0  0
  -21.3830   -4.6340   24.9010 C   0  0  0  0  0  0  0  0  0  0  0  0
  -21.9540   -4.0300   23.7660 C   0  0  0  0  0  3  0  0  0  0  0  0
  -22.1510   -4.7820   22.5950 C   0  0  0  0  0  0  0  0  0  0  0  0
  -22.6810   -4.1910   21.4980 F   0  0  0  0  0  0  0  0  0  0  0  0
  -21.1890   -3.9050   26.0250 F   0  0  0  0  0  0  0  0  0  0  0  0
  -22.9490  -13.4790   21.2490 C   0  0  0  0  0  0  0  0  0  0  0  0
  -22.2820  -12.7490   22.1360 N   0  0  0  0  0  0  0  0  0  0  0  0
  -22.4730  -14.5140   20.7870 O   0  0  0  0  0  0  0  0  0  0  0  0
  -22.6820  -11.9120   22.5300 H   0  0  0  0  0  0  0  0  0  0  0  0
  -21.3560  -13.0330   22.4260 H   0  0  0  0  0  0  0  0  0  0  0  0
  -25.5040  -15.2050   20.3560 N   0  0  0  0  0  0  0  0  0  0  0  0
  -24.7430  -15.8430   20.5700 H   0  0  0  0  0  0  0  0  0  0  0  0
  -26.3360  -15.6760   20.0310 H   0  0  0  0  0  0  0  0  0  0  0  0
  -27.8610  -24.3610   20.0430 C   0  0  0  0  0  2  0  0  0  0  0  0
  -28.2320  -25.9290   20.3160 O   0  0  0  0  0  0  0  0  0  0  0  0
  -24.7120  -31.8860   23.3010 C   0  0  0  0  0  0  0  0  0  0  0  0
  -27.2450  -27.0410   20.2490 C   0  0  0  0  0  0  0  0  0  0  0  0
  -23.5150  -30.5170   21.6430 C   0  0  0  0  0  3  0  0  0  0  0  0
  -24.9580  -28.9250   20.2090 C   0  0  0  0  0  0  0  0  0  0  0  0
  -26.0830  -30.7190   21.5090 C   0  0  0  0  0  2  0  0  0  0  0  0
  -26.1460  -29.3170   20.8400 C   0  0  0  0  0  0  0  0  0  0  0  0
  -27.2850  -28.3960   20.8360 C   0  0  0  0  0  3  0  0  0  0  0  0
  -26.0290  -26.8000   19.5690 C   0  0  0  0  0  3  0  0  0  0  0  0
  -24.9240  -27.6860   19.5530 C   0  0  0  0  0  3  0  0  0  0  0  0
  -23.7440  -29.8500   20.2600 C   0  0  0  0  0  2  0  0  0  0  0  0
  -24.7910  -31.0670   22.2050 N   0  0  0  0  0  0  0  0  0  0  0  0
  -23.6230  -32.1760   23.8230 O   0  0  0  0  0  0  0  0  0  0  0  0
  -22.8110  -29.5140   22.5950 C   0  0  0  0  0  0  0  0  0  0  0  0
  -21.4830  -29.3490   22.4530 N   0  0  0  0  0  0  0  0  0  0  0  0
  -23.4680  -28.8850   23.4290 O   0  0  0  0  0  0  0  0  0  0  0  0
  -21.0070  -29.9050   21.7590 H   0  0  0  0  0  0  0  0  0  0  0  0
  -18.0920  -28.1460   22.9250 C   0  0  0  0  0  0  0  0  0  0  0  0
  -20.6510  -28.4070   23.2110 C   0  0  0  0  0  3  0  0  0  0  0  0
  -20.7550  -26.9780   22.6280 C   0  0  0  0  0  2  0  0  0  0  0  0
  -19.6600  -26.6630   21.6040 C   0  0  0  0  0  2  0  0  0  0  0  0
  -18.2730  -26.8040   22.2370 C   0  0  0  0  0  2  0  0  0  0  0  0
  -19.2080  -28.9050   23.3690 C   0  0  0  0  0  0  0  0  0  0  0  0
  -18.9820  -30.1600   23.9750 C   0  0  0  0  0  3  0  0  0  0  0  0
  -17.6750  -30.6560   24.1390 C   0  0  0  0  0  3  0  0  0  0  0  0
  -16.5740  -29.8940   23.7100 C   0  0  0  0  0  3  0  0  0  0  0  0
  -16.7840  -28.6410   23.1090 C   0  0  0  0  0  3  0  0  0  0  0  0
  -25.9860  -32.5120   23.9450 C   0  0  0  0  0  3  0  0  0  0  0  0
  -25.6880  -33.9190   24.2650 N   0  0  0  0  0  0  0  0  0  0  0  0
  -26.0100  -34.9660   23.4930 C   0  0  0  0  0  0  0  0  0  0  0  0
  -26.6530  -34.8500   22.4470 O   0  0  0  0  0  0  0  0  0  0  0  0
  -25.1160  -34.0850   25.0790 H   0  0  0  0  0  0  0  0  0  0  0  0
  -24.2690  -36.7620   23.2010 C   0  0  0  0  0  1  0  0  0  0  0  0
  -25.5490  -36.3640   23.9540 C   0  0  0  0  0  3  0  0  0  0  0  0
  -27.7170  -37.2680   24.6700 C   0  0  0  0  0  1  0  0  0  0  0  0
  -26.5750  -37.4150   23.7730 N   0  0  0  0  0  0  0  0  0  0  0  0
  -26.1750  -38.3370   23.9160 H   0  0  0  0  0  0  0  0  0  0  0  0
  -26.4600  -31.7500   25.2440 C   0  0  1  0  0  0  0  0  0  0  0  0
  -25.3390  -31.5450   26.2910 C   0  0  0  0  0  1  0  0  0  0  0  0
  -27.0310  -30.3580   24.8900 C   0  0  0  0  0  1  0  0  0  0  0  0
  -27.6070  -32.5350   25.9200 C   0  0  0  0  0  1  0  0  0  0  0  0
  2  1  1  0
  3  5  2  0
  3  6  1  0
  4  7  1  0
  4  1  2  0
  5  4  1  0
  6  2  2  0
  8  5  1  0
  9  8  1  0
  9 10  1  0
 10  7  1  0
 10 11  1  1
 12 18  1  0
 12 10  1  0
 13 18  1  0
 14 15  1  0
 14 13  1  0
 16 15  1  0
 16 23  1  0
 16 17  1  0
 18 17  1  0
 19 12  2  0
 20 21  2  0
 21 40  1  0
 22 21  1  0
 22 25  1  0
 23 24  1  0
 23 20  1  0
 24 22  2  0
 25 26  1  0
 26 27  2  0
 28 31  1  0
 28 27  1  0
 29 28  2  0
 30 29  1  0
 30 25  2  0
 31 32  1  0
 32 37  2  0
 32 33  1  0
 33 34  2  0
 34 35  1  0
 35 39  1  0
 36 35  2  0
 37 36  1  0
 38 37  1  0
 40 41  1  0
 41 44  1  0
 41 43  1  0
 42 40  2  0
 45 20  1  0
 45 46  1  0
 47 45  1  0
 48  6  1  0
 48 49  1  0
 50 61  2  0
 51 49  1  0
 51 56  1  0
 52 60  1  0
 52 62  1  0
 53 59  1  0
 53 55  1  0
 54 60  1  0
 55 54  1  0
 56 55  2  0
 57 51  2  0
 58 57  1  0
 58 53  2  0
 59 52  1  0
 60 50  1  0
 62 64  2  0
 63 62  1  0
 65 63  1  0
 66 75  2  0
 66 71  1  0
 67 63  1  0
 67 71  1  0
 68 67  1  0
 69 70  1  0
 69 68  1  0
 70 66  1  0
 71 72  2  0
 72 73  1  0
 74 73  2  0
 75 74  1  0
 76 50  1  0
 76 77  1  0
 76 86  1  0
 77 80  1  0
 78 82  1  0
 78 77  1  0
 79 78  2  0
 82 81  1  0
 84 85  1  0
 84 82  1  0
 84 83  1  0
 86 89  1  1
 86 87  1  0
 88 86  1  0
M  ISO  4  10 100  12 100  48 101  49 101
M  END
>  <TORSDO>  (42) 
F 17

>  <SCORE>  (42) 
-15.650

>  <name>  (42) 
41

>  <ligand_id>  (42) 
41

>  <original_smiles>  (42) 
[H]c1c([H])c([H])c2c(c1[H])C([H])([H])C([H])([H])C([H])([H])C2([H])N([H])C(=O)C1([H])N(C(=O)C([H])(N([H])C(=O)C([H])(N([H])C([H])([H])[H])C([H])([H])[H])C(C([H])([H])[H])(C([H])([H])[H])C([H])([H])[H])C([H])([H])c2c([H])c(OC([H])([H])c3c([H])c([H])c4c(c3[H])C([H])([H])C([H])([H])C(C(=O)N3C([H])([H])C([H])([H])C([H])([H])C([H])(n5nc(-c6c([H])c([H])c(Oc7c([H])c([H])c(F)c([H])c7F)c([H])c6[H])c(C(=O)N([H])[H])c5N([H])[H])C3([H])[H])(C([H])([H])[H])C4([H])[H])c([H])c([H])c2C1([H])[H]

>  <smiles>  (42) 
[H]c1c([H])c([H])c2c(c1[H])C([H])([H])C([H])([H])C([H])([H])C2([H])N([H])C(=O)C1([H])N(C(=O)C([H])(N([H])C(=O)C([H])(N([H])C([H])([H])[H])C([H])([H])[H])C(C([H])([H])[H])(C([H])([H])[H])C([H])([H])[H])C([H])([H])c2c([H])c(OC([H])([H])c3c([H])c([H])c4c(c3[H])C([H])([H])C([H])([H])C(C(=O)N3C([H])([H])C([H])([H])C([H])([H])C([H])(n5nc(-c6c([H])c([H])c(Oc7c([H])c([H])c(F)c([H])c7F)c([H])c6[H])c(C(=O)N([H])[H])c5N([H])[H])C3([H])[H])(C([H])([H])[H])C4([H])[H])c([H])c([H])c2C1([H])[H]

$$$$
42:0:0
     RDKit          3D

 91100  0  0  1  0  0  0  0  0999 V2000
  -28.0370  -22.5920   21.1300 C   0  0  0  0  0  3  0  0  0  0  0  0
  -27.7150  -24.0130   21.0180 C   0  0  0  0  0  3  0  0  0  0  0  0
  -29.5460  -24.3200   19.5320 C   0  0  0  0  0  3  0  0  0  0  0  0
  -29.1380  -21.9920   20.4340 C   0  0  0  0  0  0  0  0  0  0  0  0
  -29.8530  -22.9140   19.6440 C   0  0  0  0  0  0  0  0  0  0  0  0
  -28.4630  -24.9560   20.2260 C   0  0  0  0  0  0  0  0  0  0  0  0
  -31.0700  -22.2440   19.0480 C   0  0  0  0  0  2  0  0  0  0  0  0
  -30.9450  -20.7360   19.4010 C   0  0  0  0  0  2  0  0  0  0  0  0
  -29.9020  -20.5590   20.5400 C   0  0  0  0  0  3  0  0  0  0  0  0
  -29.3030  -19.1120   20.5520 N   0  0  0  0  0  4  0  0  0  0  0  0
  -28.6490  -19.0540   19.7890 H   0  0  0  0  0  0  0  0  0  0  0  0
  -28.7620  -19.0460   21.3970 H   0  0  0  0  0  0  0  0  0  0  0  0
  -30.2420  -17.8440   20.4870 C   0  0  0  0  0  3  0  0  0  0  0  0
  -29.7200  -16.2950   20.8170 C   0  0  0  0  0  3  0  0  0  0  0  0
  -30.5370  -14.9230   20.4240 C   0  0  0  0  0  0  0  0  0  0  0  0
  -30.3930  -12.6250   19.3800 C   0  0  0  0  0  2  0  0  0  0  0  0
  -29.4560  -12.6810   18.1510 C   0  0  0  0  0  2  0  0  0  0  0  0
  -27.9860  -12.4800   18.5710 C   0  0  0  0  0  2  0  0  0  0  0  0
  -27.5970  -13.3550   19.7900 C   0  0  0  0  0  3  0  0  0  0  0  0
  -28.6510  -13.2790   20.9140 C   0  0  0  0  0  2  0  0  0  0  0  0
  -29.9480  -13.6680   20.3420 N   0  0  0  0  0  0  0  0  0  0  0  0
  -31.7160  -15.0210   20.0640 O   0  0  0  0  0  0  0  0  0  0  0  0
  -25.2050  -13.9310   20.5100 C   0  0  0  0  0  0  0  0  0  0  0  0
  -24.1410  -13.1530   20.8770 C   0  0  0  0  0  0  0  0  0  0  0  0
  -24.6110  -11.8030   20.8490 C   0  0  0  0  0  0  0  0  0  0  0  0
  -26.2540  -13.0560   20.2760 N   0  0  0  0  0  0  0  0  0  0  0  0
  -25.9030  -11.7720   20.5450 N   0  0  0  0  0  0  0  0  0  0  0  0
  -23.8890  -10.5380   21.0390 C   0  0  0  0  0  0  0  0  0  0  0  0
  -24.3180   -9.5760   21.9780 C   0  0  0  0  0  3  0  0  0  0  0  0
  -23.5940   -8.3760   22.1550 C   0  0  0  0  0  3  0  0  0  0  0  0
  -22.4280   -8.1320   21.3940 C   0  0  0  0  0  0  0  0  0  0  0  0
  -22.0170   -9.0830   20.4440 C   0  0  0  0  0  3  0  0  0  0  0  0
  -22.7410  -10.2740   20.2650 C   0  0  0  0  0  3  0  0  0  0  0  0
  -21.6770   -6.9830   21.4810 O   0  0  0  0  0  0  0  0  0  0  0  0
  -21.6240   -6.2440   22.6350 C   0  0  0  0  0  0  0  0  0  0  0  0
  -21.1740   -6.7960   23.8540 C   0  0  0  0  0  3  0  0  0  0  0  0
  -21.0690   -5.9810   24.9990 C   0  0  0  0  0  3  0  0  0  0  0  0
  -21.4020   -4.6160   24.9260 C   0  0  0  0  0  0  0  0  0  0  0  0
  -21.8430   -4.0630   23.7110 C   0  0  0  0  0  3  0  0  0  0  0  0
  -21.9510   -4.8750   22.5680 C   0  0  0  0  0  0  0  0  0  0  0  0
  -22.3570   -4.3310   21.3950 F   0  0  0  0  0  0  0  0  0  0  0  0
  -21.2930   -3.8310   26.0240 F   0  0  0  0  0  0  0  0  0  0  0  0
  -22.7410  -13.6240   21.1410 C   0  0  0  0  0  0  0  0  0  0  0  0
  -22.0130  -12.9280   22.0060 N   0  0  0  0  0  0  0  0  0  0  0  0
  -22.3010  -14.6460   20.6140 O   0  0  0  0  0  0  0  0  0  0  0  0
  -22.3810  -12.1020   22.4520 H   0  0  0  0  0  0  0  0  0  0  0  0
  -21.0730  -13.2250   22.2260 H   0  0  0  0  0  0  0  0  0  0  0  0
  -25.3620  -15.3010   20.3330 N   0  0  0  0  0  0  0  0  0  0  0  0
  -24.5890  -15.9500   20.4420 H   0  0  0  0  0  0  0  0  0  0  0  0
  -26.2080  -15.7460   19.9980 H   0  0  0  0  0  0  0  0  0  0  0  0
  -28.3510  -26.4060   20.2150 O   0  0  0  0  0  0  0  0  0  0  0  0
  -24.5980  -31.9160   23.2450 C   0  0  0  0  0  0  0  0  0  0  0  0
  -27.2020  -27.2500   20.2260 C   0  0  0  0  0  0  0  0  0  0  0  0
  -23.3910  -30.5100   21.6110 C   0  0  0  0  0  3  0  0  0  0  0  0
  -24.8400  -28.9240   20.1980 C   0  0  0  0  0  0  0  0  0  0  0  0
  -25.9340  -30.7960   21.4340 C   0  0  0  0  0  2  0  0  0  0  0  0
  -26.0120  -29.4000   20.8000 C   0  0  0  0  0  0  0  0  0  0  0  0
  -27.1870  -28.5750   20.8010 C   0  0  0  0  0  3  0  0  0  0  0  0
  -26.0070  -26.8460   19.5960 C   0  0  0  0  0  3  0  0  0  0  0  0
  -24.8470  -27.6570   19.5860 C   0  0  0  0  0  3  0  0  0  0  0  0
  -23.6090  -29.8140   20.2390 C   0  0  0  0  0  2  0  0  0  0  0  0
  -24.6610  -31.0970   22.1510 N   0  0  0  0  0  0  0  0  0  0  0  0
  -23.5160  -32.2040   23.7760 O   0  0  0  0  0  0  0  0  0  0  0  0
  -22.7210  -29.5090   22.5820 C   0  0  0  0  0  0  0  0  0  0  0  0
  -21.3930  -29.3340   22.4570 N   0  0  0  0  0  0  0  0  0  0  0  0
  -23.3960  -28.8900   23.4080 O   0  0  0  0  0  0  0  0  0  0  0  0
  -20.9060  -29.8870   21.7660 H   0  0  0  0  0  0  0  0  0  0  0  0
  -18.0180  -28.1280   22.9580 C   0  0  0  0  0  0  0  0  0  0  0  0
  -20.5750  -28.4000   23.2320 C   0  0  0  0  0  3  0  0  0  0  0  0
  -20.6820  -26.9650   22.6670 C   0  0  0  0  0  2  0  0  0  0  0  0
  -19.5840  -26.6290   21.6530 C   0  0  0  0  0  2  0  0  0  0  0  0
  -18.2010  -26.7750   22.2910 C   0  0  0  0  0  2  0  0  0  0  0  0
  -19.1320  -28.8980   23.3850 C   0  0  0  0  0  0  0  0  0  0  0  0
  -18.9030  -30.1640   23.9680 C   0  0  0  0  0  3  0  0  0  0  0  0
  -17.5960  -30.6580   24.1270 C   0  0  0  0  0  3  0  0  0  0  0  0
  -16.4970  -29.8850   23.7150 C   0  0  0  0  0  3  0  0  0  0  0  0
  -16.7100  -28.6220   23.1360 C   0  0  0  0  0  3  0  0  0  0  0  0
  -25.8830  -32.5490   23.8670 C   0  0  0  0  0  3  0  0  0  0  0  0
  -26.4010  -31.7780   25.1430 C   0  0  1  0  0  0  0  0  0  0  0  0
  -25.3100  -31.5440   26.2150 C   0  0  0  0  0  1  0  0  0  0  0  0
  -26.9810  -30.3990   24.7510 C   0  0  0  0  0  1  0  0  0  0  0  0
  -27.5530  -32.5720   25.8030 C   0  0  0  0  0  1  0  0  0  0  0  0
  -25.5720  -33.9470   24.2060 N   0  0  0  0  0  0  0  0  0  0  0  0
  -25.8850  -35.0050   23.4440 C   0  0  0  0  0  0  0  0  0  0  0  0
  -26.5310  -34.9050   22.3970 O   0  0  0  0  0  0  0  0  0  0  0  0
  -24.9960  -34.0960   25.0210 H   0  0  0  0  0  0  0  0  0  0  0  0
  -24.1370  -36.7880   23.1410 C   0  0  0  0  0  1  0  0  0  0  0  0
  -25.4040  -36.3910   23.9150 C   0  0  0  0  0  3  0  0  0  0  0  0
  -27.5570  -37.2910   24.6850 C   0  0  0  0  0  1  0  0  0  0  0  0
  -26.4280  -37.4490   23.7720 N   0  0  0  0  0  0  0  0  0  0  0  0
  -26.0210  -38.3680   23.9250 H   0  0  0  0  0  0  0  0  0  0  0  0
  2  1  1  0
  3  5  2  0
  3  6  1  0
  4  9  1  0
  4  1  2  0
  5  4  1  0
  6  2  2  0
  7  8  1  0
  7  5  1  0
  8  9  1  0
  9 10  1  0
 10 12  1  0
 11 10  1  0
 13 10  1  0
 13 14  2  0
 15 14  1  0
 16 21  1  0
 17 18  1  0
 17 16  1  0
 19 18  1  0
 19 26  1  0
 19 20  1  0
 21 15  1  0
 21 20  1  0
 22 15  2  0
 23 24  2  0
 24 43  1  0
 25 24  1  0
 25 28  1  0
 26 23  1  0
 26 27  1  0
 27 25  2  0
 28 29  1  0
 29 30  2  0
 31 34  1  0
 31 30  1  0
 32 31  2  0
 33 32  1  0
 33 28  2  0
 34 35  1  0
 35 36  1  0
 36 37  2  0
 38 37  1  0
 38 42  1  0
 39 38  2  0
 40 35  2  0
 40 39  1  0
 41 40  1  0
 43 44  1  0
 44 47  1  0
 44 46  1  0
 45 43  2  0
 48 49  1  0
 48 23  1  0
 50 48  1  0
 51  6  1  0
 51 53  1  0
 52 63  2  0
 53 58  1  0
 54 62  1  0
 54 64  1  0
 55 61  1  0
 55 57  1  0
 56 62  1  0
 57 58  2  0
 57 56  1  0
 59 53  2  0
 60 59  1  0
 60 55  2  0
 61 54  1  0
 62 52  1  0
 64 66  2  0
 65 64  1  0
 67 65  1  0
 68 77  2  0
 68 73  1  0
 69 65  1  0
 69 73  1  0
 70 69  1  0
 71 72  1  0
 71 70  1  0
 72 68  1  0
 73 74  2  0
 74 75  1  0
 76 75  2  0
 77 76  1  0
 78 52  1  0
 78 83  1  0
 78 79  1  0
 79 82  1  1
 79 80  1  0
 81 79  1  0
 83 86  1  0
 84 88  1  0
 84 83  1  0
 85 84  2  0
 88 87  1  0
 90 88  1  0
 90 91  1  0
 90 89  1  0
M  ISO  4   6 101  14 100  15 100  51 101
M  END
>  <TORSDO>  (43) 
F 19

>  <SCORE>  (43) 
-14.360

>  <name>  (43) 
42

>  <ligand_id>  (43) 
42

>  <original_smiles>  (43) 
[H]c1c([H])c([H])c2c(c1[H])C([H])([H])C([H])([H])C([H])([H])C2([H])N([H])C(=O)C1([H])N(C(=O)C([H])(N([H])C(=O)C([H])(N([H])C([H])([H])[H])C([H])([H])[H])C(C([H])([H])[H])(C([H])([H])[H])C([H])([H])[H])C([H])([H])c2c([H])c(Oc3c([H])c([H])c4c(c3[H])C([H])([H])C([H])([H])C4([H])[N+]([H])([H])C([H])([H])C([H])([H])C(=O)N3C([H])([H])C([H])([H])C([H])([H])C([H])(n4nc(-c5c([H])c([H])c(Oc6c([H])c([H])c(F)c([H])c6F)c([H])c5[H])c(C(=O)N([H])[H])c4N([H])[H])C3([H])[H])c([H])c([H])c2C1([H])[H]

>  <smiles>  (43) 
[H]c1c([H])c([H])c2c(c1[H])C([H])([H])C([H])([H])C([H])([H])C2([H])N([H])C(=O)C1([H])N(C(=O)C([H])(N([H])C(=O)C([H])(N([H])C([H])([H])[H])C([H])([H])[H])C(C([H])([H])[H])(C([H])([H])[H])C([H])([H])[H])C([H])([H])c2c([H])c(Oc3c([H])c([H])c4c(c3[H])C([H])([H])C([H])([H])C4([H])[N+]([H])([H])C([H])([H])C([H])([H])C(=O)N3C([H])([H])C([H])([H])C([H])([H])C([H])(n4nc(-c5c([H])c([H])c(Oc6c([H])c([H])c(F)c([H])c6F)c([H])c5[H])c(C(=O)N([H])[H])c4N([H])[H])C3([H])[H])c([H])c([H])c2C1([H])[H]

$$$$
43:0:0
     RDKit          3D

 93101  0  0  1  0  0  0  0  0999 V2000
  -29.6220  -23.8520   21.9930 C   0  0  0  0  0  3  0  0  0  0  0  0
  -27.9210  -25.4380   21.2670 C   0  0  0  0  0  3  0  0  0  0  0  0
  -29.2630  -22.9880   20.9420 C   0  0  0  0  0  3  0  0  0  0  0  0
  -27.5690  -24.5760   20.2120 C   0  0  0  0  0  3  0  0  0  0  0  0
  -28.9430  -25.0740   22.1650 C   0  0  0  0  0  0  0  0  0  0  0  0
  -28.2260  -23.3310   20.0530 C   0  0  0  0  0  0  0  0  0  0  0  0
  -27.9100  -22.4240   19.0700 O   0  0  0  0  0  0  0  0  0  0  0  0
  -23.5420  -25.9890   14.7620 C   0  0  0  0  0  0  0  0  0  0  0  0
  -26.6820  -22.4790   18.4660 C   0  0  0  0  0  0  0  0  0  0  0  0
  -22.5330  -24.0850   15.9800 C   0  0  0  0  0  3  0  0  0  0  0  0
  -24.1750  -22.5540   17.1900 C   0  0  0  0  0  0  0  0  0  0  0  0
  -25.0250  -24.1030   15.4170 C   0  0  0  0  0  2  0  0  0  0  0  0
  -25.2490  -23.2870   16.6690 C   0  0  0  0  0  0  0  0  0  0  0  0
  -26.5060  -23.2560   17.3050 C   0  0  0  0  0  3  0  0  0  0  0  0
  -25.5980  -21.7450   18.9900 C   0  0  0  0  0  3  0  0  0  0  0  0
  -24.3410  -21.7840   18.3570 C   0  0  0  0  0  3  0  0  0  0  0  0
  -22.8670  -22.6390   16.4370 C   0  0  0  0  0  2  0  0  0  0  0  0
  -23.7150  -24.7880   15.3810 N   0  0  0  0  0  0  0  0  0  0  0  0
  -22.4170  -26.4960   14.6490 O   0  0  0  0  0  0  0  0  0  0  0  0
  -21.9110  -24.8440   17.1730 C   0  0  0  0  0  0  0  0  0  0  0  0
  -20.6310  -24.5590   17.4600 N   0  0  0  0  0  0  0  0  0  0  0  0
  -22.5810  -25.6420   17.8350 O   0  0  0  0  0  0  0  0  0  0  0  0
  -20.1490  -23.8980   16.8660 H   0  0  0  0  0  0  0  0  0  0  0  0
  -17.4090  -24.4540   19.0870 C   0  0  0  0  0  0  0  0  0  0  0  0
  -19.8500  -25.1210   18.5600 C   0  0  0  0  0  3  0  0  0  0  0  0
  -20.2180  -24.4500   19.9040 C   0  0  0  0  0  2  0  0  0  0  0  0
  -19.3150  -23.2610   20.2490 C   0  0  0  0  0  2  0  0  0  0  0  0
  -17.8510  -23.7020   20.3300 C   0  0  0  0  0  2  0  0  0  0  0  0
  -18.3490  -25.1070   18.2470 C   0  0  0  0  0  0  0  0  0  0  0  0
  -17.8900  -25.7590   17.0810 C   0  0  0  0  0  3  0  0  0  0  0  0
  -16.5200  -25.7710   16.7550 C   0  0  0  0  0  3  0  0  0  0  0  0
  -15.5920  -25.1370   17.6000 C   0  0  0  0  0  3  0  0  0  0  0  0
  -16.0360  -24.4840   18.7640 C   0  0  0  0  0  3  0  0  0  0  0  0
  -24.7440  -26.7760   14.1500 C   0  0  0  0  0  3  0  0  0  0  0  0
  -24.2700  -27.4210   12.9190 N   0  0  0  0  0  0  0  0  0  0  0  0
  -24.4650  -26.9370   11.6850 C   0  0  0  0  0  0  0  0  0  0  0  0
  -25.1370  -25.9260   11.4600 O   0  0  0  0  0  0  0  0  0  0  0  0
  -23.6690  -28.2240   13.0300 H   0  0  0  0  0  0  0  0  0  0  0  0
  -22.5230  -26.9760   10.0910 C   0  0  0  0  0  1  0  0  0  0  0  0
  -23.8140  -27.6960   10.5140 C   0  0  0  0  0  3  0  0  0  0  0  0
  -25.8360  -28.7410    9.5960 C   0  0  0  0  0  1  0  0  0  0  0  0
  -24.7040  -27.8530    9.3440 N   0  0  0  0  0  0  0  0  0  0  0  0
  -24.1880  -28.2120    8.5460 H   0  0  0  0  0  0  0  0  0  0  0  0
  -25.3580  -27.8420   15.1380 C   0  0  1  0  0  0  0  0  0  0  0  0
  -24.3060  -28.7890   15.7570 C   0  0  0  0  0  1  0  0  0  0  0  0
  -26.1070  -27.1420   16.2960 C   0  0  0  0  0  1  0  0  0  0  0  0
  -26.4030  -28.7060   14.3930 C   0  0  0  0  0  1  0  0  0  0  0  0
  -29.2690  -25.9620   23.3480 C   0  0  0  0  0  2  0  0  0  0  0  0
  -28.1170  -25.9410   24.3580 C   0  0  0  0  0  2  0  0  0  0  0  0
  -27.9180  -27.2680   25.1040 C   0  0  0  0  0  2  0  0  0  0  0  0
  -26.9320  -27.0940   26.2570 C   0  0  0  0  0  0  0  0  0  0  0  0
  -27.3950  -27.3530   27.4820 N   0  0  0  0  0  0  0  0  0  0  0  0
  -25.7830  -26.7040   26.0450 O   0  0  0  0  0  0  0  0  0  0  0  0
  -28.3580  -27.6560   27.5620 H   0  0  0  0  0  0  0  0  0  0  0  0
  -26.6650  -27.1400   28.7280 C   0  0  0  0  0  2  0  0  0  0  0  0
  -28.7980  -28.2200   29.6860 C   0  0  0  0  0  1  0  0  0  0  0  0
  -27.2980  -27.9060   29.9140 C   0  0  0  0  0  3  0  0  0  0  0  0
  -27.1230  -27.0940   31.2140 C   0  0  0  0  0  0  0  0  0  0  0  0
  -26.3890  -26.8810   33.5600 C   0  0  0  0  0  2  0  0  0  0  0  0
  -24.9760  -26.2790   33.6660 C   0  0  0  0  0  2  0  0  0  0  0  0
  -23.9090  -27.3840   33.5740 C   0  0  0  0  0  2  0  0  0  0  0  0
  -24.1350  -28.3280   32.3650 C   0  0  0  0  0  3  0  0  0  0  0  0
  -25.6040  -28.8030   32.2890 C   0  0  0  0  0  2  0  0  0  0  0  0
  -26.4840  -27.6200   32.2920 N   0  0  0  0  0  0  0  0  0  0  0  0
  -27.6250  -25.9640   31.2400 O   0  0  0  0  0  0  0  0  0  0  0  0
  -22.2620  -29.8390   31.4470 C   0  0  0  0  0  0  0  0  0  0  0  0
  -21.6070  -30.9150   31.9830 C   0  0  0  0  0  0  0  0  0  0  0  0
  -22.1880  -31.1240   33.2710 C   0  0  0  0  0  0  0  0  0  0  0  0
  -23.2020  -29.4530   32.3910 N   0  0  0  0  0  0  0  0  0  0  0  0
  -23.1820  -30.2690   33.4760 N   0  0  0  0  0  0  0  0  0  0  0  0
  -21.8160  -32.0520   34.3460 C   0  0  0  0  0  0  0  0  0  0  0  0
  -22.7790  -32.8540   34.9970 C   0  0  0  0  0  3  0  0  0  0  0  0
  -22.3940  -33.7490   36.0170 C   0  0  0  0  0  3  0  0  0  0  0  0
  -21.0340  -33.8570   36.3920 C   0  0  0  0  0  0  0  0  0  0  0  0
  -20.0830  -33.0410   35.7550 C   0  0  0  0  0  3  0  0  0  0  0  0
  -20.4680  -32.1450   34.7430 C   0  0  0  0  0  3  0  0  0  0  0  0
  -20.5710  -34.6820   37.3880 O   0  0  0  0  0  0  0  0  0  0  0  0
  -21.2750  -35.7890   37.7920 C   0  0  0  0  0  0  0  0  0  0  0  0
  -21.6710  -36.7950   36.8840 C   0  0  0  0  0  3  0  0  0  0  0  0
  -22.3310  -37.9470   37.3530 C   0  0  0  0  0  3  0  0  0  0  0  0
  -22.5900  -38.1020   38.7280 C   0  0  0  0  0  0  0  0  0  0  0  0
  -22.1910  -37.1040   39.6350 C   0  0  0  0  0  3  0  0  0  0  0  0
  -21.5330  -35.9530   39.1680 C   0  0  0  0  0  0  0  0  0  0  0  0
  -21.1340  -35.0050   40.0500 F   0  0  0  0  0  0  0  0  0  0  0  0
  -23.2180  -39.2120   39.1790 F   0  0  0  0  0  0  0  0  0  0  0  0
  -20.4390  -31.6440   31.3820 C   0  0  0  0  0  0  0  0  0  0  0  0
  -20.3070  -32.9350   31.6640 N   0  0  0  0  0  0  0  0  0  0  0  0
  -19.6620  -31.0820   30.6130 O   0  0  0  0  0  0  0  0  0  0  0  0
  -20.9540  -33.4080   32.2780 H   0  0  0  0  0  0  0  0  0  0  0  0
  -19.5460  -33.4610   31.2570 H   0  0  0  0  0  0  0  0  0  0  0  0
  -22.1200  -29.1500   30.2470 N   0  0  0  0  0  0  0  0  0  0  0  0
  -21.3870  -29.3750   29.5830 H   0  0  0  0  0  0  0  0  0  0  0  0
  -22.6370  -28.3180   29.9920 H   0  0  0  0  0  0  0  0  0  0  0  0
  1  5  1  0
  2  5  2  0
  3  1  2  0
  4  2  1  0
  5 48  1  0
  6  4  2  0
  6  3  1  0
  7  6  1  0
  8 18  1  0
  9 15  1  0
  9  7  1  0
 10 17  1  0
 10 20  1  0
 11 16  1  0
 12 13  1  0
 13 11  2  0
 13 14  1  0
 14  9  2  0
 16 15  2  0
 17 11  1  0
 18 12  1  0
 18 10  1  0
 19  8  2  0
 20 21  1  0
 20 22  2  0
 23 21  1  0
 24 28  1  0
 25 21  1  0
 25 26  1  0
 26 27  1  0
 27 28  1  0
 29 25  1  0
 29 24  2  0
 30 29  1  0
 31 30  2  0
 31 32  1  0
 32 33  2  0
 33 24  1  0
 34  8  1  0
 34 44  1  0
 35 38  1  0
 35 34  1  0
 36 35  1  0
 37 36  2  0
 40 39  1  0
 40 36  1  0
 42 41  1  0
 42 40  1  0
 43 42  1  0
 44 45  1  1
 44 46  1  0
 47 44  1  0
 48 49  1  0
 49 50  1  0
 50 51  1  0
 51 52  1  0
 52 54  1  0
 52 55  1  0
 53 51  2  0
 55 57  1  0
 57 56  1  0
 57 58  1  0
 58 65  2  0
 58 64  1  0
 59 60  1  0
 61 60  1  0
 62 63  1  0
 62 69  1  0
 62 61  1  0
 63 64  1  0
 64 59  1  0
 66 67  2  0
 66 69  1  0
 67 68  1  0
 68 70  2  0
 68 71  1  0
 69 70  1  0
 71 76  2  0
 71 72  1  0
 72 73  2  0
 73 74  1  0
 74 77  1  0
 75 74  2  0
 76 75  1  0
 77 78  1  0
 78 83  1  0
 79 80  1  0
 79 78  2  0
 80 81  2  0
 81 85  1  0
 81 82  1  0
 83 82  2  0
 83 84  1  0
 86 87  1  0
 86 67  1  0
 87 89  1  0
 88 86  2  0
 90 87  1  0
 91 66  1  0
 92 91  1  0
 93 91  1  0
M  ISO  4   6 101   7 101  57 100  58 100
M  END
>  <TORSDO>  (44) 
F 22

>  <SCORE>  (44) 
-3.223

>  <name>  (44) 
43

>  <ligand_id>  (44) 
43

>  <original_smiles>  (44) 
[H]c1c([H])c([H])c2c(c1[H])C([H])([H])C([H])([H])C([H])([H])C2([H])N([H])C(=O)C1([H])N(C(=O)C([H])(N([H])C(=O)C([H])(N([H])C([H])([H])[H])C([H])([H])[H])C(C([H])([H])[H])(C([H])([H])[H])C([H])([H])[H])C([H])([H])c2c([H])c(Oc3c([H])c([H])c(C([H])([H])C([H])([H])C([H])([H])C(=O)N([H])C([H])([H])C([H])(C(=O)N4C([H])([H])C([H])([H])C([H])([H])C([H])(n5nc(-c6c([H])c([H])c(Oc7c([H])c([H])c(F)c([H])c7F)c([H])c6[H])c(C(=O)N([H])[H])c5N([H])[H])C4([H])[H])C([H])([H])[H])c([H])c3[H])c([H])c([H])c2C1([H])[H]

>  <smiles>  (44) 
[H]c1c([H])c([H])c2c(c1[H])C([H])([H])C([H])([H])C([H])([H])C2([H])N([H])C(=O)C1([H])N(C(=O)C([H])(N([H])C(=O)C([H])(N([H])C([H])([H])[H])C([H])([H])[H])C(C([H])([H])[H])(C([H])([H])[H])C([H])([H])[H])C([H])([H])c2c([H])c(Oc3c([H])c([H])c(C([H])([H])C([H])([H])C([H])([H])C(=O)N([H])C([H])([H])C([H])(C(=O)N4C([H])([H])C([H])([H])C([H])([H])C([H])(n5nc(-c6c([H])c([H])c(Oc7c([H])c([H])c(F)c([H])c7F)c([H])c6[H])c(C(=O)N([H])[H])c5N([H])[H])C4([H])[H])C([H])([H])[H])c([H])c3[H])c([H])c([H])c2C1([H])[H]

$$$$
44:0:0
     RDKit          3D

 92101  0  0  1  0  0  0  0  0999 V2000
  -31.1570  -22.5580   20.0100 C   0  0  0  0  0  3  0  0  0  0  0  0
  -30.3890  -24.8650   19.7390 C   0  0  0  0  0  3  0  0  0  0  0  0
  -28.7840  -23.0640   20.0630 C   0  0  0  0  0  3  0  0  0  0  0  0
  -31.4460  -23.9280   19.8150 C   0  0  0  0  0  0  0  0  0  0  0  0
  -29.8260  -22.1090   20.1370 C   0  0  0  0  0  0  0  0  0  0  0  0
  -29.0510  -24.4400   19.8660 C   0  0  0  0  0  0  0  0  0  0  0  0
  -33.7560  -24.5410   20.8780 C   0  0  0  0  0  2  0  0  0  0  0  0
  -33.3210  -25.7500   20.0810 C   0  0  0  0  0  2  0  0  0  0  0  0
  -32.8690  -24.3700   19.6660 C   0  0  0  0  0  3  0  0  0  0  0  0
  -29.4710  -20.6240   20.3060 C   0  0  0  0  0  2  0  0  0  0  0  0
  -30.5410  -19.7160   20.9650 C   0  0  0  0  0  2  0  0  0  0  0  0
  -30.1660  -18.2090   20.9450 C   0  0  0  0  0  2  0  0  0  0  0  0
  -31.1430  -17.3080   21.7430 C   0  0  0  0  0  2  0  0  0  0  0  0
  -30.7090  -15.8160   21.8920 C   0  0  0  0  0  2  0  0  0  0  0  0
  -31.2980  -14.7980   20.8870 C   0  0  0  0  0  0  0  0  0  0  0  0
  -30.9930  -12.7740   19.4870 C   0  0  0  0  0  2  0  0  0  0  0  0
  -30.0880  -13.1000   18.2820 C   0  0  0  0  0  2  0  0  0  0  0  0
  -28.5980  -12.9570   18.6540 C   0  0  0  0  0  2  0  0  0  0  0  0
  -28.2400  -13.6830   19.9790 C   0  0  0  0  0  3  0  0  0  0  0  0
  -29.2580  -13.3350   21.0890 C   0  0  0  0  0  2  0  0  0  0  0  0
  -30.6030  -13.6640   20.5920 N   0  0  0  0  0  0  0  0  0  0  0  0
  -32.3840  -15.0510   20.3550 O   0  0  0  0  0  0  0  0  0  0  0  0
  -25.8060  -14.2750   20.5790 C   0  0  0  0  0  0  0  0  0  0  0  0
  -24.7240  -13.4970   20.8870 C   0  0  0  0  0  0  0  0  0  0  0  0
  -25.1890  -12.1460   20.8590 C   0  0  0  0  0  0  0  0  0  0  0  0
  -26.8650  -13.4000   20.3880 N   0  0  0  0  0  0  0  0  0  0  0  0
  -26.4920  -12.1130   20.6090 N   0  0  0  0  0  0  0  0  0  0  0  0
  -24.4570  -10.8800   20.9990 C   0  0  0  0  0  0  0  0  0  0  0  0
  -24.8500   -9.9000   21.9360 C   0  0  0  0  0  3  0  0  0  0  0  0
  -24.1210   -8.6990   22.0660 C   0  0  0  0  0  3  0  0  0  0  0  0
  -22.9820   -8.4690   21.2570 C   0  0  0  0  0  0  0  0  0  0  0  0
  -22.6080   -9.4380   20.3080 C   0  0  0  0  0  3  0  0  0  0  0  0
  -23.3390  -10.6310   20.1770 C   0  0  0  0  0  3  0  0  0  0  0  0
  -22.2280   -7.3210   21.2950 O   0  0  0  0  0  0  0  0  0  0  0  0
  -22.1060   -6.5780   22.4420 C   0  0  0  0  0  0  0  0  0  0  0  0
  -21.6090   -7.1330   23.6410 C   0  0  0  0  0  3  0  0  0  0  0  0
  -21.4350   -6.3160   24.7760 C   0  0  0  0  0  3  0  0  0  0  0  0
  -21.7490   -4.9450   24.7110 C   0  0  0  0  0  0  0  0  0  0  0  0
  -22.2400   -4.3900   23.5170 C   0  0  0  0  0  3  0  0  0  0  0  0
  -22.4150   -5.2040   22.3840 C   0  0  0  0  0  0  0  0  0  0  0  0
  -22.8680   -4.6600   21.2290 F   0  0  0  0  0  0  0  0  0  0  0  0
  -21.5750   -4.1580   25.7990 F   0  0  0  0  0  0  0  0  0  0  0  0
  -23.3150  -13.9680   21.1060 C   0  0  0  0  0  0  0  0  0  0  0  0
  -22.5570  -13.2650   21.9410 N   0  0  0  0  0  0  0  0  0  0  0  0
  -22.8920  -14.9910   20.5700 O   0  0  0  0  0  0  0  0  0  0  0  0
  -22.9140  -12.4390   22.3980 H   0  0  0  0  0  0  0  0  0  0  0  0
  -21.6080  -13.5560   22.1290 H   0  0  0  0  0  0  0  0  0  0  0  0
  -25.9760  -15.6480   20.4260 N   0  0  0  0  0  0  0  0  0  0  0  0
  -25.2070  -16.3040   20.5090 H   0  0  0  0  0  0  0  0  0  0  0  0
  -26.8480  -16.0930   20.1640 H   0  0  0  0  0  0  0  0  0  0  0  0
  -27.8690  -25.4060   19.8000 C   0  0  0  0  0  2  0  0  0  0  0  0
  -28.1390  -26.8200   19.9080 O   0  0  0  0  0  0  0  0  0  0  0  0
  -24.8040  -31.9930   23.5370 C   0  0  0  0  0  0  0  0  0  0  0  0
  -27.0210  -27.6450   19.9890 C   0  0  0  0  0  0  0  0  0  0  0  0
  -23.4370  -30.7830   21.8730 C   0  0  0  0  0  3  0  0  0  0  0  0
  -24.7220  -29.2930   20.2570 C   0  0  0  0  0  0  0  0  0  0  0  0
  -25.9710  -31.0160   21.5620 C   0  0  0  0  0  2  0  0  0  0  0  0
  -25.9410  -29.6990   20.8100 C   0  0  0  0  0  0  0  0  0  0  0  0
  -27.0950  -28.8830   20.6730 C   0  0  0  0  0  3  0  0  0  0  0  0
  -25.7750  -27.2730   19.4220 C   0  0  0  0  0  3  0  0  0  0  0  0
  -24.6340  -28.0780   19.5600 C   0  0  0  0  0  3  0  0  0  0  0  0
  -23.5320  -30.2070   20.4380 C   0  0  0  0  0  2  0  0  0  0  0  0
  -24.7590  -31.2750   22.3800 N   0  0  0  0  0  0  0  0  0  0  0  0
  -23.7690  -32.2830   24.1540 O   0  0  0  0  0  0  0  0  0  0  0  0
  -22.7820  -29.7260   22.7920 C   0  0  0  0  0  0  0  0  0  0  0  0
  -21.4550  -29.5580   22.6610 N   0  0  0  0  0  0  0  0  0  0  0  0
  -23.4640  -29.0610   23.5770 O   0  0  0  0  0  0  0  0  0  0  0  0
  -20.9690  -30.1450   22.0000 H   0  0  0  0  0  0  0  0  0  0  0  0
  -18.0910  -28.2930   23.0430 C   0  0  0  0  0  0  0  0  0  0  0  0
  -20.6340  -28.5960   23.3950 C   0  0  0  0  0  3  0  0  0  0  0  0
  -20.7810  -27.1750   22.8050 C   0  0  0  0  0  2  0  0  0  0  0  0
  -19.7160  -26.8430   21.7550 C   0  0  0  0  0  2  0  0  0  0  0  0
  -18.3130  -26.9550   22.3580 C   0  0  0  0  0  2  0  0  0  0  0  0
  -19.1810  -29.0710   23.5150 C   0  0  0  0  0  0  0  0  0  0  0  0
  -18.9220  -30.3240   24.1130 C   0  0  0  0  0  3  0  0  0  0  0  0
  -17.6030  -30.7990   24.2450 C   0  0  0  0  0  3  0  0  0  0  0  0
  -16.5270  -30.0180   23.7890 C   0  0  0  0  0  3  0  0  0  0  0  0
  -16.7710  -28.7680   23.1950 C   0  0  0  0  0  3  0  0  0  0  0  0
  -26.1550  -32.5100   24.1250 C   0  0  0  0  0  3  0  0  0  0  0  0
  -25.9270  -33.8740   24.6170 N   0  0  0  0  0  0  0  0  0  0  0  0
  -26.2880  -34.9880   23.9660 C   0  0  0  0  0  0  0  0  0  0  0  0
  -26.9190  -34.9700   22.9060 O   0  0  0  0  0  0  0  0  0  0  0  0
  -25.3640  -33.9660   25.4500 H   0  0  0  0  0  0  0  0  0  0  0  0
  -24.6500  -36.8930   23.8630 C   0  0  0  0  0  1  0  0  0  0  0  0
  -25.8850  -36.3380   24.5910 C   0  0  0  0  0  3  0  0  0  0  0  0
  -28.0790  -37.0110   25.4620 C   0  0  0  0  0  1  0  0  0  0  0  0
  -26.9700  -37.3420   24.5710 N   0  0  0  0  0  0  0  0  0  0  0  0
  -26.6180  -38.2600   24.8300 H   0  0  0  0  0  0  0  0  0  0  0  0
  -26.7240  -31.5880   25.2710 C   0  0  1  0  0  0  0  0  0  0  0  0
  -25.6980  -31.2740   26.3850 C   0  0  0  0  0  1  0  0  0  0  0  0
  -27.2210  -30.2400   24.6970 C   0  0  0  0  0  1  0  0  0  0  0  0
  -27.9500  -32.2660   25.9260 C   0  0  0  0  0  1  0  0  0  0  0  0
  1  5  1  0
  2  4  1  0
  2  6  2  0
  3  5  2  0
  4  1  2  0
  5 10  1  0
  6  3  1  0
  8  7  1  0
  9  4  1  0
  9  8  1  0
  9  7  1  0
 10 11  1  0
 12 11  1  0
 12 13  1  0
 13 14  1  0
 15 14  1  0
 16 21  1  0
 17 18  1  0
 17 16  1  0
 19 18  1  0
 19 26  1  0
 19 20  1  0
 21 15  1  0
 21 20  1  0
 22 15  2  0
 23 24  2  0
 24 43  1  0
 25 24  1  0
 25 28  1  0
 26 23  1  0
 26 27  1  0
 27 25  2  0
 28 29  1  0
 29 30  2  0
 31 34  1  0
 31 30  1  0
 32 31  2  0
 33 32  1  0
 33 28  2  0
 34 35  1  0
 35 36  1  0
 36 37  2  0
 38 37  1  0
 38 42  1  0
 39 38  2  0
 40 35  2  0
 40 39  1  0
 41 40  1  0
 43 44  1  0
 44 47  1  0
 44 46  1  0
 45 43  2  0
 48 49  1  0
 48 23  1  0
 50 48  1  0
 51  6  1  0
 51 52  1  0
 52 54  1  0
 53 64  2  0
 54 59  1  0
 55 63  1  0
 55 65  1  0
 56 62  1  0
 56 58  1  0
 57 63  1  0
 58 57  1  0
 59 58  2  0
 60 61  1  0
 60 54  2  0
 61 56  2  0
 62 55  1  0
 63 53  1  0
 65 67  2  0
 66 65  1  0
 68 66  1  0
 69 78  2  0
 69 74  1  0
 70 66  1  0
 70 74  1  0
 71 70  1  0
 72 73  1  0
 72 71  1  0
 73 69  1  0
 74 75  2  0
 75 76  1  0
 77 76  2  0
 78 77  1  0
 79 53  1  0
 79 80  1  0
 79 89  1  0
 80 83  1  0
 81 85  1  0
 81 80  1  0
 82 81  2  0
 85 84  1  0
 87 85  1  0
 87 88  1  0
 87 86  1  0
 89 92  1  1
 89 90  1  0
 91 89  1  0
M  ISO  4  14 100  15 100  51 101  52 101
M  END
>  <TORSDO>  (45) 
F 23

>  <SCORE>  (45) 
-10.869

>  <name>  (45) 
44

>  <ligand_id>  (45) 
44

>  <original_smiles>  (45) 
[H]c1c([H])c([H])c2c(c1[H])C([H])([H])C([H])([H])C([H])([H])C2([H])N([H])C(=O)C1([H])N(C(=O)C([H])(N([H])C(=O)C([H])(N([H])C([H])([H])[H])C([H])([H])[H])C(C([H])([H])[H])(C([H])([H])[H])C([H])([H])[H])C([H])([H])c2c([H])c(OC([H])([H])c3c([H])c(C([H])([H])C([H])([H])C([H])([H])C([H])([H])C([H])([H])C(=O)N4C([H])([H])C([H])([H])C([H])([H])C([H])(n5nc(-c6c([H])c([H])c(Oc7c([H])c([H])c(F)c([H])c7F)c([H])c6[H])c(C(=O)N([H])[H])c5N([H])[H])C4([H])[H])c([H])c(C4([H])C([H])([H])C4([H])[H])c3[H])c([H])c([H])c2C1([H])[H]

>  <smiles>  (45) 
[H]c1c([H])c([H])c2c(c1[H])C([H])([H])C([H])([H])C([H])([H])C2([H])N([H])C(=O)C1([H])N(C(=O)C([H])(N([H])C(=O)C([H])(N([H])C([H])([H])[H])C([H])([H])[H])C(C([H])([H])[H])(C([H])([H])[H])C([H])([H])[H])C([H])([H])c2c([H])c(OC([H])([H])c3c([H])c(C([H])([H])C([H])([H])C([H])([H])C([H])([H])C([H])([H])C(=O)N4C([H])([H])C([H])([H])C([H])([H])C([H])(n5nc(-c6c([H])c([H])c(Oc7c([H])c([H])c(F)c([H])c7F)c([H])c6[H])c(C(=O)N([H])[H])c5N([H])[H])C4([H])[H])c([H])c(C4([H])C([H])([H])C4([H])[H])c3[H])c([H])c([H])c2C1([H])[H]

$$$$
45:0:0
     RDKit          3D

 92100  0  0  1  0  0  0  0  0999 V2000
  -29.0300  -21.0890   20.7120 C   0  0  0  0  0  3  0  0  0  0  0  0
  -28.3440  -22.2420   18.7180 C   0  0  0  0  0  3  0  0  0  0  0  0
  -29.2100  -19.6600   20.0800 C   0  0  0  0  0  0  0  0  0  0  0  0
  -28.5760  -22.4600   20.0890 C   0  0  0  0  0  0  0  0  0  0  0  0
  -28.4490  -20.9780   18.0650 C   0  0  0  0  0  0  0  0  0  0  0  0
  -28.8450  -19.7490   18.6990 C   0  0  0  0  0  0  0  0  0  0  0  0
  -28.1030  -20.9720   16.5780 C   0  0  0  0  0  1  0  0  0  0  0  0
  -30.4160  -15.4210   20.4970 C   0  0  0  0  0  0  0  0  0  0  0  0
  -30.4870  -12.9320   19.6520 C   0  0  0  0  0  2  0  0  0  0  0  0
  -29.6240  -12.6140   18.4040 C   0  0  0  0  0  2  0  0  0  0  0  0
  -28.1690  -12.3090   18.8050 C   0  0  0  0  0  2  0  0  0  0  0  0
  -27.6440  -13.3060   19.8690 C   0  0  0  0  0  3  0  0  0  0  0  0
  -28.6450  -13.5460   21.0160 C   0  0  0  0  0  2  0  0  0  0  0  0
  -29.8610  -14.0980   20.3910 N   0  0  0  0  0  0  0  0  0  0  0  0
  -31.6550  -15.3710   20.4470 O   0  0  0  0  0  0  0  0  0  0  0  0
  -29.9090  -18.1980   20.6610 C   0  0  0  0  0  0  0  0  0  0  0  0
  -29.6620  -16.7300   20.3960 N   0  0  0  0  0  0  0  0  0  0  0  0
  -30.8220  -18.4280   21.4580 O   0  0  0  0  0  0  0  0  0  0  0  0
  -28.7320  -16.5850   20.0380 H   0  0  0  0  0  0  0  0  0  0  0  0
  -25.2500  -13.8500   20.5400 C   0  0  0  0  0  0  0  0  0  0  0  0
  -24.1810  -13.0690   20.8750 C   0  0  0  0  0  0  0  0  0  0  0  0
  -24.6590  -11.7230   20.8810 C   0  0  0  0  0  0  0  0  0  0  0  0
  -26.3070  -12.9800   20.3440 N   0  0  0  0  0  0  0  0  0  0  0  0
  -25.9620  -11.6950   20.6200 N   0  0  0  0  0  0  0  0  0  0  0  0
  -23.9320  -10.4580   21.0590 C   0  0  0  0  0  0  0  0  0  0  0  0
  -24.3330   -9.5020   22.0190 C   0  0  0  0  0  3  0  0  0  0  0  0
  -23.6020   -8.3070   22.1870 C   0  0  0  0  0  3  0  0  0  0  0  0
  -22.4560   -8.0580   21.3940 C   0  0  0  0  0  0  0  0  0  0  0  0
  -22.0770   -9.0020   20.4240 C   0  0  0  0  0  3  0  0  0  0  0  0
  -22.8080  -10.1880   20.2540 C   0  0  0  0  0  3  0  0  0  0  0  0
  -21.7030   -6.9120   21.4660 O   0  0  0  0  0  0  0  0  0  0  0  0
  -21.6130   -6.1830   22.6240 C   0  0  0  0  0  0  0  0  0  0  0  0
  -21.1310   -6.7480   23.8240 C   0  0  0  0  0  3  0  0  0  0  0  0
  -20.9870   -5.9450   24.9730 C   0  0  0  0  0  3  0  0  0  0  0  0
  -21.3170   -4.5780   24.9230 C   0  0  0  0  0  0  0  0  0  0  0  0
  -21.7960   -4.0110   23.7280 C   0  0  0  0  0  3  0  0  0  0  0  0
  -21.9400   -4.8130   22.5820 C   0  0  0  0  0  0  0  0  0  0  0  0
  -22.3800   -4.2580   21.4260 F   0  0  0  0  0  0  0  0  0  0  0  0
  -21.1740   -3.8040   26.0240 F   0  0  0  0  0  0  0  0  0  0  0  0
  -22.7700  -13.5400   21.0770 C   0  0  0  0  0  0  0  0  0  0  0  0
  -22.0080  -12.8560   21.9220 N   0  0  0  0  0  0  0  0  0  0  0  0
  -22.3520  -14.5560   20.5240 O   0  0  0  0  0  0  0  0  0  0  0  0
  -22.3560  -12.0400   22.4010 H   0  0  0  0  0  0  0  0  0  0  0  0
  -21.0610  -13.1620   22.0990 H   0  0  0  0  0  0  0  0  0  0  0  0
  -25.4030  -15.2220   20.3550 N   0  0  0  0  0  0  0  0  0  0  0  0
  -24.6180  -15.8600   20.4340 H   0  0  0  0  0  0  0  0  0  0  0  0
  -26.2450  -15.6740   20.0230 H   0  0  0  0  0  0  0  0  0  0  0  0
  -28.8910  -18.6170   17.8780 N   0  0  0  0  0  0  0  0  0  0  0  0
  -29.4690  -17.8240   18.1340 H   0  0  0  0  0  0  0  0  0  0  0  0
  -28.8770  -18.7620   16.8730 H   0  0  0  0  0  0  0  0  0  0  0  0
  -28.0630  -24.0740   20.6910 C   0  0  0  0  0  2  0  0  0  0  0  0
  -28.2300  -25.7000   20.2400 O   0  0  0  0  0  0  0  0  0  0  0  0
  -24.6440  -31.8300   23.1600 C   0  0  0  0  0  0  0  0  0  0  0  0
  -27.2260  -26.8360   20.2540 C   0  0  0  0  0  0  0  0  0  0  0  0
  -23.4730  -30.4140   21.5260 C   0  0  0  0  0  3  0  0  0  0  0  0
  -24.9380  -28.7740   20.1500 C   0  0  0  0  0  0  0  0  0  0  0  0
  -26.0470  -30.6000   21.4140 C   0  0  0  0  0  2  0  0  0  0  0  0
  -26.1240  -29.1700   20.7800 C   0  0  0  0  0  0  0  0  0  0  0  0
  -27.2630  -28.2280   20.7970 C   0  0  0  0  0  3  0  0  0  0  0  0
  -26.0060  -26.6120   19.5750 C   0  0  0  0  0  3  0  0  0  0  0  0
  -24.9100  -27.5160   19.5250 C   0  0  0  0  0  3  0  0  0  0  0  0
  -23.7220  -29.7060   20.1650 C   0  0  0  0  0  2  0  0  0  0  0  0
  -24.7440  -30.9790   22.0860 N   0  0  0  0  0  0  0  0  0  0  0  0
  -23.5460  -32.1270   23.6610 O   0  0  0  0  0  0  0  0  0  0  0  0
  -22.7610  -29.4340   22.4980 C   0  0  0  0  0  0  0  0  0  0  0  0
  -21.4280  -29.2860   22.3740 N   0  0  0  0  0  0  0  0  0  0  0  0
  -23.4170  -28.8080   23.3350 O   0  0  0  0  0  0  0  0  0  0  0  0
  -20.9510  -29.8400   21.6760 H   0  0  0  0  0  0  0  0  0  0  0  0
  -18.0300  -28.1260   22.9090 C   0  0  0  0  0  0  0  0  0  0  0  0
  -20.5960  -28.3590   23.1500 C   0  0  0  0  0  3  0  0  0  0  0  0
  -20.6720  -26.9270   22.5720 C   0  0  0  0  0  2  0  0  0  0  0  0
  -19.5570  -26.6210   21.5670 C   0  0  0  0  0  2  0  0  0  0  0  0
  -18.1820  -26.7780   22.2240 C   0  0  0  0  0  2  0  0  0  0  0  0
  -19.1620  -28.8750   23.3290 C   0  0  0  0  0  0  0  0  0  0  0  0
  -18.9610  -30.1330   23.9370 C   0  0  0  0  0  3  0  0  0  0  0  0
  -17.6630  -30.6450   24.1230 C   0  0  0  0  0  3  0  0  0  0  0  0
  -16.5460  -29.8950   23.7140 C   0  0  0  0  0  3  0  0  0  0  0  0
  -16.7310  -28.6370   23.1140 C   0  0  0  0  0  3  0  0  0  0  0  0
  -25.9040  -32.4850   23.8020 C   0  0  0  0  0  3  0  0  0  0  0  0
  -25.5720  -33.8840   24.1280 N   0  0  0  0  0  0  0  0  0  0  0  0
  -25.9150  -34.9490   23.3900 C   0  0  0  0  0  0  0  0  0  0  0  0
  -26.6050  -34.8570   22.3730 O   0  0  0  0  0  0  0  0  0  0  0  0
  -24.9550  -34.0300   24.9130 H   0  0  0  0  0  0  0  0  0  0  0  0
  -24.2000  -36.7580   23.0210 C   0  0  0  0  0  1  0  0  0  0  0  0
  -25.4200  -36.3370   23.8540 C   0  0  0  0  0  3  0  0  0  0  0  0
  -27.5330  -37.2170   24.7470 C   0  0  0  0  0  1  0  0  0  0  0  0
  -26.4570  -37.3900   23.7740 N   0  0  0  0  0  0  0  0  0  0  0  0
  -26.0480  -38.3100   23.9110 H   0  0  0  0  0  0  0  0  0  0  0  0
  -26.3960  -31.7330   25.1010 C   0  0  1  0  0  0  0  0  0  0  0  0
  -25.2830  -31.5110   26.1530 C   0  0  0  0  0  1  0  0  0  0  0  0
  -26.9890  -30.3500   24.7490 C   0  0  0  0  0  1  0  0  0  0  0  0
  -27.5320  -32.5400   25.7730 C   0  0  0  0  0  1  0  0  0  0  0  0
  2  4  2  0
  3 16  1  0
  3  1  2  0
  4 51  1  0
  4  1  1  0
  5  6  2  0
  5  2  1  0
  6  3  1  0
  7  5  1  0
  9 14  1  0
 10 11  1  0
 10  9  1  0
 12 11  1  0
 12 23  1  0
 12 13  1  0
 14  8  1  0
 14 13  1  0
 15  8  2  0
 16 18  2  0
 17  8  1  0
 17 16  1  0
 19 17  1  0
 20 21  2  0
 21 22  1  0
 21 40  1  0
 22 25  1  0
 23 20  1  0
 23 24  1  0
 24 22  2  0
 25 26  1  0
 26 27  2  0
 28 31  1  0
 28 27  1  0
 29 28  2  0
 30 29  1  0
 30 25  2  0
 31 32  1  0
 32 33  1  0
 33 34  2  0
 35 34  1  0
 35 39  1  0
 36 35  2  0
 37 32  2  0
 37 36  1  0
 38 37  1  0
 40 41  1  0
 41 44  1  0
 41 43  1  0
 42 40  2  0
 45 46  1  0
 45 20  1  0
 47 45  1  0
 48 49  1  0
 48  6  1  0
 50 48  1  0
 52 54  1  0
 52 51  1  0
 53 64  2  0
 54 59  1  0
 55 63  1  0
 55 65  1  0
 56 62  1  0
 56 58  1  0
 57 63  1  0
 58 59  2  0
 58 57  1  0
 60 54  2  0
 61 60  1  0
 61 56  2  0
 62 55  1  0
 63 53  1  0
 65 67  2  0
 66 65  1  0
 68 66  1  0
 69 78  2  0
 69 74  1  0
 70 66  1  0
 70 74  1  0
 71 70  1  0
 72 73  1  0
 72 71  1  0
 73 69  1  0
 74 75  2  0
 75 76  1  0
 77 76  2  0
 78 77  1  0
 79 53  1  0
 79 80  1  0
 79 89  1  0
 80 83  1  0
 81 85  1  0
 81 80  1  0
 82 81  2  0
 85 84  1  0
 87 85  1  0
 87 88  1  0
 87 86  1  0
 89 92  1  1
 89 90  1  0
 91 89  1  0
M  ISO  4   8 100  17 100  51 101  52 101
M  END
>  <TORSDO>  (46) 
F 18

>  <SCORE>  (46) 
-15.920

>  <name>  (46) 
45

>  <ligand_id>  (46) 
45

>  <original_smiles>  (46) 
[H]c1c([H])c([H])c2c(c1[H])C([H])([H])C([H])([H])C([H])([H])C2([H])N([H])C(=O)C1([H])N(C(=O)C([H])(N([H])C(=O)C([H])(N([H])C([H])([H])[H])C([H])([H])[H])C(C([H])([H])[H])(C([H])([H])[H])C([H])([H])[H])C([H])([H])c2c([H])c(OC([H])([H])c3c([H])c(C(=O)N([H])C(=O)N4C([H])([H])C([H])([H])C([H])([H])C([H])(n5nc(-c6c([H])c([H])c(Oc7c([H])c([H])c(F)c([H])c7F)c([H])c6[H])c(C(=O)N([H])[H])c5N([H])[H])C4([H])[H])c(N([H])[H])c(C([H])([H])[H])c3[H])c([H])c([H])c2C1([H])[H]

>  <smiles>  (46) 
[H]c1c([H])c([H])c2c(c1[H])C([H])([H])C([H])([H])C([H])([H])C2([H])N([H])C(=O)C1([H])N(C(=O)C([H])(N([H])C(=O)C([H])(N([H])C([H])([H])[H])C([H])([H])[H])C(C([H])([H])[H])(C([H])([H])[H])C([H])([H])[H])C([H])([H])c2c([H])c(OC([H])([H])c3c([H])c(C(=O)N([H])C(=O)N4C([H])([H])C([H])([H])C([H])([H])C([H])(n5nc(-c6c([H])c([H])c(Oc7c([H])c([H])c(F)c([H])c7F)c([H])c6[H])c(C(=O)N([H])[H])c5N([H])[H])C4([H])[H])c(N([H])[H])c(C([H])([H])[H])c3[H])c([H])c([H])c2C1([H])[H]

$$$$
46:0:0
     RDKit          3D

 91 97  0  0  1  0  0  0  0  0999 V2000
  -24.9490  -19.8370   18.7750 C   0  0  0  0  0  3  0  0  0  0  0  0
  -25.5540  -21.0460   19.1100 C   0  0  0  0  0  3  0  0  0  0  0  0
  -25.7650  -18.7490   18.4960 C   0  0  0  0  0  3  0  0  0  0  0  0
  -26.9580  -21.1700   19.2740 C   0  0  0  0  0  0  0  0  0  0  0  0
  -27.7880  -19.9400   19.3500 C   0  0  0  0  0  0  0  0  0  0  0  0
  -27.1540  -18.8090   18.7340 C   0  0  0  0  0  0  0  0  0  0  0  0
  -29.3390  -21.7650   20.5160 C   0  0  0  0  0  2  0  0  0  0  0  0
  -27.4000  -22.7040   19.1410 C   0  0  0  0  0  2  0  0  0  0  0  0
  -29.2510  -19.7830   19.9360 C   0  0  0  0  0  1  0  0  0  0  0  0
  -28.2840  -23.3840   20.2100 C   0  0  0  0  0  2  0  0  0  0  0  0
  -27.9200  -17.6370   18.1530 C   0  0  0  0  0  1  0  0  0  0  0  0
  -30.2980  -22.0010   21.2540 O   0  0  0  0  0  1  0  0  0  0  0  0
  -30.4690  -16.4550   20.4250 C   0  0  0  0  0  0  0  0  0  0  0  0
  -30.8240  -13.7680   19.8330 C   0  0  0  0  0  2  0  0  0  0  0  0
  -30.1020  -13.0820   18.6290 C   0  0  0  0  0  2  0  0  0  0  0  0
  -28.7030  -12.6020   19.0160 C   0  0  0  0  0  2  0  0  0  0  0  0
  -28.0300  -13.6510   19.9310 C   0  0  0  0  0  3  0  0  0  0  0  0
  -28.9270  -14.2180   21.0710 C   0  0  0  0  0  2  0  0  0  0  0  0
  -30.0420  -14.9930   20.4310 N   0  0  0  0  0  0  0  0  0  0  0  0
  -31.7090  -16.3340   20.2970 O   0  0  0  0  0  0  0  0  0  0  0  0
  -29.7430  -17.9680   20.4700 N   0  0  0  0  0  2  0  0  0  0  0  0
  -30.6770  -18.3080   20.6600 H   0  0  0  0  0  0  0  0  0  0  0  0
  -25.6220  -14.1210   20.5160 C   0  0  0  0  0  0  0  0  0  0  0  0
  -24.5590  -13.3180   20.8080 C   0  0  0  0  0  0  0  0  0  0  0  0
  -25.0660  -11.9840   20.8550 C   0  0  0  0  0  0  0  0  0  0  0  0
  -26.7000  -13.2730   20.3700 N   0  0  0  0  0  0  0  0  0  0  0  0
  -26.3770  -11.9800   20.6420 N   0  0  0  0  0  0  0  0  0  0  0  0
  -24.3580  -10.7030   21.0250 C   0  0  0  0  0  0  0  0  0  0  0  0
  -24.7070   -9.7920   22.0510 C   0  0  0  0  0  3  0  0  0  0  0  0
  -23.9920   -8.5870   22.2090 C   0  0  0  0  0  3  0  0  0  0  0  0
  -22.9150   -8.2790   21.3400 C   0  0  0  0  0  0  0  0  0  0  0  0
  -22.5880   -9.1760   20.3110 C   0  0  0  0  0  3  0  0  0  0  0  0
  -23.3050  -10.3770   20.1490 C   0  0  0  0  0  3  0  0  0  0  0  0
  -22.1800   -7.1220   21.4020 O   0  0  0  0  0  0  0  0  0  0  0  0
  -21.9630   -6.4690   22.5880 C   0  0  0  0  0  0  0  0  0  0  0  0
  -21.2880   -7.0850   23.6640 C   0  0  0  0  0  3  0  0  0  0  0  0
  -21.0250   -6.3550   24.8410 C   0  0  0  0  0  3  0  0  0  0  0  0
  -21.4280   -5.0100   24.9400 C   0  0  0  0  0  0  0  0  0  0  0  0
  -22.0960   -4.3940   23.8680 C   0  0  0  0  0  3  0  0  0  0  0  0
  -22.3600   -5.1210   22.6950 C   0  0  0  0  0  0  0  0  0  0  0  0
  -22.9860   -4.5170   21.6560 F   0  0  0  0  0  0  0  0  0  0  0  0
  -21.1680   -4.3050   26.0670 F   0  0  0  0  0  0  0  0  0  0  0  0
  -23.1290  -13.7630   20.9350 C   0  0  0  0  0  0  0  0  0  0  0  0
  -22.3590  -13.0830   21.7770 N   0  0  0  0  0  0  0  0  0  0  0  0
  -22.7100  -14.7450   20.3260 O   0  0  0  0  0  0  0  0  0  0  0  0
  -22.7280  -12.2950   22.2850 H   0  0  0  0  0  0  0  0  0  0  0  0
  -21.3990  -13.3560   21.9260 H   0  0  0  0  0  0  0  0  0  0  0  0
  -25.7700  -15.4960   20.3350 N   0  0  0  0  0  0  0  0  0  0  0  0
  -25.0330  -16.1740   20.4730 H   0  0  0  0  0  0  0  0  0  0  0  0
  -26.6680  -15.9370   20.1630 H   0  0  0  0  0  0  0  0  0  0  0  0
  -28.4110  -25.3150   20.1790 O   0  0  0  0  0  1  0  0  0  0  0  0
  -24.9130  -31.8990   23.3450 C   0  0  0  0  0  0  0  0  0  0  0  0
  -27.4800  -26.6790   20.2060 C   0  0  0  0  0  0  0  0  0  0  0  0
  -23.7730  -30.5610   21.6320 C   0  0  0  0  0  3  0  0  0  0  0  0
  -25.2540  -28.9180   20.1950 C   0  0  0  0  0  0  0  0  0  0  0  0
  -26.3650  -30.6240   21.5960 C   0  0  0  0  0  2  0  0  0  0  0  0
  -26.4430  -29.1810   20.8830 C   0  0  0  0  0  0  0  0  0  0  0  0
  -27.5280  -28.1050   20.8450 C   0  0  0  0  0  3  0  0  0  0  0  0
  -26.2550  -26.7140   19.4700 C   0  0  0  0  0  3  0  0  0  0  0  0
  -25.2190  -27.7150   19.4660 C   0  0  0  0  0  3  0  0  0  0  0  0
  -24.0620  -29.9060   20.2470 C   0  0  0  0  0  2  0  0  0  0  0  0
  -25.0410  -31.0690   22.2430 N   0  0  0  0  0  0  0  0  0  0  0  0
  -23.8030  -32.1820   23.8350 O   0  0  0  0  0  0  0  0  0  0  0  0
  -23.0190  -29.5600   22.5540 C   0  0  0  0  0  0  0  0  0  0  0  0
  -21.6940  -29.3780   22.3690 N   0  0  0  0  0  0  0  0  0  0  0  0
  -23.6420  -28.9450   23.4220 O   0  0  0  0  0  0  0  0  0  0  0  0
  -21.2300  -29.9310   21.6630 H   0  0  0  0  0  0  0  0  0  0  0  0
  -18.3310  -28.0160   22.6840 C   0  0  0  0  0  0  0  0  0  0  0  0
  -20.8590  -28.4000   23.0860 C   0  0  0  0  0  3  0  0  0  0  0  0
  -21.0530  -26.9760   22.5100 C   0  0  0  0  0  2  0  0  0  0  0  0
  -20.0260  -26.6170   21.4320 C   0  0  0  0  0  2  0  0  0  0  0  0
  -18.6060  -26.6870   22.0010 C   0  0  0  0  0  2  0  0  0  0  0  0
  -19.3870  -28.8270   23.1800 C   0  0  0  0  0  0  0  0  0  0  0  0
  -19.0720  -30.0620   23.7870 C   0  0  0  0  0  3  0  0  0  0  0  0
  -17.7350  -30.4910   23.8950 C   0  0  0  0  0  3  0  0  0  0  0  0
  -16.6930  -29.6810   23.4100 C   0  0  0  0  0  3  0  0  0  0  0  0
  -16.9930  -28.4440   22.8120 C   0  0  0  0  0  3  0  0  0  0  0  0
  -26.1480  -32.5450   24.0470 C   0  0  0  0  0  3  0  0  0  0  0  0
  -25.8000  -33.9350   24.4250 N   0  0  0  0  0  0  0  0  0  0  0  0
  -26.1950  -35.0430   23.7810 C   0  0  0  0  0  0  0  0  0  0  0  0
  -26.9390  -35.0030   22.8010 O   0  0  0  0  0  0  0  0  0  0  0  0
  -25.1400  -34.0330   25.1840 H   0  0  0  0  0  0  0  0  0  0  0  0
  -24.5410  -36.9130   23.4150 C   0  0  0  0  0  1  0  0  0  0  0  0
  -25.6900  -36.4100   24.3020 C   0  0  0  0  0  3  0  0  0  0  0  0
  -27.7500  -37.1910   25.4000 C   0  0  0  0  0  1  0  0  0  0  0  0
  -26.7490  -37.4450   24.3690 N   0  0  0  0  0  0  0  0  0  0  0  0
  -26.3410  -38.3630   24.5390 H   0  0  0  0  0  0  0  0  0  0  0  0
  -26.6080  -31.7520   25.3310 C   0  0  1  0  0  0  0  0  0  0  0  0
  -25.4660  -31.4710   26.3380 C   0  0  0  0  0  1  0  0  0  0  0  0
  -27.2310  -30.3930   24.9500 C   0  0  0  0  0  1  0  0  0  0  0  0
  -27.7100  -32.5450   26.0710 C   0  0  0  0  0  1  0  0  0  0  0  0
  1  2  1  0
  2  4  2  0
  3  6  1  0
  3  1  2  0
  4  5  1  0
  5  9  1  0
  6  5  2  0
  7 12  1  0
  8  4  1  0
  8 10  1  0
 10  7  1  0
 11  6  1  0
 13 19  1  0
 13 21  1  0
 14 19  1  0
 15 16  1  0
 15 14  1  0
 17 16  1  0
 17 26  1  0
 17 18  1  0
 19 18  1  0
 20 13  2  0
 21 22  1  0
 23 24  2  0
 24 25  1  0
 24 43  1  0
 25 28  1  0
 26 23  1  0
 26 27  1  0
 27 25  2  0
 28 29  1  0
 29 30  2  0
 31 34  1  0
 31 30  1  0
 32 31  2  0
 33 32  1  0
 33 28  2  0
 34 35  1  0
 35 40  2  0
 35 36  1  0
 36 37  2  0
 37 38  1  0
 38 42  1  0
 39 38  2  0
 40 39  1  0
 41 40  1  0
 43 44  1  0
 44 47  1  0
 44 46  1  0
 45 43  2  0
 48 49  1  0
 48 23  1  0
 50 48  1  0
 51 53  1  0
 52 63  2  0
 53 58  1  0
 54 62  1  0
 54 64  1  0
 55 61  1  0
 55 57  1  0
 56 62  1  0
 57 56  1  0
 58 57  2  0
 59 53  2  0
 60 59  1  0
 60 55  2  0
 61 54  1  0
 62 52  1  0
 64 66  2  0
 65 64  1  0
 67 65  1  0
 68 77  2  0
 68 73  1  0
 69 65  1  0
 69 73  1  0
 70 69  1  0
 71 72  1  0
 71 70  1  0
 72 68  1  0
 73 74  2  0
 74 75  1  0
 76 75  2  0
 77 76  1  0
 78 52  1  0
 78 79  1  0
 78 88  1  0
 79 82  1  0
 80 84  1  0
 80 79  1  0
 81 80  2  0
 84 83  1  0
 84 86  1  0
 86 87  1  0
 86 85  1  0
 88 91  1  1
 88 89  1  0
 90 88  1  0
M  ISO  4  10 101  13 100  21 100  51 101
M  END
>  <TORSDO>  (47) 
F 16

>  <SCORE>  (47) 
-13.507

>  <name>  (47) 
46

>  <ligand_id>  (47) 
46

>  <original_smiles>  (47) 
[H]c1c([H])c(C([H])([H])[H])c2c(c1[H])C([H])([H])C([H])(Oc1c([H])c([H])c3c(c1[H])C([H])([H])N(C(=O)C([H])(N([H])C(=O)C([H])(N([H])C([H])([H])[H])C([H])([H])[H])C(C([H])([H])[H])(C([H])([H])[H])C([H])([H])[H])C([H])(C(=O)N([H])C1([H])c4c([H])c([H])c([H])c([H])c4C([H])([H])C([H])([H])C1([H])[H])C3([H])[H])C(=O)C2([H])N([H])C(=O)N1C([H])([H])C([H])([H])C([H])([H])C([H])(n2nc(-c3c([H])c([H])c(Oc4c([H])c([H])c(F)c([H])c4F)c([H])c3[H])c(C(=O)N([H])[H])c2N([H])[H])C1([H])[H]

>  <smiles>  (47) 
[H]c1c([H])c(C([H])([H])[H])c2c(c1[H])C([H])([H])C([H])(Oc1c([H])c([H])c3c(c1[H])C([H])([H])N(C(=O)C([H])(N([H])C(=O)C([H])(N([H])C([H])([H])[H])C([H])([H])[H])C(C([H])([H])[H])(C([H])([H])[H])C([H])([H])[H])C([H])(C(=O)N([H])C1([H])c4c([H])c([H])c([H])c([H])c4C([H])([H])C([H])([H])C1([H])[H])C3([H])[H])C(=O)C2([H])N([H])C(=O)N1C([H])([H])C([H])([H])C([H])([H])C([H])(n2nc(-c3c([H])c([H])c(Oc4c([H])c([H])c(F)c([H])c4F)c([H])c3[H])c(C(=O)N([H])[H])c2N([H])[H])C1([H])[H]

$$$$
47:0:0
     RDKit          3D

 95104  0  0  1  0  0  0  0  0999 V2000
  -28.7830  -21.9620   20.3830 C   0  0  0  0  0  0  0  0  0  0  0  0
  -29.5950  -21.0360   20.9050 N   0  0  0  0  0  0  0  0  0  0  0  0
  -27.9160  -21.7130   19.5400 O   0  0  0  0  0  0  0  0  0  0  0  0
  -30.3180  -21.3810   21.5190 H   0  0  0  0  0  0  0  0  0  0  0  0
  -30.0660  -18.9550   22.0750 C   0  0  0  0  0  2  0  0  0  0  0  0
  -30.0130  -19.0090   19.5420 C   0  0  0  0  0  2  0  0  0  0  0  0
  -29.9780  -17.4240   22.0530 C   0  0  0  0  0  2  0  0  0  0  0  0
  -29.8920  -17.4780   19.5210 C   0  0  0  0  0  2  0  0  0  0  0  0
  -29.4120  -19.5920   20.8340 C   0  0  0  0  0  3  0  0  0  0  0  0
  -30.5530  -16.8220   20.7550 C   0  0  0  0  0  3  0  0  0  0  0  0
  -30.9460  -14.4420   20.0800 C   0  0  0  0  0  0  0  0  0  0  0  0
  -30.5830  -12.2850   18.9520 C   0  0  0  0  0  2  0  0  0  0  0  0
  -29.5540  -12.4740   17.8160 C   0  0  0  0  0  2  0  0  0  0  0  0
  -28.1110  -12.3540   18.3450 C   0  0  0  0  0  2  0  0  0  0  0  0
  -27.8610  -13.2120   19.6120 C   0  0  0  0  0  3  0  0  0  0  0  0
  -28.9800  -12.9740   20.6510 C   0  0  0  0  0  2  0  0  0  0  0  0
  -30.2750  -13.2640   20.0040 N   0  0  0  0  0  0  0  0  0  0  0  0
  -31.9930  -14.6780   19.4720 O   0  0  0  0  0  0  0  0  0  0  0  0
  -30.2980  -15.3880   20.7700 N   0  0  0  0  0  0  0  0  0  0  0  0
  -29.4730  -15.0780   21.2610 H   0  0  0  0  0  0  0  0  0  0  0  0
  -25.5380  -13.8600   20.5240 C   0  0  0  0  0  0  0  0  0  0  0  0
  -24.4750  -13.1010   20.9360 C   0  0  0  0  0  0  0  0  0  0  0  0
  -24.8890  -11.7400   20.8060 C   0  0  0  0  0  0  0  0  0  0  0  0
  -26.5350  -12.9590   20.1730 N   0  0  0  0  0  0  0  0  0  0  0  0
  -26.1500  -11.6780   20.3990 N   0  0  0  0  0  0  0  0  0  0  0  0
  -24.1410  -10.4900   20.9920 C   0  0  0  0  0  0  0  0  0  0  0  0
  -24.5670   -9.5040   21.9070 C   0  0  0  0  0  3  0  0  0  0  0  0
  -23.8200   -8.3190   22.0830 C   0  0  0  0  0  3  0  0  0  0  0  0
  -22.6330   -8.1100   21.3400 C   0  0  0  0  0  0  0  0  0  0  0  0
  -22.2250   -9.0870   20.4130 C   0  0  0  0  0  3  0  0  0  0  0  0
  -22.9730  -10.2620   20.2360 C   0  0  0  0  0  3  0  0  0  0  0  0
  -21.8610   -6.9750   21.4220 O   0  0  0  0  0  0  0  0  0  0  0  0
  -21.7410   -6.2710   22.5930 C   0  0  0  0  0  0  0  0  0  0  0  0
  -21.2510   -6.8680   23.7750 C   0  0  0  0  0  3  0  0  0  0  0  0
  -21.0750   -6.0910   24.9370 C   0  0  0  0  0  3  0  0  0  0  0  0
  -21.3810   -4.7170   24.9190 C   0  0  0  0  0  0  0  0  0  0  0  0
  -21.8670   -4.1190   23.7430 C   0  0  0  0  0  3  0  0  0  0  0  0
  -22.0430   -4.8930   22.5830 C   0  0  0  0  0  0  0  0  0  0  0  0
  -22.4880   -4.3090   21.4450 F   0  0  0  0  0  0  0  0  0  0  0  0
  -21.2060   -3.9680   26.0320 F   0  0  0  0  0  0  0  0  0  0  0  0
  -23.1180  -13.6040   21.3390 C   0  0  0  0  0  0  0  0  0  0  0  0
  -22.4410  -12.8950   22.2370 N   0  0  0  0  0  0  0  0  0  0  0  0
  -22.6680  -14.6580   20.8940 O   0  0  0  0  0  0  0  0  0  0  0  0
  -22.8180  -12.0430   22.6220 H   0  0  0  0  0  0  0  0  0  0  0  0
  -21.5330  -13.2120   22.5450 H   0  0  0  0  0  0  0  0  0  0  0  0
  -25.7380  -15.2310   20.4040 N   0  0  0  0  0  0  0  0  0  0  0  0
  -25.0190  -15.9090   20.6270 H   0  0  0  0  0  0  0  0  0  0  0  0
  -26.5830  -15.6520   20.0370 H   0  0  0  0  0  0  0  0  0  0  0  0
  -29.4560  -24.8850   22.7620 C   0  0  0  0  0  3  0  0  0  0  0  0
  -29.3340  -23.5750   22.2580 C   0  0  0  0  0  3  0  0  0  0  0  0
  -29.2330  -25.9850   21.9180 C   0  0  0  0  0  3  0  0  0  0  0  0
  -28.7700  -24.4690   20.0610 C   0  0  0  0  0  3  0  0  0  0  0  0
  -28.9930  -23.3550   20.9010 C   0  0  0  0  0  0  0  0  0  0  0  0
  -28.8850  -25.7780   20.5710 C   0  0  0  0  0  0  0  0  0  0  0  0
  -28.6660  -26.8500   19.7550 O   0  0  0  0  0  0  0  0  0  0  0  0
  -24.5700  -31.6380   23.0840 C   0  0  0  0  0  0  0  0  0  0  0  0
  -27.4510  -27.4710   19.8590 C   0  0  0  0  0  0  0  0  0  0  0  0
  -23.4400  -30.2340   21.3850 C   0  0  0  0  0  3  0  0  0  0  0  0
  -24.9760  -28.8090   19.9310 C   0  0  0  0  0  0  0  0  0  0  0  0
  -25.9430  -30.7230   21.2210 C   0  0  0  0  0  2  0  0  0  0  0  0
  -26.0970  -29.3800   20.5450 C   0  0  0  0  0  0  0  0  0  0  0  0
  -27.3400  -28.7140   20.5110 C   0  0  0  0  0  3  0  0  0  0  0  0
  -26.3150  -26.8910   19.2590 C   0  0  0  0  0  3  0  0  0  0  0  0
  -25.0750  -27.5590   19.2920 C   0  0  0  0  0  3  0  0  0  0  0  0
  -23.6920  -29.6030   19.9890 C   0  0  0  0  0  2  0  0  0  0  0  0
  -24.6660  -30.8800   21.9560 N   0  0  0  0  0  0  0  0  0  0  0  0
  -23.4740  -31.8440   23.6240 O   0  0  0  0  0  0  0  0  0  0  0  0
  -22.8300  -29.1560   22.3090 C   0  0  0  0  0  0  0  0  0  0  0  0
  -21.5150  -28.9250   22.1700 N   0  0  0  0  0  0  0  0  0  0  0  0
  -23.5360  -28.5290   23.1040 O   0  0  0  0  0  0  0  0  0  0  0  0
  -21.0050  -29.4870   21.5020 H   0  0  0  0  0  0  0  0  0  0  0  0
  -18.1960  -27.5640   22.5900 C   0  0  0  0  0  0  0  0  0  0  0  0
  -20.7370  -27.9260   22.9000 C   0  0  0  0  0  3  0  0  0  0  0  0
  -20.9090  -26.5200   22.2780 C   0  0  0  0  0  2  0  0  0  0  0  0
  -19.8330  -26.1840   21.2380 C   0  0  0  0  0  2  0  0  0  0  0  0
  -18.4410  -26.2460   21.8720 C   0  0  0  0  0  2  0  0  0  0  0  0
  -19.2760  -28.3600   23.0560 C   0  0  0  0  0  0  0  0  0  0  0  0
  -18.9970  -29.5950   23.6790 C   0  0  0  0  0  3  0  0  0  0  0  0
  -17.6700  -30.0350   23.8430 C   0  0  0  0  0  3  0  0  0  0  0  0
  -16.6050  -29.2370   23.3950 C   0  0  0  0  0  3  0  0  0  0  0  0
  -16.8680  -28.0030   22.7740 C   0  0  0  0  0  3  0  0  0  0  0  0
  -25.8250  -32.3040   23.7340 C   0  0  0  0  0  3  0  0  0  0  0  0
  -25.4470  -33.6670   24.1300 N   0  0  0  0  0  0  0  0  0  0  0  0
  -25.7100  -34.7690   23.4130 C   0  0  0  0  0  0  0  0  0  0  0  0
  -26.3720  -34.7450   22.3710 O   0  0  0  0  0  0  0  0  0  0  0  0
  -24.8560  -33.7520   24.9450 H   0  0  0  0  0  0  0  0  0  0  0  0
  -23.8770  -36.4710   23.1540 C   0  0  0  0  0  1  0  0  0  0  0  0
  -25.1510  -36.1060   23.9330 C   0  0  0  0  0  3  0  0  0  0  0  0
  -27.2430  -37.0810   24.7720 C   0  0  0  0  0  1  0  0  0  0  0  0
  -26.1200  -37.2200   23.8480 N   0  0  0  0  0  0  0  0  0  0  0  0
  -25.6630  -38.1080   24.0350 H   0  0  0  0  0  0  0  0  0  0  0  0
  -26.3890  -31.5000   24.9690 C   0  0  1  0  0  0  0  0  0  0  0  0
  -25.3140  -31.1570   26.0270 C   0  0  0  0  0  1  0  0  0  0  0  0
  -27.0400  -30.1750   24.5080 C   0  0  0  0  0  1  0  0  0  0  0  0
  -27.4970  -32.3190   25.6720 C   0  0  0  0  0  1  0  0  0  0  0  0
  1 53  1  0
  1  2  1  0
  2  4  1  0
  3  1  2  0
  6  9  1  0
  7  5  1  0
  8  6  1  0
  8 10  1  0
  9  2  1  0
  9  5  1  0
 10 19  1  0
 10  7  1  0
 11 19  1  0
 12 17  1  0
 13 14  1  0
 13 12  1  0
 15 14  1  0
 15 24  1  0
 15 16  1  0
 17 11  1  0
 17 16  1  0
 18 11  2  0
 19 20  1  0
 21 22  2  0
 22 41  1  0
 23 22  1  0
 23 26  1  0
 24 25  1  0
 24 21  1  0
 25 23  2  0
 26 27  1  0
 27 28  2  0
 29 32  1  0
 29 28  1  0
 30 29  2  0
 31 30  1  0
 31 26  2  0
 32 33  1  0
 33 34  1  0
 34 35  2  0
 36 35  1  0
 36 40  1  0
 37 36  2  0
 38 33  2  0
 38 37  1  0
 39 38  1  0
 41 42  1  0
 42 45  1  0
 42 44  1  0
 43 41  2  0
 46 21  1  0
 46 47  1  0
 48 46  1  0
 50 49  1  0
 51 49  2  0
 52 54  2  0
 52 53  1  0
 53 50  2  0
 54 51  1  0
 55 57  1  0
 55 54  1  0
 56 67  2  0
 57 62  1  0
 58 66  1  0
 58 68  1  0
 59 65  1  0
 59 61  1  0
 60 66  1  0
 61 60  1  0
 62 61  2  0
 63 64  1  0
 63 57  2  0
 64 59  2  0
 65 58  1  0
 66 56  1  0
 68 70  2  0
 69 68  1  0
 71 69  1  0
 72 81  2  0
 72 77  1  0
 73 69  1  0
 73 77  1  0
 74 73  1  0
 75 76  1  0
 75 74  1  0
 76 72  1  0
 77 78  2  0
 78 79  1  0
 80 79  2  0
 81 80  1  0
 82 56  1  0
 82 83  1  0
 82 92  1  0
 83 86  1  0
 84 88  1  0
 84 83  1  0
 85 84  2  0
 88 87  1  0
 90 88  1  0
 90 91  1  0
 90 89  1  0
 92 95  1  1
 92 93  1  0
 94 92  1  0
M  ISO  4  11 100  19 100  54 101  55 101
M  END
>  <TORSDO>  (48) 
F 18

>  <SCORE>  (48) 
-13.407

>  <name>  (48) 
47

>  <ligand_id>  (48) 
47

>  <original_smiles>  (48) 
[H]c1c([H])c(Oc2c([H])c([H])c3c(c2[H])C([H])([H])N(C(=O)C([H])(N([H])C(=O)C([H])(N([H])C([H])([H])[H])C([H])([H])[H])C(C([H])([H])[H])(C([H])([H])[H])C([H])([H])[H])C([H])(C(=O)N([H])C2([H])c4c([H])c([H])c([H])c([H])c4C([H])([H])C([H])([H])C2([H])[H])C3([H])[H])c([H])c(C(=O)N([H])C2([H])C([H])([H])C([H])([H])C([H])(N([H])C(=O)N3C([H])([H])C([H])([H])C([H])([H])C([H])(n4nc(-c5c([H])c([H])c(Oc6c([H])c([H])c(F)c([H])c6F)c([H])c5[H])c(C(=O)N([H])[H])c4N([H])[H])C3([H])[H])C([H])([H])C2([H])[H])c1[H]

>  <smiles>  (48) 
[H]c1c([H])c(Oc2c([H])c([H])c3c(c2[H])C([H])([H])N(C(=O)C([H])(N([H])C(=O)C([H])(N([H])C([H])([H])[H])C([H])([H])[H])C(C([H])([H])[H])(C([H])([H])[H])C([H])([H])[H])C([H])(C(=O)N([H])C2([H])c4c([H])c([H])c([H])c([H])c4C([H])([H])C([H])([H])C2([H])[H])C3([H])[H])c([H])c(C(=O)N([H])C2([H])C([H])([H])C([H])([H])C([H])(N([H])C(=O)N3C([H])([H])C([H])([H])C([H])([H])C([H])(n4nc(-c5c([H])c([H])c(Oc6c([H])c([H])c(F)c([H])c6F)c([H])c5[H])c(C(=O)N([H])[H])c4N([H])[H])C3([H])[H])C([H])([H])C2([H])[H])c1[H]

$$$$
48:0:0
     RDKit          3D

 93101  0  0  1  0  0  0  0  0999 V2000
  -28.6830  -25.9710   23.4440 C   0  0  0  0  0  3  0  0  0  0  0  0
  -29.6410  -24.9610   23.2530 C   0  0  0  0  0  3  0  0  0  0  0  0
  -28.1030  -26.6090   22.3330 C   0  0  0  0  0  3  0  0  0  0  0  0
  -29.4410  -25.2370   20.8380 C   0  0  0  0  0  3  0  0  0  0  0  0
  -30.0120  -24.5680   21.9470 C   0  0  0  0  0  0  0  0  0  0  0  0
  -28.4870  -26.2610   21.0120 C   0  0  0  0  0  0  0  0  0  0  0  0
  -31.0040  -23.4610   21.7190 C   0  0  0  0  0  0  0  0  0  0  0  0
  -31.1930  -22.6340   22.7550 N   0  0  0  0  0  0  0  0  0  0  0  0
  -31.5290  -23.2920   20.6160 O   0  0  0  0  0  0  0  0  0  0  0  0
  -30.7110  -22.8640   23.6130 H   0  0  0  0  0  0  0  0  0  0  0  0
  -31.9000  -21.3600   22.7110 C   0  0  0  0  0  2  0  0  0  0  0  0
  -30.8930  -20.2260   22.4650 C   0  0  0  0  0  2  0  0  0  0  0  0
  -31.5560  -18.8760   22.1730 C   0  0  0  0  0  2  0  0  0  0  0  0
  -30.5140  -17.7670   21.9580 C   0  0  0  0  0  2  0  0  0  0  0  0
  -31.1170  -16.5310   21.2830 C   0  0  0  0  0  2  0  0  0  0  0  0
  -30.1040  -15.3730   21.1220 C   0  0  0  0  0  2  0  0  0  0  0  0
  -30.5300  -14.3250   20.0790 C   0  0  0  0  0  0  0  0  0  0  0  0
  -30.1370  -12.1860   18.9110 C   0  0  0  0  0  2  0  0  0  0  0  0
  -29.1130  -12.3500   17.7730 C   0  0  0  0  0  2  0  0  0  0  0  0
  -27.6790  -12.1820   18.3090 C   0  0  0  0  0  2  0  0  0  0  0  0
  -27.4080  -13.0490   19.5680 C   0  0  0  0  0  3  0  0  0  0  0  0
  -28.5380  -12.8820   20.6090 C   0  0  0  0  0  2  0  0  0  0  0  0
  -29.8230  -13.1730   19.9530 N   0  0  0  0  0  0  0  0  0  0  0  0
  -31.5080  -14.5710   19.3660 O   0  0  0  0  0  0  0  0  0  0  0  0
  -25.0720  -13.6220   20.4880 C   0  0  0  0  0  0  0  0  0  0  0  0
  -24.0360  -12.8320   20.9100 C   0  0  0  0  0  0  0  0  0  0  0  0
  -24.4920  -11.4850   20.7870 C   0  0  0  0  0  0  0  0  0  0  0  0
  -26.0960  -12.7540   20.1400 N   0  0  0  0  0  0  0  0  0  0  0  0
  -25.7530  -11.4610   20.3750 N   0  0  0  0  0  0  0  0  0  0  0  0
  -23.7840  -10.2130   20.9830 C   0  0  0  0  0  0  0  0  0  0  0  0
  -24.2170   -9.2660   21.9380 C   0  0  0  0  0  3  0  0  0  0  0  0
  -23.5090   -8.0590   22.1210 C   0  0  0  0  0  3  0  0  0  0  0  0
  -22.3530   -7.7900   21.3490 C   0  0  0  0  0  0  0  0  0  0  0  0
  -21.9400   -8.7250   20.3850 C   0  0  0  0  0  3  0  0  0  0  0  0
  -22.6480   -9.9240   20.2000 C   0  0  0  0  0  3  0  0  0  0  0  0
  -21.6170   -6.6340   21.4410 O   0  0  0  0  0  0  0  0  0  0  0  0
  -21.4950   -5.9500   22.6240 C   0  0  0  0  0  0  0  0  0  0  0  0
  -20.8960   -6.5310   23.7620 C   0  0  0  0  0  3  0  0  0  0  0  0
  -20.7290   -5.7690   24.9370 C   0  0  0  0  0  3  0  0  0  0  0  0
  -21.1490   -4.4260   24.9710 C   0  0  0  0  0  0  0  0  0  0  0  0
  -21.7400   -3.8440   23.8360 C   0  0  0  0  0  3  0  0  0  0  0  0
  -21.9100   -4.6020   22.6650 C   0  0  0  0  0  0  0  0  0  0  0  0
  -22.4600   -4.0300   21.5670 F   0  0  0  0  0  0  0  0  0  0  0  0
  -20.9800   -3.6910   26.0950 F   0  0  0  0  0  0  0  0  0  0  0  0
  -22.6650  -13.2930   21.3150 C   0  0  0  0  0  0  0  0  0  0  0  0
  -22.0110  -12.5600   22.2100 N   0  0  0  0  0  0  0  0  0  0  0  0
  -22.1840  -14.3360   20.8740 O   0  0  0  0  0  0  0  0  0  0  0  0
  -22.4150  -11.7140   22.5860 H   0  0  0  0  0  0  0  0  0  0  0  0
  -21.0950  -12.8490   22.5240 H   0  0  0  0  0  0  0  0  0  0  0  0
  -25.2220  -14.9990   20.3530 N   0  0  0  0  0  0  0  0  0  0  0  0
  -24.4710  -15.6510   20.5500 H   0  0  0  0  0  0  0  0  0  0  0  0
  -26.0540  -15.4510   19.9930 H   0  0  0  0  0  0  0  0  0  0  0  0
  -27.9960  -26.8760   19.8750 O   0  0  0  0  0  0  0  0  0  0  0  0
  -24.4910  -31.9790   23.3120 C   0  0  0  0  0  0  0  0  0  0  0  0
  -26.8540  -27.6320   19.9510 C   0  0  0  0  0  0  0  0  0  0  0  0
  -23.1520  -30.6610   21.6980 C   0  0  0  0  0  3  0  0  0  0  0  0
  -24.4850  -29.1470   20.1360 C   0  0  0  0  0  0  0  0  0  0  0  0
  -25.6590  -31.0000   21.3440 C   0  0  0  0  0  2  0  0  0  0  0  0
  -25.6810  -29.6530   20.6560 C   0  0  0  0  0  0  0  0  0  0  0  0
  -26.8730  -28.9120   20.5420 C   0  0  0  0  0  3  0  0  0  0  0  0
  -25.6470  -27.1280   19.4270 C   0  0  0  0  0  3  0  0  0  0  0  0
  -24.4610  -27.8840   19.5130 C   0  0  0  0  0  3  0  0  0  0  0  0
  -23.2580  -30.0170   20.2880 C   0  0  0  0  0  2  0  0  0  0  0  0
  -24.4580  -31.2220   22.1780 N   0  0  0  0  0  0  0  0  0  0  0  0
  -23.4530  -32.2530   23.9290 O   0  0  0  0  0  0  0  0  0  0  0  0
  -22.5410  -29.6220   22.6640 C   0  0  0  0  0  0  0  0  0  0  0  0
  -21.2270  -29.3810   22.5240 N   0  0  0  0  0  0  0  0  0  0  0  0
  -23.2440  -29.0330   23.4900 O   0  0  0  0  0  0  0  0  0  0  0  0
  -20.7210  -29.9090   21.8280 H   0  0  0  0  0  0  0  0  0  0  0  0
  -17.9440  -27.9180   22.8690 C   0  0  0  0  0  0  0  0  0  0  0  0
  -20.4430  -28.4150   23.2940 C   0  0  0  0  0  3  0  0  0  0  0  0
  -20.7090  -26.9710   22.8090 C   0  0  0  0  0  2  0  0  0  0  0  0
  -19.7120  -26.5000   21.7450 C   0  0  0  0  0  2  0  0  0  0  0  0
  -18.2820  -26.5560   22.2870 C   0  0  0  0  0  2  0  0  0  0  0  0
  -18.9600  -28.7970   23.3250 C   0  0  0  0  0  0  0  0  0  0  0  0
  -18.5950  -30.0680   23.8240 C   0  0  0  0  0  3  0  0  0  0  0  0
  -17.2440  -30.4610   23.8720 C   0  0  0  0  0  3  0  0  0  0  0  0
  -16.2410  -29.5800   23.4330 C   0  0  0  0  0  3  0  0  0  0  0  0
  -16.5900  -28.3120   22.9370 C   0  0  0  0  0  3  0  0  0  0  0  0
  -25.8300  -32.5590   23.8720 C   0  0  0  0  0  3  0  0  0  0  0  0
  -25.5790  -33.9520   24.2610 N   0  0  0  0  0  0  0  0  0  0  0  0
  -25.8850  -35.0180   23.5080 C   0  0  0  0  0  0  0  0  0  0  0  0
  -26.4820  -34.9270   22.4310 O   0  0  0  0  0  0  0  0  0  0  0  0
  -25.0460  -34.0980   25.1050 H   0  0  0  0  0  0  0  0  0  0  0  0
  -24.1860  -36.8590   23.3100 C   0  0  0  0  0  1  0  0  0  0  0  0
  -25.4640  -36.4020   24.0330 C   0  0  0  0  0  3  0  0  0  0  0  0
  -27.6620  -37.2160   24.7640 C   0  0  0  0  0  1  0  0  0  0  0  0
  -26.5140  -37.4330   23.8860 N   0  0  0  0  0  0  0  0  0  0  0  0
  -26.1410  -38.3580   24.0780 H   0  0  0  0  0  0  0  0  0  0  0  0
  -26.4040  -31.7300   25.0860 C   0  0  1  0  0  0  0  0  0  0  0  0
  -25.3710  -31.4750   26.2070 C   0  0  0  0  0  1  0  0  0  0  0  0
  -26.9310  -30.3580   24.6040 C   0  0  0  0  0  1  0  0  0  0  0  0
  -27.6070  -32.4760   25.7060 C   0  0  0  0  0  1  0  0  0  0  0  0
  2  1  1  0
  3  1  2  0
  4  6  2  0
  4  5  1  0
  5  2  2  0
  6  3  1  0
  7  5  1  0
  7  8  1  0
  8 10  1  0
  9  7  2  0
 11  8  1  0
 12 11  1  0
 13 12  1  0
 14 13  1  0
 15 14  1  0
 16 15  1  0
 17 16  1  0
 18 23  1  0
 19 20  1  0
 19 18  1  0
 21 20  1  0
 21 28  1  0
 21 22  1  0
 23 17  1  0
 23 22  1  0
 24 17  2  0
 25 26  2  0
 26 45  1  0
 27 26  1  0
 27 30  1  0
 28 29  1  0
 28 25  1  0
 29 27  2  0
 30 31  1  0
 31 32  2  0
 33 36  1  0
 33 32  1  0
 34 33  2  0
 35 34  1  0
 35 30  2  0
 36 37  1  0
 37 42  2  0
 37 38  1  0
 38 39  2  0
 39 40  1  0
 40 44  1  0
 41 40  2  0
 42 41  1  0
 43 42  1  0
 45 46  1  0
 46 49  1  0
 46 48  1  0
 47 45  2  0
 50 25  1  0
 50 51  1  0
 52 50  1  0
 53 55  1  0
 53  6  1  0
 54 65  2  0
 55 60  1  0
 56 64  1  0
 56 66  1  0
 57 63  1  0
 57 59  1  0
 58 64  1  0
 59 58  1  0
 60 59  2  0
 61 62  1  0
 61 55  2  0
 62 57  2  0
 63 56  1  0
 64 54  1  0
 66 68  2  0
 67 66  1  0
 69 67  1  0
 70 79  2  0
 70 75  1  0
 71 67  1  0
 71 75  1  0
 72 71  1  0
 73 74  1  0
 73 72  1  0
 74 70  1  0
 75 76  2  0
 76 77  1  0
 78 77  2  0
 79 78  1  0
 80 54  1  0
 80 81  1  0
 80 90  1  0
 81 84  1  0
 82 86  1  0
 82 81  1  0
 83 82  2  0
 86 85  1  0
 88 86  1  0
 88 89  1  0
 88 87  1  0
 90 93  1  1
 90 91  1  0
 92 90  1  0
M  ISO  4   6 101  16 100  17 100  53 101
M  END
>  <TORSDO>  (49) 
F 23

>  <SCORE>  (49) 
-11.881

>  <name>  (49) 
48

>  <ligand_id>  (49) 
48

>  <original_smiles>  (49) 
[H]c1c([H])c(Oc2c([H])c([H])c3c(c2[H])C([H])([H])N(C(=O)C([H])(N([H])C(=O)C([H])(N([H])C([H])([H])[H])C([H])([H])[H])C(C([H])([H])[H])(C([H])([H])[H])C([H])([H])[H])C([H])(C(=O)N([H])C2([H])c4c([H])c([H])c([H])c([H])c4C([H])([H])C([H])([H])C2([H])[H])C3([H])[H])c([H])c(C(=O)N([H])C([H])([H])C([H])([H])C([H])([H])C([H])([H])C([H])([H])C([H])([H])C(=O)N2C([H])([H])C([H])([H])C([H])([H])C([H])(n3nc(-c4c([H])c([H])c(Oc5c([H])c([H])c(F)c([H])c5F)c([H])c4[H])c(C(=O)N([H])[H])c3N([H])[H])C2([H])[H])c1[H]

>  <smiles>  (49) 
[H]c1c([H])c(Oc2c([H])c([H])c3c(c2[H])C([H])([H])N(C(=O)C([H])(N([H])C(=O)C([H])(N([H])C([H])([H])[H])C([H])([H])[H])C(C([H])([H])[H])(C([H])([H])[H])C([H])([H])[H])C([H])(C(=O)N([H])C2([H])c4c([H])c([H])c([H])c([H])c4C([H])([H])C([H])([H])C2([H])[H])C3([H])[H])c([H])c(C(=O)N([H])C([H])([H])C([H])([H])C([H])([H])C([H])([H])C([H])([H])C([H])([H])C(=O)N2C([H])([H])C([H])([H])C([H])([H])C([H])(n3nc(-c4c([H])c([H])c(Oc5c([H])c([H])c(F)c([H])c5F)c([H])c4[H])c(C(=O)N([H])[H])c3N([H])[H])C2([H])[H])c1[H]

$$$$
49:0:0
     RDKit          3D

 94103  0  0  1  0  0  0  0  0999 V2000
  -28.6530  -21.4810   18.0390 C   0  0  0  0  0  2  0  0  0  0  0  0
  -30.1130  -21.3180   18.4680 C   0  0  0  0  0  2  0  0  0  0  0  0
  -27.9120  -21.9980   19.2820 C   0  0  0  0  0  2  0  0  0  0  0  0
  -30.0940  -21.4480   19.9980 C   0  0  0  0  0  3  0  0  0  0  0  0
  -28.9440  -22.4160   20.2610 N   0  0  1  0  0  4  0  0  0  0  0  0
  -28.5780  -22.2330   21.1840 H   0  0  0  0  0  0  0  0  0  0  0  0
  -29.9100  -18.7310   20.1550 C   0  0  0  0  0  3  0  0  0  0  0  0
  -30.7090  -17.5790   22.1440 C   0  0  0  0  0  3  0  0  0  0  0  0
  -30.1600  -20.0380   20.7380 C   0  0  0  0  0  0  0  0  0  0  0  0
  -30.1800  -17.4810   20.8410 C   0  0  0  0  0  0  0  0  0  0  0  0
  -30.9370  -18.8340   22.7450 C   0  0  0  0  0  0  0  0  0  0  0  0
  -30.6640  -20.0380   22.0590 C   0  0  0  0  0  0  0  0  0  0  0  0
  -31.4330  -18.8860   24.0040 F   0  0  0  0  0  0  0  0  0  0  0  0
  -30.9220  -21.2160   22.6750 F   0  0  0  0  0  0  0  0  0  0  0  0
  -29.7380  -16.0590   20.3020 C   0  0  0  0  0  2  0  0  0  0  0  0
  -30.6480  -14.7400   20.3440 C   0  0  0  0  0  0  0  0  0  0  0  0
  -30.4780  -12.4540   19.3730 C   0  0  0  0  0  2  0  0  0  0  0  0
  -29.5560  -12.5620   18.1360 C   0  0  0  0  0  2  0  0  0  0  0  0
  -28.0740  -12.4040   18.5350 C   0  0  0  0  0  2  0  0  0  0  0  0
  -27.6920  -13.2920   19.7470 C   0  0  0  0  0  3  0  0  0  0  0  0
  -28.7330  -13.1710   20.8820 C   0  0  0  0  0  2  0  0  0  0  0  0
  -30.0560  -13.4970   20.3300 N   0  0  0  0  0  0  0  0  0  0  0  0
  -31.8500  -14.8490   20.0900 O   0  0  0  0  0  0  0  0  0  0  0  0
  -25.2980  -13.9270   20.4280 C   0  0  0  0  0  0  0  0  0  0  0  0
  -24.2180  -13.1730   20.7930 C   0  0  0  0  0  0  0  0  0  0  0  0
  -24.6660  -11.8160   20.7910 C   0  0  0  0  0  0  0  0  0  0  0  0
  -26.3350  -13.0310   20.2190 N   0  0  0  0  0  0  0  0  0  0  0  0
  -25.9610  -11.7580   20.5000 N   0  0  0  0  0  0  0  0  0  0  0  0
  -23.9270  -10.5630   20.9910 C   0  0  0  0  0  0  0  0  0  0  0  0
  -24.3400   -9.6050   21.9410 C   0  0  0  0  0  3  0  0  0  0  0  0
  -23.6010   -8.4170   22.1270 C   0  0  0  0  0  3  0  0  0  0  0  0
  -22.4350   -8.1790   21.3610 C   0  0  0  0  0  0  0  0  0  0  0  0
  -22.0430   -9.1250   20.3970 C   0  0  0  0  0  3  0  0  0  0  0  0
  -22.7830  -10.3040   20.2110 C   0  0  0  0  0  3  0  0  0  0  0  0
  -21.6690   -7.0400   21.4530 O   0  0  0  0  0  0  0  0  0  0  0  0
  -21.5950   -6.3170   22.6160 C   0  0  0  0  0  0  0  0  0  0  0  0
  -21.1580   -6.8960   23.8280 C   0  0  0  0  0  3  0  0  0  0  0  0
  -21.0290   -6.0990   24.9820 C   0  0  0  0  0  3  0  0  0  0  0  0
  -21.3270   -4.7240   24.9270 C   0  0  0  0  0  0  0  0  0  0  0  0
  -21.7570   -4.1440   23.7200 C   0  0  0  0  0  3  0  0  0  0  0  0
  -21.8870   -4.9390   22.5670 C   0  0  0  0  0  0  0  0  0  0  0  0
  -22.2810   -4.3720   21.4020 F   0  0  0  0  0  0  0  0  0  0  0  0
  -21.1970   -3.9560   26.0320 F   0  0  0  0  0  0  0  0  0  0  0  0
  -22.8210  -13.6650   21.0380 C   0  0  0  0  0  0  0  0  0  0  0  0
  -22.0770  -12.9850   21.9020 N   0  0  0  0  0  0  0  0  0  0  0  0
  -22.3980  -14.6860   20.4970 O   0  0  0  0  0  0  0  0  0  0  0  0
  -22.4360  -12.1590   22.3600 H   0  0  0  0  0  0  0  0  0  0  0  0
  -21.1370  -13.2870   22.1070 H   0  0  0  0  0  0  0  0  0  0  0  0
  -25.4810  -15.2940   20.2330 N   0  0  0  0  0  0  0  0  0  0  0  0
  -24.7240  -15.9610   20.3250 H   0  0  0  0  0  0  0  0  0  0  0  0
  -26.3410  -15.7160   19.9080 H   0  0  0  0  0  0  0  0  0  0  0  0
  -29.2890  -23.9240   20.2230 C   0  0  0  0  0  3  0  0  0  0  0  0
  -28.1050  -24.9960   20.0740 C   0  0  0  0  0  3  0  0  0  0  0  0
  -28.3440  -26.4660   20.1700 O   0  0  0  0  0  0  0  0  0  0  0  0
  -24.6030  -31.8660   23.1890 C   0  0  0  0  0  0  0  0  0  0  0  0
  -27.2240  -27.3210   20.1140 C   0  0  0  0  0  0  0  0  0  0  0  0
  -23.3990  -30.4710   21.5480 C   0  0  0  0  0  3  0  0  0  0  0  0
  -24.8520  -28.9320   20.1140 C   0  0  0  0  0  0  0  0  0  0  0  0
  -25.9360  -30.7990   21.3560 C   0  0  0  0  0  2  0  0  0  0  0  0
  -26.0220  -29.4200   20.7090 C   0  0  0  0  0  0  0  0  0  0  0  0
  -27.2090  -28.6270   20.7020 C   0  0  0  0  0  3  0  0  0  0  0  0
  -26.0300  -26.8960   19.4850 C   0  0  0  0  0  3  0  0  0  0  0  0
  -24.8580  -27.6750   19.4940 C   0  0  0  0  0  3  0  0  0  0  0  0
  -23.6120  -29.8020   20.1660 C   0  0  0  0  0  2  0  0  0  0  0  0
  -24.6660  -31.0620   22.0880 N   0  0  0  0  0  0  0  0  0  0  0  0
  -23.5200  -32.1390   23.7270 O   0  0  0  0  0  0  0  0  0  0  0  0
  -22.7420  -29.4500   22.5050 C   0  0  0  0  0  0  0  0  0  0  0  0
  -21.4150  -29.2760   22.3870 N   0  0  0  0  0  0  0  0  0  0  0  0
  -23.4260  -28.8140   23.3130 O   0  0  0  0  0  0  0  0  0  0  0  0
  -20.9220  -29.8340   21.7030 H   0  0  0  0  0  0  0  0  0  0  0  0
  -18.0390  -28.0970   22.9220 C   0  0  0  0  0  0  0  0  0  0  0  0
  -20.6010  -28.3380   23.1600 C   0  0  0  0  0  3  0  0  0  0  0  0
  -20.6890  -26.9110   22.5710 C   0  0  0  0  0  2  0  0  0  0  0  0
  -19.5710  -26.6050   21.5680 C   0  0  0  0  0  2  0  0  0  0  0  0
  -18.1990  -26.7530   22.2300 C   0  0  0  0  0  2  0  0  0  0  0  0
  -19.1670  -28.8480   23.3450 C   0  0  0  0  0  0  0  0  0  0  0  0
  -18.9620  -30.1060   23.9540 C   0  0  0  0  0  3  0  0  0  0  0  0
  -17.6630  -30.6130   24.1400 C   0  0  0  0  0  3  0  0  0  0  0  0
  -16.5490  -29.8580   23.7330 C   0  0  0  0  0  3  0  0  0  0  0  0
  -16.7380  -28.6020   23.1300 C   0  0  0  0  0  3  0  0  0  0  0  0
  -25.8860  -32.5010   23.8110 C   0  0  0  0  0  3  0  0  0  0  0  0
  -26.4130  -31.7190   25.0750 C   0  0  1  0  0  0  0  0  0  0  0  0
  -25.3270  -31.4640   26.1470 C   0  0  0  0  0  1  0  0  0  0  0  0
  -27.0020  -30.3500   24.6640 C   0  0  0  0  0  1  0  0  0  0  0  0
  -27.5680  -32.5100   25.7380 C   0  0  0  0  0  1  0  0  0  0  0  0
  -25.5670  -33.8930   24.1580 N   0  0  0  0  0  0  0  0  0  0  0  0
  -25.8820  -34.9560   23.4050 C   0  0  0  0  0  0  0  0  0  0  0  0
  -26.5420  -34.8670   22.3660 O   0  0  0  0  0  0  0  0  0  0  0  0
  -24.9800  -34.0360   24.9680 H   0  0  0  0  0  0  0  0  0  0  0  0
  -24.1410  -36.7430   23.0790 C   0  0  0  0  0  1  0  0  0  0  0  0
  -25.3890  -36.3370   23.8790 C   0  0  0  0  0  3  0  0  0  0  0  0
  -27.5230  -37.2270   24.7070 C   0  0  0  0  0  1  0  0  0  0  0  0
  -26.4140  -37.3970   23.7710 N   0  0  0  0  0  0  0  0  0  0  0  0
  -26.0040  -38.3130   23.9290 H   0  0  0  0  0  0  0  0  0  0  0  0
  1  2  1  0
  1  3  1  0
  2  4  1  0
  3  5  1  0
  4  5  1  0
  4  9  1  0
  5  6  1  1
  7  9  2  0
  7 10  1  0
  8 11  1  0
  9 12  1  0
 10  8  2  0
 11 13  1  0
 12 14  1  0
 12 11  2  0
 15 16  1  0
 15 10  1  0
 17 22  1  0
 18 19  1  0
 18 17  1  0
 20 19  1  0
 20 27  1  0
 20 21  1  0
 22 16  1  0
 22 21  1  0
 23 16  2  0
 24 25  2  0
 25 44  1  0
 26 25  1  0
 26 29  1  0
 27 24  1  0
 27 28  1  0
 28 26  2  0
 29 30  1  0
 30 31  2  0
 32 35  1  0
 32 31  1  0
 33 32  2  0
 34 33  1  0
 34 29  2  0
 35 36  1  0
 36 37  1  0
 37 38  2  0
 39 38  1  0
 39 43  1  0
 40 39  2  0
 41 36  2  0
 41 40  1  0
 42 41  1  0
 44 45  1  0
 45 48  1  0
 45 47  1  0
 46 44  2  0
 49 50  1  0
 49 24  1  0
 51 49  1  0
 52  5  1  0
 53 54  1  0
 53 52  2  0
 55 66  2  0
 56 54  1  0
 56 61  1  0
 57 65  1  0
 57 67  1  0
 58 64  1  0
 58 60  1  0
 59 65  1  0
 60 59  1  0
 61 60  2  0
 62 63  1  0
 62 56  2  0
 63 58  2  0
 64 57  1  0
 65 55  1  0
 67 69  2  0
 68 67  1  0
 70 68  1  0
 71 80  2  0
 71 76  1  0
 72 68  1  0
 72 76  1  0
 73 72  1  0
 74 75  1  0
 74 73  1  0
 75 71  1  0
 76 77  2  0
 77 78  1  0
 79 78  2  0
 80 79  1  0
 81 55  1  0
 81 86  1  0
 81 82  1  0
 82 85  1  1
 82 83  1  0
 84 82  1  0
 86 89  1  0
 87 91  1  0
 87 86  1  0
 88 87  2  0
 91 90  1  0
 93 91  1  0
 93 94  1  0
 93 92  1  0
M  ISO  4  15 100  16 100  53 101  54 101
M  END
>  <TORSDO>  (50) 
F 20

>  <SCORE>  (50) 
-13.854

>  <name>  (50) 
49

>  <ligand_id>  (50) 
49

>  <original_smiles>  (50) 
[H]c1c([H])c([H])c2c(c1[H])C([H])([H])C([H])([H])C([H])([H])C2([H])N([H])C(=O)C1([H])N(C(=O)C([H])(N([H])C(=O)C([H])(N([H])C([H])([H])[H])C([H])([H])[H])C(C([H])([H])[H])(C([H])([H])[H])C([H])([H])[H])C([H])([H])c2c([H])c(OC([H])([H])C([H])([H])[N+]3([H])C([H])([H])C([H])([H])C([H])([H])C3([H])c3c([H])c(C([H])([H])C(=O)N4C([H])([H])C([H])([H])C([H])([H])C([H])(n5nc(-c6c([H])c([H])c(Oc7c([H])c([H])c(F)c([H])c7F)c([H])c6[H])c(C(=O)N([H])[H])c5N([H])[H])C4([H])[H])c([H])c(F)c3F)c([H])c([H])c2C1([H])[H]

>  <smiles>  (50) 
[H]c1c([H])c([H])c2c(c1[H])C([H])([H])C([H])([H])C([H])([H])C2([H])N([H])C(=O)C1([H])N(C(=O)C([H])(N([H])C(=O)C([H])(N([H])C([H])([H])[H])C([H])([H])[H])C(C([H])([H])[H])(C([H])([H])[H])C([H])([H])[H])C([H])([H])c2c([H])c(OC([H])([H])C([H])([H])[N+]3([H])C([H])([H])C([H])([H])C([H])([H])C3([H])c3c([H])c(C([H])([H])C(=O)N4C([H])([H])C([H])([H])C([H])([H])C([H])(n5nc(-c6c([H])c([H])c(Oc7c([H])c([H])c(F)c([H])c7F)c([H])c6[H])c(C(=O)N([H])[H])c5N([H])[H])C4([H])[H])c([H])c(F)c3F)c([H])c([H])c2C1([H])[H]

$$$$
50:0:0
     RDKit          3D

 96105  0  0  1  0  0  0  0  0999 V2000
  -27.2240  -19.2990   19.8650 C   0  0  0  0  0  2  0  0  0  0  0  0
  -27.1010  -19.4060   18.3420 C   0  0  0  0  0  2  0  0  0  0  0  0
  -27.6340  -21.8660   17.7410 C   0  0  0  0  0  2  0  0  0  0  0  0
  -29.2360  -21.9870   19.5060 C   0  0  0  0  0  2  0  0  0  0  0  0
  -28.7110  -19.5360   20.1880 C   0  0  0  0  0  3  0  0  0  0  0  0
  -28.1640  -20.4330   17.9270 C   0  0  0  0  0  3  0  0  0  0  0  0
  -29.1880  -20.5070   19.0820 C   0  0  0  0  0  3  0  0  0  0  0  0
  -28.7640  -22.7540   18.2660 C   0  0  0  0  0  3  0  0  0  0  0  0
  -29.5190  -18.2220   20.2090 C   0  0  0  0  0  0  0  0  0  0  0  0
  -30.0620  -17.8690   21.3810 N   0  0  0  0  0  0  0  0  0  0  0  0
  -29.6560  -17.5450   19.1880 O   0  0  0  0  0  0  0  0  0  0  0  0
  -29.9040  -18.4850   22.1680 H   0  0  0  0  0  0  0  0  0  0  0  0
  -30.9380  -16.7170   21.6150 C   0  0  0  0  0  2  0  0  0  0  0  0
  -30.2050  -15.3510   21.5220 C   0  0  0  0  0  2  0  0  0  0  0  0
  -30.7400  -14.3580   20.4660 C   0  0  0  0  0  0  0  0  0  0  0  0
  -30.3630  -12.3160   19.1160 C   0  0  0  0  0  2  0  0  0  0  0  0
  -29.3970  -12.6060   17.9510 C   0  0  0  0  0  2  0  0  0  0  0  0
  -27.9300  -12.4740   18.4030 C   0  0  0  0  0  2  0  0  0  0  0  0
  -27.6400  -13.2500   19.7160 C   0  0  0  0  0  3  0  0  0  0  0  0
  -28.7050  -12.9210   20.7860 C   0  0  0  0  0  2  0  0  0  0  0  0
  -30.0270  -13.2280   20.2180 N   0  0  0  0  0  0  0  0  0  0  0  0
  -31.7900  -14.6120   19.8650 O   0  0  0  0  0  0  0  0  0  0  0  0
  -25.2480  -13.8750   20.4300 C   0  0  0  0  0  0  0  0  0  0  0  0
  -24.1780  -13.1110   20.8100 C   0  0  0  0  0  0  0  0  0  0  0  0
  -24.6320  -11.7570   20.7830 C   0  0  0  0  0  0  0  0  0  0  0  0
  -26.2870  -12.9880   20.2010 N   0  0  0  0  0  0  0  0  0  0  0  0
  -25.9190  -11.7080   20.4670 N   0  0  0  0  0  0  0  0  0  0  0  0
  -23.9020  -10.4980   20.9870 C   0  0  0  0  0  0  0  0  0  0  0  0
  -24.3400   -9.5340   21.9220 C   0  0  0  0  0  3  0  0  0  0  0  0
  -23.6130   -8.3390   22.1120 C   0  0  0  0  0  3  0  0  0  0  0  0
  -22.4340   -8.1000   21.3660 C   0  0  0  0  0  0  0  0  0  0  0  0
  -22.0150   -9.0530   20.4210 C   0  0  0  0  0  3  0  0  0  0  0  0
  -22.7430  -10.2390   20.2300 C   0  0  0  0  0  3  0  0  0  0  0  0
  -21.6780   -6.9570   21.4650 O   0  0  0  0  0  0  0  0  0  0  0  0
  -21.6370   -6.2180   22.6200 C   0  0  0  0  0  0  0  0  0  0  0  0
  -21.2300   -6.7800   23.8500 C   0  0  0  0  0  3  0  0  0  0  0  0
  -21.1360   -5.9690   24.9980 C   0  0  0  0  0  3  0  0  0  0  0  0
  -21.4400   -4.5970   24.9180 C   0  0  0  0  0  0  0  0  0  0  0  0
  -21.8400   -4.0350   23.6940 C   0  0  0  0  0  3  0  0  0  0  0  0
  -21.9370   -4.8430   22.5470 C   0  0  0  0  0  0  0  0  0  0  0  0
  -22.3030   -4.2920   21.3650 F   0  0  0  0  0  0  0  0  0  0  0  0
  -21.3420   -3.8160   26.0190 F   0  0  0  0  0  0  0  0  0  0  0  0
  -22.7840  -13.5950   21.0910 C   0  0  0  0  0  0  0  0  0  0  0  0
  -22.0620  -12.9030   21.9660 N   0  0  0  0  0  0  0  0  0  0  0  0
  -22.3460  -14.6200   20.5730 O   0  0  0  0  0  0  0  0  0  0  0  0
  -22.4290  -12.0730   22.4050 H   0  0  0  0  0  0  0  0  0  0  0  0
  -21.1270  -13.2070   22.1980 H   0  0  0  0  0  0  0  0  0  0  0  0
  -25.4220  -15.2430   20.2420 N   0  0  0  0  0  0  0  0  0  0  0  0
  -24.6620  -15.9070   20.3440 H   0  0  0  0  0  0  0  0  0  0  0  0
  -26.2770  -15.6670   19.9030 H   0  0  0  0  0  0  0  0  0  0  0  0
  -28.3430  -24.1440   18.5470 N   0  0  0  0  0  4  0  0  0  0  0  0
  -27.7270  -24.1540   19.3460 H   0  0  0  0  0  0  0  0  0  0  0  0
  -27.8160  -24.4660   17.7480 H   0  0  0  0  0  0  0  0  0  0  0  0
  -29.4670  -25.0860   18.7670 C   0  0  0  0  0  2  0  0  0  0  0  0
  -29.0030  -26.5460   18.8920 C   0  0  0  0  0  2  0  0  0  0  0  0
  -28.4610  -26.7850   20.1930 O   0  0  0  0  0  0  0  0  0  0  0  0
  -24.5600  -31.9030   23.2450 C   0  0  0  0  0  0  0  0  0  0  0  0
  -27.2810  -27.4850   20.2110 C   0  0  0  0  0  0  0  0  0  0  0  0
  -23.3850  -30.4810   21.5960 C   0  0  0  0  0  3  0  0  0  0  0  0
  -24.8680  -28.9420   20.2080 C   0  0  0  0  0  0  0  0  0  0  0  0
  -25.9080  -30.8580   21.4330 C   0  0  0  0  0  2  0  0  0  0  0  0
  -26.0110  -29.4820   20.8120 C   0  0  0  0  0  0  0  0  0  0  0  0
  -27.2190  -28.7530   20.8260 C   0  0  0  0  0  3  0  0  0  0  0  0
  -26.1180  -26.9420   19.6250 C   0  0  0  0  0  3  0  0  0  0  0  0
  -24.9130  -27.6670   19.6200 C   0  0  0  0  0  3  0  0  0  0  0  0
  -23.6180  -29.7890   20.2260 C   0  0  0  0  0  2  0  0  0  0  0  0
  -24.6340  -31.0960   22.1500 N   0  0  0  0  0  0  0  0  0  0  0  0
  -23.4690  -32.1740   23.7680 O   0  0  0  0  0  0  0  0  0  0  0  0
  -22.7270  -29.4630   22.5560 C   0  0  0  0  0  0  0  0  0  0  0  0
  -21.4060  -29.2720   22.4090 N   0  0  0  0  0  0  0  0  0  0  0  0
  -23.4020  -28.8480   23.3850 O   0  0  0  0  0  0  0  0  0  0  0  0
  -20.9230  -29.8210   21.7130 H   0  0  0  0  0  0  0  0  0  0  0  0
  -18.0300  -28.0720   22.8660 C   0  0  0  0  0  0  0  0  0  0  0  0
  -20.5830  -28.3360   23.1720 C   0  0  0  0  0  3  0  0  0  0  0  0
  -20.6980  -26.9020   22.6040 C   0  0  0  0  0  2  0  0  0  0  0  0
  -19.6090  -26.5730   21.5770 C   0  0  0  0  0  2  0  0  0  0  0  0
  -18.2190  -26.7190   22.2000 C   0  0  0  0  0  2  0  0  0  0  0  0
  -19.1410  -28.8380   23.3080 C   0  0  0  0  0  0  0  0  0  0  0  0
  -18.9130  -30.1050   23.8880 C   0  0  0  0  0  3  0  0  0  0  0  0
  -17.6050  -30.6050   24.0320 C   0  0  0  0  0  3  0  0  0  0  0  0
  -16.5080  -29.8340   23.6090 C   0  0  0  0  0  3  0  0  0  0  0  0
  -16.7210  -28.5710   23.0310 C   0  0  0  0  0  3  0  0  0  0  0  0
  -25.8350  -32.5450   23.8780 C   0  0  0  0  0  3  0  0  0  0  0  0
  -25.5160  -33.9450   24.1910 N   0  0  0  0  0  0  0  0  0  0  0  0
  -25.8610  -34.9910   23.4290 C   0  0  0  0  0  0  0  0  0  0  0  0
  -26.5520  -34.8790   22.4130 O   0  0  0  0  0  0  0  0  0  0  0  0
  -24.9040  -34.1050   24.9790 H   0  0  0  0  0  0  0  0  0  0  0  0
  -24.1360  -36.7740   23.0160 C   0  0  0  0  0  1  0  0  0  0  0  0
  -25.3570  -36.3800   23.8610 C   0  0  0  0  0  3  0  0  0  0  0  0
  -27.4690  -37.2750   24.7400 C   0  0  0  0  0  1  0  0  0  0  0  0
  -26.3900  -37.4360   23.7690 N   0  0  0  0  0  0  0  0  0  0  0  0
  -25.9770  -38.3550   23.9040 H   0  0  0  0  0  0  0  0  0  0  0  0
  -26.3400  -31.7850   25.1660 C   0  0  1  0  0  0  0  0  0  0  0  0
  -25.2350  -31.5480   26.2220 C   0  0  0  0  0  1  0  0  0  0  0  0
  -26.9330  -30.4070   24.7900 C   0  0  0  0  0  1  0  0  0  0  0  0
  -27.4770  -32.5890   25.8390 C   0  0  0  0  0  1  0  0  0  0  0  0
  1  5  1  0
  2  1  1  0
  3  8  1  0
  5  9  1  0
  6  3  1  0
  6  2  1  0
  6  7  1  0
  7  4  1  0
  7  5  1  0
  8 51  1  0
  8  4  1  0
  9 10  1  0
 10 13  1  0
 10 12  1  0
 11  9  2  0
 14 13  1  0
 15 14  1  0
 16 21  1  0
 17 18  1  0
 17 16  1  0
 19 18  1  0
 19 26  1  0
 19 20  1  0
 21 15  1  0
 21 20  1  0
 22 15  2  0
 23 24  2  0
 24 43  1  0
 25 24  1  0
 25 28  1  0
 26 23  1  0
 26 27  1  0
 27 25  2  0
 28 29  1  0
 29 30  2  0
 31 34  1  0
 31 30  1  0
 32 31  2  0
 33 32  1  0
 33 28  2  0
 34 35  1  0
 35 36  1  0
 36 37  2  0
 38 37  1  0
 38 42  1  0
 39 38  2  0
 40 35  2  0
 40 39  1  0
 41 40  1  0
 43 44  1  0
 44 47  1  0
 44 46  1  0
 45 43  2  0
 48 49  1  0
 48 23  1  0
 50 48  1  0
 51 54  1  0
 51 52  1  0
 53 51  1  0
 54 55  1  0
 55 56  1  0
 56 58  1  0
 57 68  2  0
 58 63  1  0
 59 67  1  0
 59 69  1  0
 60 66  1  0
 60 62  1  0
 61 67  1  0
 62 63  2  0
 62 61  1  0
 64 58  2  0
 65 64  1  0
 65 60  2  0
 66 59  1  0
 67 57  1  0
 69 71  2  0
 70 69  1  0
 72 70  1  0
 73 82  2  0
 73 78  1  0
 74 70  1  0
 74 78  1  0
 75 74  1  0
 76 77  1  0
 76 75  1  0
 77 73  1  0
 78 79  2  0
 79 80  1  0
 81 80  2  0
 82 81  1  0
 83 57  1  0
 83 84  1  0
 83 93  1  0
 84 87  1  0
 85 89  1  0
 85 84  1  0
 86 85  2  0
 89 88  1  0
 91 89  1  0
 91 92  1  0
 91 90  1  0
 93 96  1  1
 93 94  1  0
 95 93  1  0
M  ISO  4  14 100  15 100  55 101  56 101
M  END
>  <TORSDO>  (51) 
F 22

>  <SCORE>  (51) 
-13.275

>  <name>  (51) 
50

>  <ligand_id>  (51) 
50

>  <original_smiles>  (51) 
[H]c1c([H])c([H])c2c(c1[H])C([H])([H])C([H])([H])C([H])([H])C2([H])N([H])C(=O)C1([H])N(C(=O)C([H])(N([H])C(=O)C([H])(N([H])C([H])([H])[H])C([H])([H])[H])C(C([H])([H])[H])(C([H])([H])[H])C([H])([H])[H])C([H])([H])c2c([H])c(OC([H])([H])C([H])([H])[N+]([H])([H])C3([H])C([H])([H])C4([H])C([H])([H])C([H])([H])C([H])(C(=O)N([H])C([H])([H])C([H])([H])C(=O)N5C([H])([H])C([H])([H])C([H])([H])C([H])(n6nc(-c7c([H])c([H])c(Oc8c([H])c([H])c(F)c([H])c8F)c([H])c7[H])c(C(=O)N([H])[H])c6N([H])[H])C5([H])[H])C4([H])C3([H])[H])c([H])c([H])c2C1([H])[H]

>  <smiles>  (51) 
[H]c1c([H])c([H])c2c(c1[H])C([H])([H])C([H])([H])C([H])([H])C2([H])N([H])C(=O)C1([H])N(C(=O)C([H])(N([H])C(=O)C([H])(N([H])C([H])([H])[H])C([H])([H])[H])C(C([H])([H])[H])(C([H])([H])[H])C([H])([H])[H])C([H])([H])c2c([H])c(OC([H])([H])C([H])([H])[N+]([H])([H])C3([H])C([H])([H])C4([H])C([H])([H])C([H])([H])C([H])(C(=O)N([H])C([H])([H])C([H])([H])C(=O)N5C([H])([H])C([H])([H])C([H])([H])C([H])(n6nc(-c7c([H])c([H])c(Oc8c([H])c([H])c(F)c([H])c8F)c([H])c7[H])c(C(=O)N([H])[H])c6N([H])[H])C5([H])[H])C4([H])C3([H])[H])c([H])c([H])c2C1([H])[H]

$$$$
51:0:0
     RDKit          3D

 90 98  0  0  1  0  0  0  0  0999 V2000
  -28.9910  -24.0000   22.7170 C   0  0  0  0  0  3  0  0  0  0  0  0
  -29.1270  -22.7940   21.9990 C   0  0  0  0  0  3  0  0  0  0  0  0
  -28.6670  -25.2090   22.0700 C   0  0  0  0  0  3  0  0  0  0  0  0
  -28.9540  -22.7470   20.5970 C   0  0  0  0  0  0  0  0  0  0  0  0
  -28.6870  -24.0210   19.9390 C   0  0  0  0  0  0  0  0  0  0  0  0
  -28.5160  -25.2670   20.6700 C   0  0  0  0  0  0  0  0  0  0  0  0
  -28.6400  -24.0680   18.4210 C   0  0  0  0  0  1  0  0  0  0  0  0
  -28.3790  -26.5500   20.0850 O   0  0  0  0  0  0  0  0  0  0  0  0
  -24.5910  -31.8870   23.2340 C   0  0  0  0  0  0  0  0  0  0  0  0
  -27.2240  -27.3400   20.1800 C   0  0  0  0  0  0  0  0  0  0  0  0
  -23.3850  -30.4840   21.5930 C   0  0  0  0  0  3  0  0  0  0  0  0
  -24.8420  -28.9280   20.1730 C   0  0  0  0  0  0  0  0  0  0  0  0
  -25.9190  -30.8140   21.4000 C   0  0  0  0  0  2  0  0  0  0  0  0
  -26.0070  -29.4270   20.7740 C   0  0  0  0  0  0  0  0  0  0  0  0
  -27.1980  -28.6400   20.7740 C   0  0  0  0  0  3  0  0  0  0  0  0
  -26.0380  -26.8860   19.5680 C   0  0  0  0  0  3  0  0  0  0  0  0
  -24.8580  -27.6610   19.5620 C   0  0  0  0  0  3  0  0  0  0  0  0
  -23.6010  -29.8030   20.2160 C   0  0  0  0  0  2  0  0  0  0  0  0
  -24.6510  -31.0800   22.1350 N   0  0  0  0  0  0  0  0  0  0  0  0
  -23.5080  -32.1560   23.7750 O   0  0  0  0  0  0  0  0  0  0  0  0
  -22.7290  -29.4690   22.5580 C   0  0  0  0  0  0  0  0  0  0  0  0
  -21.4020  -29.2900   22.4420 N   0  0  0  0  0  0  0  0  0  0  0  0
  -23.4160  -28.8440   23.3700 O   0  0  0  0  0  0  0  0  0  0  0  0
  -20.9060  -29.8460   21.7590 H   0  0  0  0  0  0  0  0  0  0  0  0
  -18.0340  -28.0770   22.9570 C   0  0  0  0  0  0  0  0  0  0  0  0
  -20.5910  -28.3530   23.2210 C   0  0  0  0  0  3  0  0  0  0  0  0
  -20.7010  -26.9190   22.6520 C   0  0  0  0  0  2  0  0  0  0  0  0
  -19.6000  -26.5840   21.6420 C   0  0  0  0  0  2  0  0  0  0  0  0
  -18.2180  -26.7270   22.2860 C   0  0  0  0  0  2  0  0  0  0  0  0
  -19.1480  -28.8470   23.3820 C   0  0  0  0  0  0  0  0  0  0  0  0
  -18.9220  -30.1110   23.9720 C   0  0  0  0  0  3  0  0  0  0  0  0
  -17.6150  -30.6050   24.1370 C   0  0  0  0  0  3  0  0  0  0  0  0
  -16.5140  -29.8320   23.7260 C   0  0  0  0  0  3  0  0  0  0  0  0
  -16.7240  -28.5700   23.1430 C   0  0  0  0  0  3  0  0  0  0  0  0
  -25.8730  -32.5280   23.8470 C   0  0  0  0  0  3  0  0  0  0  0  0
  -26.4040  -31.7550   25.1180 C   0  0  1  0  0  0  0  0  0  0  0  0
  -25.3200  -31.5140   26.1940 C   0  0  0  0  0  1  0  0  0  0  0  0
  -26.9840  -30.3780   24.7170 C   0  0  0  0  0  1  0  0  0  0  0  0
  -27.5580  -32.5490   25.7760 C   0  0  0  0  0  1  0  0  0  0  0  0
  -25.5570  -33.9230   24.1870 N   0  0  0  0  0  0  0  0  0  0  0  0
  -25.8770  -34.9810   23.4310 C   0  0  0  0  0  0  0  0  0  0  0  0
  -26.5350  -34.8860   22.3920 O   0  0  0  0  0  0  0  0  0  0  0  0
  -24.9680  -34.0690   24.9930 H   0  0  0  0  0  0  0  0  0  0  0  0
  -24.1290  -36.7640   23.1170 C   0  0  0  0  0  1  0  0  0  0  0  0
  -25.3900  -36.3660   23.9010 C   0  0  0  0  0  3  0  0  0  0  0  0
  -27.5390  -37.2600   24.6860 C   0  0  0  0  0  1  0  0  0  0  0  0
  -26.4140  -37.4260   23.7720 N   0  0  0  0  0  0  0  0  0  0  0  0
  -26.0060  -38.3420   23.9330 H   0  0  0  0  0  0  0  0  0  0  0  0
  -29.0190  -21.3380   19.8550 C   0  0  0  0  0  3  0  0  0  0  0  0
  -29.6670  -20.0370   20.5670 C   0  0  0  0  0  3  0  0  0  0  0  0
  -29.4050  -18.5370   20.0240 C   0  0  0  0  0  3  0  0  0  0  0  0
  -30.2590  -17.3300   20.6750 C   0  0  0  0  0  3  0  0  0  0  0  0
  -30.5830  -14.7440   20.3500 C   0  0  0  0  0  0  0  0  0  0  0  0
  -30.3650  -12.4710   19.3540 C   0  0  0  0  0  2  0  0  0  0  0  0
  -29.4170  -12.5400   18.1380 C   0  0  0  0  0  2  0  0  0  0  0  0
  -27.9420  -12.3940   18.5690 C   0  0  0  0  0  2  0  0  0  0  0  0
  -27.5840  -13.2860   19.7900 C   0  0  0  0  0  3  0  0  0  0  0  0
  -28.6500  -13.1920   20.9040 C   0  0  0  0  0  2  0  0  0  0  0  0
  -29.9410  -13.5310   20.2930 N   0  0  0  0  0  0  0  0  0  0  0  0
  -31.7770  -14.8280   20.0600 O   0  0  0  0  0  0  0  0  0  0  0  0
  -29.8180  -15.8810   20.5280 N   0  0  0  0  0  0  0  0  0  0  0  0
  -28.8330  -15.7150   20.6760 H   0  0  0  0  0  0  0  0  0  0  0  0
  -25.2040  -13.8930   20.5310 C   0  0  0  0  0  0  0  0  0  0  0  0
  -24.1350  -13.1260   20.9050 C   0  0  0  0  0  0  0  0  0  0  0  0
  -24.5920  -11.7720   20.8710 C   0  0  0  0  0  0  0  0  0  0  0  0
  -26.2420  -13.0080   20.2920 N   0  0  0  0  0  0  0  0  0  0  0  0
  -25.8820  -11.7280   20.5630 N   0  0  0  0  0  0  0  0  0  0  0  0
  -23.8600  -10.5130   21.0640 C   0  0  0  0  0  0  0  0  0  0  0  0
  -24.3080   -9.5370   21.9800 C   0  0  0  0  0  3  0  0  0  0  0  0
  -23.5790   -8.3420   22.1660 C   0  0  0  0  0  3  0  0  0  0  0  0
  -22.3880   -8.1150   21.4360 C   0  0  0  0  0  0  0  0  0  0  0  0
  -21.9580   -9.0820   20.5100 C   0  0  0  0  0  3  0  0  0  0  0  0
  -22.6870  -10.2680   20.3220 C   0  0  0  0  0  3  0  0  0  0  0  0
  -21.6300   -6.9740   21.5290 O   0  0  0  0  0  0  0  0  0  0  0  0
  -21.6170   -6.2070   22.6680 C   0  0  0  0  0  0  0  0  0  0  0  0
  -21.2610   -6.7450   23.9240 C   0  0  0  0  0  3  0  0  0  0  0  0
  -21.2000   -5.9090   25.0560 C   0  0  0  0  0  3  0  0  0  0  0  0
  -21.4800   -4.5340   24.9300 C   0  0  0  0  0  0  0  0  0  0  0  0
  -21.8240   -3.9930   23.6780 C   0  0  0  0  0  3  0  0  0  0  0  0
  -21.8910   -4.8300   22.5490 C   0  0  0  0  0  0  0  0  0  0  0  0
  -22.2060   -4.3010   21.3400 F   0  0  0  0  0  0  0  0  0  0  0  0
  -21.4080   -3.7290   26.0150 F   0  0  0  0  0  0  0  0  0  0  0  0
  -22.7390  -13.6080   21.1740 C   0  0  0  0  0  0  0  0  0  0  0  0
  -22.0100  -12.9210   22.0450 N   0  0  0  0  0  0  0  0  0  0  0  0
  -22.3030  -14.6300   20.6460 O   0  0  0  0  0  0  0  0  0  0  0  0
  -22.3770  -12.0950   22.4940 H   0  0  0  0  0  0  0  0  0  0  0  0
  -21.0740  -13.2270   22.2690 H   0  0  0  0  0  0  0  0  0  0  0  0
  -25.3750  -15.2630   20.3430 N   0  0  0  0  0  0  0  0  0  0  0  0
  -24.6130  -15.9200   20.4740 H   0  0  0  0  0  0  0  0  0  0  0  0
  -26.2070  -15.6960   19.9620 H   0  0  0  0  0  0  0  0  0  0  0  0
  2  1  2  0
  3  1  1  0
  4  2  1  0
  5  4  2  0
  5  6  1  0
  6  3  2  0
  7  5  1  0
  8 10  1  0
  8  6  1  0
  9 20  2  0
 10 15  1  0
 11 19  1  0
 11 21  1  0
 12 18  1  0
 12 14  1  0
 13 19  1  0
 14 13  1  0
 15 14  2  0
 16 10  2  0
 17 16  1  0
 17 12  2  0
 18 11  1  0
 19  9  1  0
 21 23  2  0
 22 21  1  0
 24 22  1  0
 25 34  2  0
 25 30  1  0
 26 22  1  0
 26 30  1  0
 27 26  1  0
 28 29  1  0
 28 27  1  0
 29 25  1  0
 30 31  2  0
 31 32  1  0
 33 32  2  0
 34 33  1  0
 35  9  1  0
 35 40  1  0
 35 36  1  0
 36 39  1  1
 36 37  1  0
 38 36  1  0
 40 43  1  0
 41 45  1  0
 41 40  1  0
 42 41  2  0
 45 44  1  0
 47 45  1  0
 47 48  1  0
 47 46  1  0
 49 50  2  0
 49  4  1  0
 51 50  1  0
 51 52  2  0
 53 61  1  0
 54 59  1  0
 55 56  1  0
 55 54  1  0
 57 56  1  0
 57 66  1  0
 57 58  1  0
 59 53  1  0
 59 58  1  0
 60 53  2  0
 61 52  1  0
 61 62  1  0
 63 64  2  0
 64 83  1  0
 65 64  1  0
 65 68  1  0
 66 63  1  0
 66 67  1  0
 67 65  2  0
 68 69  1  0
 69 70  2  0
 71 74  1  0
 71 70  1  0
 72 71  2  0
 73 72  1  0
 73 68  2  0
 74 75  1  0
 75 76  1  0
 76 77  2  0
 78 77  1  0
 78 82  1  0
 79 78  2  0
 80 75  2  0
 80 79  1  0
 81 80  1  0
 83 84  1  0
 84 87  1  0
 84 86  1  0
 85 83  2  0
 88 89  1  0
 88 63  1  0
 90 88  1  0
M  ISO  4   6 101   8 101  53 100  61 100
M  END
>  <TORSDO>  (52) 
F 20

>  <SCORE>  (52) 
-13.727

>  <name>  (52) 
51

>  <ligand_id>  (52) 
51

>  <original_smiles>  (52) 
[H]c1c([H])c(Oc2c([H])c([H])c3c(c2[H])C([H])([H])N(C(=O)C([H])(N([H])C(=O)C([H])(N([H])C([H])([H])[H])C([H])([H])[H])C(C([H])([H])[H])(C([H])([H])[H])C([H])([H])[H])C([H])(C(=O)N([H])C2([H])c4c([H])c([H])c([H])c([H])c4C([H])([H])C([H])([H])C2([H])[H])C3([H])[H])c(C([H])([H])[H])c(C([H])([H])C([H])([H])C([H])([H])C([H])([H])N([H])C(=O)N2C([H])([H])C([H])([H])C([H])([H])C([H])(n3nc(-c4c([H])c([H])c(Oc5c([H])c([H])c(F)c([H])c5F)c([H])c4[H])c(C(=O)N([H])[H])c3N([H])[H])C2([H])[H])c1[H]

>  <smiles>  (52) 
[H]c1c([H])c(Oc2c([H])c([H])c3c(c2[H])C([H])([H])N(C(=O)C([H])(N([H])C(=O)C([H])(N([H])C([H])([H])[H])C([H])([H])[H])C(C([H])([H])[H])(C([H])([H])[H])C([H])([H])[H])C([H])(C(=O)N([H])C2([H])c4c([H])c([H])c([H])c([H])c4C([H])([H])C([H])([H])C2([H])[H])C3([H])[H])c(C([H])([H])[H])c(C([H])([H])C([H])([H])C([H])([H])C([H])([H])N([H])C(=O)N2C([H])([H])C([H])([H])C([H])([H])C([H])(n3nc(-c4c([H])c([H])c(Oc5c([H])c([H])c(F)c([H])c5F)c([H])c4[H])c(C(=O)N([H])[H])c3N([H])[H])C2([H])[H])c1[H]

$$$$
52:0:0
     RDKit          3D

 89 97  0  0  1  0  0  0  0  0999 V2000
  -28.4520  -22.1840   21.3570 C   0  0  0  0  0  3  0  0  0  0  0  0
  -28.7380  -22.1810   19.0790 C   0  0  0  0  0  3  0  0  0  0  0  0
  -28.7360  -21.2950   20.2370 C   0  0  0  0  0  0  0  0  0  0  0  0
  -28.2330  -23.6570   21.3420 C   0  0  0  0  0  0  0  0  0  0  0  0
  -28.5220  -23.6550   19.0460 C   0  0  0  0  0  0  0  0  0  0  0  0
  -28.2270  -24.5330   20.1770 C   0  0  0  0  0  0  0  0  0  0  0  0
  -28.0060  -24.3360   22.6780 C   0  0  0  0  0  1  0  0  0  0  0  0
  -28.6370  -24.3280   17.6910 C   0  0  0  0  0  1  0  0  0  0  0  0
  -28.2140  -26.0630   20.1670 O   0  0  0  0  0  0  0  0  0  0  0  0
  -24.6570  -31.9400   23.2370 C   0  0  0  0  0  0  0  0  0  0  0  0
  -27.1490  -27.0890   20.1770 C   0  0  0  0  0  0  0  0  0  0  0  0
  -23.4300  -30.5540   21.6110 C   0  0  0  0  0  3  0  0  0  0  0  0
  -24.8470  -28.9430   20.1690 C   0  0  0  0  0  0  0  0  0  0  0  0
  -25.9900  -30.7620   21.4250 C   0  0  0  0  0  2  0  0  0  0  0  0
  -26.0420  -29.3540   20.7720 C   0  0  0  0  0  0  0  0  0  0  0  0
  -27.1850  -28.4460   20.7540 C   0  0  0  0  0  3  0  0  0  0  0  0
  -25.9250  -26.8120   19.5300 C   0  0  0  0  0  3  0  0  0  0  0  0
  -24.8100  -27.6900   19.5310 C   0  0  0  0  0  3  0  0  0  0  0  0
  -23.6340  -29.8680   20.2320 C   0  0  0  0  0  2  0  0  0  0  0  0
  -24.7140  -31.1120   22.1450 N   0  0  0  0  0  0  0  0  0  0  0  0
  -23.5790  -32.2340   23.7760 O   0  0  0  0  0  0  0  0  0  0  0  0
  -22.7470  -29.5610   22.5850 C   0  0  0  0  0  0  0  0  0  0  0  0
  -21.4170  -29.3890   22.4660 N   0  0  0  0  0  0  0  0  0  0  0  0
  -23.4180  -28.9430   23.4150 O   0  0  0  0  0  0  0  0  0  0  0  0
  -20.9290  -29.9370   21.7710 H   0  0  0  0  0  0  0  0  0  0  0  0
  -18.0440  -28.1560   22.9760 C   0  0  0  0  0  0  0  0  0  0  0  0
  -20.6000  -28.4520   23.2440 C   0  0  0  0  0  3  0  0  0  0  0  0
  -20.7190  -27.0150   22.6870 C   0  0  0  0  0  2  0  0  0  0  0  0
  -19.6230  -26.6690   21.6720 C   0  0  0  0  0  2  0  0  0  0  0  0
  -18.2390  -26.8040   22.3110 C   0  0  0  0  0  2  0  0  0  0  0  0
  -19.1530  -28.9370   23.4000 C   0  0  0  0  0  0  0  0  0  0  0  0
  -18.9170  -30.2010   23.9840 C   0  0  0  0  0  3  0  0  0  0  0  0
  -17.6040  -30.6850   24.1460 C   0  0  0  0  0  3  0  0  0  0  0  0
  -16.5110  -29.9030   23.7360 C   0  0  0  0  0  3  0  0  0  0  0  0
  -16.7320  -28.6400   23.1570 C   0  0  0  0  0  3  0  0  0  0  0  0
  -25.9430  -32.5720   23.8520 C   0  0  0  0  0  3  0  0  0  0  0  0
  -25.6390  -33.9720   24.1960 N   0  0  0  0  0  0  0  0  0  0  0  0
  -25.9410  -35.0330   23.4360 C   0  0  0  0  0  0  0  0  0  0  0  0
  -26.5700  -34.9350   22.3780 O   0  0  0  0  0  0  0  0  0  0  0  0
  -25.0750  -34.1190   25.0200 H   0  0  0  0  0  0  0  0  0  0  0  0
  -24.1930  -36.8270   23.1830 C   0  0  0  0  0  1  0  0  0  0  0  0
  -25.4770  -36.4210   23.9230 C   0  0  0  0  0  3  0  0  0  0  0  0
  -27.6480  -37.3180   24.6440 C   0  0  0  0  0  1  0  0  0  0  0  0
  -26.5000  -37.4780   23.7560 N   0  0  0  0  0  0  0  0  0  0  0  0
  -26.0980  -38.3970   23.9190 H   0  0  0  0  0  0  0  0  0  0  0  0
  -26.4630  -31.8000   25.1280 C   0  0  1  0  0  0  0  0  0  0  0  0
  -25.3750  -31.5720   26.2050 C   0  0  0  0  0  1  0  0  0  0  0  0
  -27.0340  -30.4170   24.7420 C   0  0  0  0  0  1  0  0  0  0  0  0
  -27.6240  -32.5870   25.7800 C   0  0  0  0  0  1  0  0  0  0  0  0
  -28.7060  -19.5510   20.2620 C   0  0  0  0  0  3  0  0  0  0  0  0
  -29.8670  -18.2040   20.2500 C   0  0  0  0  0  3  0  0  0  0  0  0
  -30.3740  -15.3190   20.1470 C   0  0  0  0  0  0  0  0  0  0  0  0
  -30.3290  -12.9040   19.2270 C   0  0  0  0  0  2  0  0  0  0  0  0
  -29.3750  -12.7410   18.0180 C   0  0  0  0  0  2  0  0  0  0  0  0
  -27.9350  -12.4690   18.4900 C   0  0  0  0  0  2  0  0  0  0  0  0
  -27.5170  -13.4030   19.6520 C   0  0  0  0  0  3  0  0  0  0  0  0
  -28.5950  -13.5140   20.7500 C   0  0  0  0  0  2  0  0  0  0  0  0
  -29.8100  -14.0200   20.0950 N   0  0  0  0  0  0  0  0  0  0  0  0
  -31.5850  -15.3440   19.8870 O   0  0  0  0  0  0  0  0  0  0  0  0
  -29.5990  -16.5650   20.2890 N   0  0  0  0  0  0  0  0  0  0  0  0
  -28.6250  -16.3520   20.4500 H   0  0  0  0  0  0  0  0  0  0  0  0
  -25.1580  -13.9320   20.4690 C   0  0  0  0  0  0  0  0  0  0  0  0
  -24.1140  -13.1420   20.8580 C   0  0  0  0  0  0  0  0  0  0  0  0
  -24.5950  -11.7960   20.8040 C   0  0  0  0  0  0  0  0  0  0  0  0
  -26.2040  -13.0710   20.1910 N   0  0  0  0  0  0  0  0  0  0  0  0
  -25.8790  -11.7800   20.4620 N   0  0  0  0  0  0  0  0  0  0  0  0
  -23.8870  -10.5240   20.9980 C   0  0  0  0  0  0  0  0  0  0  0  0
  -24.3360   -9.5620   21.9280 C   0  0  0  0  0  3  0  0  0  0  0  0
  -23.6250   -8.3560   22.1130 C   0  0  0  0  0  3  0  0  0  0  0  0
  -22.4470   -8.1060   21.3680 C   0  0  0  0  0  0  0  0  0  0  0  0
  -22.0150   -9.0590   20.4270 C   0  0  0  0  0  3  0  0  0  0  0  0
  -22.7290  -10.2540   20.2410 C   0  0  0  0  0  3  0  0  0  0  0  0
  -21.7040   -6.9540   21.4630 O   0  0  0  0  0  0  0  0  0  0  0  0
  -21.6590   -6.2200   22.6210 C   0  0  0  0  0  0  0  0  0  0  0  0
  -21.1860   -6.7680   23.8330 C   0  0  0  0  0  3  0  0  0  0  0  0
  -21.0910   -5.9580   24.9820 C   0  0  0  0  0  3  0  0  0  0  0  0
  -21.4600   -4.6010   24.9200 C   0  0  0  0  0  0  0  0  0  0  0  0
  -21.9280   -4.0530   23.7130 C   0  0  0  0  0  3  0  0  0  0  0  0
  -22.0240   -4.8600   22.5660 C   0  0  0  0  0  0  0  0  0  0  0  0
  -22.4550   -4.3210   21.3990 F   0  0  0  0  0  0  0  0  0  0  0  0
  -21.3630   -3.8210   26.0220 F   0  0  0  0  0  0  0  0  0  0  0  0
  -22.7190  -13.6010   21.1610 C   0  0  0  0  0  0  0  0  0  0  0  0
  -22.0180  -12.8970   22.0420 N   0  0  0  0  0  0  0  0  0  0  0  0
  -22.2580  -14.6220   20.6500 O   0  0  0  0  0  0  0  0  0  0  0  0
  -22.4050  -12.0720   22.4770 H   0  0  0  0  0  0  0  0  0  0  0  0
  -21.0820  -13.1860   22.2880 H   0  0  0  0  0  0  0  0  0  0  0  0
  -25.2990  -15.3070   20.2970 N   0  0  0  0  0  0  0  0  0  0  0  0
  -24.5210  -15.9450   20.4240 H   0  0  0  0  0  0  0  0  0  0  0  0
  -26.1170  -15.7550   19.9060 H   0  0  0  0  0  0  0  0  0  0  0  0
  2  3  1  0
  3 50  1  0
  3  1  2  0
  4  1  1  0
  4  7  1  0
  5  2  2  0
  5  6  1  0
  6  4  2  0
  8  5  1  0
  9 11  1  0
  9  6  1  0
 10 21  2  0
 11 16  1  0
 12 20  1  0
 12 22  1  0
 13 19  1  0
 13 15  1  0
 14 20  1  0
 15 14  1  0
 16 15  2  0
 17 18  1  0
 17 11  2  0
 18 13  2  0
 19 12  1  0
 20 10  1  0
 22 24  2  0
 23 22  1  0
 25 23  1  0
 26 35  2  0
 26 31  1  0
 27 23  1  0
 27 31  1  0
 28 27  1  0
 29 30  1  0
 29 28  1  0
 30 26  1  0
 31 32  2  0
 32 33  1  0
 34 33  2  0
 35 34  1  0
 36 10  1  0
 36 37  1  0
 36 46  1  0
 37 40  1  0
 38 42  1  0
 38 37  1  0
 39 38  2  0
 42 41  1  0
 44 45  1  0
 44 42  1  0
 44 43  1  0
 46 49  1  1
 46 47  1  0
 48 46  1  0
 51 50  2  0
 51 60  1  0
 52 60  1  0
 53 58  1  0
 54 55  1  0
 54 53  1  0
 56 55  1  0
 56 65  1  0
 56 57  1  0
 58 52  1  0
 58 57  1  0
 59 52  2  0
 60 61  1  0
 62 63  2  0
 63 82  1  0
 64 63  1  0
 64 67  1  0
 65 66  1  0
 65 62  1  0
 66 64  2  0
 67 68  1  0
 68 69  2  0
 70 73  1  0
 70 69  1  0
 71 70  2  0
 72 71  1  0
 72 67  2  0
 73 74  1  0
 74 75  1  0
 75 76  2  0
 77 76  1  0
 77 81  1  0
 78 77  2  0
 79 74  2  0
 79 78  1  0
 80 79  1  0
 82 83  1  0
 83 86  1  0
 83 85  1  0
 84 82  2  0
 87 88  1  0
 87 62  1  0
 89 87  1  0
M  ISO  4   6 101   9 101  52 100  60 100
M  END
>  <TORSDO>  (53) 
F 18

>  <SCORE>  (53) 
-15.458

>  <name>  (53) 
52

>  <ligand_id>  (53) 
52

>  <original_smiles>  (53) 
[H]c1c([H])c([H])c2c(c1[H])C([H])([H])C([H])([H])C([H])([H])C2([H])N([H])C(=O)C1([H])N(C(=O)C([H])(N([H])C(=O)C([H])(N([H])C([H])([H])[H])C([H])([H])[H])C(C([H])([H])[H])(C([H])([H])[H])C([H])([H])[H])C([H])([H])c2c([H])c(Oc3c(C([H])([H])[H])c([H])c(C([H])([H])C([H])([H])N([H])C(=O)N4C([H])([H])C([H])([H])C([H])([H])C([H])(n5nc(-c6c([H])c([H])c(Oc7c([H])c([H])c(F)c([H])c7F)c([H])c6[H])c(C(=O)N([H])[H])c5N([H])[H])C4([H])[H])c([H])c3C([H])([H])[H])c([H])c([H])c2C1([H])[H]

>  <smiles>  (53) 
[H]c1c([H])c([H])c2c(c1[H])C([H])([H])C([H])([H])C([H])([H])C2([H])N([H])C(=O)C1([H])N(C(=O)C([H])(N([H])C(=O)C([H])(N([H])C([H])([H])[H])C([H])([H])[H])C(C([H])([H])[H])(C([H])([H])[H])C([H])([H])[H])C([H])([H])c2c([H])c(Oc3c(C([H])([H])[H])c([H])c(C([H])([H])C([H])([H])N([H])C(=O)N4C([H])([H])C([H])([H])C([H])([H])C([H])(n5nc(-c6c([H])c([H])c(Oc7c([H])c([H])c(F)c([H])c7F)c([H])c6[H])c(C(=O)N([H])[H])c5N([H])[H])C4([H])[H])c([H])c3C([H])([H])[H])c([H])c([H])c2C1([H])[H]

$$$$
53:0:0
     RDKit          3D

 91 99  0  0  1  0  0  0  0  0999 V2000
  -30.8930  -21.7550   17.3250 C   0  0  0  0  0  2  0  0  0  0  0  0
  -29.3680  -21.4620   17.2190 C   0  0  0  0  0  2  0  0  0  0  0  0
  -31.3070  -22.8300   18.3720 C   0  0  0  0  0  2  0  0  0  0  0  0
  -28.8040  -20.4170   18.2230 C   0  0  0  0  0  2  0  0  0  0  0  0
  -30.9450  -22.5650   19.8580 C   0  0  0  0  0  2  0  0  0  0  0  0
  -29.4340  -20.5250   19.6170 C   0  0  0  0  0  3  0  0  0  0  0  0
  -29.5440  -22.0940   19.9510 N   0  0  1  0  0  4  0  0  0  0  0  0
  -29.3340  -22.2920   18.9810 H   0  0  0  0  0  0  0  0  0  0  0  0
  -29.3190  -19.1140   20.5410 C   0  0  0  0  0  2  0  0  0  0  0  0
  -30.0810  -17.6690   20.0510 C   0  0  0  0  0  2  0  0  0  0  0  0
  -30.5440  -14.9730   20.3180 C   0  0  0  0  0  0  0  0  0  0  0  0
  -30.4140  -12.6260   19.3710 C   0  0  0  0  0  2  0  0  0  0  0  0
  -29.4950  -12.6040   18.1290 C   0  0  0  0  0  2  0  0  0  0  0  0
  -28.0270  -12.3980   18.5450 C   0  0  0  0  0  2  0  0  0  0  0  0
  -27.6160  -13.3110   19.7310 C   0  0  0  0  0  3  0  0  0  0  0  0
  -28.6620  -13.3080   20.8670 C   0  0  0  0  0  2  0  0  0  0  0  0
  -29.9410  -13.7160   20.2740 N   0  0  0  0  0  0  0  0  0  0  0  0
  -31.7380  -15.0300   20.0050 O   0  0  0  0  0  0  0  0  0  0  0  0
  -29.7850  -16.1700   20.4850 N   0  0  0  0  0  0  0  0  0  0  0  0
  -28.8300  -15.9980   20.7630 H   0  0  0  0  0  0  0  0  0  0  0  0
  -25.2230  -13.8810   20.4330 C   0  0  0  0  0  0  0  0  0  0  0  0
  -24.1590  -13.1040   20.7990 C   0  0  0  0  0  0  0  0  0  0  0  0
  -24.6310  -11.7560   20.7890 C   0  0  0  0  0  0  0  0  0  0  0  0
  -26.2740  -13.0080   20.2160 N   0  0  0  0  0  0  0  0  0  0  0  0
  -25.9270  -11.7250   20.4960 N   0  0  0  0  0  0  0  0  0  0  0  0
  -23.9090  -10.4920   20.9820 C   0  0  0  0  0  0  0  0  0  0  0  0
  -24.3270   -9.5400   21.9380 C   0  0  0  0  0  3  0  0  0  0  0  0
  -23.6020   -8.3420   22.1200 C   0  0  0  0  0  3  0  0  0  0  0  0
  -22.4460   -8.0870   21.3460 C   0  0  0  0  0  0  0  0  0  0  0  0
  -22.0470   -9.0270   20.3800 C   0  0  0  0  0  3  0  0  0  0  0  0
  -22.7720  -10.2160   20.1960 C   0  0  0  0  0  3  0  0  0  0  0  0
  -21.6950   -6.9400   21.4360 O   0  0  0  0  0  0  0  0  0  0  0  0
  -21.6250   -6.2150   22.5990 C   0  0  0  0  0  0  0  0  0  0  0  0
  -21.1570   -6.7820   23.8040 C   0  0  0  0  0  3  0  0  0  0  0  0
  -21.0350   -5.9820   24.9570 C   0  0  0  0  0  3  0  0  0  0  0  0
  -21.3720   -4.6170   24.9070 C   0  0  0  0  0  0  0  0  0  0  0  0
  -21.8320   -4.0490   23.7070 C   0  0  0  0  0  3  0  0  0  0  0  0
  -21.9550   -4.8460   22.5550 C   0  0  0  0  0  0  0  0  0  0  0  0
  -22.3800   -4.2880   21.3950 F   0  0  0  0  0  0  0  0  0  0  0  0
  -21.2480   -3.8460   26.0140 F   0  0  0  0  0  0  0  0  0  0  0  0
  -22.7560  -13.5770   21.0440 C   0  0  0  0  0  0  0  0  0  0  0  0
  -22.0170  -12.8830   21.9030 N   0  0  0  0  0  0  0  0  0  0  0  0
  -22.3230  -14.5970   20.5100 O   0  0  0  0  0  0  0  0  0  0  0  0
  -22.3800  -12.0580   22.3570 H   0  0  0  0  0  0  0  0  0  0  0  0
  -21.0750  -13.1830   22.1100 H   0  0  0  0  0  0  0  0  0  0  0  0
  -25.3790  -15.2510   20.2400 N   0  0  0  0  0  0  0  0  0  0  0  0
  -24.6020  -15.8970   20.3270 H   0  0  0  0  0  0  0  0  0  0  0  0
  -26.2180  -15.6890   19.8820 H   0  0  0  0  0  0  0  0  0  0  0  0
  -28.5430  -23.2170   20.4800 C   0  0  0  0  0  2  0  0  0  0  0  0
  -28.4230  -24.7510   19.7410 C   0  0  0  0  0  2  0  0  0  0  0  0
  -28.3250  -26.1980   20.3250 O   0  0  0  0  0  0  0  0  0  0  0  0
  -24.6460  -31.8600   23.2300 C   0  0  0  0  0  0  0  0  0  0  0  0
  -27.2470  -27.1520   20.2000 C   0  0  0  0  0  0  0  0  0  0  0  0
  -23.4550  -30.4640   21.5840 C   0  0  0  0  0  3  0  0  0  0  0  0
  -24.9110  -28.8920   20.1590 C   0  0  0  0  0  0  0  0  0  0  0  0
  -26.0070  -30.7320   21.4290 C   0  0  0  0  0  2  0  0  0  0  0  0
  -26.0840  -29.3420   20.7750 C   0  0  0  0  0  0  0  0  0  0  0  0
  -27.2470  -28.4850   20.7820 C   0  0  0  0  0  3  0  0  0  0  0  0
  -26.0450  -26.8020   19.5430 C   0  0  0  0  0  3  0  0  0  0  0  0
  -24.9040  -27.6370   19.5300 C   0  0  0  0  0  3  0  0  0  0  0  0
  -23.6810  -29.7860   20.2050 C   0  0  0  0  0  2  0  0  0  0  0  0
  -24.7230  -31.0410   22.1370 N   0  0  0  0  0  0  0  0  0  0  0  0
  -23.5580  -32.1430   23.7550 O   0  0  0  0  0  0  0  0  0  0  0  0
  -22.7740  -29.4560   22.5450 C   0  0  0  0  0  0  0  0  0  0  0  0
  -21.4470  -29.2810   22.4110 N   0  0  0  0  0  0  0  0  0  0  0  0
  -23.4430  -28.8330   23.3730 O   0  0  0  0  0  0  0  0  0  0  0  0
  -20.9640  -29.8360   21.7180 H   0  0  0  0  0  0  0  0  0  0  0  0
  -18.0670  -28.0690   22.8930 C   0  0  0  0  0  0  0  0  0  0  0  0
  -20.6240  -28.3430   23.1780 C   0  0  0  0  0  3  0  0  0  0  0  0
  -20.7360  -26.9100   22.6090 C   0  0  0  0  0  2  0  0  0  0  0  0
  -19.6430  -26.5800   21.5870 C   0  0  0  0  0  2  0  0  0  0  0  0
  -18.2560  -26.7200   22.2200 C   0  0  0  0  0  2  0  0  0  0  0  0
  -19.1800  -28.8380   23.3290 C   0  0  0  0  0  0  0  0  0  0  0  0
  -18.9490  -30.0990   23.9190 C   0  0  0  0  0  3  0  0  0  0  0  0
  -17.6400  -30.5920   24.0770 C   0  0  0  0  0  3  0  0  0  0  0  0
  -16.5420  -29.8210   23.6560 C   0  0  0  0  0  3  0  0  0  0  0  0
  -16.7580  -28.5610   23.0700 C   0  0  0  0  0  3  0  0  0  0  0  0
  -25.9210  -32.4980   23.8630 C   0  0  0  0  0  3  0  0  0  0  0  0
  -26.4190  -31.7370   25.1540 C   0  0  1  0  0  0  0  0  0  0  0  0
  -25.3130  -31.5170   26.2120 C   0  0  0  0  0  1  0  0  0  0  0  0
  -27.0010  -30.3530   24.7880 C   0  0  0  0  0  1  0  0  0  0  0  0
  -27.5670  -32.5340   25.8210 C   0  0  0  0  0  1  0  0  0  0  0  0
  -25.6100  -33.9000   24.1840 N   0  0  0  0  0  0  0  0  0  0  0  0
  -25.9500  -34.9520   23.4270 C   0  0  0  0  0  0  0  0  0  0  0  0
  -26.6240  -34.8440   22.4000 O   0  0  0  0  0  0  0  0  0  0  0  0
  -25.0090  -34.0570   24.9810 H   0  0  0  0  0  0  0  0  0  0  0  0
  -24.2310  -36.7550   23.0610 C   0  0  0  0  0  1  0  0  0  0  0  0
  -25.4660  -36.3450   23.8800 C   0  0  0  0  0  3  0  0  0  0  0  0
  -27.5970  -37.2250   24.7260 C   0  0  0  0  0  1  0  0  0  0  0  0
  -26.5040  -37.3930   23.7720 N   0  0  0  0  0  0  0  0  0  0  0  0
  -26.1000  -38.3160   23.9110 H   0  0  0  0  0  0  0  0  0  0  0  0
  1  3  1  0
  2  1  1  0
  2  4  1  0
  3  5  1  0
  4  6  1  0
  5  7  1  0
  6  7  1  0
  6  9  1  0
  7 49  1  0
  7  8  1  6
 10 19  1  0
 10  9  1  0
 11 19  1  0
 12 17  1  0
 13 14  1  0
 13 12  1  0
 15 14  1  0
 15 24  1  0
 15 16  1  0
 17 11  1  0
 17 16  1  0
 18 11  2  0
 19 20  1  0
 21 22  2  0
 22 41  1  0
 23 22  1  0
 23 26  1  0
 24 21  1  0
 24 25  1  0
 25 23  2  0
 26 27  1  0
 27 28  2  0
 29 32  1  0
 29 28  1  0
 30 29  2  0
 31 30  1  0
 31 26  2  0
 32 33  1  0
 33 34  1  0
 34 35  2  0
 36 35  1  0
 36 40  1  0
 37 36  2  0
 38 33  2  0
 38 37  1  0
 39 38  1  0
 41 42  1  0
 42 45  1  0
 42 44  1  0
 43 41  2  0
 46 47  1  0
 46 21  1  0
 48 46  1  0
 50 51  1  0
 50 49  1  0
 52 63  2  0
 53 51  1  0
 53 58  1  0
 54 62  1  0
 54 64  1  0
 55 61  1  0
 55 57  1  0
 56 62  1  0
 57 58  2  0
 57 56  1  0
 59 53  2  0
 60 59  1  0
 60 55  2  0
 61 54  1  0
 62 52  1  0
 64 66  2  0
 65 64  1  0
 67 65  1  0
 68 77  2  0
 68 73  1  0
 69 65  1  0
 69 73  1  0
 70 69  1  0
 71 72  1  0
 71 70  1  0
 72 68  1  0
 73 74  2  0
 74 75  1  0
 76 75  2  0
 77 76  1  0
 78 52  1  0
 78 83  1  0
 78 79  1  0
 79 82  1  1
 79 80  1  0
 81 79  1  0
 83 86  1  0
 84 88  1  0
 84 83  1  0
 85 84  2  0
 88 87  1  0
 90 88  1  0
 90 91  1  0
 90 89  1  0
M  ISO  4  11 100  19 100  50 101  51 101
M  END
>  <TORSDO>  (54) 
F 20

>  <SCORE>  (54) 
-15.305

>  <name>  (54) 
53

>  <ligand_id>  (54) 
53

>  <original_smiles>  (54) 
[H]c1c([H])c([H])c2c(c1[H])C([H])([H])C([H])([H])C([H])([H])C2([H])N([H])C(=O)C1([H])N(C(=O)C([H])(N([H])C(=O)C([H])(N([H])C([H])([H])[H])C([H])([H])[H])C(C([H])([H])[H])(C([H])([H])[H])C([H])([H])[H])C([H])([H])c2c([H])c(OC([H])([H])C([H])([H])[N+]3([H])C([H])([H])C([H])([H])C([H])([H])C([H])([H])C([H])([H])C3([H])C([H])([H])C([H])([H])N([H])C(=O)N3C([H])([H])C([H])([H])C([H])([H])C([H])(n4nc(-c5c([H])c([H])c(Oc6c([H])c([H])c(F)c([H])c6F)c([H])c5[H])c(C(=O)N([H])[H])c4N([H])[H])C3([H])[H])c([H])c([H])c2C1([H])[H]

>  <smiles>  (54) 
[H]c1c([H])c([H])c2c(c1[H])C([H])([H])C([H])([H])C([H])([H])C2([H])N([H])C(=O)C1([H])N(C(=O)C([H])(N([H])C(=O)C([H])(N([H])C([H])([H])[H])C([H])([H])[H])C(C([H])([H])[H])(C([H])([H])[H])C([H])([H])[H])C([H])([H])c2c([H])c(OC([H])([H])C([H])([H])[N+]3([H])C([H])([H])C([H])([H])C([H])([H])C([H])([H])C([H])([H])C3([H])C([H])([H])C([H])([H])N([H])C(=O)N3C([H])([H])C([H])([H])C([H])([H])C([H])(n4nc(-c5c([H])c([H])c(Oc6c([H])c([H])c(F)c([H])c6F)c([H])c5[H])c(C(=O)N([H])[H])c4N([H])[H])C3([H])[H])c([H])c([H])c2C1([H])[H]

$$$$
54:0:0
     RDKit          3D

 89 97  0  0  1  0  0  0  0  0999 V2000
  -28.8100  -22.2450   18.5180 C   0  0  0  0  0  3  0  0  0  0  0  0
  -28.4520  -23.5400   20.5410 C   0  0  0  0  0  3  0  0  0  0  0  0
  -28.4590  -24.6970   18.4130 C   0  0  0  0  0  3  0  0  0  0  0  0
  -28.6920  -22.2030   19.9220 C   0  0  0  0  0  0  0  0  0  0  0  0
  -28.6940  -23.4510   17.7860 C   0  0  0  0  0  0  0  0  0  0  0  0
  -28.3220  -24.8340   19.8100 C   0  0  0  0  0  0  0  0  0  0  0  0
  -28.8110  -23.4150   16.4270 O   0  0  0  0  0  0  0  0  0  0  0  0
  -28.9680  -22.5390   16.0860 H   0  0  0  0  0  0  0  0  0  0  0  0
  -28.2530  -26.2130   20.3130 O   0  0  0  0  0  0  0  0  0  0  0  0
  -24.5990  -31.8780   23.2220 C   0  0  0  0  0  0  0  0  0  0  0  0
  -27.1840  -27.1710   20.1910 C   0  0  0  0  0  0  0  0  0  0  0  0
  -23.3960  -30.4730   21.5920 C   0  0  0  0  0  3  0  0  0  0  0  0
  -24.8430  -28.8960   20.1610 C   0  0  0  0  0  0  0  0  0  0  0  0
  -25.9460  -30.7470   21.4160 C   0  0  0  0  0  2  0  0  0  0  0  0
  -26.0200  -29.3540   20.7660 C   0  0  0  0  0  0  0  0  0  0  0  0
  -27.1860  -28.5040   20.7690 C   0  0  0  0  0  3  0  0  0  0  0  0
  -25.9820  -26.8080   19.5460 C   0  0  0  0  0  3  0  0  0  0  0  0
  -24.8380  -27.6370   19.5360 C   0  0  0  0  0  3  0  0  0  0  0  0
  -23.6110  -29.7880   20.2140 C   0  0  0  0  0  2  0  0  0  0  0  0
  -24.6660  -31.0550   22.1310 N   0  0  0  0  0  0  0  0  0  0  0  0
  -23.5140  -32.1620   23.7540 O   0  0  0  0  0  0  0  0  0  0  0  0
  -22.7250  -29.4690   22.5620 C   0  0  0  0  0  0  0  0  0  0  0  0
  -21.3980  -29.2880   22.4340 N   0  0  0  0  0  0  0  0  0  0  0  0
  -23.3990  -28.8540   23.3920 O   0  0  0  0  0  0  0  0  0  0  0  0
  -20.9090  -29.8340   21.7400 H   0  0  0  0  0  0  0  0  0  0  0  0
  -18.0270  -28.0580   22.9320 C   0  0  0  0  0  0  0  0  0  0  0  0
  -20.5810  -28.3510   23.2120 C   0  0  0  0  0  3  0  0  0  0  0  0
  -20.7030  -26.9140   22.6550 C   0  0  0  0  0  2  0  0  0  0  0  0
  -19.6110  -26.5680   21.6380 C   0  0  0  0  0  2  0  0  0  0  0  0
  -18.2240  -26.7040   22.2710 C   0  0  0  0  0  2  0  0  0  0  0  0
  -19.1350  -28.8380   23.3580 C   0  0  0  0  0  0  0  0  0  0  0  0
  -18.8950  -30.1040   23.9380 C   0  0  0  0  0  3  0  0  0  0  0  0
  -17.5840  -30.5890   24.0930 C   0  0  0  0  0  3  0  0  0  0  0  0
  -16.4910  -29.8070   23.6790 C   0  0  0  0  0  3  0  0  0  0  0  0
  -16.7150  -28.5430   23.1050 C   0  0  0  0  0  3  0  0  0  0  0  0
  -25.8780  -32.5180   23.8430 C   0  0  0  0  0  3  0  0  0  0  0  0
  -25.5660  -33.9200   24.1650 N   0  0  0  0  0  0  0  0  0  0  0  0
  -25.9040  -34.9730   23.4070 C   0  0  0  0  0  0  0  0  0  0  0  0
  -26.5760  -34.8650   22.3780 O   0  0  0  0  0  0  0  0  0  0  0  0
  -24.9680  -34.0790   24.9620 H   0  0  0  0  0  0  0  0  0  0  0  0
  -24.1840  -36.7750   23.0450 C   0  0  0  0  0  1  0  0  0  0  0  0
  -25.4190  -36.3640   23.8610 C   0  0  0  0  0  3  0  0  0  0  0  0
  -27.5530  -37.2450   24.7020 C   0  0  0  0  0  1  0  0  0  0  0  0
  -26.4560  -37.4140   23.7520 N   0  0  0  0  0  0  0  0  0  0  0  0
  -26.0520  -38.3350   23.8950 H   0  0  0  0  0  0  0  0  0  0  0  0
  -26.3910  -31.7610   25.1290 C   0  0  1  0  0  0  0  0  0  0  0  0
  -25.2950  -31.5380   26.1980 C   0  0  0  0  0  1  0  0  0  0  0  0
  -26.9710  -30.3760   24.7590 C   0  0  0  0  0  1  0  0  0  0  0  0
  -27.5420  -32.5610   25.7840 C   0  0  0  0  0  1  0  0  0  0  0  0
  -28.6660  -20.6940   20.5980 C   0  0  0  0  0  2  0  0  0  0  0  0
  -29.7260  -19.4090   20.3180 C   0  0  0  0  0  2  0  0  0  0  0  0
  -29.3930  -17.7640   20.0450 C   0  0  0  0  0  2  0  0  0  0  0  0
  -29.8310  -16.3890   20.9230 C   0  0  0  0  0  2  0  0  0  0  0  0
  -30.4970  -14.9640   20.3750 C   0  0  0  0  0  0  0  0  0  0  0  0
  -30.3690  -12.6220   19.4020 C   0  0  0  0  0  2  0  0  0  0  0  0
  -29.4540  -12.6270   18.1550 C   0  0  0  0  0  2  0  0  0  0  0  0
  -27.9820  -12.4260   18.5620 C   0  0  0  0  0  2  0  0  0  0  0  0
  -27.5750  -13.3270   19.7580 C   0  0  0  0  0  3  0  0  0  0  0  0
  -28.6150  -13.2940   20.8980 C   0  0  0  0  0  2  0  0  0  0  0  0
  -29.9040  -13.7000   20.3250 N   0  0  0  0  0  0  0  0  0  0  0  0
  -31.6620  -15.0220   19.9670 O   0  0  0  0  0  0  0  0  0  0  0  0
  -25.1780  -13.9050   20.4450 C   0  0  0  0  0  0  0  0  0  0  0  0
  -24.1110  -13.1300   20.8070 C   0  0  0  0  0  0  0  0  0  0  0  0
  -24.5810  -11.7800   20.8020 C   0  0  0  0  0  0  0  0  0  0  0  0
  -26.2290  -13.0290   20.2340 N   0  0  0  0  0  0  0  0  0  0  0  0
  -25.8780  -11.7460   20.5130 N   0  0  0  0  0  0  0  0  0  0  0  0
  -23.8560  -10.5180   20.9970 C   0  0  0  0  0  0  0  0  0  0  0  0
  -24.2730   -9.5650   21.9510 C   0  0  0  0  0  3  0  0  0  0  0  0
  -23.5450   -8.3680   22.1350 C   0  0  0  0  0  3  0  0  0  0  0  0
  -22.3870   -8.1170   21.3620 C   0  0  0  0  0  0  0  0  0  0  0  0
  -21.9890   -9.0580   20.3970 C   0  0  0  0  0  3  0  0  0  0  0  0
  -22.7170  -10.2460   20.2130 C   0  0  0  0  0  3  0  0  0  0  0  0
  -21.6330   -6.9720   21.4530 O   0  0  0  0  0  0  0  0  0  0  0  0
  -21.5640   -6.2450   22.6140 C   0  0  0  0  0  0  0  0  0  0  0  0
  -21.1110   -6.8150   23.8240 C   0  0  0  0  0  3  0  0  0  0  0  0
  -20.9900   -6.0150   24.9770 C   0  0  0  0  0  3  0  0  0  0  0  0
  -21.3110   -4.6450   24.9220 C   0  0  0  0  0  0  0  0  0  0  0  0
  -21.7560   -4.0740   23.7170 C   0  0  0  0  0  3  0  0  0  0  0  0
  -21.8790   -4.8720   22.5650 C   0  0  0  0  0  0  0  0  0  0  0  0
  -22.2890   -4.3120   21.4010 F   0  0  0  0  0  0  0  0  0  0  0  0
  -21.1870   -3.8740   26.0280 F   0  0  0  0  0  0  0  0  0  0  0  0
  -22.7070  -13.6050   21.0480 C   0  0  0  0  0  0  0  0  0  0  0  0
  -21.9660  -12.9170   21.9080 N   0  0  0  0  0  0  0  0  0  0  0  0
  -22.2770  -14.6240   20.5070 O   0  0  0  0  0  0  0  0  0  0  0  0
  -22.3260  -12.0930   22.3660 H   0  0  0  0  0  0  0  0  0  0  0  0
  -21.0230  -13.2190   22.1120 H   0  0  0  0  0  0  0  0  0  0  0  0
  -25.3400  -15.2740   20.2550 N   0  0  0  0  0  0  0  0  0  0  0  0
  -24.5720  -15.9280   20.3520 H   0  0  0  0  0  0  0  0  0  0  0  0
  -26.2000  -15.7150   19.9520 H   0  0  0  0  0  0  0  0  0  0  0  0
  1  4  1  0
  3  6  2  0
  4  2  2  0
  4 50  1  0
  5  3  1  0
  5  1  2  0
  6  9  1  0
  6  2  1  0
  7  5  1  0
  8  7  1  0
 10 21  2  0
 11  9  1  0
 11 16  1  0
 12 20  1  0
 12 22  1  0
 13 19  1  0
 13 15  1  0
 14 20  1  0
 15 16  2  0
 15 14  1  0
 17 11  2  0
 18 17  1  0
 18 13  2  0
 19 12  1  0
 20 10  1  0
 22 24  2  0
 23 22  1  0
 25 23  1  0
 26 35  2  0
 26 31  1  0
 27 23  1  0
 27 31  1  0
 28 27  1  0
 29 30  1  0
 29 28  1  0
 30 26  1  0
 31 32  2  0
 32 33  1  0
 34 33  2  0
 35 34  1  0
 36 10  1  0
 36 37  1  0
 36 46  1  0
 37 40  1  0
 38 42  1  0
 38 37  1  0
 39 38  2  0
 42 41  1  0
 44 42  1  0
 44 45  1  0
 44 43  1  0
 46 49  1  1
 46 47  1  0
 48 46  1  0
 51 50  1  0
 52 51  1  0
 52 53  1  0
 54 53  1  0
 55 60  1  0
 56 57  1  0
 56 55  1  0
 58 57  1  0
 58 65  1  0
 58 59  1  0
 60 54  1  0
 60 59  1  0
 61 54  2  0
 62 63  2  0
 63 82  1  0
 64 63  1  0
 64 67  1  0
 65 62  1  0
 65 66  1  0
 66 64  2  0
 67 68  1  0
 68 69  2  0
 70 73  1  0
 70 69  1  0
 71 70  2  0
 72 71  1  0
 72 67  2  0
 73 74  1  0
 74 75  1  0
 75 76  2  0
 77 76  1  0
 77 81  1  0
 78 77  2  0
 79 74  2  0
 79 78  1  0
 80 79  1  0
 82 83  1  0
 83 86  1  0
 83 85  1  0
 84 82  2  0
 87 88  1  0
 87 62  1  0
 89 87  1  0
M  ISO  4   6 101   9 101  53 100  54 100
M  END
>  <TORSDO>  (55) 
F 21

>  <SCORE>  (55) 
-14.372

>  <name>  (55) 
54

>  <ligand_id>  (55) 
54

>  <original_smiles>  (55) 
[H]Oc1c([H])c(Oc2c([H])c([H])c3c(c2[H])C([H])([H])N(C(=O)C([H])(N([H])C(=O)C([H])(N([H])C([H])([H])[H])C([H])([H])[H])C(C([H])([H])[H])(C([H])([H])[H])C([H])([H])[H])C([H])(C(=O)N([H])C2([H])c4c([H])c([H])c([H])c([H])c4C([H])([H])C([H])([H])C2([H])[H])C3([H])[H])c([H])c(C([H])([H])C([H])([H])C([H])([H])C([H])([H])C(=O)N2C([H])([H])C([H])([H])C([H])([H])C([H])(n3nc(-c4c([H])c([H])c(Oc5c([H])c([H])c(F)c([H])c5F)c([H])c4[H])c(C(=O)N([H])[H])c3N([H])[H])C2([H])[H])c1[H]

>  <smiles>  (55) 
[H]Oc1c([H])c(Oc2c([H])c([H])c3c(c2[H])C([H])([H])N(C(=O)C([H])(N([H])C(=O)C([H])(N([H])C([H])([H])[H])C([H])([H])[H])C(C([H])([H])[H])(C([H])([H])[H])C([H])([H])[H])C([H])(C(=O)N([H])C2([H])c4c([H])c([H])c([H])c([H])c4C([H])([H])C([H])([H])C2([H])[H])C3([H])[H])c([H])c(C([H])([H])C([H])([H])C([H])([H])C([H])([H])C(=O)N2C([H])([H])C([H])([H])C([H])([H])C([H])(n3nc(-c4c([H])c([H])c(Oc5c([H])c([H])c(F)c([H])c5F)c([H])c4[H])c(C(=O)N([H])[H])c3N([H])[H])C2([H])[H])c1[H]

$$$$
55:0:0
     RDKit          3D

 88 96  0  0  1  0  0  0  0  0999 V2000
  -26.1860  -21.3610   20.5500 C   0  0  0  0  0  3  0  0  0  0  0  0
  -27.4530  -20.9560   20.1590 C   0  0  0  0  0  3  0  0  0  0  0  0
  -25.9770  -22.6590   20.9580 C   0  0  0  0  0  3  0  0  0  0  0  0
  -28.6410  -21.7340   20.0510 C   0  0  0  0  0  0  0  0  0  0  0  0
  -28.2170  -23.5420   20.1460 C   0  0  0  0  0  0  0  0  0  0  0  0
  -26.9410  -23.6500   20.7950 C   0  0  0  0  0  0  0  0  0  0  0  0
  -26.5540  -24.8160   21.3590 F   0  0  0  0  0  0  0  0  0  0  0  0
  -30.5690  -16.9410   19.9180 C   0  0  0  0  0  0  0  0  0  0  0  0
  -30.9360  -14.2250   19.2010 C   0  0  0  0  0  2  0  0  0  0  0  0
  -30.1370  -13.4490   18.0870 C   0  0  0  0  0  2  0  0  0  0  0  0
  -28.8040  -12.9050   18.6090 C   0  0  0  0  0  2  0  0  0  0  0  0
  -28.1750  -13.9380   19.5600 C   0  0  0  0  0  3  0  0  0  0  0  0
  -29.1530  -14.5820   20.5960 C   0  0  0  0  0  2  0  0  0  0  0  0
  -30.1650  -15.4410   19.8660 N   0  0  0  0  0  0  0  0  0  0  0  0
  -31.8150  -16.7910   19.7770 O   0  0  0  0  0  0  0  0  0  0  0  0
  -29.8130  -20.1810   19.8900 C   0  0  0  0  0  0  0  0  0  0  0  0
  -29.7690  -18.4630   19.9630 N   0  0  0  0  0  0  0  0  0  0  0  0
  -30.9630  -20.5790   19.6860 O   0  0  0  0  0  0  0  0  0  0  0  0
  -28.7950  -18.2350   20.0860 H   0  0  0  0  0  0  0  0  0  0  0  0
  -25.8560  -14.3440   20.4640 C   0  0  0  0  0  0  0  0  0  0  0  0
  -24.8250  -13.5300   20.8290 C   0  0  0  0  0  0  0  0  0  0  0  0
  -25.3110  -12.1900   20.7020 C   0  0  0  0  0  0  0  0  0  0  0  0
  -26.9030  -13.5110   20.1300 N   0  0  0  0  0  0  0  0  0  0  0  0
  -26.5930  -12.2000   20.3320 N   0  0  0  0  0  0  0  0  0  0  0  0
  -24.5990  -10.9110   20.8560 C   0  0  0  0  0  0  0  0  0  0  0  0
  -24.9750   -9.9660   21.8350 C   0  0  0  0  0  3  0  0  0  0  0  0
  -24.2550   -8.7590   21.9820 C   0  0  0  0  0  3  0  0  0  0  0  0
  -23.1450   -8.4870   21.1480 C   0  0  0  0  0  0  0  0  0  0  0  0
  -22.7880   -9.4200   20.1600 C   0  0  0  0  0  3  0  0  0  0  0  0
  -23.5070  -10.6170   20.0120 C   0  0  0  0  0  3  0  0  0  0  0  0
  -22.4050   -7.3280   21.2010 O   0  0  0  0  0  0  0  0  0  0  0  0
  -22.1330   -6.6990   22.3900 C   0  0  0  0  0  0  0  0  0  0  0  0
  -21.4310   -7.3450   23.4310 C   0  0  0  0  0  3  0  0  0  0  0  0
  -21.1140   -6.6400   24.6100 C   0  0  0  0  0  3  0  0  0  0  0  0
  -21.4860   -5.2900   24.7450 C   0  0  0  0  0  0  0  0  0  0  0  0
  -22.1770   -4.6420   23.7060 C   0  0  0  0  0  3  0  0  0  0  0  0
  -22.4980   -5.3450   22.5310 C   0  0  0  0  0  0  0  0  0  0  0  0
  -23.1470   -4.7100   21.5250 F   0  0  0  0  0  0  0  0  0  0  0  0
  -21.1750   -4.6090   25.8730 F   0  0  0  0  0  0  0  0  0  0  0  0
  -23.4350  -13.9760   21.1730 C   0  0  0  0  0  0  0  0  0  0  0  0
  -22.7500  -13.2400   22.0410 N   0  0  0  0  0  0  0  0  0  0  0  0
  -22.9680  -15.0150   20.7100 O   0  0  0  0  0  0  0  0  0  0  0  0
  -23.1450  -12.4030   22.4440 H   0  0  0  0  0  0  0  0  0  0  0  0
  -21.8170  -13.5210   22.3090 H   0  0  0  0  0  0  0  0  0  0  0  0
  -25.9880  -15.7260   20.3470 N   0  0  0  0  0  0  0  0  0  0  0  0
  -25.2140  -16.3580   20.5100 H   0  0  0  0  0  0  0  0  0  0  0  0
  -26.8090  -16.1840   19.9760 H   0  0  0  0  0  0  0  0  0  0  0  0
  -28.4330  -25.3170   19.9990 O   0  0  0  0  0  0  0  0  0  0  0  0
  -24.9320  -32.0330   23.3070 C   0  0  0  0  0  0  0  0  0  0  0  0
  -27.5450  -26.7730   20.0730 C   0  0  0  0  0  0  0  0  0  0  0  0
  -23.8120  -30.7230   21.5610 C   0  0  0  0  0  3  0  0  0  0  0  0
  -25.3100  -29.0910   20.0970 C   0  0  0  0  0  0  0  0  0  0  0  0
  -26.4080  -30.7490   21.5590 C   0  0  0  0  0  2  0  0  0  0  0  0
  -26.4920  -29.3130   20.8130 C   0  0  0  0  0  0  0  0  0  0  0  0
  -27.5680  -28.1990   20.7640 C   0  0  0  0  0  3  0  0  0  0  0  0
  -26.3350  -26.9030   19.3000 C   0  0  0  0  0  3  0  0  0  0  0  0
  -25.3000  -27.9180   19.3170 C   0  0  0  0  0  3  0  0  0  0  0  0
  -24.1140  -30.0850   20.1660 C   0  0  0  0  0  2  0  0  0  0  0  0
  -25.0790  -31.2110   22.1970 N   0  0  0  0  0  0  0  0  0  0  0  0
  -23.8160  -32.3130   23.7860 O   0  0  0  0  0  0  0  0  0  0  0  0
  -23.0380  -29.7190   22.4630 C   0  0  0  0  0  0  0  0  0  0  0  0
  -21.7060  -29.5840   22.2960 N   0  0  0  0  0  0  0  0  0  0  0  0
  -23.6580  -29.0560   23.2980 O   0  0  0  0  0  0  0  0  0  0  0  0
  -21.2480  -30.1700   21.6120 H   0  0  0  0  0  0  0  0  0  0  0  0
  -18.2980  -28.3570   22.7180 C   0  0  0  0  0  0  0  0  0  0  0  0
  -20.8630  -28.5970   22.9890 C   0  0  0  0  0  3  0  0  0  0  0  0
  -20.9520  -27.2130   22.3020 C   0  0  0  0  0  2  0  0  0  0  0  0
  -19.8490  -26.9830   21.2660 C   0  0  0  0  0  2  0  0  0  0  0  0
  -18.4690  -27.0750   21.9210 C   0  0  0  0  0  2  0  0  0  0  0  0
  -19.4210  -29.0810   23.2040 C   0  0  0  0  0  0  0  0  0  0  0  0
  -19.2030  -30.2780   23.9190 C   0  0  0  0  0  3  0  0  0  0  0  0
  -17.8970  -30.7550   24.1460 C   0  0  0  0  0  3  0  0  0  0  0  0
  -16.7910  -30.0310   23.6690 C   0  0  0  0  0  3  0  0  0  0  0  0
  -16.9930  -28.8340   22.9600 C   0  0  0  0  0  3  0  0  0  0  0  0
  -26.1520  -32.6740   24.0370 C   0  0  0  0  0  3  0  0  0  0  0  0
  -25.7960  -34.0540   24.4440 N   0  0  0  0  0  0  0  0  0  0  0  0
  -26.1360  -35.1750   23.7910 C   0  0  0  0  0  0  0  0  0  0  0  0
  -26.8290  -35.1590   22.7730 O   0  0  0  0  0  0  0  0  0  0  0  0
  -25.1780  -34.1370   25.2370 H   0  0  0  0  0  0  0  0  0  0  0  0
  -24.3890  -36.9860   23.5780 C   0  0  0  0  0  1  0  0  0  0  0  0
  -25.6370  -36.5280   24.3500 C   0  0  0  0  0  3  0  0  0  0  0  0
  -27.7560  -37.3940   25.2490 C   0  0  0  0  0  1  0  0  0  0  0  0
  -26.6560  -37.6020   24.3110 N   0  0  0  0  0  0  0  0  0  0  0  0
  -26.2360  -38.5060   24.5110 H   0  0  0  0  0  0  0  0  0  0  0  0
  -26.6000  -31.8570   25.3150 C   0  0  1  0  0  0  0  0  0  0  0  0
  -25.4550  -31.5870   26.3210 C   0  0  0  0  0  1  0  0  0  0  0  0
  -27.2020  -30.4890   24.9260 C   0  0  0  0  0  1  0  0  0  0  0  0
  -27.7170  -32.6260   26.0620 C   0  0  0  0  0  1  0  0  0  0  0  0
  1  3  1  0
  2  1  2  0
  4  5  2  0
  4  2  1  0
  5  6  1  0
  6  3  2  0
  6  7  1  0
  8 17  1  0
  9 14  1  0
 10 11  1  0
 10  9  1  0
 12 11  1  0
 12 23  1  0
 12 13  1  0
 14  8  1  0
 14 13  1  0
 15  8  2  0
 16 17  1  0
 16  4  1  0
 17 19  1  0
 18 16  2  0
 20 21  2  0
 21 40  1  0
 22 21  1  0
 22 25  1  0
 23 24  1  0
 23 20  1  0
 24 22  2  0
 25 26  1  0
 26 27  2  0
 28 31  1  0
 28 27  1  0
 29 28  2  0
 30 29  1  0
 30 25  2  0
 31 32  1  0
 32 37  2  0
 32 33  1  0
 33 34  2  0
 34 35  1  0
 35 39  1  0
 36 35  2  0
 37 36  1  0
 38 37  1  0
 40 41  1  0
 41 44  1  0
 41 43  1  0
 42 40  2  0
 45 20  1  0
 45 46  1  0
 47 45  1  0
 48 50  1  0
 48  5  1  0
 49 60  2  0
 50 55  1  0
 51 59  1  0
 51 61  1  0
 52 58  1  0
 52 54  1  0
 53 59  1  0
 54 53  1  0
 55 54  2  0
 56 57  1  0
 56 50  2  0
 57 52  2  0
 58 51  1  0
 59 49  1  0
 61 63  2  0
 62 61  1  0
 64 62  1  0
 65 74  2  0
 65 70  1  0
 66 62  1  0
 66 70  1  0
 67 66  1  0
 68 69  1  0
 68 67  1  0
 69 65  1  0
 70 71  2  0
 71 72  1  0
 73 72  2  0
 74 73  1  0
 75 49  1  0
 75 76  1  0
 75 85  1  0
 76 79  1  0
 77 81  1  0
 77 76  1  0
 78 77  2  0
 81 80  1  0
 83 81  1  0
 83 84  1  0
 83 82  1  0
 85 88  1  1
 85 86  1  0
 87 85  1  0
M  ISO  4   5 101   8 100  17 100  48 101
M  END
>  <TORSDO>  (56) 
F 16

>  <SCORE>  (56) 
-12.353

>  <name>  (56) 
55

>  <ligand_id>  (56) 
55

>  <original_smiles>  (56) 
[H]c1c([H])c(F)c(Oc2c([H])c([H])c3c(c2[H])C([H])([H])N(C(=O)C([H])(N([H])C(=O)C([H])(N([H])C([H])([H])[H])C([H])([H])[H])C(C([H])([H])[H])(C([H])([H])[H])C([H])([H])[H])C([H])(C(=O)N([H])C2([H])c4c([H])c([H])c([H])c([H])c4C([H])([H])C([H])([H])C2([H])[H])C3([H])[H])c(C(=O)N([H])C(=O)N2C([H])([H])C([H])([H])C([H])([H])C([H])(n3nc(-c4c([H])c([H])c(Oc5c([H])c([H])c(F)c([H])c5F)c([H])c4[H])c(C(=O)N([H])[H])c3N([H])[H])C2([H])[H])c1[H]

>  <smiles>  (56) 
[H]c1c([H])c(F)c(Oc2c([H])c([H])c3c(c2[H])C([H])([H])N(C(=O)C([H])(N([H])C(=O)C([H])(N([H])C([H])([H])[H])C([H])([H])[H])C(C([H])([H])[H])(C([H])([H])[H])C([H])([H])[H])C([H])(C(=O)N([H])C2([H])c4c([H])c([H])c([H])c([H])c4C([H])([H])C([H])([H])C2([H])[H])C3([H])[H])c(C(=O)N([H])C(=O)N2C([H])([H])C([H])([H])C([H])([H])C([H])(n3nc(-c4c([H])c([H])c(Oc5c([H])c([H])c(F)c([H])c5F)c([H])c4[H])c(C(=O)N([H])[H])c3N([H])[H])C2([H])[H])c1[H]

$$$$
56:0:0
     RDKit          3D

 92101  0  0  1  0  0  0  0  0999 V2000
  -29.8530  -21.6800   21.1250 C   0  0  0  0  0  3  0  0  0  0  0  0
  -28.6310  -21.9990   19.0770 C   0  0  0  0  0  3  0  0  0  0  0  0
  -29.8750  -20.2650   20.9170 C   0  0  0  0  0  0  0  0  0  0  0  0
  -29.2700  -19.6910   19.7710 C   0  0  0  0  0  0  0  0  0  0  0  0
  -29.2380  -22.5850   20.2140 C   0  0  0  0  0  0  0  0  0  0  0  0
  -28.6410  -20.5900   18.8550 C   0  0  0  0  0  0  0  0  0  0  0  0
  -30.5930  -19.3590   21.9210 C   0  0  0  0  0  2  0  0  0  0  0  0
  -29.2790  -18.1390   19.5390 C   0  0  0  0  0  2  0  0  0  0  0  0
  -30.1500  -17.8740   21.8910 C   0  0  0  0  0  2  0  0  0  0  0  0
  -30.1890  -17.2550   20.4780 C   0  0  0  0  0  3  0  0  0  0  0  0
  -27.9770  -20.0620   17.5920 C   0  0  0  0  0  1  0  0  0  0  0  0
  -30.6350  -14.6930   20.1960 C   0  0  0  0  0  0  0  0  0  0  0  0
  -30.3860  -12.4590   19.1440 C   0  0  0  0  0  2  0  0  0  0  0  0
  -29.4010  -12.5830   17.9610 C   0  0  0  0  0  2  0  0  0  0  0  0
  -27.9470  -12.4110   18.4420 C   0  0  0  0  0  2  0  0  0  0  0  0
  -27.6240  -13.2730   19.6930 C   0  0  0  0  0  3  0  0  0  0  0  0
  -28.7220  -13.1340   20.7720 C   0  0  0  0  0  2  0  0  0  0  0  0
  -30.0050  -13.4780   20.1410 N   0  0  0  0  0  0  0  0  0  0  0  0
  -31.7920  -14.8330   19.7940 O   0  0  0  0  0  0  0  0  0  0  0  0
  -29.8610  -15.7790   20.5130 N   0  0  0  0  0  0  0  0  0  0  0  0
  -28.9230  -15.5500   20.8020 H   0  0  0  0  0  0  0  0  0  0  0  0
  -25.2570  -13.8540   20.5060 C   0  0  0  0  0  0  0  0  0  0  0  0
  -24.2020  -13.0740   20.8950 C   0  0  0  0  0  0  0  0  0  0  0  0
  -24.6620  -11.7230   20.8170 C   0  0  0  0  0  0  0  0  0  0  0  0
  -26.2930  -12.9790   20.2190 N   0  0  0  0  0  0  0  0  0  0  0  0
  -25.9420  -11.6910   20.4660 N   0  0  0  0  0  0  0  0  0  0  0  0
  -23.9400  -10.4570   21.0000 C   0  0  0  0  0  0  0  0  0  0  0  0
  -24.3710   -9.4900   21.9350 C   0  0  0  0  0  3  0  0  0  0  0  0
  -23.6510   -8.2880   22.1070 C   0  0  0  0  0  3  0  0  0  0  0  0
  -22.4850   -8.0450   21.3440 C   0  0  0  0  0  0  0  0  0  0  0  0
  -22.0720   -9.0000   20.3980 C   0  0  0  0  0  3  0  0  0  0  0  0
  -22.7920  -10.1930   20.2250 C   0  0  0  0  0  3  0  0  0  0  0  0
  -21.7350   -6.8960   21.4260 O   0  0  0  0  0  0  0  0  0  0  0  0
  -21.6370   -6.1840   22.5940 C   0  0  0  0  0  0  0  0  0  0  0  0
  -21.1200   -6.7570   23.7760 C   0  0  0  0  0  3  0  0  0  0  0  0
  -20.9740   -5.9680   24.9350 C   0  0  0  0  0  3  0  0  0  0  0  0
  -21.3310   -4.6060   24.9110 C   0  0  0  0  0  0  0  0  0  0  0  0
  -21.8390   -4.0320   23.7330 C   0  0  0  0  0  3  0  0  0  0  0  0
  -21.9880   -4.8180   22.5770 C   0  0  0  0  0  0  0  0  0  0  0  0
  -22.4590   -4.2550   21.4380 F   0  0  0  0  0  0  0  0  0  0  0  0
  -21.1820   -3.8470   26.0210 F   0  0  0  0  0  0  0  0  0  0  0  0
  -22.8150  -13.5450   21.2240 C   0  0  0  0  0  0  0  0  0  0  0  0
  -22.1190  -12.8330   22.1040 N   0  0  0  0  0  0  0  0  0  0  0  0
  -22.3580  -14.5780   20.7380 O   0  0  0  0  0  0  0  0  0  0  0  0
  -22.5030  -11.9960   22.5180 H   0  0  0  0  0  0  0  0  0  0  0  0
  -21.1910  -13.1290   22.3690 H   0  0  0  0  0  0  0  0  0  0  0  0
  -25.4170  -15.2280   20.3470 N   0  0  0  0  0  0  0  0  0  0  0  0
  -24.6520  -15.8800   20.4790 H   0  0  0  0  0  0  0  0  0  0  0  0
  -26.2380  -15.6610   19.9440 H   0  0  0  0  0  0  0  0  0  0  0  0
  -29.3540  -24.1450   20.4140 C   0  0  0  0  0  3  0  0  0  0  0  0
  -28.1570  -25.1070   20.0280 C   0  0  0  0  0  3  0  0  0  0  0  0
  -28.3340  -26.5500   20.3010 O   0  0  0  0  0  0  0  0  0  0  0  0
  -24.6270  -31.9280   23.3460 C   0  0  0  0  0  0  0  0  0  0  0  0
  -27.2090  -27.3850   20.2550 C   0  0  0  0  0  0  0  0  0  0  0  0
  -23.4100  -30.5500   21.6970 C   0  0  0  0  0  3  0  0  0  0  0  0
  -24.8480  -29.0010   20.2600 C   0  0  0  0  0  0  0  0  0  0  0  0
  -25.9510  -30.8530   21.5160 C   0  0  0  0  0  2  0  0  0  0  0  0
  -26.0190  -29.4810   20.8580 C   0  0  0  0  0  0  0  0  0  0  0  0
  -27.2000  -28.6850   20.8460 C   0  0  0  0  0  3  0  0  0  0  0  0
  -26.0120  -26.9550   19.6350 C   0  0  0  0  0  3  0  0  0  0  0  0
  -24.8450  -27.7400   19.6430 C   0  0  0  0  0  3  0  0  0  0  0  0
  -23.6180  -29.8830   20.3130 C   0  0  0  0  0  2  0  0  0  0  0  0
  -24.6820  -31.1250   22.2440 N   0  0  0  0  0  0  0  0  0  0  0  0
  -23.5480  -32.2110   23.8840 O   0  0  0  0  0  0  0  0  0  0  0  0
  -22.7410  -29.5310   22.6500 C   0  0  0  0  0  0  0  0  0  0  0  0
  -21.4170  -29.3470   22.5050 N   0  0  0  0  0  0  0  0  0  0  0  0
  -23.4110  -28.9100   23.4780 O   0  0  0  0  0  0  0  0  0  0  0  0
  -20.9330  -29.9080   21.8180 H   0  0  0  0  0  0  0  0  0  0  0  0
  -18.0390  -28.1400   22.9500 C   0  0  0  0  0  0  0  0  0  0  0  0
  -20.5910  -28.4060   23.2640 C   0  0  0  0  0  3  0  0  0  0  0  0
  -20.7070  -26.9720   22.6960 C   0  0  0  0  0  2  0  0  0  0  0  0
  -19.6240  -26.6420   21.6640 C   0  0  0  0  0  2  0  0  0  0  0  0
  -18.2310  -26.7880   22.2820 C   0  0  0  0  0  2  0  0  0  0  0  0
  -19.1470  -28.9070   23.3970 C   0  0  0  0  0  0  0  0  0  0  0  0
  -18.9150  -30.1730   23.9750 C   0  0  0  0  0  3  0  0  0  0  0  0
  -17.6060  -30.6710   24.1170 C   0  0  0  0  0  3  0  0  0  0  0  0
  -16.5120  -29.9010   23.6910 C   0  0  0  0  0  3  0  0  0  0  0  0
  -16.7290  -28.6380   23.1090 C   0  0  0  0  0  3  0  0  0  0  0  0
  -25.9180  -32.5430   23.9700 C   0  0  0  0  0  3  0  0  0  0  0  0
  -25.6280  -33.9480   24.2900 N   0  0  0  0  0  0  0  0  0  0  0  0
  -25.9380  -34.9880   23.5050 C   0  0  0  0  0  0  0  0  0  0  0  0
  -26.5690  -34.8660   22.4520 O   0  0  0  0  0  0  0  0  0  0  0  0
  -25.0690  -34.1190   25.1130 H   0  0  0  0  0  0  0  0  0  0  0  0
  -24.1900  -36.7690   23.2120 C   0  0  0  0  0  1  0  0  0  0  0  0
  -25.4740  -36.3840   23.9620 C   0  0  0  0  0  3  0  0  0  0  0  0
  -27.6500  -37.2890   24.6520 C   0  0  0  0  0  1  0  0  0  0  0  0
  -26.4940  -37.4380   23.7720 N   0  0  0  0  0  0  0  0  0  0  0  0
  -26.0920  -38.3590   23.9310 H   0  0  0  0  0  0  0  0  0  0  0  0
  -26.4100  -31.7730   25.2560 C   0  0  1  0  0  0  0  0  0  0  0  0
  -25.3060  -31.5600   26.3160 C   0  0  0  0  0  1  0  0  0  0  0  0
  -26.9790  -30.3870   24.8750 C   0  0  0  0  0  1  0  0  0  0  0  0
  -27.5640  -32.5570   25.9250 C   0  0  0  0  0  1  0  0  0  0  0  0
  2  5  1  0
  3  1  1  0
  3  7  1  0
  4  3  2  0
  5 50  1  0
  5  1  2  0
  6  2  2  0
  6  4  1  0
  8  4  1  0
  8 10  1  0
  9  7  1  0
 10 20  1  0
 10  9  1  0
 11  6  1  0
 12 20  1  0
 13 18  1  0
 14 15  1  0
 14 13  1  0
 16 15  1  0
 16 25  1  0
 16 17  1  0
 18 12  1  0
 18 17  1  0
 19 12  2  0
 20 21  1  0
 22 23  2  0
 23 42  1  0
 24 23  1  0
 24 27  1  0
 25 26  1  0
 25 22  1  0
 26 24  2  0
 27 28  1  0
 28 29  2  0
 30 33  1  0
 30 29  1  0
 31 30  2  0
 32 31  1  0
 32 27  2  0
 33 34  1  0
 34 35  1  0
 35 36  2  0
 37 36  1  0
 37 41  1  0
 38 37  2  0
 39 34  2  0
 39 38  1  0
 40 39  1  0
 42 43  1  0
 43 46  1  0
 43 45  1  0
 44 42  2  0
 47 48  1  0
 47 22  1  0
 49 47  1  0
 51 52  1  0
 51 50  2  0
 53 64  2  0
 54 52  1  0
 54 59  1  0
 55 63  1  0
 55 65  1  0
 56 62  1  0
 56 58  1  0
 57 63  1  0
 58 57  1  0
 59 58  2  0
 60 61  1  0
 60 54  2  0
 61 56  2  0
 62 55  1  0
 63 53  1  0
 65 67  2  0
 66 65  1  0
 68 66  1  0
 69 78  2  0
 69 74  1  0
 70 66  1  0
 70 74  1  0
 71 70  1  0
 72 73  1  0
 72 71  1  0
 73 69  1  0
 74 75  2  0
 75 76  1  0
 77 76  2  0
 78 77  1  0
 79 53  1  0
 79 80  1  0
 79 89  1  0
 80 83  1  0
 81 85  1  0
 81 80  1  0
 82 81  2  0
 85 84  1  0
 87 88  1  0
 87 85  1  0
 87 86  1  0
 89 92  1  1
 89 90  1  0
 91 89  1  0
M  ISO  4  12 100  20 100  51 101  52 101
M  END
>  <TORSDO>  (57) 
F 18

>  <SCORE>  (57) 
-14.567

>  <name>  (57) 
56

>  <ligand_id>  (57) 
56

>  <original_smiles>  (57) 
[H]c1c([H])c([H])c2c(c1[H])C([H])([H])C([H])([H])C([H])([H])C2([H])N([H])C(=O)C1([H])N(C(=O)C([H])(N([H])C(=O)C([H])(N([H])C([H])([H])[H])C([H])([H])[H])C(C([H])([H])[H])(C([H])([H])[H])C([H])([H])[H])C([H])([H])c2c([H])c(OC([H])([H])C([H])([H])c3c([H])c(C([H])([H])[H])c4c(c3[H])C([H])([H])C([H])([H])C([H])(N([H])C(=O)N3C([H])([H])C([H])([H])C([H])([H])C([H])(n5nc(-c6c([H])c([H])c(Oc7c([H])c([H])c(F)c([H])c7F)c([H])c6[H])c(C(=O)N([H])[H])c5N([H])[H])C3([H])[H])C4([H])[H])c([H])c([H])c2C1([H])[H]

>  <smiles>  (57) 
[H]c1c([H])c([H])c2c(c1[H])C([H])([H])C([H])([H])C([H])([H])C2([H])N([H])C(=O)C1([H])N(C(=O)C([H])(N([H])C(=O)C([H])(N([H])C([H])([H])[H])C([H])([H])[H])C(C([H])([H])[H])(C([H])([H])[H])C([H])([H])[H])C([H])([H])c2c([H])c(OC([H])([H])C([H])([H])c3c([H])c(C([H])([H])[H])c4c(c3[H])C([H])([H])C([H])([H])C([H])(N([H])C(=O)N3C([H])([H])C([H])([H])C([H])([H])C([H])(n5nc(-c6c([H])c([H])c(Oc7c([H])c([H])c(F)c([H])c7F)c([H])c6[H])c(C(=O)N([H])[H])c5N([H])[H])C3([H])[H])C4([H])[H])c([H])c([H])c2C1([H])[H]

$$$$
57:0:0
     RDKit          3D

 92102  0  0  1  0  0  0  0  0999 V2000
  -29.7950  -21.1080   19.0820 C   0  0  0  0  0  3  0  0  0  0  0  0
  -29.4790  -22.5410   18.9210 C   0  0  0  0  0  3  0  0  0  0  0  0
  -28.9190  -22.6800   21.1660 C   0  0  0  0  0  3  0  0  0  0  0  0
  -29.6210  -20.3210   20.2930 C   0  0  0  0  0  0  0  0  0  0  0  0
  -28.9740  -23.4390   19.9410 C   0  0  0  0  0  0  0  0  0  0  0  0
  -29.2170  -21.2500   21.3330 C   0  0  0  0  0  0  0  0  0  0  0  0
  -29.0000  -20.7320   22.5630 F   0  0  0  0  0  0  0  0  0  0  0  0
  -29.9030  -17.7200   17.6880 C   0  0  0  0  0  2  0  0  0  0  0  0
  -30.9440  -17.4360   18.7970 C   0  0  0  0  0  2  0  0  0  0  0  0
  -28.1700  -18.5890   19.4330 C   0  0  0  0  0  2  0  0  0  0  0  0
  -28.8730  -16.4480   19.3290 C   0  0  0  0  0  2  0  0  0  0  0  0
  -29.3540  -18.6340   20.4570 C   0  0  0  0  0  3  0  0  0  0  0  0
  -28.5380  -17.5370   18.3880 C   0  0  0  0  0  3  0  0  0  0  0  0
  -30.0800  -17.0600   20.0270 C   0  0  2  0  0  0  0  0  0  0  0  0
  -30.6690  -15.6090   20.8100 C   0  0  0  0  0  0  0  0  0  0  0  0
  -30.7460  -13.1090   20.2080 C   0  0  0  0  0  2  0  0  0  0  0  0
  -29.9530  -12.7210   18.9380 C   0  0  0  0  0  2  0  0  0  0  0  0
  -28.4750  -12.4280   19.2670 C   0  0  0  0  0  2  0  0  0  0  0  0
  -27.8630  -13.4640   20.2300 C   0  0  0  0  0  3  0  0  0  0  0  0
  -28.8070  -13.8530   21.3960 C   0  0  0  0  0  2  0  0  0  0  0  0
  -30.0980  -14.3050   20.8370 N   0  0  0  0  0  0  0  0  0  0  0  0
  -31.8920  -15.5780   20.9800 O   0  0  0  0  0  0  0  0  0  0  0  0
  -25.4410  -14.0150   20.8310 C   0  0  0  0  0  0  0  0  0  0  0  0
  -24.3620  -13.2230   21.1080 C   0  0  0  0  0  0  0  0  0  0  0  0
  -24.8520  -11.8800   21.1080 C   0  0  0  0  0  0  0  0  0  0  0  0
  -26.5110  -13.1490   20.6620 N   0  0  0  0  0  0  0  0  0  0  0  0
  -26.1630  -11.8620   20.9010 N   0  0  0  0  0  0  0  0  0  0  0  0
  -24.1390  -10.6050   21.2260 C   0  0  0  0  0  0  0  0  0  0  0  0
  -24.5110   -9.6410   22.1870 C   0  0  0  0  0  3  0  0  0  0  0  0
  -23.8000   -8.4260   22.2940 C   0  0  0  0  0  3  0  0  0  0  0  0
  -22.7030   -8.1680   21.4370 C   0  0  0  0  0  0  0  0  0  0  0  0
  -22.3540   -9.1220   20.4640 C   0  0  0  0  0  3  0  0  0  0  0  0
  -23.0660  -10.3270   20.3570 C   0  0  0  0  0  3  0  0  0  0  0  0
  -21.9730   -7.0050   21.4520 O   0  0  0  0  0  0  0  0  0  0  0  0
  -21.8290   -6.2630   22.5970 C   0  0  0  0  0  0  0  0  0  0  0  0
  -21.2430   -6.7990   23.7650 C   0  0  0  0  0  3  0  0  0  0  0  0
  -21.0540   -5.9800   24.8960 C   0  0  0  0  0  3  0  0  0  0  0  0
  -21.4400   -4.6260   24.8560 C   0  0  0  0  0  0  0  0  0  0  0  0
  -22.0200   -4.0900   23.6930 C   0  0  0  0  0  3  0  0  0  0  0  0
  -22.2120   -4.9080   22.5660 C   0  0  0  0  0  0  0  0  0  0  0  0
  -22.7520   -4.3820   21.4400 F   0  0  0  0  0  0  0  0  0  0  0  0
  -21.2500   -3.8360   25.9390 F   0  0  0  0  0  0  0  0  0  0  0  0
  -22.9380  -13.6710   21.2600 C   0  0  0  0  0  0  0  0  0  0  0  0
  -22.1560  -12.9590   22.0620 N   0  0  0  0  0  0  0  0  0  0  0  0
  -22.5220  -14.6870   20.7010 O   0  0  0  0  0  0  0  0  0  0  0  0
  -22.5020  -12.1380   22.5360 H   0  0  0  0  0  0  0  0  0  0  0  0
  -21.1980  -13.2390   22.2090 H   0  0  0  0  0  0  0  0  0  0  0  0
  -25.5960  -15.3900   20.6740 N   0  0  0  0  0  0  0  0  0  0  0  0
  -24.8160  -16.0370   20.7310 H   0  0  0  0  0  0  0  0  0  0  0  0
  -26.4590  -15.8350   20.3920 H   0  0  0  0  0  0  0  0  0  0  0  0
  -28.1740  -24.9110   19.6570 C   0  0  0  0  0  2  0  0  0  0  0  0
  -28.4510  -26.4300   20.0240 O   0  0  0  0  0  0  0  0  0  0  0  0
  -24.7180  -31.9770   23.3580 C   0  0  0  0  0  0  0  0  0  0  0  0
  -27.3850  -27.4390   20.0330 C   0  0  0  0  0  0  0  0  0  0  0  0
  -23.5330  -30.6340   21.6670 C   0  0  0  0  0  3  0  0  0  0  0  0
  -25.0060  -29.1650   20.1430 C   0  0  0  0  0  0  0  0  0  0  0  0
  -26.0830  -30.9510   21.4900 C   0  0  0  0  0  2  0  0  0  0  0  0
  -26.1860  -29.5920   20.7640 C   0  0  0  0  0  0  0  0  0  0  0  0
  -27.3700  -28.7450   20.6960 C   0  0  0  0  0  3  0  0  0  0  0  0
  -26.1670  -27.1430   19.3720 C   0  0  0  0  0  3  0  0  0  0  0  0
  -25.0130  -27.9580   19.4310 C   0  0  0  0  0  3  0  0  0  0  0  0
  -23.7530  -30.0260   20.2560 C   0  0  0  0  0  2  0  0  0  0  0  0
  -24.7990  -31.2080   22.2280 N   0  0  0  0  0  0  0  0  0  0  0  0
  -23.6310  -32.2130   23.9080 O   0  0  0  0  0  0  0  0  0  0  0  0
  -22.8840  -29.5700   22.5870 C   0  0  0  0  0  0  0  0  0  0  0  0
  -21.5610  -29.3600   22.4470 N   0  0  0  0  0  0  0  0  0  0  0  0
  -23.5730  -28.9360   23.3900 O   0  0  0  0  0  0  0  0  0  0  0  0
  -21.0590  -29.9250   21.7760 H   0  0  0  0  0  0  0  0  0  0  0  0
  -18.2290  -27.9970   22.8620 C   0  0  0  0  0  0  0  0  0  0  0  0
  -20.7700  -28.3640   23.1760 C   0  0  0  0  0  3  0  0  0  0  0  0
  -20.9440  -26.9570   22.5570 C   0  0  0  0  0  2  0  0  0  0  0  0
  -19.8720  -26.6180   21.5170 C   0  0  0  0  0  2  0  0  0  0  0  0
  -18.4750  -26.6800   22.1430 C   0  0  0  0  0  2  0  0  0  0  0  0
  -19.3060  -28.7950   23.3310 C   0  0  0  0  0  0  0  0  0  0  0  0
  -19.0210  -30.0240   23.9620 C   0  0  0  0  0  3  0  0  0  0  0  0
  -17.6920  -30.4590   24.1260 C   0  0  0  0  0  3  0  0  0  0  0  0
  -16.6290  -29.6580   23.6730 C   0  0  0  0  0  3  0  0  0  0  0  0
  -16.8990  -28.4280   23.0480 C   0  0  0  0  0  3  0  0  0  0  0  0
  -25.9880  -32.6130   24.0050 C   0  0  0  0  0  3  0  0  0  0  0  0
  -25.6510  -33.9920   24.4010 N   0  0  0  0  0  0  0  0  0  0  0  0
  -25.9600  -35.0860   23.6930 C   0  0  0  0  0  0  0  0  0  0  0  0
  -26.6200  -35.0450   22.6540 O   0  0  0  0  0  0  0  0  0  0  0  0
  -25.0640  -34.0970   25.2150 H   0  0  0  0  0  0  0  0  0  0  0  0
  -24.1960  -36.8640   23.4440 C   0  0  0  0  0  1  0  0  0  0  0  0
  -25.4530  -36.4440   24.2220 C   0  0  0  0  0  3  0  0  0  0  0  0
  -27.5790  -37.3250   25.0780 C   0  0  0  0  0  1  0  0  0  0  0  0
  -26.4660  -37.5190   24.1520 N   0  0  0  0  0  0  0  0  0  0  0  0
  -26.0460  -38.4230   24.3510 H   0  0  0  0  0  0  0  0  0  0  0  0
  -26.5220  -31.8020   25.2490 C   0  0  1  0  0  0  0  0  0  0  0  0
  -25.4350  -31.5030   26.3100 C   0  0  0  0  0  1  0  0  0  0  0  0
  -27.1260  -30.4500   24.8060 C   0  0  0  0  0  1  0  0  0  0  0  0
  -27.6620  -32.5860   25.9390 C   0  0  0  0  0  1  0  0  0  0  0  0
  1  4  1  0
  2  1  2  0
  2  5  1  0
  3  6  1  0
  4  6  2  0
  5  3  2  0
  6  7  1  0
  8  9  1  0
  9 14  1  0
 10 12  1  0
 11 14  1  0
 12  4  1  0
 13  8  1  0
 13 11  1  0
 13 10  1  0
 14 12  1  0
 14 15  1  1
 15 21  1  0
 15 22  2  0
 16 21  1  0
 17 18  1  0
 17 16  1  0
 19 18  1  0
 19 26  1  0
 19 20  1  0
 21 20  1  0
 23 24  2  0
 24 43  1  0
 25 24  1  0
 25 28  1  0
 26 23  1  0
 26 27  1  0
 27 25  2  0
 28 29  1  0
 29 30  2  0
 31 34  1  0
 31 30  1  0
 32 31  2  0
 33 32  1  0
 33 28  2  0
 34 35  1  0
 35 36  1  0
 36 37  2  0
 38 37  1  0
 38 42  1  0
 39 38  2  0
 40 35  2  0
 40 39  1  0
 41 40  1  0
 43 44  1  0
 44 47  1  0
 44 46  1  0
 45 43  2  0
 48 49  1  0
 48 23  1  0
 50 48  1  0
 51  5  1  0
 51 52  1  0
 52 54  1  0
 53 64  2  0
 54 59  1  0
 55 63  1  0
 55 65  1  0
 56 62  1  0
 56 58  1  0
 57 63  1  0
 58 57  1  0
 59 58  2  0
 60 61  1  0
 60 54  2  0
 61 56  2  0
 62 55  1  0
 63 53  1  0
 65 67  2  0
 66 65  1  0
 68 66  1  0
 69 78  2  0
 69 74  1  0
 70 66  1  0
 70 74  1  0
 71 70  1  0
 72 73  1  0
 72 71  1  0
 73 69  1  0
 74 75  2  0
 75 76  1  0
 77 76  2  0
 78 77  1  0
 79 53  1  0
 79 80  1  0
 79 89  1  0
 80 83  1  0
 81 85  1  0
 81 80  1  0
 82 81  2  0
 85 84  1  0
 87 85  1  0
 87 88  1  0
 87 86  1  0
 89 92  1  1
 89 90  1  0
 91 89  1  0
M  ISO  4  14 100  15 100  51 101  52 101
M  END
>  <TORSDO>  (58) 
F 18

>  <SCORE>  (58) 
-15.383

>  <name>  (58) 
57

>  <ligand_id>  (58) 
57

>  <original_smiles>  (58) 
[H]c1c([H])c([H])c2c(c1[H])C([H])([H])C([H])([H])C([H])([H])C2([H])N([H])C(=O)C1([H])N(C(=O)C([H])(N([H])C(=O)C([H])(N([H])C([H])([H])[H])C([H])([H])[H])C(C([H])([H])[H])(C([H])([H])[H])C([H])([H])[H])C([H])([H])c2c([H])c(OC([H])([H])c3c([H])c([H])c(C4([H])C([H])([H])C5([H])C([H])([H])C([H])([H])C4(C(=O)N4C([H])([H])C([H])([H])C([H])([H])C([H])(n6nc(-c7c([H])c([H])c(Oc8c([H])c([H])c(F)c([H])c8F)c([H])c7[H])c(C(=O)N([H])[H])c6N([H])[H])C4([H])[H])C5([H])[H])c(F)c3[H])c([H])c([H])c2C1([H])[H]

>  <smiles>  (58) 
[H]c1c([H])c([H])c2c(c1[H])C([H])([H])C([H])([H])C([H])([H])C2([H])N([H])C(=O)C1([H])N(C(=O)C([H])(N([H])C(=O)C([H])(N([H])C([H])([H])[H])C([H])([H])[H])C(C([H])([H])[H])(C([H])([H])[H])C([H])([H])[H])C([H])([H])c2c([H])c(OC([H])([H])c3c([H])c([H])c(C4([H])C([H])([H])C5([H])C([H])([H])C([H])([H])C4(C(=O)N4C([H])([H])C([H])([H])C([H])([H])C([H])(n6nc(-c7c([H])c([H])c(Oc8c([H])c([H])c(F)c([H])c8F)c([H])c7[H])c(C(=O)N([H])[H])c6N([H])[H])C4([H])[H])C5([H])[H])c(F)c3[H])c([H])c([H])c2C1([H])[H]

$$$$
58:0:0
     RDKit          3D

 92100  0  0  1  0  0  0  0  0999 V2000
  -29.4530  -23.4470   18.8020 C   0  0  0  0  0  3  0  0  0  0  0  0
  -29.3450  -24.8370   18.9870 C   0  0  0  0  0  3  0  0  0  0  0  0
  -27.7460  -24.4680   20.7770 C   0  0  0  0  0  3  0  0  0  0  0  0
  -28.7240  -22.5420   19.6060 C   0  0  0  0  0  0  0  0  0  0  0  0
  -28.4900  -25.3630   19.9720 C   0  0  0  0  0  0  0  0  0  0  0  0
  -27.8420  -23.0690   20.5880 C   0  0  0  0  0  0  0  0  0  0  0  0
  -27.0690  -22.2480   21.3580 O   0  0  0  0  0  0  0  0  0  0  0  0
  -26.5530  -22.7080   22.0130 H   0  0  0  0  0  0  0  0  0  0  0  0
  -28.4480  -26.7300   20.1410 O   0  0  0  0  0  0  0  0  0  0  0  0
  -24.6070  -31.8570   23.2290 C   0  0  0  0  0  0  0  0  0  0  0  0
  -27.2530  -27.4210   20.1520 C   0  0  0  0  0  0  0  0  0  0  0  0
  -23.4020  -30.4600   21.5800 C   0  0  0  0  0  3  0  0  0  0  0  0
  -24.8560  -28.9200   20.1590 C   0  0  0  0  0  0  0  0  0  0  0  0
  -25.9280  -30.8130   21.3930 C   0  0  0  0  0  2  0  0  0  0  0  0
  -26.0090  -29.4420   20.7560 C   0  0  0  0  0  0  0  0  0  0  0  0
  -27.2080  -28.6960   20.7580 C   0  0  0  0  0  3  0  0  0  0  0  0
  -26.0850  -26.9140   19.5400 C   0  0  0  0  0  3  0  0  0  0  0  0
  -24.8860  -27.6520   19.5520 C   0  0  0  0  0  3  0  0  0  0  0  0
  -23.6130  -29.7820   20.1990 C   0  0  0  0  0  2  0  0  0  0  0  0
  -24.6630  -31.0600   22.1250 N   0  0  0  0  0  0  0  0  0  0  0  0
  -23.5260  -32.1310   23.7680 O   0  0  0  0  0  0  0  0  0  0  0  0
  -22.7480  -29.4380   22.5370 C   0  0  0  0  0  0  0  0  0  0  0  0
  -21.4220  -29.2650   22.4120 N   0  0  0  0  0  0  0  0  0  0  0  0
  -23.4290  -28.8070   23.3490 O   0  0  0  0  0  0  0  0  0  0  0  0
  -20.9350  -29.8280   21.7280 H   0  0  0  0  0  0  0  0  0  0  0  0
  -18.0420  -28.0930   22.9080 C   0  0  0  0  0  0  0  0  0  0  0  0
  -20.6010  -28.3300   23.1800 C   0  0  0  0  0  3  0  0  0  0  0  0
  -20.6930  -26.9010   22.5960 C   0  0  0  0  0  2  0  0  0  0  0  0
  -19.5870  -26.5910   21.5830 C   0  0  0  0  0  2  0  0  0  0  0  0
  -18.2070  -26.7450   22.2290 C   0  0  0  0  0  2  0  0  0  0  0  0
  -19.1660  -28.8450   23.3410 C   0  0  0  0  0  0  0  0  0  0  0  0
  -18.9580  -30.1070   23.9370 C   0  0  0  0  0  3  0  0  0  0  0  0
  -17.6570  -30.6180   24.1060 C   0  0  0  0  0  3  0  0  0  0  0  0
  -16.5460  -29.8630   23.6910 C   0  0  0  0  0  3  0  0  0  0  0  0
  -16.7390  -28.6040   23.0960 C   0  0  0  0  0  3  0  0  0  0  0  0
  -25.8960  -32.4840   23.8520 C   0  0  0  0  0  3  0  0  0  0  0  0
  -25.5890  -33.8800   24.1900 N   0  0  0  0  0  0  0  0  0  0  0  0
  -25.9170  -34.9350   23.4320 C   0  0  0  0  0  0  0  0  0  0  0  0
  -26.5840  -34.8350   22.3980 O   0  0  0  0  0  0  0  0  0  0  0  0
  -25.0000  -34.0320   24.9960 H   0  0  0  0  0  0  0  0  0  0  0  0
  -24.1840  -36.7240   23.0930 C   0  0  0  0  0  1  0  0  0  0  0  0
  -25.4310  -36.3220   23.8960 C   0  0  0  0  0  3  0  0  0  0  0  0
  -27.5710  -37.2070   24.7130 C   0  0  0  0  0  1  0  0  0  0  0  0
  -26.4620  -37.3770   23.7770 N   0  0  0  0  0  0  0  0  0  0  0  0
  -26.0560  -38.2950   23.9300 H   0  0  0  0  0  0  0  0  0  0  0  0
  -26.4160  -31.7040   25.1210 C   0  0  1  0  0  0  0  0  0  0  0  0
  -25.3250  -31.4600   26.1910 C   0  0  0  0  0  1  0  0  0  0  0  0
  -26.9960  -30.3280   24.7170 C   0  0  0  0  0  1  0  0  0  0  0  0
  -27.5690  -32.4920   25.7850 C   0  0  0  0  0  1  0  0  0  0  0  0
  -28.9270  -21.0430   19.3430 C   0  0  0  0  0  2  0  0  0  0  0  0
  -29.0000  -20.1120   20.5760 C   0  0  0  0  0  2  0  0  0  0  0  0
  -29.9030  -18.8800   20.3550 C   0  0  0  0  0  2  0  0  0  0  0  0
  -29.5780  -17.6850   21.2700 C   0  0  0  0  0  2  0  0  0  0  0  0
  -30.7080  -16.6300   21.2940 C   0  0  0  0  0  2  0  0  0  0  0  0
  -30.7850  -14.3460   20.3040 C   0  0  0  0  0  0  0  0  0  0  0  0
  -30.3870  -12.2600   19.0620 C   0  0  0  0  0  2  0  0  0  0  0  0
  -29.4140  -12.5300   17.8970 C   0  0  0  0  0  2  0  0  0  0  0  0
  -27.9530  -12.4160   18.3690 C   0  0  0  0  0  2  0  0  0  0  0  0
  -27.6740  -13.2260   19.6640 C   0  0  0  0  0  3  0  0  0  0  0  0
  -28.7480  -12.9230   20.7320 C   0  0  0  0  0  2  0  0  0  0  0  0
  -30.0700  -13.2050   20.1410 N   0  0  0  0  0  0  0  0  0  0  0  0
  -31.8540  -14.5640   19.7260 O   0  0  0  0  0  0  0  0  0  0  0  0
  -30.2100  -15.2710   21.0850 N   0  0  0  0  0  0  0  0  0  0  0  0
  -29.3390  -15.0120   21.5220 H   0  0  0  0  0  0  0  0  0  0  0  0
  -25.2960  -13.8780   20.4060 C   0  0  0  0  0  0  0  0  0  0  0  0
  -24.2200  -13.1240   20.7970 C   0  0  0  0  0  0  0  0  0  0  0  0
  -24.6600  -11.7650   20.7660 C   0  0  0  0  0  0  0  0  0  0  0  0
  -26.3230  -12.9780   20.1650 N   0  0  0  0  0  0  0  0  0  0  0  0
  -25.9430  -11.7020   20.4350 N   0  0  0  0  0  0  0  0  0  0  0  0
  -23.9170  -10.5160   20.9780 C   0  0  0  0  0  0  0  0  0  0  0  0
  -24.3620   -9.5450   21.9010 C   0  0  0  0  0  3  0  0  0  0  0  0
  -23.6260   -8.3580   22.1010 C   0  0  0  0  0  3  0  0  0  0  0  0
  -22.4310   -8.1340   21.3760 C   0  0  0  0  0  0  0  0  0  0  0  0
  -22.0050   -9.0940   20.4420 C   0  0  0  0  0  3  0  0  0  0  0  0
  -22.7410  -10.2740   20.2420 C   0  0  0  0  0  3  0  0  0  0  0  0
  -21.6620   -7.0010   21.4870 O   0  0  0  0  0  0  0  0  0  0  0  0
  -21.6380   -6.2570   22.6400 C   0  0  0  0  0  0  0  0  0  0  0  0
  -21.2660   -6.8170   23.8810 C   0  0  0  0  0  3  0  0  0  0  0  0
  -21.1870   -6.0000   25.0260 C   0  0  0  0  0  3  0  0  0  0  0  0
  -21.4710   -4.6250   24.9320 C   0  0  0  0  0  0  0  0  0  0  0  0
  -21.8360   -4.0640   23.6960 C   0  0  0  0  0  3  0  0  0  0  0  0
  -21.9160   -4.8780   22.5520 C   0  0  0  0  0  0  0  0  0  0  0  0
  -22.2500   -4.3290   21.3600 F   0  0  0  0  0  0  0  0  0  0  0  0
  -21.3860   -3.8380   26.0300 F   0  0  0  0  0  0  0  0  0  0  0  0
  -22.8360  -13.6240   21.0940 C   0  0  0  0  0  0  0  0  0  0  0  0
  -22.1200  -12.9440   21.9830 N   0  0  0  0  0  0  0  0  0  0  0  0
  -22.4010  -14.6520   20.5770 O   0  0  0  0  0  0  0  0  0  0  0  0
  -22.4870  -12.1130   22.4240 H   0  0  0  0  0  0  0  0  0  0  0  0
  -21.1920  -13.2580   22.2280 H   0  0  0  0  0  0  0  0  0  0  0  0
  -25.4820  -15.2430   20.2200 N   0  0  0  0  0  0  0  0  0  0  0  0
  -24.7380  -15.9200   20.3440 H   0  0  0  0  0  0  0  0  0  0  0  0
  -26.3390  -15.6580   19.8720 H   0  0  0  0  0  0  0  0  0  0  0  0
  1  2  2  0
  1  4  1  0
  2  5  1  0
  4  6  2  0
  5  9  1  0
  5  3  2  0
  6  3  1  0
  6  7  1  0
  7  8  1  0
  9 11  1  0
 10 21  2  0
 11 16  1  0
 12 20  1  0
 12 22  1  0
 13 19  1  0
 13 15  1  0
 14 20  1  0
 15 16  2  0
 15 14  1  0
 17 18  1  0
 17 11  2  0
 18 13  2  0
 19 12  1  0
 20 10  1  0
 22 24  2  0
 23 22  1  0
 25 23  1  0
 26 35  2  0
 26 31  1  0
 27 23  1  0
 27 31  1  0
 28 27  1  0
 29 30  1  0
 29 28  1  0
 30 26  1  0
 31 32  2  0
 32 33  1  0
 34 33  2  0
 35 34  1  0
 36 10  1  0
 36 37  1  0
 36 46  1  0
 37 40  1  0
 38 42  1  0
 38 37  1  0
 39 38  2  0
 42 41  1  0
 44 42  1  0
 44 45  1  0
 44 43  1  0
 46 49  1  1
 46 47  1  0
 48 46  1  0
 50  4  1  0
 50 51  1  0
 52 51  1  0
 52 53  1  0
 53 54  1  0
 55 63  1  0
 56 61  1  0
 57 58  1  0
 57 56  1  0
 59 58  1  0
 59 68  1  0
 59 60  1  0
 61 55  1  0
 61 60  1  0
 62 55  2  0
 63 54  1  0
 63 64  1  0
 65 66  2  0
 66 85  1  0
 67 66  1  0
 67 70  1  0
 68 65  1  0
 68 69  1  0
 69 67  2  0
 70 71  1  0
 71 72  2  0
 73 76  1  0
 73 72  1  0
 74 73  2  0
 75 74  1  0
 75 70  2  0
 76 77  1  0
 77 78  1  0
 78 79  2  0
 80 79  1  0
 80 84  1  0
 81 80  2  0
 82 77  2  0
 82 81  1  0
 83 82  1  0
 85 86  1  0
 86 89  1  0
 86 88  1  0
 87 85  2  0
 90 91  1  0
 90 65  1  0
 92 90  1  0
M  ISO  4   5 101   9 101  55 100  63 100
M  END
>  <TORSDO>  (59) 
F 22

>  <SCORE>  (59) 
-13.431

>  <name>  (59) 
58

>  <ligand_id>  (59) 
58

>  <original_smiles>  (59) 
[H]Oc1c([H])c(Oc2c([H])c([H])c3c(c2[H])C([H])([H])N(C(=O)C([H])(N([H])C(=O)C([H])(N([H])C([H])([H])[H])C([H])([H])[H])C(C([H])([H])[H])(C([H])([H])[H])C([H])([H])[H])C([H])(C(=O)N([H])C2([H])c4c([H])c([H])c([H])c([H])c4C([H])([H])C([H])([H])C2([H])[H])C3([H])[H])c([H])c([H])c1C([H])([H])C([H])([H])C([H])([H])C([H])([H])C([H])([H])N([H])C(=O)N1C([H])([H])C([H])([H])C([H])([H])C([H])(n2nc(-c3c([H])c([H])c(Oc4c([H])c([H])c(F)c([H])c4F)c([H])c3[H])c(C(=O)N([H])[H])c2N([H])[H])C1([H])[H]

>  <smiles>  (59) 
[H]Oc1c([H])c(Oc2c([H])c([H])c3c(c2[H])C([H])([H])N(C(=O)C([H])(N([H])C(=O)C([H])(N([H])C([H])([H])[H])C([H])([H])[H])C(C([H])([H])[H])(C([H])([H])[H])C([H])([H])[H])C([H])(C(=O)N([H])C2([H])c4c([H])c([H])c([H])c([H])c4C([H])([H])C([H])([H])C2([H])[H])C3([H])[H])c([H])c([H])c1C([H])([H])C([H])([H])C([H])([H])C([H])([H])C([H])([H])N([H])C(=O)N1C([H])([H])C([H])([H])C([H])([H])C([H])(n2nc(-c3c([H])c([H])c(Oc4c([H])c([H])c(F)c([H])c4F)c([H])c3[H])c(C(=O)N([H])[H])c2N([H])[H])C1([H])[H]

$$$$
59:0:0
     RDKit          3D

 85 94  0  0  1  0  0  0  0  0999 V2000
  -30.1620  -16.1370   20.2910 C   0  0  0  0  0  0  0  0  0  0  0  0
  -30.3520  -13.4980   19.4960 C   0  0  0  0  0  2  0  0  0  0  0  0
  -29.5430  -12.8640   18.3180 C   0  0  0  0  0  2  0  0  0  0  0  0
  -28.1570  -12.4050   18.7770 C   0  0  0  0  0  2  0  0  0  0  0  0
  -27.5560  -13.4360   19.7520 C   0  0  0  0  0  3  0  0  0  0  0  0
  -28.5330  -13.9620   20.8460 C   0  0  0  0  0  2  0  0  0  0  0  0
  -29.6290  -14.7220   20.1590 N   0  0  0  0  0  0  0  0  0  0  0  0
  -31.4010  -15.9170   20.2340 O   0  0  0  0  0  0  0  0  0  0  0  0
  -27.6530  -22.0850   20.3160 C   0  0  0  0  0  3  0  0  0  0  0  0
  -28.3610  -20.5660   20.3070 C   0  0  0  0  0  0  0  0  0  0  0  0
  -29.6730  -20.6710   20.2660 C   0  0  0  0  0  0  0  0  0  0  0  0
  -28.3020  -23.4850   20.2850 C   0  0  0  0  0  0  0  0  0  0  0  0
  -28.2820  -18.7790   20.3300 C   0  0  0  0  0  3  0  0  0  0  0  0
  -30.4340  -19.1360   20.2560 C   0  0  0  0  0  3  0  0  0  0  0  0
  -29.6090  -17.7150   20.2870 N   0  0  0  0  0  0  0  0  0  0  0  0
  -30.0070  -22.5850   20.2450 S   0  0  0  0  0  0  0  0  0  0  0  0
  -25.1810  -13.9020   20.4750 C   0  0  0  0  0  0  0  0  0  0  0  0
  -24.1300  -13.1050   20.8240 C   0  0  0  0  0  0  0  0  0  0  0  0
  -24.6280  -11.7650   20.8170 C   0  0  0  0  0  0  0  0  0  0  0  0
  -26.2480  -13.0540   20.2650 N   0  0  0  0  0  0  0  0  0  0  0  0
  -25.9310  -11.7580   20.5340 N   0  0  0  0  0  0  0  0  0  0  0  0
  -23.9160  -10.4920   21.0020 C   0  0  0  0  0  0  0  0  0  0  0  0
  -24.3310   -9.5430   21.9630 C   0  0  0  0  0  3  0  0  0  0  0  0
  -23.6120   -8.3400   22.1410 C   0  0  0  0  0  3  0  0  0  0  0  0
  -22.4620   -8.0770   21.3590 C   0  0  0  0  0  0  0  0  0  0  0  0
  -22.0660   -9.0140   20.3890 C   0  0  0  0  0  3  0  0  0  0  0  0
  -22.7860  -10.2070   20.2090 C   0  0  0  0  0  3  0  0  0  0  0  0
  -21.7180   -6.9250   21.4440 O   0  0  0  0  0  0  0  0  0  0  0  0
  -21.6380   -6.2020   22.6080 C   0  0  0  0  0  0  0  0  0  0  0  0
  -21.1530   -6.7700   23.8060 C   0  0  0  0  0  3  0  0  0  0  0  0
  -21.0240   -5.9740   24.9620 C   0  0  0  0  0  3  0  0  0  0  0  0
  -21.3680   -4.6100   24.9190 C   0  0  0  0  0  0  0  0  0  0  0  0
  -21.8460   -4.0410   23.7250 C   0  0  0  0  0  3  0  0  0  0  0  0
  -21.9770   -4.8340   22.5730 C   0  0  0  0  0  0  0  0  0  0  0  0
  -22.4180   -4.2750   21.4200 F   0  0  0  0  0  0  0  0  0  0  0  0
  -21.2370   -3.8420   26.0260 F   0  0  0  0  0  0  0  0  0  0  0  0
  -22.7190  -13.5590   21.0450 C   0  0  0  0  0  0  0  0  0  0  0  0
  -21.9810  -12.8720   21.9090 N   0  0  0  0  0  0  0  0  0  0  0  0
  -22.2790  -14.5640   20.4880 O   0  0  0  0  0  0  0  0  0  0  0  0
  -22.3510  -12.0610   22.3820 H   0  0  0  0  0  0  0  0  0  0  0  0
  -21.0320  -13.1610   22.0990 H   0  0  0  0  0  0  0  0  0  0  0  0
  -25.3170  -15.2740   20.2820 N   0  0  0  0  0  0  0  0  0  0  0  0
  -24.5330  -15.9130   20.3640 H   0  0  0  0  0  0  0  0  0  0  0  0
  -26.1640  -15.7250   19.9620 H   0  0  0  0  0  0  0  0  0  0  0  0
  -28.1680  -25.1650   20.3010 O   0  0  0  0  0  0  0  0  0  0  0  0
  -24.6770  -31.8440   23.1610 C   0  0  0  0  0  0  0  0  0  0  0  0
  -27.1940  -26.4830   20.2800 C   0  0  0  0  0  0  0  0  0  0  0  0
  -23.5100  -30.4290   21.5280 C   0  0  0  0  0  3  0  0  0  0  0  0
  -24.9650  -28.7040   20.1670 C   0  0  0  0  0  0  0  0  0  0  0  0
  -26.1000  -30.4770   21.4680 C   0  0  0  0  0  2  0  0  0  0  0  0
  -26.1590  -29.0060   20.8300 C   0  0  0  0  0  0  0  0  0  0  0  0
  -27.2410  -27.9320   20.8480 C   0  0  0  0  0  3  0  0  0  0  0  0
  -25.9680  -26.4680   19.5450 C   0  0  0  0  0  3  0  0  0  0  0  0
  -24.9250  -27.4640   19.4980 C   0  0  0  0  0  3  0  0  0  0  0  0
  -23.7750  -29.6950   20.1770 C   0  0  0  0  0  2  0  0  0  0  0  0
  -24.7890  -30.9580   22.1030 N   0  0  0  0  0  0  0  0  0  0  0  0
  -23.5740  -32.1650   23.6420 O   0  0  0  0  0  0  0  0  0  0  0  0
  -22.7530  -29.4890   22.5080 C   0  0  0  0  0  0  0  0  0  0  0  0
  -21.4170  -29.3690   22.3840 N   0  0  0  0  0  0  0  0  0  0  0  0
  -23.3880  -28.8610   23.3580 O   0  0  0  0  0  0  0  0  0  0  0  0
  -20.9510  -29.9260   21.6810 H   0  0  0  0  0  0  0  0  0  0  0  0
  -18.0010  -28.2250   22.9220 C   0  0  0  0  0  0  0  0  0  0  0  0
  -20.5700  -28.4500   23.1600 C   0  0  0  0  0  3  0  0  0  0  0  0
  -20.6380  -27.0160   22.5820 C   0  0  0  0  0  2  0  0  0  0  0  0
  -19.5240  -26.7180   21.5740 C   0  0  0  0  0  2  0  0  0  0  0  0
  -18.1500  -26.8800   22.2300 C   0  0  0  0  0  2  0  0  0  0  0  0
  -19.1380  -28.9690   23.3430 C   0  0  0  0  0  0  0  0  0  0  0  0
  -18.9400  -30.2250   23.9590 C   0  0  0  0  0  3  0  0  0  0  0  0
  -17.6420  -30.7370   24.1500 C   0  0  0  0  0  3  0  0  0  0  0  0
  -16.5230  -29.9920   23.7400 C   0  0  0  0  0  3  0  0  0  0  0  0
  -16.7040  -28.7370   23.1320 C   0  0  0  0  0  3  0  0  0  0  0  0
  -25.9230  -32.5100   23.8200 C   0  0  0  0  0  3  0  0  0  0  0  0
  -25.5860  -33.9120   24.1550 N   0  0  0  0  0  0  0  0  0  0  0  0
  -25.9180  -34.9870   23.4270 C   0  0  0  0  0  0  0  0  0  0  0  0
  -26.5870  -34.9050   22.3950 O   0  0  0  0  0  0  0  0  0  0  0  0
  -24.9860  -34.0480   24.9540 H   0  0  0  0  0  0  0  0  0  0  0  0
  -24.1790  -36.7940   23.1320 C   0  0  0  0  0  1  0  0  0  0  0  0
  -25.4350  -36.3730   23.9140 C   0  0  0  0  0  3  0  0  0  0  0  0
  -27.5750  -37.2690   24.7250 C   0  0  0  0  0  1  0  0  0  0  0  0
  -26.4620  -37.4330   23.7960 N   0  0  0  0  0  0  0  0  0  0  0  0
  -26.0530  -38.3510   23.9490 H   0  0  0  0  0  0  0  0  0  0  0  0
  -26.4030  -31.7620   25.1270 C   0  0  1  0  0  0  0  0  0  0  0  0
  -25.2810  -31.5450   26.1710 C   0  0  0  0  0  1  0  0  0  0  0  0
  -26.9920  -30.3750   24.7900 C   0  0  0  0  0  1  0  0  0  0  0  0
  -27.5380  -32.5640   25.8040 C   0  0  0  0  0  1  0  0  0  0  0  0
  2  7  1  0
  3  4  1  0
  3  2  1  0
  5  4  1  0
  5 20  1  0
  5  6  1  0
  7  1  1  0
  7  6  1  0
  8  1  2  0
 10  9  1  0
 10 13  2  0
 11 10  1  0
 12 45  1  0
 12  9  2  0
 14 11  2  0
 14 15  1  0
 15  1  1  0
 15 13  1  0
 16 11  1  0
 16 12  1  0
 17 18  2  0
 18 37  1  0
 19 18  1  0
 19 22  1  0
 20 17  1  0
 20 21  1  0
 21 19  2  0
 22 23  1  0
 23 24  2  0
 25 28  1  0
 25 24  1  0
 26 25  2  0
 27 26  1  0
 27 22  2  0
 28 29  1  0
 29 30  1  0
 30 31  2  0
 32 31  1  0
 32 36  1  0
 33 32  2  0
 34 29  2  0
 34 33  1  0
 35 34  1  0
 37 38  1  0
 38 41  1  0
 38 40  1  0
 39 37  2  0
 42 43  1  0
 42 17  1  0
 44 42  1  0
 46 57  2  0
 47 45  1  0
 47 52  1  0
 48 56  1  0
 48 58  1  0
 49 55  1  0
 49 51  1  0
 50 56  1  0
 51 52  2  0
 51 50  1  0
 53 47  2  0
 54 53  1  0
 54 49  2  0
 55 48  1  0
 56 46  1  0
 58 60  2  0
 59 58  1  0
 61 59  1  0
 62 71  2  0
 62 67  1  0
 63 59  1  0
 63 67  1  0
 64 63  1  0
 65 66  1  0
 65 64  1  0
 66 62  1  0
 67 68  2  0
 68 69  1  0
 70 69  2  0
 71 70  1  0
 72 46  1  0
 72 73  1  0
 72 82  1  0
 73 76  1  0
 74 78  1  0
 74 73  1  0
 75 74  2  0
 78 77  1  0
 80 78  1  0
 80 81  1  0
 80 79  1  0
 82 85  1  1
 82 83  1  0
 84 82  1  0
M  ISO  4   1 100  12 101  15 100  45 101
M  END
>  <TORSDO>  (60) 
F 15

>  <SCORE>  (60) 
-16.393

>  <name>  (60) 
59

>  <ligand_id>  (60) 
59

>  <original_smiles>  (60) 
[H]c1c([H])c([H])c2c(c1[H])C([H])([H])C([H])([H])C([H])([H])C2([H])N([H])C(=O)C1([H])N(C(=O)C([H])(N([H])C(=O)C([H])(N([H])C([H])([H])[H])C([H])([H])[H])C(C([H])([H])[H])(C([H])([H])[H])C([H])([H])[H])C([H])([H])c2c([H])c(Oc3sc4c(c3[H])C([H])([H])N(C(=O)N3C([H])([H])C([H])([H])C([H])([H])C([H])(n5nc(-c6c([H])c([H])c(Oc7c([H])c([H])c(F)c([H])c7F)c([H])c6[H])c(C(=O)N([H])[H])c5N([H])[H])C3([H])[H])C4([H])[H])c([H])c([H])c2C1([H])[H]

>  <smiles>  (60) 
[H]c1c([H])c([H])c2c(c1[H])C([H])([H])C([H])([H])C([H])([H])C2([H])N([H])C(=O)C1([H])N(C(=O)C([H])(N([H])C(=O)C([H])(N([H])C([H])([H])[H])C([H])([H])[H])C(C([H])([H])[H])(C([H])([H])[H])C([H])([H])[H])C([H])([H])c2c([H])c(Oc3sc4c(c3[H])C([H])([H])N(C(=O)N3C([H])([H])C([H])([H])C([H])([H])C([H])(n5nc(-c6c([H])c([H])c(Oc7c([H])c([H])c(F)c([H])c7F)c([H])c6[H])c(C(=O)N([H])[H])c5N([H])[H])C3([H])[H])C4([H])[H])c([H])c([H])c2C1([H])[H]

$$$$
60:0:0
     RDKit          3D

 90 99  0  0  1  0  0  0  0  0999 V2000
  -29.1120  -20.4760   20.5060 N   0  0  0  0  0  4  0  0  0  0  0  0
  -29.6420  -20.6640   21.3390 H   0  0  0  0  0  0  0  0  0  0  0  0
  -28.1700  -20.2980   20.8190 H   0  0  0  0  0  0  0  0  0  0  0  0
  -29.0310  -17.7610   21.9350 C   0  0  0  0  0  2  0  0  0  0  0  0
  -30.9590  -18.5950   20.6720 C   0  0  0  0  0  2  0  0  0  0  0  0
  -29.6860  -16.2340   20.7390 C   0  0  0  0  0  3  0  0  0  0  0  0
  -28.9270  -17.6950   20.3890 C   0  0  0  0  0  3  0  0  0  0  0  0
  -29.6630  -19.0770   19.9630 C   0  0  0  0  0  3  0  0  0  0  0  0
  -30.4740  -17.3630   21.5200 C   0  0  2  0  0  0  0  0  0  0  0  0
  -31.4700  -17.0000   22.6170 C   0  0  0  0  0  1  0  0  0  0  0  0
  -30.4280  -14.9740   19.9330 C   0  0  0  0  0  0  0  0  0  0  0  0
  -30.3260  -12.6600   18.8540 C   0  0  0  0  0  2  0  0  0  0  0  0
  -29.2690  -12.6190   17.7200 C   0  0  0  0  0  2  0  0  0  0  0  0
  -27.8470  -12.3820   18.2660 C   0  0  0  0  0  2  0  0  0  0  0  0
  -27.5530  -13.2550   19.5140 C   0  0  0  0  0  3  0  0  0  0  0  0
  -28.7000  -13.1590   20.5340 C   0  0  0  0  0  2  0  0  0  0  0  0
  -29.9090  -13.6730   19.8680 N   0  0  0  0  0  0  0  0  0  0  0  0
  -31.5340  -15.1430   19.4080 O   0  0  0  0  0  0  0  0  0  0  0  0
  -25.2540  -13.8220   20.4910 C   0  0  0  0  0  0  0  0  0  0  0  0
  -24.2150  -13.0380   20.9120 C   0  0  0  0  0  0  0  0  0  0  0  0
  -24.6570  -11.6880   20.7680 C   0  0  0  0  0  0  0  0  0  0  0  0
  -26.2580  -12.9470   20.1080 N   0  0  0  0  0  0  0  0  0  0  0  0
  -25.9130  -11.6560   20.3370 N   0  0  0  0  0  0  0  0  0  0  0  0
  -23.9370  -10.4230   20.9600 C   0  0  0  0  0  0  0  0  0  0  0  0
  -24.3970   -9.4410   21.8660 C   0  0  0  0  0  3  0  0  0  0  0  0
  -23.6780   -8.2390   22.0450 C   0  0  0  0  0  3  0  0  0  0  0  0
  -22.4840   -8.0120   21.3170 C   0  0  0  0  0  0  0  0  0  0  0  0
  -22.0440   -8.9820   20.3960 C   0  0  0  0  0  3  0  0  0  0  0  0
  -22.7640  -10.1750   20.2170 C   0  0  0  0  0  3  0  0  0  0  0  0
  -21.7280   -6.8680   21.4110 O   0  0  0  0  0  0  0  0  0  0  0  0
  -21.6570   -6.1470   22.5740 C   0  0  0  0  0  0  0  0  0  0  0  0
  -21.1650   -6.7140   23.7700 C   0  0  0  0  0  3  0  0  0  0  0  0
  -21.0410   -5.9170   24.9260 C   0  0  0  0  0  3  0  0  0  0  0  0
  -21.3930   -4.5540   24.8850 C   0  0  0  0  0  0  0  0  0  0  0  0
  -21.8730   -3.9870   23.6910 C   0  0  0  0  0  3  0  0  0  0  0  0
  -22.0030   -4.7810   22.5390 C   0  0  0  0  0  0  0  0  0  0  0  0
  -22.4440   -4.2240   21.3850 F   0  0  0  0  0  0  0  0  0  0  0  0
  -21.2660   -3.7870   25.9940 F   0  0  0  0  0  0  0  0  0  0  0  0
  -22.8550  -13.5110   21.3330 C   0  0  0  0  0  0  0  0  0  0  0  0
  -22.2010  -12.7700   22.2210 N   0  0  0  0  0  0  0  0  0  0  0  0
  -22.3860  -14.5690   20.9160 O   0  0  0  0  0  0  0  0  0  0  0  0
  -22.6010  -11.9160   22.5810 H   0  0  0  0  0  0  0  0  0  0  0  0
  -21.2880  -13.0560   22.5450 H   0  0  0  0  0  0  0  0  0  0  0  0
  -25.4270  -15.1970   20.3830 N   0  0  0  0  0  0  0  0  0  0  0  0
  -24.7090  -15.8590   20.6520 H   0  0  0  0  0  0  0  0  0  0  0  0
  -26.2680  -15.6410   20.0410 H   0  0  0  0  0  0  0  0  0  0  0  0
  -29.0460  -21.8520   19.7260 C   0  0  0  0  0  2  0  0  0  0  0  0
  -28.6270  -23.3150   20.4630 C   0  0  0  0  0  3  0  0  0  0  0  0
  -28.3210  -24.7690   19.6670 C   0  0  0  0  0  3  0  0  0  0  0  0
  -28.2830  -26.2180   20.2400 O   0  0  0  0  0  0  0  0  0  0  0  0
  -24.6250  -31.8830   23.1690 C   0  0  0  0  0  0  0  0  0  0  0  0
  -27.2090  -27.1750   20.1360 C   0  0  0  0  0  0  0  0  0  0  0  0
  -23.4280  -30.4810   21.5330 C   0  0  0  0  0  3  0  0  0  0  0  0
  -24.8770  -28.9150   20.1040 C   0  0  0  0  0  0  0  0  0  0  0  0
  -25.9780  -30.7560   21.3640 C   0  0  0  0  0  2  0  0  0  0  0  0
  -26.0530  -29.3620   20.7170 C   0  0  0  0  0  0  0  0  0  0  0  0
  -27.2150  -28.5040   20.7240 C   0  0  0  0  0  3  0  0  0  0  0  0
  -26.0050  -26.8320   19.4810 C   0  0  0  0  0  3  0  0  0  0  0  0
  -24.8650  -27.6630   19.4740 C   0  0  0  0  0  3  0  0  0  0  0  0
  -23.6470  -29.8090   20.1530 C   0  0  0  0  0  2  0  0  0  0  0  0
  -24.6980  -31.0610   22.0790 N   0  0  0  0  0  0  0  0  0  0  0  0
  -23.5380  -32.1640   23.6970 O   0  0  0  0  0  0  0  0  0  0  0  0
  -22.7580  -29.4680   22.4980 C   0  0  0  0  0  0  0  0  0  0  0  0
  -21.4340  -29.2740   22.3600 N   0  0  0  0  0  0  0  0  0  0  0  0
  -23.4300  -28.8600   23.3330 O   0  0  0  0  0  0  0  0  0  0  0  0
  -20.9470  -29.8170   21.6610 H   0  0  0  0  0  0  0  0  0  0  0  0
  -18.0670  -28.0320   22.8390 C   0  0  0  0  0  0  0  0  0  0  0  0
  -20.6190  -28.3330   23.1320 C   0  0  0  0  0  3  0  0  0  0  0  0
  -20.7470  -26.8980   22.5730 C   0  0  0  0  0  2  0  0  0  0  0  0
  -19.6590  -26.5490   21.5510 C   0  0  0  0  0  2  0  0  0  0  0  0
  -18.2690  -26.6800   22.1780 C   0  0  0  0  0  2  0  0  0  0  0  0
  -19.1690  -28.8150   23.2730 C   0  0  0  0  0  0  0  0  0  0  0  0
  -18.9220  -30.0810   23.8510 C   0  0  0  0  0  3  0  0  0  0  0  0
  -17.6090  -30.5610   24.0000 C   0  0  0  0  0  3  0  0  0  0  0  0
  -16.5210  -29.7760   23.5820 C   0  0  0  0  0  3  0  0  0  0  0  0
  -16.7510  -28.5130   23.0070 C   0  0  0  0  0  3  0  0  0  0  0  0
  -25.9010  -32.5250   23.7910 C   0  0  0  0  0  3  0  0  0  0  0  0
  -26.4250  -31.7510   25.0650 C   0  0  1  0  0  0  0  0  0  0  0  0
  -25.3350  -31.4940   26.1310 C   0  0  0  0  0  1  0  0  0  0  0  0
  -27.0240  -30.3840   24.6680 C   0  0  0  0  0  1  0  0  0  0  0  0
  -27.5660  -32.5540   25.7330 C   0  0  0  0  0  1  0  0  0  0  0  0
  -25.5820  -33.9190   24.1340 N   0  0  0  0  0  0  0  0  0  0  0  0
  -25.8980  -34.9830   23.3840 C   0  0  0  0  0  0  0  0  0  0  0  0
  -26.5570  -34.8940   22.3440 O   0  0  0  0  0  0  0  0  0  0  0  0
  -25.0010  -34.0620   24.9480 H   0  0  0  0  0  0  0  0  0  0  0  0
  -24.1600  -36.7720   23.0520 C   0  0  0  0  0  1  0  0  0  0  0  0
  -25.4040  -36.3640   23.8560 C   0  0  0  0  0  3  0  0  0  0  0  0
  -27.5330  -37.2580   24.6970 C   0  0  0  0  0  1  0  0  0  0  0  0
  -26.4310  -37.4250   23.7540 N   0  0  0  0  0  0  0  0  0  0  0  0
  -26.0190  -38.3420   23.9070 H   0  0  0  0  0  0  0  0  0  0  0  0
  1  3  1  0
  1  2  1  0
  5  9  1  0
  6 11  1  0
  6  9  1  0
  7  6  1  0
  7  4  1  0
  8  7  1  0
  8  1  1  0
  8  5  1  0
  9  4  1  0
  9 10  1  1
 12 17  1  0
 13 14  1  0
 13 12  1  0
 15 14  1  0
 15 22  1  0
 15 16  1  0
 17 11  1  0
 17 16  1  0
 18 11  2  0
 19 20  2  0
 20 39  1  0
 21 20  1  0
 21 24  1  0
 22 23  1  0
 22 19  1  0
 23 21  2  0
 24 25  1  0
 25 26  2  0
 27 30  1  0
 27 26  1  0
 28 27  2  0
 29 28  1  0
 29 24  2  0
 30 31  1  0
 31 32  1  0
 32 33  2  0
 34 33  1  0
 34 38  1  0
 35 34  2  0
 36 31  2  0
 36 35  1  0
 37 36  1  0
 39 40  1  0
 40 43  1  0
 40 42  1  0
 41 39  2  0
 44 19  1  0
 44 45  1  0
 46 44  1  0
 47 48  1  0
 47  1  1  0
 49 50  1  0
 49 48  2  0
 51 62  2  0
 52 50  1  0
 52 57  1  0
 53 61  1  0
 53 63  1  0
 54 60  1  0
 54 56  1  0
 55 61  1  0
 56 57  2  0
 56 55  1  0
 58 52  2  0
 59 58  1  0
 59 54  2  0
 60 53  1  0
 61 51  1  0
 63 65  2  0
 64 63  1  0
 66 64  1  0
 67 76  2  0
 67 72  1  0
 68 64  1  0
 68 72  1  0
 69 68  1  0
 70 71  1  0
 70 69  1  0
 71 67  1  0
 72 73  2  0
 73 74  1  0
 75 74  2  0
 76 75  1  0
 77 51  1  0
 77 82  1  0
 77 78  1  0
 78 81  1  1
 78 79  1  0
 80 78  1  0
 82 85  1  0
 83 87  1  0
 83 82  1  0
 84 83  2  0
 87 86  1  0
 89 87  1  0
 89 90  1  0
 89 88  1  0
M  ISO  4   6 100  11 100  49 101  50 101
M  END
>  <TORSDO>  (61) 
F 20

>  <SCORE>  (61) 
-11.763

>  <name>  (61) 
60

>  <ligand_id>  (61) 
60

>  <original_smiles>  (61) 
[H]c1c([H])c([H])c2c(c1[H])C([H])([H])C([H])([H])C([H])([H])C2([H])N([H])C(=O)C1([H])N(C(=O)C([H])(N([H])C(=O)C([H])(N([H])C([H])([H])[H])C([H])([H])[H])C(C([H])([H])[H])(C([H])([H])[H])C([H])([H])[H])C([H])([H])c2c([H])c(OC([H])([H])C([H])([H])C([H])([H])[N+]([H])([H])C3([H])C([H])([H])C4(C([H])([H])[H])C([H])([H])C3([H])C4([H])C(=O)N3C([H])([H])C([H])([H])C([H])([H])C([H])(n4nc(-c5c([H])c([H])c(Oc6c([H])c([H])c(F)c([H])c6F)c([H])c5[H])c(C(=O)N([H])[H])c4N([H])[H])C3([H])[H])c([H])c([H])c2C1([H])[H]

>  <smiles>  (61) 
[H]c1c([H])c([H])c2c(c1[H])C([H])([H])C([H])([H])C([H])([H])C2([H])N([H])C(=O)C1([H])N(C(=O)C([H])(N([H])C(=O)C([H])(N([H])C([H])([H])[H])C([H])([H])[H])C(C([H])([H])[H])(C([H])([H])[H])C([H])([H])[H])C([H])([H])c2c([H])c(OC([H])([H])C([H])([H])C([H])([H])[N+]([H])([H])C3([H])C([H])([H])C4(C([H])([H])[H])C([H])([H])C3([H])C4([H])C(=O)N3C([H])([H])C([H])([H])C([H])([H])C([H])(n4nc(-c5c([H])c([H])c(Oc6c([H])c([H])c(F)c([H])c6F)c([H])c5[H])c(C(=O)N([H])[H])c4N([H])[H])C3([H])[H])c([H])c([H])c2C1([H])[H]

$$$$
61:0:0
     RDKit          3D

 94104  0  0  1  0  0  0  0  0999 V2000
  -29.0440  -24.5550   17.8000 C   0  0  0  0  0  3  0  0  0  0  0  0
  -29.3260  -24.0700   16.5110 C   0  0  0  0  0  3  0  0  0  0  0  0
  -29.4420  -21.8060   17.3870 C   0  0  0  0  0  3  0  0  0  0  0  0
  -28.9490  -23.6990   18.9200 C   0  0  0  0  0  0  0  0  0  0  0  0
  -29.1800  -22.2460   18.7070 C   0  0  0  0  0  0  0  0  0  0  0  0
  -29.5170  -22.6960   16.3000 C   0  0  0  0  0  0  0  0  0  0  0  0
  -29.7930  -20.7550   22.0850 C   0  0  0  0  0  3  0  0  0  0  0  0
  -29.4440  -21.7000   21.1450 C   0  0  0  0  0  0  0  0  0  0  0  0
  -29.8630  -19.1520   21.9890 C   0  0  0  0  0  2  0  0  0  0  0  0
  -29.2990  -23.3410   21.3630 C   0  0  0  0  0  2  0  0  0  0  0  0
  -29.7430  -19.4960   19.5110 C   0  0  0  0  0  2  0  0  0  0  0  0
  -29.1440  -21.0850   19.7930 C   0  0  0  0  0  3  0  0  0  0  0  0
  -28.6090  -24.4230   20.2860 C   0  0  0  0  0  3  0  0  0  0  0  0
  -30.2940  -18.3830   20.6500 C   0  0  0  0  0  3  0  0  0  0  0  0
  -29.8040  -22.1640   14.9070 C   0  0  0  0  0  1  0  0  0  0  0  0
  -30.9320  -15.4730   20.4700 C   0  0  0  0  0  0  0  0  0  0  0  0
  -30.9670  -13.0590   19.5150 C   0  0  0  0  0  2  0  0  0  0  0  0
  -30.0740  -12.8770   18.2620 C   0  0  0  0  0  2  0  0  0  0  0  0
  -28.6210  -12.5710   18.6670 C   0  0  0  0  0  2  0  0  0  0  0  0
  -28.1310  -13.4980   19.8070 C   0  0  0  0  0  3  0  0  0  0  0  0
  -29.1530  -13.6250   20.9570 C   0  0  0  0  0  2  0  0  0  0  0  0
  -30.3890  -14.1630   20.3640 N   0  0  0  0  0  0  0  0  0  0  0  0
  -32.1560  -15.5050   20.2770 O   0  0  0  0  0  0  0  0  0  0  0  0
  -30.1310  -16.7150   20.5900 N   0  0  0  0  0  0  0  0  0  0  0  0
  -29.1570  -16.4570   20.6710 H   0  0  0  0  0  0  0  0  0  0  0  0
  -25.7260  -13.9920   20.4960 C   0  0  0  0  0  0  0  0  0  0  0  0
  -24.6760  -13.1860   20.8340 C   0  0  0  0  0  0  0  0  0  0  0  0
  -25.1820  -11.8480   20.8180 C   0  0  0  0  0  0  0  0  0  0  0  0
  -26.7990  -13.1470   20.2810 N   0  0  0  0  0  0  0  0  0  0  0  0
  -26.4820  -11.8510   20.5440 N   0  0  0  0  0  0  0  0  0  0  0  0
  -24.4860  -10.5660   20.9850 C   0  0  0  0  0  0  0  0  0  0  0  0
  -24.8810   -9.6300   21.9650 C   0  0  0  0  0  3  0  0  0  0  0  0
  -24.1800   -8.4150   22.1190 C   0  0  0  0  0  3  0  0  0  0  0  0
  -23.0670   -8.1270   21.2930 C   0  0  0  0  0  0  0  0  0  0  0  0
  -22.6910   -9.0520   20.3040 C   0  0  0  0  0  3  0  0  0  0  0  0
  -23.3930  -10.2590   20.1470 C   0  0  0  0  0  3  0  0  0  0  0  0
  -22.3430   -6.9620   21.3540 O   0  0  0  0  0  0  0  0  0  0  0  0
  -22.1110   -6.3180   22.5440 C   0  0  0  0  0  0  0  0  0  0  0  0
  -21.3900   -6.9270   23.5920 C   0  0  0  0  0  3  0  0  0  0  0  0
  -21.1170   -6.2060   24.7710 C   0  0  0  0  0  3  0  0  0  0  0  0
  -21.5560   -4.8750   24.9010 C   0  0  0  0  0  0  0  0  0  0  0  0
  -22.2710   -4.2640   23.8550 C   0  0  0  0  0  3  0  0  0  0  0  0
  -22.5460   -4.9840   22.6790 C   0  0  0  0  0  0  0  0  0  0  0  0
  -23.2170   -4.3840   21.6660 F   0  0  0  0  0  0  0  0  0  0  0  0
  -21.2870   -4.1780   26.0300 F   0  0  0  0  0  0  0  0  0  0  0  0
  -23.2580  -13.6230   21.0610 C   0  0  0  0  0  0  0  0  0  0  0  0
  -22.5360  -12.9350   21.9350 N   0  0  0  0  0  0  0  0  0  0  0  0
  -22.8010  -14.6150   20.4960 O   0  0  0  0  0  0  0  0  0  0  0  0
  -22.9190  -12.1320   22.4150 H   0  0  0  0  0  0  0  0  0  0  0  0
  -21.5860  -13.2150   22.1330 H   0  0  0  0  0  0  0  0  0  0  0  0
  -25.8540  -15.3660   20.3210 N   0  0  0  0  0  0  0  0  0  0  0  0
  -25.0590  -15.9930   20.3970 H   0  0  0  0  0  0  0  0  0  0  0  0
  -26.6880  -15.8290   19.9850 H   0  0  0  0  0  0  0  0  0  0  0  0
  -28.7190  -26.0730   20.3980 O   0  0  0  0  0  0  0  0  0  0  0  0
  -24.9600  -31.8860   23.4000 C   0  0  0  0  0  0  0  0  0  0  0  0
  -27.6780  -27.1360   20.3320 C   0  0  0  0  0  0  0  0  0  0  0  0
  -23.8470  -30.5410   21.6650 C   0  0  0  0  0  3  0  0  0  0  0  0
  -25.3640  -28.9940   20.2520 C   0  0  0  0  0  0  0  0  0  0  0  0
  -26.4140  -30.7740   21.6340 C   0  0  0  0  0  2  0  0  0  0  0  0
  -26.5230  -29.3890   20.9330 C   0  0  0  0  0  0  0  0  0  0  0  0
  -27.6750  -28.4840   20.9440 C   0  0  0  0  0  3  0  0  0  0  0  0
  -26.4870  -26.8840   19.6160 C   0  0  0  0  0  3  0  0  0  0  0  0
  -25.3730  -27.7640   19.5720 C   0  0  0  0  0  3  0  0  0  0  0  0
  -24.1380  -29.9060   20.2770 C   0  0  0  0  0  2  0  0  0  0  0  0
  -25.0930  -31.0920   22.2890 N   0  0  0  0  0  0  0  0  0  0  0  0
  -23.8480  -32.1520   23.8840 O   0  0  0  0  0  0  0  0  0  0  0  0
  -23.1170  -29.5110   22.5670 C   0  0  0  0  0  0  0  0  0  0  0  0
  -21.7930  -29.3490   22.3820 N   0  0  0  0  0  0  0  0  0  0  0  0
  -23.7500  -28.8560   23.3970 O   0  0  0  0  0  0  0  0  0  0  0  0
  -21.3360  -29.9280   21.6930 H   0  0  0  0  0  0  0  0  0  0  0  0
  -18.3830  -28.1750   22.7790 C   0  0  0  0  0  0  0  0  0  0  0  0
  -20.9440  -28.3820   23.0870 C   0  0  0  0  0  3  0  0  0  0  0  0
  -21.0300  -26.9840   22.4320 C   0  0  0  0  0  2  0  0  0  0  0  0
  -19.9360  -26.7400   21.3880 C   0  0  0  0  0  2  0  0  0  0  0  0
  -18.5480  -26.8680   22.0220 C   0  0  0  0  0  2  0  0  0  0  0  0
  -19.5080  -28.8930   23.2650 C   0  0  0  0  0  0  0  0  0  0  0  0
  -19.2980  -30.1180   23.9350 C   0  0  0  0  0  3  0  0  0  0  0  0
  -17.9980  -30.6250   24.1220 C   0  0  0  0  0  3  0  0  0  0  0  0
  -16.8890  -29.9040   23.6500 C   0  0  0  0  0  3  0  0  0  0  0  0
  -17.0810  -28.6800   22.9850 C   0  0  0  0  0  3  0  0  0  0  0  0
  -26.1980  -32.5140   24.1100 C   0  0  0  0  0  3  0  0  0  0  0  0
  -25.8700  -33.9110   24.4430 N   0  0  0  0  0  0  0  0  0  0  0  0
  -26.2770  -34.9830   23.7520 C   0  0  0  0  0  0  0  0  0  0  0  0
  -27.0310  -34.9000   22.7800 O   0  0  0  0  0  0  0  0  0  0  0  0
  -25.2100  -34.0530   25.1950 H   0  0  0  0  0  0  0  0  0  0  0  0
  -24.6080  -36.8170   23.3130 C   0  0  0  0  0  1  0  0  0  0  0  0
  -25.7720  -36.3670   24.2090 C   0  0  0  0  0  3  0  0  0  0  0  0
  -27.8320  -37.2030   25.2480 C   0  0  0  0  0  1  0  0  0  0  0  0
  -26.8220  -37.4080   24.2140 N   0  0  0  0  0  0  0  0  0  0  0  0
  -26.4150  -38.3300   24.3500 H   0  0  0  0  0  0  0  0  0  0  0  0
  -26.6290  -31.7340   25.4140 C   0  0  1  0  0  0  0  0  0  0  0  0
  -25.4610  -31.4640   26.3930 C   0  0  0  0  0  1  0  0  0  0  0  0
  -27.2640  -30.3720   25.0560 C   0  0  0  0  0  1  0  0  0  0  0  0
  -27.7140  -32.5370   26.1690 C   0  0  0  0  0  1  0  0  0  0  0  0
  1  4  1  0
  2  1  2  0
  3  5  1  0
  4 13  1  0
  5  4  2  0
  5 12  1  0
  6  2  1  0
  6  3  2  0
  8 10  1  0
  8  7  2  0
  9  7  1  0
 11 14  1  0
 12 11  1  0
 12  8  1  0
 13 54  1  0
 13 10  1  0
 14 24  1  0
 14  9  1  0
 15  6  1  0
 16 24  1  0
 17 22  1  0
 18 19  1  0
 18 17  1  0
 20 19  1  0
 20 29  1  0
 20 21  1  0
 22 16  1  0
 22 21  1  0
 23 16  2  0
 24 25  1  0
 26 27  2  0
 27 46  1  0
 28 27  1  0
 28 31  1  0
 29 26  1  0
 29 30  1  0
 30 28  2  0
 31 32  1  0
 32 33  2  0
 34 37  1  0
 34 33  1  0
 35 34  2  0
 36 35  1  0
 36 31  2  0
 37 38  1  0
 38 43  2  0
 38 39  1  0
 39 40  2  0
 40 41  1  0
 41 45  1  0
 42 41  2  0
 43 42  1  0
 44 43  1  0
 46 47  1  0
 47 50  1  0
 47 49  1  0
 48 46  2  0
 51 52  1  0
 51 26  1  0
 53 51  1  0
 55 66  2  0
 56 54  1  0
 56 61  1  0
 57 65  1  0
 57 67  1  0
 58 64  1  0
 58 60  1  0
 59 65  1  0
 60 61  2  0
 60 59  1  0
 62 56  2  0
 63 62  1  0
 63 58  2  0
 64 57  1  0
 65 55  1  0
 67 69  2  0
 68 67  1  0
 70 68  1  0
 71 80  2  0
 71 76  1  0
 72 68  1  0
 72 76  1  0
 73 72  1  0
 74 75  1  0
 74 73  1  0
 75 71  1  0
 76 77  2  0
 77 78  1  0
 79 78  2  0
 80 79  1  0
 81 55  1  0
 81 82  1  0
 81 91  1  0
 82 85  1  0
 83 87  1  0
 83 82  1  0
 84 83  2  0
 87 86  1  0
 87 89  1  0
 89 90  1  0
 89 88  1  0
 91 94  1  1
 91 92  1  0
 93 91  1  0
M  ISO  4  13 101  16 100  24 100  54 101
M  END
>  <TORSDO>  (62) 
F 16

>  <SCORE>  (62) 
-14.518

>  <name>  (62) 
61

>  <ligand_id>  (62) 
61

>  <original_smiles>  (62) 
[H]C1=C2C([H])([H])C([H])(Oc3c([H])c([H])c4c(c3[H])C([H])([H])N(C(=O)C([H])(N([H])C(=O)C([H])(N([H])C([H])([H])[H])C([H])([H])[H])C(C([H])([H])[H])(C([H])([H])[H])C([H])([H])[H])C([H])(C(=O)N([H])C3([H])c5c([H])c([H])c([H])c([H])c5C([H])([H])C([H])([H])C3([H])[H])C4([H])[H])c3c([H])c([H])c(C([H])([H])[H])c([H])c3C2([H])C([H])([H])C([H])(N([H])C(=O)N2C([H])([H])C([H])([H])C([H])([H])C([H])(n3nc(-c4c([H])c([H])c(Oc5c([H])c([H])c(F)c([H])c5F)c([H])c4[H])c(C(=O)N([H])[H])c3N([H])[H])C2([H])[H])C1([H])[H]

>  <smiles>  (62) 
[H]C1=C2C([H])([H])C([H])(Oc3c([H])c([H])c4c(c3[H])C([H])([H])N(C(=O)C([H])(N([H])C(=O)C([H])(N([H])C([H])([H])[H])C([H])([H])[H])C(C([H])([H])[H])(C([H])([H])[H])C([H])([H])[H])C([H])(C(=O)N([H])C3([H])c5c([H])c([H])c([H])c([H])c5C([H])([H])C([H])([H])C3([H])[H])C4([H])[H])c3c([H])c([H])c(C([H])([H])[H])c([H])c3C2([H])C([H])([H])C([H])(N([H])C(=O)N2C([H])([H])C([H])([H])C([H])([H])C([H])(n3nc(-c4c([H])c([H])c(Oc5c([H])c([H])c(F)c([H])c5F)c([H])c4[H])c(C(=O)N([H])[H])c3N([H])[H])C2([H])[H])C1([H])[H]

$$$$
62:0:0
     RDKit          3D

 91100  0  0  1  0  0  0  0  0999 V2000
  -28.7850  -21.7880   20.1280 N   0  0  0  0  0  4  0  0  0  0  0  0
  -27.8290  -21.6390   20.4120 H   0  0  0  0  0  0  0  0  0  0  0  0
  -28.7860  -21.6710   19.1270 H   0  0  0  0  0  0  0  0  0  0  0  0
  -28.9840  -18.9970   20.4510 C   0  0  0  0  0  0  0  0  0  0  0  0
  -31.1060  -20.4100   20.5130 C   0  0  0  0  0  2  0  0  0  0  0  0
  -31.7030  -18.9430   20.6840 C   0  0  0  0  0  2  0  0  0  0  0  0
  -29.7220  -17.9710   19.4590 C   0  0  0  0  0  3  0  0  0  0  0  0
  -29.5560  -20.5250   20.7370 C   0  0  0  0  0  3  0  0  0  0  0  0
  -31.2210  -18.0350   19.5340 C   0  0  0  0  0  3  0  0  0  0  0  0
  -30.6230  -16.5770   19.3740 C   0  0  2  0  0  0  0  0  0  0  0  0
  -30.8020  -16.1360   17.9180 C   0  0  0  0  0  1  0  0  0  0  0  0
  -27.9230  -18.6310   20.9610 O   0  0  0  0  0  0  0  0  0  0  0  0
  -31.2270  -15.2850   20.2270 C   0  0  0  0  0  0  0  0  0  0  0  0
  -31.0660  -12.8510   19.5050 C   0  0  0  0  0  2  0  0  0  0  0  0
  -30.1770  -12.6510   18.2530 C   0  0  0  0  0  2  0  0  0  0  0  0
  -28.6800  -12.5970   18.6170 C   0  0  0  0  0  2  0  0  0  0  0  0
  -28.2550  -13.6150   19.7100 C   0  0  0  0  0  3  0  0  0  0  0  0
  -29.2760  -13.7130   20.8570 C   0  0  0  0  0  2  0  0  0  0  0  0
  -30.5780  -14.0420   20.2570 N   0  0  0  0  0  0  0  0  0  0  0  0
  -32.4570  -15.2280   20.3250 O   0  0  0  0  0  0  0  0  0  0  0  0
  -25.8920  -14.3300   20.3680 C   0  0  0  0  0  0  0  0  0  0  0  0
  -24.7710  -13.6170   20.6850 C   0  0  0  0  0  0  0  0  0  0  0  0
  -25.1590  -12.2420   20.6740 C   0  0  0  0  0  0  0  0  0  0  0  0
  -26.8920  -13.3930   20.1720 N   0  0  0  0  0  0  0  0  0  0  0  0
  -26.4600  -12.1320   20.4270 N   0  0  0  0  0  0  0  0  0  0  0  0
  -24.3570  -11.0230   20.8260 C   0  0  0  0  0  0  0  0  0  0  0  0
  -24.6990  -10.0270   21.7650 C   0  0  0  0  0  3  0  0  0  0  0  0
  -23.8990   -8.8720   21.9080 C   0  0  0  0  0  3  0  0  0  0  0  0
  -22.7430   -8.7080   21.1090 C   0  0  0  0  0  0  0  0  0  0  0  0
  -22.4210   -9.6910   20.1580 C   0  0  0  0  0  3  0  0  0  0  0  0
  -23.2200  -10.8370   20.0130 C   0  0  0  0  0  3  0  0  0  0  0  0
  -21.9200   -7.6080   21.1610 O   0  0  0  0  0  0  0  0  0  0  0  0
  -21.7800   -6.8690   22.3090 C   0  0  0  0  0  0  0  0  0  0  0  0
  -21.3200   -7.4440   23.5130 C   0  0  0  0  0  3  0  0  0  0  0  0
  -21.1240   -6.6340   24.6500 C   0  0  0  0  0  3  0  0  0  0  0  0
  -21.3770   -5.2510   24.5820 C   0  0  0  0  0  0  0  0  0  0  0  0
  -21.8300   -4.6760   23.3810 C   0  0  0  0  0  3  0  0  0  0  0  0
  -22.0280   -5.4830   22.2470 C   0  0  0  0  0  0  0  0  0  0  0  0
  -22.4440   -4.9210   21.0870 F   0  0  0  0  0  0  0  0  0  0  0  0
  -21.1810   -4.4710   25.6700 F   0  0  0  0  0  0  0  0  0  0  0  0
  -23.3910  -14.1720   20.8880 C   0  0  0  0  0  0  0  0  0  0  0  0
  -22.5900  -13.5290   21.7300 N   0  0  0  0  0  0  0  0  0  0  0  0
  -23.0330  -15.2120   20.3360 O   0  0  0  0  0  0  0  0  0  0  0  0
  -22.8930  -12.6880   22.1990 H   0  0  0  0  0  0  0  0  0  0  0  0
  -21.6620  -13.8840   21.9100 H   0  0  0  0  0  0  0  0  0  0  0  0
  -26.1400  -15.6900   20.2000 N   0  0  0  0  0  0  0  0  0  0  0  0
  -25.4090  -16.3880   20.2920 H   0  0  0  0  0  0  0  0  0  0  0  0
  -27.0360  -16.0860   19.9480 H   0  0  0  0  0  0  0  0  0  0  0  0
  -29.0850  -23.3300   20.4460 C   0  0  0  0  0  3  0  0  0  0  0  0
  -28.0800  -24.6200   19.9620 C   0  0  0  0  0  3  0  0  0  0  0  0
  -28.3020  -26.1690   20.1110 O   0  0  0  0  0  0  0  0  0  0  0  0
  -24.5590  -31.8110   23.0640 C   0  0  0  0  0  0  0  0  0  0  0  0
  -27.2270  -27.1370   20.0320 C   0  0  0  0  0  0  0  0  0  0  0  0
  -23.3850  -30.3900   21.4280 C   0  0  0  0  0  3  0  0  0  0  0  0
  -24.8620  -28.8440   19.9980 C   0  0  0  0  0  0  0  0  0  0  0  0
  -25.9330  -30.7050   21.2570 C   0  0  0  0  0  2  0  0  0  0  0  0
  -26.0340  -29.3130   20.6050 C   0  0  0  0  0  0  0  0  0  0  0  0
  -27.2150  -28.4770   20.6030 C   0  0  0  0  0  3  0  0  0  0  0  0
  -26.0270  -26.7750   19.3790 C   0  0  0  0  0  3  0  0  0  0  0  0
  -24.8730  -27.5900   19.3690 C   0  0  0  0  0  3  0  0  0  0  0  0
  -23.6170  -29.7170   20.0490 C   0  0  0  0  0  2  0  0  0  0  0  0
  -24.6450  -30.9910   21.9710 N   0  0  0  0  0  0  0  0  0  0  0  0
  -23.4690  -32.0730   23.5950 O   0  0  0  0  0  0  0  0  0  0  0  0
  -22.7280  -29.3700   22.3920 C   0  0  0  0  0  0  0  0  0  0  0  0
  -21.4050  -29.1670   22.2640 N   0  0  0  0  0  0  0  0  0  0  0  0
  -23.4130  -28.7640   23.2210 O   0  0  0  0  0  0  0  0  0  0  0  0
  -20.9070  -29.7070   21.5700 H   0  0  0  0  0  0  0  0  0  0  0  0
  -18.0550  -27.8770   22.7570 C   0  0  0  0  0  0  0  0  0  0  0  0
  -20.6040  -28.2130   23.0360 C   0  0  0  0  0  3  0  0  0  0  0  0
  -20.7490  -26.7800   22.4720 C   0  0  0  0  0  2  0  0  0  0  0  0
  -19.6620  -26.4190   21.4540 C   0  0  0  0  0  2  0  0  0  0  0  0
  -18.2740  -26.5300   22.0890 C   0  0  0  0  0  2  0  0  0  0  0  0
  -19.1490  -28.6740   23.1870 C   0  0  0  0  0  0  0  0  0  0  0  0
  -18.8900  -29.9320   23.7730 C   0  0  0  0  0  3  0  0  0  0  0  0
  -17.5700  -30.3940   23.9320 C   0  0  0  0  0  3  0  0  0  0  0  0
  -16.4910  -29.5960   23.5170 C   0  0  0  0  0  3  0  0  0  0  0  0
  -16.7340  -28.3380   22.9350 C   0  0  0  0  0  3  0  0  0  0  0  0
  -25.8260  -32.4730   23.6880 C   0  0  0  0  0  3  0  0  0  0  0  0
  -26.3740  -31.6960   24.9480 C   0  0  1  0  0  0  0  0  0  0  0  0
  -25.2960  -31.4110   26.0210 C   0  0  0  0  0  1  0  0  0  0  0  0
  -26.9930  -30.3430   24.5340 C   0  0  0  0  0  1  0  0  0  0  0  0
  -27.5060  -32.5130   25.6140 C   0  0  0  0  0  1  0  0  0  0  0  0
  -25.4740  -33.8550   24.0520 N   0  0  0  0  0  0  0  0  0  0  0  0
  -25.7870  -34.9390   23.3300 C   0  0  0  0  0  0  0  0  0  0  0  0
  -26.4670  -34.8820   22.3020 O   0  0  0  0  0  0  0  0  0  0  0  0
  -24.8690  -33.9710   24.8520 H   0  0  0  0  0  0  0  0  0  0  0  0
  -24.0310  -36.7140   23.0050 C   0  0  0  0  0  1  0  0  0  0  0  0
  -25.2660  -36.3040   23.8250 C   0  0  0  0  0  3  0  0  0  0  0  0
  -27.3640  -37.2040   24.7290 C   0  0  0  0  0  1  0  0  0  0  0  0
  -26.2790  -37.3790   23.7660 N   0  0  0  0  0  0  0  0  0  0  0  0
  -25.8520  -38.2870   23.9320 H   0  0  0  0  0  0  0  0  0  0  0  0
  1  2  1  0
  1 49  1  0
  3  1  1  0
  4  8  1  0
  4 12  2  0
  5  6  1  0
  5  8  1  0
  7  9  1  0
  7  4  1  0
  8  1  1  0
  9  6  1  0
 10 11  1  6
 10  7  1  0
 10  9  1  0
 10 13  1  0
 13 19  1  0
 13 20  2  0
 14 19  1  0
 15 16  1  0
 15 14  1  0
 17 16  1  0
 17 24  1  0
 17 18  1  0
 19 18  1  0
 21 22  2  0
 22 41  1  0
 23 22  1  0
 23 26  1  0
 24 21  1  0
 24 25  1  0
 25 23  2  0
 26 27  1  0
 27 28  2  0
 29 32  1  0
 29 28  1  0
 30 29  2  0
 31 30  1  0
 31 26  2  0
 32 33  1  0
 33 34  1  0
 34 35  2  0
 36 35  1  0
 36 40  1  0
 37 36  2  0
 38 33  2  0
 38 37  1  0
 39 38  1  0
 41 42  1  0
 42 45  1  0
 42 44  1  0
 43 41  2  0
 46 47  1  0
 46 21  1  0
 48 46  1  0
 50 51  1  0
 50 49  2  0
 52 63  2  0
 53 51  1  0
 53 58  1  0
 54 62  1  0
 54 64  1  0
 55 61  1  0
 55 57  1  0
 56 62  1  0
 57 56  1  0
 58 57  2  0
 59 53  2  0
 60 59  1  0
 60 55  2  0
 61 54  1  0
 62 52  1  0
 64 66  2  0
 65 64  1  0
 67 65  1  0
 68 77  2  0
 68 73  1  0
 69 65  1  0
 69 73  1  0
 70 69  1  0
 71 72  1  0
 71 70  1  0
 72 68  1  0
 73 74  2  0
 74 75  1  0
 76 75  2  0
 77 76  1  0
 78 52  1  0
 78 83  1  0
 78 79  1  0
 79 82  1  1
 79 80  1  0
 81 79  1  0
 83 86  1  0
 84 88  1  0
 84 83  1  0
 85 84  2  0
 88 87  1  0
 90 88  1  0
 90 91  1  0
 90 89  1  0
M  ISO  4  10 100  13 100  50 101  51 101
M  END
>  <TORSDO>  (63) 
F 19

>  <SCORE>  (63) 
-13.816

>  <name>  (63) 
62

>  <ligand_id>  (63) 
62

>  <original_smiles>  (63) 
[H]c1c([H])c([H])c2c(c1[H])C([H])([H])C([H])([H])C([H])([H])C2([H])N([H])C(=O)C1([H])N(C(=O)C([H])(N([H])C(=O)C([H])(N([H])C([H])([H])[H])C([H])([H])[H])C(C([H])([H])[H])(C([H])([H])[H])C([H])([H])[H])C([H])([H])c2c([H])c(OC([H])([H])C([H])([H])[N+]([H])([H])C3([H])C(=O)C4([H])C([H])(C([H])([H])C3([H])[H])C4(C(=O)N3C([H])([H])C([H])([H])C([H])([H])C([H])(n4nc(-c5c([H])c([H])c(Oc6c([H])c([H])c(F)c([H])c6F)c([H])c5[H])c(C(=O)N([H])[H])c4N([H])[H])C3([H])[H])C([H])([H])[H])c([H])c([H])c2C1([H])[H]

>  <smiles>  (63) 
[H]c1c([H])c([H])c2c(c1[H])C([H])([H])C([H])([H])C([H])([H])C2([H])N([H])C(=O)C1([H])N(C(=O)C([H])(N([H])C(=O)C([H])(N([H])C([H])([H])[H])C([H])([H])[H])C(C([H])([H])[H])(C([H])([H])[H])C([H])([H])[H])C([H])([H])c2c([H])c(OC([H])([H])C([H])([H])[N+]([H])([H])C3([H])C(=O)C4([H])C([H])(C([H])([H])C3([H])[H])C4(C(=O)N3C([H])([H])C([H])([H])C([H])([H])C([H])(n4nc(-c5c([H])c([H])c(Oc6c([H])c([H])c(F)c([H])c6F)c([H])c5[H])c(C(=O)N([H])[H])c4N([H])[H])C3([H])[H])C([H])([H])[H])c([H])c([H])c2C1([H])[H]

$$$$
63:0:0
     RDKit          3D

 89 98  0  0  1  0  0  0  0  0999 V2000
  -29.4280  -18.9470   17.8700 C   0  0  0  0  0  3  0  0  0  0  0  0
  -29.6970  -17.7540   18.6030 C   0  0  0  0  0  3  0  0  0  0  0  0
  -29.3380  -20.2260   18.4840 C   0  0  0  0  0  3  0  0  0  0  0  0
  -29.8210  -19.1270   20.5790 C   0  0  0  0  0  3  0  0  0  0  0  0
  -29.9360  -17.7550   20.0010 C   0  0  0  0  0  0  0  0  0  0  0  0
  -29.5240  -20.4010   19.8740 C   0  0  0  0  0  0  0  0  0  0  0  0
  -29.3180  -16.1230   22.0500 C   0  0  0  0  0  2  0  0  0  0  0  0
  -30.7220  -16.5880   22.2190 C   0  0  0  0  0  2  0  0  0  0  0  0
  -30.2160  -16.3240   20.8000 C   0  0  2  0  0  0  0  0  0  0  0  0
  -30.9280  -14.9520   20.1820 C   0  0  0  0  0  0  0  0  0  0  0  0
  -30.7250  -12.7280   18.9360 C   0  0  0  0  0  2  0  0  0  0  0  0
  -29.7360  -12.8380   17.7480 C   0  0  0  0  0  2  0  0  0  0  0  0
  -28.2630  -12.6700   18.1880 C   0  0  0  0  0  2  0  0  0  0  0  0
  -27.9630  -13.4720   19.4840 C   0  0  0  0  0  3  0  0  0  0  0  0
  -29.0480  -13.1950   20.5370 C   0  0  0  0  0  2  0  0  0  0  0  0
  -30.3120  -13.7050   19.9910 N   0  0  0  0  0  0  0  0  0  0  0  0
  -32.1040  -15.0080   19.7910 O   0  0  0  0  0  0  0  0  0  0  0  0
  -25.6420  -14.1210   20.3410 C   0  0  0  0  0  0  0  0  0  0  0  0
  -24.5700  -13.3690   20.7590 C   0  0  0  0  0  0  0  0  0  0  0  0
  -24.9890  -12.0100   20.6850 C   0  0  0  0  0  0  0  0  0  0  0  0
  -26.6320  -13.2070   20.0260 N   0  0  0  0  0  0  0  0  0  0  0  0
  -26.2550  -11.9330   20.3020 N   0  0  0  0  0  0  0  0  0  0  0  0
  -24.2320  -10.7620   20.8910 C   0  0  0  0  0  0  0  0  0  0  0  0
  -24.6500   -9.7880   21.8260 C   0  0  0  0  0  3  0  0  0  0  0  0
  -23.8990   -8.6070   22.0090 C   0  0  0  0  0  3  0  0  0  0  0  0
  -22.7200   -8.3930   21.2590 C   0  0  0  0  0  0  0  0  0  0  0  0
  -22.3200   -9.3550   20.3200 C   0  0  0  0  0  3  0  0  0  0  0  0
  -23.0700  -10.5280   20.1330 C   0  0  0  0  0  3  0  0  0  0  0  0
  -21.9420   -7.2640   21.3510 O   0  0  0  0  0  0  0  0  0  0  0  0
  -21.8300   -6.5630   22.5260 C   0  0  0  0  0  0  0  0  0  0  0  0
  -21.3820   -7.1670   23.7220 C   0  0  0  0  0  3  0  0  0  0  0  0
  -21.2170   -6.3870   24.8840 C   0  0  0  0  0  3  0  0  0  0  0  0
  -21.4940   -5.0060   24.8520 C   0  0  0  0  0  0  0  0  0  0  0  0
  -21.9390   -4.4050   23.6610 C   0  0  0  0  0  3  0  0  0  0  0  0
  -22.1060   -5.1820   22.5020 C   0  0  0  0  0  0  0  0  0  0  0  0
  -22.5160   -4.5920   21.3540 F   0  0  0  0  0  0  0  0  0  0  0  0
  -21.3340   -4.2570   25.9690 F   0  0  0  0  0  0  0  0  0  0  0  0
  -23.2120  -13.8950   21.1030 C   0  0  0  0  0  0  0  0  0  0  0  0
  -22.4910  -13.2210   21.9950 N   0  0  0  0  0  0  0  0  0  0  0  0
  -22.7880  -14.9390   20.6190 O   0  0  0  0  0  0  0  0  0  0  0  0
  -22.8360  -12.3730   22.4100 H   0  0  0  0  0  0  0  0  0  0  0  0
  -21.5790  -13.5610   22.2630 H   0  0  0  0  0  0  0  0  0  0  0  0
  -25.8460  -15.4830   20.1830 N   0  0  0  0  0  0  0  0  0  0  0  0
  -25.1180  -16.1700   20.3570 H   0  0  0  0  0  0  0  0  0  0  0  0
  -26.6720  -15.8780   19.7490 H   0  0  0  0  0  0  0  0  0  0  0  0
  -29.4940  -21.9300   20.5090 C   0  0  0  0  0  3  0  0  0  0  0  0
  -28.7280  -23.3090   19.8640 C   0  0  0  0  0  3  0  0  0  0  0  0
  -28.7360  -24.8200   20.6300 C   0  0  0  0  0  2  0  0  0  0  0  0
  -28.5760  -26.2680   20.0730 O   0  0  0  0  0  0  0  0  0  0  0  0
  -24.6320  -31.7680   23.0920 C   0  0  0  0  0  0  0  0  0  0  0  0
  -27.4240  -27.1280   20.1340 C   0  0  0  0  0  0  0  0  0  0  0  0
  -23.5040  -30.3170   21.4380 C   0  0  0  0  0  3  0  0  0  0  0  0
  -25.0290  -28.7740   20.0540 C   0  0  0  0  0  0  0  0  0  0  0  0
  -26.0420  -30.6740   21.3130 C   0  0  0  0  0  2  0  0  0  0  0  0
  -26.1780  -29.2760   20.6810 C   0  0  0  0  0  0  0  0  0  0  0  0
  -27.3710  -28.4660   20.7040 C   0  0  0  0  0  3  0  0  0  0  0  0
  -26.2410  -26.7170   19.4920 C   0  0  0  0  0  3  0  0  0  0  0  0
  -25.0680  -27.5070   19.4440 C   0  0  0  0  0  3  0  0  0  0  0  0
  -23.7780  -29.6340   20.0680 C   0  0  0  0  0  2  0  0  0  0  0  0
  -24.7420  -30.9420   22.0040 N   0  0  0  0  0  0  0  0  0  0  0  0
  -23.5350  -32.0310   23.6000 O   0  0  0  0  0  0  0  0  0  0  0  0
  -22.8390  -29.3040   22.4000 C   0  0  0  0  0  0  0  0  0  0  0  0
  -21.5150  -29.1180   22.2750 N   0  0  0  0  0  0  0  0  0  0  0  0
  -23.5210  -28.6810   23.2210 O   0  0  0  0  0  0  0  0  0  0  0  0
  -21.0170  -29.6830   21.6050 H   0  0  0  0  0  0  0  0  0  0  0  0
  -18.1570  -27.8530   22.7580 C   0  0  0  0  0  0  0  0  0  0  0  0
  -20.7110  -28.1600   23.0340 C   0  0  0  0  0  3  0  0  0  0  0  0
  -20.8420  -26.7340   22.4440 C   0  0  0  0  0  2  0  0  0  0  0  0
  -19.7440  -26.4070   21.4260 C   0  0  0  0  0  2  0  0  0  0  0  0
  -18.3610  -26.5150   22.0700 C   0  0  0  0  0  2  0  0  0  0  0  0
  -19.2620  -28.6310   23.2000 C   0  0  0  0  0  0  0  0  0  0  0  0
  -19.0130  -29.8880   23.7940 C   0  0  0  0  0  3  0  0  0  0  0  0
  -17.6970  -30.3570   23.9650 C   0  0  0  0  0  3  0  0  0  0  0  0
  -16.6080  -29.5770   23.5420 C   0  0  0  0  0  3  0  0  0  0  0  0
  -16.8400  -28.3250   22.9420 C   0  0  0  0  0  3  0  0  0  0  0  0
  -25.8870  -32.4390   23.7310 C   0  0  0  0  0  3  0  0  0  0  0  0
  -26.4130  -31.6810   25.0120 C   0  0  1  0  0  0  0  0  0  0  0  0
  -25.3140  -31.4200   26.0680 C   0  0  0  0  0  1  0  0  0  0  0  0
  -27.0380  -30.3170   24.6350 C   0  0  0  0  0  1  0  0  0  0  0  0
  -27.5360  -32.5020   25.6870 C   0  0  0  0  0  1  0  0  0  0  0  0
  -25.5340  -33.8280   24.0660 N   0  0  0  0  0  0  0  0  0  0  0  0
  -25.8400  -34.8970   23.3170 C   0  0  0  0  0  0  0  0  0  0  0  0
  -26.5100  -34.8220   22.2840 O   0  0  0  0  0  0  0  0  0  0  0  0
  -24.9330  -33.9610   24.8670 H   0  0  0  0  0  0  0  0  0  0  0  0
  -24.0530  -36.6360   22.9720 C   0  0  0  0  0  1  0  0  0  0  0  0
  -25.3070  -36.2660   23.7820 C   0  0  0  0  0  3  0  0  0  0  0  0
  -27.4130  -37.2160   24.6120 C   0  0  0  0  0  1  0  0  0  0  0  0
  -26.3060  -37.3510   23.6680 N   0  0  0  0  0  0  0  0  0  0  0  0
  -25.8720  -38.2570   23.8210 H   0  0  0  0  0  0  0  0  0  0  0  0
  1  3  2  0
  1  2  1  0
  2  5  2  0
  3  6  1  0
  5  4  1  0
  5  9  1  0
  6 46  1  0
  6  4  2  0
  7  8  1  0
  9  7  1  0
  9  8  1  0
  9 10  1  6
 11 16  1  0
 12 13  1  0
 12 11  1  0
 14 13  1  0
 14 21  1  0
 14 15  1  0
 16 10  1  0
 16 15  1  0
 17 10  2  0
 18 19  2  0
 19 38  1  0
 20 19  1  0
 20 23  1  0
 21 22  1  0
 21 18  1  0
 22 20  2  0
 23 24  1  0
 24 25  2  0
 26 29  1  0
 26 25  1  0
 27 26  2  0
 28 27  1  0
 28 23  2  0
 29 30  1  0
 30 31  1  0
 31 32  2  0
 33 32  1  0
 33 37  1  0
 34 33  2  0
 35 30  2  0
 35 34  1  0
 36 35  1  0
 38 39  1  0
 39 42  1  0
 39 41  1  0
 40 38  2  0
 43 18  1  0
 43 44  1  0
 45 43  1  0
 47 46  2  0
 47 48  1  0
 49 51  1  0
 49 48  1  0
 50 61  2  0
 51 56  1  0
 52 60  1  0
 52 62  1  0
 53 59  1  0
 53 55  1  0
 54 60  1  0
 55 56  2  0
 55 54  1  0
 57 51  2  0
 58 57  1  0
 58 53  2  0
 59 52  1  0
 60 50  1  0
 62 64  2  0
 63 62  1  0
 65 63  1  0
 66 75  2  0
 66 71  1  0
 67 63  1  0
 67 71  1  0
 68 67  1  0
 69 70  1  0
 69 68  1  0
 70 66  1  0
 71 72  2  0
 72 73  1  0
 74 73  2  0
 75 74  1  0
 76 50  1  0
 76 81  1  0
 76 77  1  0
 77 80  1  1
 77 78  1  0
 79 77  1  0
 81 84  1  0
 82 86  1  0
 82 81  1  0
 83 82  2  0
 86 85  1  0
 88 86  1  0
 88 89  1  0
 88 87  1  0
M  ISO  4   9 100  10 100  48 101  49 101
M  END
>  <TORSDO>  (64) 
F 20

>  <SCORE>  (64) 
-13.780

>  <name>  (64) 
63

>  <ligand_id>  (64) 
63

>  <original_smiles>  (64) 
[H]c1c([H])c([H])c2c(c1[H])C([H])([H])C([H])([H])C([H])([H])C2([H])N([H])C(=O)C1([H])N(C(=O)C([H])(N([H])C(=O)C([H])(N([H])C([H])([H])[H])C([H])([H])[H])C(C([H])([H])[H])(C([H])([H])[H])C([H])([H])[H])C([H])([H])c2c([H])c(OC([H])([H])C([H])([H])C([H])([H])c3c([H])c([H])c([H])c(C4(C(=O)N5C([H])([H])C([H])([H])C([H])([H])C([H])(n6nc(-c7c([H])c([H])c(Oc8c([H])c([H])c(F)c([H])c8F)c([H])c7[H])c(C(=O)N([H])[H])c6N([H])[H])C5([H])[H])C([H])([H])C4([H])[H])c3[H])c([H])c([H])c2C1([H])[H]

>  <smiles>  (64) 
[H]c1c([H])c([H])c2c(c1[H])C([H])([H])C([H])([H])C([H])([H])C2([H])N([H])C(=O)C1([H])N(C(=O)C([H])(N([H])C(=O)C([H])(N([H])C([H])([H])[H])C([H])([H])[H])C(C([H])([H])[H])(C([H])([H])[H])C([H])([H])[H])C([H])([H])c2c([H])c(OC([H])([H])C([H])([H])C([H])([H])c3c([H])c([H])c([H])c(C4(C(=O)N5C([H])([H])C([H])([H])C([H])([H])C([H])(n6nc(-c7c([H])c([H])c(Oc8c([H])c([H])c(F)c([H])c8F)c([H])c7[H])c(C(=O)N([H])[H])c6N([H])[H])C5([H])[H])C([H])([H])C4([H])[H])c3[H])c([H])c([H])c2C1([H])[H]

$$$$
64:0:0
     RDKit          3D

100110  0  0  1  0  0  0  0  0999 V2000
  -29.2410  -19.5960   19.6010 C   0  0  0  0  0  3  0  0  0  0  0  0
  -28.5260  -24.9460   16.8960 C   0  0  0  0  0  3  0  0  0  0  0  0
  -26.2030  -24.5250   17.3680 C   0  0  0  0  0  3  0  0  0  0  0  0
  -29.3180  -20.9520   19.1400 C   0  0  0  0  0  0  0  0  0  0  0  0
  -27.9200  -22.9590   18.2140 C   0  0  0  0  0  0  0  0  0  0  0  0
  -28.9000  -23.7070   17.4870 C   0  0  0  0  0  0  0  0  0  0  0  0
  -27.1920  -25.3990   16.9040 C   0  0  0  0  0  0  0  0  0  0  0  0
  -26.5590  -23.3430   18.0440 C   0  0  0  0  0  0  0  0  0  0  0  0
  -30.5920  -21.2990   18.7640 C   0  0  0  0  0  0  0  0  0  0  0  0
  -30.4360  -18.9320   19.5550 C   0  0  0  0  0  0  0  0  0  0  0  0
  -28.1690  -21.8580   19.2290 C   0  0  0  0  0  0  0  0  0  0  0  0
  -30.3410  -23.2580   17.2290 C   0  0  0  0  0  2  0  0  0  0  0  0
  -31.1080  -22.6360   18.3820 C   0  0  0  0  0  2  0  0  0  0  0  0
  -27.3780  -21.7060   20.1660 O   0  0  0  0  0  0  0  0  0  0  0  0
  -25.5440  -22.5930   18.5380 F   0  0  0  0  0  0  0  0  0  0  0  0
  -31.6690  -19.9240   18.8230 S   0  0  0  0  0  0  0  0  0  0  0  0
  -26.8480  -26.6800   16.4980 O   0  0  0  0  0  0  0  0  0  0  0  0
  -25.6590  -28.6430   23.2550 C   0  0  0  0  0  0  0  0  0  0  0  0
  -26.0780  -27.4210   17.3710 C   0  0  0  0  0  0  0  0  0  0  0  0
  -23.8530  -29.1480   21.6420 C   0  0  0  0  0  3  0  0  0  0  0  0
  -24.4620  -28.8890   19.1800 C   0  0  0  0  0  0  0  0  0  0  0  0
  -26.2930  -29.0200   20.8740 C   0  0  0  0  0  2  0  0  0  0  0  0
  -25.7850  -28.5710   19.5200 C   0  0  0  0  0  0  0  0  0  0  0  0
  -26.5960  -27.8420   18.6190 C   0  0  0  0  0  3  0  0  0  0  0  0
  -24.7460  -27.7760   17.0470 C   0  0  0  0  0  3  0  0  0  0  0  0
  -23.9380  -28.4940   17.9420 C   0  0  0  0  0  3  0  0  0  0  0  0
  -23.6540  -29.6660   20.1940 C   0  0  0  0  0  2  0  0  0  0  0  0
  -25.2960  -28.9030   21.9660 N   0  0  0  0  0  0  0  0  0  0  0  0
  -24.8230  -28.6410   24.1700 O   0  0  0  0  0  0  0  0  0  0  0  0
  -22.9590  -27.9040   21.8560 C   0  0  0  0  0  0  0  0  0  0  0  0
  -21.6360  -28.0910   21.7240 N   0  0  0  0  0  0  0  0  0  0  0  0
  -23.4560  -26.8020   22.1010 O   0  0  0  0  0  0  0  0  0  0  0  0
  -21.3100  -29.0260   21.5280 H   0  0  0  0  0  0  0  0  0  0  0  0
  -18.1320  -27.3960   21.1680 C   0  0  0  0  0  0  0  0  0  0  0  0
  -20.6040  -27.0610   21.8450 C   0  0  0  0  0  3  0  0  0  0  0  0
  -20.6830  -26.0560   20.6740 C   0  0  0  0  0  2  0  0  0  0  0  0
  -19.7710  -26.4240   19.5000 C   0  0  0  0  0  2  0  0  0  0  0  0
  -18.3100  -26.4920   19.9580 C   0  0  0  0  0  2  0  0  0  0  0  0
  -19.2140  -27.6760   22.0430 C   0  0  0  0  0  0  0  0  0  0  0  0
  -19.0060  -28.5470   23.1340 C   0  0  0  0  0  3  0  0  0  0  0  0
  -17.7450  -29.1350   23.3550 C   0  0  0  0  0  3  0  0  0  0  0  0
  -16.6740  -28.8430   22.4940 C   0  0  0  0  0  3  0  0  0  0  0  0
  -16.8660  -27.9700   21.4080 C   0  0  0  0  0  3  0  0  0  0  0  0
  -27.1420  -28.3540   23.6440 C   0  0  0  0  0  3  0  0  0  0  0  0
  -27.3300  -28.7970   25.0320 N   0  0  0  0  0  0  0  0  0  0  0  0
  -27.9760  -29.9150   25.3930 C   0  0  0  0  0  0  0  0  0  0  0  0
  -28.5420  -30.6530   24.5820 O   0  0  0  0  0  0  0  0  0  0  0  0
  -26.8400  -28.2760   25.7420 H   0  0  0  0  0  0  0  0  0  0  0  0
  -26.9960  -31.4170   27.1560 C   0  0  0  0  0  1  0  0  0  0  0  0
  -27.9890  -30.2740   26.8910 C   0  0  0  0  0  3  0  0  0  0  0  0
  -30.2650  -29.5300   27.4360 C   0  0  0  0  0  1  0  0  0  0  0  0
  -29.3290  -30.6500   27.3900 N   0  0  0  0  0  0  0  0  0  0  0  0
  -29.2680  -31.0520   28.3220 H   0  0  0  0  0  0  0  0  0  0  0  0
  -27.5460  -26.8370   23.4820 C   0  0  1  0  0  0  0  0  0  0  0  0
  -26.5750  -25.8540   24.1770 C   0  0  0  0  0  1  0  0  0  0  0  0
  -27.6150  -26.4480   21.9860 C   0  0  0  0  0  1  0  0  0  0  0  0
  -28.9620  -26.6070   24.0620 C   0  0  0  0  0  1  0  0  0  0  0  0
  -30.7440  -17.5770   20.1240 C   0  0  0  0  0  2  0  0  0  0  0  0
  -31.2910  -16.5280   19.1360 C   0  0  0  0  0  2  0  0  0  0  0  0
  -32.8090  -16.2630   19.2400 C   0  0  0  0  0  2  0  0  0  0  0  0
  -33.2320  -15.4010   20.4560 C   0  0  0  0  0  2  0  0  0  0  0  0
  -34.3670  -14.3650   20.2720 C   0  0  0  0  0  2  0  0  0  0  0  0
  -34.4880  -12.1830   19.1300 C   0  0  0  0  0  0  0  0  0  0  0  0
  -34.1080  -10.0620   20.3340 C   0  0  0  0  0  2  0  0  0  0  0  0
  -33.1630   -9.1100   19.5830 C   0  0  0  0  0  2  0  0  0  0  0  0
  -31.6920   -9.4200   19.9190 C   0  0  0  0  0  2  0  0  0  0  0  0
  -31.3560  -10.9260   19.7500 C   0  0  0  0  0  3  0  0  0  0  0  0
  -32.3990  -11.8080   20.4620 C   0  0  0  0  0  2  0  0  0  0  0  0
  -33.7490  -11.4480   19.9980 N   0  0  0  0  0  0  0  0  0  0  0  0
  -35.3840  -11.7060   18.4290 O   0  0  0  0  0  0  0  0  0  0  0  0
  -34.2200  -13.4990   19.0970 N   0  0  0  0  0  0  0  0  0  0  0  0
  -34.5510  -13.9420   18.2510 H   0  0  0  0  0  0  0  0  0  0  0  0
  -29.3950  -12.4680   20.3910 C   0  0  0  0  0  0  0  0  0  0  0  0
  -28.1140  -12.2050   20.7710 C   0  0  0  0  0  0  0  0  0  0  0  0
  -28.0000  -10.7810   20.8220 C   0  0  0  0  0  0  0  0  0  0  0  0
  -30.0080  -11.2350   20.2160 N   0  0  0  0  0  0  0  0  0  0  0  0
  -29.1690  -10.2170   20.5350 N   0  0  0  0  0  0  0  0  0  0  0  0
  -26.8320   -9.9190   21.0600 C   0  0  0  0  0  0  0  0  0  0  0  0
  -26.7010   -9.1550   22.2360 C   0  0  0  0  0  3  0  0  0  0  0  0
  -25.5600   -8.3540   22.4540 C   0  0  0  0  0  3  0  0  0  0  0  0
  -24.5270   -8.3150   21.4860 C   0  0  0  0  0  0  0  0  0  0  0  0
  -24.6730   -9.0560   20.3020 C   0  0  0  0  0  3  0  0  0  0  0  0
  -25.8160   -9.8510   20.0880 C   0  0  0  0  0  3  0  0  0  0  0  0
  -23.4010   -7.5330   21.6020 O   0  0  0  0  0  0  0  0  0  0  0  0
  -22.7540   -7.3700   22.8030 C   0  0  0  0  0  0  0  0  0  0  0  0
  -22.2260   -8.4660   23.5200 C   0  0  0  0  0  3  0  0  0  0  0  0
  -21.5150   -8.2460   24.7170 C   0  0  0  0  0  3  0  0  0  0  0  0
  -21.3240   -6.9360   25.1920 C   0  0  0  0  0  0  0  0  0  0  0  0
  -21.8410   -5.8420   24.4780 C   0  0  0  0  0  3  0  0  0  0  0  0
  -22.5540   -6.0600   23.2840 C   0  0  0  0  0  0  0  0  0  0  0  0
  -23.0370   -5.0030   22.5860 F   0  0  0  0  0  0  0  0  0  0  0  0
  -20.6330   -6.7240   26.3360 F   0  0  0  0  0  0  0  0  0  0  0  0
  -27.0230  -13.2150   21.0020 C   0  0  0  0  0  0  0  0  0  0  0  0
  -26.1240  -12.9320   21.9360 N   0  0  0  0  0  0  0  0  0  0  0  0
  -26.9940  -14.2800   20.3930 O   0  0  0  0  0  0  0  0  0  0  0  0
  -26.1770  -12.0620   22.4400 H   0  0  0  0  0  0  0  0  0  0  0  0
  -25.3800  -13.5850   22.1390 H   0  0  0  0  0  0  0  0  0  0  0  0
  -30.0850  -13.6510   20.1650 N   0  0  0  0  0  0  0  0  0  0  0  0
  -29.6300  -14.5560   20.2040 H   0  0  0  0  0  0  0  0  0  0  0  0
  -31.0490  -13.6890   19.8640 H   0  0  0  0  0  0  0  0  0  0  0  0
  2  7  2  0
  2  6  1  0
  3  8  2  0
  4 11  1  0
  4  1  1  0
  5 11  1  0
  6  5  2  0
  7  3  1  0
  8  5  1  0
  8 15  1  0
  9 16  1  0
  9  4  2  0
 10  1  2  0
 10 58  1  0
 11 14  2  0
 12  6  1  0
 12 13  1  0
 13  9  1  0
 16 10  1  0
 17  7  1  0
 17 19  1  0
 18 29  2  0
 19 24  1  0
 20 30  1  0
 20 28  1  0
 21 23  1  0
 21 27  1  0
 22 28  1  0
 23 22  1  0
 24 23  2  0
 25 19  2  0
 25 26  1  0
 26 21  2  0
 27 20  1  0
 28 18  1  0
 30 32  2  0
 31 30  1  0
 33 31  1  0
 34 43  2  0
 34 39  1  0
 35 31  1  0
 35 39  1  0
 36 35  1  0
 37 38  1  0
 37 36  1  0
 38 34  1  0
 39 40  2  0
 40 41  1  0
 42 41  2  0
 43 42  1  0
 44 18  1  0
 44 45  1  0
 45 46  1  0
 45 48  1  0
 46 50  1  0
 47 46  2  0
 50 49  1  0
 50 52  1  0
 52 51  1  0
 52 53  1  0
 54 44  1  0
 54 57  1  1
 54 55  1  0
 56 54  1  0
 59 60  1  0
 59 58  1  0
 60 61  1  0
 62 61  1  0
 63 69  1  0
 65 66  1  0
 65 64  1  0
 67 66  1  0
 67 76  1  0
 67 68  1  0
 69 64  1  0
 69 68  1  0
 70 63  2  0
 71 63  1  0
 71 62  1  0
 72 71  1  0
 73 74  2  0
 74 75  1  0
 74 93  1  0
 75 78  1  0
 76 73  1  0
 76 77  1  0
 77 75  2  0
 78 79  1  0
 79 80  2  0
 81 84  1  0
 81 80  1  0
 82 81  2  0
 83 82  1  0
 83 78  2  0
 84 85  1  0
 85 90  2  0
 85 86  1  0
 86 87  2  0
 87 88  1  0
 88 92  1  0
 89 88  2  0
 90 89  1  0
 91 90  1  0
 93 94  1  0
 94 97  1  0
 94 96  1  0
 95 93  2  0
 98 99  1  0
 98 73  1  0
100 98  1  0
M  ISO  4   7 101  17 101  63 100  71 100
M  END
>  <TORSDO>  (65) 
F 21

>  <SCORE>  (65) 
-6.219

>  <name>  (65) 
64

>  <ligand_id>  (65) 
64

>  <original_smiles>  (65) 
[H]c1c([H])c([H])c2c(c1[H])C([H])([H])C([H])([H])C([H])([H])C2([H])N([H])C(=O)C1([H])N(C(=O)C([H])(N([H])C(=O)C([H])(N([H])C([H])([H])[H])C([H])([H])[H])C(C([H])([H])[H])(C([H])([H])[H])C([H])([H])[H])C([H])([H])c2c([H])c(Oc3c([H])c(F)c4c(c3[H])C([H])([H])C([H])([H])c3sc(C([H])([H])C([H])([H])C([H])([H])C([H])([H])C([H])([H])N([H])C(=O)N5C([H])([H])C([H])([H])C([H])([H])C([H])(n6nc(-c7c([H])c([H])c(Oc8c([H])c([H])c(F)c([H])c8F)c([H])c7[H])c(C(=O)N([H])[H])c6N([H])[H])C5([H])[H])c([H])c3C4=O)c([H])c([H])c2C1([H])[H]

>  <smiles>  (65) 
[H]c1c([H])c([H])c2c(c1[H])C([H])([H])C([H])([H])C([H])([H])C2([H])N([H])C(=O)C1([H])N(C(=O)C([H])(N([H])C(=O)C([H])(N([H])C([H])([H])[H])C([H])([H])[H])C(C([H])([H])[H])(C([H])([H])[H])C([H])([H])[H])C([H])([H])c2c([H])c(Oc3c([H])c(F)c4c(c3[H])C([H])([H])C([H])([H])c3sc(C([H])([H])C([H])([H])C([H])([H])C([H])([H])C([H])([H])N([H])C(=O)N5C([H])([H])C([H])([H])C([H])([H])C([H])(n6nc(-c7c([H])c([H])c(Oc8c([H])c([H])c(F)c([H])c8F)c([H])c7[H])c(C(=O)N([H])[H])c6N([H])[H])C5([H])[H])c([H])c3C4=O)c([H])c([H])c2C1([H])[H]

$$$$
65:0:0
     RDKit          3D

 95104  0  0  1  0  0  0  0  0999 V2000
  -27.7880  -22.9390   21.7360 C   0  0  0  0  0  3  0  0  0  0  0  0
  -28.5860  -24.2220   19.8340 C   0  0  0  0  0  3  0  0  0  0  0  0
  -28.4620  -22.9490   20.4960 C   0  0  0  0  0  0  0  0  0  0  0  0
  -27.5750  -25.3840   21.7280 C   0  0  0  0  0  0  0  0  0  0  0  0
  -27.3670  -24.1300   22.3490 C   0  0  0  0  0  0  0  0  0  0  0  0
  -28.1220  -25.4530   20.4130 C   0  0  0  0  0  0  0  0  0  0  0  0
  -27.2290  -26.6440   22.5130 C   0  0  0  0  0  1  0  0  0  0  0  0
  -29.0320  -21.6400   19.9360 C   0  0  0  0  0  0  0  0  0  0  0  0
  -29.6930  -21.6120   18.8940 O   0  0  0  0  0  0  0  0  0  0  0  0
  -28.7710  -20.2910   20.7060 C   0  0  0  0  0  2  0  0  0  0  0  0
  -30.9430  -14.8040   19.9630 C   0  0  0  0  0  0  0  0  0  0  0  0
  -30.6270  -12.5730   18.9480 C   0  0  0  0  0  2  0  0  0  0  0  0
  -29.6270  -12.7150   17.7830 C   0  0  0  0  0  2  0  0  0  0  0  0
  -28.1800  -12.5670   18.2930 C   0  0  0  0  0  2  0  0  0  0  0  0
  -27.8920  -13.4320   19.5510 C   0  0  0  0  0  3  0  0  0  0  0  0
  -29.0130  -13.3040   20.6060 C   0  0  0  0  0  2  0  0  0  0  0  0
  -30.2810  -13.6100   19.9370 N   0  0  0  0  0  0  0  0  0  0  0  0
  -32.0990  -14.9020   19.5390 O   0  0  0  0  0  0  0  0  0  0  0  0
  -29.2070  -18.1380   19.1800 C   0  0  0  0  0  2  0  0  0  0  0  0
  -29.5450  -17.9680   21.5890 C   0  0  0  0  0  2  0  0  0  0  0  0
  -30.1040  -16.8710   18.9900 C   0  0  0  0  0  2  0  0  0  0  0  0
  -30.4240  -16.6930   21.4030 C   0  0  0  0  0  2  0  0  0  0  0  0
  -29.6120  -18.9760   20.4110 C   0  0  0  0  0  3  0  0  0  0  0  0
  -30.1910  -15.9410   20.1510 N   0  0  0  0  0  0  0  0  0  0  0  0
  -25.5670  -14.0190   20.4660 C   0  0  0  0  0  0  0  0  0  0  0  0
  -24.5170  -13.2410   20.8690 C   0  0  0  0  0  0  0  0  0  0  0  0
  -24.9540  -11.8870   20.7410 C   0  0  0  0  0  0  0  0  0  0  0  0
  -26.5780  -13.1390   20.1160 N   0  0  0  0  0  0  0  0  0  0  0  0
  -26.2200  -11.8490   20.3410 N   0  0  0  0  0  0  0  0  0  0  0  0
  -24.2250  -10.6250   20.9200 C   0  0  0  0  0  0  0  0  0  0  0  0
  -24.6280   -9.6670   21.8750 C   0  0  0  0  0  3  0  0  0  0  0  0
  -23.8990   -8.4690   22.0410 C   0  0  0  0  0  3  0  0  0  0  0  0
  -22.7520   -8.2210   21.2500 C   0  0  0  0  0  0  0  0  0  0  0  0
  -22.3680   -9.1670   20.2830 C   0  0  0  0  0  3  0  0  0  0  0  0
  -23.0980  -10.3570   20.1160 C   0  0  0  0  0  3  0  0  0  0  0  0
  -21.9960   -7.0760   21.3250 O   0  0  0  0  0  0  0  0  0  0  0  0
  -21.7940   -6.4230   22.5130 C   0  0  0  0  0  0  0  0  0  0  0  0
  -21.1900   -7.0600   23.6190 C   0  0  0  0  0  3  0  0  0  0  0  0
  -20.9370   -6.3320   24.8000 C   0  0  0  0  0  3  0  0  0  0  0  0
  -21.2770   -4.9690   24.8710 C   0  0  0  0  0  0  0  0  0  0  0  0
  -21.8710   -4.3310   23.7690 C   0  0  0  0  0  3  0  0  0  0  0  0
  -22.1270   -5.0560   22.5930 C   0  0  0  0  0  0  0  0  0  0  0  0
  -22.6810   -4.4320   21.5250 F   0  0  0  0  0  0  0  0  0  0  0  0
  -21.0250   -4.2650   26.0020 F   0  0  0  0  0  0  0  0  0  0  0  0
  -23.1480  -13.7200   21.2600 C   0  0  0  0  0  0  0  0  0  0  0  0
  -22.4750  -12.9960   22.1480 N   0  0  0  0  0  0  0  0  0  0  0  0
  -22.6880  -14.7690   20.8140 O   0  0  0  0  0  0  0  0  0  0  0  0
  -22.8610  -12.1460   22.5290 H   0  0  0  0  0  0  0  0  0  0  0  0
  -21.5600  -13.2980   22.4500 H   0  0  0  0  0  0  0  0  0  0  0  0
  -25.7420  -15.3940   20.3460 N   0  0  0  0  0  0  0  0  0  0  0  0
  -25.0010  -16.0560   20.5460 H   0  0  0  0  0  0  0  0  0  0  0  0
  -26.5910  -15.8350   20.0140 H   0  0  0  0  0  0  0  0  0  0  0  0
  -26.7630  -24.0550   23.5730 O   0  0  0  0  0  0  0  0  0  0  0  0
  -26.6720  -23.1670   23.9040 H   0  0  0  0  0  0  0  0  0  0  0  0
  -28.2320  -26.6840   19.7340 O   0  0  0  0  0  0  0  0  0  0  0  0
  -24.5900  -31.8730   23.0510 C   0  0  0  0  0  0  0  0  0  0  0  0
  -27.1260  -27.5290   19.7100 C   0  0  0  0  0  0  0  0  0  0  0  0
  -23.3330  -30.5300   21.4010 C   0  0  0  0  0  3  0  0  0  0  0  0
  -24.7400  -29.0650   19.8510 C   0  0  0  0  0  0  0  0  0  0  0  0
  -25.8520  -30.9080   21.1210 C   0  0  0  0  0  2  0  0  0  0  0  0
  -25.9220  -29.5660   20.4120 C   0  0  0  0  0  0  0  0  0  0  0  0
  -27.1240  -28.8150   20.3220 C   0  0  0  0  0  3  0  0  0  0  0  0
  -25.9320  -27.0690   19.1180 C   0  0  0  0  0  3  0  0  0  0  0  0
  -24.7440  -27.8240   19.1910 C   0  0  0  0  0  3  0  0  0  0  0  0
  -23.4940  -29.9120   19.9860 C   0  0  0  0  0  2  0  0  0  0  0  0
  -24.6130  -31.1180   21.9150 N   0  0  0  0  0  0  0  0  0  0  0  0
  -23.5280  -32.1110   23.6450 O   0  0  0  0  0  0  0  0  0  0  0  0
  -22.7250  -29.4650   22.3450 C   0  0  0  0  0  0  0  0  0  0  0  0
  -21.3990  -29.2720   22.2590 N   0  0  0  0  0  0  0  0  0  0  0  0
  -23.4440  -28.8180   23.1110 O   0  0  0  0  0  0  0  0  0  0  0  0
  -20.8770  -29.8500   21.6150 H   0  0  0  0  0  0  0  0  0  0  0  0
  -18.0570  -28.0210   22.8400 C   0  0  0  0  0  0  0  0  0  0  0  0
  -20.6210  -28.2940   23.0200 C   0  0  0  0  0  3  0  0  0  0  0  0
  -20.7120  -26.8890   22.3800 C   0  0  0  0  0  2  0  0  0  0  0  0
  -19.5730  -26.5980   21.3990 C   0  0  0  0  0  2  0  0  0  0  0  0
  -18.2170  -26.7030   22.1010 C   0  0  0  0  0  2  0  0  0  0  0  0
  -19.1850  -28.7750   23.2590 C   0  0  0  0  0  0  0  0  0  0  0  0
  -18.9760  -30.0110   23.9120 C   0  0  0  0  0  3  0  0  0  0  0  0
  -17.6750  -30.4880   24.1510 C   0  0  0  0  0  3  0  0  0  0  0  0
  -16.5610  -29.7310   23.7470 C   0  0  0  0  0  3  0  0  0  0  0  0
  -16.7540  -28.4990   23.0970 C   0  0  0  0  0  3  0  0  0  0  0  0
  -25.8930  -32.4930   23.6480 C   0  0  0  0  0  3  0  0  0  0  0  0
  -26.4650  -31.6750   24.8710 C   0  0  1  0  0  0  0  0  0  0  0  0
  -25.4180  -31.3840   25.9710 C   0  0  0  0  0  1  0  0  0  0  0  0
  -27.0410  -30.3200   24.3960 C   0  0  0  0  0  1  0  0  0  0  0  0
  -27.6360  -32.4520   25.5200 C   0  0  0  0  0  1  0  0  0  0  0  0
  -25.5860  -33.8730   24.0460 N   0  0  0  0  0  0  0  0  0  0  0  0
  -25.8960  -34.9610   23.3260 C   0  0  0  0  0  0  0  0  0  0  0  0
  -26.5420  -34.9050   22.2760 O   0  0  0  0  0  0  0  0  0  0  0  0
  -25.0190  -33.9910   24.8740 H   0  0  0  0  0  0  0  0  0  0  0  0
  -24.1600  -36.7630   23.0800 C   0  0  0  0  0  1  0  0  0  0  0  0
  -25.4130  -36.3260   23.8550 C   0  0  0  0  0  3  0  0  0  0  0  0
  -27.5570  -37.1780   24.6960 C   0  0  0  0  0  1  0  0  0  0  0  0
  -26.4410  -37.3870   23.7770 N   0  0  0  0  0  0  0  0  0  0  0  0
  -26.0340  -38.2970   23.9740 H   0  0  0  0  0  0  0  0  0  0  0  0
  1  5  1  0
  2  6  2  0
  2  3  1  0
  3  1  2  0
  4  5  2  0
  4  7  1  0
  5 53  1  0
  6  4  1  0
  8  3  1  0
  8 10  1  0
  9  8  2  0
 11 24  1  0
 12 17  1  0
 13 14  1  0
 13 12  1  0
 15 14  1  0
 15 28  1  0
 15 16  1  0
 17 11  1  0
 17 16  1  0
 18 11  2  0
 19 23  1  0
 21 19  1  0
 21 24  1  0
 22 20  1  0
 23 10  1  0
 23 20  1  0
 24 22  1  0
 25 26  2  0
 26 45  1  0
 27 26  1  0
 27 30  1  0
 28 29  1  0
 28 25  1  0
 29 27  2  0
 30 31  1  0
 31 32  2  0
 33 36  1  0
 33 32  1  0
 34 33  2  0
 35 34  1  0
 35 30  2  0
 36 37  1  0
 37 42  2  0
 37 38  1  0
 38 39  2  0
 39 40  1  0
 40 44  1  0
 41 40  2  0
 42 41  1  0
 43 42  1  0
 45 46  1  0
 46 49  1  0
 46 48  1  0
 47 45  2  0
 50 25  1  0
 50 51  1  0
 52 50  1  0
 53 54  1  0
 55  6  1  0
 56 67  2  0
 57 55  1  0
 57 62  1  0
 58 66  1  0
 58 68  1  0
 59 65  1  0
 59 61  1  0
 60 66  1  0
 61 60  1  0
 62 61  2  0
 63 64  1  0
 63 57  2  0
 64 59  2  0
 65 58  1  0
 66 56  1  0
 68 70  2  0
 69 68  1  0
 71 69  1  0
 72 81  2  0
 72 77  1  0
 73 69  1  0
 73 77  1  0
 74 73  1  0
 75 76  1  0
 75 74  1  0
 76 72  1  0
 77 78  2  0
 78 79  1  0
 80 79  2  0
 81 80  1  0
 82 56  1  0
 82 87  1  0
 82 83  1  0
 83 86  1  1
 83 84  1  0
 85 83  1  0
 87 90  1  0
 88 92  1  0
 88 87  1  0
 89 88  2  0
 92 91  1  0
 94 92  1  0
 94 95  1  0
 94 93  1  0
M  ISO  4   6 101  11 100  24 100  55 101
M  END
>  <TORSDO>  (66) 
F 19

>  <SCORE>  (66) 
-12.156

>  <name>  (66) 
65

>  <ligand_id>  (66) 
65

>  <original_smiles>  (66) 
[H]Oc1c([H])c(C(=O)C([H])([H])C2([H])C([H])([H])C([H])([H])N(C(=O)N3C([H])([H])C([H])([H])C([H])([H])C([H])(n4nc(-c5c([H])c([H])c(Oc6c([H])c([H])c(F)c([H])c6F)c([H])c5[H])c(C(=O)N([H])[H])c4N([H])[H])C3([H])[H])C([H])([H])C2([H])[H])c([H])c(Oc2c([H])c([H])c3c(c2[H])C([H])([H])N(C(=O)C([H])(N([H])C(=O)C([H])(N([H])C([H])([H])[H])C([H])([H])[H])C(C([H])([H])[H])(C([H])([H])[H])C([H])([H])[H])C([H])(C(=O)N([H])C2([H])c4c([H])c([H])c([H])c([H])c4C([H])([H])C([H])([H])C2([H])[H])C3([H])[H])c1C([H])([H])[H]

>  <smiles>  (66) 
[H]Oc1c([H])c(C(=O)C([H])([H])C2([H])C([H])([H])C([H])([H])N(C(=O)N3C([H])([H])C([H])([H])C([H])([H])C([H])(n4nc(-c5c([H])c([H])c(Oc6c([H])c([H])c(F)c([H])c6F)c([H])c5[H])c(C(=O)N([H])[H])c4N([H])[H])C3([H])[H])C([H])([H])C2([H])[H])c([H])c(Oc2c([H])c([H])c3c(c2[H])C([H])([H])N(C(=O)C([H])(N([H])C(=O)C([H])(N([H])C([H])([H])[H])C([H])([H])[H])C(C([H])([H])[H])(C([H])([H])[H])C([H])([H])[H])C([H])(C(=O)N([H])C2([H])c4c([H])c([H])c([H])c([H])c4C([H])([H])C([H])([H])C2([H])[H])C3([H])[H])c1C([H])([H])[H]

$$$$
66:0:0
     RDKit          3D

 91100  0  0  1  0  0  0  0  0999 V2000
  -29.3430  -21.8050   21.3580 C   0  0  0  0  0  3  0  0  0  0  0  0
  -29.0160  -23.2830   21.3480 C   0  0  0  0  0  3  0  0  0  0  0  0
  -28.2180  -23.0830   19.2780 C   0  0  0  0  0  3  0  0  0  0  0  0
  -29.1830  -20.7440   20.3360 C   0  0  0  0  0  0  0  0  0  0  0  0
  -28.3780  -24.1380   20.3230 C   0  0  0  0  0  0  0  0  0  0  0  0
  -28.5670  -21.5820   19.2650 C   0  0  0  0  0  0  0  0  0  0  0  0
  -32.0950  -18.8140   19.4040 C   0  0  0  0  0  2  0  0  0  0  0  0
  -31.1960  -18.5930   18.1680 C   0  0  0  0  0  2  0  0  0  0  0  0
  -31.3160  -19.1030   20.7070 C   0  0  0  0  0  2  0  0  0  0  0  0
  -30.0280  -17.5790   18.3630 C   0  0  0  0  0  2  0  0  0  0  0  0
  -29.7830  -19.0060   20.5510 C   0  0  0  0  0  3  0  0  0  0  0  0
  -29.6440  -17.2730   19.8400 C   0  0  0  0  0  3  0  0  0  0  0  0
  -30.3720  -15.5950   20.1310 C   0  0  0  0  0  0  0  0  0  0  0  0
  -30.3850  -13.0630   19.3690 C   0  0  0  0  0  2  0  0  0  0  0  0
  -29.4680  -12.7310   18.1560 C   0  0  0  0  0  2  0  0  0  0  0  0
  -28.0440  -12.4040   18.6320 C   0  0  0  0  0  2  0  0  0  0  0  0
  -27.5590  -13.4100   19.6980 C   0  0  0  0  0  3  0  0  0  0  0  0
  -28.6060  -13.7110   20.7920 C   0  0  0  0  0  2  0  0  0  0  0  0
  -29.8160  -14.2510   20.1310 N   0  0  0  0  0  0  0  0  0  0  0  0
  -31.6110  -15.4880   20.0520 O   0  0  0  0  0  0  0  0  0  0  0  0
  -25.2130  -13.9390   20.5290 C   0  0  0  0  0  0  0  0  0  0  0  0
  -24.1590  -13.1570   20.9020 C   0  0  0  0  0  0  0  0  0  0  0  0
  -24.6240  -11.8060   20.8430 C   0  0  0  0  0  0  0  0  0  0  0  0
  -26.2520  -13.0720   20.2470 N   0  0  0  0  0  0  0  0  0  0  0  0
  -25.9140  -11.7830   20.5100 N   0  0  0  0  0  0  0  0  0  0  0  0
  -23.8980  -10.5440   21.0280 C   0  0  0  0  0  0  0  0  0  0  0  0
  -24.3310   -9.5740   21.9580 C   0  0  0  0  0  3  0  0  0  0  0  0
  -23.6070   -8.3750   22.1350 C   0  0  0  0  0  3  0  0  0  0  0  0
  -22.4330   -8.1380   21.3810 C   0  0  0  0  0  0  0  0  0  0  0  0
  -22.0150   -9.0960   20.4410 C   0  0  0  0  0  3  0  0  0  0  0  0
  -22.7400  -10.2870   20.2630 C   0  0  0  0  0  3  0  0  0  0  0  0
  -21.6810   -6.9890   21.4660 O   0  0  0  0  0  0  0  0  0  0  0  0
  -21.6170   -6.2530   22.6220 C   0  0  0  0  0  0  0  0  0  0  0  0
  -21.1520   -6.8080   23.8340 C   0  0  0  0  0  3  0  0  0  0  0  0
  -21.0380   -5.9990   24.9830 C   0  0  0  0  0  3  0  0  0  0  0  0
  -21.3740   -4.6340   24.9180 C   0  0  0  0  0  0  0  0  0  0  0  0
  -21.8290   -4.0760   23.7090 C   0  0  0  0  0  3  0  0  0  0  0  0
  -21.9480   -4.8850   22.5650 C   0  0  0  0  0  0  0  0  0  0  0  0
  -22.3660   -4.3370   21.3990 F   0  0  0  0  0  0  0  0  0  0  0  0
  -21.2580   -3.8540   26.0190 F   0  0  0  0  0  0  0  0  0  0  0  0
  -22.7650  -13.6290   21.1970 C   0  0  0  0  0  0  0  0  0  0  0  0
  -22.0500  -12.9300   22.0680 N   0  0  0  0  0  0  0  0  0  0  0  0
  -22.3170  -14.6570   20.6870 O   0  0  0  0  0  0  0  0  0  0  0  0
  -22.4250  -12.1040   22.5100 H   0  0  0  0  0  0  0  0  0  0  0  0
  -21.1110  -13.2240   22.2980 H   0  0  0  0  0  0  0  0  0  0  0  0
  -25.3710  -15.3120   20.3690 N   0  0  0  0  0  0  0  0  0  0  0  0
  -24.6100  -15.9660   20.5120 H   0  0  0  0  0  0  0  0  0  0  0  0
  -26.2210  -15.7550   20.0440 H   0  0  0  0  0  0  0  0  0  0  0  0
  -27.0860  -20.3420   17.9310 C   0  0  0  0  0  1  0  0  0  0  0  0
  -28.3650  -20.9430   18.0690 O   0  0  0  0  0  0  0  0  0  0  0  0
  -28.2700  -25.7400   20.3180 O   0  0  0  0  0  0  0  0  0  0  0  0
  -24.6630  -31.9170   23.2420 C   0  0  0  0  0  0  0  0  0  0  0  0
  -27.2170  -26.8620   20.3120 C   0  0  0  0  0  0  0  0  0  0  0  0
  -23.4730  -30.5040   21.6150 C   0  0  0  0  0  3  0  0  0  0  0  0
  -24.9200  -28.8400   20.2280 C   0  0  0  0  0  0  0  0  0  0  0  0
  -26.0440  -30.6670   21.4750 C   0  0  0  0  0  2  0  0  0  0  0  0
  -26.1110  -29.2250   20.8570 C   0  0  0  0  0  0  0  0  0  0  0  0
  -27.2420  -28.2630   20.8670 C   0  0  0  0  0  3  0  0  0  0  0  0
  -25.9890  -26.6640   19.6370 C   0  0  0  0  0  3  0  0  0  0  0  0
  -24.8930  -27.5810   19.5990 C   0  0  0  0  0  3  0  0  0  0  0  0
  -23.7090  -29.7850   20.2540 C   0  0  0  0  0  2  0  0  0  0  0  0
  -24.7530  -31.0620   22.1660 N   0  0  0  0  0  0  0  0  0  0  0  0
  -23.5710  -32.2230   23.7510 O   0  0  0  0  0  0  0  0  0  0  0  0
  -22.7560  -29.5400   22.5980 C   0  0  0  0  0  0  0  0  0  0  0  0
  -21.4250  -29.3840   22.4680 N   0  0  0  0  0  0  0  0  0  0  0  0
  -23.4090  -28.9280   23.4460 O   0  0  0  0  0  0  0  0  0  0  0  0
  -20.9510  -29.9360   21.7690 H   0  0  0  0  0  0  0  0  0  0  0  0
  -18.0360  -28.1760   22.9690 C   0  0  0  0  0  0  0  0  0  0  0  0
  -20.5930  -28.4550   23.2440 C   0  0  0  0  0  3  0  0  0  0  0  0
  -20.6980  -27.0160   22.6890 C   0  0  0  0  0  2  0  0  0  0  0  0
  -19.6030  -26.6790   21.6700 C   0  0  0  0  0  2  0  0  0  0  0  0
  -18.2200  -26.8230   22.3060 C   0  0  0  0  0  2  0  0  0  0  0  0
  -19.1490  -28.9510   23.3960 C   0  0  0  0  0  0  0  0  0  0  0  0
  -18.9180  -30.2160   23.9810 C   0  0  0  0  0  3  0  0  0  0  0  0
  -17.6080  -30.7030   24.1440 C   0  0  0  0  0  3  0  0  0  0  0  0
  -16.5110  -29.9310   23.7250 C   0  0  0  0  0  3  0  0  0  0  0  0
  -16.7250  -28.6680   23.1430 C   0  0  0  0  0  3  0  0  0  0  0  0
  -25.9290  -32.5650   23.8830 C   0  0  0  0  0  3  0  0  0  0  0  0
  -25.6130  -33.9680   24.2120 N   0  0  0  0  0  0  0  0  0  0  0  0
  -25.9230  -35.0260   23.4510 C   0  0  0  0  0  0  0  0  0  0  0  0
  -26.5720  -34.9250   22.4060 O   0  0  0  0  0  0  0  0  0  0  0  0
  -25.0350  -34.1190   25.0250 H   0  0  0  0  0  0  0  0  0  0  0  0
  -24.1810  -36.8260   23.1490 C   0  0  0  0  0  1  0  0  0  0  0  0
  -25.4460  -36.4190   23.9210 C   0  0  0  0  0  3  0  0  0  0  0  0
  -27.6010  -37.3250   24.6800 C   0  0  0  0  0  1  0  0  0  0  0  0
  -26.4690  -37.4770   23.7700 N   0  0  0  0  0  0  0  0  0  0  0  0
  -26.0600  -38.3960   23.9220 H   0  0  0  0  0  0  0  0  0  0  0  0
  -26.4220  -31.8070   25.1770 C   0  0  1  0  0  0  0  0  0  0  0  0
  -25.3180  -31.5900   26.2380 C   0  0  0  0  0  1  0  0  0  0  0  0
  -27.0050  -30.4230   24.8120 C   0  0  0  0  0  1  0  0  0  0  0  0
  -27.5720  -32.6020   25.8410 C   0  0  0  0  0  1  0  0  0  0  0  0
  2  1  1  0
  3  5  1  0
  4  1  2  0
  5  2  2  0
  6  3  2  0
  6  4  1  0
  7  9  1  0
  8 10  1  0
  8  7  1  0
 10 12  1  0
 11  4  1  0
 11  9  1  0
 12 13  1  0
 12 11  1  0
 13 19  1  0
 14 19  1  0
 15 16  1  0
 15 14  1  0
 17 16  1  0
 17 24  1  0
 17 18  1  0
 19 18  1  0
 20 13  2  0
 21 22  2  0
 22 41  1  0
 23 22  1  0
 23 26  1  0
 24 25  1  0
 24 21  1  0
 25 23  2  0
 26 27  1  0
 27 28  2  0
 29 32  1  0
 29 28  1  0
 30 29  2  0
 31 30  1  0
 31 26  2  0
 32 33  1  0
 33 34  1  0
 34 35  2  0
 36 35  1  0
 36 40  1  0
 37 36  2  0
 38 33  2  0
 38 37  1  0
 39 38  1  0
 41 42  1  0
 42 45  1  0
 42 44  1  0
 43 41  2  0
 46 47  1  0
 46 21  1  0
 48 46  1  0
 49 50  1  0
 50  6  1  0
 51  5  1  0
 52 63  2  0
 53 51  1  0
 53 58  1  0
 54 62  1  0
 54 64  1  0
 55 61  1  0
 55 57  1  0
 56 62  1  0
 57 58  2  0
 57 56  1  0
 59 53  2  0
 60 59  1  0
 60 55  2  0
 61 54  1  0
 62 52  1  0
 64 66  2  0
 65 64  1  0
 67 65  1  0
 68 77  2  0
 68 73  1  0
 69 65  1  0
 69 73  1  0
 70 69  1  0
 71 72  1  0
 71 70  1  0
 72 68  1  0
 73 74  2  0
 74 75  1  0
 76 75  2  0
 77 76  1  0
 78 52  1  0
 78 79  1  0
 78 88  1  0
 79 82  1  0
 80 84  1  0
 80 79  1  0
 81 80  2  0
 84 83  1  0
 86 84  1  0
 86 87  1  0
 86 85  1  0
 88 91  1  1
 88 89  1  0
 90 88  1  0
M  ISO  4   5 101  12 100  13 100  51 101
M  END
>  <TORSDO>  (67) 
F 18

>  <SCORE>  (67) 
-15.756

>  <name>  (67) 
66

>  <ligand_id>  (67) 
66

>  <original_smiles>  (67) 
[H]c1c([H])c([H])c2c(c1[H])C([H])([H])C([H])([H])C([H])([H])C2([H])N([H])C(=O)C1([H])N(C(=O)C([H])(N([H])C(=O)C([H])(N([H])C([H])([H])[H])C([H])([H])[H])C(C([H])([H])[H])(C([H])([H])[H])C([H])([H])[H])C([H])([H])c2c([H])c(Oc3c([H])c([H])c(C4([H])C([H])([H])C([H])([H])C([H])([H])C([H])([H])C4([H])C(=O)N4C([H])([H])C([H])([H])C([H])([H])C([H])(n5nc(-c6c([H])c([H])c(Oc7c([H])c([H])c(F)c([H])c7F)c([H])c6[H])c(C(=O)N([H])[H])c5N([H])[H])C4([H])[H])c(OC([H])([H])[H])c3[H])c([H])c([H])c2C1([H])[H]

>  <smiles>  (67) 
[H]c1c([H])c([H])c2c(c1[H])C([H])([H])C([H])([H])C([H])([H])C2([H])N([H])C(=O)C1([H])N(C(=O)C([H])(N([H])C(=O)C([H])(N([H])C([H])([H])[H])C([H])([H])[H])C(C([H])([H])[H])(C([H])([H])[H])C([H])([H])[H])C([H])([H])c2c([H])c(Oc3c([H])c([H])c(C4([H])C([H])([H])C([H])([H])C([H])([H])C([H])([H])C4([H])C(=O)N4C([H])([H])C([H])([H])C([H])([H])C([H])(n5nc(-c6c([H])c([H])c(Oc7c([H])c([H])c(F)c([H])c7F)c([H])c6[H])c(C(=O)N([H])[H])c5N([H])[H])C4([H])[H])c(OC([H])([H])[H])c3[H])c([H])c([H])c2C1([H])[H]

$$$$
67:0:0
     RDKit          3D

 94103  0  0  1  0  0  0  0  0999 V2000
  -28.7420  -22.0610   18.9850 C   0  0  0  0  0  3  0  0  0  0  0  0
  -28.5420  -23.5250   18.9980 C   0  0  0  0  0  3  0  0  0  0  0  0
  -29.1580  -23.6090   21.2320 C   0  0  0  0  0  0  0  0  0  0  0  0
  -29.3850  -22.1070   21.2160 C   0  0  0  0  0  0  0  0  0  0  0  0
  -29.1820  -21.2070   20.0750 C   0  0  0  0  0  0  0  0  0  0  0  0
  -28.7040  -24.4430   20.1110 C   0  0  0  0  0  0  0  0  0  0  0  0
  -29.4430  -24.4150   22.4620 C   0  0  0  0  0  0  0  0  0  0  0  0
  -29.8510  -21.3440   22.4720 C   0  0  0  0  0  2  0  0  0  0  0  0
  -29.0460  -23.8060   23.8000 C   0  0  0  0  0  2  0  0  0  0  0  0
  -30.8650  -22.0490   23.3860 C   0  0  0  0  0  2  0  0  0  0  0  0
  -30.1940  -22.9880   24.3990 C   0  0  0  0  0  3  0  0  0  0  0  0
  -29.9670  -25.5330   22.4570 O   0  0  0  0  0  0  0  0  0  0  0  0
  -29.7030  -22.2650   25.4080 F   0  0  0  0  0  0  0  0  0  0  0  0
  -28.6650  -25.9720   20.0110 O   0  0  0  0  0  0  0  0  0  0  0  0
  -24.7870  -31.5680   23.2110 C   0  0  0  0  0  0  0  0  0  0  0  0
  -27.5890  -26.9870   20.0100 C   0  0  0  0  0  0  0  0  0  0  0  0
  -23.7200  -30.3090   21.3820 C   0  0  0  0  0  3  0  0  0  0  0  0
  -25.2750  -28.8240   19.9460 C   0  0  0  0  0  0  0  0  0  0  0  0
  -26.2850  -30.5450   21.4340 C   0  0  0  0  0  2  0  0  0  0  0  0
  -26.4090  -29.1930   20.6810 C   0  0  0  0  0  0  0  0  0  0  0  0
  -27.5590  -28.2940   20.6910 C   0  0  0  0  0  3  0  0  0  0  0  0
  -26.4300  -26.7560   19.2400 C   0  0  0  0  0  3  0  0  0  0  0  0
  -25.3070  -27.6250   19.2120 C   0  0  0  0  0  3  0  0  0  0  0  0
  -24.0490  -29.7340   19.9750 C   0  0  0  0  0  2  0  0  0  0  0  0
  -24.9480  -30.8290   22.0660 N   0  0  0  0  0  0  0  0  0  0  0  0
  -23.6630  -31.8140   23.6760 O   0  0  0  0  0  0  0  0  0  0  0  0
  -22.9680  -29.2380   22.2130 C   0  0  0  0  0  0  0  0  0  0  0  0
  -21.6340  -29.1520   22.0510 N   0  0  0  0  0  0  0  0  0  0  0  0
  -23.5890  -28.4890   22.9690 O   0  0  0  0  0  0  0  0  0  0  0  0
  -21.1890  -29.8050   21.4220 H   0  0  0  0  0  0  0  0  0  0  0  0
  -18.1770  -28.1400   22.4760 C   0  0  0  0  0  0  0  0  0  0  0  0
  -20.7560  -28.1680   22.6920 C   0  0  0  0  0  3  0  0  0  0  0  0
  -20.7310  -26.8420   21.8960 C   0  0  0  0  0  2  0  0  0  0  0  0
  -19.5850  -26.7690   20.8820 C   0  0  0  0  0  2  0  0  0  0  0  0
  -18.2340  -26.9090   21.5870 C   0  0  0  0  0  2  0  0  0  0  0  0
  -19.3620  -28.7410   22.9820 C   0  0  0  0  0  0  0  0  0  0  0  0
  -19.2530  -29.9010   23.7780 C   0  0  0  0  0  3  0  0  0  0  0  0
  -17.9950  -30.4580   24.0720 C   0  0  0  0  0  3  0  0  0  0  0  0
  -16.8260  -29.8530   23.5790 C   0  0  0  0  0  3  0  0  0  0  0  0
  -16.9190  -28.6950   22.7880 C   0  0  0  0  0  3  0  0  0  0  0  0
  -26.0090  -32.1540   23.9830 C   0  0  0  0  0  3  0  0  0  0  0  0
  -25.6910  -33.5480   24.3400 N   0  0  0  0  0  0  0  0  0  0  0  0
  -26.0750  -34.6260   23.6420 C   0  0  0  0  0  0  0  0  0  0  0  0
  -26.7950  -34.5510   22.6430 O   0  0  0  0  0  0  0  0  0  0  0  0
  -25.0570  -33.6810   25.1140 H   0  0  0  0  0  0  0  0  0  0  0  0
  -24.3910  -36.4610   23.2720 C   0  0  0  0  0  1  0  0  0  0  0  0
  -25.5840  -36.0070   24.1260 C   0  0  0  0  0  3  0  0  0  0  0  0
  -27.6780  -36.8400   25.1020 C   0  0  0  0  0  1  0  0  0  0  0  0
  -26.6350  -37.0470   24.1020 N   0  0  0  0  0  0  0  0  0  0  0  0
  -26.2320  -37.9690   24.2500 H   0  0  0  0  0  0  0  0  0  0  0  0
  -26.3750  -31.3310   25.2790 C   0  0  1  0  0  0  0  0  0  0  0  0
  -25.1800  -31.1060   26.2350 C   0  0  0  0  0  1  0  0  0  0  0  0
  -26.9430  -29.9410   24.9080 C   0  0  0  0  0  1  0  0  0  0  0  0
  -27.4870  -32.0620   26.0680 C   0  0  0  0  0  1  0  0  0  0  0  0
  -29.1250  -19.4580   20.0820 C   0  0  0  0  0  3  0  0  0  0  0  0
  -30.2690  -18.0960   20.0790 C   0  0  0  0  0  3  0  0  0  0  0  0
  -30.7600  -15.2060   20.1250 C   0  0  0  0  0  0  0  0  0  0  0  0
  -30.7270  -12.7330   19.3720 C   0  0  0  0  0  2  0  0  0  0  0  0
  -29.8090  -12.4830   18.1490 C   0  0  0  0  0  2  0  0  0  0  0  0
  -28.3540  -12.2520   18.5950 C   0  0  0  0  0  2  0  0  0  0  0  0
  -27.9050  -13.2710   19.6720 C   0  0  0  0  0  3  0  0  0  0  0  0
  -28.9500  -13.4570   20.7930 C   0  0  0  0  0  2  0  0  0  0  0  0
  -30.1880  -13.9090   20.1400 N   0  0  0  0  0  0  0  0  0  0  0  0
  -31.9790  -15.2070   19.9120 O   0  0  0  0  0  0  0  0  0  0  0  0
  -29.9870  -16.4610   20.1510 N   0  0  0  0  0  0  0  0  0  0  0  0
  -29.0050  -16.2610   20.2660 H   0  0  0  0  0  0  0  0  0  0  0  0
  -25.5530  -13.8830   20.4450 C   0  0  0  0  0  0  0  0  0  0  0  0
  -24.4770  -13.1290   20.8210 C   0  0  0  0  0  0  0  0  0  0  0  0
  -24.9150  -11.7680   20.7840 C   0  0  0  0  0  0  0  0  0  0  0  0
  -26.5750  -12.9860   20.1910 N   0  0  0  0  0  0  0  0  0  0  0  0
  -26.2030  -11.7070   20.4630 N   0  0  0  0  0  0  0  0  0  0  0  0
  -24.1620  -10.5210   20.9740 C   0  0  0  0  0  0  0  0  0  0  0  0
  -24.5380   -9.5730   21.9510 C   0  0  0  0  0  3  0  0  0  0  0  0
  -23.7830   -8.3930   22.1290 C   0  0  0  0  0  3  0  0  0  0  0  0
  -22.6390   -8.1530   21.3300 C   0  0  0  0  0  0  0  0  0  0  0  0
  -22.2840   -9.0910   20.3440 C   0  0  0  0  0  3  0  0  0  0  0  0
  -23.0400  -10.2620   20.1640 C   0  0  0  0  0  3  0  0  0  0  0  0
  -21.8620   -7.0240   21.4140 O   0  0  0  0  0  0  0  0  0  0  0  0
  -21.6710   -6.3690   22.6050 C   0  0  0  0  0  0  0  0  0  0  0  0
  -21.1220   -7.0180   23.7330 C   0  0  0  0  0  3  0  0  0  0  0  0
  -20.8770   -6.2900   24.9150 C   0  0  0  0  0  3  0  0  0  0  0  0
  -21.1710   -4.9150   24.9680 C   0  0  0  0  0  0  0  0  0  0  0  0
  -21.7130   -4.2660   23.8450 C   0  0  0  0  0  3  0  0  0  0  0  0
  -21.9590   -4.9910   22.6660 C   0  0  0  0  0  0  0  0  0  0  0  0
  -22.4610   -4.3560   21.5800 F   0  0  0  0  0  0  0  0  0  0  0  0
  -20.9310   -4.2140   26.1010 F   0  0  0  0  0  0  0  0  0  0  0  0
  -23.0930  -13.6350   21.0980 C   0  0  0  0  0  0  0  0  0  0  0  0
  -22.3640  -12.9730   21.9890 N   0  0  0  0  0  0  0  0  0  0  0  0
  -22.6660  -14.6540   20.5570 O   0  0  0  0  0  0  0  0  0  0  0  0
  -22.7230  -12.1490   22.4480 H   0  0  0  0  0  0  0  0  0  0  0  0
  -21.4340  -13.2960   22.2160 H   0  0  0  0  0  0  0  0  0  0  0  0
  -25.7400  -15.2510   20.2680 N   0  0  0  0  0  0  0  0  0  0  0  0
  -24.9810  -15.9130   20.3820 H   0  0  0  0  0  0  0  0  0  0  0  0
  -26.5760  -15.6720   19.8870 H   0  0  0  0  0  0  0  0  0  0  0  0
  1  2  2  0
  1  5  1  0
  2  6  1  0
  3  7  1  0
  4  3  1  0
  4  8  1  0
  5 55  1  0
  5  4  2  0
  6  3  2  0
  7  9  1  0
  8 10  1  0
  9 11  1  0
 10 11  1  0
 11 13  1  0
 12  7  2  0
 14  6  1  0
 15 26  2  0
 16 14  1  0
 16 21  1  0
 17 25  1  0
 17 27  1  0
 18 24  1  0
 18 20  1  0
 19 25  1  0
 20 21  2  0
 20 19  1  0
 22 16  2  0
 23 22  1  0
 23 18  2  0
 24 17  1  0
 25 15  1  0
 27 29  2  0
 28 27  1  0
 30 28  1  0
 31 40  2  0
 31 36  1  0
 32 28  1  0
 32 36  1  0
 33 32  1  0
 34 35  1  0
 34 33  1  0
 35 31  1  0
 36 37  2  0
 37 38  1  0
 39 38  2  0
 40 39  1  0
 41 15  1  0
 41 42  1  0
 41 51  1  0
 42 45  1  0
 43 47  1  0
 43 42  1  0
 44 43  2  0
 47 46  1  0
 49 47  1  0
 49 50  1  0
 49 48  1  0
 51 54  1  1
 51 52  1  0
 53 51  1  0
 56 55  2  0
 56 65  1  0
 57 63  1  0
 57 65  1  0
 58 63  1  0
 59 60  1  0
 59 58  1  0
 61 60  1  0
 61 70  1  0
 61 62  1  0
 63 62  1  0
 64 57  2  0
 65 66  1  0
 67 68  2  0
 68 87  1  0
 69 68  1  0
 69 72  1  0
 70 67  1  0
 70 71  1  0
 71 69  2  0
 72 73  1  0
 73 74  2  0
 75 78  1  0
 75 74  1  0
 76 75  2  0
 77 76  1  0
 77 72  2  0
 78 79  1  0
 79 84  2  0
 79 80  1  0
 80 81  2  0
 81 82  1  0
 82 86  1  0
 83 82  2  0
 84 83  1  0
 85 84  1  0
 87 88  1  0
 88 91  1  0
 88 90  1  0
 89 87  2  0
 92 93  1  0
 92 67  1  0
 94 92  1  0
M  ISO  4   6 101  14 101  57 100  65 100
M  END
>  <TORSDO>  (68) 
F 18

>  <SCORE>  (68) 
-14.196

>  <name>  (68) 
67

>  <ligand_id>  (68) 
67

>  <original_smiles>  (68) 
[H]c1c([H])c([H])c2c(c1[H])C([H])([H])C([H])([H])C([H])([H])C2([H])N([H])C(=O)C1([H])N(C(=O)C([H])(N([H])C(=O)C([H])(N([H])C([H])([H])[H])C([H])([H])[H])C(C([H])([H])[H])(C([H])([H])[H])C([H])([H])[H])C([H])([H])c2c([H])c(Oc3c([H])c([H])c(C([H])([H])C([H])([H])N([H])C(=O)N4C([H])([H])C([H])([H])C([H])([H])C([H])(n5nc(-c6c([H])c([H])c(Oc7c([H])c([H])c(F)c([H])c7F)c([H])c6[H])c(C(=O)N([H])[H])c5N([H])[H])C4([H])[H])c4c3C(=O)C([H])([H])C([H])(F)C([H])([H])C4([H])[H])c([H])c([H])c2C1([H])[H]

>  <smiles>  (68) 
[H]c1c([H])c([H])c2c(c1[H])C([H])([H])C([H])([H])C([H])([H])C2([H])N([H])C(=O)C1([H])N(C(=O)C([H])(N([H])C(=O)C([H])(N([H])C([H])([H])[H])C([H])([H])[H])C(C([H])([H])[H])(C([H])([H])[H])C([H])([H])[H])C([H])([H])c2c([H])c(Oc3c([H])c([H])c(C([H])([H])C([H])([H])N([H])C(=O)N4C([H])([H])C([H])([H])C([H])([H])C([H])(n5nc(-c6c([H])c([H])c(Oc7c([H])c([H])c(F)c([H])c7F)c([H])c6[H])c(C(=O)N([H])[H])c5N([H])[H])C4([H])[H])c4c3C(=O)C([H])([H])C([H])(F)C([H])([H])C4([H])[H])c([H])c([H])c2C1([H])[H]

$$$$
68:0:0
     RDKit          3D

 91 99  0  0  1  0  0  0  0  0999 V2000
  -27.4390  -21.4650   20.5880 C   0  0  0  0  0  3  0  0  0  0  0  0
  -26.5500  -22.5250   20.8670 C   0  0  0  0  0  3  0  0  0  0  0  0
  -28.7860  -21.6650   20.2480 C   0  0  0  0  0  0  0  0  0  0  0  0
  -29.0560  -23.2020   20.0890 C   0  0  0  0  0  0  0  0  0  0  0  0
  -26.8610  -23.9100   20.7950 C   0  0  0  0  0  0  0  0  0  0  0  0
  -28.0990  -24.4270   20.2970 C   0  0  0  0  0  0  0  0  0  0  0  0
  -30.4780  -23.5680   19.7180 C   0  0  0  0  0  1  0  0  0  0  0  0
  -25.8720  -24.7360   21.3190 N   0  0  0  0  0  0  0  0  0  0  0  0
  -25.1570  -24.3620   21.9310 H   0  0  0  0  0  0  0  0  0  0  0  0
  -26.0620  -25.7250   21.4400 H   0  0  0  0  0  0  0  0  0  0  0  0
  -28.2840  -25.9810   20.1690 O   0  0  0  0  0  0  0  0  0  0  0  0
  -24.6800  -31.9530   23.2230 C   0  0  0  0  0  0  0  0  0  0  0  0
  -27.3030  -27.1320   20.1160 C   0  0  0  0  0  0  0  0  0  0  0  0
  -23.5190  -30.5850   21.5380 C   0  0  0  0  0  3  0  0  0  0  0  0
  -25.0030  -29.0380   20.0780 C   0  0  0  0  0  0  0  0  0  0  0  0
  -26.0870  -30.8090   21.4350 C   0  0  0  0  0  2  0  0  0  0  0  0
  -26.1740  -29.4130   20.7470 C   0  0  0  0  0  0  0  0  0  0  0  0
  -27.3120  -28.4770   20.7570 C   0  0  0  0  0  3  0  0  0  0  0  0
  -26.1360  -26.9750   19.3310 C   0  0  0  0  0  3  0  0  0  0  0  0
  -25.0120  -27.8410   19.3480 C   0  0  0  0  0  3  0  0  0  0  0  0
  -23.7720  -29.9450   20.1450 C   0  0  0  0  0  2  0  0  0  0  0  0
  -24.7830  -31.1440   22.1180 N   0  0  0  0  0  0  0  0  0  0  0  0
  -23.5830  -32.2190   23.7380 O   0  0  0  0  0  0  0  0  0  0  0  0
  -22.8260  -29.5580   22.4710 C   0  0  0  0  0  0  0  0  0  0  0  0
  -21.5000  -29.3740   22.3260 N   0  0  0  0  0  0  0  0  0  0  0  0
  -23.4890  -28.9280   23.2990 O   0  0  0  0  0  0  0  0  0  0  0  0
  -21.0160  -29.9340   21.6380 H   0  0  0  0  0  0  0  0  0  0  0  0
  -18.1240  -28.1320   22.8070 C   0  0  0  0  0  0  0  0  0  0  0  0
  -20.6830  -28.4060   23.0680 C   0  0  0  0  0  3  0  0  0  0  0  0
  -20.7910  -26.9950   22.4440 C   0  0  0  0  0  2  0  0  0  0  0  0
  -19.6860  -26.7010   21.4240 C   0  0  0  0  0  2  0  0  0  0  0  0
  -18.3070  -26.8110   22.0800 C   0  0  0  0  0  2  0  0  0  0  0  0
  -19.2390  -28.8880   23.2570 C   0  0  0  0  0  0  0  0  0  0  0  0
  -19.0110  -30.1230   23.9030 C   0  0  0  0  0  3  0  0  0  0  0  0
  -17.7020  -30.6020   24.1010 C   0  0  0  0  0  3  0  0  0  0  0  0
  -16.6020  -29.8440   23.6640 C   0  0  0  0  0  3  0  0  0  0  0  0
  -16.8140  -28.6100   23.0230 C   0  0  0  0  0  3  0  0  0  0  0  0
  -25.9370  -32.5970   23.8820 C   0  0  0  0  0  3  0  0  0  0  0  0
  -26.4040  -31.8450   25.1890 C   0  0  1  0  0  0  0  0  0  0  0  0
  -25.2690  -31.6210   26.2170 C   0  0  0  0  0  1  0  0  0  0  0  0
  -27.0040  -30.4620   24.8530 C   0  0  0  0  0  1  0  0  0  0  0  0
  -27.5260  -32.6520   25.8850 C   0  0  0  0  0  1  0  0  0  0  0  0
  -25.6170  -34.0030   24.1930 N   0  0  0  0  0  0  0  0  0  0  0  0
  -25.9660  -35.0560   23.4420 C   0  0  0  0  0  0  0  0  0  0  0  0
  -26.6530  -34.9480   22.4230 O   0  0  0  0  0  0  0  0  0  0  0  0
  -25.0070  -34.1590   24.9820 H   0  0  0  0  0  0  0  0  0  0  0  0
  -24.2600  -36.8690   23.0550 C   0  0  0  0  0  1  0  0  0  0  0  0
  -25.4810  -36.4500   23.8910 C   0  0  0  0  0  3  0  0  0  0  0  0
  -27.5910  -37.3350   24.7840 C   0  0  0  0  0  1  0  0  0  0  0  0
  -26.5230  -37.4960   23.8000 N   0  0  0  0  0  0  0  0  0  0  0  0
  -26.1180  -38.4200   23.9200 H   0  0  0  0  0  0  0  0  0  0  0  0
  -29.7380  -20.1710   20.3560 C   0  0  0  0  0  2  0  0  0  0  0  0
  -29.6240  -18.4750   19.6850 C   0  0  0  0  0  2  0  0  0  0  0  0
  -30.6120  -15.6200   19.9730 C   0  0  0  0  0  0  0  0  0  0  0  0
  -30.6100  -13.1450   19.1490 C   0  0  0  0  0  2  0  0  0  0  0  0
  -29.6550  -12.9100   17.9480 C   0  0  0  0  0  2  0  0  0  0  0  0
  -28.2280  -12.6120   18.4390 C   0  0  0  0  0  2  0  0  0  0  0  0
  -27.8010  -13.5750   19.5730 C   0  0  0  0  0  3  0  0  0  0  0  0
  -28.8830  -13.7570   20.6620 C   0  0  0  0  0  2  0  0  0  0  0  0
  -30.0870  -14.2870   19.9970 N   0  0  0  0  0  0  0  0  0  0  0  0
  -31.7870  -15.6450   19.5770 O   0  0  0  0  0  0  0  0  0  0  0  0
  -29.8420  -16.8780   20.2240 N   0  0  0  0  0  0  0  0  0  0  0  0
  -29.0030  -16.6020   20.7140 H   0  0  0  0  0  0  0  0  0  0  0  0
  -25.4680  -14.1060   20.4500 C   0  0  0  0  0  0  0  0  0  0  0  0
  -24.4230  -13.3170   20.8420 C   0  0  0  0  0  0  0  0  0  0  0  0
  -24.8850  -11.9680   20.7450 C   0  0  0  0  0  0  0  0  0  0  0  0
  -26.4970  -13.2390   20.1290 N   0  0  0  0  0  0  0  0  0  0  0  0
  -26.1610  -11.9450   20.3730 N   0  0  0  0  0  0  0  0  0  0  0  0
  -24.1630  -10.7020   20.9270 C   0  0  0  0  0  0  0  0  0  0  0  0
  -24.5930   -9.7320   21.8590 C   0  0  0  0  0  3  0  0  0  0  0  0
  -23.8680   -8.5320   22.0320 C   0  0  0  0  0  3  0  0  0  0  0  0
  -22.6990   -8.2940   21.2710 C   0  0  0  0  0  0  0  0  0  0  0  0
  -22.2870   -9.2530   20.3280 C   0  0  0  0  0  3  0  0  0  0  0  0
  -23.0140  -10.4430   20.1540 C   0  0  0  0  0  3  0  0  0  0  0  0
  -21.9470   -7.1470   21.3510 O   0  0  0  0  0  0  0  0  0  0  0  0
  -21.8490   -6.4310   22.5170 C   0  0  0  0  0  0  0  0  0  0  0  0
  -21.2940   -6.9880   23.6910 C   0  0  0  0  0  3  0  0  0  0  0  0
  -21.1480   -6.1960   24.8460 C   0  0  0  0  0  3  0  0  0  0  0  0
  -21.5460   -4.8460   24.8300 C   0  0  0  0  0  0  0  0  0  0  0  0
  -22.0940   -4.2870   23.6620 C   0  0  0  0  0  3  0  0  0  0  0  0
  -22.2420   -5.0770   22.5080 C   0  0  0  0  0  0  0  0  0  0  0  0
  -22.7500   -4.5280   21.3790 F   0  0  0  0  0  0  0  0  0  0  0  0
  -21.3990   -4.0820   25.9380 F   0  0  0  0  0  0  0  0  0  0  0  0
  -23.0410  -13.7880   21.1910 C   0  0  0  0  0  0  0  0  0  0  0  0
  -22.3530  -13.0720   22.0710 N   0  0  0  0  0  0  0  0  0  0  0  0
  -22.5820  -14.8260   20.7160 O   0  0  0  0  0  0  0  0  0  0  0  0
  -22.7370  -12.2320   22.4780 H   0  0  0  0  0  0  0  0  0  0  0  0
  -21.4270  -13.3700   22.3460 H   0  0  0  0  0  0  0  0  0  0  0  0
  -25.6240  -15.4820   20.3100 N   0  0  0  0  0  0  0  0  0  0  0  0
  -24.8600  -16.1290   20.4700 H   0  0  0  0  0  0  0  0  0  0  0  0
  -26.4470  -15.9300   19.9280 H   0  0  0  0  0  0  0  0  0  0  0  0
  1  2  1  0
  3 52  1  0
  3  1  2  0
  4  3  1  0
  4  6  2  0
  5  2  2  0
  5  8  1  0
  6  5  1  0
  7  4  1  0
  8 10  1  0
  8  9  1  0
 11  6  1  0
 12 23  2  0
 13 11  1  0
 13 18  1  0
 14 22  1  0
 14 24  1  0
 15 21  1  0
 15 17  1  0
 16 22  1  0
 17 18  2  0
 17 16  1  0
 19 20  1  0
 19 13  2  0
 20 15  2  0
 21 14  1  0
 22 12  1  0
 24 26  2  0
 25 24  1  0
 27 25  1  0
 28 37  2  0
 28 33  1  0
 29 25  1  0
 29 33  1  0
 30 29  1  0
 31 32  1  0
 31 30  1  0
 32 28  1  0
 33 34  2  0
 34 35  1  0
 36 35  2  0
 37 36  1  0
 38 12  1  0
 38 43  1  0
 38 39  1  0
 39 42  1  1
 39 40  1  0
 41 39  1  0
 43 46  1  0
 44 48  1  0
 44 43  1  0
 45 44  2  0
 48 47  1  0
 50 48  1  0
 50 51  1  0
 50 49  1  0
 53 62  1  0
 53 52  1  0
 54 60  1  0
 54 62  1  0
 55 60  1  0
 56 57  1  0
 56 55  1  0
 58 57  1  0
 58 67  1  0
 58 59  1  0
 60 59  1  0
 61 54  2  0
 62 63  1  0
 64 65  2  0
 65 84  1  0
 66 65  1  0
 66 69  1  0
 67 68  1  0
 67 64  1  0
 68 66  2  0
 69 70  1  0
 70 71  2  0
 72 75  1  0
 72 71  1  0
 73 72  2  0
 74 73  1  0
 74 69  2  0
 75 76  1  0
 76 77  1  0
 77 78  2  0
 79 78  1  0
 79 83  1  0
 80 79  2  0
 81 76  2  0
 81 80  1  0
 82 81  1  0
 84 85  1  0
 85 88  1  0
 85 87  1  0
 86 84  2  0
 89 64  1  0
 89 90  1  0
 91 89  1  0
M  ISO  4   6 101  11 101  54 100  62 100
M  END
>  <TORSDO>  (69) 
F 19

>  <SCORE>  (69) 
-14.945

>  <name>  (69) 
68

>  <ligand_id>  (69) 
68

>  <original_smiles>  (69) 
[H]c1c([H])c([H])c2c(c1[H])C([H])([H])C([H])([H])C([H])([H])C2([H])N([H])C(=O)C1([H])N(C(=O)C([H])(N([H])C(=O)C([H])(N([H])C([H])([H])[H])C([H])([H])[H])C(C([H])([H])[H])(C([H])([H])[H])C([H])([H])[H])C([H])([H])c2c([H])c(Oc3c(N([H])[H])c([H])c([H])c(C([H])([H])C([H])([H])N([H])C(=O)N4C([H])([H])C([H])([H])C([H])([H])C([H])(n5nc(-c6c([H])c([H])c(Oc7c([H])c([H])c(F)c([H])c7F)c([H])c6[H])c(C(=O)N([H])[H])c5N([H])[H])C4([H])[H])c3C([H])([H])[H])c([H])c([H])c2C1([H])[H]

>  <smiles>  (69) 
[H]c1c([H])c([H])c2c(c1[H])C([H])([H])C([H])([H])C([H])([H])C2([H])N([H])C(=O)C1([H])N(C(=O)C([H])(N([H])C(=O)C([H])(N([H])C([H])([H])[H])C([H])([H])[H])C(C([H])([H])[H])(C([H])([H])[H])C([H])([H])[H])C([H])([H])c2c([H])c(Oc3c(N([H])[H])c([H])c([H])c(C([H])([H])C([H])([H])N([H])C(=O)N4C([H])([H])C([H])([H])C([H])([H])C([H])(n5nc(-c6c([H])c([H])c(Oc7c([H])c([H])c(F)c([H])c7F)c([H])c6[H])c(C(=O)N([H])[H])c5N([H])[H])C4([H])[H])c3C([H])([H])[H])c([H])c([H])c2C1([H])[H]

$$$$
69:0:0
     RDKit          3D

 93102  0  0  1  0  0  0  0  0999 V2000
  -26.6150  -22.9440   21.3130 C   0  0  0  0  0  0  0  0  0  0  0  0
  -27.2670  -24.3500   21.3960 C   0  0  0  0  0  2  0  0  0  0  0  0
  -29.1010  -23.3620   19.9300 C   0  0  0  0  0  2  0  0  0  0  0  0
  -28.7650  -21.8230   20.6320 C   0  0  0  0  0  3  0  0  0  0  0  0
  -28.0590  -24.7330   20.1270 C   0  0  0  0  0  3  0  0  0  0  0  0
  -27.3380  -21.8630   20.9470 N   0  0  0  0  0  0  0  0  0  0  0  0
  -25.4220  -22.8190   21.5940 O   0  0  0  0  0  0  0  0  0  0  0  0
  -26.8600  -20.9730   20.9320 H   0  0  0  0  0  0  0  0  0  0  0  0
  -29.0060  -17.6700   19.7300 C   0  0  0  0  0  3  0  0  0  0  0  0
  -30.8680  -18.1870   20.9960 C   0  0  0  0  0  3  0  0  0  0  0  0
  -30.1500  -17.0770   20.3960 C   0  0  0  0  0  0  0  0  0  0  0  0
  -29.3260  -20.2070   20.3800 C   0  0  0  0  0  0  0  0  0  0  0  0
  -28.6160  -19.1040   19.7240 C   0  0  0  0  0  0  0  0  0  0  0  0
  -30.4990  -19.6180   21.0020 C   0  0  0  0  0  0  0  0  0  0  0  0
  -27.3530  -19.4320   18.9460 C   0  0  0  0  0  1  0  0  0  0  0  0
  -31.4300  -20.5560   21.7500 C   0  0  0  0  0  1  0  0  0  0  0  0
  -30.7630  -15.5390   20.2870 C   0  0  0  0  0  0  0  0  0  0  0  0
  -30.6850  -13.1120   19.4680 C   0  0  0  0  0  2  0  0  0  0  0  0
  -29.7960  -12.9360   18.2140 C   0  0  0  0  0  2  0  0  0  0  0  0
  -28.3390  -12.6750   18.6280 C   0  0  0  0  0  2  0  0  0  0  0  0
  -27.8640  -13.6500   19.7340 C   0  0  0  0  0  3  0  0  0  0  0  0
  -28.8870  -13.8230   20.8750 C   0  0  0  0  0  2  0  0  0  0  0  0
  -30.1490  -14.2660   20.2700 N   0  0  0  0  0  0  0  0  0  0  0  0
  -31.9830  -15.4800   20.0810 O   0  0  0  0  0  0  0  0  0  0  0  0
  -25.4880  -14.1860   20.4900 C   0  0  0  0  0  0  0  0  0  0  0  0
  -24.4260  -13.3970   20.8350 C   0  0  0  0  0  0  0  0  0  0  0  0
  -24.8980  -12.0490   20.7740 C   0  0  0  0  0  0  0  0  0  0  0  0
  -26.5340  -13.3200   20.2310 N   0  0  0  0  0  0  0  0  0  0  0  0
  -26.1920  -12.0280   20.4720 N   0  0  0  0  0  0  0  0  0  0  0  0
  -24.1730  -10.7810   20.9260 C   0  0  0  0  0  0  0  0  0  0  0  0
  -24.5590   -9.8170   21.8830 C   0  0  0  0  0  3  0  0  0  0  0  0
  -23.8310   -8.6160   22.0240 C   0  0  0  0  0  3  0  0  0  0  0  0
  -22.7040   -8.3680   21.2060 C   0  0  0  0  0  0  0  0  0  0  0  0
  -22.3360   -9.3210   20.2400 C   0  0  0  0  0  3  0  0  0  0  0  0
  -23.0650  -10.5140   20.0970 C   0  0  0  0  0  3  0  0  0  0  0  0
  -21.9520   -7.2190   21.2560 O   0  0  0  0  0  0  0  0  0  0  0  0
  -21.7840   -6.5170   22.4230 C   0  0  0  0  0  0  0  0  0  0  0  0
  -21.1930   -7.1020   23.5640 C   0  0  0  0  0  3  0  0  0  0  0  0
  -20.9760   -6.3250   24.7190 C   0  0  0  0  0  3  0  0  0  0  0  0
  -21.3390   -4.9650   24.7340 C   0  0  0  0  0  0  0  0  0  0  0  0
  -21.9240   -4.3800   23.5960 C   0  0  0  0  0  3  0  0  0  0  0  0
  -22.1430   -5.1540   22.4430 C   0  0  0  0  0  0  0  0  0  0  0  0
  -22.6860   -4.5800   21.3420 F   0  0  0  0  0  0  0  0  0  0  0  0
  -21.1240   -4.2170   25.8400 F   0  0  0  0  0  0  0  0  0  0  0  0
  -23.0260  -13.8640   21.1060 C   0  0  0  0  0  0  0  0  0  0  0  0
  -22.2990  -13.1560   21.9620 N   0  0  0  0  0  0  0  0  0  0  0  0
  -22.5860  -14.8920   20.5920 O   0  0  0  0  0  0  0  0  0  0  0  0
  -22.6700  -12.3250   22.3990 H   0  0  0  0  0  0  0  0  0  0  0  0
  -21.3590  -13.4500   22.1880 H   0  0  0  0  0  0  0  0  0  0  0  0
  -25.6460  -15.5610   20.3430 N   0  0  0  0  0  0  0  0  0  0  0  0
  -24.8690  -16.2040   20.4510 H   0  0  0  0  0  0  0  0  0  0  0  0
  -26.4920  -16.0120   20.0240 H   0  0  0  0  0  0  0  0  0  0  0  0
  -28.3160  -26.3320   20.1010 O   0  0  0  0  0  0  0  0  0  0  0  0
  -24.6930  -32.0090   23.3690 C   0  0  0  0  0  0  0  0  0  0  0  0
  -27.2750  -27.3730   20.1040 C   0  0  0  0  0  0  0  0  0  0  0  0
  -23.4940  -30.6740   21.6820 C   0  0  0  0  0  3  0  0  0  0  0  0
  -24.9440  -29.1710   20.1720 C   0  0  0  0  0  0  0  0  0  0  0  0
  -26.0510  -30.9480   21.5100 C   0  0  0  0  0  2  0  0  0  0  0  0
  -26.1310  -29.5790   20.7910 C   0  0  0  0  0  0  0  0  0  0  0  0
  -27.2950  -28.7000   20.7350 C   0  0  0  0  0  3  0  0  0  0  0  0
  -26.0560  -27.1020   19.4420 C   0  0  0  0  0  3  0  0  0  0  0  0
  -24.9270  -27.9510   19.4780 C   0  0  0  0  0  3  0  0  0  0  0  0
  -23.7120  -30.0610   20.2730 C   0  0  0  0  0  2  0  0  0  0  0  0
  -24.7680  -31.2330   22.2420 N   0  0  0  0  0  0  0  0  0  0  0  0
  -23.6090  -32.2600   23.9170 O   0  0  0  0  0  0  0  0  0  0  0  0
  -22.8310  -29.6230   22.6080 C   0  0  0  0  0  0  0  0  0  0  0  0
  -21.5090  -29.4170   22.4640 N   0  0  0  0  0  0  0  0  0  0  0  0
  -23.5120  -28.9930   23.4210 O   0  0  0  0  0  0  0  0  0  0  0  0
  -21.0120  -29.9800   21.7860 H   0  0  0  0  0  0  0  0  0  0  0  0
  -18.1670  -28.0800   22.8880 C   0  0  0  0  0  0  0  0  0  0  0  0
  -20.7110  -28.4290   23.1960 C   0  0  0  0  0  3  0  0  0  0  0  0
  -20.8740  -27.0190   22.5830 C   0  0  0  0  0  2  0  0  0  0  0  0
  -19.7970  -26.6870   21.5440 C   0  0  0  0  0  2  0  0  0  0  0  0
  -18.4020  -26.7610   22.1700 C   0  0  0  0  0  2  0  0  0  0  0  0
  -19.2510  -28.8700   23.3550 C   0  0  0  0  0  0  0  0  0  0  0  0
  -18.9760  -30.1020   23.9870 C   0  0  0  0  0  3  0  0  0  0  0  0
  -17.6510  -30.5460   24.1530 C   0  0  0  0  0  3  0  0  0  0  0  0
  -16.5830  -29.7540   23.7010 C   0  0  0  0  0  3  0  0  0  0  0  0
  -16.8410  -28.5220   23.0750 C   0  0  0  0  0  3  0  0  0  0  0  0
  -25.9670  -32.6360   24.0130 C   0  0  0  0  0  3  0  0  0  0  0  0
  -25.6540  -34.0310   24.3670 N   0  0  0  0  0  0  0  0  0  0  0  0
  -25.9520  -35.0990   23.6130 C   0  0  0  0  0  0  0  0  0  0  0  0
  -26.5850  -35.0110   22.5580 O   0  0  0  0  0  0  0  0  0  0  0  0
  -25.0860  -34.1730   25.1890 H   0  0  0  0  0  0  0  0  0  0  0  0
  -24.1810  -36.8730   23.3770 C   0  0  0  0  0  1  0  0  0  0  0  0
  -25.4760  -36.4800   24.1070 C   0  0  0  0  0  3  0  0  0  0  0  0
  -27.6400  -37.4010   24.8150 C   0  0  0  0  0  1  0  0  0  0  0  0
  -26.4860  -37.5480   23.9330 N   0  0  0  0  0  0  0  0  0  0  0  0
  -26.0740  -38.4630   24.1000 H   0  0  0  0  0  0  0  0  0  0  0  0
  -26.4650  -31.8500   25.2880 C   0  0  1  0  0  0  0  0  0  0  0  0
  -25.3560  -31.5960   26.3350 C   0  0  0  0  0  1  0  0  0  0  0  0
  -27.0620  -30.4800   24.8940 C   0  0  0  0  0  1  0  0  0  0  0  0
  -27.6040  -32.6400   25.9780 C   0  0  0  0  0  1  0  0  0  0  0  0
  1  2  1  0
  1  7  2  0
  3  5  1  0
  3  4  1  0
  4 12  1  0
  4  6  1  0
  5 53  1  0
  5  2  1  0
  6  1  1  0
  8  6  1  0
  9 11  1  0
 10 14  1  0
 11 10  2  0
 12 14  2  0
 13  9  2  0
 13 12  1  0
 14 16  1  0
 15 13  1  0
 17 11  1  0
 18 23  1  0
 19 20  1  0
 19 18  1  0
 21 20  1  0
 21 28  1  0
 21 22  1  0
 23 17  1  0
 23 22  1  0
 24 17  2  0
 25 26  2  0
 26 45  1  0
 27 26  1  0
 27 30  1  0
 28 29  1  0
 28 25  1  0
 29 27  2  0
 30 31  1  0
 31 32  2  0
 33 36  1  0
 33 32  1  0
 34 33  2  0
 35 34  1  0
 35 30  2  0
 36 37  1  0
 37 42  2  0
 37 38  1  0
 38 39  2  0
 39 40  1  0
 40 44  1  0
 41 40  2  0
 42 41  1  0
 43 42  1  0
 45 46  1  0
 46 49  1  0
 46 48  1  0
 47 45  2  0
 50 51  1  0
 50 25  1  0
 52 50  1  0
 53 55  1  0
 54 65  2  0
 55 60  1  0
 56 64  1  0
 56 66  1  0
 57 63  1  0
 57 59  1  0
 58 64  1  0
 59 58  1  0
 60 59  2  0
 61 62  1  0
 61 55  2  0
 62 57  2  0
 63 56  1  0
 64 54  1  0
 66 68  2  0
 67 66  1  0
 69 67  1  0
 70 79  2  0
 70 75  1  0
 71 67  1  0
 71 75  1  0
 72 71  1  0
 73 74  1  0
 73 72  1  0
 74 70  1  0
 75 76  2  0
 76 77  1  0
 78 77  2  0
 79 78  1  0
 80 54  1  0
 80 81  1  0
 80 90  1  0
 81 84  1  0
 82 86  1  0
 82 81  1  0
 83 82  2  0
 86 85  1  0
 88 89  1  0
 88 86  1  0
 88 87  1  0
 90 93  1  1
 90 91  1  0
 92 90  1  0
M  ISO  4   5 101  11 100  17 100  53 101
M  END
>  <TORSDO>  (70) 
F 17

>  <SCORE>  (70) 
-15.522

>  <name>  (70) 
69

>  <ligand_id>  (70) 
69

>  <original_smiles>  (70) 
[H]c1c([H])c([H])c2c(c1[H])C([H])([H])C([H])([H])C([H])([H])C2([H])N([H])C(=O)C1([H])N(C(=O)C([H])(N([H])C(=O)C([H])(N([H])C([H])([H])[H])C([H])([H])[H])C(C([H])([H])[H])(C([H])([H])[H])C([H])([H])[H])C([H])([H])c2c([H])c(OC3([H])C([H])([H])C(=O)N([H])C([H])(c4c(C([H])([H])[H])c([H])c(C(=O)N5C([H])([H])C([H])([H])C([H])([H])C([H])(n6nc(-c7c([H])c([H])c(Oc8c([H])c([H])c(F)c([H])c8F)c([H])c7[H])c(C(=O)N([H])[H])c6N([H])[H])C5([H])[H])c([H])c4C([H])([H])[H])C3([H])[H])c([H])c([H])c2C1([H])[H]

>  <smiles>  (70) 
[H]c1c([H])c([H])c2c(c1[H])C([H])([H])C([H])([H])C([H])([H])C2([H])N([H])C(=O)C1([H])N(C(=O)C([H])(N([H])C(=O)C([H])(N([H])C([H])([H])[H])C([H])([H])[H])C(C([H])([H])[H])(C([H])([H])[H])C([H])([H])[H])C([H])([H])c2c([H])c(OC3([H])C([H])([H])C(=O)N([H])C([H])(c4c(C([H])([H])[H])c([H])c(C(=O)N5C([H])([H])C([H])([H])C([H])([H])C([H])(n6nc(-c7c([H])c([H])c(Oc8c([H])c([H])c(F)c([H])c8F)c([H])c7[H])c(C(=O)N([H])[H])c6N([H])[H])C5([H])[H])c([H])c4C([H])([H])[H])C3([H])[H])c([H])c([H])c2C1([H])[H]

$$$$
70:0:0
     RDKit          3D

 89 98  0  0  1  0  0  0  0  0999 V2000
  -27.9090  -19.1280   20.4020 C   0  0  0  0  0  3  0  0  0  0  0  0
  -28.7070  -17.9130   20.3040 C   0  0  0  0  0  3  0  0  0  0  0  0
  -28.3000  -20.4990   20.1540 C   0  0  0  0  0  0  0  0  0  0  0  0
  -30.0790  -17.8050   19.9050 C   0  0  0  0  0  0  0  0  0  0  0  0
  -29.6170  -20.7360   19.7250 C   0  0  0  0  0  0  0  0  0  0  0  0
  -30.4580  -19.3510   19.6300 C   0  0  0  0  0  0  0  0  0  0  0  0
  -27.2930  -21.6850   20.2630 C   0  0  0  0  0  0  0  0  0  0  0  0
  -29.8420  -22.5220   19.4630 C   0  0  0  0  0  2  0  0  0  0  0  0
  -27.6810  -23.2290   20.4980 C   0  0  0  0  0  2  0  0  0  0  0  0
  -28.6540  -23.9890   19.5070 C   0  0  0  0  0  3  0  0  0  0  0  0
  -31.8920  -19.5540   19.1860 C   0  0  0  0  0  1  0  0  0  0  0  0
  -26.0820  -21.4440   20.2280 O   0  0  0  0  0  0  0  0  0  0  0  0
  -30.8890  -16.1810   19.8790 C   0  0  0  0  0  0  0  0  0  0  0  0
  -31.1030  -13.5530   19.2880 C   0  0  0  0  0  2  0  0  0  0  0  0
  -30.2310  -12.9970   18.1200 C   0  0  0  0  0  2  0  0  0  0  0  0
  -28.8220  -12.6230   18.6030 C   0  0  0  0  0  2  0  0  0  0  0  0
  -28.2750  -13.6850   19.5800 C   0  0  0  0  0  3  0  0  0  0  0  0
  -29.2920  -14.1360   20.6540 C   0  0  0  0  0  2  0  0  0  0  0  0
  -30.4380  -14.7730   19.9570 N   0  0  0  0  0  0  0  0  0  0  0  0
  -32.1160  -16.1140   19.6520 O   0  0  0  0  0  0  0  0  0  0  0  0
  -25.9670  -14.2100   20.4890 C   0  0  0  0  0  0  0  0  0  0  0  0
  -24.9080  -13.4330   20.8570 C   0  0  0  0  0  0  0  0  0  0  0  0
  -25.3410  -12.0770   20.7170 C   0  0  0  0  0  0  0  0  0  0  0  0
  -26.9760  -13.3350   20.1380 N   0  0  0  0  0  0  0  0  0  0  0  0
  -26.6180  -12.0390   20.3420 N   0  0  0  0  0  0  0  0  0  0  0  0
  -24.5890  -10.8230   20.8580 C   0  0  0  0  0  0  0  0  0  0  0  0
  -24.9750   -9.8260   21.7800 C   0  0  0  0  0  3  0  0  0  0  0  0
  -24.2190   -8.6420   21.9150 C   0  0  0  0  0  3  0  0  0  0  0  0
  -23.0610   -8.4450   21.1260 C   0  0  0  0  0  0  0  0  0  0  0  0
  -22.6920   -9.4300   20.1940 C   0  0  0  0  0  3  0  0  0  0  0  0
  -23.4490  -10.6060   20.0590 C   0  0  0  0  0  3  0  0  0  0  0  0
  -22.2810   -7.3140   21.1700 O   0  0  0  0  0  0  0  0  0  0  0  0
  -22.1080   -6.6030   22.3300 C   0  0  0  0  0  0  0  0  0  0  0  0
  -21.5400   -7.1840   23.4840 C   0  0  0  0  0  3  0  0  0  0  0  0
  -21.3160   -6.3980   24.6320 C   0  0  0  0  0  3  0  0  0  0  0  0
  -21.6510   -5.0310   24.6260 C   0  0  0  0  0  0  0  0  0  0  0  0
  -22.2110   -4.4480   23.4760 C   0  0  0  0  0  3  0  0  0  0  0  0
  -22.4360   -5.2310   22.3310 C   0  0  0  0  0  0  0  0  0  0  0  0
  -22.9550   -4.6600   21.2180 F   0  0  0  0  0  0  0  0  0  0  0  0
  -21.4290   -4.2740   25.7260 F   0  0  0  0  0  0  0  0  0  0  0  0
  -23.5350  -13.9240   21.2130 C   0  0  0  0  0  0  0  0  0  0  0  0
  -22.8240  -13.1970   22.0660 N   0  0  0  0  0  0  0  0  0  0  0  0
  -23.1060  -14.9890   20.7700 O   0  0  0  0  0  0  0  0  0  0  0  0
  -23.1870  -12.3340   22.4470 H   0  0  0  0  0  0  0  0  0  0  0  0
  -21.9050  -13.5080   22.3450 H   0  0  0  0  0  0  0  0  0  0  0  0
  -26.1490  -15.5860   20.3850 N   0  0  0  0  0  0  0  0  0  0  0  0
  -25.3940  -16.2400   20.5580 H   0  0  0  0  0  0  0  0  0  0  0  0
  -26.9660  -16.0250   19.9800 H   0  0  0  0  0  0  0  0  0  0  0  0
  -28.7010  -25.7940   19.6260 O   0  0  0  0  0  0  0  0  0  0  0  0
  -24.9930  -31.7430   23.1350 C   0  0  0  0  0  0  0  0  0  0  0  0
  -27.6940  -27.0050   19.6810 C   0  0  0  0  0  0  0  0  0  0  0  0
  -23.8680  -30.4930   21.3430 C   0  0  0  0  0  3  0  0  0  0  0  0
  -25.3780  -29.0210   19.7950 C   0  0  0  0  0  0  0  0  0  0  0  0
  -26.4470  -30.6900   21.2860 C   0  0  0  0  0  2  0  0  0  0  0  0
  -26.5570  -29.3280   20.4850 C   0  0  0  0  0  0  0  0  0  0  0  0
  -27.6950  -28.3530   20.3940 C   0  0  0  0  0  3  0  0  0  0  0  0
  -26.4740  -26.9310   18.9560 C   0  0  0  0  0  3  0  0  0  0  0  0
  -25.3800  -27.8530   19.0100 C   0  0  0  0  0  3  0  0  0  0  0  0
  -24.1490  -29.9410   19.9140 C   0  0  0  0  0  2  0  0  0  0  0  0
  -25.1260  -31.0050   21.9770 N   0  0  0  0  0  0  0  0  0  0  0  0
  -23.8840  -31.9650   23.6510 O   0  0  0  0  0  0  0  0  0  0  0  0
  -23.1570  -29.4080   22.1990 C   0  0  0  0  0  0  0  0  0  0  0  0
  -21.8260  -29.2590   22.0590 N   0  0  0  0  0  0  0  0  0  0  0  0
  -23.8180  -28.7000   22.9630 O   0  0  0  0  0  0  0  0  0  0  0  0
  -21.3410  -29.8820   21.4270 H   0  0  0  0  0  0  0  0  0  0  0  0
  -18.4350  -28.0310   22.5270 C   0  0  0  0  0  0  0  0  0  0  0  0
  -21.0090  -28.2320   22.7190 C   0  0  0  0  0  3  0  0  0  0  0  0
  -21.0620  -26.8970   21.9410 C   0  0  0  0  0  2  0  0  0  0  0  0
  -19.9180  -26.7380   20.9360 C   0  0  0  0  0  2  0  0  0  0  0  0
  -18.5640  -26.7990   21.6490 C   0  0  0  0  0  2  0  0  0  0  0  0
  -19.5820  -28.7140   23.0160 C   0  0  0  0  0  0  0  0  0  0  0  0
  -19.4020  -29.8700   23.8060 C   0  0  0  0  0  3  0  0  0  0  0  0
  -18.1120  -30.3470   24.1050 C   0  0  0  0  0  3  0  0  0  0  0  0
  -16.9810  -29.6620   23.6270 C   0  0  0  0  0  3  0  0  0  0  0  0
  -17.1440  -28.5040   22.8440 C   0  0  0  0  0  3  0  0  0  0  0  0
  -26.2260  -32.3590   23.8640 C   0  0  0  0  0  3  0  0  0  0  0  0
  -25.8670  -33.7180   24.3170 N   0  0  0  0  0  0  0  0  0  0  0  0
  -26.1650  -34.8540   23.6700 C   0  0  0  0  0  0  0  0  0  0  0  0
  -26.8270  -34.8690   22.6300 O   0  0  0  0  0  0  0  0  0  0  0  0
  -25.2740  -33.7770   25.1320 H   0  0  0  0  0  0  0  0  0  0  0  0
  -24.3730  -36.6220   23.5380 C   0  0  0  0  0  1  0  0  0  0  0  0
  -25.6530  -36.1820   24.2690 C   0  0  0  0  0  3  0  0  0  0  0  0
  -27.7780  -37.0740   25.1200 C   0  0  0  0  0  1  0  0  0  0  0  0
  -26.6480  -37.2770   24.2180 N   0  0  0  0  0  0  0  0  0  0  0  0
  -26.2160  -38.1680   24.4460 H   0  0  0  0  0  0  0  0  0  0  0  0
  -26.7050  -31.4970   25.0990 C   0  0  1  0  0  0  0  0  0  0  0  0
  -25.5770  -31.1690   26.1070 C   0  0  0  0  0  1  0  0  0  0  0  0
  -27.3180  -30.1570   24.6390 C   0  0  0  0  0  1  0  0  0  0  0  0
  -27.8230  -32.2490   25.8600 C   0  0  0  0  0  1  0  0  0  0  0  0
  2  1  1  0
  3  7  1  0
  3  1  2  0
  4  2  2  0
  5  3  1  0
  6  5  2  0
  6  4  1  0
  7  9  1  0
  8 10  1  0
  8  5  1  0
 10 49  1  0
 10  9  1  0
 11  6  1  0
 12  7  2  0
 13  4  1  0
 13 19  1  0
 14 19  1  0
 15 16  1  0
 15 14  1  0
 17 16  1  0
 17 24  1  0
 17 18  1  0
 19 18  1  0
 20 13  2  0
 21 22  2  0
 22 41  1  0
 23 22  1  0
 23 26  1  0
 24 25  1  0
 24 21  1  0
 25 23  2  0
 26 27  1  0
 27 28  2  0
 29 32  1  0
 29 28  1  0
 30 29  2  0
 31 30  1  0
 31 26  2  0
 32 33  1  0
 33 38  2  0
 33 34  1  0
 34 35  2  0
 36 35  1  0
 36 40  1  0
 37 36  2  0
 38 37  1  0
 39 38  1  0
 41 42  1  0
 42 45  1  0
 42 44  1  0
 43 41  2  0
 46 21  1  0
 46 47  1  0
 48 46  1  0
 49 51  1  0
 50 61  2  0
 51 56  1  0
 52 60  1  0
 52 62  1  0
 53 59  1  0
 53 55  1  0
 54 60  1  0
 55 54  1  0
 56 55  2  0
 57 58  1  0
 57 51  2  0
 58 53  2  0
 59 52  1  0
 60 50  1  0
 62 64  2  0
 63 62  1  0
 65 63  1  0
 66 75  2  0
 66 71  1  0
 67 63  1  0
 67 71  1  0
 68 67  1  0
 69 70  1  0
 69 68  1  0
 70 66  1  0
 71 72  2  0
 72 73  1  0
 74 73  2  0
 75 74  1  0
 76 50  1  0
 76 77  1  0
 76 86  1  0
 77 80  1  0
 78 82  1  0
 78 77  1  0
 79 78  2  0
 82 81  1  0
 84 82  1  0
 84 85  1  0
 84 83  1  0
 86 89  1  1
 86 87  1  0
 88 86  1  0
M  ISO  4   4 100  10 101  13 100  49 101
M  END
>  <TORSDO>  (71) 
F 16

>  <SCORE>  (71) 
-13.346

>  <name>  (71) 
70

>  <ligand_id>  (71) 
70

>  <original_smiles>  (71) 
[H]c1c([H])c([H])c2c(c1[H])C([H])([H])C([H])([H])C([H])([H])C2([H])N([H])C(=O)C1([H])N(C(=O)C([H])(N([H])C(=O)C([H])(N([H])C([H])([H])[H])C([H])([H])[H])C(C([H])([H])[H])(C([H])([H])[H])C([H])([H])[H])C([H])([H])c2c([H])c(OC3([H])C([H])([H])C(=O)c4c([H])c([H])c(C(=O)N5C([H])([H])C([H])([H])C([H])([H])C([H])(n6nc(-c7c([H])c([H])c(Oc8c([H])c([H])c(F)c([H])c8F)c([H])c7[H])c(C(=O)N([H])[H])c6N([H])[H])C5([H])[H])c(C([H])([H])[H])c4C3([H])[H])c([H])c([H])c2C1([H])[H]

>  <smiles>  (71) 
[H]c1c([H])c([H])c2c(c1[H])C([H])([H])C([H])([H])C([H])([H])C2([H])N([H])C(=O)C1([H])N(C(=O)C([H])(N([H])C(=O)C([H])(N([H])C([H])([H])[H])C([H])([H])[H])C(C([H])([H])[H])(C([H])([H])[H])C([H])([H])[H])C([H])([H])c2c([H])c(OC3([H])C([H])([H])C(=O)c4c([H])c([H])c(C(=O)N5C([H])([H])C([H])([H])C([H])([H])C([H])(n6nc(-c7c([H])c([H])c(Oc8c([H])c([H])c(F)c([H])c8F)c([H])c7[H])c(C(=O)N([H])[H])c6N([H])[H])C5([H])[H])c(C([H])([H])[H])c4C3([H])[H])c([H])c([H])c2C1([H])[H]

$$$$
71:0:0
     RDKit          3D

 91 99  0  0  1  0  0  0  0  0999 V2000
  -27.8170  -23.1560   21.7310 C   0  0  0  0  0  3  0  0  0  0  0  0
  -28.1050  -21.7660   21.7300 C   0  0  0  0  0  3  0  0  0  0  0  0
  -29.3460  -23.4770   19.9120 C   0  0  0  0  0  3  0  0  0  0  0  0
  -28.4670  -24.0640   20.8620 C   0  0  0  0  0  0  0  0  0  0  0  0
  -29.0670  -21.1880   20.8620 C   0  0  0  0  0  0  0  0  0  0  0  0
  -29.6580  -22.0780   19.9250 C   0  0  0  0  0  0  0  0  0  0  0  0
  -30.5780  -21.5910   19.0520 O   0  0  0  0  0  0  0  0  0  0  0  0
  -30.8490  -22.2170   18.3870 H   0  0  0  0  0  0  0  0  0  0  0  0
  -29.5720  -19.7250   21.1650 C   0  0  0  0  0  2  0  0  0  0  0  0
  -29.5840  -18.5150   20.1380 C   0  0  0  0  0  2  0  0  0  0  0  0
  -30.5250  -17.3010   20.5760 C   0  0  0  0  0  2  0  0  0  0  0  0
  -30.8560  -14.8020   20.0130 C   0  0  0  0  0  0  0  0  0  0  0  0
  -30.5890  -12.5730   18.9590 C   0  0  0  0  0  2  0  0  0  0  0  0
  -29.5960  -12.6960   17.7810 C   0  0  0  0  0  2  0  0  0  0  0  0
  -28.1440  -12.5420   18.2730 C   0  0  0  0  0  2  0  0  0  0  0  0
  -27.8410  -13.4040   19.5280 C   0  0  0  0  0  3  0  0  0  0  0  0
  -28.9480  -13.2550   20.5930 C   0  0  0  0  0  2  0  0  0  0  0  0
  -30.2190  -13.6000   19.9460 N   0  0  0  0  0  0  0  0  0  0  0  0
  -32.0140  -14.9410   19.6050 O   0  0  0  0  0  0  0  0  0  0  0  0
  -30.0980  -15.8810   20.3630 N   0  0  0  0  0  0  0  0  0  0  0  0
  -29.1400  -15.6830   20.5920 H   0  0  0  0  0  0  0  0  0  0  0  0
  -25.4890  -14.0040   20.3700 C   0  0  0  0  0  0  0  0  0  0  0  0
  -24.4370  -13.2270   20.7760 C   0  0  0  0  0  0  0  0  0  0  0  0
  -24.8920  -11.8720   20.6980 C   0  0  0  0  0  0  0  0  0  0  0  0
  -26.5140  -13.1210   20.0690 N   0  0  0  0  0  0  0  0  0  0  0  0
  -26.1620  -11.8340   20.3260 N   0  0  0  0  0  0  0  0  0  0  0  0
  -24.1660  -10.6110   20.8970 C   0  0  0  0  0  0  0  0  0  0  0  0
  -24.5930   -9.6580   21.8440 C   0  0  0  0  0  3  0  0  0  0  0  0
  -23.8710   -8.4590   22.0320 C   0  0  0  0  0  3  0  0  0  0  0  0
  -22.7040   -8.2070   21.2680 C   0  0  0  0  0  0  0  0  0  0  0  0
  -22.2950   -9.1520   20.3090 C   0  0  0  0  0  3  0  0  0  0  0  0
  -23.0210  -10.3420   20.1230 C   0  0  0  0  0  3  0  0  0  0  0  0
  -21.9530   -7.0610   21.3630 O   0  0  0  0  0  0  0  0  0  0  0  0
  -21.8460   -6.3680   22.5430 C   0  0  0  0  0  0  0  0  0  0  0  0
  -21.3160   -6.9600   23.7100 C   0  0  0  0  0  3  0  0  0  0  0  0
  -21.1590   -6.1920   24.8810 C   0  0  0  0  0  3  0  0  0  0  0  0
  -21.5190   -4.8290   24.8850 C   0  0  0  0  0  0  0  0  0  0  0  0
  -22.0440   -4.2380   23.7200 C   0  0  0  0  0  3  0  0  0  0  0  0
  -22.2020   -5.0050   22.5520 C   0  0  0  0  0  0  0  0  0  0  0  0
  -22.6870   -4.4220   21.4270 F   0  0  0  0  0  0  0  0  0  0  0  0
  -21.3630   -4.0870   26.0060 F   0  0  0  0  0  0  0  0  0  0  0  0
  -23.0580  -13.7030   21.1190 C   0  0  0  0  0  0  0  0  0  0  0  0
  -22.3670  -12.9980   22.0070 N   0  0  0  0  0  0  0  0  0  0  0  0
  -22.5970  -14.7390   20.6360 O   0  0  0  0  0  0  0  0  0  0  0  0
  -22.7510  -12.1590   22.4190 H   0  0  0  0  0  0  0  0  0  0  0  0
  -21.4430  -13.3010   22.2850 H   0  0  0  0  0  0  0  0  0  0  0  0
  -25.6530  -15.3760   20.2120 N   0  0  0  0  0  0  0  0  0  0  0  0
  -24.8930  -16.0270   20.3670 H   0  0  0  0  0  0  0  0  0  0  0  0
  -26.4800  -15.8120   19.8280 H   0  0  0  0  0  0  0  0  0  0  0  0
  -28.3400  -25.6090   21.1520 C   0  0  0  0  0  2  0  0  0  0  0  0
  -28.3460  -26.6260   20.0980 O   0  0  0  0  0  0  0  0  0  0  0  0
  -24.5970  -31.9600   23.1980 C   0  0  0  0  0  0  0  0  0  0  0  0
  -27.2460  -27.4850   20.0940 C   0  0  0  0  0  0  0  0  0  0  0  0
  -23.4070  -30.5640   21.5500 C   0  0  0  0  0  3  0  0  0  0  0  0
  -24.8720  -29.0450   20.1050 C   0  0  0  0  0  0  0  0  0  0  0  0
  -25.9400  -30.9210   21.3610 C   0  0  0  0  0  2  0  0  0  0  0  0
  -26.0370  -29.5530   20.7050 C   0  0  0  0  0  0  0  0  0  0  0  0
  -27.2370  -28.7810   20.6950 C   0  0  0  0  0  3  0  0  0  0  0  0
  -26.0740  -27.0250   19.4670 C   0  0  0  0  0  3  0  0  0  0  0  0
  -24.8940  -27.7870   19.4770 C   0  0  0  0  0  3  0  0  0  0  0  0
  -23.6280  -29.9050   20.1610 C   0  0  0  0  0  2  0  0  0  0  0  0
  -24.6670  -31.1620   22.0950 N   0  0  0  0  0  0  0  0  0  0  0  0
  -23.5160  -32.2290   23.7370 O   0  0  0  0  0  0  0  0  0  0  0  0
  -22.7650  -29.5280   22.4970 C   0  0  0  0  0  0  0  0  0  0  0  0
  -21.4400  -29.3370   22.3670 N   0  0  0  0  0  0  0  0  0  0  0  0
  -23.4520  -28.9020   23.3120 O   0  0  0  0  0  0  0  0  0  0  0  0
  -20.9470  -29.8920   21.6810 H   0  0  0  0  0  0  0  0  0  0  0  0
  -18.0750  -28.0970   22.8520 C   0  0  0  0  0  0  0  0  0  0  0  0
  -20.6290  -28.3820   23.1250 C   0  0  0  0  0  3  0  0  0  0  0  0
  -20.7470  -26.9580   22.5340 C   0  0  0  0  0  2  0  0  0  0  0  0
  -19.6490  -26.6340   21.5170 C   0  0  0  0  0  2  0  0  0  0  0  0
  -18.2640  -26.7580   22.1610 C   0  0  0  0  0  2  0  0  0  0  0  0
  -19.1830  -28.8680   23.2890 C   0  0  0  0  0  0  0  0  0  0  0  0
  -18.9520  -30.1220   23.8950 C   0  0  0  0  0  3  0  0  0  0  0  0
  -17.6420  -30.6090   24.0630 C   0  0  0  0  0  3  0  0  0  0  0  0
  -16.5460  -29.8370   23.6400 C   0  0  0  0  0  3  0  0  0  0  0  0
  -16.7630  -28.5810   23.0440 C   0  0  0  0  0  3  0  0  0  0  0  0
  -25.8790  -32.5990   23.8250 C   0  0  0  0  0  3  0  0  0  0  0  0
  -25.5610  -33.9970   24.1530 N   0  0  0  0  0  0  0  0  0  0  0  0
  -25.9100  -35.0550   23.4090 C   0  0  0  0  0  0  0  0  0  0  0  0
  -26.6040  -34.9570   22.3940 O   0  0  0  0  0  0  0  0  0  0  0  0
  -24.9450  -34.1480   24.9400 H   0  0  0  0  0  0  0  0  0  0  0  0
  -24.2080  -36.8600   23.0050 C   0  0  0  0  0  1  0  0  0  0  0  0
  -25.4150  -36.4400   23.8580 C   0  0  0  0  0  3  0  0  0  0  0  0
  -27.5200  -37.3010   24.7880 C   0  0  0  0  0  1  0  0  0  0  0  0
  -26.4570  -37.4870   23.8000 N   0  0  0  0  0  0  0  0  0  0  0  0
  -26.0460  -38.4030   23.9540 H   0  0  0  0  0  0  0  0  0  0  0  0
  -26.3960  -31.8330   25.1060 C   0  0  1  0  0  0  0  0  0  0  0  0
  -25.2950  -31.5810   26.1660 C   0  0  0  0  0  1  0  0  0  0  0  0
  -26.9920  -30.4580   24.7110 C   0  0  0  0  0  1  0  0  0  0  0  0
  -27.5410  -32.6340   25.7710 C   0  0  0  0  0  1  0  0  0  0  0  0
  2  1  1  0
  3  6  2  0
  3  4  1  0
  4 50  1  0
  4  1  2  0
  5  9  1  0
  5  2  2  0
  6  5  1  0
  7  6  1  0
  8  7  1  0
 10 11  1  0
 10  9  1  0
 12 20  1  0
 13 18  1  0
 14 15  1  0
 14 13  1  0
 16 15  1  0
 16 25  1  0
 16 17  1  0
 18 12  1  0
 18 17  1  0
 19 12  2  0
 20 11  1  0
 20 21  1  0
 22 23  2  0
 23 42  1  0
 24 23  1  0
 24 27  1  0
 25 26  1  0
 25 22  1  0
 26 24  2  0
 27 28  1  0
 28 29  2  0
 30 33  1  0
 30 29  1  0
 31 30  2  0
 32 31  1  0
 32 27  2  0
 33 34  1  0
 34 39  2  0
 34 35  1  0
 35 36  2  0
 36 37  1  0
 37 41  1  0
 38 37  2  0
 39 38  1  0
 40 39  1  0
 42 43  1  0
 43 46  1  0
 43 45  1  0
 44 42  2  0
 47 48  1  0
 47 22  1  0
 49 47  1  0
 51 50  1  0
 52 63  2  0
 53 51  1  0
 53 58  1  0
 54 62  1  0
 54 64  1  0
 55 61  1  0
 55 57  1  0
 56 62  1  0
 57 56  1  0
 58 57  2  0
 59 60  1  0
 59 53  2  0
 60 55  2  0
 61 54  1  0
 62 52  1  0
 64 66  2  0
 65 64  1  0
 67 65  1  0
 68 77  2  0
 68 73  1  0
 69 65  1  0
 69 73  1  0
 70 69  1  0
 71 72  1  0
 71 70  1  0
 72 68  1  0
 73 74  2  0
 74 75  1  0
 76 75  2  0
 77 76  1  0
 78 52  1  0
 78 79  1  0
 78 88  1  0
 79 82  1  0
 80 84  1  0
 80 79  1  0
 81 80  2  0
 84 83  1  0
 86 84  1  0
 86 87  1  0
 86 85  1  0
 88 91  1  1
 88 89  1  0
 90 88  1  0
M  ISO  4  12 100  20 100  50 101  51 101
M  END
>  <TORSDO>  (72) 
F 21

>  <SCORE>  (72) 
-13.264

>  <name>  (72) 
71

>  <ligand_id>  (72) 
71

>  <original_smiles>  (72) 
[H]Oc1c([H])c(C([H])([H])Oc2c([H])c([H])c3c(c2[H])C([H])([H])N(C(=O)C([H])(N([H])C(=O)C([H])(N([H])C([H])([H])[H])C([H])([H])[H])C(C([H])([H])[H])(C([H])([H])[H])C([H])([H])[H])C([H])(C(=O)N([H])C2([H])c4c([H])c([H])c([H])c([H])c4C([H])([H])C([H])([H])C2([H])[H])C3([H])[H])c([H])c([H])c1C([H])([H])C([H])([H])C([H])([H])N([H])C(=O)N1C([H])([H])C([H])([H])C([H])([H])C([H])(n2nc(-c3c([H])c([H])c(Oc4c([H])c([H])c(F)c([H])c4F)c([H])c3[H])c(C(=O)N([H])[H])c2N([H])[H])C1([H])[H]

>  <smiles>  (72) 
[H]Oc1c([H])c(C([H])([H])Oc2c([H])c([H])c3c(c2[H])C([H])([H])N(C(=O)C([H])(N([H])C(=O)C([H])(N([H])C([H])([H])[H])C([H])([H])[H])C(C([H])([H])[H])(C([H])([H])[H])C([H])([H])[H])C([H])(C(=O)N([H])C2([H])c4c([H])c([H])c([H])c([H])c4C([H])([H])C([H])([H])C2([H])[H])C3([H])[H])c([H])c([H])c1C([H])([H])C([H])([H])C([H])([H])N([H])C(=O)N1C([H])([H])C([H])([H])C([H])([H])C([H])(n2nc(-c3c([H])c([H])c(Oc4c([H])c([H])c(F)c([H])c4F)c([H])c3[H])c(C(=O)N([H])[H])c2N([H])[H])C1([H])[H]

$$$$
72:0:0
     RDKit          3D

 94 97  0  0  1  0  0  0  0  0999 V2000
  -29.2240  -18.2620   19.8930 C   0  0  0  0  0  2  0  0  0  0  0  0
  -29.9570  -15.0780   19.2770 C   0  0  0  0  0  2  0  0  0  0  0  0
  -29.4780  -13.7750   18.3580 C   0  0  0  0  0  2  0  0  0  0  0  0
  -28.3850  -12.8930   18.9530 C   0  0  0  0  0  2  0  0  0  0  0  0
  -27.5400  -13.8980   19.7300 C   0  0  0  0  0  3  0  0  0  0  0  0
  -28.2990  -15.1120   20.5920 C   0  0  0  0  0  2  0  0  0  0  0  0
  -29.0100  -16.4250   19.8400 N   0  0  0  0  0  0  0  0  0  0  0  0
  -30.4690  -17.8020   19.8040 O   0  0  0  0  0  1  0  0  0  0  0  0
  -29.9630  -26.7420   19.3370 C   0  0  0  0  0  3  0  0  0  0  0  0
  -28.9680  -25.8180   18.3420 C   0  0  0  0  0  3  0  0  0  0  0  0
  -28.5030  -27.2290   22.0260 C   0  0  0  0  0  2  0  0  0  0  0  0
  -29.8040  -27.2940   20.9380 C   0  0  0  0  0  3  0  0  0  0  0  0
  -27.5260  -25.0970   18.7930 C   0  0  0  0  0  2  0  0  0  0  0  0
  -27.0400  -26.3830   21.7090 C   0  0  0  0  0  2  0  0  0  0  0  0
  -27.1570  -24.7360   22.7010 C   0  0  0  0  0  1  0  0  0  0  0  0
  -28.1360  -22.6060   19.0220 C   0  0  0  0  0 15  0  0  0  0  0  0
  -27.8840  -22.9780   22.1160 C   0  0  0  0  0  1  0  0  0  0  0  0
  -27.7560  -21.2820   21.1890 C   0  0  0  0  0  2  0  0  0  0  0  0
  -28.4960  -20.3560   19.8850 N   0  0  0  0  0  1  0  0  0  0  0  0
  -25.1930  -14.0610   20.5730 C   0  0  0  0  0  0  0  0  0  0  0  0
  -24.1790  -13.2180   20.9040 C   0  0  0  0  0  0  0  0  0  0  0  0
  -24.6870  -11.8890   20.7740 C   0  0  0  0  0  0  0  0  0  0  0  0
  -26.2980  -13.3000   20.2920 N   0  0  0  0  0  0  0  0  0  0  0  0
  -25.9920  -11.9520   20.4230 N   0  0  0  0  0  0  0  0  0  0  0  0
  -23.9420  -10.6050   20.9100 C   0  0  0  0  0  0  0  0  0  0  0  0
  -24.3450   -9.5830   21.8010 C   0  0  0  0  0  3  0  0  0  0  0  0
  -23.5750   -8.4050   21.9570 C   0  0  0  0  0  3  0  0  0  0  0  0
  -22.3770   -8.2290   21.2250 C   0  0  0  0  0  0  0  0  0  0  0  0
  -21.9820   -9.2370   20.3270 C   0  0  0  0  0  3  0  0  0  0  0  0
  -22.7530  -10.4050   20.1700 C   0  0  0  0  0  3  0  0  0  0  0  0
  -21.5840   -7.1030   21.2860 O   0  0  0  0  0  0  0  0  0  0  0  0
  -21.5370   -6.3070   22.4040 C   0  0  0  0  0  0  0  0  0  0  0  0
  -21.1480   -6.8130   23.6650 C   0  0  0  0  0  3  0  0  0  0  0  0
  -21.0480   -5.9480   24.7740 C   0  0  0  0  0  3  0  0  0  0  0  0
  -21.3210   -4.5750   24.6220 C   0  0  0  0  0  0  0  0  0  0  0  0
  -21.6970   -4.0660   23.3660 C   0  0  0  0  0  3  0  0  0  0  0  0
  -21.8000   -4.9290   22.2600 C   0  0  0  0  0  0  0  0  0  0  0  0
  -22.1420   -4.4230   21.0500 F   0  0  0  0  0  0  0  0  0  0  0  0
  -21.2200   -3.7450   25.6860 F   0  0  0  0  0  0  0  0  0  0  0  0
  -22.7830  -13.6630   21.2230 C   0  0  0  0  0  0  0  0  0  0  0  0
  -22.0900  -12.9340   22.0890 N   0  0  0  0  0  0  0  0  0  0  0  0
  -22.3300  -14.7080   20.7570 O   0  0  0  0  0  0  0  0  0  0  0  0
  -22.4830  -12.0990   22.5020 H   0  0  0  0  0  0  0  0  0  0  0  0
  -21.1530  -13.2150   22.3400 H   0  0  0  0  0  0  0  0  0  0  0  0
  -25.2480  -15.4400   20.4340 N   0  0  0  0  0  0  0  0  0  0  0  0
  -24.4230  -16.0160   20.5430 H   0  0  0  0  0  0  0  0  0  0  0  0
  -26.0540  -15.9580   20.1190 H   0  0  0  0  0  0  0  0  0  0  0  0
  -31.1360  -27.6470   21.5240 C   0  0  0  0  0  0  0  0  0  0  0  0
  -32.0740  -26.6780   21.5160 N   0  0  0  0  0  0  0  0  0  0  0  0
  -31.3680  -28.7880   21.9210 O   0  0  0  0  0  0  0  0  0  0  0  0
  -32.9630  -26.9710   21.9120 H   0  0  0  0  0  0  0  0  0  0  0  0
  -31.9330  -25.2050   21.4560 C   0  0  0  0  0  2  0  0  0  0  0  0
  -30.9230  -24.5330   20.4750 C   0  0  0  0  0  2  0  0  0  0  0  0
  -29.5890  -24.7900   20.9950 O   0  0  0  0  0  0  0  0  0  0  0  0
  -24.6330  -31.3510   22.6330 C   0  0  0  0  0  0  0  0  0  0  0  0
  -28.4260  -25.2000   20.4920 C   0  0  0  0  0  2  0  0  0  0  0  0
  -23.6000  -29.6950   21.0600 C   0  0  0  0  0  3  0  0  0  0  0  0
  -25.1270  -27.5030   19.9400 C   0  0  0  0  0  3  0  0  0  0  0  0
  -26.1600  -29.7950   20.8250 C   0  0  0  0  0  2  0  0  0  0  0  0
  -26.3490  -28.2010   20.0850 C   0  0  0  0  0  3  0  0  0  0  0  0
  -27.5830  -27.1840   19.6600 C   0  0  0  0  0  1  0  0  0  0  0  0
  -26.2540  -24.6220   20.2500 C   0  0  0  0  0  1  0  0  0  0  0  0
  -25.1800  -25.9100   19.8390 C   0  0  0  0  0  2  0  0  0  0  0  0
  -23.8960  -28.5960   19.9020 C   0  0  0  0  0  2  0  0  0  0  0  0
  -24.8460  -30.3630   21.5880 N   0  0  0  0  0  0  0  0  0  0  0  0
  -23.4930  -31.6530   23.0560 O   0  0  0  0  0  0  0  0  0  0  0  0
  -22.7420  -29.0140   22.1560 C   0  0  0  0  0  0  0  0  0  0  0  0
  -21.4020  -28.9720   22.0300 N   0  0  0  0  0  0  0  0  0  0  0  0
  -23.3310  -28.4480   23.0760 O   0  0  0  0  0  0  0  0  0  0  0  0
  -20.9830  -29.4780   21.2620 H   0  0  0  0  0  0  0  0  0  0  0  0
  -17.9580  -27.8660   22.6060 C   0  0  0  0  0  0  0  0  0  0  0  0
  -20.5350  -28.0480   22.7810 C   0  0  0  0  0  3  0  0  0  0  0  0
  -20.5620  -26.6430   22.1340 C   0  0  0  0  0  2  0  0  0  0  0  0
  -19.4240  -26.4190   21.1340 C   0  0  0  0  0  2  0  0  0  0  0  0
  -18.0680  -26.5670   21.8260 C   0  0  0  0  0  2  0  0  0  0  0  0
  -19.1160  -28.5750   23.0330 C   0  0  0  0  0  0  0  0  0  0  0  0
  -18.9480  -29.7880   23.7360 C   0  0  0  0  0  3  0  0  0  0  0  0
  -17.6630  -30.2930   24.0090 C   0  0  0  0  0  3  0  0  0  0  0  0
  -16.5240  -29.5830   23.5900 C   0  0  0  0  0  3  0  0  0  0  0  0
  -16.6750  -28.3680   22.8970 C   0  0  0  0  0  3  0  0  0  0  0  0
  -25.7490  -32.1770   23.4140 C   0  0  0  0  0  3  0  0  0  0  0  0
  -25.2660  -33.5510   23.7910 N   0  0  0  0  0  0  0  0  0  0  0  0
  -25.6190  -34.7210   23.2240 C   0  0  0  0  0  0  0  0  0  0  0  0
  -26.3860  -34.7610   22.2610 O   0  0  0  0  0  0  0  0  0  0  0  0
  -24.5880  -33.5840   24.5370 H   0  0  0  0  0  0  0  0  0  0  0  0
  -23.8080  -36.4790   22.9720 C   0  0  0  0  0  1  0  0  0  0  0  0
  -25.0450  -36.0550   23.7830 C   0  0  0  0  0  3  0  0  0  0  0  0
  -27.1010  -37.0220   24.7500 C   0  0  0  0  0  1  0  0  0  0  0  0
  -26.0100  -37.1830   23.7930 N   0  0  0  0  0  0  0  0  0  0  0  0
  -25.5340  -38.0560   24.0030 H   0  0  0  0  0  0  0  0  0  0  0  0
  -26.2230  -31.4820   24.7600 C   0  0  1  0  0  0  0  0  0  0  0  0
  -25.0770  -31.2020   25.7720 C   0  0  0  0  0  1  0  0  0  0  0  0
  -26.9060  -30.1410   24.4260 C   0  0  0  0  0  1  0  0  0  0  0  0
  -27.2770  -32.3550   25.4920 C   0  0  0  0  0  1  0  0  0  0  0  0
  2  7  1  0
  3  4  1  0
  3  2  1  0
  5  4  1  0
  5 23  1  0
  5  6  1  0
  7  1  1  0
  7  6  1  0
  8  1  1  0
  9 12  1  0
 10 13  1  0
 10  9  2  0
 12 48  1  0
 12 11  1  0
 13 56  1  0
 14 11  1  0
 14 15  1  0
 18 17  1  0
 19 18  1  0
 20 21  2  0
 21 40  1  0
 22 21  1  0
 22 25  1  0
 23 24  1  0
 23 20  1  0
 24 22  2  0
 25 26  1  0
 26 27  2  0
 28 31  1  0
 28 27  1  0
 29 28  2  0
 30 29  1  0
 30 25  2  0
 31 32  1  0
 32 33  1  0
 33 34  2  0
 35 34  1  0
 35 39  1  0
 36 35  2  0
 37 32  2  0
 37 36  1  0
 38 37  1  0
 40 41  1  0
 41 44  1  0
 41 43  1  0
 42 40  2  0
 45 46  1  0
 45 20  1  0
 47 45  1  0
 48 50  2  0
 49 48  1  0
 49 51  1  0
 52 49  1  0
 53 54  1  0
 53 52  1  0
 55 66  2  0
 56 54  1  0
 57 65  1  0
 57 67  1  0
 58 63  1  0
 58 60  1  0
 59 65  1  0
 60 61  1  0
 60 59  1  0
 63 62  1  0
 64 58  1  0
 64 57  1  0
 65 55  1  0
 67 69  2  0
 68 67  1  0
 70 68  1  0
 71 80  2  0
 71 76  1  0
 72 68  1  0
 72 76  1  0
 73 72  1  0
 74 75  1  0
 74 73  1  0
 75 71  1  0
 76 77  2  0
 77 78  1  0
 79 78  2  0
 80 79  1  0
 81 55  1  0
 81 82  1  0
 81 91  1  0
 82 85  1  0
 83 87  1  0
 83 82  1  0
 84 83  2  0
 87 86  1  0
 87 89  1  0
 89 90  1  0
 89 88  1  0
 91 94  1  1
 91 92  1  0
 93 91  1  0
M  ISO  4   1 100  19 100  53 101  54 101
M  END
>  <TORSDO>  (73) 
F 18

>  <SCORE>  (73) 
-12.370

>  <name>  (73) 
72

>  <ligand_id>  (73) 
72

>  <original_smiles>  (73) 
[H]c1c([H])c([H])c2c(c1[H])C([H])([H])C([H])([H])C([H])([H])C2([H])N([H])C(=O)C1([H])N(C(=O)C([H])(N([H])C(=O)C([H])(N([H])C([H])([H])[H])C([H])([H])[H])C(C([H])([H])[H])(C([H])([H])[H])C([H])([H])[H])C([H])([H])c2c([H])c(OC([H])([H])C([H])([H])N([H])C(=O)c3c([H])c([H])c4c(c3[H])C([H])([H])C([H])([H])C([H])([H])N(C(=O)N3C([H])([H])C([H])([H])C([H])([H])C([H])(n5nc(-c6c([H])c([H])c(Oc7c([H])c([H])c(F)c([H])c7F)c([H])c6[H])c(C(=O)N([H])[H])c5N([H])[H])C3([H])[H])C4([H])[H])c([H])c([H])c2C1([H])[H]

>  <smiles>  (73) 
[H]c1c([H])c([H])c2c(c1[H])C([H])([H])C([H])([H])C([H])([H])C2([H])N([H])C(=O)C1([H])N(C(=O)C([H])(N([H])C(=O)C([H])(N([H])C([H])([H])[H])C([H])([H])[H])C(C([H])([H])[H])(C([H])([H])[H])C([H])([H])[H])C([H])([H])c2c([H])c(OC([H])([H])C([H])([H])N([H])C(=O)c3c([H])c([H])c4c(c3[H])C([H])([H])C([H])([H])C([H])([H])N(C(=O)N3C([H])([H])C([H])([H])C([H])([H])C([H])(n5nc(-c6c([H])c([H])c(Oc7c([H])c([H])c(F)c([H])c7F)c([H])c6[H])c(C(=O)N([H])[H])c5N([H])[H])C3([H])[H])C4([H])[H])c([H])c([H])c2C1([H])[H]

$$$$
73:0:0
     RDKit          3D

 91100  0  0  1  0  0  0  0  0999 V2000
  -29.0080  -19.9260   19.2230 C   0  0  0  0  0  3  0  0  0  0  0  0
  -29.4830  -20.1240   21.4000 C   0  0  0  0  0  3  0  0  0  0  0  0
  -28.6580  -21.4030   19.1610 C   0  0  0  0  0  0  0  0  0  0  0  0
  -28.6720  -22.4390   20.2300 C   0  0  0  0  0  0  0  0  0  0  0  0
  -29.4550  -19.0770   20.3440 C   0  0  0  0  0  0  0  0  0  0  0  0
  -29.1470  -21.6140   21.3660 C   0  0  0  0  0  0  0  0  0  0  0  0
  -28.1820  -21.8870   17.7890 C   0  0  0  0  0  2  0  0  0  0  0  0
  -27.6550  -24.2420   18.5540 C   0  0  0  0  0  2  0  0  0  0  0  0
  -27.9270  -24.1100   20.0730 C   0  0  0  0  0  3  0  0  0  0  0  0
  -27.0970  -22.9910   17.8230 C   0  0  1  0  0  0  0  0  0  0  0  0
  -29.2760  -22.3540   22.6810 C   0  0  0  0  0  1  0  0  0  0  0  0
  -26.7510  -23.4200   16.3790 C   0  0  0  0  0  1  0  0  0  0  0  0
  -25.8020  -22.4410   18.4650 C   0  0  0  0  0  1  0  0  0  0  0  0
  -28.1950  -25.7560   20.4980 O   0  0  0  0  0  0  0  0  0  0  0  0
  -24.7690  -32.0170   23.4380 C   0  0  0  0  0  0  0  0  0  0  0  0
  -27.2490  -26.9670   20.4400 C   0  0  0  0  0  0  0  0  0  0  0  0
  -23.5750  -30.6440   21.7890 C   0  0  0  0  0  3  0  0  0  0  0  0
  -25.0070  -28.9980   20.3890 C   0  0  0  0  0  0  0  0  0  0  0  0
  -26.1600  -30.7680   21.6850 C   0  0  0  0  0  2  0  0  0  0  0  0
  -26.2110  -29.3480   21.0150 C   0  0  0  0  0  0  0  0  0  0  0  0
  -27.3240  -28.3620   21.0030 C   0  0  0  0  0  3  0  0  0  0  0  0
  -25.9870  -26.7970   19.8150 C   0  0  0  0  0  3  0  0  0  0  0  0
  -24.9270  -27.7400   19.7780 C   0  0  0  0  0  3  0  0  0  0  0  0
  -23.8170  -29.9620   20.4160 C   0  0  0  0  0  2  0  0  0  0  0  0
  -24.8580  -31.1720   22.3570 N   0  0  0  0  0  0  0  0  0  0  0  0
  -23.6740  -32.3330   23.9380 O   0  0  0  0  0  0  0  0  0  0  0  0
  -22.8400  -29.6650   22.7450 C   0  0  0  0  0  0  0  0  0  0  0  0
  -21.5150  -29.4920   22.5730 N   0  0  0  0  0  0  0  0  0  0  0  0
  -23.4710  -29.0600   23.6150 O   0  0  0  0  0  0  0  0  0  0  0  0
  -21.0560  -30.0300   21.8500 H   0  0  0  0  0  0  0  0  0  0  0  0
  -18.1240  -28.2500   22.9680 C   0  0  0  0  0  0  0  0  0  0  0  0
  -20.6690  -28.5620   23.3300 C   0  0  0  0  0  3  0  0  0  0  0  0
  -20.8130  -27.1180   22.7940 C   0  0  0  0  0  2  0  0  0  0  0  0
  -19.7590  -26.7550   21.7430 C   0  0  0  0  0  2  0  0  0  0  0  0
  -18.3490  -26.8900   22.3260 C   0  0  0  0  0  2  0  0  0  0  0  0
  -19.2140  -29.0410   23.4250 C   0  0  0  0  0  0  0  0  0  0  0  0
  -18.9480  -30.3070   23.9890 C   0  0  0  0  0  3  0  0  0  0  0  0
  -17.6280  -30.7850   24.0990 C   0  0  0  0  0  3  0  0  0  0  0  0
  -16.5540  -29.9930   23.6570 C   0  0  0  0  0  3  0  0  0  0  0  0
  -16.8030  -28.7270   23.0980 C   0  0  0  0  0  3  0  0  0  0  0  0
  -26.0350  -32.6450   24.0930 C   0  0  0  0  0  3  0  0  0  0  0  0
  -25.7300  -34.0490   24.4260 N   0  0  0  0  0  0  0  0  0  0  0  0
  -26.0390  -35.1080   23.6650 C   0  0  0  0  0  0  0  0  0  0  0  0
  -26.6720  -35.0050   22.6120 O   0  0  0  0  0  0  0  0  0  0  0  0
  -25.1660  -34.2040   25.2490 H   0  0  0  0  0  0  0  0  0  0  0  0
  -24.2920  -36.9050   23.4090 C   0  0  0  0  0  1  0  0  0  0  0  0
  -25.5780  -36.5000   24.1470 C   0  0  0  0  0  3  0  0  0  0  0  0
  -27.7470  -37.4030   24.8620 C   0  0  0  0  0  1  0  0  0  0  0  0
  -26.6010  -37.5550   23.9710 N   0  0  0  0  0  0  0  0  0  0  0  0
  -26.1990  -38.4760   24.1250 H   0  0  0  0  0  0  0  0  0  0  0  0
  -26.5060  -31.8750   25.3890 C   0  0  1  0  0  0  0  0  0  0  0  0
  -25.3780  -31.6380   26.4200 C   0  0  0  0  0  1  0  0  0  0  0  0
  -27.1020  -30.4950   25.0290 C   0  0  0  0  0  1  0  0  0  0  0  0
  -27.6350  -32.6700   26.0900 C   0  0  0  0  0  1  0  0  0  0  0  0
  -29.4870  -17.2460   20.4950 C   0  0  0  0  0  2  0  0  0  0  0  0
  -30.4520  -15.7030   20.2520 C   0  0  0  0  0  0  0  0  0  0  0  0
  -30.5880  -13.2070   19.3600 C   0  0  0  0  0  2  0  0  0  0  0  0
  -29.6590  -12.9290   18.1430 C   0  0  0  0  0  2  0  0  0  0  0  0
  -28.2320  -12.5720   18.5960 C   0  0  0  0  0  2  0  0  0  0  0  0
  -27.7560  -13.5070   19.7340 C   0  0  0  0  0  3  0  0  0  0  0  0
  -28.8130  -13.7130   20.8400 C   0  0  0  0  0  2  0  0  0  0  0  0
  -30.0010  -14.3250   20.2120 N   0  0  0  0  0  0  0  0  0  0  0  0
  -31.6680  -15.7330   19.9910 O   0  0  0  0  0  0  0  0  0  0  0  0
  -25.3980  -13.9840   20.5620 C   0  0  0  0  0  0  0  0  0  0  0  0
  -24.3580  -13.1760   20.9290 C   0  0  0  0  0  0  0  0  0  0  0  0
  -24.8510  -11.8370   20.8480 C   0  0  0  0  0  0  0  0  0  0  0  0
  -26.4510  -13.1390   20.2650 N   0  0  0  0  0  0  0  0  0  0  0  0
  -26.1370  -11.8380   20.5080 N   0  0  0  0  0  0  0  0  0  0  0  0
  -24.1480  -10.5570   21.0150 C   0  0  0  0  0  0  0  0  0  0  0  0
  -24.5600   -9.6080   21.9780 C   0  0  0  0  0  3  0  0  0  0  0  0
  -23.8550   -8.3950   22.1330 C   0  0  0  0  0  3  0  0  0  0  0  0
  -22.7260   -8.1210   21.3280 C   0  0  0  0  0  0  0  0  0  0  0  0
  -22.3320   -9.0580   20.3570 C   0  0  0  0  0  3  0  0  0  0  0  0
  -23.0360  -10.2640   20.1980 C   0  0  0  0  0  3  0  0  0  0  0  0
  -21.9940   -6.9570   21.3930 O   0  0  0  0  0  0  0  0  0  0  0  0
  -21.8310   -6.2730   22.5700 C   0  0  0  0  0  0  0  0  0  0  0  0
  -21.2160   -6.8640   23.6970 C   0  0  0  0  0  3  0  0  0  0  0  0
  -21.0060   -6.1050   24.8640 C   0  0  0  0  0  3  0  0  0  0  0  0
  -21.3990   -4.7540   24.9050 C   0  0  0  0  0  0  0  0  0  0  0  0
  -22.0040   -4.1600   23.7820 C   0  0  0  0  0  3  0  0  0  0  0  0
  -22.2160   -4.9190   22.6180 C   0  0  0  0  0  0  0  0  0  0  0  0
  -22.7810   -4.3370   21.5320 F   0  0  0  0  0  0  0  0  0  0  0  0
  -21.1900   -4.0200   26.0230 F   0  0  0  0  0  0  0  0  0  0  0  0
  -22.9590  -13.6190   21.2350 C   0  0  0  0  0  0  0  0  0  0  0  0
  -22.2560  -12.8920   22.0960 N   0  0  0  0  0  0  0  0  0  0  0  0
  -22.4980  -14.6500   20.7440 O   0  0  0  0  0  0  0  0  0  0  0  0
  -22.6420  -12.0580   22.5130 H   0  0  0  0  0  0  0  0  0  0  0  0
  -21.3160  -13.1730   22.3380 H   0  0  0  0  0  0  0  0  0  0  0  0
  -25.5310  -15.3620   20.4250 N   0  0  0  0  0  0  0  0  0  0  0  0
  -24.7570  -15.9980   20.5890 H   0  0  0  0  0  0  0  0  0  0  0  0
  -26.3630  -15.8300   20.0930 H   0  0  0  0  0  0  0  0  0  0  0  0
  1  5  1  0
  3  1  2  0
  3  4  1  0
  4  6  2  0
  5 55  1  0
  5  2  2  0
  6  2  1  0
  6 11  1  0
  7 10  1  0
  7  3  1  0
  8  9  1  0
  9  4  1  0
  9 14  1  0
 10 13  1  1
 10  8  1  0
 12 10  1  0
 15 26  2  0
 16 14  1  0
 16 21  1  0
 17 25  1  0
 17 27  1  0
 18 24  1  0
 18 20  1  0
 19 25  1  0
 20 19  1  0
 21 20  2  0
 22 16  2  0
 23 22  1  0
 23 18  2  0
 24 17  1  0
 25 15  1  0
 27 29  2  0
 28 27  1  0
 30 28  1  0
 31 40  2  0
 31 36  1  0
 32 28  1  0
 32 36  1  0
 33 32  1  0
 34 35  1  0
 34 33  1  0
 35 31  1  0
 36 37  2  0
 37 38  1  0
 39 38  2  0
 40 39  1  0
 41 15  1  0
 41 42  1  0
 41 51  1  0
 42 45  1  0
 43 47  1  0
 43 42  1  0
 44 43  2  0
 47 46  1  0
 49 50  1  0
 49 47  1  0
 49 48  1  0
 51 54  1  1
 51 52  1  0
 53 51  1  0
 56 55  1  0
 57 62  1  0
 58 59  1  0
 58 57  1  0
 60 59  1  0
 60 67  1  0
 60 61  1  0
 62 56  1  0
 62 61  1  0
 63 56  2  0
 64 65  2  0
 65 84  1  0
 66 65  1  0
 66 69  1  0
 67 68  1  0
 67 64  1  0
 68 66  2  0
 69 70  1  0
 70 71  2  0
 72 75  1  0
 72 71  1  0
 73 72  2  0
 74 73  1  0
 74 69  2  0
 75 76  1  0
 76 81  2  0
 76 77  1  0
 77 78  2  0
 78 79  1  0
 79 83  1  0
 80 79  2  0
 81 80  1  0
 82 81  1  0
 84 85  1  0
 85 88  1  0
 85 87  1  0
 86 84  2  0
 89 64  1  0
 89 90  1  0
 91 89  1  0
M  ISO  4   9 101  14 101  55 100  56 100
M  END
>  <TORSDO>  (74) 
F 17

>  <SCORE>  (74) 
-14.903

>  <name>  (74) 
73

>  <ligand_id>  (74) 
73

>  <original_smiles>  (74) 
[H]c1c([H])c([H])c2c(c1[H])C([H])([H])C([H])([H])C([H])([H])C2([H])N([H])C(=O)C1([H])N(C(=O)C([H])(N([H])C(=O)C([H])(N([H])C([H])([H])[H])C([H])([H])[H])C(C([H])([H])[H])(C([H])([H])[H])C([H])([H])[H])C([H])([H])c2c([H])c(OC3([H])c4c(C([H])([H])[H])c([H])c(C([H])([H])C(=O)N5C([H])([H])C([H])([H])C([H])([H])C([H])(n6nc(-c7c([H])c([H])c(Oc8c([H])c([H])c(F)c([H])c8F)c([H])c7[H])c(C(=O)N([H])[H])c6N([H])[H])C5([H])[H])c([H])c4C([H])([H])C(C([H])([H])[H])(C([H])([H])[H])C3([H])[H])c([H])c([H])c2C1([H])[H]

>  <smiles>  (74) 
[H]c1c([H])c([H])c2c(c1[H])C([H])([H])C([H])([H])C([H])([H])C2([H])N([H])C(=O)C1([H])N(C(=O)C([H])(N([H])C(=O)C([H])(N([H])C([H])([H])[H])C([H])([H])[H])C(C([H])([H])[H])(C([H])([H])[H])C([H])([H])[H])C([H])([H])c2c([H])c(OC3([H])c4c(C([H])([H])[H])c([H])c(C([H])([H])C(=O)N5C([H])([H])C([H])([H])C([H])([H])C([H])(n6nc(-c7c([H])c([H])c(Oc8c([H])c([H])c(F)c([H])c8F)c([H])c7[H])c(C(=O)N([H])[H])c6N([H])[H])C5([H])[H])c([H])c4C([H])([H])C(C([H])([H])[H])(C([H])([H])[H])C3([H])[H])c([H])c([H])c2C1([H])[H]

$$$$
74:0:0
     RDKit          3D

 92 99  0  0  1  0  0  0  0  0999 V2000
  -28.5830  -18.7870   20.7290 C   0  0  0  0  0  3  0  0  0  0  0  0
  -28.1960  -20.3120   20.7350 C   0  0  0  0  0  3  0  0  0  0  0  0
  -31.1240  -18.8400   18.3220 C   0  0  0  0  0  3  0  0  0  0  0  0
  -31.4270  -21.0930   17.4740 C   0  0  0  0  0  3  0  0  0  0  0  0
  -30.0980  -19.2050   19.2260 C   0  0  0  0  0  0  0  0  0  0  0  0
  -29.7020  -20.7590   19.2320 C   0  0  0  0  0  0  0  0  0  0  0  0
  -29.5960  -17.9450   19.9670 C   0  0  0  0  0  0  0  0  0  0  0  0
  -28.6700  -21.5800   20.0210 C   0  0  0  0  0  3  0  0  0  0  0  0
  -31.7780  -19.7420   17.4760 C   0  0  0  0  0  0  0  0  0  0  0  0
  -30.4210  -21.5890   18.3190 C   0  0  0  0  0  0  0  0  0  0  0  0
  -30.1970  -16.1510   19.9650 C   0  0  0  0  0  0  0  0  0  0  0  0
  -30.3630  -13.5000   19.2480 C   0  0  0  0  0  2  0  0  0  0  0  0
  -29.4840  -12.9160   18.0940 C   0  0  0  0  0  2  0  0  0  0  0  0
  -28.1120  -12.4760   18.6110 C   0  0  0  0  0  2  0  0  0  0  0  0
  -27.5660  -13.5100   19.6150 C   0  0  0  0  0  3  0  0  0  0  0  0
  -28.5940  -14.0120   20.6670 C   0  0  0  0  0  2  0  0  0  0  0  0
  -29.6990  -14.7260   19.9560 N   0  0  0  0  0  0  0  0  0  0  0  0
  -31.4260  -15.9590   19.7890 O   0  0  0  0  0  0  0  0  0  0  0  0
  -25.2560  -13.9860   20.5240 C   0  0  0  0  0  0  0  0  0  0  0  0
  -24.2180  -13.1920   20.9140 C   0  0  0  0  0  0  0  0  0  0  0  0
  -24.6870  -11.8460   20.8150 C   0  0  0  0  0  0  0  0  0  0  0  0
  -26.2870  -13.1310   20.1990 N   0  0  0  0  0  0  0  0  0  0  0  0
  -25.9650  -11.8300   20.4380 N   0  0  0  0  0  0  0  0  0  0  0  0
  -23.9650  -10.5770   20.9970 C   0  0  0  0  0  0  0  0  0  0  0  0
  -24.3960   -9.6030   21.9250 C   0  0  0  0  0  3  0  0  0  0  0  0
  -23.6670   -8.4070   22.1000 C   0  0  0  0  0  3  0  0  0  0  0  0
  -22.4900   -8.1750   21.3480 C   0  0  0  0  0  0  0  0  0  0  0  0
  -22.0770   -9.1360   20.4110 C   0  0  0  0  0  3  0  0  0  0  0  0
  -22.8060  -10.3240   20.2330 C   0  0  0  0  0  3  0  0  0  0  0  0
  -21.7340   -7.0300   21.4340 O   0  0  0  0  0  0  0  0  0  0  0  0
  -21.6360   -6.3150   22.6000 C   0  0  0  0  0  0  0  0  0  0  0  0
  -21.1070   -6.8830   23.7800 C   0  0  0  0  0  3  0  0  0  0  0  0
  -20.9590   -6.0910   24.9360 C   0  0  0  0  0  3  0  0  0  0  0  0
  -21.3330   -4.7350   24.9150 C   0  0  0  0  0  0  0  0  0  0  0  0
  -21.8550   -4.1660   23.7400 C   0  0  0  0  0  3  0  0  0  0  0  0
  -22.0030   -4.9540   22.5850 C   0  0  0  0  0  0  0  0  0  0  0  0
  -22.4870   -4.3950   21.4500 F   0  0  0  0  0  0  0  0  0  0  0  0
  -21.1840   -3.9730   26.0250 F   0  0  0  0  0  0  0  0  0  0  0  0
  -22.8340  -13.6600   21.2550 C   0  0  0  0  0  0  0  0  0  0  0  0
  -22.1490  -12.9500   22.1420 N   0  0  0  0  0  0  0  0  0  0  0  0
  -22.3760  -14.6950   20.7720 O   0  0  0  0  0  0  0  0  0  0  0  0
  -22.5360  -12.1130   22.5550 H   0  0  0  0  0  0  0  0  0  0  0  0
  -21.2220  -13.2460   22.4150 H   0  0  0  0  0  0  0  0  0  0  0  0
  -25.4050  -15.3630   20.3840 N   0  0  0  0  0  0  0  0  0  0  0  0
  -24.6420  -16.0080   20.5590 H   0  0  0  0  0  0  0  0  0  0  0  0
  -26.2380  -15.8210   20.0350 H   0  0  0  0  0  0  0  0  0  0  0  0
  -32.7590  -19.2850   16.6440 O   0  0  0  0  0  0  0  0  0  0  0  0
  -33.1580  -19.9710   16.1160 H   0  0  0  0  0  0  0  0  0  0  0  0
  -30.1650  -22.9310   18.2180 O   0  0  0  0  0  0  0  0  0  0  0  0
  -30.6850  -23.3680   17.5510 H   0  0  0  0  0  0  0  0  0  0  0  0
  -27.8950  -23.4280   19.9550 C   0  0  0  0  0 15  0  0  0  0  0  0
  -28.1100  -25.2860   20.1190 O   0  0  0  0  0  1  0  0  0  0  0  0
  -24.6760  -31.8430   23.1600 C   0  0  0  0  0  0  0  0  0  0  0  0
  -27.1760  -26.6150   20.0980 C   0  0  0  0  0  0  0  0  0  0  0  0
  -23.4890  -30.4600   21.5160 C   0  0  0  0  0  3  0  0  0  0  0  0
  -24.9310  -28.7930   20.0800 C   0  0  0  0  0  0  0  0  0  0  0  0
  -26.0760  -30.5440   21.4010 C   0  0  0  0  0  2  0  0  0  0  0  0
  -26.1360  -29.0970   20.7240 C   0  0  0  0  0  0  0  0  0  0  0  0
  -27.2310  -28.0440   20.6940 C   0  0  0  0  0  3  0  0  0  0  0  0
  -25.9340  -26.5850   19.3960 C   0  0  0  0  0  3  0  0  0  0  0  0
  -24.8830  -27.5680   19.3890 C   0  0  0  0  0  3  0  0  0  0  0  0
  -23.7320  -29.7690   20.1390 C   0  0  0  0  0  2  0  0  0  0  0  0
  -24.7740  -30.9870   22.0780 N   0  0  0  0  0  0  0  0  0  0  0  0
  -23.5810  -32.1420   23.6700 O   0  0  0  0  0  0  0  0  0  0  0  0
  -22.7600  -29.4850   22.4840 C   0  0  0  0  0  0  0  0  0  0  0  0
  -21.4260  -29.3350   22.3590 N   0  0  0  0  0  0  0  0  0  0  0  0
  -23.4120  -28.8630   23.3230 O   0  0  0  0  0  0  0  0  0  0  0  0
  -20.9470  -29.8890   21.6640 H   0  0  0  0  0  0  0  0  0  0  0  0
  -18.0390  -28.1080   22.8890 C   0  0  0  0  0  0  0  0  0  0  0  0
  -20.6030  -28.3870   23.1250 C   0  0  0  0  0  3  0  0  0  0  0  0
  -20.7010  -26.9620   22.5300 C   0  0  0  0  0  2  0  0  0  0  0  0
  -19.5910  -26.6510   21.5210 C   0  0  0  0  0  2  0  0  0  0  0  0
  -18.2150  -26.7760   22.1820 C   0  0  0  0  0  2  0  0  0  0  0  0
  -19.1590  -28.8730   23.3180 C   0  0  0  0  0  0  0  0  0  0  0  0
  -18.9350  -30.1150   23.9480 C   0  0  0  0  0  3  0  0  0  0  0  0
  -17.6270  -30.5980   24.1470 C   0  0  0  0  0  3  0  0  0  0  0  0
  -16.5240  -29.8340   23.7300 C   0  0  0  0  0  3  0  0  0  0  0  0
  -16.7310  -28.5900   23.1080 C   0  0  0  0  0  3  0  0  0  0  0  0
  -25.9320  -32.4990   23.8120 C   0  0  0  0  0  3  0  0  0  0  0  0
  -26.4230  -31.7370   25.1070 C   0  0  1  0  0  0  0  0  0  0  0  0
  -25.3100  -31.5090   26.1580 C   0  0  0  0  0  1  0  0  0  0  0  0
  -27.0100  -30.3540   24.7500 C   0  0  0  0  0  1  0  0  0  0  0  0
  -27.5650  -32.5320   25.7810 C   0  0  0  0  0  1  0  0  0  0  0  0
  -25.6040  -33.8980   24.1580 N   0  0  0  0  0  0  0  0  0  0  0  0
  -25.9130  -34.9750   23.4230 C   0  0  0  0  0  0  0  0  0  0  0  0
  -26.5570  -34.8960   22.3740 O   0  0  0  0  0  0  0  0  0  0  0  0
  -25.0250  -34.0320   24.9750 H   0  0  0  0  0  0  0  0  0  0  0  0
  -24.1640  -36.7760   23.1780 C   0  0  0  0  0  1  0  0  0  0  0  0
  -25.4420  -36.3580   23.9250 C   0  0  0  0  0  3  0  0  0  0  0  0
  -27.5980  -37.2610   24.6860 C   0  0  0  0  0  1  0  0  0  0  0  0
  -26.4620  -37.4210   23.7810 N   0  0  0  0  0  0  0  0  0  0  0  0
  -26.0550  -38.3380   23.9430 H   0  0  0  0  0  0  0  0  0  0  0  0
  1  2  1  0
  3  5  1  0
  4  9  1  0
  4 10  2  0
  5  6  2  0
  5  7  1  0
  6  8  1  0
  7  1  2  0
  8  2  2  0
  9  3  2  0
 10  6  1  0
 11  7  1  0
 12 17  1  0
 13 14  1  0
 13 12  1  0
 15 14  1  0
 15 22  1  0
 15 16  1  0
 17 11  1  0
 17 16  1  0
 18 11  2  0
 19 20  2  0
 20 39  1  0
 21 20  1  0
 21 24  1  0
 22 23  1  0
 22 19  1  0
 23 21  2  0
 24 25  1  0
 25 26  2  0
 27 30  1  0
 27 26  1  0
 28 27  2  0
 29 28  1  0
 29 24  2  0
 30 31  1  0
 31 32  1  0
 32 33  2  0
 34 33  1  0
 34 38  1  0
 35 34  2  0
 36 31  2  0
 36 35  1  0
 37 36  1  0
 39 40  1  0
 40 43  1  0
 40 42  1  0
 41 39  2  0
 44 19  1  0
 44 45  1  0
 46 44  1  0
 47  9  1  0
 48 47  1  0
 49 10  1  0
 50 49  1  0
 53 64  2  0
 54 52  1  0
 54 59  1  0
 55 63  1  0
 55 65  1  0
 56 62  1  0
 56 58  1  0
 57 63  1  0
 58 57  1  0
 59 58  2  0
 60 54  2  0
 61 60  1  0
 61 56  2  0
 62 55  1  0
 63 53  1  0
 65 67  2  0
 66 65  1  0
 68 66  1  0
 69 78  2  0
 69 74  1  0
 70 66  1  0
 70 74  1  0
 71 70  1  0
 72 73  1  0
 72 71  1  0
 73 69  1  0
 74 75  2  0
 75 76  1  0
 77 76  2  0
 78 77  1  0
 79 53  1  0
 79 84  1  0
 79 80  1  0
 80 83  1  1
 80 81  1  0
 82 80  1  0
 84 87  1  0
 85 89  1  0
 85 84  1  0
 86 85  2  0
 89 88  1  0
 91 89  1  0
 91 92  1  0
 91 90  1  0
M  ISO  4   7 100  11 100  51 101  52 101
M  END
>  <TORSDO>  (75) 
F 19

>  <SCORE>  (75) 
-15.854

>  <name>  (75) 
74

>  <ligand_id>  (75) 
74

>  <original_smiles>  (75) 
[H]Oc1c([H])c(O[H])c2c(C([H])([H])Oc3c([H])c([H])c4c(c3[H])C([H])([H])N(C(=O)C([H])(N([H])C(=O)C([H])(N([H])C([H])([H])[H])C([H])([H])[H])C(C([H])([H])[H])(C([H])([H])[H])C([H])([H])[H])C([H])(C(=O)N([H])C3([H])c5c([H])c([H])c([H])c([H])c5C([H])([H])C([H])([H])C3([H])[H])C4([H])[H])c([H])c([H])c(C(=O)N3C([H])([H])C([H])([H])C([H])([H])C([H])(n4nc(-c5c([H])c([H])c(Oc6c([H])c([H])c(F)c([H])c6F)c([H])c5[H])c(C(=O)N([H])[H])c4N([H])[H])C3([H])[H])c2c1[H]

>  <smiles>  (75) 
[H]Oc1c([H])c(O[H])c2c(C([H])([H])Oc3c([H])c([H])c4c(c3[H])C([H])([H])N(C(=O)C([H])(N([H])C(=O)C([H])(N([H])C([H])([H])[H])C([H])([H])[H])C(C([H])([H])[H])(C([H])([H])[H])C([H])([H])[H])C([H])(C(=O)N([H])C3([H])c5c([H])c([H])c([H])c([H])c5C([H])([H])C([H])([H])C3([H])[H])C4([H])[H])c([H])c([H])c(C(=O)N3C([H])([H])C([H])([H])C([H])([H])C([H])(n4nc(-c5c([H])c([H])c(Oc6c([H])c([H])c(F)c([H])c6F)c([H])c5[H])c(C(=O)N([H])[H])c4N([H])[H])C3([H])[H])c2c1[H]

$$$$
75:0:0
     RDKit          3D

 97106  0  0  1  0  0  0  0  0999 V2000
  -27.1400  -24.6480   20.2890 C   0  0  0  0  0  2  0  0  0  0  0  0
  -26.8130  -23.7840   19.0490 C   0  0  0  0  0  2  0  0  0  0  0  0
  -29.4140  -23.4140   20.7560 C   0  0  0  0  0  2  0  0  0  0  0  0
  -27.5360  -21.6340   20.2890 C   0  0  0  0  0  2  0  0  0  0  0  0
  -29.0470  -21.8710   20.0220 C   0  0  0  0  0  3  0  0  0  0  0  0
  -28.6500  -24.9590   20.4310 C   0  0  0  0  0  3  0  0  0  0  0  0
  -26.5100  -22.2820   19.3160 C   0  0  1  0  0  0  0  0  0  0  0  0
  -25.1010  -22.1850   19.9600 C   0  0  0  0  0  1  0  0  0  0  0  0
  -29.8350  -17.8560   19.1160 C   0  0  0  0  0  3  0  0  0  0  0  0
  -29.4610  -19.2800   19.0670 C   0  0  0  0  0  3  0  0  0  0  0  0
  -30.4750  -19.6530   21.1130 C   0  0  0  0  0  3  0  0  0  0  0  0
  -30.5570  -17.1920   20.1800 C   0  0  0  0  0  0  0  0  0  0  0  0
  -29.7520  -20.3100   20.0510 C   0  0  0  0  0  0  0  0  0  0  0  0
  -30.8630  -18.2250   21.1760 C   0  0  0  0  0  0  0  0  0  0  0  0
  -31.6410  -17.8180   22.4180 C   0  0  0  0  0  1  0  0  0  0  0  0
  -31.1720  -15.6520   20.1630 C   0  0  0  0  0  0  0  0  0  0  0  0
  -31.0730  -13.1970   19.4360 C   0  0  0  0  0  2  0  0  0  0  0  0
  -30.2240  -13.0030   18.1580 C   0  0  0  0  0  2  0  0  0  0  0  0
  -28.7480  -12.7900   18.5290 C   0  0  0  0  0  2  0  0  0  0  0  0
  -28.2610  -13.8100   19.5900 C   0  0  0  0  0  3  0  0  0  0  0  0
  -29.2490  -13.9990   20.7560 C   0  0  0  0  0  2  0  0  0  0  0  0
  -30.5390  -14.3900   20.1780 N   0  0  0  0  0  0  0  0  0  0  0  0
  -32.3950  -15.5670   19.9870 O   0  0  0  0  0  0  0  0  0  0  0  0
  -25.8720  -14.4170   20.2380 C   0  0  0  0  0  0  0  0  0  0  0  0
  -24.7860  -13.6600   20.5770 C   0  0  0  0  0  0  0  0  0  0  0  0
  -25.2370  -12.3030   20.5940 C   0  0  0  0  0  0  0  0  0  0  0  0
  -26.9110  -13.5240   20.0530 N   0  0  0  0  0  0  0  0  0  0  0  0
  -26.5400  -12.2490   20.3390 N   0  0  0  0  0  0  0  0  0  0  0  0
  -24.4890  -11.0530   20.7810 C   0  0  0  0  0  0  0  0  0  0  0  0
  -24.8390  -10.1230   21.7840 C   0  0  0  0  0  3  0  0  0  0  0  0
  -24.0890   -8.9400   21.9570 C   0  0  0  0  0  3  0  0  0  0  0  0
  -22.9750   -8.6770   21.1230 C   0  0  0  0  0  0  0  0  0  0  0  0
  -22.6440   -9.5960   20.1110 C   0  0  0  0  0  3  0  0  0  0  0  0
  -23.3950  -10.7710   19.9380 C   0  0  0  0  0  3  0  0  0  0  0  0
  -22.2060   -7.5410   21.2000 O   0  0  0  0  0  0  0  0  0  0  0  0
  -22.0020   -6.8870   22.3890 C   0  0  0  0  0  0  0  0  0  0  0  0
  -21.4530   -7.5400   23.5130 C   0  0  0  0  0  3  0  0  0  0  0  0
  -21.1970   -6.8130   24.6940 C   0  0  0  0  0  3  0  0  0  0  0  0
  -21.4820   -5.4360   24.7480 C   0  0  0  0  0  0  0  0  0  0  0  0
  -22.0240   -4.7820   23.6270 C   0  0  0  0  0  3  0  0  0  0  0  0
  -22.2810   -5.5070   22.4490 C   0  0  0  0  0  0  0  0  0  0  0  0
  -22.7840   -4.8680   21.3650 F   0  0  0  0  0  0  0  0  0  0  0  0
  -21.2290   -4.7350   25.8780 F   0  0  0  0  0  0  0  0  0  0  0  0
  -23.3850  -14.1570   20.7760 C   0  0  0  0  0  0  0  0  0  0  0  0
  -22.6290  -13.5160   21.6580 N   0  0  0  0  0  0  0  0  0  0  0  0
  -22.9720  -15.1530   20.1830 O   0  0  0  0  0  0  0  0  0  0  0  0
  -22.9760  -12.7100   22.1560 H   0  0  0  0  0  0  0  0  0  0  0  0
  -21.6870  -13.8360   21.8380 H   0  0  0  0  0  0  0  0  0  0  0  0
  -26.0590  -15.7830   20.0460 N   0  0  0  0  0  0  0  0  0  0  0  0
  -25.3030  -16.4500   20.1320 H   0  0  0  0  0  0  0  0  0  0  0  0
  -26.9430  -16.2130   19.8090 H   0  0  0  0  0  0  0  0  0  0  0  0
  -26.5360  -21.5060   17.9660 C   0  0  0  0  0  0  0  0  0  0  0  0
  -25.6910  -20.4950   17.7930 N   0  0  0  0  0  0  0  0  0  0  0  0
  -27.3130  -21.8100   17.0650 O   0  0  0  0  0  0  0  0  0  0  0  0
  -25.0480  -20.2420   18.5300 H   0  0  0  0  0  0  0  0  0  0  0  0
  -25.6850  -19.9780   16.9280 H   0  0  0  0  0  0  0  0  0  0  0  0
  -28.7310  -26.4030   21.1460 O   0  0  0  0  0  0  0  0  0  0  0  0
  -24.9650  -32.2540   23.8500 C   0  0  0  0  0  0  0  0  0  0  0  0
  -27.7260  -27.4660   20.9940 C   0  0  0  0  0  0  0  0  0  0  0  0
  -23.8720  -30.8330   22.1610 C   0  0  0  0  0  3  0  0  0  0  0  0
  -25.4100  -29.2620   20.8200 C   0  0  0  0  0  0  0  0  0  0  0  0
  -26.4340  -31.1010   22.1390 C   0  0  0  0  0  2  0  0  0  0  0  0
  -26.5560  -29.6990   21.4960 C   0  0  0  0  0  0  0  0  0  0  0  0
  -27.7150  -28.8190   21.5660 C   0  0  0  0  0  3  0  0  0  0  0  0
  -26.5610  -27.1720   20.2500 C   0  0  0  0  0  3  0  0  0  0  0  0
  -25.4340  -28.0170   20.1780 C   0  0  0  0  0  3  0  0  0  0  0  0
  -24.1750  -30.1530   20.8000 C   0  0  0  0  0  2  0  0  0  0  0  0
  -25.1080  -31.4210   22.7710 N   0  0  0  0  0  0  0  0  0  0  0  0
  -23.8470  -32.5300   24.3140 O   0  0  0  0  0  0  0  0  0  0  0  0
  -23.1500  -29.8280   23.0940 C   0  0  0  0  0  0  0  0  0  0  0  0
  -21.8580  -29.5570   22.8300 N   0  0  0  0  0  0  0  0  0  0  0  0
  -23.7590  -29.2910   24.0230 O   0  0  0  0  0  0  0  0  0  0  0  0
  -21.4190  -30.0430   22.0600 H   0  0  0  0  0  0  0  0  0  0  0  0
  -18.5140  -28.1710   23.0570 C   0  0  0  0  0  0  0  0  0  0  0  0
  -21.0160  -28.5980   23.5550 C   0  0  0  0  0  3  0  0  0  0  0  0
  -21.2550  -27.1560   23.0500 C   0  0  0  0  0  2  0  0  0  0  0  0
  -20.2790  -26.7340   21.9500 C   0  0  0  0  0  2  0  0  0  0  0  0
  -18.8340  -26.8140   22.4500 C   0  0  0  0  0  2  0  0  0  0  0  0
  -19.5400  -29.0150   23.5600 C   0  0  0  0  0  0  0  0  0  0  0  0
  -19.1900  -30.2780   24.0850 C   0  0  0  0  0  3  0  0  0  0  0  0
  -17.8470  -30.7000   24.1100 C   0  0  0  0  0  3  0  0  0  0  0  0
  -16.8350  -29.8570   23.6210 C   0  0  0  0  0  3  0  0  0  0  0  0
  -17.1690  -28.5930   23.1020 C   0  0  0  0  0  3  0  0  0  0  0  0
  -26.1970  -32.9140   24.5400 C   0  0  0  0  0  3  0  0  0  0  0  0
  -25.8980  -34.3420   24.7240 N   0  0  0  0  0  0  0  0  0  0  0  0
  -26.2900  -35.3210   23.8970 C   0  0  0  0  0  0  0  0  0  0  0  0
  -27.0080  -35.1150   22.9160 O   0  0  0  0  0  0  0  0  0  0  0  0
  -25.2670  -34.5770   25.4770 H   0  0  0  0  0  0  0  0  0  0  0  0
  -24.6140  -37.1080   23.3170 C   0  0  0  0  0  1  0  0  0  0  0  0
  -25.8150  -36.7560   24.2080 C   0  0  0  0  0  3  0  0  0  0  0  0
  -27.9410  -37.6720   25.0300 C   0  0  0  0  0  1  0  0  0  0  0  0
  -26.8730  -37.7760   24.0380 N   0  0  0  0  0  0  0  0  0  0  0  0
  -26.4810  -38.7130   24.0930 H   0  0  0  0  0  0  0  0  0  0  0  0
  -26.5570  -32.2490   25.9250 C   0  0  1  0  0  0  0  0  0  0  0  0
  -25.3380  -32.0490   26.8570 C   0  0  0  0  0  1  0  0  0  0  0  0
  -27.2200  -30.8670   25.7200 C   0  0  0  0  0  1  0  0  0  0  0  0
  -27.5920  -33.1250   26.6710 C   0  0  0  0  0  1  0  0  0  0  0  0
  1  6  1  0
  2  7  1  0
  2  1  1  0
  5 13  1  0
  5  4  1  0
  5  3  1  0
  6  3  1  0
  6 57  1  0
  7  8  1  1
  7  4  1  0
  9 12  1  0
 10  9  2  0
 10 13  1  0
 11 14  1  0
 12 14  2  0
 13 11  2  0
 14 15  1  0
 16 22  1  0
 16 12  1  0
 17 22  1  0
 18 19  1  0
 18 17  1  0
 20 19  1  0
 20 27  1  0
 20 21  1  0
 22 21  1  0
 23 16  2  0
 24 25  2  0
 25 26  1  0
 25 44  1  0
 26 29  1  0
 27 24  1  0
 27 28  1  0
 28 26  2  0
 29 30  1  0
 30 31  2  0
 32 35  1  0
 32 31  1  0
 33 32  2  0
 34 33  1  0
 34 29  2  0
 35 36  1  0
 36 41  2  0
 36 37  1  0
 37 38  2  0
 38 39  1  0
 39 43  1  0
 40 39  2  0
 41 40  1  0
 42 41  1  0
 44 45  1  0
 45 48  1  0
 45 47  1  0
 46 44  2  0
 49 50  1  0
 49 24  1  0
 51 49  1  0
 52  7  1  0
 53 52  1  0
 53 55  1  0
 54 52  2  0
 56 53  1  0
 58 69  2  0
 59 57  1  0
 59 64  1  0
 60 68  1  0
 60 70  1  0
 61 63  1  0
 62 68  1  0
 63 64  2  0
 63 62  1  0
 65 59  2  0
 66 65  1  0
 66 61  2  0
 67 61  1  0
 67 60  1  0
 68 58  1  0
 70 72  2  0
 71 70  1  0
 73 71  1  0
 74 83  2  0
 74 79  1  0
 75 71  1  0
 75 79  1  0
 76 75  1  0
 77 78  1  0
 77 76  1  0
 78 74  1  0
 79 80  2  0
 80 81  1  0
 82 81  2  0
 83 82  1  0
 84 58  1  0
 84 85  1  0
 84 94  1  0
 85 88  1  0
 86 90  1  0
 86 85  1  0
 87 86  2  0
 90 89  1  0
 92 93  1  0
 92 90  1  0
 92 91  1  0
 94 97  1  1
 94 95  1  0
 96 94  1  0
M  ISO  4   6 101  12 100  16 100  57 101
M  END
>  <TORSDO>  (76) 
F 18

>  <SCORE>  (76) 
-11.504

>  <name>  (76) 
75

>  <ligand_id>  (76) 
75

>  <original_smiles>  (76) 
[H]c1c([H])c([H])c2c(c1[H])C([H])([H])C([H])([H])C([H])([H])C2([H])N([H])C(=O)C1([H])N(C(=O)C([H])(N([H])C(=O)C([H])(N([H])C([H])([H])[H])C([H])([H])[H])C(C([H])([H])[H])(C([H])([H])[H])C([H])([H])[H])C([H])([H])c2c([H])c(OC3([H])C([H])([H])C([H])([H])C(C(=O)N([H])[H])(C([H])([H])[H])C([H])([H])C([H])(c4c([H])c([H])c(C(=O)N5C([H])([H])C([H])([H])C([H])([H])C([H])(n6nc(-c7c([H])c([H])c(Oc8c([H])c([H])c(F)c([H])c8F)c([H])c7[H])c(C(=O)N([H])[H])c6N([H])[H])C5([H])[H])c(C([H])([H])[H])c4[H])C3([H])[H])c([H])c([H])c2C1([H])[H]

>  <smiles>  (76) 
[H]c1c([H])c([H])c2c(c1[H])C([H])([H])C([H])([H])C([H])([H])C2([H])N([H])C(=O)C1([H])N(C(=O)C([H])(N([H])C(=O)C([H])(N([H])C([H])([H])[H])C([H])([H])[H])C(C([H])([H])[H])(C([H])([H])[H])C([H])([H])[H])C([H])([H])c2c([H])c(OC3([H])C([H])([H])C([H])([H])C(C(=O)N([H])[H])(C([H])([H])[H])C([H])([H])C([H])(c4c([H])c([H])c(C(=O)N5C([H])([H])C([H])([H])C([H])([H])C([H])(n6nc(-c7c([H])c([H])c(Oc8c([H])c([H])c(F)c([H])c8F)c([H])c7[H])c(C(=O)N([H])[H])c6N([H])[H])C5([H])[H])c(C([H])([H])[H])c4[H])C3([H])[H])c([H])c([H])c2C1([H])[H]

$$$$
76:0:0
     RDKit          3D

 95105  0  0  1  0  0  0  0  0999 V2000
  -27.7940  -22.8910   17.6620 C   0  0  0  0  0  3  0  0  0  0  0  0
  -27.7550  -24.1400   18.3320 C   0  0  0  0  0  3  0  0  0  0  0  0
  -28.6920  -22.9630   20.2030 C   0  0  0  0  0  3  0  0  0  0  0  0
  -28.7670  -21.5510   19.5380 C   0  0  0  0  0  0  0  0  0  0  0  0
  -28.2650  -21.6630   18.2090 C   0  0  0  0  0  0  0  0  0  0  0  0
  -28.1740  -24.3280   19.6650 C   0  0  0  0  0  0  0  0  0  0  0  0
  -28.2160  -20.4590   17.2890 C   0  0  0  0  0  1  0  0  0  0  0  0
  -31.7660  -17.8280   21.6240 C   0  0  0  0  0  2  0  0  0  0  0  0
  -30.7930  -19.5510   19.9060 C   0  0  0  0  0  2  0  0  0  0  0  0
  -29.5990  -16.6900   21.6470 C   0  0  0  0  0  2  0  0  0  0  0  0
  -28.9270  -18.3040   19.6180 C   0  0  0  0  0  2  0  0  0  0  0  0
  -31.1200  -17.9890   20.2310 C   0  0  0  0  0  3  0  0  0  0  0  0
  -30.9130  -16.8390   22.4200 C   0  0  0  0  0  3  0  0  0  0  0  0
  -29.2980  -19.9510   20.1200 C   0  0  2  0  0  0  0  0  0  0  0  0
  -29.8970  -16.9560   20.1530 C   0  0  1  0  0  0  0  0  0  0  0  0
  -29.0340  -20.0830   21.6330 C   0  0  0  0  0  1  0  0  0  0  0  0
  -30.3590  -15.3350   19.5150 C   0  0  0  0  0  0  0  0  0  0  0  0
  -30.1940  -12.8900   18.5850 C   0  0  0  0  0  2  0  0  0  0  0  0
  -29.1490  -12.7240   17.4500 C   0  0  0  0  0  2  0  0  0  0  0  0
  -27.7530  -12.4380   18.0260 C   0  0  0  0  0  2  0  0  0  0  0  0
  -27.4390  -13.3650   19.2210 C   0  0  0  0  0  3  0  0  0  0  0  0
  -28.6000  -13.4640   20.2290 C   0  0  0  0  0  2  0  0  0  0  0  0
  -29.7730  -14.0180   19.5160 N   0  0  0  0  0  0  0  0  0  0  0  0
  -31.4750  -15.2720   18.9760 O   0  0  0  0  0  0  0  0  0  0  0  0
  -25.1890  -13.9200   20.2810 C   0  0  0  0  0  0  0  0  0  0  0  0
  -24.1630  -13.1430   20.7400 C   0  0  0  0  0  0  0  0  0  0  0  0
  -24.5950  -11.7880   20.5940 C   0  0  0  0  0  0  0  0  0  0  0  0
  -26.1740  -13.0420   19.8700 N   0  0  0  0  0  0  0  0  0  0  0  0
  -25.8400  -11.7500   20.1260 N   0  0  0  0  0  0  0  0  0  0  0  0
  -23.8710  -10.5290   20.8160 C   0  0  0  0  0  0  0  0  0  0  0  0
  -24.3490   -9.5460   21.7100 C   0  0  0  0  0  3  0  0  0  0  0  0
  -23.6210   -8.3550   21.9210 C   0  0  0  0  0  3  0  0  0  0  0  0
  -22.4000   -8.1390   21.2390 C   0  0  0  0  0  0  0  0  0  0  0  0
  -21.9390   -9.1110   20.3330 C   0  0  0  0  0  3  0  0  0  0  0  0
  -22.6670  -10.2930   20.1200 C   0  0  0  0  0  3  0  0  0  0  0  0
  -21.6380   -7.0010   21.3620 O   0  0  0  0  0  0  0  0  0  0  0  0
  -21.6050   -6.2790   22.5280 C   0  0  0  0  0  0  0  0  0  0  0  0
  -21.2060   -6.8580   23.7520 C   0  0  0  0  0  3  0  0  0  0  0  0
  -21.1190   -6.0620   24.9110 C   0  0  0  0  0  3  0  0  0  0  0  0
  -21.4230   -4.6900   24.8480 C   0  0  0  0  0  0  0  0  0  0  0  0
  -21.8150   -4.1100   23.6290 C   0  0  0  0  0  3  0  0  0  0  0  0
  -21.9030   -4.9030   22.4720 C   0  0  0  0  0  0  0  0  0  0  0  0
  -22.2610   -4.3350   21.2950 F   0  0  0  0  0  0  0  0  0  0  0  0
  -21.3330   -3.9230   25.9600 F   0  0  0  0  0  0  0  0  0  0  0  0
  -22.8180  -13.6280   21.1940 C   0  0  0  0  0  0  0  0  0  0  0  0
  -22.1900  -12.9160   22.1230 N   0  0  0  0  0  0  0  0  0  0  0  0
  -22.3370  -14.6740   20.7600 O   0  0  0  0  0  0  0  0  0  0  0  0
  -22.5960  -12.0690   22.4950 H   0  0  0  0  0  0  0  0  0  0  0  0
  -21.2920  -13.2220   22.4680 H   0  0  0  0  0  0  0  0  0  0  0  0
  -25.3590  -15.2950   20.1500 N   0  0  0  0  0  0  0  0  0  0  0  0
  -24.6280  -15.9560   20.3910 H   0  0  0  0  0  0  0  0  0  0  0  0
  -26.1780  -15.7380   19.7550 H   0  0  0  0  0  0  0  0  0  0  0  0
  -31.5710  -15.5860   22.4950 O   0  0  0  0  0  0  0  0  0  0  0  0
  -32.3400  -15.6910   23.0480 H   0  0  0  0  0  0  0  0  0  0  0  0
  -28.1670  -25.7930   20.1670 O   0  0  0  0  0  0  0  0  0  0  0  0
  -24.7090  -31.8110   23.1920 C   0  0  0  0  0  0  0  0  0  0  0  0
  -27.1730  -26.9180   20.0790 C   0  0  0  0  0  0  0  0  0  0  0  0
  -23.4870  -30.4630   21.5350 C   0  0  0  0  0  3  0  0  0  0  0  0
  -24.9040  -28.8560   20.0770 C   0  0  0  0  0  0  0  0  0  0  0  0
  -26.0580  -30.6250   21.3860 C   0  0  0  0  0  2  0  0  0  0  0  0
  -26.1010  -29.2240   20.7030 C   0  0  0  0  0  0  0  0  0  0  0  0
  -27.2250  -28.2760   20.6840 C   0  0  0  0  0  3  0  0  0  0  0  0
  -25.9420  -26.7100   19.4140 C   0  0  0  0  0  3  0  0  0  0  0  0
  -24.8520  -27.6200   19.4130 C   0  0  0  0  0  3  0  0  0  0  0  0
  -23.7020  -29.7970   20.1470 C   0  0  0  0  0  2  0  0  0  0  0  0
  -24.7750  -30.9930   22.0910 N   0  0  0  0  0  0  0  0  0  0  0  0
  -23.6260  -32.1120   23.7190 O   0  0  0  0  0  0  0  0  0  0  0  0
  -22.7780  -29.4640   22.4870 C   0  0  0  0  0  0  0  0  0  0  0  0
  -21.4430  -29.3300   22.3670 N   0  0  0  0  0  0  0  0  0  0  0  0
  -23.4340  -28.8120   23.3020 O   0  0  0  0  0  0  0  0  0  0  0  0
  -20.9670  -29.9060   21.6880 H   0  0  0  0  0  0  0  0  0  0  0  0
  -18.0400  -28.1780   22.8800 C   0  0  0  0  0  0  0  0  0  0  0  0
  -20.6060  -28.3950   23.1280 C   0  0  0  0  0  3  0  0  0  0  0  0
  -20.6770  -26.9710   22.5270 C   0  0  0  0  0  2  0  0  0  0  0  0
  -19.5620  -26.6870   21.5160 C   0  0  0  0  0  2  0  0  0  0  0  0
  -18.1880  -26.8410   22.1720 C   0  0  0  0  0  2  0  0  0  0  0  0
  -19.1750  -28.9150   23.3130 C   0  0  0  0  0  0  0  0  0  0  0  0
  -18.9800  -30.1660   23.9380 C   0  0  0  0  0  3  0  0  0  0  0  0
  -17.6830  -30.6800   24.1310 C   0  0  0  0  0  3  0  0  0  0  0  0
  -16.5640  -29.9420   23.7100 C   0  0  0  0  0  3  0  0  0  0  0  0
  -16.7430  -28.6920   23.0910 C   0  0  0  0  0  3  0  0  0  0  0  0
  -25.9910  -32.4240   23.8310 C   0  0  0  0  0  3  0  0  0  0  0  0
  -25.7070  -33.8320   24.1600 N   0  0  0  0  0  0  0  0  0  0  0  0
  -26.0480  -34.8830   23.4030 C   0  0  0  0  0  0  0  0  0  0  0  0
  -26.6970  -34.7680   22.3610 O   0  0  0  0  0  0  0  0  0  0  0  0
  -25.1280  -33.9960   24.9720 H   0  0  0  0  0  0  0  0  0  0  0  0
  -24.3510  -36.7200   23.0940 C   0  0  0  0  0  1  0  0  0  0  0  0
  -25.6020  -36.2840   23.8740 C   0  0  0  0  0  3  0  0  0  0  0  0
  -27.7700  -37.1300   24.6610 C   0  0  0  0  0  1  0  0  0  0  0  0
  -26.6540  -37.3160   23.7380 N   0  0  0  0  0  0  0  0  0  0  0  0
  -26.2690  -38.2440   23.8890 H   0  0  0  0  0  0  0  0  0  0  0  0
  -26.4660  -31.6520   25.1250 C   0  0  1  0  0  0  0  0  0  0  0  0
  -25.3530  -31.4610   26.1810 C   0  0  0  0  0  1  0  0  0  0  0  0
  -27.0120  -30.2510   24.7640 C   0  0  0  0  0  1  0  0  0  0  0  0
  -27.6340  -32.4170   25.7920 C   0  0  0  0  0  1  0  0  0  0  0  0
  1  5  2  0
  1  2  1  0
  2  6  2  0
  4 14  1  0
  4  3  2  0
  5  4  1  0
  6 55  1  0
  6  3  1  0
  7  5  1  0
  8 13  1  0
  9 14  1  0
 10 13  1  0
 11 14  1  0
 11 15  1  0
 12  9  1  0
 12  8  1  0
 13 53  1  0
 14 16  1  1
 15 17  1  6
 15 12  1  0
 15 10  1  0
 17 23  1  0
 18 23  1  0
 19 20  1  0
 19 18  1  0
 21 20  1  0
 21 28  1  0
 21 22  1  0
 23 22  1  0
 24 17  2  0
 25 26  2  0
 26 45  1  0
 27 26  1  0
 27 30  1  0
 28 29  1  0
 28 25  1  0
 29 27  2  0
 30 31  1  0
 31 32  2  0
 33 36  1  0
 33 32  1  0
 34 33  2  0
 35 34  1  0
 35 30  2  0
 36 37  1  0
 37 38  1  0
 38 39  2  0
 40 39  1  0
 40 44  1  0
 41 40  2  0
 42 37  2  0
 42 41  1  0
 43 42  1  0
 45 46  1  0
 46 49  1  0
 46 48  1  0
 47 45  2  0
 50 25  1  0
 50 51  1  0
 52 50  1  0
 53 54  1  0
 56 67  2  0
 57 55  1  0
 57 62  1  0
 58 66  1  0
 58 68  1  0
 59 65  1  0
 59 61  1  0
 60 66  1  0
 61 60  1  0
 62 61  2  0
 63 57  2  0
 64 63  1  0
 64 59  2  0
 65 58  1  0
 66 56  1  0
 68 70  2  0
 69 68  1  0
 71 69  1  0
 72 81  2  0
 72 77  1  0
 73 69  1  0
 73 77  1  0
 74 73  1  0
 75 76  1  0
 75 74  1  0
 76 72  1  0
 77 78  2  0
 78 79  1  0
 80 79  2  0
 81 80  1  0
 82 56  1  0
 82 83  1  0
 82 92  1  0
 83 86  1  0
 84 88  1  0
 84 83  1  0
 85 84  2  0
 88 87  1  0
 90 88  1  0
 90 91  1  0
 90 89  1  0
 92 95  1  1
 92 93  1  0
 94 92  1  0
M  ISO  4   6 101  15 100  17 100  55 101
M  END
>  <TORSDO>  (77) 
F 18

>  <SCORE>  (77) 
-13.948

>  <name>  (77) 
76

>  <ligand_id>  (77) 
76

>  <original_smiles>  (77) 
[H]OC1([H])C([H])([H])C2([H])C([H])([H])C(c3c([H])c(Oc4c([H])c([H])c5c(c4[H])C([H])([H])N(C(=O)C([H])(N([H])C(=O)C([H])(N([H])C([H])([H])[H])C([H])([H])[H])C(C([H])([H])[H])(C([H])([H])[H])C([H])([H])[H])C([H])(C(=O)N([H])C4([H])c6c([H])c([H])c([H])c([H])c6C([H])([H])C([H])([H])C4([H])[H])C5([H])[H])c([H])c([H])c3C([H])([H])[H])(C([H])([H])[H])C([H])([H])C2(C(=O)N2C([H])([H])C([H])([H])C([H])([H])C([H])(n3nc(-c4c([H])c([H])c(Oc5c([H])c([H])c(F)c([H])c5F)c([H])c4[H])c(C(=O)N([H])[H])c3N([H])[H])C2([H])[H])C1([H])[H]

>  <smiles>  (77) 
[H]OC1([H])C([H])([H])C2([H])C([H])([H])C(c3c([H])c(Oc4c([H])c([H])c5c(c4[H])C([H])([H])N(C(=O)C([H])(N([H])C(=O)C([H])(N([H])C([H])([H])[H])C([H])([H])[H])C(C([H])([H])[H])(C([H])([H])[H])C([H])([H])[H])C([H])(C(=O)N([H])C4([H])c6c([H])c([H])c([H])c([H])c6C([H])([H])C([H])([H])C4([H])[H])C5([H])[H])c([H])c([H])c3C([H])([H])[H])(C([H])([H])[H])C([H])([H])C2(C(=O)N2C([H])([H])C([H])([H])C([H])([H])C([H])(n3nc(-c4c([H])c([H])c(Oc5c([H])c([H])c(F)c([H])c5F)c([H])c4[H])c(C(=O)N([H])[H])c3N([H])[H])C2([H])[H])C1([H])[H]

$$$$
77:0:0
     RDKit          3D

 97106  0  0  1  0  0  0  0  0999 V2000
  -30.3030  -21.8990   21.2120 C   0  0  0  0  0  3  0  0  0  0  0  0
  -30.5090  -20.5470   20.8980 C   0  0  0  0  0  3  0  0  0  0  0  0
  -28.1630  -20.3340   20.2820 C   0  0  0  0  0  3  0  0  0  0  0  0
  -29.0230  -22.4830   21.0820 C   0  0  0  0  0  0  0  0  0  0  0  0
  -29.4330  -19.7550   20.4570 C   0  0  0  0  0  0  0  0  0  0  0  0
  -27.9500  -21.6960   20.5810 C   0  0  0  0  0  0  0  0  0  0  0  0
  -26.5610  -22.2680   20.3520 C   0  0  0  0  0  1  0  0  0  0  0  0
  -29.4240  -25.4540   23.5330 C   0  0  0  0  0  2  0  0  0  0  0  0
  -29.7670  -26.8570   23.0010 C   0  0  0  0  0  2  0  0  0  0  0  0
  -29.8660  -24.2850   22.6400 C   0  0  0  0  0  2  0  0  0  0  0  0
  -29.7730  -27.0330   21.4700 C   0  0  0  0  0  2  0  0  0  0  0  0
  -28.8460  -24.9090   20.3520 C   0  0  0  0  0  2  0  0  0  0  0  0
  -28.8340  -23.9310   21.5430 C   0  0  0  0  0  3  0  0  0  0  0  0
  -28.5850  -26.3780   20.7410 C   0  0  0  0  0  3  0  0  0  0  0  0
  -28.3400  -27.1060   19.5360 O   0  0  0  0  0  0  0  0  0  0  0  0
  -24.4670  -31.8790   23.0830 C   0  0  0  0  0  0  0  0  0  0  0  0
  -27.1750  -27.8250   19.5920 C   0  0  0  0  0  0  0  0  0  0  0  0
  -23.2640  -30.5730   21.3570 C   0  0  0  0  0  3  0  0  0  0  0  0
  -24.7330  -29.2080   19.7780 C   0  0  0  0  0  0  0  0  0  0  0  0
  -25.7670  -31.0410   21.1340 C   0  0  0  0  0  2  0  0  0  0  0  0
  -25.8810  -29.7330   20.3840 C   0  0  0  0  0  0  0  0  0  0  0  0
  -27.1070  -29.0440   20.2970 C   0  0  0  0  0  3  0  0  0  0  0  0
  -26.0200  -27.3060   18.9780 C   0  0  0  0  0  3  0  0  0  0  0  0
  -24.7930  -27.9920   19.0740 C   0  0  0  0  0  3  0  0  0  0  0  0
  -23.4610  -30.0120   19.9220 C   0  0  0  0  0  2  0  0  0  0  0  0
  -24.5180  -31.1740   21.9170 N   0  0  0  0  0  0  0  0  0  0  0  0
  -23.3930  -32.0710   23.6680 O   0  0  0  0  0  0  0  0  0  0  0  0
  -22.6730  -29.4570   22.2460 C   0  0  0  0  0  0  0  0  0  0  0  0
  -21.3500  -29.2540   22.1480 N   0  0  0  0  0  0  0  0  0  0  0  0
  -23.3980  -28.7790   22.9790 O   0  0  0  0  0  0  0  0  0  0  0  0
  -20.8230  -29.8570   21.5320 H   0  0  0  0  0  0  0  0  0  0  0  0
  -18.0120  -27.9840   22.6940 C   0  0  0  0  0  0  0  0  0  0  0  0
  -20.5790  -28.2350   22.8600 C   0  0  0  0  0  3  0  0  0  0  0  0
  -20.6570  -26.8710   22.1340 C   0  0  0  0  0  2  0  0  0  0  0  0
  -19.5060  -26.6430   21.1510 C   0  0  0  0  0  2  0  0  0  0  0  0
  -18.1590  -26.7110   21.8770 C   0  0  0  0  0  2  0  0  0  0  0  0
  -19.1490  -28.7080   23.1410 C   0  0  0  0  0  0  0  0  0  0  0  0
  -18.9570  -29.9040   23.8660 C   0  0  0  0  0  3  0  0  0  0  0  0
  -17.6610  -30.3760   24.1470 C   0  0  0  0  0  3  0  0  0  0  0  0
  -16.5390  -29.6470   23.7140 C   0  0  0  0  0  3  0  0  0  0  0  0
  -16.7160  -28.4520   22.9950 C   0  0  0  0  0  3  0  0  0  0  0  0
  -25.7510  -32.4980   23.7210 C   0  0  0  0  0  3  0  0  0  0  0  0
  -26.2750  -31.6930   24.9720 C   0  0  1  0  0  0  0  0  0  0  0  0
  -25.1790  -31.4020   26.0240 C   0  0  0  0  0  1  0  0  0  0  0  0
  -26.8820  -30.3390   24.5350 C   0  0  0  0  0  1  0  0  0  0  0  0
  -27.4080  -32.4830   25.6670 C   0  0  0  0  0  1  0  0  0  0  0  0
  -25.4370  -33.8840   24.0880 N   0  0  0  0  0  0  0  0  0  0  0  0
  -25.7880  -34.9590   23.3690 C   0  0  0  0  0  0  0  0  0  0  0  0
  -26.4850  -34.8870   22.3530 O   0  0  0  0  0  0  0  0  0  0  0  0
  -24.8230  -34.0150   24.8790 H   0  0  0  0  0  0  0  0  0  0  0  0
  -24.0710  -36.7620   23.0210 C   0  0  0  0  0  1  0  0  0  0  0  0
  -25.2890  -36.3330   23.8550 C   0  0  0  0  0  3  0  0  0  0  0  0
  -27.4050  -37.1820   24.7670 C   0  0  0  0  0  1  0  0  0  0  0  0
  -26.3230  -37.3880   23.8070 N   0  0  0  0  0  0  0  0  0  0  0  0
  -25.9130  -38.3020   23.9830 H   0  0  0  0  0  0  0  0  0  0  0  0
  -29.6660  -18.2910   20.1580 C   0  0  0  0  0  2  0  0  0  0  0  0
  -30.3230  -17.5360   21.3350 C   0  0  0  0  0  2  0  0  0  0  0  0
  -31.2000  -14.2860   19.7950 C   0  0  0  0  0  0  0  0  0  0  0  0
  -30.7760  -12.0200   18.9210 C   0  0  0  0  0  2  0  0  0  0  0  0
  -29.7590  -12.0440   17.7670 C   0  0  0  0  0  2  0  0  0  0  0  0
  -28.3190  -11.9700   18.3100 C   0  0  0  0  0  2  0  0  0  0  0  0
  -28.0530  -12.9960   19.4440 C   0  0  0  0  0  3  0  0  0  0  0  0
  -29.1750  -12.9470   20.5070 C   0  0  0  0  0  2  0  0  0  0  0  0
  -30.4700  -13.1390   19.8230 N   0  0  0  0  0  0  0  0  0  0  0  0
  -32.1850  -14.4220   19.0600 O   0  0  0  0  0  0  0  0  0  0  0  0
  -31.2750  -16.4730   20.7990 C   0  0  0  0  0  0  0  0  0  0  0  0
  -30.7390  -15.2600   20.5920 N   0  0  0  0  0  0  0  0  0  0  0  0
  -32.4490  -16.7860   20.5630 O   0  0  0  0  0  0  0  0  0  0  0  0
  -29.8380  -15.0850   21.0100 H   0  0  0  0  0  0  0  0  0  0  0  0
  -25.7960  -13.7400   20.4440 C   0  0  0  0  0  0  0  0  0  0  0  0
  -24.7110  -13.0260   20.8790 C   0  0  0  0  0  0  0  0  0  0  0  0
  -25.0510  -11.6490   20.7170 C   0  0  0  0  0  0  0  0  0  0  0  0
  -26.7350  -12.7990   20.0460 N   0  0  0  0  0  0  0  0  0  0  0  0
  -26.2920  -11.5320   20.2660 N   0  0  0  0  0  0  0  0  0  0  0  0
  -24.2460  -10.4370   20.9110 C   0  0  0  0  0  0  0  0  0  0  0  0
  -24.6540   -9.4100   21.7920 C   0  0  0  0  0  3  0  0  0  0  0  0
  -23.8540   -8.2610   21.9690 C   0  0  0  0  0  3  0  0  0  0  0  0
  -22.6290   -8.1320   21.2690 C   0  0  0  0  0  0  0  0  0  0  0  0
  -22.2380   -9.1460   20.3770 C   0  0  0  0  0  3  0  0  0  0  0  0
  -23.0380  -10.2870   20.1970 C   0  0  0  0  0  3  0  0  0  0  0  0
  -21.7970   -7.0420   21.3640 O   0  0  0  0  0  0  0  0  0  0  0  0
  -21.7140   -6.2980   22.5140 C   0  0  0  0  0  0  0  0  0  0  0  0
  -21.3280   -6.8750   23.7420 C   0  0  0  0  0  3  0  0  0  0  0  0
  -21.1820   -6.0650   24.8840 C   0  0  0  0  0  3  0  0  0  0  0  0
  -21.4110   -4.6790   24.7980 C   0  0  0  0  0  0  0  0  0  0  0  0
  -21.7930   -4.1000   23.5740 C   0  0  0  0  0  3  0  0  0  0  0  0
  -21.9430   -4.9090   22.4350 C   0  0  0  0  0  0  0  0  0  0  0  0
  -22.2880   -4.3450   21.2520 F   0  0  0  0  0  0  0  0  0  0  0  0
  -21.2610   -3.9000   25.8950 F   0  0  0  0  0  0  0  0  0  0  0  0
  -23.3950  -13.5910   21.3310 C   0  0  0  0  0  0  0  0  0  0  0  0
  -22.7090  -12.9040   22.2390 N   0  0  0  0  0  0  0  0  0  0  0  0
  -22.9890  -14.6740   20.9130 O   0  0  0  0  0  0  0  0  0  0  0  0
  -23.0570  -12.0320   22.6090 H   0  0  0  0  0  0  0  0  0  0  0  0
  -21.8300  -13.2650   22.5800 H   0  0  0  0  0  0  0  0  0  0  0  0
  -26.0520  -15.1040   20.3430 N   0  0  0  0  0  0  0  0  0  0  0  0
  -25.3540  -15.8070   20.5710 H   0  0  0  0  0  0  0  0  0  0  0  0
  -26.9080  -15.5050   19.9760 H   0  0  0  0  0  0  0  0  0  0  0  0
  2  1  2  0
  3  5  2  0
  3  6  1  0
  4  1  1  0
  5  2  1  0
  6  4  2  0
  7  6  1  0
  9  8  1  0
 10  8  1  0
 11  9  1  0
 12 14  1  0
 12 13  1  0
 13  4  1  0
 13 10  1  0
 14 15  1  0
 14 11  1  0
 15 17  1  0
 16 27  2  0
 17 22  1  0
 18 26  1  0
 18 28  1  0
 19 25  1  0
 19 21  1  0
 20 26  1  0
 21 20  1  0
 22 21  2  0
 23 24  1  0
 23 17  2  0
 24 19  2  0
 25 18  1  0
 26 16  1  0
 28 30  2  0
 29 28  1  0
 31 29  1  0
 32 41  2  0
 32 37  1  0
 33 29  1  0
 33 37  1  0
 34 33  1  0
 35 36  1  0
 35 34  1  0
 36 32  1  0
 37 38  2  0
 38 39  1  0
 40 39  2  0
 41 40  1  0
 42 16  1  0
 42 47  1  0
 42 43  1  0
 43 46  1  1
 43 44  1  0
 45 43  1  0
 47 50  1  0
 48 52  1  0
 48 47  1  0
 49 48  2  0
 52 51  1  0
 54 52  1  0
 54 55  1  0
 54 53  1  0
 56  5  1  0
 56 57  1  0
 58 64  1  0
 58 67  1  0
 59 64  1  0
 60 61  1  0
 60 59  1  0
 62 61  1  0
 62 73  1  0
 62 63  1  0
 64 63  1  0
 65 58  2  0
 66 57  1  0
 67 66  1  0
 67 69  1  0
 68 66  2  0
 70 71  2  0
 71 90  1  0
 72 71  1  0
 72 75  1  0
 73 74  1  0
 73 70  1  0
 74 72  2  0
 75 76  1  0
 76 77  2  0
 78 81  1  0
 78 77  1  0
 79 78  2  0
 80 79  1  0
 80 75  2  0
 81 82  1  0
 82 83  1  0
 83 84  2  0
 85 84  1  0
 85 89  1  0
 86 85  2  0
 87 82  2  0
 87 86  1  0
 88 87  1  0
 90 91  1  0
 91 94  1  0
 91 93  1  0
 92 90  2  0
 95 70  1  0
 95 96  1  0
 97 95  1  0
M  ISO  4  14 101  15 101  58 100  67 100
M  END
>  <TORSDO>  (78) 
F 19

>  <SCORE>  (78) 
-13.564

>  <name>  (78) 
77

>  <ligand_id>  (78) 
77

>  <original_smiles>  (78) 
[H]c1c([H])c([H])c2c(c1[H])C([H])([H])C([H])([H])C([H])([H])C2([H])N([H])C(=O)C1([H])N(C(=O)C([H])(N([H])C(=O)C([H])(N([H])C([H])([H])[H])C([H])([H])[H])C(C([H])([H])[H])(C([H])([H])[H])C([H])([H])[H])C([H])([H])c2c([H])c(OC3([H])C([H])([H])C([H])([H])C([H])([H])C([H])([H])C([H])(c4c([H])c([H])c(C([H])([H])C([H])([H])C(=O)N([H])C(=O)N5C([H])([H])C([H])([H])C([H])([H])C([H])(n6nc(-c7c([H])c([H])c(Oc8c([H])c([H])c(F)c([H])c8F)c([H])c7[H])c(C(=O)N([H])[H])c6N([H])[H])C5([H])[H])c([H])c4C([H])([H])[H])C3([H])[H])c([H])c([H])c2C1([H])[H]

>  <smiles>  (78) 
[H]c1c([H])c([H])c2c(c1[H])C([H])([H])C([H])([H])C([H])([H])C2([H])N([H])C(=O)C1([H])N(C(=O)C([H])(N([H])C(=O)C([H])(N([H])C([H])([H])[H])C([H])([H])[H])C(C([H])([H])[H])(C([H])([H])[H])C([H])([H])[H])C([H])([H])c2c([H])c(OC3([H])C([H])([H])C([H])([H])C([H])([H])C([H])([H])C([H])(c4c([H])c([H])c(C([H])([H])C([H])([H])C(=O)N([H])C(=O)N5C([H])([H])C([H])([H])C([H])([H])C([H])(n6nc(-c7c([H])c([H])c(Oc8c([H])c([H])c(F)c([H])c8F)c([H])c7[H])c(C(=O)N([H])[H])c6N([H])[H])C5([H])[H])c([H])c4C([H])([H])[H])C3([H])[H])c([H])c([H])c2C1([H])[H]

$$$$
78:0:0
     RDKit          3D

 92101  0  0  1  0  0  0  0  0999 V2000
  -26.6150  -24.9000   21.1170 C   0  0  0  0  0  3  0  0  0  0  0  0
  -27.3990  -22.1920   20.8420 C   0  0  0  0  0  3  0  0  0  0  0  0
  -27.8750  -24.5880   20.5730 C   0  0  0  0  0  0  0  0  0  0  0  0
  -25.7410  -23.8680   21.5220 C   0  0  0  0  0  0  0  0  0  0  0  0
  -26.1420  -22.5140   21.3970 C   0  0  0  0  0  0  0  0  0  0  0  0
  -28.2960  -23.2040   20.4380 C   0  0  0  0  0  0  0  0  0  0  0  0
  -30.0370  -24.4030   19.7990 C   0  0  0  0  0  3  0  0  0  0  0  0
  -28.9770  -25.6210   20.3440 C   0  0  0  0  0  0  0  0  0  0  0  0
  -24.3930  -24.2230   22.1290 C   0  0  0  0  0  1  0  0  0  0  0  0
  -25.2500  -21.3890   21.8970 C   0  0  0  0  0  1  0  0  0  0  0  0
  -29.6100  -22.8810   19.9610 N   0  0  0  0  0  0  0  0  0  0  0  0
  -28.7930  -27.2380   20.0210 O   0  0  0  0  0  0  0  0  0  0  0  0
  -25.1150  -32.4430   24.0940 C   0  0  0  0  0  0  0  0  0  0  0  0
  -27.7200  -28.2450   20.2530 C   0  0  0  0  0  0  0  0  0  0  0  0
  -23.9390  -31.3880   22.2020 C   0  0  0  0  0  3  0  0  0  0  0  0
  -25.4080  -30.0790   20.5250 C   0  0  0  0  0  0  0  0  0  0  0  0
  -26.5020  -31.6410   22.1200 C   0  0  0  0  0  2  0  0  0  0  0  0
  -26.5860  -30.3740   21.2230 C   0  0  0  0  0  0  0  0  0  0  0  0
  -27.7380  -29.4860   21.0590 C   0  0  0  0  0  3  0  0  0  0  0  0
  -26.5160  -28.1040   19.5340 C   0  0  0  0  0  3  0  0  0  0  0  0
  -25.3950  -28.9690   19.6640 C   0  0  0  0  0  3  0  0  0  0  0  0
  -24.1860  -30.9740   20.7230 C   0  0  0  0  0  2  0  0  0  0  0  0
  -25.2060  -31.8410   22.8650 N   0  0  0  0  0  0  0  0  0  0  0  0
  -24.0220  -32.6220   24.6540 O   0  0  0  0  0  0  0  0  0  0  0  0
  -23.2440  -30.2220   22.9530 C   0  0  0  0  0  0  0  0  0  0  0  0
  -21.9410  -30.0070   22.6980 N   0  0  0  0  0  0  0  0  0  0  0  0
  -23.8880  -29.5170   23.7340 O   0  0  0  0  0  0  0  0  0  0  0  0
  -21.4690  -30.6350   22.0610 H   0  0  0  0  0  0  0  0  0  0  0  0
  -18.6270  -28.5400   22.7380 C   0  0  0  0  0  0  0  0  0  0  0  0
  -21.1310  -28.9210   23.2600 C   0  0  0  0  0  3  0  0  0  0  0  0
  -21.3800  -27.5950   22.5040 C   0  0  0  0  0  2  0  0  0  0  0  0
  -20.3880  -27.3580   21.3590 C   0  0  0  0  0  2  0  0  0  0  0  0
  -18.9540  -27.3200   21.8930 C   0  0  0  0  0  2  0  0  0  0  0  0
  -19.6480  -29.3000   23.3680 C   0  0  0  0  0  0  0  0  0  0  0  0
  -19.2880  -30.4410   24.1160 C   0  0  0  0  0  3  0  0  0  0  0  0
  -17.9390  -30.8280   24.2360 C   0  0  0  0  0  3  0  0  0  0  0  0
  -16.9310  -30.0660   23.6200 C   0  0  0  0  0  3  0  0  0  0  0  0
  -17.2750  -28.9220   22.8800 C   0  0  0  0  0  3  0  0  0  0  0  0
  -26.3780  -32.9570   24.8520 C   0  0  0  0  0  3  0  0  0  0  0  0
  -26.7590  -32.0580   26.0940 C   0  0  1  0  0  0  0  0  0  0  0  0
  -25.5710  -31.7690   27.0410 C   0  0  0  0  0  1  0  0  0  0  0  0
  -27.3290  -30.6970   25.6320 C   0  0  0  0  0  1  0  0  0  0  0  0
  -27.8720  -32.7410   26.9210 C   0  0  0  0  0  1  0  0  0  0  0  0
  -26.1200  -34.3400   25.2900 N   0  0  0  0  0  0  0  0  0  0  0  0
  -26.5530  -35.4420   24.6600 C   0  0  0  0  0  0  0  0  0  0  0  0
  -27.2780  -35.3930   23.6640 O   0  0  0  0  0  0  0  0  0  0  0  0
  -25.4970  -34.4530   26.0760 H   0  0  0  0  0  0  0  0  0  0  0  0
  -24.9440  -37.3560   24.3860 C   0  0  0  0  0  1  0  0  0  0  0  0
  -26.1160  -36.8130   25.2200 C   0  0  0  0  0  3  0  0  0  0  0  0
  -28.2470  -37.4880   26.2360 C   0  0  0  0  0  1  0  0  0  0  0  0
  -27.2080  -37.8100   25.2590 N   0  0  0  0  0  0  0  0  0  0  0  0
  -26.8470  -38.7350   25.4750 H   0  0  0  0  0  0  0  0  0  0  0  0
  -30.3410  -21.4790   20.4340 C   0  0  0  0  0  2  0  0  0  0  0  0
  -30.4490  -19.8160   19.7590 C   0  0  0  0  0  2  0  0  0  0  0  0
  -31.2780  -18.5780   21.9110 C   0  0  0  0  0  1  0  0  0  0  0  0
  -30.6370  -18.2120   20.5570 C   0  0  0  0  0  3  0  0  0  0  0  0
  -31.3790  -16.6710   20.1340 C   0  0  0  0  0  0  0  0  0  0  0  0
  -31.4760  -14.1780   19.3870 C   0  0  0  0  0  2  0  0  0  0  0  0
  -30.6060  -13.8770   18.1390 C   0  0  0  0  0  2  0  0  0  0  0  0
  -29.1620  -13.5630   18.5580 C   0  0  0  0  0  2  0  0  0  0  0  0
  -28.6370  -14.5610   19.6200 C   0  0  0  0  0  3  0  0  0  0  0  0
  -29.6430  -14.8190   20.7660 C   0  0  0  0  0  2  0  0  0  0  0  0
  -30.8800  -15.3340   20.1580 N   0  0  0  0  0  0  0  0  0  0  0  0
  -32.5670  -16.6970   19.7830 O   0  0  0  0  0  0  0  0  0  0  0  0
  -26.2540  -15.0460   20.3830 C   0  0  0  0  0  0  0  0  0  0  0  0
  -25.2040  -14.2370   20.7150 C   0  0  0  0  0  0  0  0  0  0  0  0
  -25.6930  -12.8970   20.6320 C   0  0  0  0  0  0  0  0  0  0  0  0
  -27.3120  -14.2000   20.1090 N   0  0  0  0  0  0  0  0  0  0  0  0
  -26.9890  -12.8980   20.3280 N   0  0  0  0  0  0  0  0  0  0  0  0
  -24.9870  -11.6180   20.7690 C   0  0  0  0  0  0  0  0  0  0  0  0
  -25.2960  -10.7080   21.8030 C   0  0  0  0  0  3  0  0  0  0  0  0
  -24.5880   -9.4950   21.9270 C   0  0  0  0  0  3  0  0  0  0  0  0
  -23.5550   -9.1790   21.0110 C   0  0  0  0  0  0  0  0  0  0  0  0
  -23.2660  -10.0770   19.9680 C   0  0  0  0  0  3  0  0  0  0  0  0
  -23.9760  -11.2830   19.8450 C   0  0  0  0  0  3  0  0  0  0  0  0
  -22.8310   -8.0120   21.0360 O   0  0  0  0  0  0  0  0  0  0  0  0
  -22.4130   -7.4480   22.2140 C   0  0  0  0  0  0  0  0  0  0  0  0
  -21.5830   -8.1450   23.1210 C   0  0  0  0  0  3  0  0  0  0  0  0
  -21.1220   -7.5030   24.2870 C   0  0  0  0  0  3  0  0  0  0  0  0
  -21.4800   -6.1660   24.5460 C   0  0  0  0  0  0  0  0  0  0  0  0
  -22.3020   -5.4700   23.6420 C   0  0  0  0  0  3  0  0  0  0  0  0
  -22.7650   -6.1090   22.4780 C   0  0  0  0  0  0  0  0  0  0  0  0
  -23.5380   -5.4260   21.6000 F   0  0  0  0  0  0  0  0  0  0  0  0
  -21.0290   -5.5480   25.6620 F   0  0  0  0  0  0  0  0  0  0  0  0
  -23.7980  -14.6800   20.9940 C   0  0  0  0  0  0  0  0  0  0  0  0
  -23.0910  -13.9570   21.8550 N   0  0  0  0  0  0  0  0  0  0  0  0
  -23.3360  -15.7010   20.4860 O   0  0  0  0  0  0  0  0  0  0  0  0
  -23.4810  -13.1300   22.2820 H   0  0  0  0  0  0  0  0  0  0  0  0
  -22.1500  -14.2360   22.0910 H   0  0  0  0  0  0  0  0  0  0  0  0
  -26.3930  -16.4270   20.2680 N   0  0  0  0  0  0  0  0  0  0  0  0
  -25.6090  -17.0550   20.4120 H   0  0  0  0  0  0  0  0  0  0  0  0
  -27.2340  -16.9030   19.9700 H   0  0  0  0  0  0  0  0  0  0  0  0
  1  4  1  0
  2  5  1  0
  3  1  2  0
  4  9  1  0
  5  4  2  0
  5 10  1  0
  6  3  1  0
  6  2  2  0
  7 11  1  0
  7  8  2  0
  8  3  1  0
 11 53  1  0
 11  6  1  0
 12 14  1  0
 12  8  1  0
 13 24  2  0
 14 19  1  0
 15 23  1  0
 15 25  1  0
 16 22  1  0
 16 18  1  0
 17 23  1  0
 18 17  1  0
 19 18  2  0
 20 21  1  0
 20 14  2  0
 21 16  2  0
 22 15  1  0
 23 13  1  0
 25 27  2  0
 26 25  1  0
 28 26  1  0
 29 38  2  0
 29 34  1  0
 30 26  1  0
 30 34  1  0
 31 30  1  0
 32 33  1  0
 32 31  1  0
 33 29  1  0
 34 35  2  0
 35 36  1  0
 37 36  2  0
 38 37  1  0
 39 13  1  0
 39 44  1  0
 39 40  1  0
 40 43  1  1
 40 41  1  0
 42 40  1  0
 44 47  1  0
 45 49  1  0
 45 44  1  0
 46 45  2  0
 49 48  1  0
 49 51  1  0
 51 52  1  0
 51 50  1  0
 54 53  1  0
 54 56  1  0
 56 55  1  0
 57 63  1  0
 57 56  1  0
 58 63  1  0
 59 60  1  0
 59 58  1  0
 61 60  1  0
 61 68  1  0
 61 62  1  0
 63 62  1  0
 64 57  2  0
 65 66  2  0
 66 85  1  0
 67 66  1  0
 67 70  1  0
 68 69  1  0
 68 65  1  0
 69 67  2  0
 70 71  1  0
 71 72  2  0
 73 76  1  0
 73 72  1  0
 74 73  2  0
 75 74  1  0
 75 70  2  0
 76 77  1  0
 77 82  2  0
 77 78  1  0
 78 79  2  0
 79 80  1  0
 80 84  1  0
 81 80  2  0
 82 81  1  0
 83 82  1  0
 85 86  1  0
 86 89  1  0
 86 88  1  0
 87 85  2  0
 90 65  1  0
 90 91  1  0
 92 90  1  0
M  ISO  4   8 101  12 101  56 100  57 100
M  END
>  <TORSDO>  (79) 
F 19

>  <SCORE>  (79) 
-1.920

>  <name>  (79) 
78

>  <ligand_id>  (79) 
78

>  <original_smiles>  (79) 
[H]c1c([H])c([H])c2c(c1[H])C([H])([H])C([H])([H])C([H])([H])C2([H])N([H])C(=O)C1([H])N(C(=O)C([H])(N([H])C(=O)C([H])(N([H])C([H])([H])[H])C([H])([H])[H])C(C([H])([H])[H])(C([H])([H])[H])C([H])([H])[H])C([H])([H])c2c([H])c(OC3([H])c4c([H])c(C([H])([H])[H])c(C([H])([H])[H])c([H])c4N(C([H])([H])C([H])([H])C([H])(C(=O)N4C([H])([H])C([H])([H])C([H])([H])C([H])(n5nc(-c6c([H])c([H])c(Oc7c([H])c([H])c(F)c([H])c7F)c([H])c6[H])c(C(=O)N([H])[H])c5N([H])[H])C4([H])[H])C([H])([H])[H])C3([H])[H])c([H])c([H])c2C1([H])[H]

>  <smiles>  (79) 
[H]c1c([H])c([H])c2c(c1[H])C([H])([H])C([H])([H])C([H])([H])C2([H])N([H])C(=O)C1([H])N(C(=O)C([H])(N([H])C(=O)C([H])(N([H])C([H])([H])[H])C([H])([H])[H])C(C([H])([H])[H])(C([H])([H])[H])C([H])([H])[H])C([H])([H])c2c([H])c(OC3([H])c4c([H])c(C([H])([H])[H])c(C([H])([H])[H])c([H])c4N(C([H])([H])C([H])([H])C([H])(C(=O)N4C([H])([H])C([H])([H])C([H])([H])C([H])(n5nc(-c6c([H])c([H])c(Oc7c([H])c([H])c(F)c([H])c7F)c([H])c6[H])c(C(=O)N([H])[H])c5N([H])[H])C4([H])[H])C([H])([H])[H])C3([H])[H])c([H])c([H])c2C1([H])[H]

$$$$
79:0:0
     RDKit          3D

 88 96  0  0  1  0  0  0  0  0999 V2000
  -31.9910  -21.0690   20.3170 C   0  0  0  0  0  3  0  0  0  0  0  0
  -31.7030  -22.4230   20.3220 C   0  0  0  0  0  3  0  0  0  0  0  0
  -30.9620  -20.1270   20.3010 C   0  0  0  0  0  3  0  0  0  0  0  0
  -30.3820  -22.8700   20.3070 C   0  0  0  0  0  3  0  0  0  0  0  0
  -29.5640  -20.3900   20.2890 C   0  0  0  0  0  0  0  0  0  0  0  0
  -29.2050  -22.0740   20.2880 C   0  0  0  0  0  0  0  0  0  0  0  0
  -30.1650  -15.8360   20.1760 C   0  0  0  0  0  0  0  0  0  0  0  0
  -30.3470  -13.2590   19.3360 C   0  0  0  0  0  2  0  0  0  0  0  0
  -29.4550  -12.7940   18.1440 C   0  0  0  0  0  2  0  0  0  0  0  0
  -28.0490  -12.3940   18.6170 C   0  0  0  0  0  2  0  0  0  0  0  0
  -27.5260  -13.3840   19.6800 C   0  0  0  0  0  3  0  0  0  0  0  0
  -28.5630  -13.7400   20.7750 C   0  0  0  0  0  2  0  0  0  0  0  0
  -29.6980  -14.4290   20.1050 N   0  0  0  0  0  0  0  0  0  0  0  0
  -31.3990  -15.7930   19.9930 O   0  0  0  0  0  0  0  0  0  0  0  0
  -28.9240  -18.7250   20.3030 C   0  0  0  0  0  0  0  0  0  0  0  0
  -29.2910  -17.1600   20.2680 N   0  0  0  0  0  0  0  0  0  0  0  0
  -27.6970  -18.8270   20.3780 O   0  0  0  0  0  0  0  0  0  0  0  0
  -28.3670  -16.7700   20.3460 H   0  0  0  0  0  0  0  0  0  0  0  0
  -25.1680  -13.8700   20.4760 C   0  0  0  0  0  0  0  0  0  0  0  0
  -24.1260  -13.0740   20.8540 C   0  0  0  0  0  0  0  0  0  0  0  0
  -24.6160  -11.7320   20.8140 C   0  0  0  0  0  0  0  0  0  0  0  0
  -26.2230  -13.0180   20.2170 N   0  0  0  0  0  0  0  0  0  0  0  0
  -25.9070  -11.7220   20.4870 N   0  0  0  0  0  0  0  0  0  0  0  0
  -23.9080  -10.4580   21.0090 C   0  0  0  0  0  0  0  0  0  0  0  0
  -24.3530   -9.4980   21.9440 C   0  0  0  0  0  3  0  0  0  0  0  0
  -23.6390   -8.2940   22.1290 C   0  0  0  0  0  3  0  0  0  0  0  0
  -22.4650   -8.0420   21.3790 C   0  0  0  0  0  0  0  0  0  0  0  0
  -22.0380   -8.9910   20.4340 C   0  0  0  0  0  3  0  0  0  0  0  0
  -22.7530  -10.1870   20.2480 C   0  0  0  0  0  3  0  0  0  0  0  0
  -21.7220   -6.8890   21.4740 O   0  0  0  0  0  0  0  0  0  0  0  0
  -21.6800   -6.1520   22.6310 C   0  0  0  0  0  0  0  0  0  0  0  0
  -21.2430   -6.7070   23.8530 C   0  0  0  0  0  3  0  0  0  0  0  0
  -21.1490   -5.8960   25.0010 C   0  0  0  0  0  3  0  0  0  0  0  0
  -21.4830   -4.5310   24.9290 C   0  0  0  0  0  0  0  0  0  0  0  0
  -21.9140   -3.9740   23.7110 C   0  0  0  0  0  3  0  0  0  0  0  0
  -22.0090   -4.7830   22.5650 C   0  0  0  0  0  0  0  0  0  0  0  0
  -22.4040   -4.2370   21.3900 F   0  0  0  0  0  0  0  0  0  0  0  0
  -21.3870   -3.7490   26.0300 F   0  0  0  0  0  0  0  0  0  0  0  0
  -22.7230  -13.5290   21.1310 C   0  0  0  0  0  0  0  0  0  0  0  0
  -22.0130  -12.8310   22.0090 N   0  0  0  0  0  0  0  0  0  0  0  0
  -22.2670  -14.5440   20.6040 O   0  0  0  0  0  0  0  0  0  0  0  0
  -22.3970  -12.0130   22.4570 H   0  0  0  0  0  0  0  0  0  0  0  0
  -21.0730  -13.1190   22.2370 H   0  0  0  0  0  0  0  0  0  0  0  0
  -25.3000  -15.2440   20.2950 N   0  0  0  0  0  0  0  0  0  0  0  0
  -24.5140  -15.8750   20.4070 H   0  0  0  0  0  0  0  0  0  0  0  0
  -26.1140  -15.6950   19.9030 H   0  0  0  0  0  0  0  0  0  0  0  0
  -28.0060  -23.5550   20.2560 C   0  0  0  0  0  2  0  0  0  0  0  0
  -28.1580  -25.3710   20.3230 O   0  0  0  0  0  0  0  0  0  0  0  0
  -24.7000  -31.8460   23.2020 C   0  0  0  0  0  0  0  0  0  0  0  0
  -27.1990  -26.6360   20.2710 C   0  0  0  0  0  0  0  0  0  0  0  0
  -23.5120  -30.4420   21.5750 C   0  0  0  0  0  3  0  0  0  0  0  0
  -24.9520  -28.7510   20.1880 C   0  0  0  0  0  0  0  0  0  0  0  0
  -26.0970  -30.5350   21.4710 C   0  0  0  0  0  2  0  0  0  0  0  0
  -26.1510  -29.0850   20.8260 C   0  0  0  0  0  0  0  0  0  0  0  0
  -27.2530  -28.0600   20.8300 C   0  0  0  0  0  3  0  0  0  0  0  0
  -25.9630  -26.5390   19.5740 C   0  0  0  0  0  3  0  0  0  0  0  0
  -24.9040  -27.5050   19.5350 C   0  0  0  0  0  3  0  0  0  0  0  0
  -23.7550  -29.7230   20.2140 C   0  0  0  0  0  2  0  0  0  0  0  0
  -24.7950  -30.9760   22.1350 N   0  0  0  0  0  0  0  0  0  0  0  0
  -23.6060  -32.1610   23.7020 O   0  0  0  0  0  0  0  0  0  0  0  0
  -22.7760  -29.4850   22.5550 C   0  0  0  0  0  0  0  0  0  0  0  0
  -21.4400  -29.3510   22.4320 N   0  0  0  0  0  0  0  0  0  0  0  0
  -23.4210  -28.8620   23.4000 O   0  0  0  0  0  0  0  0  0  0  0  0
  -20.9680  -29.9030   21.7300 H   0  0  0  0  0  0  0  0  0  0  0  0
  -18.0390  -28.1720   22.9530 C   0  0  0  0  0  0  0  0  0  0  0  0
  -20.6030  -28.4280   23.2100 C   0  0  0  0  0  3  0  0  0  0  0  0
  -20.6920  -26.9890   22.6490 C   0  0  0  0  0  2  0  0  0  0  0  0
  -19.5880  -26.6660   21.6360 C   0  0  0  0  0  2  0  0  0  0  0  0
  -18.2080  -26.8210   22.2800 C   0  0  0  0  0  2  0  0  0  0  0  0
  -19.1630  -28.9330   23.3750 C   0  0  0  0  0  0  0  0  0  0  0  0
  -18.9460  -30.1940   23.9720 C   0  0  0  0  0  3  0  0  0  0  0  0
  -17.6420  -30.6960   24.1460 C   0  0  0  0  0  3  0  0  0  0  0  0
  -16.5350  -29.9330   23.7350 C   0  0  0  0  0  3  0  0  0  0  0  0
  -16.7350  -28.6730   23.1460 C   0  0  0  0  0  3  0  0  0  0  0  0
  -25.9620  -32.4980   23.8460 C   0  0  0  0  0  3  0  0  0  0  0  0
  -25.6370  -33.8980   24.1910 N   0  0  0  0  0  0  0  0  0  0  0  0
  -25.9430  -34.9700   23.4470 C   0  0  0  0  0  0  0  0  0  0  0  0
  -26.5830  -34.8850   22.3970 O   0  0  0  0  0  0  0  0  0  0  0  0
  -25.0610  -34.0360   25.0090 H   0  0  0  0  0  0  0  0  0  0  0  0
  -24.1830  -36.7580   23.2050 C   0  0  0  0  0  1  0  0  0  0  0  0
  -25.4690  -36.3550   23.9420 C   0  0  0  0  0  3  0  0  0  0  0  0
  -27.6350  -37.2650   24.6650 C   0  0  0  0  0  1  0  0  0  0  0  0
  -26.4840  -37.4210   23.7800 N   0  0  0  0  0  0  0  0  0  0  0  0
  -26.0760  -38.3360   23.9490 H   0  0  0  0  0  0  0  0  0  0  0  0
  -26.4580  -31.7370   25.1390 C   0  0  1  0  0  0  0  0  0  0  0  0
  -25.3510  -31.5160   26.1990 C   0  0  0  0  0  1  0  0  0  0  0  0
  -27.0380  -30.3520   24.7820 C   0  0  0  0  0  1  0  0  0  0  0  0
  -27.6050  -32.5310   25.8070 C   0  0  0  0  0  1  0  0  0  0  0  0
  1  2  1  0
  3  1  2  0
  4  2  2  0
  5  3  1  0
  5 15  1  0
  6  5  2  0
  6  4  1  0
  7 16  1  0
  8 13  1  0
  9 10  1  0
  9  8  1  0
 11 10  1  0
 11 22  1  0
 11 12  1  0
 13  7  1  0
 13 12  1  0
 14  7  2  0
 15 17  2  0
 16 15  1  0
 16 18  1  0
 19 20  2  0
 20 39  1  0
 21 20  1  0
 21 24  1  0
 22 19  1  0
 22 23  1  0
 23 21  2  0
 24 25  1  0
 25 26  2  0
 27 30  1  0
 27 26  1  0
 28 27  2  0
 29 28  1  0
 29 24  2  0
 30 31  1  0
 31 32  1  0
 32 33  2  0
 34 33  1  0
 34 38  1  0
 35 34  2  0
 36 31  2  0
 36 35  1  0
 37 36  1  0
 39 40  1  0
 40 43  1  0
 40 42  1  0
 41 39  2  0
 44 45  1  0
 44 19  1  0
 46 44  1  0
 47  6  1  0
 47 48  1  0
 49 60  2  0
 50 48  1  0
 50 55  1  0
 51 59  1  0
 51 61  1  0
 52 58  1  0
 52 54  1  0
 53 59  1  0
 54 55  2  0
 54 53  1  0
 56 50  2  0
 57 56  1  0
 57 52  2  0
 58 51  1  0
 59 49  1  0
 61 63  2  0
 62 61  1  0
 64 62  1  0
 65 74  2  0
 65 70  1  0
 66 62  1  0
 66 70  1  0
 67 66  1  0
 68 69  1  0
 68 67  1  0
 69 65  1  0
 70 71  2  0
 71 72  1  0
 73 72  2  0
 74 73  1  0
 75 49  1  0
 75 76  1  0
 75 85  1  0
 76 79  1  0
 77 81  1  0
 77 76  1  0
 78 77  2  0
 81 80  1  0
 83 81  1  0
 83 84  1  0
 83 82  1  0
 85 88  1  1
 85 86  1  0
 87 85  1  0
M  ISO  4   7 100  16 100  47 101  48 101
M  END
>  <TORSDO>  (80) 
F 17

>  <SCORE>  (80) 
-16.691

>  <name>  (80) 
79

>  <ligand_id>  (80) 
79

>  <original_smiles>  (80) 
[H]c1c([H])c([H])c(C([H])([H])Oc2c([H])c([H])c3c(c2[H])C([H])([H])N(C(=O)C([H])(N([H])C(=O)C([H])(N([H])C([H])([H])[H])C([H])([H])[H])C(C([H])([H])[H])(C([H])([H])[H])C([H])([H])[H])C([H])(C(=O)N([H])C2([H])c4c([H])c([H])c([H])c([H])c4C([H])([H])C([H])([H])C2([H])[H])C3([H])[H])c(C(=O)N([H])C(=O)N2C([H])([H])C([H])([H])C([H])([H])C([H])(n3nc(-c4c([H])c([H])c(Oc5c([H])c([H])c(F)c([H])c5F)c([H])c4[H])c(C(=O)N([H])[H])c3N([H])[H])C2([H])[H])c1[H]

>  <smiles>  (80) 
[H]c1c([H])c([H])c(C([H])([H])Oc2c([H])c([H])c3c(c2[H])C([H])([H])N(C(=O)C([H])(N([H])C(=O)C([H])(N([H])C([H])([H])[H])C([H])([H])[H])C(C([H])([H])[H])(C([H])([H])[H])C([H])([H])[H])C([H])(C(=O)N([H])C2([H])c4c([H])c([H])c([H])c([H])c4C([H])([H])C([H])([H])C2([H])[H])C3([H])[H])c(C(=O)N([H])C(=O)N2C([H])([H])C([H])([H])C([H])([H])C([H])(n3nc(-c4c([H])c([H])c(Oc5c([H])c([H])c(F)c([H])c5F)c([H])c4[H])c(C(=O)N([H])[H])c3N([H])[H])C2([H])[H])c1[H]

$$$$
80:0:0
     RDKit          3D

 94103  0  0  1  0  0  0  0  0999 V2000
  -29.0310  -24.4860   22.6480 C   0  0  0  0  0  3  0  0  0  0  0  0
  -29.8560  -23.4600   20.6000 C   0  0  0  0  0  3  0  0  0  0  0  0
  -28.7430  -25.6730   21.9440 C   0  0  0  0  0  3  0  0  0  0  0  0
  -29.5690  -24.6500   19.8970 C   0  0  0  0  0  3  0  0  0  0  0  0
  -29.5860  -23.3650   21.9870 C   0  0  0  0  0  0  0  0  0  0  0  0
  -29.0120  -25.7610   20.5620 C   0  0  0  0  0  0  0  0  0  0  0  0
  -29.9220  -22.1250   22.7730 C   0  0  0  0  0  0  0  0  0  0  0  0
  -29.7390  -20.9510   22.1500 N   0  0  0  0  0  0  0  0  0  0  0  0
  -30.2650  -22.2110   23.9550 O   0  0  0  0  0  0  0  0  0  0  0  0
  -29.4300  -20.9890   21.1900 H   0  0  0  0  0  0  0  0  0  0  0  0
  -29.7640  -19.6350   22.7970 C   0  0  0  0  0  2  0  0  0  0  0  0
  -31.2960  -16.0900   22.0600 C   0  0  0  0  0  2  0  0  0  0  0  0
  -30.5930  -17.1140   19.8810 C   0  0  0  0  0  2  0  0  0  0  0  0
  -30.6180  -17.2460   22.8230 C   0  0  0  0  0  2  0  0  0  0  0  0
  -29.8990  -18.2780   20.6170 C   0  0  0  0  0  2  0  0  0  0  0  0
  -30.5770  -15.8180   20.7250 C   0  0  0  0  0  3  0  0  0  0  0  0
  -30.5320  -18.5540   21.9990 C   0  0  0  0  0  3  0  0  0  0  0  0
  -31.1840  -14.6120   19.9570 C   0  0  0  0  0  0  0  0  0  0  0  0
  -30.7150  -12.5410   18.6960 C   0  0  0  0  0  2  0  0  0  0  0  0
  -29.6790  -12.8530   17.5960 C   0  0  0  0  0  2  0  0  0  0  0  0
  -28.2410  -12.7470   18.1450 C   0  0  0  0  0  2  0  0  0  0  0  0
  -28.0520  -13.5180   19.4790 C   0  0  0  0  0  3  0  0  0  0  0  0
  -29.1860  -13.1680   20.4700 C   0  0  0  0  0  2  0  0  0  0  0  0
  -30.4670  -13.4640   19.8110 N   0  0  0  0  0  0  0  0  0  0  0  0
  -32.2650  -14.7810   19.3830 O   0  0  0  0  0  0  0  0  0  0  0  0
  -25.7610  -14.1840   20.4490 C   0  0  0  0  0  0  0  0  0  0  0  0
  -24.6860  -13.4360   20.8510 C   0  0  0  0  0  0  0  0  0  0  0  0
  -25.0660  -12.0720   20.6700 C   0  0  0  0  0  0  0  0  0  0  0  0
  -26.7310  -13.2750   20.0560 N   0  0  0  0  0  0  0  0  0  0  0  0
  -26.3200  -11.9950   20.2430 N   0  0  0  0  0  0  0  0  0  0  0  0
  -24.2910  -10.8350   20.8260 C   0  0  0  0  0  0  0  0  0  0  0  0
  -24.7080   -9.8070   21.7010 C   0  0  0  0  0  3  0  0  0  0  0  0
  -23.9350   -8.6340   21.8460 C   0  0  0  0  0  3  0  0  0  0  0  0
  -22.7320   -8.4820   21.1190 C   0  0  0  0  0  0  0  0  0  0  0  0
  -22.3320   -9.4980   20.2340 C   0  0  0  0  0  3  0  0  0  0  0  0
  -23.1050  -10.6630   20.0840 C   0  0  0  0  0  3  0  0  0  0  0  0
  -21.9310   -7.3660   21.1770 O   0  0  0  0  0  0  0  0  0  0  0  0
  -21.8110   -6.6280   22.3260 C   0  0  0  0  0  0  0  0  0  0  0  0
  -21.3780   -7.2020   23.5410 C   0  0  0  0  0  3  0  0  0  0  0  0
  -21.2020   -6.3910   24.6800 C   0  0  0  0  0  3  0  0  0  0  0  0
  -21.4480   -5.0060   24.6040 C   0  0  0  0  0  0  0  0  0  0  0  0
  -21.8740   -4.4310   23.3940 C   0  0  0  0  0  3  0  0  0  0  0  0
  -22.0520   -5.2400   22.2580 C   0  0  0  0  0  0  0  0  0  0  0  0
  -22.4420   -4.6780   21.0870 F   0  0  0  0  0  0  0  0  0  0  0  0
  -21.2720   -4.2260   25.6960 F   0  0  0  0  0  0  0  0  0  0  0  0
  -23.3470  -13.9570   21.2900 C   0  0  0  0  0  0  0  0  0  0  0  0
  -22.6810  -13.2470   22.1930 N   0  0  0  0  0  0  0  0  0  0  0  0
  -22.9060  -15.0250   20.8680 O   0  0  0  0  0  0  0  0  0  0  0  0
  -23.0500  -12.3800   22.5540 H   0  0  0  0  0  0  0  0  0  0  0  0
  -21.7870  -13.5760   22.5300 H   0  0  0  0  0  0  0  0  0  0  0  0
  -25.9870  -15.5560   20.3650 N   0  0  0  0  0  0  0  0  0  0  0  0
  -25.2740  -16.2370   20.5980 H   0  0  0  0  0  0  0  0  0  0  0  0
  -26.8360  -15.9770   20.0110 H   0  0  0  0  0  0  0  0  0  0  0  0
  -28.8130  -26.9310   19.8730 O   0  0  0  0  0  0  0  0  0  0  0  0
  -24.7370  -31.7610   23.1590 C   0  0  0  0  0  0  0  0  0  0  0  0
  -27.5950  -27.5590   19.9640 C   0  0  0  0  0  0  0  0  0  0  0  0
  -23.5950  -30.3440   21.4800 C   0  0  0  0  0  3  0  0  0  0  0  0
  -25.1210  -28.9120   20.0210 C   0  0  0  0  0  0  0  0  0  0  0  0
  -26.0950  -30.8380   21.2870 C   0  0  0  0  0  2  0  0  0  0  0  0
  -26.2490  -29.4870   20.6210 C   0  0  0  0  0  0  0  0  0  0  0  0
  -27.4890  -28.8160   20.5940 C   0  0  0  0  0  3  0  0  0  0  0  0
  -26.4550  -26.9830   19.3660 C   0  0  0  0  0  3  0  0  0  0  0  0
  -25.2170  -27.6550   19.3960 C   0  0  0  0  0  3  0  0  0  0  0  0
  -23.8350  -29.7040   20.0860 C   0  0  0  0  0  2  0  0  0  0  0  0
  -24.8270  -30.9950   22.0350 N   0  0  0  0  0  0  0  0  0  0  0  0
  -23.6450  -31.9660   23.7070 O   0  0  0  0  0  0  0  0  0  0  0  0
  -22.9980  -29.2690   22.4160 C   0  0  0  0  0  0  0  0  0  0  0  0
  -21.6840  -29.0240   22.2840 N   0  0  0  0  0  0  0  0  0  0  0  0
  -23.7130  -28.6580   23.2150 O   0  0  0  0  0  0  0  0  0  0  0  0
  -21.1660  -29.5740   21.6120 H   0  0  0  0  0  0  0  0  0  0  0  0
  -18.3820  -27.6250   22.7120 C   0  0  0  0  0  0  0  0  0  0  0  0
  -20.9160  -28.0280   23.0280 C   0  0  0  0  0  3  0  0  0  0  0  0
  -21.1120  -26.6150   22.4320 C   0  0  0  0  0  2  0  0  0  0  0  0
  -20.0460  -26.2440   21.3960 C   0  0  0  0  0  2  0  0  0  0  0  0
  -18.6480  -26.2990   22.0210 C   0  0  0  0  0  2  0  0  0  0  0  0
  -19.4470  -28.4450   23.1710 C   0  0  0  0  0  0  0  0  0  0  0  0
  -19.1470  -29.6860   23.7730 C   0  0  0  0  0  3  0  0  0  0  0  0
  -17.8120  -30.1080   23.9240 C   0  0  0  0  0  3  0  0  0  0  0  0
  -16.7610  -29.2860   23.4840 C   0  0  0  0  0  3  0  0  0  0  0  0
  -17.0470  -28.0470   22.8830 C   0  0  0  0  0  3  0  0  0  0  0  0
  -25.9930  -32.4350   23.7930 C   0  0  0  0  0  3  0  0  0  0  0  0
  -26.5400  -31.6670   25.0580 C   0  0  1  0  0  0  0  0  0  0  0  0
  -25.4530  -31.3600   26.1150 C   0  0  0  0  0  1  0  0  0  0  0  0
  -27.1890  -30.3260   24.6430 C   0  0  0  0  0  1  0  0  0  0  0  0
  -27.6490  -32.5030   25.7420 C   0  0  0  0  0  1  0  0  0  0  0  0
  -25.6280  -33.8150   24.1390 N   0  0  0  0  0  0  0  0  0  0  0  0
  -25.9460  -34.8910   23.4060 C   0  0  0  0  0  0  0  0  0  0  0  0
  -26.6490  -34.8290   22.3940 O   0  0  0  0  0  0  0  0  0  0  0  0
  -25.0060  -33.9360   24.9250 H   0  0  0  0  0  0  0  0  0  0  0  0
  -24.1580  -36.6180   23.0380 C   0  0  0  0  0  1  0  0  0  0  0  0
  -25.3960  -36.2530   23.8720 C   0  0  0  0  0  3  0  0  0  0  0  0
  -27.4840  -37.1980   24.7520 C   0  0  0  0  0  1  0  0  0  0  0  0
  -26.3890  -37.3460   23.7960 N   0  0  0  0  0  0  0  0  0  0  0  0
  -25.9450  -38.2460   23.9610 H   0  0  0  0  0  0  0  0  0  0  0  0
  2  5  2  0
  3  1  2  0
  4  6  2  0
  4  2  1  0
  5  1  1  0
  5  7  1  0
  6  3  1  0
  7  9  2  0
  8  7  1  0
  8 11  1  0
 10  8  1  0
 12 14  1  0
 13 15  1  0
 13 16  1  0
 15 17  1  0
 16 18  1  0
 16 12  1  0
 17 11  1  0
 17 14  1  0
 19 24  1  0
 20 21  1  0
 20 19  1  0
 22 21  1  0
 22 29  1  0
 22 23  1  0
 24 18  1  0
 24 23  1  0
 25 18  2  0
 26 27  2  0
 27 46  1  0
 28 31  1  0
 28 27  1  0
 29 30  1  0
 29 26  1  0
 30 28  2  0
 31 32  1  0
 32 33  2  0
 34 37  1  0
 34 33  1  0
 35 34  2  0
 36 35  1  0
 36 31  2  0
 37 38  1  0
 38 39  1  0
 39 40  2  0
 41 40  1  0
 41 45  1  0
 42 41  2  0
 43 38  2  0
 43 42  1  0
 44 43  1  0
 46 47  1  0
 47 50  1  0
 47 49  1  0
 48 46  2  0
 51 26  1  0
 51 52  1  0
 53 51  1  0
 54 56  1  0
 54  6  1  0
 55 66  2  0
 56 61  1  0
 57 65  1  0
 57 67  1  0
 58 64  1  0
 58 60  1  0
 59 65  1  0
 60 59  1  0
 61 60  2  0
 62 63  1  0
 62 56  2  0
 63 58  2  0
 64 57  1  0
 65 55  1  0
 67 69  2  0
 68 67  1  0
 70 68  1  0
 71 80  2  0
 71 76  1  0
 72 68  1  0
 72 76  1  0
 73 72  1  0
 74 75  1  0
 74 73  1  0
 75 71  1  0
 76 77  2  0
 77 78  1  0
 79 78  2  0
 80 79  1  0
 81 55  1  0
 81 86  1  0
 81 82  1  0
 82 85  1  1
 82 83  1  0
 84 82  1  0
 86 89  1  0
 87 91  1  0
 87 86  1  0
 88 87  2  0
 91 90  1  0
 93 91  1  0
 93 94  1  0
 93 92  1  0
M  ISO  4   6 101  16 100  18 100  54 101
M  END
>  <TORSDO>  (81) 
F 19

>  <SCORE>  (81) 
-11.652

>  <name>  (81) 
80

>  <ligand_id>  (81) 
80

>  <original_smiles>  (81) 
[H]c1c([H])c([H])c2c(c1[H])C([H])([H])C([H])([H])C([H])([H])C2([H])N([H])C(=O)C1([H])N(C(=O)C([H])(N([H])C(=O)C([H])(N([H])C([H])([H])[H])C([H])([H])[H])C(C([H])([H])[H])(C([H])([H])[H])C([H])([H])[H])C([H])([H])c2c([H])c(Oc3c([H])c([H])c(C(=O)N([H])C([H])([H])C4([H])C([H])([H])C([H])([H])C([H])(C(=O)N5C([H])([H])C([H])([H])C([H])([H])C([H])(n6nc(-c7c([H])c([H])c(Oc8c([H])c([H])c(F)c([H])c8F)c([H])c7[H])c(C(=O)N([H])[H])c6N([H])[H])C5([H])[H])C([H])([H])C4([H])[H])c([H])c3[H])c([H])c([H])c2C1([H])[H]

>  <smiles>  (81) 
[H]c1c([H])c([H])c2c(c1[H])C([H])([H])C([H])([H])C([H])([H])C2([H])N([H])C(=O)C1([H])N(C(=O)C([H])(N([H])C(=O)C([H])(N([H])C([H])([H])[H])C([H])([H])[H])C(C([H])([H])[H])(C([H])([H])[H])C([H])([H])[H])C([H])([H])c2c([H])c(Oc3c([H])c([H])c(C(=O)N([H])C([H])([H])C4([H])C([H])([H])C([H])([H])C([H])(C(=O)N5C([H])([H])C([H])([H])C([H])([H])C([H])(n6nc(-c7c([H])c([H])c(Oc8c([H])c([H])c(F)c([H])c8F)c([H])c7[H])c(C(=O)N([H])[H])c6N([H])[H])C5([H])[H])C([H])([H])C4([H])[H])c([H])c3[H])c([H])c([H])c2C1([H])[H]

$$$$
81:0:0
     RDKit          3D

 91100  0  0  1  0  0  0  0  0999 V2000
  -28.2300  -21.3500   19.4660 C   0  0  0  0  0  3  0  0  0  0  0  0
  -29.1200  -20.5430   20.3570 C   0  0  0  0  0  0  0  0  0  0  0  0
  -29.5570  -21.6800   21.2230 C   0  0  0  0  0  0  0  0  0  0  0  0
  -27.8780  -22.8540   19.4400 C   0  0  0  0  0  0  0  0  0  0  0  0
  -28.3070  -23.9780   20.3410 C   0  0  0  0  0  0  0  0  0  0  0  0
  -29.1910  -23.1710   21.2230 C   0  0  0  0  0  0  0  0  0  0  0  0
  -30.5960  -21.2830   22.2660 C   0  0  0  0  0  2  0  0  0  0  0  0
  -31.5570  -20.1860   21.7840 C   0  0  0  0  0  2  0  0  0  0  0  0
  -30.8620  -18.8410   21.5400 C   0  0  0  0  0  2  0  0  0  0  0  0
  -29.8660  -18.8140   20.3620 C   0  0  0  0  0  3  0  0  0  0  0  0
  -26.9870  -23.2770   18.2880 C   0  0  0  0  0  1  0  0  0  0  0  0
  -29.8050  -23.9180   22.1730 F   0  0  0  0  0  0  0  0  0  0  0  0
  -30.2930  -15.6940   20.1750 C   0  0  0  0  0  0  0  0  0  0  0  0
  -30.3820  -13.1660   19.3180 C   0  0  0  0  0  2  0  0  0  0  0  0
  -29.4740  -12.7670   18.1210 C   0  0  0  0  0  2  0  0  0  0  0  0
  -28.0610  -12.4020   18.6000 C   0  0  0  0  0  2  0  0  0  0  0  0
  -27.5620  -13.3900   19.6790 C   0  0  0  0  0  3  0  0  0  0  0  0
  -28.6090  -13.7010   20.7730 C   0  0  0  0  0  2  0  0  0  0  0  0
  -29.7620  -14.3350   20.0930 N   0  0  0  0  0  0  0  0  0  0  0  0
  -31.5260  -15.6230   20.0070 O   0  0  0  0  0  0  0  0  0  0  0  0
  -29.5550  -17.0690   20.2580 N   0  0  0  0  0  0  0  0  0  0  0  0
  -28.5600  -16.8990   20.2960 H   0  0  0  0  0  0  0  0  0  0  0  0
  -25.2100  -13.8900   20.4920 C   0  0  0  0  0  0  0  0  0  0  0  0
  -24.1650  -13.0940   20.8670 C   0  0  0  0  0  0  0  0  0  0  0  0
  -24.6510  -11.7500   20.8130 C   0  0  0  0  0  0  0  0  0  0  0  0
  -26.2590  -13.0330   20.2190 N   0  0  0  0  0  0  0  0  0  0  0  0
  -25.9380  -11.7380   20.4810 N   0  0  0  0  0  0  0  0  0  0  0  0
  -23.9390  -10.4780   20.9990 C   0  0  0  0  0  0  0  0  0  0  0  0
  -24.3710   -9.5200   21.9410 C   0  0  0  0  0  3  0  0  0  0  0  0
  -23.6550   -8.3150   22.1180 C   0  0  0  0  0  3  0  0  0  0  0  0
  -22.4930   -8.0600   21.3500 C   0  0  0  0  0  0  0  0  0  0  0  0
  -22.0810   -9.0090   20.3970 C   0  0  0  0  0  3  0  0  0  0  0  0
  -22.7970  -10.2040   20.2200 C   0  0  0  0  0  3  0  0  0  0  0  0
  -21.7500   -6.9090   21.4350 O   0  0  0  0  0  0  0  0  0  0  0  0
  -21.6650   -6.1910   22.6020 C   0  0  0  0  0  0  0  0  0  0  0  0
  -21.1470   -6.7550   23.7880 C   0  0  0  0  0  3  0  0  0  0  0  0
  -21.0130   -5.9620   24.9460 C   0  0  0  0  0  3  0  0  0  0  0  0
  -21.3850   -4.6060   24.9170 C   0  0  0  0  0  0  0  0  0  0  0  0
  -21.8960   -4.0400   23.7340 C   0  0  0  0  0  3  0  0  0  0  0  0
  -22.0310   -4.8300   22.5800 C   0  0  0  0  0  0  0  0  0  0  0  0
  -22.5030   -4.2740   21.4380 F   0  0  0  0  0  0  0  0  0  0  0  0
  -21.2500   -3.8410   26.0260 F   0  0  0  0  0  0  0  0  0  0  0  0
  -22.7660  -13.5530   21.1550 C   0  0  0  0  0  0  0  0  0  0  0  0
  -22.0600  -12.8480   22.0300 N   0  0  0  0  0  0  0  0  0  0  0  0
  -22.3110  -14.5720   20.6400 O   0  0  0  0  0  0  0  0  0  0  0  0
  -22.4430  -12.0240   22.4690 H   0  0  0  0  0  0  0  0  0  0  0  0
  -21.1210  -13.1370   22.2670 H   0  0  0  0  0  0  0  0  0  0  0  0
  -25.3500  -15.2640   20.3240 N   0  0  0  0  0  0  0  0  0  0  0  0
  -24.5720  -15.9040   20.4490 H   0  0  0  0  0  0  0  0  0  0  0  0
  -26.1770  -15.7140   19.9570 H   0  0  0  0  0  0  0  0  0  0  0  0
  -28.2080  -25.6020   20.3050 O   0  0  0  0  0  0  0  0  0  0  0  0
  -24.6640  -31.8680   23.2540 C   0  0  0  0  0  0  0  0  0  0  0  0
  -27.1870  -26.7710   20.2990 C   0  0  0  0  0  0  0  0  0  0  0  0
  -23.4780  -30.4680   21.6200 C   0  0  0  0  0  3  0  0  0  0  0  0
  -24.9230  -28.8070   20.2230 C   0  0  0  0  0  0  0  0  0  0  0  0
  -26.0550  -30.6010   21.5070 C   0  0  0  0  0  2  0  0  0  0  0  0
  -26.1150  -29.1640   20.8630 C   0  0  0  0  0  0  0  0  0  0  0  0
  -27.2300  -28.1730   20.8680 C   0  0  0  0  0  3  0  0  0  0  0  0
  -25.9610  -26.6230   19.6020 C   0  0  0  0  0  3  0  0  0  0  0  0
  -24.8840  -27.5610   19.5710 C   0  0  0  0  0  3  0  0  0  0  0  0
  -23.7200  -29.7620   20.2530 C   0  0  0  0  0  2  0  0  0  0  0  0
  -24.7560  -31.0130   22.1800 N   0  0  0  0  0  0  0  0  0  0  0  0
  -23.5700  -32.1740   23.7600 O   0  0  0  0  0  0  0  0  0  0  0  0
  -22.7550  -29.4960   22.5920 C   0  0  0  0  0  0  0  0  0  0  0  0
  -21.4230  -29.3420   22.4590 N   0  0  0  0  0  0  0  0  0  0  0  0
  -23.4040  -28.8770   23.4390 O   0  0  0  0  0  0  0  0  0  0  0  0
  -20.9490  -29.8910   21.7550 H   0  0  0  0  0  0  0  0  0  0  0  0
  -18.0310  -28.1400   22.9580 C   0  0  0  0  0  0  0  0  0  0  0  0
  -20.5900  -28.4130   23.2320 C   0  0  0  0  0  3  0  0  0  0  0  0
  -20.6940  -26.9760   22.6690 C   0  0  0  0  0  2  0  0  0  0  0  0
  -19.5980  -26.6460   21.6500 C   0  0  0  0  0  2  0  0  0  0  0  0
  -18.2130  -26.7900   22.2860 C   0  0  0  0  0  2  0  0  0  0  0  0
  -19.1460  -28.9080   23.3880 C   0  0  0  0  0  0  0  0  0  0  0  0
  -18.9190  -30.1690   23.9830 C   0  0  0  0  0  3  0  0  0  0  0  0
  -17.6100  -30.6610   24.1490 C   0  0  0  0  0  3  0  0  0  0  0  0
  -16.5110  -29.8910   23.7320 C   0  0  0  0  0  3  0  0  0  0  0  0
  -16.7210  -28.6330   23.1440 C   0  0  0  0  0  3  0  0  0  0  0  0
  -25.9260  -32.5170   23.8970 C   0  0  0  0  0  3  0  0  0  0  0  0
  -25.6050  -33.9200   24.2290 N   0  0  0  0  0  0  0  0  0  0  0  0
  -25.9190  -34.9830   23.4760 C   0  0  0  0  0  0  0  0  0  0  0  0
  -26.5650  -34.8870   22.4300 O   0  0  0  0  0  0  0  0  0  0  0  0
  -25.0260  -34.0670   25.0420 H   0  0  0  0  0  0  0  0  0  0  0  0
  -24.1690  -36.7760   23.1950 C   0  0  0  0  0  1  0  0  0  0  0  0
  -25.4440  -36.3720   23.9540 C   0  0  0  0  0  3  0  0  0  0  0  0
  -27.6000  -37.2810   24.7060 C   0  0  0  0  0  1  0  0  0  0  0  0
  -26.4650  -37.4320   23.7990 N   0  0  0  0  0  0  0  0  0  0  0  0
  -26.0580  -38.3510   23.9530 H   0  0  0  0  0  0  0  0  0  0  0  0
  -26.4160  -31.7620   25.1950 C   0  0  1  0  0  0  0  0  0  0  0  0
  -25.3050  -31.5440   26.2490 C   0  0  0  0  0  1  0  0  0  0  0  0
  -27.0000  -30.3740   24.8430 C   0  0  0  0  0  1  0  0  0  0  0  0
  -27.5600  -32.5590   25.8660 C   0  0  0  0  0  1  0  0  0  0  0  0
  1  2  1  0
  2 10  1  0
  2  3  2  0
  3  6  1  0
  3  7  1  0
  4  1  2  0
  4  5  1  0
  5  6  2  0
  6 12  1  0
  8  7  1  0
  9  8  1  0
 10 21  1  0
 10  9  1  0
 11  4  1  0
 13 21  1  0
 14 19  1  0
 15 16  1  0
 15 14  1  0
 17 16  1  0
 17 26  1  0
 17 18  1  0
 19 13  1  0
 19 18  1  0
 20 13  2  0
 21 22  1  0
 23 24  2  0
 24 43  1  0
 25 24  1  0
 25 28  1  0
 26 27  1  0
 26 23  1  0
 27 25  2  0
 28 29  1  0
 29 30  2  0
 31 34  1  0
 31 30  1  0
 32 31  2  0
 33 32  1  0
 33 28  2  0
 34 35  1  0
 35 36  1  0
 36 37  2  0
 38 37  1  0
 38 42  1  0
 39 38  2  0
 40 35  2  0
 40 39  1  0
 41 40  1  0
 43 44  1  0
 44 47  1  0
 44 46  1  0
 45 43  2  0
 48 49  1  0
 48 23  1  0
 50 48  1  0
 51  5  1  0
 52 63  2  0
 53 51  1  0
 53 58  1  0
 54 62  1  0
 54 64  1  0
 55 61  1  0
 55 57  1  0
 56 62  1  0
 57 58  2  0
 57 56  1  0
 59 53  2  0
 60 59  1  0
 60 55  2  0
 61 54  1  0
 62 52  1  0
 64 66  2  0
 65 64  1  0
 67 65  1  0
 68 77  2  0
 68 73  1  0
 69 65  1  0
 69 73  1  0
 70 69  1  0
 71 72  1  0
 71 70  1  0
 72 68  1  0
 73 74  2  0
 74 75  1  0
 76 75  2  0
 77 76  1  0
 78 52  1  0
 78 79  1  0
 78 88  1  0
 79 82  1  0
 80 84  1  0
 80 79  1  0
 81 80  2  0
 84 83  1  0
 86 87  1  0
 86 84  1  0
 86 85  1  0
 88 91  1  1
 88 89  1  0
 90 88  1  0
M  ISO  4   5 101  13 100  21 100  51 101
M  END
>  <TORSDO>  (82) 
F 16

>  <SCORE>  (82) 
-16.297

>  <name>  (82) 
81

>  <ligand_id>  (82) 
81

>  <original_smiles>  (82) 
[H]c1c([H])c([H])c2c(c1[H])C([H])([H])C([H])([H])C([H])([H])C2([H])N([H])C(=O)C1([H])N(C(=O)C([H])(N([H])C(=O)C([H])(N([H])C([H])([H])[H])C([H])([H])[H])C(C([H])([H])[H])(C([H])([H])[H])C([H])([H])[H])C([H])([H])c2c([H])c(Oc3c(F)c4c(c([H])c3C([H])([H])[H])C([H])(N([H])C(=O)N3C([H])([H])C([H])([H])C([H])([H])C([H])(n5nc(-c6c([H])c([H])c(Oc7c([H])c([H])c(F)c([H])c7F)c([H])c6[H])c(C(=O)N([H])[H])c5N([H])[H])C3([H])[H])C([H])([H])C([H])([H])C4([H])[H])c([H])c([H])c2C1([H])[H]

>  <smiles>  (82) 
[H]c1c([H])c([H])c2c(c1[H])C([H])([H])C([H])([H])C([H])([H])C2([H])N([H])C(=O)C1([H])N(C(=O)C([H])(N([H])C(=O)C([H])(N([H])C([H])([H])[H])C([H])([H])[H])C(C([H])([H])[H])(C([H])([H])[H])C([H])([H])[H])C([H])([H])c2c([H])c(Oc3c(F)c4c(c([H])c3C([H])([H])[H])C([H])(N([H])C(=O)N3C([H])([H])C([H])([H])C([H])([H])C([H])(n5nc(-c6c([H])c([H])c(Oc7c([H])c([H])c(F)c([H])c7F)c([H])c6[H])c(C(=O)N([H])[H])c5N([H])[H])C3([H])[H])C([H])([H])C([H])([H])C4([H])[H])c([H])c([H])c2C1([H])[H]

$$$$
82:0:0
     RDKit          3D

 90 98  0  0  1  0  0  0  0  0999 V2000
  -28.9940  -23.3620   19.3370 C   0  0  0  0  0  3  0  0  0  0  0  0
  -29.0610  -21.9160   19.8910 C   0  0  0  0  0  0  0  0  0  0  0  0
  -27.7580  -22.9900   21.7390 C   0  0  0  0  0  0  0  0  0  0  0  0
  -28.3380  -24.6310   19.9290 C   0  0  0  0  0  0  0  0  0  0  0  0
  -28.3970  -21.8610   21.1360 C   0  0  0  0  0  0  0  0  0  0  0  0
  -27.7260  -24.3000   21.1620 C   0  0  0  0  0  0  0  0  0  0  0  0
  -27.1410  -22.8000   22.9510 O   0  0  0  0  0  1  0  0  0  0  0  0
  -28.3350  -20.6750   21.7900 F   0  0  0  0  0  0  0  0  0  0  0  0
  -27.0970  -25.2850   21.8530 F   0  0  0  0  0  0  0  0  0  0  0  0
  -29.6400  -20.4120   19.2800 C   0  0  0  0  0  0  0  0  0  0  0  0
  -29.7860  -20.3880   18.0550 O   0  0  0  0  0  0  0  0  0  0  0  0
  -30.1340  -18.8870   20.0090 C   0  0  0  0  0  2  0  0  0  0  0  0
  -29.8780  -17.1440   19.5850 C   0  0  0  0  0  2  0  0  0  0  0  0
  -30.7700  -15.6210   19.6330 C   0  0  0  0  0  0  0  0  0  0  0  0
  -30.7380  -13.1280   18.8820 C   0  0  0  0  0  2  0  0  0  0  0  0
  -29.7480  -12.8990   17.7070 C   0  0  0  0  0  2  0  0  0  0  0  0
  -28.3210  -12.6470   18.2280 C   0  0  0  0  0  2  0  0  0  0  0  0
  -27.9340  -13.6410   19.3500 C   0  0  0  0  0  3  0  0  0  0  0  0
  -29.0450  -13.8210   20.4040 C   0  0  0  0  0  2  0  0  0  0  0  0
  -30.2500  -14.2940   19.7040 N   0  0  0  0  0  0  0  0  0  0  0  0
  -31.9800  -15.6240   19.3600 O   0  0  0  0  0  0  0  0  0  0  0  0
  -25.6600  -14.2290   20.3390 C   0  0  0  0  0  0  0  0  0  0  0  0
  -24.6050  -13.4680   20.7570 C   0  0  0  0  0  0  0  0  0  0  0  0
  -25.0160  -12.1060   20.6120 C   0  0  0  0  0  0  0  0  0  0  0  0
  -26.6430  -13.3370   19.9540 N   0  0  0  0  0  0  0  0  0  0  0  0
  -26.2750  -12.0480   20.1850 N   0  0  0  0  0  0  0  0  0  0  0  0
  -24.2590  -10.8590   20.7920 C   0  0  0  0  0  0  0  0  0  0  0  0
  -24.6960   -9.8470   21.6760 C   0  0  0  0  0  3  0  0  0  0  0  0
  -23.9360   -8.6690   21.8480 C   0  0  0  0  0  3  0  0  0  0  0  0
  -22.7250   -8.4950   21.1370 C   0  0  0  0  0  0  0  0  0  0  0  0
  -22.3050   -9.4960   20.2440 C   0  0  0  0  0  3  0  0  0  0  0  0
  -23.0660  -10.6640   20.0680 C   0  0  0  0  0  3  0  0  0  0  0  0
  -21.9360   -7.3740   21.2230 O   0  0  0  0  0  0  0  0  0  0  0  0
  -21.8740   -6.6210   22.3680 C   0  0  0  0  0  0  0  0  0  0  0  0
  -21.4390   -7.1680   23.5940 C   0  0  0  0  0  3  0  0  0  0  0  0
  -21.3240   -6.3430   24.7310 C   0  0  0  0  0  3  0  0  0  0  0  0
  -21.6330   -4.9730   24.6430 C   0  0  0  0  0  0  0  0  0  0  0  0
  -22.0630   -4.4260   23.4210 C   0  0  0  0  0  3  0  0  0  0  0  0
  -22.1790   -5.2470   22.2860 C   0  0  0  0  0  0  0  0  0  0  0  0
  -22.5720   -4.7110   21.1050 F   0  0  0  0  0  0  0  0  0  0  0  0
  -21.5160   -4.1800   25.7320 F   0  0  0  0  0  0  0  0  0  0  0  0
  -23.2530  -13.9750   21.1680 C   0  0  0  0  0  0  0  0  0  0  0  0
  -22.5740  -13.2630   22.0610 N   0  0  0  0  0  0  0  0  0  0  0  0
  -22.8130  -15.0370   20.7320 O   0  0  0  0  0  0  0  0  0  0  0  0
  -22.9430  -12.4000   22.4320 H   0  0  0  0  0  0  0  0  0  0  0  0
  -21.6730  -13.5880   22.3810 H   0  0  0  0  0  0  0  0  0  0  0  0
  -25.8590  -15.6020   20.2220 N   0  0  0  0  0  0  0  0  0  0  0  0
  -25.1360  -16.2780   20.4440 H   0  0  0  0  0  0  0  0  0  0  0  0
  -26.6860  -16.0250   19.8210 H   0  0  0  0  0  0  0  0  0  0  0  0
  -28.3350  -26.1260   19.5600 O   0  0  0  0  0  0  0  0  0  0  0  0
  -24.7010  -31.8580   22.9860 C   0  0  0  0  0  0  0  0  0  0  0  0
  -27.2820  -27.1770   19.6910 C   0  0  0  0  0  0  0  0  0  0  0  0
  -23.4970  -30.5200   21.3110 C   0  0  0  0  0  3  0  0  0  0  0  0
  -24.9400  -29.0020   19.7930 C   0  0  0  0  0  0  0  0  0  0  0  0
  -26.0510  -30.7890   21.1100 C   0  0  0  0  0  2  0  0  0  0  0  0
  -26.1350  -29.4060   20.4020 C   0  0  0  0  0  0  0  0  0  0  0  0
  -27.3010  -28.5150   20.3280 C   0  0  0  0  0  3  0  0  0  0  0  0
  -26.0500  -26.9240   19.0480 C   0  0  0  0  0  3  0  0  0  0  0  0
  -24.9190  -27.7810   19.0980 C   0  0  0  0  0  3  0  0  0  0  0  0
  -23.7090  -29.8990   19.9020 C   0  0  0  0  0  2  0  0  0  0  0  0
  -24.7730  -31.0800   21.8580 N   0  0  0  0  0  0  0  0  0  0  0  0
  -23.6190  -32.0990   23.5470 O   0  0  0  0  0  0  0  0  0  0  0  0
  -22.8420  -29.4760   22.2500 C   0  0  0  0  0  0  0  0  0  0  0  0
  -21.5140  -29.2870   22.1390 N   0  0  0  0  0  0  0  0  0  0  0  0
  -23.5350  -28.8350   23.0460 O   0  0  0  0  0  0  0  0  0  0  0  0
  -21.0040  -29.8680   21.4870 H   0  0  0  0  0  0  0  0  0  0  0  0
  -18.1670  -27.9050   22.5890 C   0  0  0  0  0  0  0  0  0  0  0  0
  -20.7440  -28.2580   22.8410 C   0  0  0  0  0  0  0  0  0  0  0  0
  -20.9820  -26.8830   22.1560 C   0  0  0  0  0  3  0  0  0  0  0  0
  -19.7740  -26.2940   21.3950 C   0  0  0  0  0  3  0  0  0  0  0  0
  -18.3180  -26.6460   21.7480 C   0  0  0  0  0  3  0  0  0  0  0  0
  -19.2750  -28.6740   23.0460 C   0  0  0  0  0  0  0  0  0  0  0  0
  -19.0170  -29.8920   23.7150 C   0  0  0  0  0  3  0  0  0  0  0  0
  -17.7010  -30.3430   23.9260 C   0  0  0  0  0  3  0  0  0  0  0  0
  -16.6140  -29.5650   23.4920 C   0  0  0  0  0  3  0  0  0  0  0  0
  -16.8510  -28.3490   22.8320 C   0  0  0  0  0  3  0  0  0  0  0  0
  -25.9730  -32.4970   23.6190 C   0  0  0  0  0  3  0  0  0  0  0  0
  -26.5200  -31.6840   24.8570 C   0  0  1  0  0  0  0  0  0  0  0  0
  -25.4480  -31.3900   25.9330 C   0  0  0  0  0  1  0  0  0  0  0  0
  -27.1140  -30.3280   24.4090 C   0  0  0  0  0  1  0  0  0  0  0  0
  -27.6710  -32.4670   25.5330 C   0  0  0  0  0  1  0  0  0  0  0  0
  -25.6370  -33.8730   24.0230 N   0  0  0  0  0  0  0  0  0  0  0  0
  -25.9370  -34.9730   23.3200 C   0  0  0  0  0  0  0  0  0  0  0  0
  -26.5890  -34.9370   22.2730 O   0  0  0  0  0  0  0  0  0  0  0  0
  -25.0510  -33.9720   24.8390 H   0  0  0  0  0  0  0  0  0  0  0  0
  -24.1730  -36.7590   23.1000 C   0  0  0  0  0  1  0  0  0  0  0  0
  -25.4390  -36.3290   23.8600 C   0  0  0  0  0  3  0  0  0  0  0  0
  -27.5730  -37.2160   24.6930 C   0  0  0  0  0  1  0  0  0  0  0  0
  -26.4500  -37.4060   23.7800 N   0  0  0  0  0  0  0  0  0  0  0  0
  -26.0290  -38.3100   23.9790 H   0  0  0  0  0  0  0  0  0  0  0  0
  1  2  2  0
  1  4  1  0
  2  5  1  0
  3  7  1  0
  4  6  2  0
  5  3  2  0
  5  8  1  0
  6  3  1  0
  6  9  1  0
 10  2  1  0
 10 12  1  0
 11 10  2  0
 13 14  1  0
 13 12  1  0
 14 20  1  0
 15 20  1  0
 16 17  1  0
 16 15  1  0
 18 17  1  0
 18 25  1  0
 18 19  1  0
 20 19  1  0
 21 14  2  0
 22 23  2  0
 23 42  1  0
 24 23  1  0
 24 27  1  0
 25 26  1  0
 25 22  1  0
 26 24  2  0
 27 28  1  0
 28 29  2  0
 30 33  1  0
 30 29  1  0
 31 30  2  0
 32 31  1  0
 32 27  2  0
 33 34  1  0
 34 35  1  0
 35 36  2  0
 37 36  1  0
 37 41  1  0
 38 37  2  0
 39 34  2  0
 39 38  1  0
 40 39  1  0
 42 43  1  0
 43 46  1  0
 43 45  1  0
 44 42  2  0
 47 22  1  0
 47 48  1  0
 49 47  1  0
 50 52  1  0
 50  4  1  0
 51 62  2  0
 52 57  1  0
 53 61  1  0
 53 63  1  0
 54 60  1  0
 54 56  1  0
 55 61  1  0
 56 55  1  0
 57 56  2  0
 58 59  1  0
 58 52  2  0
 59 54  2  0
 60 53  1  0
 61 51  1  0
 63 65  2  0
 64 63  1  0
 64 68  1  0
 66 64  1  0
 67 76  2  0
 67 72  1  0
 68 72  1  0
 69 68  2  0
 70 71  2  0
 70 69  1  0
 71 67  1  0
 72 73  2  0
 73 74  1  0
 75 74  2  0
 76 75  1  0
 77 51  1  0
 77 82  1  0
 77 78  1  0
 78 81  1  1
 78 79  1  0
 80 78  1  0
 82 85  1  0
 83 87  1  0
 83 82  1  0
 84 83  2  0
 87 86  1  0
 89 87  1  0
 89 90  1  0
 89 88  1  0
M  ISO  4   4 101  13 100  14 100  50 101
M  END
>  <TORSDO>  (83) 
F 19

>  <SCORE>  (83) 
-13.067

>  <name>  (83) 
82

>  <ligand_id>  (83) 
82

>  <original_smiles>  (83) 
[H]c1c([H])c([H])c2c(c1[H])C([H])([H])C([H])([H])C([H])([H])C2([H])N([H])C(=O)C1([H])N(C(=O)C([H])(N([H])C(=O)C([H])(N([H])C([H])([H])[H])C([H])([H])[H])C(C([H])([H])[H])(C([H])([H])[H])C([H])([H])[H])C([H])([H])c2c([H])c(Oc3c([H])c(C(=O)C([H])([H])C([H])([H])C(=O)N4C([H])([H])C([H])([H])C([H])([H])C([H])(n5nc(-c6c([H])c([H])c(Oc7c([H])c([H])c(F)c([H])c7F)c([H])c6[H])c(C(=O)N([H])[H])c5N([H])[H])C4([H])[H])c(F)c([O-])c3F)c([H])c([H])c2C1([H])[H]

>  <smiles>  (83) 
[H]c1c([H])c([H])c2c(c1[H])C([H])([H])C([H])([H])C([H])([H])C2([H])N([H])C(=O)C1([H])N(C(=O)C([H])(N([H])C(=O)C([H])(N([H])C([H])([H])[H])C([H])([H])[H])C(C([H])([H])[H])(C([H])([H])[H])C([H])([H])[H])C([H])([H])c2c([H])c(Oc3c([H])c(C(=O)C([H])([H])C([H])([H])C(=O)N4C([H])([H])C([H])([H])C([H])([H])C([H])(n5nc(-c6c([H])c([H])c(Oc7c([H])c([H])c(F)c([H])c7F)c([H])c6[H])c(C(=O)N([H])[H])c5N([H])[H])C4([H])[H])c(F)c([O-])c3F)c([H])c([H])c2C1([H])[H]

$$$$
83:0:0
     RDKit          3D

 92101  0  0  1  0  0  0  0  0999 V2000
  -30.2300  -15.8500   20.3320 C   0  0  0  0  0  0  0  0  0  0  0  0
  -30.3770  -13.2810   19.5020 C   0  0  0  0  0  2  0  0  0  0  0  0
  -29.4970  -12.8100   18.3060 C   0  0  0  0  0  2  0  0  0  0  0  0
  -28.0770  -12.4420   18.7590 C   0  0  0  0  0  2  0  0  0  0  0  0
  -27.5510  -13.4520   19.8000 C   0  0  0  0  0  3  0  0  0  0  0  0
  -28.5730  -13.7940   20.9090 C   0  0  0  0  0  2  0  0  0  0  0  0
  -29.7220  -14.4630   20.2420 N   0  0  0  0  0  0  0  0  0  0  0  0
  -31.4770  -15.7590   20.2820 O   0  0  0  0  0  0  0  0  0  0  0  0
  -29.4000  -21.9040   18.9160 C   0  0  0  0  0  3  0  0  0  0  0  0
  -28.9240  -20.4060   20.7330 C   0  0  0  0  0  3  0  0  0  0  0  0
  -29.7620  -20.7100   18.1940 C   0  0  0  0  0  0  0  0  0  0  0  0
  -29.7160  -19.3690   18.7370 C   0  0  0  0  0  0  0  0  0  0  0  0
  -28.8510  -21.9620   20.2180 C   0  0  0  0  0  0  0  0  0  0  0  0
  -29.4390  -19.0030   20.0700 C   0  0  0  0  0  0  0  0  0  0  0  0
  -29.7450  -18.1180   17.8840 C   0  0  0  0  0  2  0  0  0  0  0  0
  -29.0190  -17.0380   18.7130 C   0  0  0  0  0  2  0  0  0  0  0  0
  -29.4450  -17.2290   20.1160 N   0  0  0  0  0  0  0  0  0  0  0  0
  -25.1850  -13.9770   20.5510 C   0  0  0  0  0  0  0  0  0  0  0  0
  -24.1220  -13.1950   20.9030 C   0  0  0  0  0  0  0  0  0  0  0  0
  -24.5940  -11.8450   20.8750 C   0  0  0  0  0  0  0  0  0  0  0  0
  -26.2330  -13.1090   20.3150 N   0  0  0  0  0  0  0  0  0  0  0  0
  -25.8920  -11.8180   20.5770 N   0  0  0  0  0  0  0  0  0  0  0  0
  -23.8650  -10.5820   21.0510 C   0  0  0  0  0  0  0  0  0  0  0  0
  -24.2880   -9.6070   21.9830 C   0  0  0  0  0  3  0  0  0  0  0  0
  -23.5540   -8.4120   22.1510 C   0  0  0  0  0  3  0  0  0  0  0  0
  -22.3830   -8.1830   21.3870 C   0  0  0  0  0  0  0  0  0  0  0  0
  -21.9800   -9.1470   20.4460 C   0  0  0  0  0  3  0  0  0  0  0  0
  -22.7150  -10.3320   20.2760 C   0  0  0  0  0  3  0  0  0  0  0  0
  -21.6220   -7.0420   21.4650 O   0  0  0  0  0  0  0  0  0  0  0  0
  -21.5660   -6.2910   22.6120 C   0  0  0  0  0  0  0  0  0  0  0  0
  -21.1350   -6.8380   23.8400 C   0  0  0  0  0  3  0  0  0  0  0  0
  -21.0260   -6.0140   24.9790 C   0  0  0  0  0  3  0  0  0  0  0  0
  -21.3380   -4.6430   24.8890 C   0  0  0  0  0  0  0  0  0  0  0  0
  -21.7600   -4.0960   23.6660 C   0  0  0  0  0  3  0  0  0  0  0  0
  -21.8710   -4.9170   22.5300 C   0  0  0  0  0  0  0  0  0  0  0  0
  -22.2590   -4.3790   21.3480 F   0  0  0  0  0  0  0  0  0  0  0  0
  -21.2250   -3.8500   25.9810 F   0  0  0  0  0  0  0  0  0  0  0  0
  -22.7210  -13.6690   21.1490 C   0  0  0  0  0  0  0  0  0  0  0  0
  -21.9830  -12.9780   22.0100 N   0  0  0  0  0  0  0  0  0  0  0  0
  -22.2890  -14.6880   20.6130 O   0  0  0  0  0  0  0  0  0  0  0  0
  -22.3450  -12.1530   22.4640 H   0  0  0  0  0  0  0  0  0  0  0  0
  -21.0410  -13.2800   22.2200 H   0  0  0  0  0  0  0  0  0  0  0  0
  -25.3470  -15.3490   20.3790 N   0  0  0  0  0  0  0  0  0  0  0  0
  -24.5810  -16.0040   20.4970 H   0  0  0  0  0  0  0  0  0  0  0  0
  -26.2080  -15.7900   20.0850 H   0  0  0  0  0  0  0  0  0  0  0  0
  -30.2020  -20.8990   16.7630 C   0  0  0  0  0  0  0  0  0  0  0  0
  -29.5260  -21.7910   16.0500 N   0  0  0  0  0  0  0  0  0  0  0  0
  -31.1130  -20.2390   16.2650 O   0  0  0  0  0  0  0  0  0  0  0  0
  -28.7600  -22.2990   16.4660 H   0  0  0  0  0  0  0  0  0  0  0  0
  -29.7730  -21.9630   15.0860 H   0  0  0  0  0  0  0  0  0  0  0  0
  -28.0930  -23.6600   20.6860 C   0  0  0  0  0  2  0  0  0  0  0  0
  -28.2680  -25.4470   20.4410 O   0  0  0  0  0  0  0  0  0  0  0  0
  -24.6950  -31.9130   23.2380 C   0  0  0  0  0  0  0  0  0  0  0  0
  -27.2930  -26.6970   20.4220 C   0  0  0  0  0  0  0  0  0  0  0  0
  -23.5440  -30.4690   21.6200 C   0  0  0  0  0  3  0  0  0  0  0  0
  -25.0220  -28.7760   20.2780 C   0  0  0  0  0  0  0  0  0  0  0  0
  -26.1280  -30.5970   21.5430 C   0  0  0  0  0  2  0  0  0  0  0  0
  -26.2110  -29.1380   20.9230 C   0  0  0  0  0  0  0  0  0  0  0  0
  -27.3310  -28.1320   20.9510 C   0  0  0  0  0  3  0  0  0  0  0  0
  -26.0630  -26.5690   19.7210 C   0  0  0  0  0  3  0  0  0  0  0  0
  -24.9930  -27.5180   19.6530 C   0  0  0  0  0  3  0  0  0  0  0  0
  -23.8160  -29.7340   20.2740 C   0  0  0  0  0  2  0  0  0  0  0  0
  -24.8140  -31.0290   22.1850 N   0  0  0  0  0  0  0  0  0  0  0  0
  -23.5910  -32.2210   23.7190 O   0  0  0  0  0  0  0  0  0  0  0  0
  -22.8090  -29.5180   22.6030 C   0  0  0  0  0  0  0  0  0  0  0  0
  -21.4780  -29.3610   22.4640 N   0  0  0  0  0  0  0  0  0  0  0  0
  -23.4510  -28.9150   23.4670 O   0  0  0  0  0  0  0  0  0  0  0  0
  -21.0070  -29.8950   21.7490 H   0  0  0  0  0  0  0  0  0  0  0  0
  -18.0850  -28.1560   22.9710 C   0  0  0  0  0  0  0  0  0  0  0  0
  -20.6430  -28.4390   23.2460 C   0  0  0  0  0  3  0  0  0  0  0  0
  -20.7520  -26.9950   22.7030 C   0  0  0  0  0  2  0  0  0  0  0  0
  -19.6610  -26.6490   21.6850 C   0  0  0  0  0  2  0  0  0  0  0  0
  -18.2730  -26.7980   22.3150 C   0  0  0  0  0  2  0  0  0  0  0  0
  -19.1970  -28.9320   23.3940 C   0  0  0  0  0  0  0  0  0  0  0  0
  -18.9640  -30.1980   23.9730 C   0  0  0  0  0  3  0  0  0  0  0  0
  -17.6540  -30.6900   24.1290 C   0  0  0  0  0  3  0  0  0  0  0  0
  -16.5580  -29.9110   23.7190 C   0  0  0  0  0  3  0  0  0  0  0  0
  -16.7740  -28.6460   23.1460 C   0  0  0  0  0  3  0  0  0  0  0  0
  -25.9390  -32.5890   23.8870 C   0  0  0  0  0  3  0  0  0  0  0  0
  -25.5960  -33.9920   24.1990 N   0  0  0  0  0  0  0  0  0  0  0  0
  -25.9170  -35.0550   23.4470 C   0  0  0  0  0  0  0  0  0  0  0  0
  -26.5920  -34.9590   22.4190 O   0  0  0  0  0  0  0  0  0  0  0  0
  -24.9980  -34.1400   24.9980 H   0  0  0  0  0  0  0  0  0  0  0  0
  -24.1640  -36.8320   23.1080 C   0  0  0  0  0  1  0  0  0  0  0  0
  -25.4170  -36.4420   23.9050 C   0  0  0  0  0  3  0  0  0  0  0  0
  -27.5460  -37.3700   24.7130 C   0  0  0  0  0  1  0  0  0  0  0  0
  -26.4340  -37.5100   23.7760 N   0  0  0  0  0  0  0  0  0  0  0  0
  -26.0140  -38.4250   23.9190 H   0  0  0  0  0  0  0  0  0  0  0  0
  -26.4250  -31.8610   25.2030 C   0  0  1  0  0  0  0  0  0  0  0  0
  -25.3030  -31.6390   26.2440 C   0  0  0  0  0  1  0  0  0  0  0  0
  -27.0330  -30.4780   24.8770 C   0  0  0  0  0  1  0  0  0  0  0  0
  -27.5490  -32.6840   25.8760 C   0  0  0  0  0  1  0  0  0  0  0  0
  2  7  1  0
  3  4  1  0
  3  2  1  0
  5  4  1  0
  5 21  1  0
  5  6  1  0
  7  1  1  0
  7  6  1  0
  8  1  2  0
  9 13  1  0
 11 12  1  0
 11  9  2  0
 12 14  2  0
 13 51  1  0
 13 10  2  0
 14 17  1  0
 14 10  1  0
 15 16  1  0
 15 12  1  0
 16 17  1  0
 17  1  1  0
 18 19  2  0
 19 38  1  0
 20 19  1  0
 20 23  1  0
 21 18  1  0
 21 22  1  0
 22 20  2  0
 23 24  1  0
 24 25  2  0
 26 29  1  0
 26 25  1  0
 27 26  2  0
 28 27  1  0
 28 23  2  0
 29 30  1  0
 30 31  1  0
 31 32  2  0
 33 32  1  0
 33 37  1  0
 34 33  2  0
 35 30  2  0
 35 34  1  0
 36 35  1  0
 38 39  1  0
 39 42  1  0
 39 41  1  0
 40 38  2  0
 43 44  1  0
 43 18  1  0
 45 43  1  0
 46 11  1  0
 47 49  1  0
 47 46  1  0
 48 46  2  0
 50 47  1  0
 52 51  1  0
 53 64  2  0
 54 52  1  0
 54 59  1  0
 55 63  1  0
 55 65  1  0
 56 58  1  0
 57 63  1  0
 58 59  2  0
 58 57  1  0
 60 54  2  0
 61 60  1  0
 61 56  2  0
 62 56  1  0
 62 55  1  0
 63 53  1  0
 65 67  2  0
 66 65  1  0
 68 66  1  0
 69 78  2  0
 69 74  1  0
 70 66  1  0
 70 74  1  0
 71 70  1  0
 72 73  1  0
 72 71  1  0
 73 69  1  0
 74 75  2  0
 75 76  1  0
 77 76  2  0
 78 77  1  0
 79 53  1  0
 79 80  1  0
 79 89  1  0
 80 83  1  0
 81 85  1  0
 81 80  1  0
 82 81  2  0
 85 84  1  0
 87 85  1  0
 87 88  1  0
 87 86  1  0
 89 92  1  1
 89 90  1  0
 91 89  1  0
M  ISO  4   1 100  17 100  51 101  52 101
M  END
>  <TORSDO>  (84) 
F 17

>  <SCORE>  (84) 
-15.945

>  <name>  (84) 
83

>  <ligand_id>  (84) 
83

>  <original_smiles>  (84) 
[H]c1c([H])c([H])c2c(c1[H])C([H])([H])C([H])([H])C([H])([H])C2([H])N([H])C(=O)C1([H])N(C(=O)C([H])(N([H])C(=O)C([H])(N([H])C([H])([H])[H])C([H])([H])[H])C(C([H])([H])[H])(C([H])([H])[H])C([H])([H])[H])C([H])([H])c2c([H])c(OC([H])([H])c3c([H])c(C(=O)N([H])[H])c4c(c3[H])N(C(=O)N3C([H])([H])C([H])([H])C([H])([H])C([H])(n5nc(-c6c([H])c([H])c(Oc7c([H])c([H])c(F)c([H])c7F)c([H])c6[H])c(C(=O)N([H])[H])c5N([H])[H])C3([H])[H])C([H])([H])C4([H])[H])c([H])c([H])c2C1([H])[H]

>  <smiles>  (84) 
[H]c1c([H])c([H])c2c(c1[H])C([H])([H])C([H])([H])C([H])([H])C2([H])N([H])C(=O)C1([H])N(C(=O)C([H])(N([H])C(=O)C([H])(N([H])C([H])([H])[H])C([H])([H])[H])C(C([H])([H])[H])(C([H])([H])[H])C([H])([H])[H])C([H])([H])c2c([H])c(OC([H])([H])c3c([H])c(C(=O)N([H])[H])c4c(c3[H])N(C(=O)N3C([H])([H])C([H])([H])C([H])([H])C([H])(n5nc(-c6c([H])c([H])c(Oc7c([H])c([H])c(F)c([H])c7F)c([H])c6[H])c(C(=O)N([H])[H])c5N([H])[H])C3([H])[H])C([H])([H])C4([H])[H])c([H])c([H])c2C1([H])[H]

$$$$
84:0:0
     RDKit          3D

 90 97  0  0  1  0  0  0  0  0999 V2000
  -31.0100  -18.8010   20.9740 C   0  0  0  0  0  3  0  0  0  0  0  0
  -31.0660  -20.2230   21.1820 C   0  0  0  0  0  3  0  0  0  0  0  0
  -30.0950  -18.0650   20.1710 C   0  0  0  0  0  0  0  0  0  0  0  0
  -30.2340  -21.2790   20.6580 C   0  0  0  0  0  0  0  0  0  0  0  0
  -29.1710  -21.1180   19.7320 C   0  0  0  0  0  3  0  0  0  0  0  0
  -29.1880  -19.3910   19.5490 C   0  0  0  0  0  0  0  0  0  0  0  0
  -30.5050  -22.6900   21.1510 C   0  0  0  0  0  2  0  0  0  0  0  0
  -27.9460  -23.1800   20.9430 C   0  0  0  0  0  2  0  0  0  0  0  0
  -28.1710  -22.9000   19.4430 C   0  0  0  0  0  1  0  0  0  0  0  0
  -29.2750  -23.4600   21.7230 C   0  0  1  0  0  0  0  0  0  0  0  0
  -28.1610  -18.9190   18.5350 C   0  0  0  0  0  1  0  0  0  0  0  0
  -29.0710  -23.0570   23.2010 C   0  0  0  0  0  1  0  0  0  0  0  0
  -29.6420  -24.9600   21.7020 C   0  0  0  0  0  1  0  0  0  0  0  0
  -30.5830  -16.1910   20.1220 C   0  0  0  0  0  0  0  0  0  0  0  0
  -30.8270  -13.4310   19.7290 C   0  0  0  0  0  2  0  0  0  0  0  0
  -30.0910  -12.6550   18.5810 C   0  0  0  0  0  2  0  0  0  0  0  0
  -28.6760  -12.2460   18.9970 C   0  0  0  0  0  2  0  0  0  0  0  0
  -28.0220  -13.3840   19.8040 C   0  0  0  0  0  3  0  0  0  0  0  0
  -28.9270  -14.0550   20.8850 C   0  0  0  0  0  2  0  0  0  0  0  0
  -30.0850  -14.7410   20.2100 N   0  0  0  0  0  0  0  0  0  0  0  0
  -31.8150  -15.9520   20.0400 O   0  0  0  0  0  0  0  0  0  0  0  0
  -25.6630  -13.9600   20.4900 C   0  0  0  0  0  0  0  0  0  0  0  0
  -24.5640  -13.2140   20.8070 C   0  0  0  0  0  0  0  0  0  0  0  0
  -24.9900  -11.8490   20.7930 C   0  0  0  0  0  0  0  0  0  0  0  0
  -26.6840  -13.0590   20.2820 N   0  0  0  0  0  0  0  0  0  0  0  0
  -26.2940  -11.7760   20.5300 N   0  0  0  0  0  0  0  0  0  0  0  0
  -24.2070  -10.6150   20.9510 C   0  0  0  0  0  0  0  0  0  0  0  0
  -24.5160   -9.6530   21.9380 C   0  0  0  0  0  3  0  0  0  0  0  0
  -23.7240   -8.4940   22.0840 C   0  0  0  0  0  3  0  0  0  0  0  0
  -22.6060   -8.2840   21.2420 C   0  0  0  0  0  0  0  0  0  0  0  0
  -22.3130   -9.2330   20.2460 C   0  0  0  0  0  3  0  0  0  0  0  0
  -23.1080  -10.3840   20.1000 C   0  0  0  0  0  3  0  0  0  0  0  0
  -21.7980   -7.1720   21.2950 O   0  0  0  0  0  0  0  0  0  0  0  0
  -21.6180   -6.4670   22.4580 C   0  0  0  0  0  0  0  0  0  0  0  0
  -21.0150   -7.0490   23.5940 C   0  0  0  0  0  3  0  0  0  0  0  0
  -20.7810   -6.2670   24.7450 C   0  0  0  0  0  3  0  0  0  0  0  0
  -21.1420   -4.9070   24.7570 C   0  0  0  0  0  0  0  0  0  0  0  0
  -21.7360   -4.3250   23.6250 C   0  0  0  0  0  3  0  0  0  0  0  0
  -21.9700   -5.1010   22.4770 C   0  0  0  0  0  0  0  0  0  0  0  0
  -22.5220   -4.5300   21.3790 F   0  0  0  0  0  0  0  0  0  0  0  0
  -20.9110   -4.1540   25.8580 F   0  0  0  0  0  0  0  0  0  0  0  0
  -23.1770  -13.7450   21.0100 C   0  0  0  0  0  0  0  0  0  0  0  0
  -22.3790  -13.0770   21.8340 N   0  0  0  0  0  0  0  0  0  0  0  0
  -22.8120  -14.7890   20.4730 O   0  0  0  0  0  0  0  0  0  0  0  0
  -22.6870  -12.2350   22.2970 H   0  0  0  0  0  0  0  0  0  0  0  0
  -21.4460  -13.4250   22.0120 H   0  0  0  0  0  0  0  0  0  0  0  0
  -25.8750  -15.3260   20.3280 N   0  0  0  0  0  0  0  0  0  0  0  0
  -25.1220  -16.0000   20.4190 H   0  0  0  0  0  0  0  0  0  0  0  0
  -26.7500  -15.7480   20.0450 H   0  0  0  0  0  0  0  0  0  0  0  0
  -28.2180  -24.8070   19.0200 O   0  0  0  0  0  1  0  0  0  0  0  0
  -25.2390  -31.3520   22.8510 C   0  0  0  0  0  0  0  0  0  0  0  0
  -27.3450  -26.2120   19.2110 C   0  0  0  0  0  0  0  0  0  0  0  0
  -23.9110  -30.1560   21.1700 C   0  0  0  0  0  3  0  0  0  0  0  0
  -25.2020  -28.5390   19.5260 C   0  0  0  0  0  0  0  0  0  0  0  0
  -26.4950  -30.1180   20.9200 C   0  0  0  0  0  2  0  0  0  0  0  0
  -26.4580  -28.7200   20.1180 C   0  0  0  0  0  0  0  0  0  0  0  0
  -27.4930  -27.6030   19.9220 C   0  0  0  0  0  3  0  0  0  0  0  0
  -26.0550  -26.3430   18.5960 C   0  0  0  0  0  3  0  0  0  0  0  0
  -25.0620  -27.3810   18.7360 C   0  0  0  0  0  3  0  0  0  0  0  0
  -24.0580  -29.5630   19.7350 C   0  0  0  0  0  2  0  0  0  0  0  0
  -25.2480  -30.5790   21.6990 N   0  0  0  0  0  0  0  0  0  0  0  0
  -24.1830  -31.6520   23.4430 O   0  0  0  0  0  0  0  0  0  0  0  0
  -23.1920  -29.1390   22.1030 C   0  0  0  0  0  0  0  0  0  0  0  0
  -21.8520  -29.0110   22.0080 N   0  0  0  0  0  0  0  0  0  0  0  0
  -23.8560  -28.4600   22.8880 O   0  0  0  0  0  0  0  0  0  0  0  0
  -21.3610  -29.6100   21.3590 H   0  0  0  0  0  0  0  0  0  0  0  0
  -18.4660  -27.8010   22.5900 C   0  0  0  0  0  0  0  0  0  0  0  0
  -21.0400  -28.0260   22.7380 C   0  0  0  0  0  3  0  0  0  0  0  0
  -21.0880  -26.6460   22.0410 C   0  0  0  0  0  2  0  0  0  0  0  0
  -19.9320  -26.4250   21.0570 C   0  0  0  0  0  2  0  0  0  0  0  0
  -18.5880  -26.5210   21.7820 C   0  0  0  0  0  2  0  0  0  0  0  0
  -19.6130  -28.5170   23.0250 C   0  0  0  0  0  0  0  0  0  0  0  0
  -19.4370  -29.7140   23.7540 C   0  0  0  0  0  3  0  0  0  0  0  0
  -18.1460  -30.1980   24.0440 C   0  0  0  0  0  3  0  0  0  0  0  0
  -17.0150  -29.4820   23.6180 C   0  0  0  0  0  3  0  0  0  0  0  0
  -17.1750  -28.2830   22.8980 C   0  0  0  0  0  3  0  0  0  0  0  0
  -26.5490  -31.9120   23.4840 C   0  0  0  0  0  3  0  0  0  0  0  0
  -26.2350  -33.1850   24.1740 N   0  0  0  0  0  0  0  0  0  0  0  0
  -26.4620  -34.4150   23.6930 C   0  0  0  0  0  0  0  0  0  0  0  0
  -27.0030  -34.6040   22.6030 O   0  0  0  0  0  0  0  0  0  0  0  0
  -25.7290  -33.1070   25.0440 H   0  0  0  0  0  0  0  0  0  0  0  0
  -24.6820  -36.1730   24.0270 C   0  0  0  0  0  1  0  0  0  0  0  0
  -26.0230  -35.6290   24.5460 C   0  0  0  0  0  3  0  0  0  0  0  0
  -28.2240  -36.3900   25.3280 C   0  0  0  0  0  1  0  0  0  0  0  0
  -27.0190  -36.7240   24.5760 N   0  0  0  0  0  0  0  0  0  0  0  0
  -26.6180  -37.5670   24.9770 H   0  0  0  0  0  0  0  0  0  0  0  0
  -27.2130  -30.9130   24.5110 C   0  0  1  0  0  0  0  0  0  0  0  0
  -26.2470  -30.4170   25.6160 C   0  0  0  0  0  1  0  0  0  0  0  0
  -27.7710  -29.6650   23.7930 C   0  0  0  0  0  1  0  0  0  0  0  0
  -28.4210  -31.5940   25.2020 C   0  0  0  0  0  1  0  0  0  0  0  0
  1  2  1  0
  3  1  2  0
  4  7  1  0
  4  2  2  0
  5  4  1  0
  6  5  2  0
  6  3  1  0
  7 10  1  0
  8 10  1  0
  9  8  1  0
 10 12  1  1
 11  6  1  0
 13 10  1  0
 14  3  1  0
 14 20  1  0
 15 20  1  0
 16 17  1  0
 16 15  1  0
 18 17  1  0
 18 25  1  0
 18 19  1  0
 20 19  1  0
 21 14  2  0
 22 23  2  0
 23 42  1  0
 24 23  1  0
 24 27  1  0
 25 22  1  0
 25 26  1  0
 26 24  2  0
 27 28  1  0
 28 29  2  0
 30 33  1  0
 30 29  1  0
 31 30  2  0
 32 31  1  0
 32 27  2  0
 33 34  1  0
 34 39  2  0
 34 35  1  0
 35 36  2  0
 36 37  1  0
 37 41  1  0
 38 37  2  0
 39 38  1  0
 40 39  1  0
 42 43  1  0
 43 46  1  0
 43 45  1  0
 44 42  2  0
 47 48  1  0
 47 22  1  0
 49 47  1  0
 50 52  1  0
 51 62  2  0
 52 57  1  0
 53 61  1  0
 53 63  1  0
 54 60  1  0
 54 56  1  0
 55 61  1  0
 56 55  1  0
 57 56  2  0
 58 59  1  0
 58 52  2  0
 59 54  2  0
 60 53  1  0
 61 51  1  0
 63 65  2  0
 64 63  1  0
 66 64  1  0
 67 76  2  0
 67 72  1  0
 68 64  1  0
 68 72  1  0
 69 68  1  0
 70 71  1  0
 70 69  1  0
 71 67  1  0
 72 73  2  0
 73 74  1  0
 75 74  2  0
 76 75  1  0
 77 51  1  0
 77 78  1  0
 77 87  1  0
 78 81  1  0
 79 78  1  0
 79 83  1  0
 80 79  2  0
 83 82  1  0
 83 85  1  0
 85 86  1  0
 85 84  1  0
 87 90  1  1
 87 88  1  0
 89 87  1  0
M  ISO  4   3 100   9 101  14 100  50 101
M  END
>  <TORSDO>  (85) 
F 16

>  <SCORE>  (85) 
-14.464

>  <name>  (85) 
84

>  <ligand_id>  (85) 
84

>  <original_smiles>  (85) 
[H]c1c([H])c([H])c2c(c1[H])C([H])([H])C([H])([H])C([H])([H])C2([H])N([H])C(=O)C1([H])N(C(=O)C([H])(N([H])C(=O)C([H])(N([H])C([H])([H])[H])C([H])([H])[H])C(C([H])([H])[H])(C([H])([H])[H])C([H])([H])[H])C([H])([H])c2c([H])c(OC3([H])c4c(C([H])([H])[H])c(C(=O)N5C([H])([H])C([H])([H])C([H])([H])C([H])(n6nc(-c7c([H])c([H])c(Oc8c([H])c([H])c(F)c([H])c8F)c([H])c7[H])c(C(=O)N([H])[H])c6N([H])[H])C5([H])[H])c([H])c([H])c4C([H])([H])C(C([H])([H])[H])(C([H])([H])[H])C3([H])[H])c([H])c([H])c2C1([H])[H]

>  <smiles>  (85) 
[H]c1c([H])c([H])c2c(c1[H])C([H])([H])C([H])([H])C([H])([H])C2([H])N([H])C(=O)C1([H])N(C(=O)C([H])(N([H])C(=O)C([H])(N([H])C([H])([H])[H])C([H])([H])[H])C(C([H])([H])[H])(C([H])([H])[H])C([H])([H])[H])C([H])([H])c2c([H])c(OC3([H])c4c(C([H])([H])[H])c(C(=O)N5C([H])([H])C([H])([H])C([H])([H])C([H])(n6nc(-c7c([H])c([H])c(Oc8c([H])c([H])c(F)c([H])c8F)c([H])c7[H])c(C(=O)N([H])[H])c6N([H])[H])C5([H])[H])c([H])c([H])c4C([H])([H])C(C([H])([H])[H])(C([H])([H])[H])C3([H])[H])c([H])c([H])c2C1([H])[H]

$$$$
85:0:0
     RDKit          3D

 92100  0  0  1  0  0  0  0  0999 V2000
  -27.6280  -22.3200   21.3430 C   0  0  0  0  0  3  0  0  0  0  0  0
  -26.5920  -22.7430   22.1740 C   0  0  0  0  0  3  0  0  0  0  0  0
  -26.9230  -24.9810   21.3840 C   0  0  0  0  0  3  0  0  0  0  0  0
  -28.4070  -23.1320   20.4690 C   0  0  0  0  0  0  0  0  0  0  0  0
  -26.2520  -24.0820   22.2170 C   0  0  0  0  0  0  0  0  0  0  0  0
  -27.9400  -24.6730   20.4240 C   0  0  0  0  0  0  0  0  0  0  0  0
  -25.2530  -24.5220   23.0830 N   0  0  0  0  0  0  0  0  0  0  0  0
  -24.6710  -23.8760   23.6100 H   0  0  0  0  0  0  0  0  0  0  0  0
  -24.9610  -25.4950   23.1250 H   0  0  0  0  0  0  0  0  0  0  0  0
  -28.1880  -26.0390   19.7650 O   0  0  0  0  0  0  0  0  0  0  0  0
  -24.6150  -31.8540   23.0660 C   0  0  0  0  0  0  0  0  0  0  0  0
  -27.2250  -27.1950   19.7620 C   0  0  0  0  0  0  0  0  0  0  0  0
  -23.4320  -30.5470   21.3470 C   0  0  0  0  0  3  0  0  0  0  0  0
  -24.9000  -29.0450   19.8330 C   0  0  0  0  0  0  0  0  0  0  0  0
  -25.9980  -30.7890   21.2180 C   0  0  0  0  0  2  0  0  0  0  0  0
  -26.0840  -29.4210   20.4820 C   0  0  0  0  0  0  0  0  0  0  0  0
  -27.2410  -28.5160   20.4330 C   0  0  0  0  0  3  0  0  0  0  0  0
  -26.0150  -26.9830   19.0640 C   0  0  0  0  0  3  0  0  0  0  0  0
  -24.8880  -27.8430   19.1060 C   0  0  0  0  0  3  0  0  0  0  0  0
  -23.6710  -29.9470   19.9330 C   0  0  0  0  0  2  0  0  0  0  0  0
  -24.7020  -31.0860   21.9320 N   0  0  0  0  0  0  0  0  0  0  0  0
  -23.5220  -32.1040   23.6030 O   0  0  0  0  0  0  0  0  0  0  0  0
  -22.7410  -29.4930   22.2500 C   0  0  0  0  0  0  0  0  0  0  0  0
  -21.4070  -29.3570   22.1430 N   0  0  0  0  0  0  0  0  0  0  0  0
  -23.4160  -28.8020   23.0180 O   0  0  0  0  0  0  0  0  0  0  0  0
  -20.9170  -29.9680   21.5030 H   0  0  0  0  0  0  0  0  0  0  0  0
  -18.0120  -28.1960   22.6830 C   0  0  0  0  0  0  0  0  0  0  0  0
  -20.5870  -28.3760   22.8640 C   0  0  0  0  0  3  0  0  0  0  0  0
  -20.6260  -26.9980   22.1630 C   0  0  0  0  0  2  0  0  0  0  0  0
  -19.4770  -26.7940   21.1700 C   0  0  0  0  0  2  0  0  0  0  0  0
  -18.1260  -26.9110   21.8800 C   0  0  0  0  0  2  0  0  0  0  0  0
  -19.1660  -28.8910   23.1320 C   0  0  0  0  0  0  0  0  0  0  0  0
  -19.0020  -30.0960   23.8490 C   0  0  0  0  0  3  0  0  0  0  0  0
  -17.7190  -30.6060   24.1190 C   0  0  0  0  0  3  0  0  0  0  0  0
  -16.5800  -29.9070   23.6820 C   0  0  0  0  0  3  0  0  0  0  0  0
  -16.7270  -28.7030   22.9720 C   0  0  0  0  0  3  0  0  0  0  0  0
  -25.8810  -32.4670   23.7370 C   0  0  0  0  0  3  0  0  0  0  0  0
  -25.5500  -33.8380   24.1660 N   0  0  0  0  0  0  0  0  0  0  0  0
  -25.8680  -34.9510   23.4890 C   0  0  0  0  0  0  0  0  0  0  0  0
  -26.5310  -34.9310   22.4500 O   0  0  0  0  0  0  0  0  0  0  0  0
  -24.9630  -33.9250   24.9810 H   0  0  0  0  0  0  0  0  0  0  0  0
  -24.1160  -36.7490   23.2860 C   0  0  0  0  0  1  0  0  0  0  0  0
  -25.3720  -36.3000   24.0500 C   0  0  0  0  0  3  0  0  0  0  0  0
  -27.5070  -37.1530   24.9150 C   0  0  0  0  0  1  0  0  0  0  0  0
  -26.3900  -37.3710   24.0000 N   0  0  0  0  0  0  0  0  0  0  0  0
  -25.9760  -38.2740   24.2170 H   0  0  0  0  0  0  0  0  0  0  0  0
  -26.3930  -31.6250   24.9710 C   0  0  1  0  0  0  0  0  0  0  0  0
  -25.2930  -31.3110   26.0110 C   0  0  0  0  0  1  0  0  0  0  0  0
  -26.9970  -30.2790   24.5100 C   0  0  0  0  0  1  0  0  0  0  0  0
  -27.5280  -32.3900   25.6910 C   0  0  0  0  0  1  0  0  0  0  0  0
  -29.5640  -21.9550   19.8890 C   0  0  0  0  0  2  0  0  0  0  0  0
  -29.5900  -20.1460   20.2070 C   0  0  0  0  0  3  0  0  0  0  0  0
  -30.5200  -18.6620   19.6990 C   0  0  0  0  0  3  0  0  0  0  0  0
  -31.0490  -15.7300   19.7870 C   0  0  0  0  0  0  0  0  0  0  0  0
  -30.9770  -13.3150   18.7910 C   0  0  0  0  0  2  0  0  0  0  0  0
  -29.9070  -13.1130   17.6870 C   0  0  0  0  0  2  0  0  0  0  0  0
  -28.5370  -12.7690   18.2980 C   0  0  0  0  0  2  0  0  0  0  0  0
  -28.2160  -13.6610   19.5210 C   0  0  0  0  0  3  0  0  0  0  0  0
  -29.4110  -13.7410   20.4990 C   0  0  0  0  0  2  0  0  0  0  0  0
  -30.5100  -14.3940   19.7490 N   0  0  0  0  0  0  0  0  0  0  0  0
  -32.2110  -15.7500   19.3470 O   0  0  0  0  0  0  0  0  0  0  0  0
  -30.3210  -17.0270   20.0610 N   0  0  0  0  0  0  0  0  0  0  0  0
  -25.9520  -14.1390   20.6010 C   0  0  0  0  0  0  0  0  0  0  0  0
  -24.9420  -13.3260   21.0310 C   0  0  0  0  0  0  0  0  0  0  0  0
  -25.3890  -11.9880   20.8130 C   0  0  0  0  0  0  0  0  0  0  0  0
  -26.9580  -13.2960   20.1620 N   0  0  0  0  0  0  0  0  0  0  0  0
  -26.6350  -11.9890   20.3470 N   0  0  0  0  0  0  0  0  0  0  0  0
  -24.6820  -10.7120   20.9720 C   0  0  0  0  0  0  0  0  0  0  0  0
  -25.1230   -9.7310   21.8880 C   0  0  0  0  0  3  0  0  0  0  0  0
  -24.4110   -8.5210   22.0390 C   0  0  0  0  0  3  0  0  0  0  0  0
  -23.2430   -8.2840   21.2760 C   0  0  0  0  0  0  0  0  0  0  0  0
  -22.8190   -9.2560   20.3530 C   0  0  0  0  0  3  0  0  0  0  0  0
  -23.5310  -10.4570   20.1980 C   0  0  0  0  0  3  0  0  0  0  0  0
  -22.5030   -7.1270   21.3390 O   0  0  0  0  0  0  0  0  0  0  0  0
  -22.2970   -6.4680   22.5250 C   0  0  0  0  0  0  0  0  0  0  0  0
  -21.6920   -7.1010   23.6330 C   0  0  0  0  0  3  0  0  0  0  0  0
  -21.4330   -6.3670   24.8070 C   0  0  0  0  0  3  0  0  0  0  0  0
  -21.7710   -5.0020   24.8750 C   0  0  0  0  0  0  0  0  0  0  0  0
  -22.3680   -4.3700   23.7720 C   0  0  0  0  0  3  0  0  0  0  0  0
  -22.6280   -5.1010   22.5990 C   0  0  0  0  0  0  0  0  0  0  0  0
  -23.1860   -4.4800   21.5320 F   0  0  0  0  0  0  0  0  0  0  0  0
  -21.5150   -4.2970   26.0020 F   0  0  0  0  0  0  0  0  0  0  0  0
  -23.5930  -13.7740   21.5160 C   0  0  0  0  0  0  0  0  0  0  0  0
  -22.9930  -13.0250   22.4330 N   0  0  0  0  0  0  0  0  0  0  0  0
  -23.0920  -14.8260   21.1240 O   0  0  0  0  0  0  0  0  0  0  0  0
  -23.4200  -12.1790   22.7800 H   0  0  0  0  0  0  0  0  0  0  0  0
  -22.0940  -13.3050   22.8000 H   0  0  0  0  0  0  0  0  0  0  0  0
  -26.0810  -15.5210   20.5190 N   0  0  0  0  0  0  0  0  0  0  0  0
  -25.3030  -16.1350   20.7370 H   0  0  0  0  0  0  0  0  0  0  0  0
  -26.8580  -16.0030   20.0850 H   0  0  0  0  0  0  0  0  0  0  0  0
  -29.8030  -17.0870   22.4700 C   0  0  0  0  0  1  0  0  0  0  0  0
  -29.2390  -17.0170   21.0440 C   0  0  0  0  0  2  0  0  0  0  0  0
  1  2  1  0
  2  5  2  0
  3  5  1  0
  4  1  2  0
  5  7  1  0
  6  4  1  0
  6  3  2  0
  7  9  1  0
  7  8  1  0
 10  6  1  0
 11 22  2  0
 12 10  1  0
 12 17  1  0
 13 21  1  0
 13 23  1  0
 14 20  1  0
 14 16  1  0
 15 21  1  0
 16 15  1  0
 17 16  2  0
 18 19  1  0
 18 12  2  0
 19 14  2  0
 20 13  1  0
 21 11  1  0
 23 25  2  0
 24 23  1  0
 26 24  1  0
 27 36  2  0
 27 32  1  0
 28 24  1  0
 28 32  1  0
 29 28  1  0
 30 31  1  0
 30 29  1  0
 31 27  1  0
 32 33  2  0
 33 34  1  0
 35 34  2  0
 36 35  1  0
 37 11  1  0
 37 38  1  0
 37 47  1  0
 38 41  1  0
 39 43  1  0
 39 38  1  0
 40 39  2  0
 43 42  1  0
 45 43  1  0
 45 46  1  0
 45 44  1  0
 47 50  1  1
 47 48  1  0
 49 47  1  0
 51 52  1  0
 51  4  1  0
 53 62  1  0
 53 52  2  0
 54 62  1  0
 55 60  1  0
 56 57  1  0
 56 55  1  0
 58 57  1  0
 58 66  1  0
 58 59  1  0
 60 54  1  0
 60 59  1  0
 61 54  2  0
 62 92  1  0
 63 64  2  0
 64 83  1  0
 65 68  1  0
 65 64  1  0
 66 67  1  0
 66 63  1  0
 67 65  2  0
 68 69  1  0
 69 70  2  0
 71 74  1  0
 71 70  1  0
 72 71  2  0
 73 72  1  0
 73 68  2  0
 74 75  1  0
 75 80  2  0
 75 76  1  0
 76 77  2  0
 77 78  1  0
 78 82  1  0
 79 78  2  0
 80 79  1  0
 81 80  1  0
 83 84  1  0
 84 86  1  0
 84 87  1  0
 85 83  2  0
 88 63  1  0
 88 89  1  0
 90 88  1  0
 92 91  1  0
M  ISO  4   6 101  10 101  54 100  62 100
M  END
>  <TORSDO>  (86) 
F 21

>  <SCORE>  (86) 
-11.818

>  <name>  (86) 
85

>  <ligand_id>  (86) 
85

>  <original_smiles>  (86) 
[H]c1c([H])c([H])c2c(c1[H])C([H])([H])C([H])([H])C([H])([H])C2([H])N([H])C(=O)C1([H])N(C(=O)C([H])(N([H])C(=O)C([H])(N([H])C([H])([H])[H])C([H])([H])[H])C(C([H])([H])[H])(C([H])([H])[H])C([H])([H])[H])C([H])([H])c2c([H])c(Oc3c([H])c(N([H])[H])c([H])c([H])c3C([H])([H])C([H])([H])C([H])([H])N(C(=O)N3C([H])([H])C([H])([H])C([H])([H])C([H])(n4nc(-c5c([H])c([H])c(Oc6c([H])c([H])c(F)c([H])c6F)c([H])c5[H])c(C(=O)N([H])[H])c4N([H])[H])C3([H])[H])C([H])([H])C([H])([H])[H])c([H])c([H])c2C1([H])[H]

>  <smiles>  (86) 
[H]c1c([H])c([H])c2c(c1[H])C([H])([H])C([H])([H])C([H])([H])C2([H])N([H])C(=O)C1([H])N(C(=O)C([H])(N([H])C(=O)C([H])(N([H])C([H])([H])[H])C([H])([H])[H])C(C([H])([H])[H])(C([H])([H])[H])C([H])([H])[H])C([H])([H])c2c([H])c(Oc3c([H])c(N([H])[H])c([H])c([H])c3C([H])([H])C([H])([H])C([H])([H])N(C(=O)N3C([H])([H])C([H])([H])C([H])([H])C([H])(n4nc(-c5c([H])c([H])c(Oc6c([H])c([H])c(F)c([H])c6F)c([H])c5[H])c(C(=O)N([H])[H])c4N([H])[H])C3([H])[H])C([H])([H])C([H])([H])[H])c([H])c([H])c2C1([H])[H]

$$$$
86:0:0
     RDKit          3D

 91 99  0  0  1  0  0  0  0  0999 V2000
  -29.2600  -22.6980   22.1920 C   0  0  0  0  0  3  0  0  0  0  0  0
  -28.7240  -23.8290   20.1250 C   0  0  0  0  0  3  0  0  0  0  0  0
  -29.0340  -22.5450   20.8020 C   0  0  0  0  0  0  0  0  0  0  0  0
  -28.8340  -25.1680   22.1630 C   0  0  0  0  0  0  0  0  0  0  0  0
  -29.1800  -23.9590   22.8450 C   0  0  0  0  0  0  0  0  0  0  0  0
  -28.5970  -25.1760   20.7410 C   0  0  0  0  0  0  0  0  0  0  0  0
  -28.7430  -26.4750   22.9720 C   0  0  0  0  0  1  0  0  0  0  0  0
  -29.4880  -23.9740   24.2150 N   0  0  0  0  0  0  0  0  0  0  0  0
  -30.0360  -23.2170   24.6140 H   0  0  0  0  0  0  0  0  0  0  0  0
  -29.6400  -24.8600   24.6930 H   0  0  0  0  0  0  0  0  0  0  0  0
  -28.4600  -26.4460   20.0130 O   0  0  0  0  0  0  0  0  0  0  0  0
  -24.6960  -31.8520   23.1690 C   0  0  0  0  0  0  0  0  0  0  0  0
  -27.3390  -27.3510   20.0060 C   0  0  0  0  0  0  0  0  0  0  0  0
  -23.4860  -30.4690   21.5210 C   0  0  0  0  0  3  0  0  0  0  0  0
  -24.9440  -28.9830   20.0110 C   0  0  0  0  0  0  0  0  0  0  0  0
  -26.0070  -30.8550   21.2730 C   0  0  0  0  0  2  0  0  0  0  0  0
  -26.1160  -29.4830   20.5920 C   0  0  0  0  0  0  0  0  0  0  0  0
  -27.3160  -28.6820   20.5660 C   0  0  0  0  0  3  0  0  0  0  0  0
  -26.1520  -26.9520   19.3530 C   0  0  0  0  0  3  0  0  0  0  0  0
  -24.9700  -27.7340   19.3660 C   0  0  0  0  0  3  0  0  0  0  0  0
  -23.6820  -29.8250   20.1190 C   0  0  0  0  0  2  0  0  0  0  0  0
  -24.7500  -31.0780   22.0450 N   0  0  0  0  0  0  0  0  0  0  0  0
  -23.6250  -32.0770   23.7530 O   0  0  0  0  0  0  0  0  0  0  0  0
  -22.8830  -29.4110   22.4790 C   0  0  0  0  0  0  0  0  0  0  0  0
  -21.5770  -29.1350   22.3340 N   0  0  0  0  0  0  0  0  0  0  0  0
  -23.5920  -28.8420   23.3130 O   0  0  0  0  0  0  0  0  0  0  0  0
  -21.0670  -29.6440   21.6280 H   0  0  0  0  0  0  0  0  0  0  0  0
  -18.3090  -27.6220   22.7550 C   0  0  0  0  0  0  0  0  0  0  0  0
  -20.8220  -28.1350   23.0910 C   0  0  0  0  0  3  0  0  0  0  0  0
  -21.0790  -26.7130   22.5430 C   0  0  0  0  0  2  0  0  0  0  0  0
  -20.0460  -26.2710   21.5040 C   0  0  0  0  0  2  0  0  0  0  0  0
  -18.6360  -26.2900   22.1020 C   0  0  0  0  0  2  0  0  0  0  0  0
  -19.3360  -28.5000   23.2030 C   0  0  0  0  0  0  0  0  0  0  0  0
  -18.9730  -29.7410   23.7680 C   0  0  0  0  0  3  0  0  0  0  0  0
  -17.6230  -30.1140   23.8880 C   0  0  0  0  0  3  0  0  0  0  0  0
  -16.6110  -29.2360   23.4580 C   0  0  0  0  0  3  0  0  0  0  0  0
  -16.9550  -27.9920   22.9000 C   0  0  0  0  0  3  0  0  0  0  0  0
  -25.9810  -32.5110   23.7650 C   0  0  0  0  0  3  0  0  0  0  0  0
  -25.6490  -33.9000   24.1220 N   0  0  0  0  0  0  0  0  0  0  0  0
  -25.9510  -34.9700   23.3750 C   0  0  0  0  0  0  0  0  0  0  0  0
  -26.6060  -34.8940   22.3320 O   0  0  0  0  0  0  0  0  0  0  0  0
  -25.0700  -34.0310   24.9380 H   0  0  0  0  0  0  0  0  0  0  0  0
  -24.1880  -36.7350   23.0580 C   0  0  0  0  0  1  0  0  0  0  0  0
  -25.4460  -36.3430   23.8540 C   0  0  0  0  0  3  0  0  0  0  0  0
  -27.5700  -37.2570   24.6860 C   0  0  0  0  0  1  0  0  0  0  0  0
  -26.4600  -37.4190   23.7490 N   0  0  0  0  0  0  0  0  0  0  0  0
  -26.0380  -38.3300   23.9150 H   0  0  0  0  0  0  0  0  0  0  0  0
  -26.5470  -31.7320   25.0170 C   0  0  1  0  0  0  0  0  0  0  0  0
  -25.4840  -31.4490   26.1040 C   0  0  0  0  0  1  0  0  0  0  0  0
  -27.1580  -30.3740   24.5970 C   0  0  0  0  0  1  0  0  0  0  0  0
  -27.6970  -32.5440   25.6560 C   0  0  0  0  0  1  0  0  0  0  0  0
  -29.1780  -21.0350   20.1210 C   0  0  0  0  0  3  0  0  0  0  0  0
  -29.5290  -19.5630   20.8990 C   0  0  0  0  0  3  0  0  0  0  0  0
  -29.9120  -18.1100   20.1000 C   0  0  0  0  0  3  0  0  0  0  0  0
  -29.8080  -16.5280   20.7000 C   0  0  0  0  0  3  0  0  0  0  0  0
  -30.5630  -15.1670   20.0950 C   0  0  0  0  0  0  0  0  0  0  0  0
  -30.4160  -12.8750   18.9850 C   0  0  0  0  0  2  0  0  0  0  0  0
  -29.4090  -12.8990   17.8060 C   0  0  0  0  0  2  0  0  0  0  0  0
  -27.9580  -12.6820   18.2740 C   0  0  0  0  0  2  0  0  0  0  0  0
  -27.6300  -13.5160   19.5320 C   0  0  0  0  0  3  0  0  0  0  0  0
  -28.7330  -13.4440   20.6120 C   0  0  0  0  0  2  0  0  0  0  0  0
  -29.9860  -13.8990   19.9870 N   0  0  0  0  0  0  0  0  0  0  0  0
  -31.7100  -15.2760   19.6430 O   0  0  0  0  0  0  0  0  0  0  0  0
  -25.2710  -14.0710   20.3510 C   0  0  0  0  0  0  0  0  0  0  0  0
  -24.2230  -13.2900   20.7480 C   0  0  0  0  0  0  0  0  0  0  0  0
  -24.6910  -11.9390   20.6910 C   0  0  0  0  0  0  0  0  0  0  0  0
  -26.3090  -13.2020   20.0640 N   0  0  0  0  0  0  0  0  0  0  0  0
  -25.9720  -11.9110   20.3330 N   0  0  0  0  0  0  0  0  0  0  0  0
  -23.9750  -10.6750   20.9080 C   0  0  0  0  0  0  0  0  0  0  0  0
  -24.4120   -9.7320   21.8660 C   0  0  0  0  0  3  0  0  0  0  0  0
  -23.7040   -8.5290   22.0620 C   0  0  0  0  0  3  0  0  0  0  0  0
  -22.5410   -8.2610   21.3000 C   0  0  0  0  0  0  0  0  0  0  0  0
  -22.1280   -9.1870   20.3260 C   0  0  0  0  0  3  0  0  0  0  0  0
  -22.8360  -10.3820   20.1300 C   0  0  0  0  0  3  0  0  0  0  0  0
  -21.8000   -7.1090   21.4040 O   0  0  0  0  0  0  0  0  0  0  0  0
  -21.7120   -6.4130   22.5830 C   0  0  0  0  0  0  0  0  0  0  0  0
  -21.1780   -6.9900   23.7560 C   0  0  0  0  0  3  0  0  0  0  0  0
  -21.0490   -6.2160   24.9250 C   0  0  0  0  0  3  0  0  0  0  0  0
  -21.4390   -4.8630   24.9180 C   0  0  0  0  0  0  0  0  0  0  0  0
  -21.9650   -4.2820   23.7510 C   0  0  0  0  0  3  0  0  0  0  0  0
  -22.0970   -5.0560   22.5850 C   0  0  0  0  0  0  0  0  0  0  0  0
  -22.5880   -4.4860   21.4570 F   0  0  0  0  0  0  0  0  0  0  0  0
  -21.3020   -4.1160   26.0370 F   0  0  0  0  0  0  0  0  0  0  0  0
  -22.8340  -13.7570   21.0720 C   0  0  0  0  0  0  0  0  0  0  0  0
  -22.1430  -13.0440   21.9530 N   0  0  0  0  0  0  0  0  0  0  0  0
  -22.3740  -14.7880   20.5830 O   0  0  0  0  0  0  0  0  0  0  0  0
  -22.5400  -12.2220   22.3790 H   0  0  0  0  0  0  0  0  0  0  0  0
  -21.2120  -13.3300   22.2140 H   0  0  0  0  0  0  0  0  0  0  0  0
  -25.4300  -15.4460   20.1800 N   0  0  0  0  0  0  0  0  0  0  0  0
  -24.6640  -16.1020   20.2900 H   0  0  0  0  0  0  0  0  0  0  0  0
  -26.2790  -15.8750   19.8300 H   0  0  0  0  0  0  0  0  0  0  0  0
  1  5  1  0
  2  6  2  0
  2  3  1  0
  3  1  2  0
  4  5  2  0
  4  7  1  0
  5  8  1  0
  6  4  1  0
  8  9  1  0
  8 10  1  0
 11  6  1  0
 12 23  2  0
 13 11  1  0
 13 18  1  0
 14 22  1  0
 14 24  1  0
 15 21  1  0
 15 17  1  0
 16 22  1  0
 17 16  1  0
 18 17  2  0
 19 20  1  0
 19 13  2  0
 20 15  2  0
 21 14  1  0
 22 12  1  0
 24 26  2  0
 25 24  1  0
 27 25  1  0
 28 37  2  0
 28 33  1  0
 29 25  1  0
 29 33  1  0
 30 29  1  0
 31 32  1  0
 31 30  1  0
 32 28  1  0
 33 34  2  0
 34 35  1  0
 36 35  2  0
 37 36  1  0
 38 12  1  0
 38 39  1  0
 38 48  1  0
 39 42  1  0
 40 44  1  0
 40 39  1  0
 41 40  2  0
 44 43  1  0
 46 44  1  0
 46 47  1  0
 46 45  1  0
 48 51  1  1
 48 49  1  0
 50 48  1  0
 52  3  1  0
 52 53  2  0
 54 55  2  0
 54 53  1  0
 56 55  1  0
 57 62  1  0
 58 59  1  0
 58 57  1  0
 60 59  1  0
 60 67  1  0
 60 61  1  0
 62 56  1  0
 62 61  1  0
 63 56  2  0
 64 65  2  0
 65 84  1  0
 66 65  1  0
 66 69  1  0
 67 68  1  0
 67 64  1  0
 68 66  2  0
 69 70  1  0
 70 71  2  0
 72 75  1  0
 72 71  1  0
 73 72  2  0
 74 73  1  0
 74 69  2  0
 75 76  1  0
 76 81  2  0
 76 77  1  0
 77 78  2  0
 79 78  1  0
 79 83  1  0
 80 79  2  0
 81 80  1  0
 82 81  1  0
 84 85  1  0
 85 88  1  0
 85 87  1  0
 86 84  2  0
 89 90  1  0
 89 64  1  0
 91 89  1  0
M  ISO  4   6 101  11 101  55 100  56 100
M  END
>  <TORSDO>  (87) 
F 21

>  <SCORE>  (87) 
-14.851

>  <name>  (87) 
86

>  <ligand_id>  (87) 
86

>  <original_smiles>  (87) 
[H]c1c([H])c([H])c2c(c1[H])C([H])([H])C([H])([H])C([H])([H])C2([H])N([H])C(=O)C1([H])N(C(=O)C([H])(N([H])C(=O)C([H])(N([H])C([H])([H])[H])C([H])([H])[H])C(C([H])([H])[H])(C([H])([H])[H])C([H])([H])[H])C([H])([H])c2c([H])c(Oc3c([H])c(C([H])([H])C([H])([H])C([H])([H])C([H])([H])C(=O)N4C([H])([H])C([H])([H])C([H])([H])C([H])(n5nc(-c6c([H])c([H])c(Oc7c([H])c([H])c(F)c([H])c7F)c([H])c6[H])c(C(=O)N([H])[H])c5N([H])[H])C4([H])[H])c([H])c(N([H])[H])c3C([H])([H])[H])c([H])c([H])c2C1([H])[H]

>  <smiles>  (87) 
[H]c1c([H])c([H])c2c(c1[H])C([H])([H])C([H])([H])C([H])([H])C2([H])N([H])C(=O)C1([H])N(C(=O)C([H])(N([H])C(=O)C([H])(N([H])C([H])([H])[H])C([H])([H])[H])C(C([H])([H])[H])(C([H])([H])[H])C([H])([H])[H])C([H])([H])c2c([H])c(Oc3c([H])c(C([H])([H])C([H])([H])C([H])([H])C([H])([H])C(=O)N4C([H])([H])C([H])([H])C([H])([H])C([H])(n5nc(-c6c([H])c([H])c(Oc7c([H])c([H])c(F)c([H])c7F)c([H])c6[H])c(C(=O)N([H])[H])c5N([H])[H])C4([H])[H])c([H])c(N([H])[H])c3C([H])([H])[H])c([H])c([H])c2C1([H])[H]

$$$$
87:0:0
     RDKit          3D

 92101  0  0  1  0  0  0  0  0999 V2000
  -28.7250  -23.7040   19.9480 C   0  0  0  0  0  3  0  0  0  0  0  0
  -27.3260  -22.2930   21.3440 C   0  0  0  0  0  3  0  0  0  0  0  0
  -26.9690  -24.7250   21.2930 C   0  0  0  0  0  3  0  0  0  0  0  0
  -28.4050  -22.3370   20.4350 C   0  0  0  0  0  0  0  0  0  0  0  0
  -28.0100  -24.9450   20.3610 C   0  0  0  0  0  0  0  0  0  0  0  0
  -26.6300  -23.4420   21.7620 C   0  0  0  0  0  0  0  0  0  0  0  0
  -25.6130  -23.3130   22.6470 F   0  0  0  0  0  0  0  0  0  0  0  0
  -28.8260  -20.0670   19.1200 C   0  0  0  0  0  3  0  0  0  0  0  0
  -29.0160  -20.8790   20.2040 C   0  0  0  0  0  0  0  0  0  0  0  0
  -29.2250  -18.5310   18.9370 C   0  0  0  0  0  2  0  0  0  0  0  0
  -29.7870  -20.1240   21.3230 C   0  0  0  0  0  2  0  0  0  0  0  0
  -29.6730  -18.5300   21.3630 C   0  0  0  0  0  2  0  0  0  0  0  0
  -30.0430  -17.7380   20.0600 C   0  0  0  0  0  3  0  0  0  0  0  0
  -30.6890  -15.0570   19.9160 C   0  0  0  0  0  0  0  0  0  0  0  0
  -30.5700  -12.7160   18.9770 C   0  0  0  0  0  2  0  0  0  0  0  0
  -29.5550  -12.6740   17.8110 C   0  0  0  0  0  2  0  0  0  0  0  0
  -28.1260  -12.4360   18.3350 C   0  0  0  0  0  2  0  0  0  0  0  0
  -27.7820  -13.3390   19.5480 C   0  0  0  0  0  3  0  0  0  0  0  0
  -28.9100  -13.3540   20.6010 C   0  0  0  0  0  2  0  0  0  0  0  0
  -30.1330  -13.7860   19.9130 N   0  0  0  0  0  0  0  0  0  0  0  0
  -31.8570  -15.1850   19.5390 O   0  0  0  0  0  0  0  0  0  0  0  0
  -29.8610  -16.1800   20.1410 N   0  0  0  0  0  0  0  0  0  0  0  0
  -28.9270  -15.9050   20.4020 H   0  0  0  0  0  0  0  0  0  0  0  0
  -25.4600  -13.8590   20.4980 C   0  0  0  0  0  0  0  0  0  0  0  0
  -24.4320  -13.0550   20.9080 C   0  0  0  0  0  0  0  0  0  0  0  0
  -24.9000  -11.7120   20.7690 C   0  0  0  0  0  0  0  0  0  0  0  0
  -26.4860  -13.0050   20.1310 N   0  0  0  0  0  0  0  0  0  0  0  0
  -26.1640  -11.7050   20.3580 N   0  0  0  0  0  0  0  0  0  0  0  0
  -24.1970  -10.4350   20.9470 C   0  0  0  0  0  0  0  0  0  0  0  0
  -24.6290   -9.4800   21.8920 C   0  0  0  0  0  3  0  0  0  0  0  0
  -23.9260   -8.2670   22.0600 C   0  0  0  0  0  3  0  0  0  0  0  0
  -22.7760   -8.0020   21.2790 C   0  0  0  0  0  0  0  0  0  0  0  0
  -22.3620   -8.9470   20.3230 C   0  0  0  0  0  3  0  0  0  0  0  0
  -23.0660  -10.1500   20.1550 C   0  0  0  0  0  3  0  0  0  0  0  0
  -22.0430   -6.8420   21.3540 O   0  0  0  0  0  0  0  0  0  0  0  0
  -21.8650   -6.1780   22.5420 C   0  0  0  0  0  0  0  0  0  0  0  0
  -21.2530   -6.7940   23.6540 C   0  0  0  0  0  3  0  0  0  0  0  0
  -21.0260   -6.0540   24.8320 C   0  0  0  0  0  3  0  0  0  0  0  0
  -21.4040   -4.7000   24.8970 C   0  0  0  0  0  0  0  0  0  0  0  0
  -22.0100   -4.0830   23.7880 C   0  0  0  0  0  3  0  0  0  0  0  0
  -22.2380   -4.8200   22.6130 C   0  0  0  0  0  0  0  0  0  0  0  0
  -22.8030   -4.2170   21.5400 F   0  0  0  0  0  0  0  0  0  0  0  0
  -21.1800   -3.9870   26.0250 F   0  0  0  0  0  0  0  0  0  0  0  0
  -23.0570  -13.5040   21.3100 C   0  0  0  0  0  0  0  0  0  0  0  0
  -22.4050  -12.7610   22.1960 N   0  0  0  0  0  0  0  0  0  0  0  0
  -22.5740  -14.5480   20.8730 O   0  0  0  0  0  0  0  0  0  0  0  0
  -22.8130  -11.9170   22.5700 H   0  0  0  0  0  0  0  0  0  0  0  0
  -21.4870  -13.0430   22.5080 H   0  0  0  0  0  0  0  0  0  0  0  0
  -25.5980  -15.2390   20.3810 N   0  0  0  0  0  0  0  0  0  0  0  0
  -24.8280  -15.8680   20.5790 H   0  0  0  0  0  0  0  0  0  0  0  0
  -26.3930  -15.7070   19.9650 H   0  0  0  0  0  0  0  0  0  0  0  0
  -28.2650  -26.3400   20.0050 O   0  0  0  0  0  0  0  0  0  0  0  0
  -24.7330  -31.8770   23.3350 C   0  0  0  0  0  0  0  0  0  0  0  0
  -27.2440  -27.3490   20.0280 C   0  0  0  0  0  0  0  0  0  0  0  0
  -23.5260  -30.6330   21.5790 C   0  0  0  0  0  3  0  0  0  0  0  0
  -24.9600  -29.1260   20.0740 C   0  0  0  0  0  0  0  0  0  0  0  0
  -26.0860  -30.8490   21.4770 C   0  0  0  0  0  2  0  0  0  0  0  0
  -26.1370  -29.5040   20.7360 C   0  0  0  0  0  0  0  0  0  0  0  0
  -27.2810  -28.6290   20.7050 C   0  0  0  0  0  3  0  0  0  0  0  0
  -26.0520  -27.0690   19.3290 C   0  0  0  0  0  3  0  0  0  0  0  0
  -24.9280  -27.9200   19.3580 C   0  0  0  0  0  3  0  0  0  0  0  0
  -23.7550  -30.0480   20.1600 C   0  0  0  0  0  2  0  0  0  0  0  0
  -24.8010  -31.1370   22.1870 N   0  0  0  0  0  0  0  0  0  0  0  0
  -23.6460  -32.1530   23.8640 O   0  0  0  0  0  0  0  0  0  0  0  0
  -22.8040  -29.5790   22.4570 C   0  0  0  0  0  0  0  0  0  0  0  0
  -21.4740  -29.4570   22.2960 N   0  0  0  0  0  0  0  0  0  0  0  0
  -23.4440  -28.8790   23.2450 O   0  0  0  0  0  0  0  0  0  0  0  0
  -21.0170  -30.0740   21.6410 H   0  0  0  0  0  0  0  0  0  0  0  0
  -18.0410  -28.3870   22.7250 C   0  0  0  0  0  0  0  0  0  0  0  0
  -20.6120  -28.4940   22.9870 C   0  0  0  0  0  3  0  0  0  0  0  0
  -20.6370  -27.1190   22.2810 C   0  0  0  0  0  2  0  0  0  0  0  0
  -19.5140  -26.9480   21.2530 C   0  0  0  0  0  2  0  0  0  0  0  0
  -18.1450  -27.1000   21.9230 C   0  0  0  0  0  2  0  0  0  0  0  0
  -19.1990  -29.0500   23.2100 C   0  0  0  0  0  0  0  0  0  0  0  0
  -19.0470  -30.2600   23.9210 C   0  0  0  0  0  3  0  0  0  0  0  0
  -17.7700  -30.8060   24.1510 C   0  0  0  0  0  3  0  0  0  0  0  0
  -16.6260  -30.1380   23.6800 C   0  0  0  0  0  3  0  0  0  0  0  0
  -16.7620  -28.9300   22.9720 C   0  0  0  0  0  3  0  0  0  0  0  0
  -26.0170  -32.4290   24.0260 C   0  0  0  0  0  3  0  0  0  0  0  0
  -25.7560  -33.8270   24.4050 N   0  0  0  0  0  0  0  0  0  0  0  0
  -26.1320  -34.8960   23.6890 C   0  0  0  0  0  0  0  0  0  0  0  0
  -26.8020  -34.8040   22.6570 O   0  0  0  0  0  0  0  0  0  0  0  0
  -25.1640  -33.9730   25.2100 H   0  0  0  0  0  0  0  0  0  0  0  0
  -24.4570  -36.7540   23.4200 C   0  0  0  0  0  1  0  0  0  0  0  0
  -25.6960  -36.2850   24.1980 C   0  0  0  0  0  3  0  0  0  0  0  0
  -27.8660  -37.0820   25.0290 C   0  0  0  0  0  1  0  0  0  0  0  0
  -26.7610  -37.3080   24.1010 N   0  0  0  0  0  0  0  0  0  0  0  0
  -26.3850  -38.2370   24.2750 H   0  0  0  0  0  0  0  0  0  0  0  0
  -26.4520  -31.5890   25.2890 C   0  0  1  0  0  0  0  0  0  0  0  0
  -25.3120  -31.3600   26.3080 C   0  0  0  0  0  1  0  0  0  0  0  0
  -26.9880  -30.2000   24.8690 C   0  0  0  0  0  1  0  0  0  0  0  0
  -27.6130  -32.3030   26.0210 C   0  0  0  0  0  1  0  0  0  0  0  0
  1  5  2  0
  1  4  1  0
  2  6  1  0
  3  6  2  0
  4  2  2  0
  5  3  1  0
  6  7  1  0
  8  9  2  0
  9  4  1  0
  9 11  1  0
 10  8  1  0
 10 13  1  0
 11 12  1  0
 13 22  1  0
 13 12  1  0
 14 22  1  0
 15 20  1  0
 16 17  1  0
 16 15  1  0
 18 17  1  0
 18 27  1  0
 18 19  1  0
 20 14  1  0
 20 19  1  0
 21 14  2  0
 22 23  1  0
 24 25  2  0
 25 44  1  0
 26 25  1  0
 26 29  1  0
 27 28  1  0
 27 24  1  0
 28 26  2  0
 29 30  1  0
 30 31  2  0
 32 35  1  0
 32 31  1  0
 33 32  2  0
 34 33  1  0
 34 29  2  0
 35 36  1  0
 36 41  2  0
 36 37  1  0
 37 38  2  0
 38 39  1  0
 39 43  1  0
 40 39  2  0
 41 40  1  0
 42 41  1  0
 44 45  1  0
 45 48  1  0
 45 47  1  0
 46 44  2  0
 49 24  1  0
 49 50  1  0
 51 49  1  0
 52 54  1  0
 52  5  1  0
 53 64  2  0
 54 59  1  0
 55 63  1  0
 55 65  1  0
 56 62  1  0
 56 58  1  0
 57 63  1  0
 58 57  1  0
 59 58  2  0
 60 61  1  0
 60 54  2  0
 61 56  2  0
 62 55  1  0
 63 53  1  0
 65 67  2  0
 66 65  1  0
 68 66  1  0
 69 78  2  0
 69 74  1  0
 70 66  1  0
 70 74  1  0
 71 70  1  0
 72 73  1  0
 72 71  1  0
 73 69  1  0
 74 75  2  0
 75 76  1  0
 77 76  2  0
 78 77  1  0
 79 53  1  0
 79 80  1  0
 79 89  1  0
 80 83  1  0
 81 85  1  0
 81 80  1  0
 82 81  2  0
 85 84  1  0
 87 85  1  0
 87 88  1  0
 87 86  1  0
 89 92  1  1
 89 90  1  0
 91 89  1  0
M  ISO  4   5 101  14 100  22 100  52 101
M  END
>  <TORSDO>  (88) 
F 17

>  <SCORE>  (88) 
-14.027

>  <name>  (88) 
87

>  <ligand_id>  (88) 
87

>  <original_smiles>  (88) 
[H]C1=C(c2c([H])c(F)c([H])c(Oc3c([H])c([H])c4c(c3[H])C([H])([H])N(C(=O)C([H])(N([H])C(=O)C([H])(N([H])C([H])([H])[H])C([H])([H])[H])C(C([H])([H])[H])(C([H])([H])[H])C([H])([H])[H])C([H])(C(=O)N([H])C3([H])c5c([H])c([H])c([H])c([H])c5C([H])([H])C([H])([H])C3([H])[H])C4([H])[H])c2[H])C([H])([H])C([H])([H])C([H])(N([H])C(=O)N2C([H])([H])C([H])([H])C([H])([H])C([H])(n3nc(-c4c([H])c([H])c(Oc5c([H])c([H])c(F)c([H])c5F)c([H])c4[H])c(C(=O)N([H])[H])c3N([H])[H])C2([H])[H])C1([H])[H]

>  <smiles>  (88) 
[H]C1=C(c2c([H])c(F)c([H])c(Oc3c([H])c([H])c4c(c3[H])C([H])([H])N(C(=O)C([H])(N([H])C(=O)C([H])(N([H])C([H])([H])[H])C([H])([H])[H])C(C([H])([H])[H])(C([H])([H])[H])C([H])([H])[H])C([H])(C(=O)N([H])C3([H])c5c([H])c([H])c([H])c([H])c5C([H])([H])C([H])([H])C3([H])[H])C4([H])[H])c2[H])C([H])([H])C([H])([H])C([H])(N([H])C(=O)N2C([H])([H])C([H])([H])C([H])([H])C([H])(n3nc(-c4c([H])c([H])c(Oc5c([H])c([H])c(F)c([H])c5F)c([H])c4[H])c(C(=O)N([H])[H])c3N([H])[H])C2([H])[H])C1([H])[H]

$$$$
88:0:0
     RDKit          3D

 91100  0  0  1  0  0  0  0  0999 V2000
  -31.1520  -20.5600   19.7760 C   0  0  0  0  0  3  0  0  0  0  0  0
  -29.7740  -20.7180   20.1180 C   0  0  0  0  0  0  0  0  0  0  0  0
  -29.4380  -22.2650   20.1350 C   0  0  0  0  0  0  0  0  0  0  0  0
  -31.8620  -21.7020   19.5390 C   0  0  0  0  0  0  0  0  0  0  0  0
  -27.1410  -20.9970   19.4120 C   0  0  0  0  0  3  0  0  0  0  0  0
  -27.5660  -19.5950   20.1930 C   0  0  0  0  0  3  0  0  0  0  0  0
  -26.9410  -22.5560   19.9520 C   0  0  0  0  0  3  0  0  0  0  0  0
  -29.0960  -19.0760   20.3750 C   0  0  0  0  0  3  0  0  0  0  0  0
  -28.1670  -23.5170   20.3450 C   0  0  0  0  0  0  0  0  0  0  0  0
  -30.8970  -23.1300   19.7130 S   0  0  0  0  0  0  0  0  0  0  0  0
  -30.2230  -15.8720   20.1430 C   0  0  0  0  0  0  0  0  0  0  0  0
  -30.4190  -13.2860   19.3200 C   0  0  0  0  0  2  0  0  0  0  0  0
  -29.5470  -12.7630   18.1370 C   0  0  0  0  0  2  0  0  0  0  0  0
  -28.1440  -12.3560   18.6110 C   0  0  0  0  0  2  0  0  0  0  0  0
  -27.5980  -13.3650   19.6410 C   0  0  0  0  0  3  0  0  0  0  0  0
  -28.6210  -13.7710   20.7320 C   0  0  0  0  0  2  0  0  0  0  0  0
  -29.7410  -14.4700   20.0420 N   0  0  0  0  0  0  0  0  0  0  0  0
  -31.4700  -15.7960   20.0650 O   0  0  0  0  0  0  0  0  0  0  0  0
  -29.4110  -17.2530   20.1460 N   0  0  0  0  0  0  0  0  0  0  0  0
  -28.4760  -16.8950   20.0180 H   0  0  0  0  0  0  0  0  0  0  0  0
  -25.2310  -13.8500   20.4110 C   0  0  0  0  0  0  0  0  0  0  0  0
  -24.1890  -13.0540   20.7870 C   0  0  0  0  0  0  0  0  0  0  0  0
  -24.6870  -11.7140   20.7730 C   0  0  0  0  0  0  0  0  0  0  0  0
  -26.2940  -12.9990   20.1760 N   0  0  0  0  0  0  0  0  0  0  0  0
  -25.9810  -11.7060   20.4600 N   0  0  0  0  0  0  0  0  0  0  0  0
  -23.9820  -10.4400   20.9760 C   0  0  0  0  0  0  0  0  0  0  0  0
  -24.4260   -9.4910   21.9240 C   0  0  0  0  0  3  0  0  0  0  0  0
  -23.7160   -8.2870   22.1190 C   0  0  0  0  0  3  0  0  0  0  0  0
  -22.5470   -8.0210   21.3650 C   0  0  0  0  0  0  0  0  0  0  0  0
  -22.1230   -8.9590   20.4070 C   0  0  0  0  0  3  0  0  0  0  0  0
  -22.8340  -10.1550   20.2110 C   0  0  0  0  0  3  0  0  0  0  0  0
  -21.8080   -6.8670   21.4670 O   0  0  0  0  0  0  0  0  0  0  0  0
  -21.7680   -6.1390   22.6300 C   0  0  0  0  0  0  0  0  0  0  0  0
  -21.3330   -6.7050   23.8480 C   0  0  0  0  0  3  0  0  0  0  0  0
  -21.2400   -5.9030   25.0040 C   0  0  0  0  0  3  0  0  0  0  0  0
  -21.5720   -4.5370   24.9410 C   0  0  0  0  0  0  0  0  0  0  0  0
  -21.9990   -3.9700   23.7270 C   0  0  0  0  0  3  0  0  0  0  0  0
  -22.0930   -4.7690   22.5740 C   0  0  0  0  0  0  0  0  0  0  0  0
  -22.4850   -4.2130   21.4030 F   0  0  0  0  0  0  0  0  0  0  0  0
  -21.4760   -3.7640   26.0490 F   0  0  0  0  0  0  0  0  0  0  0  0
  -22.7810  -13.5060   21.0400 C   0  0  0  0  0  0  0  0  0  0  0  0
  -22.0640  -12.8170   21.9190 N   0  0  0  0  0  0  0  0  0  0  0  0
  -22.3270  -14.5110   20.4930 O   0  0  0  0  0  0  0  0  0  0  0  0
  -22.4450  -12.0060   22.3830 H   0  0  0  0  0  0  0  0  0  0  0  0
  -21.1190  -13.1050   22.1320 H   0  0  0  0  0  0  0  0  0  0  0  0
  -25.3600  -15.2220   20.2120 N   0  0  0  0  0  0  0  0  0  0  0  0
  -24.5720  -15.8530   20.3040 H   0  0  0  0  0  0  0  0  0  0  0  0
  -26.1850  -15.6700   19.8400 H   0  0  0  0  0  0  0  0  0  0  0  0
  -34.1990  -22.2030   20.3520 C   0  0  0  0  0  1  0  0  0  0  0  0
  -33.3080  -21.8020   19.1720 C   0  0  0  0  0  2  0  0  0  0  0  0
  -28.2210  -25.3480   20.1820 O   0  0  0  0  0  0  0  0  0  0  0  0
  -24.7440  -31.8380   23.1160 C   0  0  0  0  0  0  0  0  0  0  0  0
  -27.2480  -26.6100   20.1950 C   0  0  0  0  0  0  0  0  0  0  0  0
  -23.5630  -30.4370   21.4810 C   0  0  0  0  0  3  0  0  0  0  0  0
  -25.0080  -28.7420   20.1040 C   0  0  0  0  0  0  0  0  0  0  0  0
  -26.1500  -30.5230   21.3910 C   0  0  0  0  0  2  0  0  0  0  0  0
  -26.2060  -29.0700   20.7470 C   0  0  0  0  0  0  0  0  0  0  0  0
  -27.3070  -28.0390   20.7500 C   0  0  0  0  0  3  0  0  0  0  0  0
  -26.0110  -26.5230   19.4980 C   0  0  0  0  0  3  0  0  0  0  0  0
  -24.9570  -27.4950   19.4540 C   0  0  0  0  0  3  0  0  0  0  0  0
  -23.8150  -29.7190   20.1220 C   0  0  0  0  0  2  0  0  0  0  0  0
  -24.8450  -30.9690   22.0480 N   0  0  0  0  0  0  0  0  0  0  0  0
  -23.6470  -32.1540   23.6100 O   0  0  0  0  0  0  0  0  0  0  0  0
  -22.8200  -29.4820   22.4550 C   0  0  0  0  0  0  0  0  0  0  0  0
  -21.4820  -29.3650   22.3400 N   0  0  0  0  0  0  0  0  0  0  0  0
  -23.4620  -28.8410   23.2910 O   0  0  0  0  0  0  0  0  0  0  0  0
  -21.0130  -29.9310   21.6460 H   0  0  0  0  0  0  0  0  0  0  0  0
  -18.0660  -28.2490   22.8980 C   0  0  0  0  0  0  0  0  0  0  0  0
  -20.6380  -28.4450   23.1140 C   0  0  0  0  0  3  0  0  0  0  0  0
  -20.6870  -27.0160   22.5230 C   0  0  0  0  0  2  0  0  0  0  0  0
  -19.5590  -26.7390   21.5230 C   0  0  0  0  0  2  0  0  0  0  0  0
  -18.1940  -26.9090   22.1940 C   0  0  0  0  0  2  0  0  0  0  0  0
  -19.2120  -28.9780   23.3150 C   0  0  0  0  0  0  0  0  0  0  0  0
  -19.0330  -30.2310   23.9410 C   0  0  0  0  0  3  0  0  0  0  0  0
  -17.7440  -30.7560   24.1480 C   0  0  0  0  0  3  0  0  0  0  0  0
  -16.6130  -30.0260   23.7410 C   0  0  0  0  0  3  0  0  0  0  0  0
  -16.7750  -28.7730   23.1230 C   0  0  0  0  0  3  0  0  0  0  0  0
  -26.0020  -32.4900   23.7680 C   0  0  0  0  0  3  0  0  0  0  0  0
  -25.6690  -33.8840   24.1270 N   0  0  0  0  0  0  0  0  0  0  0  0
  -25.9770  -34.9670   23.4010 C   0  0  0  0  0  0  0  0  0  0  0  0
  -26.6250  -34.8980   22.3540 O   0  0  0  0  0  0  0  0  0  0  0  0
  -25.0870  -34.0090   24.9430 H   0  0  0  0  0  0  0  0  0  0  0  0
  -24.2150  -36.7570   23.1680 C   0  0  0  0  0  1  0  0  0  0  0  0
  -25.4970  -36.3440   23.9110 C   0  0  0  0  0  3  0  0  0  0  0  0
  -27.6550  -37.2470   24.6650 C   0  0  0  0  0  1  0  0  0  0  0  0
  -26.5110  -37.4140   23.7730 N   0  0  0  0  0  0  0  0  0  0  0  0
  -26.0990  -38.3260   23.9520 H   0  0  0  0  0  0  0  0  0  0  0  0
  -26.5000  -31.7170   25.0530 C   0  0  1  0  0  0  0  0  0  0  0  0
  -25.3940  -31.4800   26.1090 C   0  0  0  0  0  1  0  0  0  0  0  0
  -27.0860  -30.3370   24.6810 C   0  0  0  0  0  1  0  0  0  0  0  0
  -27.6440  -32.5080   25.7300 C   0  0  0  0  0  1  0  0  0  0  0  0
  1  2  1  0
  2  3  2  0
  2  8  1  0
  3  9  1  0
  4 10  1  0
  4  1  2  0
  5  7  1  0
  5  6  2  0
  6  8  1  0
  7  9  2  0
  8 19  1  0
 10  3  1  0
 11 19  1  0
 12 17  1  0
 13 14  1  0
 13 12  1  0
 15 14  1  0
 15 24  1  0
 15 16  1  0
 17 11  1  0
 17 16  1  0
 18 11  2  0
 20 19  1  0
 21 22  2  0
 22 41  1  0
 23 22  1  0
 23 26  1  0
 24 21  1  0
 24 25  1  0
 25 23  2  0
 26 27  1  0
 27 28  2  0
 29 32  1  0
 29 28  1  0
 30 29  2  0
 31 30  1  0
 31 26  2  0
 32 33  1  0
 33 34  1  0
 34 35  2  0
 36 35  1  0
 36 40  1  0
 37 36  2  0
 38 33  2  0
 38 37  1  0
 39 38  1  0
 41 42  1  0
 42 45  1  0
 42 44  1  0
 43 41  2  0
 46 47  1  0
 46 21  1  0
 48 46  1  0
 50  4  1  0
 50 49  1  0
 51 53  1  0
 51  9  1  0
 52 63  2  0
 53 58  1  0
 54 62  1  0
 54 64  1  0
 55 61  1  0
 55 57  1  0
 56 62  1  0
 57 58  2  0
 57 56  1  0
 59 53  2  0
 60 59  1  0
 60 55  2  0
 61 54  1  0
 62 52  1  0
 64 66  2  0
 65 64  1  0
 67 65  1  0
 68 77  2  0
 68 73  1  0
 69 65  1  0
 69 73  1  0
 70 69  1  0
 71 72  1  0
 71 70  1  0
 72 68  1  0
 73 74  2  0
 74 75  1  0
 76 75  2  0
 77 76  1  0
 78 52  1  0
 78 79  1  0
 78 88  1  0
 79 82  1  0
 80 84  1  0
 80 79  1  0
 81 80  2  0
 84 83  1  0
 86 84  1  0
 86 87  1  0
 86 85  1  0
 88 91  1  1
 88 89  1  0
 90 88  1  0
M  ISO  4   9 101  11 100  19 100  51 101
M  END
>  <TORSDO>  (89) 
F 17

>  <SCORE>  (89) 
-15.505

>  <name>  (89) 
88

>  <ligand_id>  (89) 
88

>  <original_smiles>  (89) 
[H]c1c([H])c([H])c2c(c1[H])C([H])([H])C([H])([H])C([H])([H])C2([H])N([H])C(=O)C1([H])N(C(=O)C([H])(N([H])C(=O)C([H])(N([H])C([H])([H])[H])C([H])([H])[H])C(C([H])([H])[H])(C([H])([H])[H])C([H])([H])[H])C([H])([H])c2c([H])c(OC3([H])c4sc(C([H])([H])C([H])([H])[H])c([H])c4C([H])(N([H])C(=O)N4C([H])([H])C([H])([H])C([H])([H])C([H])(n5nc(-c6c([H])c([H])c(Oc7c([H])c([H])c(F)c([H])c7F)c([H])c6[H])c(C(=O)N([H])[H])c5N([H])[H])C4([H])[H])C([H])([H])C([H])([H])C3([H])[H])c([H])c([H])c2C1([H])[H]

>  <smiles>  (89) 
[H]c1c([H])c([H])c2c(c1[H])C([H])([H])C([H])([H])C([H])([H])C2([H])N([H])C(=O)C1([H])N(C(=O)C([H])(N([H])C(=O)C([H])(N([H])C([H])([H])[H])C([H])([H])[H])C(C([H])([H])[H])(C([H])([H])[H])C([H])([H])[H])C([H])([H])c2c([H])c(OC3([H])c4sc(C([H])([H])C([H])([H])[H])c([H])c4C([H])(N([H])C(=O)N4C([H])([H])C([H])([H])C([H])([H])C([H])(n5nc(-c6c([H])c([H])c(Oc7c([H])c([H])c(F)c([H])c7F)c([H])c6[H])c(C(=O)N([H])[H])c5N([H])[H])C4([H])[H])C([H])([H])C([H])([H])C3([H])[H])c([H])c([H])c2C1([H])[H]

$$$$
89:0:0
     RDKit          3D

 88 97  0  0  1  0  0  0  0  0999 V2000
  -29.6030  -19.0780   20.6060 C   0  0  0  0  0  3  0  0  0  0  0  0
  -29.1140  -19.3780   17.9970 C   0  0  0  0  0  3  0  0  0  0  0  0
  -29.6870  -17.6510   19.8740 C   0  0  0  0  0  0  0  0  0  0  0  0
  -29.2440  -20.5800   20.1150 C   0  0  0  0  0  0  0  0  0  0  0  0
  -29.1670  -20.6320   18.7160 C   0  0  0  0  0  0  0  0  0  0  0  0
  -29.2960  -18.0120   18.5000 C   0  0  0  0  0  0  0  0  0  0  0  0
  -28.9990  -22.2380   20.7940 C   0  0  0  0  0  3  0  0  0  0  0  0
  -29.3060  -22.0380   17.9700 C   0  0  0  0  0  3  0  0  0  0  0  0
  -28.8710  -23.5120   18.5600 C   0  0  0  0  0  3  0  0  0  0  0  0
  -28.3630  -23.8530   20.0450 C   0  0  0  0  0  0  0  0  0  0  0  0
  -29.0800  -16.9650   17.3910 C   0  0  0  0  0  1  0  0  0  0  0  0
  -30.3290  -15.9920   20.2590 C   0  0  0  0  0  0  0  0  0  0  0  0
  -30.4720  -13.3830   19.6270 C   0  0  0  0  0  2  0  0  0  0  0  0
  -29.6500  -12.9220   18.4000 C   0  0  0  0  0  2  0  0  0  0  0  0
  -28.2050  -12.5680   18.8020 C   0  0  0  0  0  2  0  0  0  0  0  0
  -27.6340  -13.5660   19.8410 C   0  0  0  0  0  3  0  0  0  0  0  0
  -28.6340  -13.9930   20.9350 C   0  0  0  0  0  2  0  0  0  0  0  0
  -29.8010  -14.6130   20.2490 N   0  0  0  0  0  0  0  0  0  0  0  0
  -31.5680  -15.8570   20.3310 O   0  0  0  0  0  0  0  0  0  0  0  0
  -25.2620  -14.0520   20.5970 C   0  0  0  0  0  0  0  0  0  0  0  0
  -24.2030  -13.2550   20.9350 C   0  0  0  0  0  0  0  0  0  0  0  0
  -24.6940  -11.9130   20.9080 C   0  0  0  0  0  0  0  0  0  0  0  0
  -26.3220  -13.1940   20.3610 N   0  0  0  0  0  0  0  0  0  0  0  0
  -25.9930  -11.9010   20.6180 N   0  0  0  0  0  0  0  0  0  0  0  0
  -23.9690  -10.6420   21.0790 C   0  0  0  0  0  0  0  0  0  0  0  0
  -24.3780   -9.6800   22.0280 C   0  0  0  0  0  3  0  0  0  0  0  0
  -23.6480   -8.4800   22.1910 C   0  0  0  0  0  3  0  0  0  0  0  0
  -22.4960   -8.2380   21.4100 C   0  0  0  0  0  0  0  0  0  0  0  0
  -22.1040   -9.1890   20.4550 C   0  0  0  0  0  3  0  0  0  0  0  0
  -22.8320  -10.3780   20.2860 C   0  0  0  0  0  3  0  0  0  0  0  0
  -21.7460   -7.0860   21.4760 O   0  0  0  0  0  0  0  0  0  0  0  0
  -21.6650   -6.3450   22.6290 C   0  0  0  0  0  0  0  0  0  0  0  0
  -21.1820   -6.8930   23.8350 C   0  0  0  0  0  3  0  0  0  0  0  0
  -21.0500   -6.0760   24.9750 C   0  0  0  0  0  3  0  0  0  0  0  0
  -21.3960   -4.7160   24.9100 C   0  0  0  0  0  0  0  0  0  0  0  0
  -21.8780   -4.1670   23.7070 C   0  0  0  0  0  3  0  0  0  0  0  0
  -22.0090   -4.9800   22.5690 C   0  0  0  0  0  0  0  0  0  0  0  0
  -22.4520   -4.4420   21.4060 F   0  0  0  0  0  0  0  0  0  0  0  0
  -21.2620   -3.9280   26.0040 F   0  0  0  0  0  0  0  0  0  0  0  0
  -22.7930  -13.7220   21.1580 C   0  0  0  0  0  0  0  0  0  0  0  0
  -22.0490  -13.0320   22.0160 N   0  0  0  0  0  0  0  0  0  0  0  0
  -22.3630  -14.7320   20.6120 O   0  0  0  0  0  0  0  0  0  0  0  0
  -22.4120  -12.2190   22.4920 H   0  0  0  0  0  0  0  0  0  0  0  0
  -21.1050  -13.3270   22.2050 H   0  0  0  0  0  0  0  0  0  0  0  0
  -25.3910  -15.4250   20.4320 N   0  0  0  0  0  0  0  0  0  0  0  0
  -24.5880  -16.0380   20.5420 H   0  0  0  0  0  0  0  0  0  0  0  0
  -26.2250  -15.9190   20.1470 H   0  0  0  0  0  0  0  0  0  0  0  0
  -28.2770  -25.6290   20.4150 O   0  0  0  0  0  0  0  0  0  0  0  0
  -24.6290  -32.0010   23.2950 C   0  0  0  0  0  0  0  0  0  0  0  0
  -27.2630  -26.8440   20.3600 C   0  0  0  0  0  0  0  0  0  0  0  0
  -23.4700  -30.5720   21.6630 C   0  0  0  0  0  3  0  0  0  0  0  0
  -24.9480  -28.8900   20.2960 C   0  0  0  0  0  0  0  0  0  0  0  0
  -26.0520  -30.7020   21.5830 C   0  0  0  0  0  2  0  0  0  0  0  0
  -26.1360  -29.2520   20.9400 C   0  0  0  0  0  0  0  0  0  0  0  0
  -27.2640  -28.2550   20.9460 C   0  0  0  0  0  3  0  0  0  0  0  0
  -26.0220  -26.7030   19.6790 C   0  0  0  0  0  3  0  0  0  0  0  0
  -24.9310  -27.6360   19.6540 C   0  0  0  0  0  3  0  0  0  0  0  0
  -23.7390  -29.8450   20.3100 C   0  0  0  0  0  2  0  0  0  0  0  0
  -24.7400  -31.1270   22.2320 N   0  0  0  0  0  0  0  0  0  0  0  0
  -23.5310  -32.3080   23.7880 O   0  0  0  0  0  0  0  0  0  0  0  0
  -22.7390  -29.6150   22.6460 C   0  0  0  0  0  0  0  0  0  0  0  0
  -21.4070  -29.4440   22.5020 N   0  0  0  0  0  0  0  0  0  0  0  0
  -23.3800  -29.0210   23.5170 O   0  0  0  0  0  0  0  0  0  0  0  0
  -20.9320  -29.9720   21.7840 H   0  0  0  0  0  0  0  0  0  0  0  0
  -18.0310  -28.1800   22.9700 C   0  0  0  0  0  0  0  0  0  0  0  0
  -20.5780  -28.5120   23.2840 C   0  0  0  0  0  3  0  0  0  0  0  0
  -20.7220  -27.0670   22.7570 C   0  0  0  0  0  2  0  0  0  0  0  0
  -19.6520  -26.6900   21.7270 C   0  0  0  0  0  2  0  0  0  0  0  0
  -18.2530  -26.8170   22.3330 C   0  0  0  0  0  2  0  0  0  0  0  0
  -19.1210  -28.9810   23.4010 C   0  0  0  0  0  0  0  0  0  0  0  0
  -18.8540  -30.2490   23.9640 C   0  0  0  0  0  3  0  0  0  0  0  0
  -17.5320  -30.7180   24.0930 C   0  0  0  0  0  3  0  0  0  0  0  0
  -16.4580  -29.9170   23.6750 C   0  0  0  0  0  3  0  0  0  0  0  0
  -16.7090  -28.6480   23.1190 C   0  0  0  0  0  3  0  0  0  0  0  0
  -25.8810  -32.6690   23.9410 C   0  0  0  0  0  3  0  0  0  0  0  0
  -25.5520  -34.0780   24.2410 N   0  0  0  0  0  0  0  0  0  0  0  0
  -25.8830  -35.1310   23.4810 C   0  0  0  0  0  0  0  0  0  0  0  0
  -26.5530  -35.0190   22.4510 O   0  0  0  0  0  0  0  0  0  0  0  0
  -24.9470  -34.2350   25.0360 H   0  0  0  0  0  0  0  0  0  0  0  0
  -24.1390  -36.9220   23.1460 C   0  0  0  0  0  1  0  0  0  0  0  0
  -25.4010  -36.5290   23.9300 C   0  0  0  0  0  3  0  0  0  0  0  0
  -27.5360  -37.4590   24.7120 C   0  0  0  0  0  1  0  0  0  0  0  0
  -26.4300  -37.5790   23.7680 N   0  0  0  0  0  0  0  0  0  0  0  0
  -26.0230  -38.5060   23.8630 H   0  0  0  0  0  0  0  0  0  0  0  0
  -26.3600  -31.9420   25.2610 C   0  0  1  0  0  0  0  0  0  0  0  0
  -25.2320  -31.7290   26.3020 C   0  0  0  0  0  1  0  0  0  0  0  0
  -26.9660  -30.5570   24.9470 C   0  0  0  0  0  1  0  0  0  0  0  0
  -27.4820  -32.7670   25.9390 C   0  0  0  0  0  1  0  0  0  0  0  0
  2  6  2  0
  2  5  1  0
  3 12  1  0
  3  1  2  0
  4  1  1  0
  4  7  1  0
  5  4  2  0
  6  3  1  0
  8  9  2  0
  8  5  1  0
  9 10  1  0
 10 48  1  0
 10  7  2  0
 11  6  1  0
 12 19  2  0
 13 18  1  0
 14 15  1  0
 14 13  1  0
 16 15  1  0
 16 23  1  0
 16 17  1  0
 18 12  1  0
 18 17  1  0
 20 21  2  0
 21 40  1  0
 22 21  1  0
 22 25  1  0
 23 20  1  0
 23 24  1  0
 24 22  2  0
 25 26  1  0
 26 27  2  0
 28 31  1  0
 28 27  1  0
 29 28  2  0
 30 29  1  0
 30 25  2  0
 31 32  1  0
 32 33  1  0
 33 34  2  0
 35 34  1  0
 35 39  1  0
 36 35  2  0
 37 32  2  0
 37 36  1  0
 38 37  1  0
 40 41  1  0
 41 44  1  0
 41 43  1  0
 42 40  2  0
 45 46  1  0
 45 20  1  0
 47 45  1  0
 49 60  2  0
 50 48  1  0
 50 55  1  0
 51 59  1  0
 51 61  1  0
 52 58  1  0
 52 54  1  0
 53 59  1  0
 54 55  2  0
 54 53  1  0
 56 50  2  0
 57 56  1  0
 57 52  2  0
 58 51  1  0
 59 49  1  0
 61 63  2  0
 62 61  1  0
 64 62  1  0
 65 74  2  0
 65 70  1  0
 66 62  1  0
 66 70  1  0
 67 66  1  0
 68 69  1  0
 68 67  1  0
 69 65  1  0
 70 71  2  0
 71 72  1  0
 73 72  2  0
 74 73  1  0
 75 49  1  0
 75 76  1  0
 75 85  1  0
 76 79  1  0
 77 81  1  0
 77 76  1  0
 78 77  2  0
 81 80  1  0
 83 84  1  0
 83 81  1  0
 83 82  1  0
 85 88  1  1
 85 86  1  0
 87 85  1  0
M  ISO  4   3 100  10 101  12 100  48 101
M  END
>  <TORSDO>  (90) 
F 16

>  <SCORE>  (90) 
-14.893

>  <name>  (90) 
89

>  <ligand_id>  (90) 
89

>  <original_smiles>  (90) 
[H]c1c([H])c([H])c2c(c1[H])C([H])([H])C([H])([H])C([H])([H])C2([H])N([H])C(=O)C1([H])N(C(=O)C([H])(N([H])C(=O)C([H])(N([H])C([H])([H])[H])C([H])([H])[H])C(C([H])([H])[H])(C([H])([H])[H])C([H])([H])[H])C([H])([H])c2c([H])c(OC3([H])C([H])([H])c4c([H])c(C(=O)N5C([H])([H])C([H])([H])C([H])([H])C([H])(n6nc(-c7c([H])c([H])c(Oc8c([H])c([H])c(F)c([H])c8F)c([H])c7[H])c(C(=O)N([H])[H])c6N([H])[H])C5([H])[H])c(C([H])([H])[H])c([H])c4C([H])([H])C3([H])[H])c([H])c([H])c2C1([H])[H]

>  <smiles>  (90) 
[H]c1c([H])c([H])c2c(c1[H])C([H])([H])C([H])([H])C([H])([H])C2([H])N([H])C(=O)C1([H])N(C(=O)C([H])(N([H])C(=O)C([H])(N([H])C([H])([H])[H])C([H])([H])[H])C(C([H])([H])[H])(C([H])([H])[H])C([H])([H])[H])C([H])([H])c2c([H])c(OC3([H])C([H])([H])c4c([H])c(C(=O)N5C([H])([H])C([H])([H])C([H])([H])C([H])(n6nc(-c7c([H])c([H])c(Oc8c([H])c([H])c(F)c([H])c8F)c([H])c7[H])c(C(=O)N([H])[H])c6N([H])[H])C5([H])[H])c(C([H])([H])[H])c([H])c4C([H])([H])C3([H])[H])c([H])c([H])c2C1([H])[H]

$$$$
90:0:0
     RDKit          3D

 92100  0  0  1  0  0  0  0  0999 V2000
  -28.6960  -19.4510   19.8320 C   0  0  0  0  0  3  0  0  0  0  0  0
  -30.7890  -18.1940   21.1610 C   0  0  0  0  0  3  0  0  0  0  0  0
  -29.5940  -20.3350   20.4800 C   0  0  0  0  0  0  0  0  0  0  0  0
  -28.7820  -18.0280   19.8920 C   0  0  0  0  0  0  0  0  0  0  0  0
  -30.6720  -19.6370   21.1500 C   0  0  0  0  0  0  0  0  0  0  0  0
  -29.8380  -17.3250   20.5470 C   0  0  0  0  0  0  0  0  0  0  0  0
  -27.6200  -17.2700   19.3060 C   0  0  0  0  0  1  0  0  0  0  0  0
  -31.7170  -20.3930   21.9580 C   0  0  0  0  0  1  0  0  0  0  0  0
  -30.5800  -14.7670   20.4220 C   0  0  0  0  0  0  0  0  0  0  0  0
  -30.3930  -12.5030   19.3650 C   0  0  0  0  0  2  0  0  0  0  0  0
  -29.4500  -12.6080   18.1470 C   0  0  0  0  0  2  0  0  0  0  0  0
  -27.9790  -12.4180   18.5700 C   0  0  0  0  0  2  0  0  0  0  0  0
  -27.6010  -13.2700   19.8100 C   0  0  0  0  0  3  0  0  0  0  0  0
  -28.6670  -13.1680   20.9260 C   0  0  0  0  0  2  0  0  0  0  0  0
  -29.9720  -13.5320   20.3460 N   0  0  0  0  0  0  0  0  0  0  0  0
  -31.7590  -14.8990   20.0760 O   0  0  0  0  0  0  0  0  0  0  0  0
  -29.7610  -15.8450   20.7250 N   0  0  0  0  0  0  0  0  0  0  0  0
  -28.8280  -15.5170   20.9080 H   0  0  0  0  0  0  0  0  0  0  0  0
  -25.1950  -13.8370   20.5350 C   0  0  0  0  0  0  0  0  0  0  0  0
  -24.1350  -13.0650   20.9090 C   0  0  0  0  0  0  0  0  0  0  0  0
  -24.6080  -11.7180   20.8750 C   0  0  0  0  0  0  0  0  0  0  0  0
  -26.2510  -12.9730   20.2960 N   0  0  0  0  0  0  0  0  0  0  0  0
  -25.8980  -11.6880   20.5600 N   0  0  0  0  0  0  0  0  0  0  0  0
  -23.8840  -10.4580   21.0640 C   0  0  0  0  0  0  0  0  0  0  0  0
  -24.3180   -9.4890   21.9910 C   0  0  0  0  0  3  0  0  0  0  0  0
  -23.5920   -8.2950   22.1680 C   0  0  0  0  0  3  0  0  0  0  0  0
  -22.4170   -8.0610   21.4220 C   0  0  0  0  0  0  0  0  0  0  0  0
  -21.9990   -9.0200   20.4820 C   0  0  0  0  0  3  0  0  0  0  0  0
  -22.7270  -10.2090   20.3010 C   0  0  0  0  0  3  0  0  0  0  0  0
  -21.6650   -6.9150   21.5060 O   0  0  0  0  0  0  0  0  0  0  0  0
  -21.6290   -6.1600   22.6490 C   0  0  0  0  0  0  0  0  0  0  0  0
  -21.2200   -6.7050   23.8850 C   0  0  0  0  0  3  0  0  0  0  0  0
  -21.1300   -5.8810   25.0220 C   0  0  0  0  0  3  0  0  0  0  0  0
  -21.4390   -4.5120   24.9280 C   0  0  0  0  0  0  0  0  0  0  0  0
  -21.8450   -3.9690   23.6960 C   0  0  0  0  0  3  0  0  0  0  0  0
  -21.9370   -4.7890   22.5600 C   0  0  0  0  0  0  0  0  0  0  0  0
  -22.3080   -4.2570   21.3700 F   0  0  0  0  0  0  0  0  0  0  0  0
  -21.3500   -3.7160   26.0190 F   0  0  0  0  0  0  0  0  0  0  0  0
  -22.7400  -13.5470   21.1800 C   0  0  0  0  0  0  0  0  0  0  0  0
  -22.0080  -12.8570   22.0440 N   0  0  0  0  0  0  0  0  0  0  0  0
  -22.3060  -14.5740   20.6580 O   0  0  0  0  0  0  0  0  0  0  0  0
  -22.3680  -12.0280   22.4910 H   0  0  0  0  0  0  0  0  0  0  0  0
  -21.0710  -13.1640   22.2550 H   0  0  0  0  0  0  0  0  0  0  0  0
  -25.3190  -15.1990   20.3440 N   0  0  0  0  0  0  0  0  0  0  0  0
  -24.5130  -15.8090   20.4010 H   0  0  0  0  0  0  0  0  0  0  0  0
  -26.0880  -15.6160   19.8440 H   0  0  0  0  0  0  0  0  0  0  0  0
  -29.4400  -21.9490   20.4600 C   0  0  0  0  0  2  0  0  0  0  0  0
  -28.1840  -22.8320   19.9280 C   0  0  0  0  0  0  0  0  0  0  0  0
  -26.9910  -22.0910   19.3290 C   0  0  0  0  0  1  0  0  0  0  0  0
  -27.9640  -24.1290   19.9250 N   0  0  0  0  0  0  0  0  0  0  0  0
  -28.6680  -25.2260   20.6270 C   0  0  0  0  0  2  0  0  0  0  0  0
  -28.4540  -26.6080   20.1230 O   0  0  0  0  0  0  0  0  0  0  0  0
  -24.5980  -31.9090   23.2500 C   0  0  0  0  0  0  0  0  0  0  0  0
  -27.2630  -27.3390   20.2390 C   0  0  0  0  0  0  0  0  0  0  0  0
  -23.4010  -30.4920   21.6160 C   0  0  0  0  0  3  0  0  0  0  0  0
  -24.8630  -28.9130   20.2290 C   0  0  0  0  0  0  0  0  0  0  0  0
  -25.9380  -30.8190   21.4350 C   0  0  0  0  0  2  0  0  0  0  0  0
  -26.0270  -29.4280   20.8130 C   0  0  0  0  0  0  0  0  0  0  0  0
  -27.2260  -28.6550   20.8010 C   0  0  0  0  0  3  0  0  0  0  0  0
  -26.0670  -26.8580   19.6590 C   0  0  0  0  0  3  0  0  0  0  0  0
  -24.8840  -27.6320   19.6520 C   0  0  0  0  0  3  0  0  0  0  0  0
  -23.6220  -29.7860   20.2520 C   0  0  0  0  0  2  0  0  0  0  0  0
  -24.6630  -31.0930   22.1570 N   0  0  0  0  0  0  0  0  0  0  0  0
  -23.5120  -32.1930   23.7770 O   0  0  0  0  0  0  0  0  0  0  0  0
  -22.7310  -29.4910   22.5860 C   0  0  0  0  0  0  0  0  0  0  0  0
  -21.4060  -29.3200   22.4530 N   0  0  0  0  0  0  0  0  0  0  0  0
  -23.4040  -28.8690   23.4160 O   0  0  0  0  0  0  0  0  0  0  0  0
  -20.9290  -29.8600   21.7440 H   0  0  0  0  0  0  0  0  0  0  0  0
  -18.0200  -28.1520   22.9520 C   0  0  0  0  0  0  0  0  0  0  0  0
  -20.5790  -28.3920   23.2250 C   0  0  0  0  0  3  0  0  0  0  0  0
  -20.6730  -26.9610   22.6500 C   0  0  0  0  0  2  0  0  0  0  0  0
  -19.5660  -26.6440   21.6370 C   0  0  0  0  0  2  0  0  0  0  0  0
  -18.1850  -26.8030   22.2780 C   0  0  0  0  0  2  0  0  0  0  0  0
  -19.1440  -28.9070   23.3820 C   0  0  0  0  0  0  0  0  0  0  0  0
  -18.9360  -30.1710   23.9730 C   0  0  0  0  0  3  0  0  0  0  0  0
  -17.6340  -30.6800   24.1430 C   0  0  0  0  0  3  0  0  0  0  0  0
  -16.5250  -29.9240   23.7270 C   0  0  0  0  0  3  0  0  0  0  0  0
  -16.7170  -28.6620   23.1390 C   0  0  0  0  0  3  0  0  0  0  0  0
  -25.8770  -32.5380   23.8830 C   0  0  0  0  0  3  0  0  0  0  0  0
  -26.3800  -31.7750   25.1710 C   0  0  1  0  0  0  0  0  0  0  0  0
  -25.2730  -31.5530   26.2290 C   0  0  0  0  0  1  0  0  0  0  0  0
  -26.9600  -30.3920   24.7960 C   0  0  0  0  0  1  0  0  0  0  0  0
  -27.5300  -32.5720   25.8360 C   0  0  0  0  0  1  0  0  0  0  0  0
  -25.5680  -33.9380   24.2020 N   0  0  0  0  0  0  0  0  0  0  0  0
  -25.9080  -34.9860   23.4390 C   0  0  0  0  0  0  0  0  0  0  0  0
  -26.5840  -34.8760   22.4130 O   0  0  0  0  0  0  0  0  0  0  0  0
  -24.9650  -34.1010   24.9950 H   0  0  0  0  0  0  0  0  0  0  0  0
  -24.1830  -36.7800   23.0650 C   0  0  0  0  0  1  0  0  0  0  0  0
  -25.4200  -36.3780   23.8840 C   0  0  0  0  0  3  0  0  0  0  0  0
  -27.5530  -37.2620   24.7190 C   0  0  0  0  0  1  0  0  0  0  0  0
  -26.4540  -37.4290   23.7720 N   0  0  0  0  0  0  0  0  0  0  0  0
  -26.0460  -38.3500   23.9140 H   0  0  0  0  0  0  0  0  0  0  0  0
  1  4  2  0
  1  3  1  0
  3  5  2  0
  4  6  1  0
  5  2  1  0
  5  8  1  0
  6 17  1  0
  6  2  2  0
  7  4  1  0
  9 17  1  0
 10 15  1  0
 11 12  1  0
 11 10  1  0
 13 12  1  0
 13 22  1  0
 13 14  1  0
 15  9  1  0
 15 14  1  0
 16  9  2  0
 17 18  1  0
 19 20  2  0
 20 39  1  0
 21 20  1  0
 21 24  1  0
 22 19  1  0
 22 23  1  0
 23 21  2  0
 24 25  1  0
 25 26  2  0
 27 30  1  0
 27 26  1  0
 28 27  2  0
 29 28  1  0
 29 24  2  0
 30 31  1  0
 31 32  1  0
 32 33  2  0
 34 33  1  0
 34 38  1  0
 35 34  2  0
 36 31  2  0
 36 35  1  0
 37 36  1  0
 39 40  1  0
 40 43  1  0
 40 42  1  0
 41 39  2  0
 44 45  1  0
 44 19  1  0
 46 44  1  0
 47  3  1  0
 48 47  1  0
 49 48  1  0
 50 48  2  0
 50 51  1  0
 52 54  1  0
 52 51  1  0
 53 64  2  0
 54 59  1  0
 55 63  1  0
 55 65  1  0
 56 62  1  0
 56 58  1  0
 57 63  1  0
 58 57  1  0
 59 58  2  0
 60 54  2  0
 61 60  1  0
 61 56  2  0
 62 55  1  0
 63 53  1  0
 65 67  2  0
 66 65  1  0
 68 66  1  0
 69 78  2  0
 69 74  1  0
 70 66  1  0
 70 74  1  0
 71 70  1  0
 72 73  1  0
 72 71  1  0
 73 69  1  0
 74 75  2  0
 75 76  1  0
 77 76  2  0
 78 77  1  0
 79 53  1  0
 79 84  1  0
 79 80  1  0
 80 83  1  1
 80 81  1  0
 82 80  1  0
 84 87  1  0
 85 89  1  0
 85 84  1  0
 86 85  2  0
 89 88  1  0
 91 89  1  0
 91 92  1  0
 91 90  1  0
M  ISO  4   9 100  17 100  51 101  52 101
M  END
>  <TORSDO>  (91) 
F 19

>  <SCORE>  (91) 
-14.725

>  <name>  (91) 
90

>  <ligand_id>  (91) 
90

>  <original_smiles>  (91) 
[H]c1c([H])c([H])c2c(c1[H])C([H])([H])C([H])([H])C([H])([H])C2([H])N([H])C(=O)C1([H])N(C(=O)C([H])(N([H])C(=O)C([H])(N([H])C([H])([H])[H])C([H])([H])[H])C(C([H])([H])[H])(C([H])([H])[H])C([H])([H])[H])C([H])([H])c2c([H])c(OC([H])([H])N=C(C([H])([H])[H])C([H])([H])c3c([H])c(C([H])([H])[H])c(N([H])C(=O)N4C([H])([H])C([H])([H])C([H])([H])C([H])(n5nc(-c6c([H])c([H])c(Oc7c([H])c([H])c(F)c([H])c7F)c([H])c6[H])c(C(=O)N([H])[H])c5N([H])[H])C4([H])[H])c([H])c3C([H])([H])[H])c([H])c([H])c2C1([H])[H]

>  <smiles>  (91) 
[H]c1c([H])c([H])c2c(c1[H])C([H])([H])C([H])([H])C([H])([H])C2([H])N([H])C(=O)C1([H])N(C(=O)C([H])(N([H])C(=O)C([H])(N([H])C([H])([H])[H])C([H])([H])[H])C(C([H])([H])[H])(C([H])([H])[H])C([H])([H])[H])C([H])([H])c2c([H])c(OC([H])([H])N=C(C([H])([H])[H])C([H])([H])c3c([H])c(C([H])([H])[H])c(N([H])C(=O)N4C([H])([H])C([H])([H])C([H])([H])C([H])(n5nc(-c6c([H])c([H])c(Oc7c([H])c([H])c(F)c([H])c7F)c([H])c6[H])c(C(=O)N([H])[H])c5N([H])[H])C4([H])[H])c([H])c3C([H])([H])[H])c([H])c([H])c2C1([H])[H]

$$$$
91:0:0
     RDKit          3D

 87 95  0  0  1  0  0  0  0  0999 V2000
  -29.2300  -19.9330   17.0540 C   0  0  0  0  0  3  0  0  0  0  0  0
  -29.0100  -21.2980   17.1350 C   0  0  0  0  0  3  0  0  0  0  0  0
  -29.3620  -19.1710   18.2180 C   0  0  0  0  0  3  0  0  0  0  0  0
  -28.8700  -21.8940   18.3870 C   0  0  0  0  0  3  0  0  0  0  0  0
  -29.2910  -19.6430   19.5640 C   0  0  0  0  0  0  0  0  0  0  0  0
  -28.9390  -21.2180   19.6320 C   0  0  0  0  0  0  0  0  0  0  0  0
  -29.7530  -18.1910   20.3540 C   0  0  0  0  0  2  0  0  0  0  0  0
  -29.6310  -16.7360   20.0420 C   0  0  0  0  0  2  0  0  0  0  0  0
  -30.4140  -15.3260   20.3410 C   0  0  0  0  0  0  0  0  0  0  0  0
  -30.4120  -12.8570   19.5000 C   0  0  0  0  0  2  0  0  0  0  0  0
  -29.5060  -12.6020   18.2690 C   0  0  0  0  0  2  0  0  0  0  0  0
  -28.0560  -12.3240   18.7030 C   0  0  0  0  0  2  0  0  0  0  0  0
  -27.5800  -13.3110   19.7950 C   0  0  0  0  0  3  0  0  0  0  0  0
  -28.6140  -13.5130   20.9180 C   0  0  0  0  0  2  0  0  0  0  0  0
  -29.8430  -14.0170   20.2840 N   0  0  0  0  0  0  0  0  0  0  0  0
  -31.6510  -15.2640   20.2830 O   0  0  0  0  0  0  0  0  0  0  0  0
  -25.2120  -13.8660   20.5510 C   0  0  0  0  0  0  0  0  0  0  0  0
  -24.1490  -13.0880   20.9140 C   0  0  0  0  0  0  0  0  0  0  0  0
  -24.6190  -11.7380   20.8910 C   0  0  0  0  0  0  0  0  0  0  0  0
  -26.2560  -12.9900   20.3090 N   0  0  0  0  0  0  0  0  0  0  0  0
  -25.9130  -11.7050   20.5860 N   0  0  0  0  0  0  0  0  0  0  0  0
  -23.8910  -10.4760   21.0780 C   0  0  0  0  0  0  0  0  0  0  0  0
  -24.3250   -9.5010   22.0040 C   0  0  0  0  0  3  0  0  0  0  0  0
  -23.5950   -8.3060   22.1820 C   0  0  0  0  0  3  0  0  0  0  0  0
  -22.4160   -8.0760   21.4330 C   0  0  0  0  0  0  0  0  0  0  0  0
  -22.0010   -9.0390   20.4970 C   0  0  0  0  0  3  0  0  0  0  0  0
  -22.7310  -10.2250   20.3170 C   0  0  0  0  0  3  0  0  0  0  0  0
  -21.6570   -6.9340   21.5200 O   0  0  0  0  0  0  0  0  0  0  0  0
  -21.6260   -6.1760   22.6630 C   0  0  0  0  0  0  0  0  0  0  0  0
  -21.2380   -6.7180   23.9080 C   0  0  0  0  0  3  0  0  0  0  0  0
  -21.1530   -5.8870   25.0430 C   0  0  0  0  0  3  0  0  0  0  0  0
  -21.4450   -4.5150   24.9350 C   0  0  0  0  0  0  0  0  0  0  0  0
  -21.8270   -3.9720   23.6950 C   0  0  0  0  0  3  0  0  0  0  0  0
  -21.9130   -4.8000   22.5620 C   0  0  0  0  0  0  0  0  0  0  0  0
  -22.2610   -4.2670   21.3660 F   0  0  0  0  0  0  0  0  0  0  0  0
  -21.3570   -3.7150   26.0230 F   0  0  0  0  0  0  0  0  0  0  0  0
  -22.7500  -13.5640   21.1680 C   0  0  0  0  0  0  0  0  0  0  0  0
  -22.0120  -12.8730   22.0300 N   0  0  0  0  0  0  0  0  0  0  0  0
  -22.3170  -14.5860   20.6360 O   0  0  0  0  0  0  0  0  0  0  0  0
  -22.3750  -12.0460   22.4810 H   0  0  0  0  0  0  0  0  0  0  0  0
  -21.0730  -13.1740   22.2420 H   0  0  0  0  0  0  0  0  0  0  0  0
  -25.3750  -15.2360   20.3760 N   0  0  0  0  0  0  0  0  0  0  0  0
  -24.6110  -15.8920   20.4980 H   0  0  0  0  0  0  0  0  0  0  0  0
  -26.2360  -15.6810   20.0800 H   0  0  0  0  0  0  0  0  0  0  0  0
  -28.4320  -22.5010   20.6730 C   0  0  0  0  0  2  0  0  0  0  0  0
  -28.5160  -24.3410   20.7480 C   0  0  0  0  0  2  0  0  0  0  0  0
  -28.2670  -25.8440   20.0860 O   0  0  0  0  0  0  0  0  0  0  0  0
  -24.6670  -31.8330   23.1710 C   0  0  0  0  0  0  0  0  0  0  0  0
  -27.2210  -26.9070   20.2150 C   0  0  0  0  0  0  0  0  0  0  0  0
  -23.4750  -30.4210   21.5460 C   0  0  0  0  0  3  0  0  0  0  0  0
  -24.9210  -28.7950   20.1500 C   0  0  0  0  0  0  0  0  0  0  0  0
  -26.0420  -30.6290   21.3950 C   0  0  0  0  0  2  0  0  0  0  0  0
  -26.1130  -29.2060   20.7630 C   0  0  0  0  0  0  0  0  0  0  0  0
  -27.2610  -28.2870   20.7600 C   0  0  0  0  0  3  0  0  0  0  0  0
  -25.9960  -26.6490   19.5620 C   0  0  0  0  0  3  0  0  0  0  0  0
  -24.8870  -27.5360   19.5310 C   0  0  0  0  0  3  0  0  0  0  0  0
  -23.7060  -29.7220   20.1790 C   0  0  0  0  0  2  0  0  0  0  0  0
  -24.7500  -30.9890   22.0900 N   0  0  0  0  0  0  0  0  0  0  0  0
  -23.5780  -32.1250   23.6890 O   0  0  0  0  0  0  0  0  0  0  0  0
  -22.7820  -29.4340   22.5220 C   0  0  0  0  0  0  0  0  0  0  0  0
  -21.4500  -29.2740   22.4070 N   0  0  0  0  0  0  0  0  0  0  0  0
  -23.4490  -28.8100   23.3500 O   0  0  0  0  0  0  0  0  0  0  0  0
  -20.9630  -29.8270   21.7150 H   0  0  0  0  0  0  0  0  0  0  0  0
  -18.0680  -28.0720   22.9410 C   0  0  0  0  0  0  0  0  0  0  0  0
  -20.6300  -28.3410   23.1880 C   0  0  0  0  0  3  0  0  0  0  0  0
  -20.7280  -26.9050   22.6210 C   0  0  0  0  0  2  0  0  0  0  0  0
  -19.6190  -26.5760   21.6150 C   0  0  0  0  0  2  0  0  0  0  0  0
  -18.2420  -26.7210   22.2670 C   0  0  0  0  0  2  0  0  0  0  0  0
  -19.1880  -28.8390   23.3590 C   0  0  0  0  0  0  0  0  0  0  0  0
  -18.9690  -30.1000   23.9530 C   0  0  0  0  0  3  0  0  0  0  0  0
  -17.6640  -30.5970   24.1310 C   0  0  0  0  0  3  0  0  0  0  0  0
  -16.5590  -29.8270   23.7270 C   0  0  0  0  0  3  0  0  0  0  0  0
  -16.7610  -28.5670   23.1380 C   0  0  0  0  0  3  0  0  0  0  0  0
  -25.9380  -32.4850   23.7970 C   0  0  0  0  0  3  0  0  0  0  0  0
  -26.4560  -31.7200   25.0780 C   0  0  1  0  0  0  0  0  0  0  0  0
  -25.3650  -31.4840   26.1490 C   0  0  0  0  0  1  0  0  0  0  0  0
  -27.0440  -30.3430   24.7000 C   0  0  0  0  0  1  0  0  0  0  0  0
  -27.6050  -32.5220   25.7360 C   0  0  0  0  0  1  0  0  0  0  0  0
  -25.6090  -33.8800   24.1390 N   0  0  0  0  0  0  0  0  0  0  0  0
  -25.9310  -34.9500   23.3990 C   0  0  0  0  0  0  0  0  0  0  0  0
  -26.5980  -34.8650   22.3650 O   0  0  0  0  0  0  0  0  0  0  0  0
  -25.0140  -34.0180   24.9430 H   0  0  0  0  0  0  0  0  0  0  0  0
  -24.1900  -36.7420   23.0860 C   0  0  0  0  0  1  0  0  0  0  0  0
  -25.4400  -36.3310   23.8810 C   0  0  0  0  0  3  0  0  0  0  0  0
  -27.5780  -37.2190   24.7040 C   0  0  0  0  0  1  0  0  0  0  0  0
  -26.4650  -37.3920   23.7730 N   0  0  0  0  0  0  0  0  0  0  0  0
  -26.0550  -38.3070   23.9380 H   0  0  0  0  0  0  0  0  0  0  0  0
  1  2  2  0
  1  3  1  0
  2  4  1  0
  3  5  2  0
  4  6  2  0
  5  6  1  0
  5  7  1  0
  6 45  1  0
  8  9  1  0
  8  7  1  0
 10 15  1  0
 11 12  1  0
 11 10  1  0
 13 12  1  0
 13 20  1  0
 13 14  1  0
 15  9  1  0
 15 14  1  0
 16  9  2  0
 17 18  2  0
 18 37  1  0
 19 18  1  0
 19 22  1  0
 20 17  1  0
 20 21  1  0
 21 19  2  0
 22 23  1  0
 23 24  2  0
 25 28  1  0
 25 24  1  0
 26 25  2  0
 27 26  1  0
 27 22  2  0
 28 29  1  0
 29 30  1  0
 30 31  2  0
 32 31  1  0
 32 36  1  0
 33 32  2  0
 34 29  2  0
 34 33  1  0
 35 34  1  0
 37 38  1  0
 38 41  1  0
 38 40  1  0
 39 37  2  0
 42 43  1  0
 42 17  1  0
 44 42  1  0
 45 46  1  0
 47 49  1  0
 47 46  1  0
 48 59  2  0
 49 54  1  0
 50 58  1  0
 50 60  1  0
 51 57  1  0
 51 53  1  0
 52 58  1  0
 53 52  1  0
 54 53  2  0
 55 49  2  0
 56 55  1  0
 56 51  2  0
 57 50  1  0
 58 48  1  0
 60 62  2  0
 61 60  1  0
 63 61  1  0
 64 73  2  0
 64 69  1  0
 65 61  1  0
 65 69  1  0
 66 65  1  0
 67 68  1  0
 67 66  1  0
 68 64  1  0
 69 70  2  0
 70 71  1  0
 72 71  2  0
 73 72  1  0
 74 48  1  0
 74 79  1  0
 74 75  1  0
 75 78  1  1
 75 76  1  0
 77 75  1  0
 79 82  1  0
 80 84  1  0
 80 79  1  0
 81 80  2  0
 84 83  1  0
 86 84  1  0
 86 87  1  0
 86 85  1  0
M  ISO  4   8 100   9 100  46 101  47 101
M  END
>  <TORSDO>  (92) 
F 19

>  <SCORE>  (92) 
-16.020

>  <name>  (92) 
91

>  <ligand_id>  (92) 
91

>  <original_smiles>  (92) 
[H]C(C(=O)N1C([H])([H])C([H])([H])C([H])([H])C([H])(n2nc(-c3c([H])c([H])c(Oc4c([H])c([H])c(F)c([H])c4F)c([H])c3[H])c(C(=O)N([H])[H])c2N([H])[H])C1([H])[H])=C([H])c1c([H])c([H])c([H])c([H])c1C([H])([H])C([H])([H])Oc1c([H])c([H])c2c(c1[H])C([H])([H])N(C(=O)C([H])(N([H])C(=O)C([H])(N([H])C([H])([H])[H])C([H])([H])[H])C(C([H])([H])[H])(C([H])([H])[H])C([H])([H])[H])C([H])(C(=O)N([H])C1([H])c3c([H])c([H])c([H])c([H])c3C([H])([H])C([H])([H])C1([H])[H])C2([H])[H]

>  <smiles>  (92) 
[H]C(C(=O)N1C([H])([H])C([H])([H])C([H])([H])C([H])(n2nc(-c3c([H])c([H])c(Oc4c([H])c([H])c(F)c([H])c4F)c([H])c3[H])c(C(=O)N([H])[H])c2N([H])[H])C1([H])[H])=C([H])c1c([H])c([H])c([H])c([H])c1C([H])([H])C([H])([H])Oc1c([H])c([H])c2c(c1[H])C([H])([H])N(C(=O)C([H])(N([H])C(=O)C([H])(N([H])C([H])([H])[H])C([H])([H])[H])C(C([H])([H])[H])(C([H])([H])[H])C([H])([H])[H])C([H])(C(=O)N([H])C1([H])c3c([H])c([H])c([H])c([H])c3C([H])([H])C([H])([H])C1([H])[H])C2([H])[H]

$$$$
92:0:0
     RDKit          3D

 96105  0  0  1  0  0  0  0  0999 V2000
  -28.2080  -23.4190   21.6770 C   0  0  0  0  0  3  0  0  0  0  0  0
  -28.2070  -24.8190   21.5230 C   0  0  0  0  0  3  0  0  0  0  0  0
  -28.6920  -24.5550   19.1490 C   0  0  0  0  0  0  0  0  0  0  0  0
  -28.6280  -23.1320   19.2880 C   0  0  0  0  0  0  0  0  0  0  0  0
  -28.4000  -22.5570   20.5750 C   0  0  0  0  0  0  0  0  0  0  0  0
  -28.4360  -25.4030   20.2620 C   0  0  0  0  0  0  0  0  0  0  0  0
  -29.0000  -25.1810   17.8330 C   0  0  0  0  0  0  0  0  0  0  0  0
  -28.7570  -22.2400   18.0490 C   0  0  0  0  0  2  0  0  0  0  0  0
  -30.3640  -24.8380   17.2350 C   0  0  0  0  0  2  0  0  0  0  0  0
  -30.1570  -22.2740   17.4140 C   0  0  0  0  0  2  0  0  0  0  0  0
  -30.3860  -23.4890   16.5010 C   0  0  0  0  0  2  0  0  0  0  0  0
  -28.2490  -25.9560   17.2400 O   0  0  0  0  0  0  0  0  0  0  0  0
  -28.4590  -26.7830   20.1480 O   0  0  0  0  0  0  0  0  0  0  0  0
  -24.5810  -31.9150   23.2450 C   0  0  0  0  0  0  0  0  0  0  0  0
  -27.2730  -27.4890   20.1790 C   0  0  0  0  0  0  0  0  0  0  0  0
  -23.3910  -30.5000   21.6020 C   0  0  0  0  0  3  0  0  0  0  0  0
  -24.8610  -28.9710   20.1860 C   0  0  0  0  0  0  0  0  0  0  0  0
  -25.9110  -30.8840   21.4020 C   0  0  0  0  0  2  0  0  0  0  0  0
  -26.0120  -29.5080   20.7760 C   0  0  0  0  0  0  0  0  0  0  0  0
  -27.2210  -28.7720   20.7740 C   0  0  0  0  0  3  0  0  0  0  0  0
  -26.1010  -26.9670   19.5860 C   0  0  0  0  0  3  0  0  0  0  0  0
  -24.8990  -27.6990   19.5900 C   0  0  0  0  0  3  0  0  0  0  0  0
  -23.6080  -29.8170   20.2250 C   0  0  0  0  0  2  0  0  0  0  0  0
  -24.6470  -31.1150   22.1430 N   0  0  0  0  0  0  0  0  0  0  0  0
  -23.4960  -32.1750   23.7830 O   0  0  0  0  0  0  0  0  0  0  0  0
  -22.7470  -29.4750   22.5630 C   0  0  0  0  0  0  0  0  0  0  0  0
  -21.4250  -29.2820   22.4350 N   0  0  0  0  0  0  0  0  0  0  0  0
  -23.4350  -28.8530   23.3770 O   0  0  0  0  0  0  0  0  0  0  0  0
  -20.9320  -29.8350   21.7480 H   0  0  0  0  0  0  0  0  0  0  0  0
  -18.0600  -28.0590   22.9240 C   0  0  0  0  0  0  0  0  0  0  0  0
  -20.6140  -28.3380   23.2030 C   0  0  0  0  0  3  0  0  0  0  0  0
  -20.7300  -26.9080   22.6280 C   0  0  0  0  0  2  0  0  0  0  0  0
  -19.6340  -26.5760   21.6100 C   0  0  0  0  0  2  0  0  0  0  0  0
  -18.2480  -26.7110   22.2500 C   0  0  0  0  0  2  0  0  0  0  0  0
  -19.1710  -28.8300   23.3570 C   0  0  0  0  0  0  0  0  0  0  0  0
  -18.9410  -30.0930   23.9470 C   0  0  0  0  0  3  0  0  0  0  0  0
  -17.6310  -30.5850   24.1060 C   0  0  0  0  0  3  0  0  0  0  0  0
  -16.5340  -29.8120   23.6900 C   0  0  0  0  0  3  0  0  0  0  0  0
  -16.7480  -28.5500   23.1050 C   0  0  0  0  0  3  0  0  0  0  0  0
  -25.8590  -32.5590   23.8680 C   0  0  0  0  0  3  0  0  0  0  0  0
  -25.5410  -33.9550   24.1920 N   0  0  0  0  0  0  0  0  0  0  0  0
  -25.8730  -35.0060   23.4320 C   0  0  0  0  0  0  0  0  0  0  0  0
  -26.5510  -34.9040   22.4060 O   0  0  0  0  0  0  0  0  0  0  0  0
  -24.9450  -34.1080   24.9920 H   0  0  0  0  0  0  0  0  0  0  0  0
  -24.1380  -36.7850   23.0470 C   0  0  0  0  0  1  0  0  0  0  0  0
  -25.3700  -36.3920   23.8780 C   0  0  0  0  0  3  0  0  0  0  0  0
  -27.4880  -37.2900   24.7340 C   0  0  0  0  0  1  0  0  0  0  0  0
  -26.3970  -37.4510   23.7760 N   0  0  0  0  0  0  0  0  0  0  0  0
  -25.9840  -38.3690   23.9170 H   0  0  0  0  0  0  0  0  0  0  0  0
  -26.3810  -31.7930   25.1450 C   0  0  1  0  0  0  0  0  0  0  0  0
  -25.2880  -31.5460   26.2100 C   0  0  0  0  0  1  0  0  0  0  0  0
  -26.9770  -30.4220   24.7500 C   0  0  0  0  0  1  0  0  0  0  0  0
  -27.5250  -32.5970   25.8090 C   0  0  0  0  0  1  0  0  0  0  0  0
  -28.2840  -21.0410   20.8210 C   0  0  0  0  0  2  0  0  0  0  0  0
  -29.6030  -20.2330   20.6940 C   0  0  0  0  0  2  0  0  0  0  0  0
  -29.4830  -18.7480   21.1340 C   0  0  0  0  0  2  0  0  0  0  0  0
  -30.7790  -17.9380   20.8810 C   0  0  0  0  0  2  0  0  0  0  0  0
  -30.9540  -16.6460   21.7230 C   0  0  0  0  0  2  0  0  0  0  0  0
  -30.8890  -14.5060   20.4140 C   0  0  0  0  0  0  0  0  0  0  0  0
  -30.5620  -12.3680   19.2170 C   0  0  0  0  0  2  0  0  0  0  0  0
  -29.6190  -12.5640   18.0120 C   0  0  0  0  0  2  0  0  0  0  0  0
  -28.1450  -12.4290   18.4450 C   0  0  0  0  0  2  0  0  0  0  0  0
  -27.8110  -13.2780   19.7000 C   0  0  0  0  0  3  0  0  0  0  0  0
  -28.8610  -13.0530   20.8100 C   0  0  0  0  0  2  0  0  0  0  0  0
  -30.1880  -13.3520   20.2450 N   0  0  0  0  0  0  0  0  0  0  0  0
  -31.9810  -14.7110   19.8770 O   0  0  0  0  0  0  0  0  0  0  0  0
  -30.3050  -15.4400   21.1890 N   0  0  0  0  0  0  0  0  0  0  0  0
  -29.3920  -15.2110   21.5540 H   0  0  0  0  0  0  0  0  0  0  0  0
  -25.4150  -13.9080   20.3970 C   0  0  0  0  0  0  0  0  0  0  0  0
  -24.3420  -13.1450   20.7710 C   0  0  0  0  0  0  0  0  0  0  0  0
  -24.7950  -11.7910   20.7540 C   0  0  0  0  0  0  0  0  0  0  0  0
  -26.4550  -13.0180   20.1770 N   0  0  0  0  0  0  0  0  0  0  0  0
  -26.0840  -11.7400   20.4480 N   0  0  0  0  0  0  0  0  0  0  0  0
  -24.0600  -10.5350   20.9540 C   0  0  0  0  0  0  0  0  0  0  0  0
  -24.4810   -9.5770   21.9020 C   0  0  0  0  0  3  0  0  0  0  0  0
  -23.7470   -8.3850   22.0880 C   0  0  0  0  0  3  0  0  0  0  0  0
  -22.5790   -8.1440   21.3280 C   0  0  0  0  0  0  0  0  0  0  0  0
  -22.1780   -9.0920   20.3690 C   0  0  0  0  0  3  0  0  0  0  0  0
  -22.9120  -10.2740   20.1810 C   0  0  0  0  0  3  0  0  0  0  0  0
  -21.8190   -7.0040   21.4230 O   0  0  0  0  0  0  0  0  0  0  0  0
  -21.7510   -6.2780   22.5850 C   0  0  0  0  0  0  0  0  0  0  0  0
  -21.3170   -6.8540   23.7990 C   0  0  0  0  0  3  0  0  0  0  0  0
  -21.1960   -6.0540   24.9530 C   0  0  0  0  0  3  0  0  0  0  0  0
  -21.5010   -4.6810   24.8950 C   0  0  0  0  0  0  0  0  0  0  0  0
  -21.9300   -4.1050   23.6860 C   0  0  0  0  0  3  0  0  0  0  0  0
  -22.0520   -4.9020   22.5340 C   0  0  0  0  0  0  0  0  0  0  0  0
  -22.4450   -4.3390   21.3660 F   0  0  0  0  0  0  0  0  0  0  0  0
  -21.3790   -3.9110   26.0020 F   0  0  0  0  0  0  0  0  0  0  0  0
  -22.9480  -13.6350   21.0380 C   0  0  0  0  0  0  0  0  0  0  0  0
  -22.2140  -12.9510   21.9090 N   0  0  0  0  0  0  0  0  0  0  0  0
  -22.5160  -14.6580   20.5090 O   0  0  0  0  0  0  0  0  0  0  0  0
  -22.5750  -12.1220   22.3590 H   0  0  0  0  0  0  0  0  0  0  0  0
  -21.2770  -13.2590   22.1290 H   0  0  0  0  0  0  0  0  0  0  0  0
  -25.5910  -15.2760   20.2080 N   0  0  0  0  0  0  0  0  0  0  0  0
  -24.8300  -15.9380   20.3090 H   0  0  0  0  0  0  0  0  0  0  0  0
  -26.4480  -15.7050   19.8840 H   0  0  0  0  0  0  0  0  0  0  0  0
  2  1  1  0
  3  4  2  0
  3  6  1  0
  4  5  1  0
  5 54  1  0
  5  1  2  0
  6  2  2  0
  7  3  1  0
  8  4  1  0
  9  7  1  0
 10  8  1  0
 11  9  1  0
 11 10  1  0
 12  7  2  0
 13 15  1  0
 13  6  1  0
 14 25  2  0
 15 20  1  0
 16 24  1  0
 16 26  1  0
 17 23  1  0
 17 19  1  0
 18 24  1  0
 19 18  1  0
 20 19  2  0
 21 22  1  0
 21 15  2  0
 22 17  2  0
 23 16  1  0
 24 14  1  0
 26 28  2  0
 27 26  1  0
 29 27  1  0
 30 39  2  0
 30 35  1  0
 31 27  1  0
 31 35  1  0
 32 31  1  0
 33 34  1  0
 33 32  1  0
 34 30  1  0
 35 36  2  0
 36 37  1  0
 38 37  2  0
 39 38  1  0
 40 14  1  0
 40 41  1  0
 40 50  1  0
 41 44  1  0
 42 46  1  0
 42 41  1  0
 43 42  2  0
 46 45  1  0
 48 46  1  0
 48 49  1  0
 48 47  1  0
 50 53  1  1
 50 51  1  0
 52 50  1  0
 55 54  1  0
 55 56  1  0
 57 56  1  0
 57 58  1  0
 59 67  1  0
 60 65  1  0
 61 62  1  0
 61 60  1  0
 63 62  1  0
 63 72  1  0
 63 64  1  0
 65 59  1  0
 65 64  1  0
 66 59  2  0
 67 68  1  0
 67 58  1  0
 69 70  2  0
 70 89  1  0
 71 70  1  0
 71 74  1  0
 72 69  1  0
 72 73  1  0
 73 71  2  0
 74 75  1  0
 75 76  2  0
 77 80  1  0
 77 76  1  0
 78 77  2  0
 79 78  1  0
 79 74  2  0
 80 81  1  0
 81 82  1  0
 82 83  2  0
 84 83  1  0
 84 88  1  0
 85 84  2  0
 86 81  2  0
 86 85  1  0
 87 86  1  0
 89 90  1  0
 90 93  1  0
 90 92  1  0
 91 89  2  0
 94 95  1  0
 94 69  1  0
 96 94  1  0
M  ISO  4   6 101  13 101  59 100  67 100
M  END
>  <TORSDO>  (93) 
F 21

>  <SCORE>  (93) 
-13.604

>  <name>  (93) 
92

>  <ligand_id>  (93) 
92

>  <original_smiles>  (93) 
[H]c1c([H])c([H])c2c(c1[H])C([H])([H])C([H])([H])C([H])([H])C2([H])N([H])C(=O)C1([H])N(C(=O)C([H])(N([H])C(=O)C([H])(N([H])C([H])([H])[H])C([H])([H])[H])C(C([H])([H])[H])(C([H])([H])[H])C([H])([H])[H])C([H])([H])c2c([H])c(Oc3c([H])c([H])c(C([H])([H])C([H])([H])C([H])([H])C([H])([H])C([H])([H])N([H])C(=O)N4C([H])([H])C([H])([H])C([H])([H])C([H])(n5nc(-c6c([H])c([H])c(Oc7c([H])c([H])c(F)c([H])c7F)c([H])c6[H])c(C(=O)N([H])[H])c5N([H])[H])C4([H])[H])c4c3C(=O)C([H])([H])C([H])([H])C([H])([H])C4([H])[H])c([H])c([H])c2C1([H])[H]

>  <smiles>  (93) 
[H]c1c([H])c([H])c2c(c1[H])C([H])([H])C([H])([H])C([H])([H])C2([H])N([H])C(=O)C1([H])N(C(=O)C([H])(N([H])C(=O)C([H])(N([H])C([H])([H])[H])C([H])([H])[H])C(C([H])([H])[H])(C([H])([H])[H])C([H])([H])[H])C([H])([H])c2c([H])c(Oc3c([H])c([H])c(C([H])([H])C([H])([H])C([H])([H])C([H])([H])C([H])([H])N([H])C(=O)N4C([H])([H])C([H])([H])C([H])([H])C([H])(n5nc(-c6c([H])c([H])c(Oc7c([H])c([H])c(F)c([H])c7F)c([H])c6[H])c(C(=O)N([H])[H])c5N([H])[H])C4([H])[H])c4c3C(=O)C([H])([H])C([H])([H])C([H])([H])C4([H])[H])c([H])c([H])c2C1([H])[H]

$$$$
93:0:0
     RDKit          3D

 90 99  0  0  1  0  0  0  0  0999 V2000
  -26.4230  -20.5280   17.2570 C   0  0  0  0  0  3  0  0  0  0  0  0
  -26.8720  -19.2020   17.3030 C   0  0  0  0  0  3  0  0  0  0  0  0
  -26.9530  -21.4900   18.1310 C   0  0  0  0  0  3  0  0  0  0  0  0
  -27.8590  -18.8290   18.2290 C   0  0  0  0  0  3  0  0  0  0  0  0
  -27.9520  -21.1690   19.0840 C   0  0  0  0  0  0  0  0  0  0  0  0
  -28.4260  -19.7530   19.1340 C   0  0  0  0  0  0  0  0  0  0  0  0
  -28.4680  -22.2730   20.0430 C   0  0  0  0  0  0  0  0  0  0  0  0
  -29.2820  -20.9440   20.8280 C   0  0  0  0  0  0  0  0  0  0  0  0
  -28.0730  -23.8240   19.9270 C   0  0  0  0  0  3  0  0  0  0  0  0
  -29.5250  -19.2200   20.0850 C   0  0  0  0  0  3  0  0  0  0  0  0
  -29.7580  -21.1430   21.9510 O   0  0  0  0  0  0  0  0  0  0  0  0
  -30.3260  -16.0060   20.4130 C   0  0  0  0  0  0  0  0  0  0  0  0
  -30.5420  -13.3930   19.6960 C   0  0  0  0  0  2  0  0  0  0  0  0
  -29.7150  -12.8660   18.4810 C   0  0  0  0  0  2  0  0  0  0  0  0
  -28.3010  -12.4560   18.9100 C   0  0  0  0  0  2  0  0  0  0  0  0
  -27.7180  -13.4780   19.9080 C   0  0  0  0  0  3  0  0  0  0  0  0
  -28.6960  -13.9100   21.0330 C   0  0  0  0  0  2  0  0  0  0  0  0
  -29.8510  -14.5940   20.3900 N   0  0  0  0  0  0  0  0  0  0  0  0
  -31.5600  -15.9280   20.2220 O   0  0  0  0  0  0  0  0  0  0  0  0
  -29.5500  -17.4080   20.4690 N   0  0  0  0  0  0  0  0  0  0  0  0
  -28.6060  -17.1740   20.7370 H   0  0  0  0  0  0  0  0  0  0  0  0
  -25.3390  -13.9600   20.6340 C   0  0  0  0  0  0  0  0  0  0  0  0
  -24.2840  -13.1640   20.9730 C   0  0  0  0  0  0  0  0  0  0  0  0
  -24.7720  -11.8200   20.9390 C   0  0  0  0  0  0  0  0  0  0  0  0
  -26.3990  -13.1070   20.4020 N   0  0  0  0  0  0  0  0  0  0  0  0
  -26.0720  -11.8100   20.6510 N   0  0  0  0  0  0  0  0  0  0  0  0
  -24.0540  -10.5480   21.1020 C   0  0  0  0  0  0  0  0  0  0  0  0
  -24.4580   -9.5850   22.0540 C   0  0  0  0  0  3  0  0  0  0  0  0
  -23.7330   -8.3840   22.2090 C   0  0  0  0  0  3  0  0  0  0  0  0
  -22.5900   -8.1350   21.4120 C   0  0  0  0  0  0  0  0  0  0  0  0
  -22.2050   -9.0860   20.4510 C   0  0  0  0  0  3  0  0  0  0  0  0
  -22.9300  -10.2790   20.2940 C   0  0  0  0  0  3  0  0  0  0  0  0
  -21.8420   -6.9840   21.4750 O   0  0  0  0  0  0  0  0  0  0  0  0
  -21.7300   -6.2590   22.6340 C   0  0  0  0  0  0  0  0  0  0  0  0
  -21.1950   -6.8200   23.8150 C   0  0  0  0  0  3  0  0  0  0  0  0
  -21.0340   -6.0190   24.9630 C   0  0  0  0  0  3  0  0  0  0  0  0
  -21.3980   -4.6600   24.9320 C   0  0  0  0  0  0  0  0  0  0  0  0
  -21.9260   -4.0980   23.7560 C   0  0  0  0  0  3  0  0  0  0  0  0
  -22.0880   -4.8950   22.6100 C   0  0  0  0  0  0  0  0  0  0  0  0
  -22.5780   -4.3440   21.4720 F   0  0  0  0  0  0  0  0  0  0  0  0
  -21.2360   -3.8890   26.0330 F   0  0  0  0  0  0  0  0  0  0  0  0
  -22.8760  -13.6230   21.2120 C   0  0  0  0  0  0  0  0  0  0  0  0
  -22.1360  -12.9170   22.0600 N   0  0  0  0  0  0  0  0  0  0  0  0
  -22.4410  -14.6460   20.6830 O   0  0  0  0  0  0  0  0  0  0  0  0
  -22.5020  -12.0920   22.5100 H   0  0  0  0  0  0  0  0  0  0  0  0
  -21.1920  -13.2100   22.2650 H   0  0  0  0  0  0  0  0  0  0  0  0
  -25.4840  -15.3350   20.4690 N   0  0  0  0  0  0  0  0  0  0  0  0
  -24.7010  -15.9730   20.5600 H   0  0  0  0  0  0  0  0  0  0  0  0
  -26.3200  -15.7830   20.1190 H   0  0  0  0  0  0  0  0  0  0  0  0
  -28.1650  -25.4270   20.3480 O   0  0  0  0  0  0  0  0  0  0  0  0
  -24.6340  -31.8860   23.1840 C   0  0  0  0  0  0  0  0  0  0  0  0
  -27.2190  -26.7070   20.2300 C   0  0  0  0  0  0  0  0  0  0  0  0
  -23.4660  -30.4590   21.5600 C   0  0  0  0  0  3  0  0  0  0  0  0
  -24.9360  -28.7970   20.1570 C   0  0  0  0  0  0  0  0  0  0  0  0
  -26.0490  -30.5930   21.4510 C   0  0  0  0  0  2  0  0  0  0  0  0
  -26.1270  -29.1430   20.8040 C   0  0  0  0  0  0  0  0  0  0  0  0
  -27.2410  -28.1260   20.8130 C   0  0  0  0  0  3  0  0  0  0  0  0
  -25.9930  -26.6120   19.5100 C   0  0  0  0  0  3  0  0  0  0  0  0
  -24.9150  -27.5600   19.4860 C   0  0  0  0  0  3  0  0  0  0  0  0
  -23.7200  -29.7460   20.1970 C   0  0  0  0  0  2  0  0  0  0  0  0
  -24.7410  -31.0170   22.1160 N   0  0  0  0  0  0  0  0  0  0  0  0
  -23.5360  -32.1820   23.6870 O   0  0  0  0  0  0  0  0  0  0  0  0
  -22.7510  -29.4920   22.5430 C   0  0  0  0  0  0  0  0  0  0  0  0
  -21.4200  -29.3230   22.4190 N   0  0  0  0  0  0  0  0  0  0  0  0
  -23.4090  -28.8880   23.3930 O   0  0  0  0  0  0  0  0  0  0  0  0
  -20.9350  -29.8600   21.7130 H   0  0  0  0  0  0  0  0  0  0  0  0
  -18.0490  -28.0590   22.9400 C   0  0  0  0  0  0  0  0  0  0  0  0
  -20.6040  -28.3830   23.2000 C   0  0  0  0  0  3  0  0  0  0  0  0
  -20.7310  -26.9440   22.6460 C   0  0  0  0  0  2  0  0  0  0  0  0
  -19.6380  -26.5890   21.6320 C   0  0  0  0  0  2  0  0  0  0  0  0
  -18.2540  -26.7090   22.2730 C   0  0  0  0  0  2  0  0  0  0  0  0
  -19.1500  -28.8520   23.3610 C   0  0  0  0  0  0  0  0  0  0  0  0
  -18.9010  -30.1090   23.9520 C   0  0  0  0  0  3  0  0  0  0  0  0
  -17.5840  -30.5780   24.1210 C   0  0  0  0  0  3  0  0  0  0  0  0
  -16.4970  -29.7850   23.7120 C   0  0  0  0  0  3  0  0  0  0  0  0
  -16.7300  -28.5270   23.1290 C   0  0  0  0  0  3  0  0  0  0  0  0
  -25.8850  -32.5640   23.8220 C   0  0  0  0  0  3  0  0  0  0  0  0
  -25.5440  -33.9670   24.1380 N   0  0  0  0  0  0  0  0  0  0  0  0
  -25.8930  -35.0340   23.4060 C   0  0  0  0  0  0  0  0  0  0  0  0
  -26.5890  -34.9410   22.3920 O   0  0  0  0  0  0  0  0  0  0  0  0
  -24.9230  -34.1100   24.9210 H   0  0  0  0  0  0  0  0  0  0  0  0
  -24.1860  -36.8500   23.0200 C   0  0  0  0  0  1  0  0  0  0  0  0
  -25.3960  -36.4230   23.8660 C   0  0  0  0  0  3  0  0  0  0  0  0
  -27.5010  -37.3000   24.7850 C   0  0  0  0  0  1  0  0  0  0  0  0
  -26.4370  -37.4750   23.8000 N   0  0  0  0  0  0  0  0  0  0  0  0
  -26.0280  -38.3950   23.9340 H   0  0  0  0  0  0  0  0  0  0  0  0
  -26.3800  -31.8330   25.1320 C   0  0  1  0  0  0  0  0  0  0  0  0
  -25.2690  -31.6170   26.1870 C   0  0  0  0  0  1  0  0  0  0  0  0
  -26.9820  -30.4480   24.8040 C   0  0  0  0  0  1  0  0  0  0  0  0
  -27.5130  -32.6540   25.7930 C   0  0  0  0  0  1  0  0  0  0  0  0
  1  2  2  0
  1  3  1  0
  2  4  1  0
  3  5  2  0
  4  6  2  0
  5  6  1  0
  5  7  1  0
  6 10  1  0
  7  8  1  0
  8 11  2  0
  9  7  2  0
  9 50  1  0
 10 20  1  0
 10  8  1  0
 12 20  1  0
 13 18  1  0
 14 15  1  0
 14 13  1  0
 16 15  1  0
 16 25  1  0
 16 17  1  0
 18 12  1  0
 18 17  1  0
 19 12  2  0
 20 21  1  0
 22 23  2  0
 23 42  1  0
 24 23  1  0
 24 27  1  0
 25 22  1  0
 25 26  1  0
 26 24  2  0
 27 28  1  0
 28 29  2  0
 30 33  1  0
 30 29  1  0
 31 30  2  0
 32 31  1  0
 32 27  2  0
 33 34  1  0
 34 35  1  0
 35 36  2  0
 37 36  1  0
 37 41  1  0
 38 37  2  0
 39 34  2  0
 39 38  1  0
 40 39  1  0
 42 43  1  0
 43 46  1  0
 43 45  1  0
 44 42  2  0
 47 48  1  0
 47 22  1  0
 49 47  1  0
 51 62  2  0
 52 50  1  0
 52 57  1  0
 53 61  1  0
 53 63  1  0
 54 60  1  0
 54 56  1  0
 55 61  1  0
 56 57  2  0
 56 55  1  0
 58 52  2  0
 59 58  1  0
 59 54  2  0
 60 53  1  0
 61 51  1  0
 63 65  2  0
 64 63  1  0
 66 64  1  0
 67 76  2  0
 67 72  1  0
 68 64  1  0
 68 72  1  0
 69 68  1  0
 70 71  1  0
 70 69  1  0
 71 67  1  0
 72 73  2  0
 73 74  1  0
 75 74  2  0
 76 75  1  0
 77 51  1  0
 77 78  1  0
 77 87  1  0
 78 81  1  0
 79 83  1  0
 79 78  1  0
 80 79  2  0
 83 82  1  0
 85 83  1  0
 85 86  1  0
 85 84  1  0
 87 90  1  1
 87 88  1  0
 89 87  1  0
M  ISO  4   9 101  12 100  20 100  50 101
M  END
>  <TORSDO>  (94) 
F 16

>  <SCORE>  (94) 
-16.432

>  <name>  (94) 
93

>  <ligand_id>  (94) 
93

>  <original_smiles>  (94) 
[H]C(Oc1c([H])c([H])c2c(c1[H])C([H])([H])N(C(=O)C([H])(N([H])C(=O)C([H])(N([H])C([H])([H])[H])C([H])([H])[H])C(C([H])([H])[H])(C([H])([H])[H])C([H])([H])[H])C([H])(C(=O)N([H])C1([H])c3c([H])c([H])c([H])c([H])c3C([H])([H])C([H])([H])C1([H])[H])C2([H])[H])=C1C(=O)C([H])(N([H])C(=O)N2C([H])([H])C([H])([H])C([H])([H])C([H])(n3nc(-c4c([H])c([H])c(Oc5c([H])c([H])c(F)c([H])c5F)c([H])c4[H])c(C(=O)N([H])[H])c3N([H])[H])C2([H])[H])c2c([H])c([H])c([H])c([H])c21

>  <smiles>  (94) 
[H]C(Oc1c([H])c([H])c2c(c1[H])C([H])([H])N(C(=O)C([H])(N([H])C(=O)C([H])(N([H])C([H])([H])[H])C([H])([H])[H])C(C([H])([H])[H])(C([H])([H])[H])C([H])([H])[H])C([H])(C(=O)N([H])C1([H])c3c([H])c([H])c([H])c([H])c3C([H])([H])C([H])([H])C1([H])[H])C2([H])[H])=C1C(=O)C([H])(N([H])C(=O)N2C([H])([H])C([H])([H])C([H])([H])C([H])(n3nc(-c4c([H])c([H])c(Oc5c([H])c([H])c(F)c([H])c5F)c([H])c4[H])c(C(=O)N([H])[H])c3N([H])[H])C2([H])[H])c2c([H])c([H])c([H])c([H])c21

$$$$
94:0:0
     RDKit          3D

 88 97  0  0  1  0  0  0  0  0999 V2000
  -29.2260  -21.4640   20.4540 C   0  0  0  0  0  0  0  0  0  0  0  0
  -30.2670  -22.5150   20.8690 C   0  0  0  0  0  2  0  0  0  0  0  0
  -28.0240  -22.6580   20.2000 C   0  0  0  0  0  2  0  0  0  0  0  0
  -29.9850  -25.1060   18.1370 C   0  0  0  0  0  2  0  0  0  0  0  0
  -30.8690  -24.3200   19.0970 C   0  0  0  0  0  2  0  0  0  0  0  0
  -28.5990  -24.5200   18.3790 C   0  0  0  0  0  2  0  0  0  0  0  0
  -29.9880  -23.9950   20.3200 C   0  0  0  0  0  3  0  0  0  0  0  0
  -28.5020  -24.3200   19.9040 C   0  0  2  0  0  0  0  0  0  0  0  0
  -29.6130  -20.0820   20.4670 N   0  0  0  0  0  0  0  0  0  0  0  0
  -28.2150  -25.8870   20.4050 O   0  0  0  0  0  0  0  0  0  0  0  0
  -24.6130  -31.8610   23.2220 C   0  0  0  0  0  0  0  0  0  0  0  0
  -27.1860  -26.9580   20.2370 C   0  0  0  0  0  0  0  0  0  0  0  0
  -23.4270  -30.4600   21.5790 C   0  0  0  0  0  3  0  0  0  0  0  0
  -24.8830  -28.8440   20.1650 C   0  0  0  0  0  0  0  0  0  0  0  0
  -25.9930  -30.6640   21.4500 C   0  0  0  0  0  2  0  0  0  0  0  0
  -26.0640  -29.2510   20.7960 C   0  0  0  0  0  0  0  0  0  0  0  0
  -27.2010  -28.3270   20.8110 C   0  0  0  0  0  3  0  0  0  0  0  0
  -25.9770  -26.7030   19.5510 C   0  0  0  0  0  3  0  0  0  0  0  0
  -24.8650  -27.5920   19.5230 C   0  0  0  0  0  3  0  0  0  0  0  0
  -23.6630  -29.7670   20.2070 C   0  0  0  0  0  2  0  0  0  0  0  0
  -24.6980  -31.0230   22.1370 N   0  0  0  0  0  0  0  0  0  0  0  0
  -23.5210  -32.1550   23.7360 O   0  0  0  0  0  0  0  0  0  0  0  0
  -22.7250  -29.4730   22.5470 C   0  0  0  0  0  0  0  0  0  0  0  0
  -21.3930  -29.3180   22.4210 N   0  0  0  0  0  0  0  0  0  0  0  0
  -23.3840  -28.8440   23.3780 O   0  0  0  0  0  0  0  0  0  0  0  0
  -20.9140  -29.8760   21.7280 H   0  0  0  0  0  0  0  0  0  0  0  0
  -18.0000  -28.1410   22.9360 C   0  0  0  0  0  0  0  0  0  0  0  0
  -20.5630  -28.3860   23.1920 C   0  0  0  0  0  3  0  0  0  0  0  0
  -20.6500  -26.9550   22.6130 C   0  0  0  0  0  2  0  0  0  0  0  0
  -19.5440  -26.6440   21.5990 C   0  0  0  0  0  2  0  0  0  0  0  0
  -18.1650  -26.7950   22.2490 C   0  0  0  0  0  2  0  0  0  0  0  0
  -19.1250  -28.8940   23.3630 C   0  0  0  0  0  0  0  0  0  0  0  0
  -18.9140  -30.1520   23.9690 C   0  0  0  0  0  3  0  0  0  0  0  0
  -17.6130  -30.6570   24.1470 C   0  0  0  0  0  3  0  0  0  0  0  0
  -16.5030  -29.9000   23.7330 C   0  0  0  0  0  3  0  0  0  0  0  0
  -16.6970  -28.6440   23.1330 C   0  0  0  0  0  3  0  0  0  0  0  0
  -25.8800  -32.5050   23.8630 C   0  0  0  0  0  3  0  0  0  0  0  0
  -25.5670  -33.9100   24.1780 N   0  0  0  0  0  0  0  0  0  0  0  0
  -25.9120  -34.9640   23.4260 C   0  0  0  0  0  0  0  0  0  0  0  0
  -26.5900  -34.8540   22.4020 O   0  0  0  0  0  0  0  0  0  0  0  0
  -24.9640  -34.0690   24.9720 H   0  0  0  0  0  0  0  0  0  0  0  0
  -24.2010  -36.7760   23.0590 C   0  0  0  0  0  1  0  0  0  0  0  0
  -25.4340  -36.3580   23.8800 C   0  0  0  0  0  3  0  0  0  0  0  0
  -27.5650  -37.2350   24.7280 C   0  0  0  0  0  1  0  0  0  0  0  0
  -26.4750  -37.4050   23.7720 N   0  0  0  0  0  0  0  0  0  0  0  0
  -26.0730  -38.3280   23.9100 H   0  0  0  0  0  0  0  0  0  0  0  0
  -26.3660  -31.7550   25.1650 C   0  0  1  0  0  0  0  0  0  0  0  0
  -25.2510  -31.5450   26.2170 C   0  0  0  0  0  1  0  0  0  0  0  0
  -26.9460  -30.3640   24.8180 C   0  0  0  0  0  1  0  0  0  0  0  0
  -27.5100  -32.5520   25.8340 C   0  0  0  0  0  1  0  0  0  0  0  0
  -29.2560  -18.5030   20.0260 C   0  0  0  0  0  2  0  0  0  0  0  0
  -29.7760  -16.9230   20.7650 C   0  0  0  0  0  2  0  0  0  0  0  0
  -30.4210  -15.3480   20.2580 C   0  0  0  0  0  0  0  0  0  0  0  0
  -30.4010  -12.8860   19.3910 C   0  0  0  0  0  2  0  0  0  0  0  0
  -29.4860  -12.7010   18.1520 C   0  0  0  0  0  2  0  0  0  0  0  0
  -28.0370  -12.4270   18.5840 C   0  0  0  0  0  2  0  0  0  0  0  0
  -27.5880  -13.3790   19.7200 C   0  0  0  0  0  3  0  0  0  0  0  0
  -28.6330  -13.5200   20.8490 C   0  0  0  0  0  2  0  0  0  0  0  0
  -29.8740  -14.0250   20.2390 N   0  0  0  0  0  0  0  0  0  0  0  0
  -31.6030  -15.3270   19.8830 O   0  0  0  0  0  0  0  0  0  0  0  0
  -25.2190  -13.9290   20.4780 C   0  0  0  0  0  0  0  0  0  0  0  0
  -24.1570  -13.1490   20.8440 C   0  0  0  0  0  0  0  0  0  0  0  0
  -24.6250  -11.7990   20.8080 C   0  0  0  0  0  0  0  0  0  0  0  0
  -26.2610  -13.0570   20.2280 N   0  0  0  0  0  0  0  0  0  0  0  0
  -25.9170  -11.7680   20.4940 N   0  0  0  0  0  0  0  0  0  0  0  0
  -23.8980  -10.5370   20.9930 C   0  0  0  0  0  0  0  0  0  0  0  0
  -24.3240   -9.5670   21.9280 C   0  0  0  0  0  3  0  0  0  0  0  0
  -23.5930   -8.3710   22.1030 C   0  0  0  0  0  3  0  0  0  0  0  0
  -22.4220   -8.1370   21.3440 C   0  0  0  0  0  0  0  0  0  0  0  0
  -22.0150   -9.0950   20.3980 C   0  0  0  0  0  3  0  0  0  0  0  0
  -22.7460  -10.2810   20.2220 C   0  0  0  0  0  3  0  0  0  0  0  0
  -21.6640   -6.9940   21.4280 O   0  0  0  0  0  0  0  0  0  0  0  0
  -21.6010   -6.2550   22.5830 C   0  0  0  0  0  0  0  0  0  0  0  0
  -21.1520   -6.8110   23.8010 C   0  0  0  0  0  3  0  0  0  0  0  0
  -21.0370   -6.0000   24.9460 C   0  0  0  0  0  3  0  0  0  0  0  0
  -21.3610   -4.6310   24.8750 C   0  0  0  0  0  0  0  0  0  0  0  0
  -21.8040   -4.0740   23.6630 C   0  0  0  0  0  3  0  0  0  0  0  0
  -21.9200   -4.8840   22.5190 C   0  0  0  0  0  0  0  0  0  0  0  0
  -22.3270   -4.3370   21.3480 F   0  0  0  0  0  0  0  0  0  0  0  0
  -21.2440   -3.8480   25.9730 F   0  0  0  0  0  0  0  0  0  0  0  0
  -22.7610  -13.6260   21.1150 C   0  0  0  0  0  0  0  0  0  0  0  0
  -22.0300  -12.9250   21.9740 N   0  0  0  0  0  0  0  0  0  0  0  0
  -22.3270  -14.6550   20.5990 O   0  0  0  0  0  0  0  0  0  0  0  0
  -22.3960  -12.0930   22.4130 H   0  0  0  0  0  0  0  0  0  0  0  0
  -21.0920  -13.2260   22.1990 H   0  0  0  0  0  0  0  0  0  0  0  0
  -25.3820  -15.3010   20.3080 N   0  0  0  0  0  0  0  0  0  0  0  0
  -24.6170  -15.9560   20.4300 H   0  0  0  0  0  0  0  0  0  0  0  0
  -26.2350  -15.7420   19.9870 H   0  0  0  0  0  0  0  0  0  0  0  0
  1  9  2  0
  1  2  1  0
  3  1  1  0
  4  6  1  0
  4  5  1  0
  6  8  1  0
  7  5  1  0
  7  2  1  0
  8  3  1  0
  8  7  1  0
  8 10  1  1
 11 22  2  0
 12 10  1  0
 12 17  1  0
 13 21  1  0
 13 23  1  0
 14 20  1  0
 14 16  1  0
 15 21  1  0
 16 17  2  0
 16 15  1  0
 18 12  2  0
 19 18  1  0
 19 14  2  0
 20 13  1  0
 21 11  1  0
 23 25  2  0
 24 23  1  0
 26 24  1  0
 27 36  2  0
 27 32  1  0
 28 24  1  0
 28 32  1  0
 29 28  1  0
 30 31  1  0
 30 29  1  0
 31 27  1  0
 32 33  2  0
 33 34  1  0
 35 34  2  0
 36 35  1  0
 37 11  1  0
 37 38  1  0
 37 47  1  0
 38 41  1  0
 39 43  1  0
 39 38  1  0
 40 39  2  0
 43 42  1  0
 45 43  1  0
 45 46  1  0
 45 44  1  0
 47 50  1  1
 47 48  1  0
 49 47  1  0
 51  9  1  0
 51 52  1  0
 53 52  1  0
 54 59  1  0
 55 56  1  0
 55 54  1  0
 57 56  1  0
 57 64  1  0
 57 58  1  0
 59 53  1  0
 59 58  1  0
 60 53  2  0
 61 62  2  0
 62 81  1  0
 63 62  1  0
 63 66  1  0
 64 61  1  0
 64 65  1  0
 65 63  2  0
 66 67  1  0
 67 68  2  0
 69 72  1  0
 69 68  1  0
 70 69  2  0
 71 70  1  0
 71 66  2  0
 72 73  1  0
 73 74  1  0
 74 75  2  0
 76 75  1  0
 76 80  1  0
 77 76  2  0
 78 73  2  0
 78 77  1  0
 79 78  1  0
 81 82  1  0
 82 85  1  0
 82 84  1  0
 83 81  2  0
 86 87  1  0
 86 61  1  0
 88 86  1  0
M  ISO  4   8 101  10 101  52 100  53 100
M  END
>  <TORSDO>  (95) 
F 18

>  <SCORE>  (95) 
-16.650

>  <name>  (95) 
94

>  <ligand_id>  (95) 
94

>  <original_smiles>  (95) 
[H]c1c([H])c([H])c2c(c1[H])C([H])([H])C([H])([H])C([H])([H])C2([H])N([H])C(=O)C1([H])N(C(=O)C([H])(N([H])C(=O)C([H])(N([H])C([H])([H])[H])C([H])([H])[H])C(C([H])([H])[H])(C([H])([H])[H])C([H])([H])[H])C([H])([H])c2c([H])c(OC34C([H])([H])C(=NC([H])([H])C([H])([H])C(=O)N5C([H])([H])C([H])([H])C([H])([H])C([H])(n6nc(-c7c([H])c([H])c(Oc8c([H])c([H])c(F)c([H])c8F)c([H])c7[H])c(C(=O)N([H])[H])c6N([H])[H])C5([H])[H])C([H])([H])C3([H])C([H])([H])C([H])([H])C4([H])[H])c([H])c([H])c2C1([H])[H]

>  <smiles>  (95) 
[H]c1c([H])c([H])c2c(c1[H])C([H])([H])C([H])([H])C([H])([H])C2([H])N([H])C(=O)C1([H])N(C(=O)C([H])(N([H])C(=O)C([H])(N([H])C([H])([H])[H])C([H])([H])[H])C(C([H])([H])[H])(C([H])([H])[H])C([H])([H])[H])C([H])([H])c2c([H])c(OC34C([H])([H])C(=NC([H])([H])C([H])([H])C(=O)N5C([H])([H])C([H])([H])C([H])([H])C([H])(n6nc(-c7c([H])c([H])c(Oc8c([H])c([H])c(F)c([H])c8F)c([H])c7[H])c(C(=O)N([H])[H])c6N([H])[H])C5([H])[H])C([H])([H])C3([H])C([H])([H])C([H])([H])C4([H])[H])c([H])c([H])c2C1([H])[H]

$$$$
