0:0:0
     RDKit          3D

 89 98  0  0  1  0  0  0  0  0999 V2000
  -30.2920  -15.8590   20.3310 C   0  0  0  0  0  0  0  0  0  0  0  0
  -30.4220  -13.2870   19.5060 C   0  0  0  0  0  2  0  0  0  0  0  0
  -29.5760  -12.7850   18.2990 C   0  0  0  0  0  2  0  0  0  0  0  0
  -28.1640  -12.3850   18.7470 C   0  0  0  0  0  2  0  0  0  0  0  0
  -27.6040  -13.3990   19.7670 C   0  0  0  0  0  3  0  0  0  0  0  0
  -28.6030  -13.8100   20.8770 C   0  0  0  0  0  2  0  0  0  0  0  0
  -29.7460  -14.4880   20.2090 N   0  0  0  0  0  0  0  0  0  0  0  0
  -31.5340  -15.7080   20.2730 O   0  0  0  0  0  0  0  0  0  0  0  0
  -30.3640  -21.8170   20.5800 C   0  0  0  0  0  3  0  0  0  0  0  0
  -27.7750  -22.4080   20.2380 C   0  0  0  0  0  3  0  0  0  0  0  0
  -29.6690  -20.5250   20.4450 C   0  0  0  0  0  0  0  0  0  0  0  0
  -28.3120  -20.9070   20.2780 C   0  0  0  0  0  3  0  0  0  0  0  0
  -29.8510  -23.2400   20.5530 C   0  0  0  0  0  0  0  0  0  0  0  0
  -28.4880  -23.7950   20.3700 C   0  0  0  0  0  0  0  0  0  0  0  0
  -27.5620  -19.4720   20.2180 C   0  0  0  0  0  3  0  0  0  0  0  0
  -30.3070  -18.8700   20.5060 C   0  0  0  0  0  3  0  0  0  0  0  0
  -28.2130  -17.8730   20.0490 C   0  0  0  0  0  0  0  0  0  0  0  0
  -30.9210  -24.3010   20.7500 C   0  0  0  0  0  1  0  0  0  0  0  0
  -27.8310  -17.3820   18.6400 C   0  0  0  0  0  1  0  0  0  0  0  0
  -29.6540  -17.3380   20.3490 N   0  0  0  0  0  0  0  0  0  0  0  0
  -25.2250  -13.8940   20.4790 C   0  0  0  0  0  0  0  0  0  0  0  0
  -24.1720  -13.1000   20.8330 C   0  0  0  0  0  0  0  0  0  0  0  0
  -24.6690  -11.7600   20.8350 C   0  0  0  0  0  0  0  0  0  0  0  0
  -26.2890  -13.0380   20.2720 N   0  0  0  0  0  0  0  0  0  0  0  0
  -25.9700  -11.7470   20.5540 N   0  0  0  0  0  0  0  0  0  0  0  0
  -23.9580  -10.4880   21.0270 C   0  0  0  0  0  0  0  0  0  0  0  0
  -24.3740   -9.5440   21.9920 C   0  0  0  0  0  3  0  0  0  0  0  0
  -23.6570   -8.3410   22.1720 C   0  0  0  0  0  3  0  0  0  0  0  0
  -22.5110   -8.0730   21.3860 C   0  0  0  0  0  0  0  0  0  0  0  0
  -22.1160   -9.0040   20.4100 C   0  0  0  0  0  3  0  0  0  0  0  0
  -22.8340  -10.1970   20.2280 C   0  0  0  0  0  3  0  0  0  0  0  0
  -21.7680   -6.9200   21.4750 O   0  0  0  0  0  0  0  0  0  0  0  0
  -21.6810   -6.2090   22.6450 C   0  0  0  0  0  0  0  0  0  0  0  0
  -21.1810   -6.7860   23.8330 C   0  0  0  0  0  3  0  0  0  0  0  0
  -21.0410   -5.9980   24.9930 C   0  0  0  0  0  3  0  0  0  0  0  0
  -21.3940   -4.6350   24.9680 C   0  0  0  0  0  0  0  0  0  0  0  0
  -21.8870   -4.0580   23.7840 C   0  0  0  0  0  3  0  0  0  0  0  0
  -22.0280   -4.8430   22.6260 C   0  0  0  0  0  0  0  0  0  0  0  0
  -22.4840   -4.2770   21.4830 F   0  0  0  0  0  0  0  0  0  0  0  0
  -21.2560   -3.8760   26.0800 F   0  0  0  0  0  0  0  0  0  0  0  0
  -22.7600  -13.5550   21.0520 C   0  0  0  0  0  0  0  0  0  0  0  0
  -22.0240  -12.8710   21.9190 N   0  0  0  0  0  0  0  0  0  0  0  0
  -22.3190  -14.5570   20.4900 O   0  0  0  0  0  0  0  0  0  0  0  0
  -22.3950  -12.0630   22.3950 H   0  0  0  0  0  0  0  0  0  0  0  0
  -21.0740  -13.1620   22.1090 H   0  0  0  0  0  0  0  0  0  0  0  0
  -25.3570  -15.2650   20.2830 N   0  0  0  0  0  0  0  0  0  0  0  0
  -24.5620  -15.8890   20.3640 H   0  0  0  0  0  0  0  0  0  0  0  0
  -26.1870  -15.7210   19.9300 H   0  0  0  0  0  0  0  0  0  0  0  0
  -28.2570  -25.4460   20.3490 O   0  0  0  0  0  0  0  0  0  0  0  0
  -24.7150  -31.8650   23.2360 C   0  0  0  0  0  0  0  0  0  0  0  0
  -27.2390  -26.6580   20.3280 C   0  0  0  0  0  0  0  0  0  0  0  0
  -23.5400  -30.4580   21.5990 C   0  0  0  0  0  3  0  0  0  0  0  0
  -24.9910  -28.7670   20.2230 C   0  0  0  0  0  0  0  0  0  0  0  0
  -26.1240  -30.5540   21.5160 C   0  0  0  0  0  2  0  0  0  0  0  0
  -26.1820  -29.1040   20.8760 C   0  0  0  0  0  0  0  0  0  0  0  0
  -27.2810  -28.0790   20.8920 C   0  0  0  0  0  3  0  0  0  0  0  0
  -26.0160  -26.5600   19.6100 C   0  0  0  0  0  3  0  0  0  0  0  0
  -24.9530  -27.5220   19.5660 C   0  0  0  0  0  3  0  0  0  0  0  0
  -23.7940  -29.7390   20.2400 C   0  0  0  0  0  2  0  0  0  0  0  0
  -24.8180  -30.9960   22.1700 N   0  0  0  0  0  0  0  0  0  0  0  0
  -23.6170  -32.1790   23.7290 O   0  0  0  0  0  0  0  0  0  0  0  0
  -22.8000  -29.5010   22.5730 C   0  0  0  0  0  0  0  0  0  0  0  0
  -21.4650  -29.3670   22.4440 N   0  0  0  0  0  0  0  0  0  0  0  0
  -23.4400  -28.8740   23.4200 O   0  0  0  0  0  0  0  0  0  0  0  0
  -20.9960  -29.9190   21.7410 H   0  0  0  0  0  0  0  0  0  0  0  0
  -18.0590  -28.2030   22.9600 C   0  0  0  0  0  0  0  0  0  0  0  0
  -20.6230  -28.4440   23.2180 C   0  0  0  0  0  3  0  0  0  0  0  0
  -20.7070  -27.0090   22.6470 C   0  0  0  0  0  2  0  0  0  0  0  0
  -19.6010  -26.6980   21.6330 C   0  0  0  0  0  2  0  0  0  0  0  0
  -18.2210  -26.8550   22.2780 C   0  0  0  0  0  2  0  0  0  0  0  0
  -19.1860  -28.9560   23.3860 C   0  0  0  0  0  0  0  0  0  0  0  0
  -18.9770  -30.2140   23.9920 C   0  0  0  0  0  3  0  0  0  0  0  0
  -17.6760  -30.7220   24.1700 C   0  0  0  0  0  3  0  0  0  0  0  0
  -16.5640  -29.9670   23.7550 C   0  0  0  0  0  3  0  0  0  0  0  0
  -16.7560  -28.7090   23.1570 C   0  0  0  0  0  3  0  0  0  0  0  0
  -25.9700  -32.5200   23.8880 C   0  0  0  0  0  3  0  0  0  0  0  0
  -25.6420  -33.9210   24.2260 N   0  0  0  0  0  0  0  0  0  0  0  0
  -25.9580  -34.9920   23.4860 C   0  0  0  0  0  0  0  0  0  0  0  0
  -26.6100  -34.9050   22.4420 O   0  0  0  0  0  0  0  0  0  0  0  0
  -25.0550  -34.0600   25.0360 H   0  0  0  0  0  0  0  0  0  0  0  0
  -24.2030  -36.7830   23.2190 C   0  0  0  0  0  1  0  0  0  0  0  0
  -25.4790  -36.3770   23.9740 C   0  0  0  0  0  3  0  0  0  0  0  0
  -27.6340  -37.2860   24.7280 C   0  0  0  0  0  1  0  0  0  0  0  0
  -26.4970  -37.4420   23.8260 N   0  0  0  0  0  0  0  0  0  0  0  0
  -26.0860  -38.3570   23.9900 H   0  0  0  0  0  0  0  0  0  0  0  0
  -26.4570  -31.7620   25.1860 C   0  0  1  0  0  0  0  0  0  0  0  0
  -25.3430  -31.5410   26.2360 C   0  0  0  0  0  1  0  0  0  0  0  0
  -27.0440  -30.3780   24.8360 C   0  0  0  0  0  1  0  0  0  0  0  0
  -27.5980  -32.5600   25.8620 C   0  0  0  0  0  1  0  0  0  0  0  0
  1 20  1  0
  2  7  1  0
  3  4  1  0
  3  2  1  0
  5  4  1  0
  5 24  1  0
  5  6  1  0
  7  1  1  0
  7  6  1  0
  8  1  2  0
 10 12  1  0
 10 14  2  0
 11 16  2  0
 11  9  1  0
 12 15  1  0
 12 11  1  0
 13  9  2  0
 13 18  1  0
 14 13  1  0
 17 15  2  0
 17 20  1  0
 19 17  1  0
 20 16  1  0
 21 22  2  0
 22 23  1  0
 22 41  1  0
 23 26  1  0
 24 21  1  0
 24 25  1  0
 25 23  2  0
 26 27  1  0
 27 28  2  0
 29 32  1  0
 29 28  1  0
 30 29  2  0
 31 30  1  0
 31 26  2  0
 32 33  1  0
 33 34  1  0
 34 35  2  0
 36 35  1  0
 36 40  1  0
 37 36  2  0
 38 33  2  0
 38 37  1  0
 39 38  1  0
 41 42  1  0
 42 45  1  0
 42 44  1  0
 43 41  2  0
 46 47  1  0
 46 21  1  0
 48 46  1  0
 49 14  1  0
 50 61  2  0
 51 49  1  0
 51 56  1  0
 52 60  1  0
 52 62  1  0
 53 59  1  0
 53 55  1  0
 54 60  1  0
 55 56  2  0
 55 54  1  0
 57 51  2  0
 58 57  1  0
 58 53  2  0
 59 52  1  0
 60 50  1  0
 62 64  2  0
 63 62  1  0
 65 63  1  0
 66 75  2  0
 66 71  1  0
 67 63  1  0
 67 71  1  0
 68 67  1  0
 69 70  1  0
 69 68  1  0
 70 66  1  0
 71 72  2  0
 72 73  1  0
 74 73  2  0
 75 74  1  0
 76 50  1  0
 76 77  1  0
 76 86  1  0
 77 80  1  0
 78 82  1  0
 78 77  1  0
 79 78  2  0
 82 81  1  0
 84 82  1  0
 84 85  1  0
 84 83  1  0
 86 89  1  1
 86 87  1  0
 88 86  1  0
M  ISO  4   1 100  14 101  20 100  49 101
M  END
>  <TORSDO>  (1) 
F 15

>  <SCORE>  (1) 
-16.712

>  <name>  (1) 
0

>  <ligand_id>  (1) 
0

>  <original_smiles>  (1) 
[H]c1c([H])c([H])c2c(c1[H])C([H])([H])C([H])([H])C([H])([H])C2([H])N([H])C(=O)C1([H])N(C(=O)C([H])(N([H])C(=O)C([H])(N([H])C([H])([H])[H])C([H])([H])[H])C(C([H])([H])[H])(C([H])([H])[H])C([H])([H])[H])C([H])([H])c2c([H])c(Oc3c([H])c4c(c([H])c3C([H])([H])[H])C([H])([H])N(C(=O)N3C([H])([H])C([H])([H])C([H])([H])C([H])(n5nc(-c6c([H])c([H])c(Oc7c([H])c([H])c(F)c([H])c7F)c([H])c6[H])c(C(=O)N([H])[H])c5N([H])[H])C3([H])[H])C([H])(C([H])([H])[H])C4([H])[H])c([H])c([H])c2C1([H])[H]

>  <smiles>  (1) 
[H]c1c([H])c([H])c2c(c1[H])C([H])([H])C([H])([H])C([H])([H])C2([H])N([H])C(=O)C1([H])N(C(=O)C([H])(N([H])C(=O)C([H])(N([H])C([H])([H])[H])C([H])([H])[H])C(C([H])([H])[H])(C([H])([H])[H])C([H])([H])[H])C([H])([H])c2c([H])c(Oc3c([H])c4c(c([H])c3C([H])([H])[H])C([H])([H])N(C(=O)N3C([H])([H])C([H])([H])C([H])([H])C([H])(n5nc(-c6c([H])c([H])c(Oc7c([H])c([H])c(F)c([H])c7F)c([H])c6[H])c(C(=O)N([H])[H])c5N([H])[H])C3([H])[H])C([H])(C([H])([H])[H])C4([H])[H])c([H])c([H])c2C1([H])[H]

$$$$
1:0:0
     RDKit          3D

 91100  0  0  1  0  0  0  0  0999 V2000
  -29.7260  -20.7740   20.4460 C   0  0  0  0  0  3  0  0  0  0  0  0
  -27.8240  -21.6250   19.2200 C   0  0  0  0  0  3  0  0  0  0  0  0
  -29.4940  -19.3750   20.0160 C   0  0  0  0  0  0  0  0  0  0  0  0
  -28.3910  -19.1980   19.1420 C   0  0  0  0  0  0  0  0  0  0  0  0
  -28.9090  -21.9480   20.0570 C   0  0  0  0  0  0  0  0  0  0  0  0
  -27.5640  -20.3030   18.7800 C   0  0  0  0  0  0  0  0  0  0  0  0
  -30.3620  -18.0360   20.4060 C   0  0  0  0  0  2  0  0  0  0  0  0
  -28.0680  -17.8060   18.5840 C   0  0  0  0  0  2  0  0  0  0  0  0
  -29.1850  -16.7440   18.7000 C   0  0  0  0  0  2  0  0  0  0  0  0
  -29.7410  -16.5120   20.1280 C   0  0  2  0  0  0  0  0  0  0  0  0
  -26.3500  -20.0890   17.8870 C   0  0  0  0  0  1  0  0  0  0  0  0
  -28.6330  -16.3880   21.1980 C   0  0  0  0  0  1  0  0  0  0  0  0
  -30.6150  -15.0730   20.0890 C   0  0  0  0  0  0  0  0  0  0  0  0
  -30.5440  -12.7100   19.1680 C   0  0  0  0  0  2  0  0  0  0  0  0
  -29.5670  -12.6600   17.9670 C   0  0  0  0  0  2  0  0  0  0  0  0
  -28.1120  -12.4250   18.4270 C   0  0  0  0  0  2  0  0  0  0  0  0
  -27.7260  -13.3130   19.6380 C   0  0  0  0  0  3  0  0  0  0  0  0
  -28.8270  -13.2890   20.7200 C   0  0  0  0  0  2  0  0  0  0  0  0
  -30.0720  -13.7770   20.0970 N   0  0  0  0  0  0  0  0  0  0  0  0
  -31.8180  -15.1430   19.8170 O   0  0  0  0  0  0  0  0  0  0  0  0
  -25.3470  -13.8780   20.4050 C   0  0  0  0  0  0  0  0  0  0  0  0
  -24.3020  -13.0930   20.8000 C   0  0  0  0  0  0  0  0  0  0  0  0
  -24.7810  -11.7490   20.7590 C   0  0  0  0  0  0  0  0  0  0  0  0
  -26.4010  -13.0090   20.1590 N   0  0  0  0  0  0  0  0  0  0  0  0
  -26.0670  -11.7240   20.4310 N   0  0  0  0  0  0  0  0  0  0  0  0
  -24.0720  -10.4810   20.9580 C   0  0  0  0  0  0  0  0  0  0  0  0
  -24.5180   -9.5270   21.8980 C   0  0  0  0  0  3  0  0  0  0  0  0
  -23.8070   -8.3220   22.0840 C   0  0  0  0  0  3  0  0  0  0  0  0
  -22.6380   -8.0640   21.3300 C   0  0  0  0  0  0  0  0  0  0  0  0
  -22.2120   -9.0080   20.3790 C   0  0  0  0  0  3  0  0  0  0  0  0
  -22.9230  -10.2040   20.1900 C   0  0  0  0  0  3  0  0  0  0  0  0
  -21.8970   -6.9120   21.4280 O   0  0  0  0  0  0  0  0  0  0  0  0
  -21.8340   -6.1950   22.5950 C   0  0  0  0  0  0  0  0  0  0  0  0
  -21.3540   -6.7650   23.7940 C   0  0  0  0  0  3  0  0  0  0  0  0
  -21.2400   -5.9730   24.9530 C   0  0  0  0  0  3  0  0  0  0  0  0
  -21.5950   -4.6110   24.9150 C   0  0  0  0  0  0  0  0  0  0  0  0
  -22.0700   -4.0410   23.7210 C   0  0  0  0  0  3  0  0  0  0  0  0
  -22.1860   -4.8310   22.5630 C   0  0  0  0  0  0  0  0  0  0  0  0
  -22.6230   -4.2720   21.4090 F   0  0  0  0  0  0  0  0  0  0  0  0
  -21.4790   -3.8480   26.0260 F   0  0  0  0  0  0  0  0  0  0  0  0
  -22.9050  -13.5580   21.0960 C   0  0  0  0  0  0  0  0  0  0  0  0
  -22.2030  -12.8600   21.9810 N   0  0  0  0  0  0  0  0  0  0  0  0
  -22.4480  -14.5780   20.5820 O   0  0  0  0  0  0  0  0  0  0  0  0
  -22.5870  -12.0360   22.4210 H   0  0  0  0  0  0  0  0  0  0  0  0
  -21.2680  -13.1540   22.2240 H   0  0  0  0  0  0  0  0  0  0  0  0
  -25.4710  -15.2480   20.2090 N   0  0  0  0  0  0  0  0  0  0  0  0
  -24.6890  -15.8810   20.3360 H   0  0  0  0  0  0  0  0  0  0  0  0
  -26.3050  -15.7070   19.8720 H   0  0  0  0  0  0  0  0  0  0  0  0
  -29.1350  -23.5250   20.4650 C   0  0  0  0  0  3  0  0  0  0  0  0
  -28.1110  -24.7940   20.0700 C   0  0  0  0  0  3  0  0  0  0  0  0
  -28.3190  -26.2990   20.3780 O   0  0  0  0  0  0  0  0  0  0  0  0
  -24.6550  -31.9500   23.3220 C   0  0  0  0  0  0  0  0  0  0  0  0
  -27.2480  -27.2550   20.3000 C   0  0  0  0  0  0  0  0  0  0  0  0
  -23.4590  -30.5570   21.6760 C   0  0  0  0  0  3  0  0  0  0  0  0
  -24.9110  -28.9810   20.2580 C   0  0  0  0  0  0  0  0  0  0  0  0
  -26.0120  -30.8230   21.5210 C   0  0  0  0  0  2  0  0  0  0  0  0
  -26.0850  -29.4340   20.8720 C   0  0  0  0  0  0  0  0  0  0  0  0
  -27.2540  -28.5860   20.8770 C   0  0  0  0  0  3  0  0  0  0  0  0
  -26.0450  -26.8980   19.6490 C   0  0  0  0  0  3  0  0  0  0  0  0
  -24.9010  -27.7250   19.6320 C   0  0  0  0  0  3  0  0  0  0  0  0
  -23.6840  -29.8780   20.2990 C   0  0  0  0  0  2  0  0  0  0  0  0
  -24.7280  -31.1310   22.2280 N   0  0  0  0  0  0  0  0  0  0  0  0
  -23.5670  -32.2380   23.8450 O   0  0  0  0  0  0  0  0  0  0  0  0
  -22.7740  -29.5530   22.6360 C   0  0  0  0  0  0  0  0  0  0  0  0
  -21.4470  -29.3770   22.4930 N   0  0  0  0  0  0  0  0  0  0  0  0
  -23.4370  -28.9330   23.4710 O   0  0  0  0  0  0  0  0  0  0  0  0
  -20.9680  -29.9290   21.7950 H   0  0  0  0  0  0  0  0  0  0  0  0
  -18.0650  -28.1680   22.9550 C   0  0  0  0  0  0  0  0  0  0  0  0
  -20.6180  -28.4430   23.2580 C   0  0  0  0  0  3  0  0  0  0  0  0
  -20.7350  -27.0060   22.6970 C   0  0  0  0  0  2  0  0  0  0  0  0
  -19.6490  -26.6700   21.6690 C   0  0  0  0  0  2  0  0  0  0  0  0
  -18.2580  -26.8140   22.2910 C   0  0  0  0  0  2  0  0  0  0  0  0
  -19.1740  -28.9380   23.3950 C   0  0  0  0  0  0  0  0  0  0  0  0
  -18.9400  -30.2030   23.9760 C   0  0  0  0  0  3  0  0  0  0  0  0
  -17.6290  -30.6980   24.1220 C   0  0  0  0  0  3  0  0  0  0  0  0
  -16.5360  -29.9250   23.6970 C   0  0  0  0  0  3  0  0  0  0  0  0
  -16.7540  -28.6610   23.1190 C   0  0  0  0  0  3  0  0  0  0  0  0
  -25.9330  -32.5810   23.9560 C   0  0  0  0  0  3  0  0  0  0  0  0
  -25.6300  -33.9870   24.2690 N   0  0  0  0  0  0  0  0  0  0  0  0
  -25.9570  -35.0300   23.4940 C   0  0  0  0  0  0  0  0  0  0  0  0
  -26.6130  -34.9110   22.4550 O   0  0  0  0  0  0  0  0  0  0  0  0
  -25.0470  -34.1530   25.0760 H   0  0  0  0  0  0  0  0  0  0  0  0
  -24.2190  -36.8200   23.1620 C   0  0  0  0  0  1  0  0  0  0  0  0
  -25.4840  -36.4280   23.9430 C   0  0  0  0  0  3  0  0  0  0  0  0
  -27.6400  -37.3320   24.6980 C   0  0  0  0  0  1  0  0  0  0  0  0
  -26.5130  -37.4780   23.7800 N   0  0  0  0  0  0  0  0  0  0  0  0
  -26.1100  -38.4010   23.9170 H   0  0  0  0  0  0  0  0  0  0  0  0
  -26.4230  -31.8210   25.2500 C   0  0  1  0  0  0  0  0  0  0  0  0
  -25.3110  -31.6070   26.3040 C   0  0  0  0  0  1  0  0  0  0  0  0
  -26.9990  -30.4340   24.8890 C   0  0  0  0  0  1  0  0  0  0  0  0
  -27.5700  -32.6150   25.9190 C   0  0  0  0  0  1  0  0  0  0  0  0
  2  5  2  0
  3  7  1  0
  3  1  2  0
  4  3  1  0
  5  1  1  0
  5 49  1  0
  6  4  2  0
  6  2  1  0
  8  9  1  0
  8  4  1  0
  9 10  1  0
 10  7  1  0
 10 12  1  1
 11  6  1  0
 13 19  1  0
 13 10  1  0
 14 19  1  0
 15 16  1  0
 15 14  1  0
 17 16  1  0
 17 24  1  0
 17 18  1  0
 19 18  1  0
 20 13  2  0
 21 22  2  0
 22 41  1  0
 23 22  1  0
 23 26  1  0
 24 21  1  0
 24 25  1  0
 25 23  2  0
 26 27  1  0
 27 28  2  0
 29 32  1  0
 29 28  1  0
 30 29  2  0
 31 30  1  0
 31 26  2  0
 32 33  1  0
 33 34  1  0
 34 35  2  0
 36 35  1  0
 36 40  1  0
 37 36  2  0
 38 33  2  0
 38 37  1  0
 39 38  1  0
 41 42  1  0
 42 45  1  0
 42 44  1  0
 43 41  2  0
 46 47  1  0
 46 21  1  0
 48 46  1  0
 50 51  1  0
 50 49  2  0
 52 63  2  0
 53 51  1  0
 53 58  1  0
 54 62  1  0
 54 64  1  0
 55 61  1  0
 55 57  1  0
 56 62  1  0
 57 58  2  0
 57 56  1  0
 59 53  2  0
 60 59  1  0
 60 55  2  0
 61 54  1  0
 62 52  1  0
 64 66  2  0
 65 64  1  0
 67 65  1  0
 68 77  2  0
 68 73  1  0
 69 65  1  0
 69 73  1  0
 70 69  1  0
 71 72  1  0
 71 70  1  0
 72 68  1  0
 73 74  2  0
 74 75  1  0
 76 75  2  0
 77 76  1  0
 78 52  1  0
 78 79  1  0
 78 88  1  0
 79 82  1  0
 80 84  1  0
 80 79  1  0
 81 80  2  0
 84 83  1  0
 86 87  1  0
 86 84  1  0
 86 85  1  0
 88 91  1  1
 88 89  1  0
 90 88  1  0
M  ISO  4  10 100  13 100  50 101  51 101
M  END
>  <TORSDO>  (2) 
F 18

>  <SCORE>  (2) 
-14.437

>  <name>  (2) 
1

>  <ligand_id>  (2) 
1

>  <original_smiles>  (2) 
[H]c1c([H])c([H])c2c(c1[H])C([H])([H])C([H])([H])C([H])([H])C2([H])N([H])C(=O)C1([H])N(C(=O)C([H])(N([H])C(=O)C([H])(N([H])C([H])([H])[H])C([H])([H])[H])C(C([H])([H])[H])(C([H])([H])[H])C([H])([H])[H])C([H])([H])c2c([H])c(OC([H])([H])C([H])([H])c3c([H])c(C([H])([H])[H])c4c(c3[H])C([H])([H])C(C(=O)N3C([H])([H])C([H])([H])C([H])([H])C([H])(n5nc(-c6c([H])c([H])c(Oc7c([H])c([H])c(F)c([H])c7F)c([H])c6[H])c(C(=O)N([H])[H])c5N([H])[H])C3([H])[H])(C([H])([H])[H])C([H])([H])C4([H])[H])c([H])c([H])c2C1([H])[H]

>  <smiles>  (2) 
[H]c1c([H])c([H])c2c(c1[H])C([H])([H])C([H])([H])C([H])([H])C2([H])N([H])C(=O)C1([H])N(C(=O)C([H])(N([H])C(=O)C([H])(N([H])C([H])([H])[H])C([H])([H])[H])C(C([H])([H])[H])(C([H])([H])[H])C([H])([H])[H])C([H])([H])c2c([H])c(OC([H])([H])C([H])([H])c3c([H])c(C([H])([H])[H])c4c(c3[H])C([H])([H])C(C(=O)N3C([H])([H])C([H])([H])C([H])([H])C([H])(n5nc(-c6c([H])c([H])c(Oc7c([H])c([H])c(F)c([H])c7F)c([H])c6[H])c(C(=O)N([H])[H])c5N([H])[H])C3([H])[H])(C([H])([H])[H])C([H])([H])C4([H])[H])c([H])c([H])c2C1([H])[H]

$$$$
2:0:0
     RDKit          3D

 91 99  0  0  1  0  0  0  0  0999 V2000
  -26.0940  -23.5130   22.7990 C   0  0  0  0  0  3  0  0  0  0  0  0
  -26.9110  -22.9130   21.8310 C   0  0  0  0  0  3  0  0  0  0  0  0
  -26.7320  -25.6570   21.9470 C   0  0  0  0  0  3  0  0  0  0  0  0
  -25.9930  -24.8980   22.8650 C   0  0  0  0  0  0  0  0  0  0  0  0
  -27.6910  -23.6080   20.8580 C   0  0  0  0  0  0  0  0  0  0  0  0
  -27.5190  -25.1370   20.8620 C   0  0  0  0  0  0  0  0  0  0  0  0
  -25.0550  -25.5810   23.8590 C   0  0  0  0  0  1  0  0  0  0  0  0
  -27.9430  -26.2740   20.0270 O   0  0  0  0  0  0  0  0  0  0  0  0
  -24.6200  -31.9860   23.1800 C   0  0  0  0  0  0  0  0  0  0  0  0
  -27.0520  -27.4010   19.8890 C   0  0  0  0  0  0  0  0  0  0  0  0
  -23.3770  -30.6910   21.4890 C   0  0  0  0  0  3  0  0  0  0  0  0
  -24.7810  -29.1850   19.9480 C   0  0  0  0  0  0  0  0  0  0  0  0
  -25.9280  -30.9360   21.3000 C   0  0  0  0  0  2  0  0  0  0  0  0
  -25.9700  -29.5800   20.5770 C   0  0  0  0  0  0  0  0  0  0  0  0
  -27.1100  -28.6940   20.5500 C   0  0  0  0  0  3  0  0  0  0  0  0
  -25.8720  -27.1380   19.1730 C   0  0  0  0  0  3  0  0  0  0  0  0
  -24.7440  -27.9810   19.2240 C   0  0  0  0  0  3  0  0  0  0  0  0
  -23.5660  -30.0880   20.0690 C   0  0  0  0  0  2  0  0  0  0  0  0
  -24.6660  -31.2220   22.0470 N   0  0  0  0  0  0  0  0  0  0  0  0
  -23.5460  -32.2550   23.7410 O   0  0  0  0  0  0  0  0  0  0  0  0
  -22.7080  -29.6410   22.4140 C   0  0  0  0  0  0  0  0  0  0  0  0
  -21.3830  -29.4630   22.2780 N   0  0  0  0  0  0  0  0  0  0  0  0
  -23.3830  -28.9900   23.2160 O   0  0  0  0  0  0  0  0  0  0  0  0
  -20.8980  -30.0470   21.6110 H   0  0  0  0  0  0  0  0  0  0  0  0
  -18.0100  -28.1950   22.6960 C   0  0  0  0  0  0  0  0  0  0  0  0
  -20.5630  -28.4920   23.0090 C   0  0  0  0  0  3  0  0  0  0  0  0
  -20.6970  -27.0740   22.4000 C   0  0  0  0  0  2  0  0  0  0  0  0
  -19.6140  -26.7610   21.3640 C   0  0  0  0  0  2  0  0  0  0  0  0
  -18.2210  -26.8680   21.9870 C   0  0  0  0  0  2  0  0  0  0  0  0
  -19.1120  -28.9650   23.1600 C   0  0  0  0  0  0  0  0  0  0  0  0
  -18.8610  -30.2090   23.7780 C   0  0  0  0  0  3  0  0  0  0  0  0
  -17.5440  -30.6800   23.9460 C   0  0  0  0  0  3  0  0  0  0  0  0
  -16.4590  -29.9070   23.4910 C   0  0  0  0  0  3  0  0  0  0  0  0
  -16.6930  -28.6670   22.8700 C   0  0  0  0  0  3  0  0  0  0  0  0
  -25.9160  -32.5780   23.8160 C   0  0  0  0  0  3  0  0  0  0  0  0
  -26.4170  -31.7590   25.0710 C   0  0  1  0  0  0  0  0  0  0  0  0
  -25.3220  -31.5120   26.1370 C   0  0  0  0  0  1  0  0  0  0  0  0
  -26.9690  -30.3800   24.6430 C   0  0  0  0  0  1  0  0  0  0  0  0
  -27.5810  -32.5120   25.7550 C   0  0  0  0  0  1  0  0  0  0  0  0
  -25.6390  -33.9700   24.1940 N   0  0  0  0  0  0  0  0  0  0  0  0
  -25.9850  -35.0440   23.4710 C   0  0  0  0  0  0  0  0  0  0  0  0
  -26.6460  -34.9610   22.4330 O   0  0  0  0  0  0  0  0  0  0  0  0
  -25.0680  -34.1100   25.0150 H   0  0  0  0  0  0  0  0  0  0  0  0
  -24.2970  -36.8950   23.1890 C   0  0  0  0  0  1  0  0  0  0  0  0
  -25.5310  -36.4280   23.9790 C   0  0  0  0  0  3  0  0  0  0  0  0
  -27.6840  -37.2430   24.8290 C   0  0  0  0  0  1  0  0  0  0  0  0
  -26.5830  -37.4650   23.8980 N   0  0  0  0  0  0  0  0  0  0  0  0
  -26.1940  -38.3870   24.0780 H   0  0  0  0  0  0  0  0  0  0  0  0
  -28.4850  -22.4650   19.9630 C   0  0  0  0  0  2  0  0  0  0  0  0
  -29.0790  -20.9650   20.5860 C   0  0  0  0  0  3  0  0  0  0  0  0
  -29.1250  -19.3800   19.9280 C   0  0  0  0  0  3  0  0  0  0  0  0
  -31.3160  -18.3400   21.0220 C   0  0  0  0  0  1  0  0  0  0  0  0
  -29.8690  -18.0130   20.6520 C   0  0  0  0  0  0  0  0  0  0  0  0
  -30.6370  -15.3140   20.2120 C   0  0  0  0  0  0  0  0  0  0  0  0
  -30.6460  -12.9250   19.3220 C   0  0  0  0  0  2  0  0  0  0  0  0
  -29.7230  -12.8120   18.0850 C   0  0  0  0  0  2  0  0  0  0  0  0
  -28.2560  -12.5780   18.5070 C   0  0  0  0  0  2  0  0  0  0  0  0
  -27.8250  -13.5050   19.6800 C   0  0  0  0  0  3  0  0  0  0  0  0
  -28.8760  -13.5710   20.8040 C   0  0  0  0  0  2  0  0  0  0  0  0
  -30.1120  -14.0260   20.1740 N   0  0  0  0  0  0  0  0  0  0  0  0
  -31.8590  -15.4090   20.0420 O   0  0  0  0  0  0  0  0  0  0  0  0
  -29.7710  -16.4670   20.2340 N   0  0  0  0  0  4  0  0  0  0  0  0
  -28.8140  -16.1860   20.0640 H   0  0  0  0  0  0  0  0  0  0  0  0
  -25.4560  -14.0510   20.4580 C   0  0  0  0  0  0  0  0  0  0  0  0
  -24.4030  -13.2640   20.8290 C   0  0  0  0  0  0  0  0  0  0  0  0
  -24.8800  -11.9190   20.7820 C   0  0  0  0  0  0  0  0  0  0  0  0
  -26.5030  -13.1830   20.1950 N   0  0  0  0  0  0  0  0  0  0  0  0
  -26.1700  -11.8940   20.4570 N   0  0  0  0  0  0  0  0  0  0  0  0
  -24.1660  -10.6500   20.9620 C   0  0  0  0  0  0  0  0  0  0  0  0
  -24.5820   -9.6960   21.9190 C   0  0  0  0  0  3  0  0  0  0  0  0
  -23.8680   -8.4900   22.0850 C   0  0  0  0  0  3  0  0  0  0  0  0
  -22.7240   -8.2290   21.2960 C   0  0  0  0  0  0  0  0  0  0  0  0
  -22.3280   -9.1710   20.3310 C   0  0  0  0  0  3  0  0  0  0  0  0
  -23.0400  -10.3690   20.1600 C   0  0  0  0  0  3  0  0  0  0  0  0
  -21.9740   -7.0810   21.3770 O   0  0  0  0  0  0  0  0  0  0  0  0
  -21.8680   -6.3690   22.5460 C   0  0  0  0  0  0  0  0  0  0  0  0
  -21.3470   -6.9490   23.7240 C   0  0  0  0  0  3  0  0  0  0  0  0
  -21.1870   -6.1640   24.8850 C   0  0  0  0  0  3  0  0  0  0  0  0
  -21.5370   -4.7990   24.8660 C   0  0  0  0  0  0  0  0  0  0  0  0
  -22.0480   -4.2190   23.6920 C   0  0  0  0  0  3  0  0  0  0  0  0
  -22.2110   -5.0020   22.5350 C   0  0  0  0  0  0  0  0  0  0  0  0
  -22.6820   -4.4310   21.3990 F   0  0  0  0  0  0  0  0  0  0  0  0
  -21.3790   -4.0420   25.9770 F   0  0  0  0  0  0  0  0  0  0  0  0
  -23.0020  -13.7260   21.1070 C   0  0  0  0  0  0  0  0  0  0  0  0
  -22.2840  -13.0240   21.9760 N   0  0  0  0  0  0  0  0  0  0  0  0
  -22.5510  -14.7480   20.5920 O   0  0  0  0  0  0  0  0  0  0  0  0
  -22.6630  -12.2000   22.4200 H   0  0  0  0  0  0  0  0  0  0  0  0
  -21.3380  -13.3110   22.1900 H   0  0  0  0  0  0  0  0  0  0  0  0
  -25.6040  -15.4250   20.2860 N   0  0  0  0  0  0  0  0  0  0  0  0
  -24.8330  -16.0720   20.4060 H   0  0  0  0  0  0  0  0  0  0  0  0
  -26.4170  -15.8670   19.8770 H   0  0  0  0  0  0  0  0  0  0  0  0
  1  4  1  0
  2  1  2  0
  3  4  2  0
  4  7  1  0
  5  6  2  0
  5  2  1  0
  6  3  1  0
  8  6  1  0
  9 20  2  0
 10  8  1  0
 10 15  1  0
 11 19  1  0
 11 21  1  0
 12 18  1  0
 12 14  1  0
 13 19  1  0
 14 13  1  0
 15 14  2  0
 16 17  1  0
 16 10  2  0
 17 12  2  0
 18 11  1  0
 19  9  1  0
 21 23  2  0
 22 21  1  0
 24 22  1  0
 25 34  2  0
 25 30  1  0
 26 22  1  0
 26 30  1  0
 27 26  1  0
 28 29  1  0
 28 27  1  0
 29 25  1  0
 30 31  2  0
 31 32  1  0
 33 32  2  0
 34 33  1  0
 35  9  1  0
 35 40  1  0
 35 36  1  0
 36 39  1  1
 36 37  1  0
 38 36  1  0
 40 43  1  0
 41 45  1  0
 41 40  1  0
 42 41  2  0
 45 44  1  0
 47 45  1  0
 47 48  1  0
 47 46  1  0
 49 50  1  0
 49  5  1  0
 51 50  2  0
 51 53  1  0
 53 52  1  0
 54 62  1  0
 55 60  1  0
 56 57  1  0
 56 55  1  0
 58 57  1  0
 58 67  1  0
 58 59  1  0
 60 54  1  0
 60 59  1  0
 61 54  2  0
 62 53  2  0
 63 62  1  0
 64 65  2  0
 65 84  1  0
 66 65  1  0
 66 69  1  0
 67 68  1  0
 67 64  1  0
 68 66  2  0
 69 70  1  0
 70 71  2  0
 72 75  1  0
 72 71  1  0
 73 72  2  0
 74 73  1  0
 74 69  2  0
 75 76  1  0
 76 77  1  0
 77 78  2  0
 79 78  1  0
 79 83  1  0
 80 79  2  0
 81 76  2  0
 81 80  1  0
 82 81  1  0
 84 85  1  0
 85 88  1  0
 85 87  1  0
 86 84  2  0
 89 90  1  0
 89 64  1  0
 91 89  1  0
M  ISO  4   6 101   8 101  54 100  62 100
M  END
>  <TORSDO>  (3) 
F 20

>  <SCORE>  (3) 
-13.839

>  <name>  (3) 
2

>  <ligand_id>  (3) 
2

>  <original_smiles>  (3) 
[H]c1c([H])c([H])c2c(c1[H])C([H])([H])C([H])([H])C([H])([H])C2([H])N([H])C(=O)C1([H])N(C(=O)C([H])(N([H])C(=O)C([H])(N([H])C([H])([H])[H])C([H])([H])[H])C(C([H])([H])[H])(C([H])([H])[H])C([H])([H])[H])C([H])([H])c2c([H])c(Oc3c([H])c(C([H])([H])[H])c([H])c([H])c3C([H])([H])C([H])([H])C([H])([H])C([H])(N([H])C(=O)N3C([H])([H])C([H])([H])C([H])([H])C([H])(n4nc(-c5c([H])c([H])c(Oc6c([H])c([H])c(F)c([H])c6F)c([H])c5[H])c(C(=O)N([H])[H])c4N([H])[H])C3([H])[H])C([H])([H])[H])c([H])c([H])c2C1([H])[H]

>  <smiles>  (3) 
[H]c1c([H])c([H])c2c(c1[H])C([H])([H])C([H])([H])C([H])([H])C2([H])N([H])C(=O)C1([H])N(C(=O)C([H])(N([H])C(=O)C([H])(N([H])C([H])([H])[H])C([H])([H])[H])C(C([H])([H])[H])(C([H])([H])[H])C([H])([H])[H])C([H])([H])c2c([H])c(Oc3c([H])c(C([H])([H])[H])c([H])c([H])c3C([H])([H])C([H])([H])C([H])([H])C([H])(N([H])C(=O)N3C([H])([H])C([H])([H])C([H])([H])C([H])(n4nc(-c5c([H])c([H])c(Oc6c([H])c([H])c(F)c([H])c6F)c([H])c5[H])c(C(=O)N([H])[H])c4N([H])[H])C3([H])[H])C([H])([H])[H])c([H])c([H])c2C1([H])[H]

$$$$
3:0:0
     RDKit          3D

 94103  0  0  1  0  0  0  0  0999 V2000
  -27.7110  -21.7020   20.1660 C   0  0  0  0  0  3  0  0  0  0  0  0
  -29.1990  -23.4540   19.4530 C   0  0  0  0  0  3  0  0  0  0  0  0
  -27.0760  -24.1410   20.3260 C   0  0  0  0  0  3  0  0  0  0  0  0
  -29.0000  -21.9120   19.6340 C   0  0  0  0  0  0  0  0  0  0  0  0
  -26.8120  -22.7530   20.5150 C   0  0  0  0  0  0  0  0  0  0  0  0
  -28.2620  -24.6610   19.7550 C   0  0  0  0  0  0  0  0  0  0  0  0
  -25.4990  -22.3830   21.1820 C   0  0  0  0  0  1  0  0  0  0  0  0
  -32.5780  -22.0600   19.8730 C   0  0  0  0  0  0  0  0  0  0  0  0
  -31.6670  -21.7590   21.0610 C   0  0  0  0  0  2  0  0  0  0  0  0
  -32.0310  -21.8100   18.4680 C   0  0  0  0  0  2  0  0  0  0  0  0
  -30.8470  -20.4700   20.8500 C   0  0  0  0  0  2  0  0  0  0  0  0
  -31.0380  -20.6310   18.3860 C   0  0  0  0  0  2  0  0  0  0  0  0
  -30.0200  -20.4450   19.5440 C   0  0  2  0  0  0  0  0  0  0  0  0
  -33.7030  -22.5330   20.0390 O   0  0  0  0  0  0  0  0  0  0  0  0
  -29.5840  -18.6720   19.3180 C   0  0  0  0  0  2  0  0  0  0  0  0
  -30.7470  -15.8620   19.6890 C   0  0  0  0  0  0  0  0  0  0  0  0
  -30.7750  -13.3350   18.9820 C   0  0  0  0  0  2  0  0  0  0  0  0
  -29.8110  -12.9990   17.8100 C   0  0  0  0  0  2  0  0  0  0  0  0
  -28.3900  -12.7120   18.3240 C   0  0  0  0  0  2  0  0  0  0  0  0
  -27.9650  -13.7190   19.4200 C   0  0  0  0  0  3  0  0  0  0  0  0
  -29.0640  -13.9510   20.4830 C   0  0  0  0  0  2  0  0  0  0  0  0
  -30.2380  -14.5140   19.7790 N   0  0  0  0  0  0  0  0  0  0  0  0
  -31.8920  -15.8680   19.2080 O   0  0  0  0  0  0  0  0  0  0  0  0
  -29.3940  -17.1350   21.3090 C   0  0  0  0  0  1  0  0  0  0  0  0
  -30.0150  -17.1560   19.9830 N   0  0  0  0  0  0  0  0  0  0  0  0
  -25.6690  -14.2690   20.3730 C   0  0  0  0  0  0  0  0  0  0  0  0
  -24.6240  -13.4920   20.7860 C   0  0  0  0  0  0  0  0  0  0  0  0
  -25.0620  -12.1380   20.6540 C   0  0  0  0  0  0  0  0  0  0  0  0
  -26.6740  -13.3910   20.0080 N   0  0  0  0  0  0  0  0  0  0  0  0
  -26.3250  -12.0990   20.2410 N   0  0  0  0  0  0  0  0  0  0  0  0
  -24.3240  -10.8800   20.8390 C   0  0  0  0  0  0  0  0  0  0  0  0
  -24.7120   -9.9310   21.8090 C   0  0  0  0  0  3  0  0  0  0  0  0
  -23.9720   -8.7410   21.9840 C   0  0  0  0  0  3  0  0  0  0  0  0
  -22.8300   -8.4900   21.1860 C   0  0  0  0  0  0  0  0  0  0  0  0
  -22.4630   -9.4270   20.2050 C   0  0  0  0  0  3  0  0  0  0  0  0
  -23.2030  -10.6080   20.0280 C   0  0  0  0  0  3  0  0  0  0  0  0
  -22.0670   -7.3500   21.2660 O   0  0  0  0  0  0  0  0  0  0  0  0
  -21.8610   -6.7030   22.4590 C   0  0  0  0  0  0  0  0  0  0  0  0
  -21.2270   -7.3360   23.5510 C   0  0  0  0  0  3  0  0  0  0  0  0
  -20.9720   -6.6140   24.7330 C   0  0  0  0  0  3  0  0  0  0  0  0
  -21.3420   -5.2580   24.8230 C   0  0  0  0  0  0  0  0  0  0  0  0
  -21.9680   -4.6240   23.7360 C   0  0  0  0  0  3  0  0  0  0  0  0
  -22.2250   -5.3460   22.5570 C   0  0  0  0  0  0  0  0  0  0  0  0
  -22.8090   -4.7240   21.5040 F   0  0  0  0  0  0  0  0  0  0  0  0
  -21.0920   -4.5610   25.9560 F   0  0  0  0  0  0  0  0  0  0  0  0
  -23.2610  -13.9780   21.1830 C   0  0  0  0  0  0  0  0  0  0  0  0
  -22.5910  -13.2630   22.0790 N   0  0  0  0  0  0  0  0  0  0  0  0
  -22.8020  -15.0290   20.7340 O   0  0  0  0  0  0  0  0  0  0  0  0
  -22.9770  -12.4150   22.4660 H   0  0  0  0  0  0  0  0  0  0  0  0
  -21.6750  -13.5660   22.3810 H   0  0  0  0  0  0  0  0  0  0  0  0
  -25.8380  -15.6450   20.2480 N   0  0  0  0  0  0  0  0  0  0  0  0
  -25.0780  -16.2920   20.4270 H   0  0  0  0  0  0  0  0  0  0  0  0
  -26.6630  -16.0950   19.8750 H   0  0  0  0  0  0  0  0  0  0  0  0
  -28.3870  -26.2100   19.6400 O   0  0  0  0  0  0  0  0  0  0  0  0
  -24.7650  -31.8870   23.2050 C   0  0  0  0  0  0  0  0  0  0  0  0
  -27.3570  -27.3100   19.7280 C   0  0  0  0  0  0  0  0  0  0  0  0
  -23.5710  -30.6210   21.4640 C   0  0  0  0  0  3  0  0  0  0  0  0
  -25.0270  -29.1720   19.8820 C   0  0  0  0  0  0  0  0  0  0  0  0
  -26.1310  -30.8770   21.3090 C   0  0  0  0  0  2  0  0  0  0  0  0
  -26.2150  -29.5270   20.5330 C   0  0  0  0  0  0  0  0  0  0  0  0
  -27.3700  -28.6160   20.4410 C   0  0  0  0  0  3  0  0  0  0  0  0
  -26.1470  -27.1460   19.0140 C   0  0  0  0  0  3  0  0  0  0  0  0
  -25.0180  -28.0030   19.1060 C   0  0  0  0  0  3  0  0  0  0  0  0
  -23.7940  -30.0660   20.0300 C   0  0  0  0  0  2  0  0  0  0  0  0
  -24.8440  -31.1550   22.0470 N   0  0  0  0  0  0  0  0  0  0  0  0
  -23.6790  -32.1090   23.7650 O   0  0  0  0  0  0  0  0  0  0  0  0
  -22.9070  -29.5310   22.3470 C   0  0  0  0  0  0  0  0  0  0  0  0
  -21.5870  -29.3180   22.1890 N   0  0  0  0  0  0  0  0  0  0  0  0
  -23.5890  -28.8820   23.1450 O   0  0  0  0  0  0  0  0  0  0  0  0
  -21.0870  -29.8980   21.5300 H   0  0  0  0  0  0  0  0  0  0  0  0
  -18.2520  -27.9430   22.5900 C   0  0  0  0  0  0  0  0  0  0  0  0
  -20.8000  -28.2900   22.8810 C   0  0  0  0  0  3  0  0  0  0  0  0
  -20.9570  -26.9120   22.1960 C   0  0  0  0  0  2  0  0  0  0  0  0
  -19.8690  -26.6280   21.1550 C   0  0  0  0  0  2  0  0  0  0  0  0
  -18.4830  -26.6630   21.8050 C   0  0  0  0  0  2  0  0  0  0  0  0
  -19.3380  -28.7150   23.0820 C   0  0  0  0  0  0  0  0  0  0  0  0
  -19.0660  -29.9110   23.7810 C   0  0  0  0  0  3  0  0  0  0  0  0
  -17.7400  -30.3390   23.9880 C   0  0  0  0  0  3  0  0  0  0  0  0
  -16.6690  -29.5640   23.5100 C   0  0  0  0  0  3  0  0  0  0  0  0
  -16.9260  -28.3680   22.8170 C   0  0  0  0  0  3  0  0  0  0  0  0
  -26.0330  -32.4950   23.8750 C   0  0  0  0  0  3  0  0  0  0  0  0
  -25.7110  -33.8730   24.2890 N   0  0  0  0  0  0  0  0  0  0  0  0
  -26.0030  -34.9750   23.5840 C   0  0  0  0  0  0  0  0  0  0  0  0
  -26.6330  -34.9390   22.5250 O   0  0  0  0  0  0  0  0  0  0  0  0
  -25.1440  -33.9740   25.1170 H   0  0  0  0  0  0  0  0  0  0  0  0
  -24.2420  -36.7700   23.4160 C   0  0  0  0  0  1  0  0  0  0  0  0
  -25.5250  -36.3320   24.1420 C   0  0  0  0  0  3  0  0  0  0  0  0
  -27.6750  -37.2170   24.9360 C   0  0  0  0  0  1  0  0  0  0  0  0
  -26.5390  -37.4050   24.0390 N   0  0  0  0  0  0  0  0  0  0  0  0
  -26.1240  -38.3110   24.2370 H   0  0  0  0  0  0  0  0  0  0  0  0
  -26.5380  -31.6610   25.1190 C   0  0  1  0  0  0  0  0  0  0  0  0
  -25.4350  -31.3690   26.1640 C   0  0  0  0  0  1  0  0  0  0  0  0
  -27.1270  -30.3030   24.6760 C   0  0  0  0  0  1  0  0  0  0  0  0
  -27.6790  -32.4240   25.8330 C   0  0  0  0  0  1  0  0  0  0  0  0
  1  5  1  0
  2  4  1  0
  2  6  2  0
  3  5  2  0
  4  1  2  0
  5  7  1  0
  6  3  1  0
  8 14  2  0
  8  9  1  0
 10  8  1  0
 11  9  1  0
 12 10  1  0
 12 13  1  0
 13  4  1  0
 13 11  1  0
 13 15  1  6
 15 25  1  0
 16 22  1  0
 16 25  1  0
 17 22  1  0
 18 19  1  0
 18 17  1  0
 20 19  1  0
 20 29  1  0
 20 21  1  0
 22 21  1  0
 23 16  2  0
 25 24  1  0
 26 27  2  0
 27 46  1  0
 28 27  1  0
 28 31  1  0
 29 30  1  0
 29 26  1  0
 30 28  2  0
 31 32  1  0
 32 33  2  0
 34 37  1  0
 34 33  1  0
 35 34  2  0
 36 35  1  0
 36 31  2  0
 37 38  1  0
 38 43  2  0
 38 39  1  0
 39 40  2  0
 40 41  1  0
 41 45  1  0
 42 41  2  0
 43 42  1  0
 44 43  1  0
 46 47  1  0
 47 50  1  0
 47 49  1  0
 48 46  2  0
 51 26  1  0
 51 52  1  0
 53 51  1  0
 54 56  1  0
 54  6  1  0
 55 66  2  0
 56 61  1  0
 57 65  1  0
 57 67  1  0
 58 64  1  0
 58 60  1  0
 59 65  1  0
 60 59  1  0
 61 60  2  0
 62 63  1  0
 62 56  2  0
 63 58  2  0
 64 57  1  0
 65 55  1  0
 67 69  2  0
 68 67  1  0
 70 68  1  0
 71 80  2  0
 71 76  1  0
 72 68  1  0
 72 76  1  0
 73 72  1  0
 74 75  1  0
 74 73  1  0
 75 71  1  0
 76 77  2  0
 77 78  1  0
 79 78  2  0
 80 79  1  0
 81 55  1  0
 81 82  1  0
 81 91  1  0
 82 85  1  0
 83 87  1  0
 83 82  1  0
 84 83  2  0
 87 86  1  0
 89 87  1  0
 89 90  1  0
 89 88  1  0
 91 94  1  1
 91 92  1  0
 93 91  1  0
M  ISO  4   6 101  16 100  25 100  54 101
M  END
>  <TORSDO>  (4) 
F 18

>  <SCORE>  (4) 
-13.671

>  <name>  (4) 
3

>  <ligand_id>  (4) 
3

>  <original_smiles>  (4) 
[H]c1c([H])c([H])c2c(c1[H])C([H])([H])C([H])([H])C([H])([H])C2([H])N([H])C(=O)C1([H])N(C(=O)C([H])(N([H])C(=O)C([H])(N([H])C([H])([H])[H])C([H])([H])[H])C(C([H])([H])[H])(C([H])([H])[H])C([H])([H])[H])C([H])([H])c2c([H])c(Oc3c([H])c(C([H])([H])[H])c([H])c(C4(C([H])([H])N(C(=O)N5C([H])([H])C([H])([H])C([H])([H])C([H])(n6nc(-c7c([H])c([H])c(Oc8c([H])c([H])c(F)c([H])c8F)c([H])c7[H])c(C(=O)N([H])[H])c6N([H])[H])C5([H])[H])C([H])([H])[H])C([H])([H])C([H])([H])C(=O)C([H])([H])C4([H])[H])c3[H])c([H])c([H])c2C1([H])[H]

>  <smiles>  (4) 
[H]c1c([H])c([H])c2c(c1[H])C([H])([H])C([H])([H])C([H])([H])C2([H])N([H])C(=O)C1([H])N(C(=O)C([H])(N([H])C(=O)C([H])(N([H])C([H])([H])[H])C([H])([H])[H])C(C([H])([H])[H])(C([H])([H])[H])C([H])([H])[H])C([H])([H])c2c([H])c(Oc3c([H])c(C([H])([H])[H])c([H])c(C4(C([H])([H])N(C(=O)N5C([H])([H])C([H])([H])C([H])([H])C([H])(n6nc(-c7c([H])c([H])c(Oc8c([H])c([H])c(F)c([H])c8F)c([H])c7[H])c(C(=O)N([H])[H])c6N([H])[H])C5([H])[H])C([H])([H])[H])C([H])([H])C([H])([H])C(=O)C([H])([H])C4([H])[H])c3[H])c([H])c([H])c2C1([H])[H]

$$$$
4:0:0
     RDKit          3D

 96105  0  0  1  0  0  0  0  0999 V2000
  -29.7530  -22.7830   18.3800 C   0  0  0  0  0  2  0  0  0  0  0  0
  -28.8450  -25.1650   18.3370 C   0  0  0  0  0  2  0  0  0  0  0  0
  -29.4890  -24.0760   20.5400 C   0  0  0  0  0  2  0  0  0  0  0  0
  -28.8370  -23.7880   17.6410 C   0  0  0  0  0  3  0  0  0  0  0  0
  -29.3880  -22.6630   19.8770 C   0  0  0  0  0  3  0  0  0  0  0  0
  -28.5120  -25.0650   19.8380 C   0  0  0  0  0  3  0  0  0  0  0  0
  -29.2080  -23.9090   16.1550 C   0  0  0  0  0  1  0  0  0  0  0  0
  -30.1870  -21.5830   20.5430 N   0  0  0  0  0  4  0  0  0  0  0  0
  -30.8680  -22.0030   21.1560 H   0  0  0  0  0  0  0  0  0  0  0  0
  -30.7000  -21.0880   19.8330 H   0  0  0  0  0  0  0  0  0  0  0  0
  -29.3760  -20.5770   21.2920 C   0  0  0  0  0  2  0  0  0  0  0  0
  -30.1660  -19.4150   21.9720 C   0  0  0  0  0  2  0  0  0  0  0  0
  -30.1500  -16.5070   19.3850 C   0  0  0  0  0  3  0  0  0  0  0  0
  -29.9670  -17.7940   19.9400 C   0  0  0  0  0  3  0  0  0  0  0  0
  -30.7000  -16.9340   22.0840 C   0  0  0  0  0  3  0  0  0  0  0  0
  -30.6280  -15.4160   20.1550 C   0  0  0  0  0  0  0  0  0  0  0  0
  -30.2710  -18.0320   21.2980 C   0  0  0  0  0  0  0  0  0  0  0  0
  -30.8950  -15.6420   21.5330 C   0  0  0  0  0  0  0  0  0  0  0  0
  -31.4550  -14.5460   22.4290 C   0  0  0  0  0  1  0  0  0  0  0  0
  -31.0440  -14.1530   19.4250 C   0  0  0  0  0  0  0  0  0  0  0  0
  -30.3830  -12.0800   18.2730 C   0  0  0  0  0  2  0  0  0  0  0  0
  -29.3150  -12.4160   17.2130 C   0  0  0  0  0  2  0  0  0  0  0  0
  -27.9080  -12.3520   17.8380 C   0  0  0  0  0  2  0  0  0  0  0  0
  -27.8080  -13.1510   19.1650 C   0  0  0  0  0  3  0  0  0  0  0  0
  -28.9910  -12.8490   20.1110 C   0  0  0  0  0  2  0  0  0  0  0  0
  -30.2430  -13.0530   19.3710 N   0  0  0  0  0  0  0  0  0  0  0  0
  -32.0830  -14.2400   18.7640 O   0  0  0  0  0  0  0  0  0  0  0  0
  -25.5910  -13.8620   20.2530 C   0  0  0  0  0  0  0  0  0  0  0  0
  -24.5320  -13.1390   20.7340 C   0  0  0  0  0  0  0  0  0  0  0  0
  -24.8840  -11.7640   20.5660 C   0  0  0  0  0  0  0  0  0  0  0  0
  -26.5230  -12.9310   19.8250 N   0  0  0  0  0  0  0  0  0  0  0  0
  -26.1090  -11.6600   20.0700 N   0  0  0  0  0  0  0  0  0  0  0  0
  -24.1000  -10.5430   20.7960 C   0  0  0  0  0  0  0  0  0  0  0  0
  -24.5360   -9.5440   21.6930 C   0  0  0  0  0  3  0  0  0  0  0  0
  -23.7560   -8.3870   21.9120 C   0  0  0  0  0  3  0  0  0  0  0  0
  -22.5250   -8.2220   21.2350 C   0  0  0  0  0  0  0  0  0  0  0  0
  -22.1070   -9.2100   20.3250 C   0  0  0  0  0  3  0  0  0  0  0  0
  -22.8860  -10.3570   20.1040 C   0  0  0  0  0  3  0  0  0  0  0  0
  -21.7130   -7.1210   21.3640 O   0  0  0  0  0  0  0  0  0  0  0  0
  -21.6280   -6.4250   22.5420 C   0  0  0  0  0  0  0  0  0  0  0  0
  -21.2430   -7.0460   23.7500 C   0  0  0  0  0  3  0  0  0  0  0  0
  -21.1010   -6.2790   24.9240 C   0  0  0  0  0  3  0  0  0  0  0  0
  -21.3350   -4.8900   24.8900 C   0  0  0  0  0  0  0  0  0  0  0  0
  -21.7130   -4.2690   23.6870 C   0  0  0  0  0  3  0  0  0  0  0  0
  -21.8570   -5.0340   22.5160 C   0  0  0  0  0  0  0  0  0  0  0  0
  -22.2010   -4.4260   21.3550 F   0  0  0  0  0  0  0  0  0  0  0  0
  -21.1910   -4.1510   26.0150 F   0  0  0  0  0  0  0  0  0  0  0  0
  -23.2280  -13.6890   21.2340 C   0  0  0  0  0  0  0  0  0  0  0  0
  -22.6150  -13.0220   22.2060 N   0  0  0  0  0  0  0  0  0  0  0  0
  -22.7700  -14.7430   20.7990 O   0  0  0  0  0  0  0  0  0  0  0  0
  -23.0010  -12.1660   22.5750 H   0  0  0  0  0  0  0  0  0  0  0  0
  -21.7440  -13.3710   22.5830 H   0  0  0  0  0  0  0  0  0  0  0  0
  -25.8340  -15.2260   20.1270 N   0  0  0  0  0  0  0  0  0  0  0  0
  -25.1580  -15.9310   20.3940 H   0  0  0  0  0  0  0  0  0  0  0  0
  -26.6890  -15.6180   19.7500 H   0  0  0  0  0  0  0  0  0  0  0  0
  -28.4850  -26.4130   20.3780 O   0  0  0  0  0  0  0  0  0  0  0  0
  -24.6340  -31.7040   23.2170 C   0  0  0  0  0  0  0  0  0  0  0  0
  -27.3310  -27.1850   20.2580 C   0  0  0  0  0  0  0  0  0  0  0  0
  -23.4730  -30.3170   21.5310 C   0  0  0  0  0  3  0  0  0  0  0  0
  -24.9620  -28.7610   20.1630 C   0  0  0  0  0  0  0  0  0  0  0  0
  -26.0150  -30.6280   21.4400 C   0  0  0  0  0  2  0  0  0  0  0  0
  -26.1040  -29.2530   20.8040 C   0  0  0  0  0  0  0  0  0  0  0  0
  -27.2850  -28.4710   20.8570 C   0  0  0  0  0  3  0  0  0  0  0  0
  -26.1690  -26.7380   19.5760 C   0  0  0  0  0  3  0  0  0  0  0  0
  -24.9910  -27.5020   19.5480 C   0  0  0  0  0  3  0  0  0  0  0  0
  -23.7290  -29.6370   20.1600 C   0  0  0  0  0  2  0  0  0  0  0  0
  -24.7230  -30.8990   22.1190 N   0  0  0  0  0  0  0  0  0  0  0  0
  -23.5360  -31.9930   23.7140 O   0  0  0  0  0  0  0  0  0  0  0  0
  -22.7720  -29.3030   22.4650 C   0  0  0  0  0  0  0  0  0  0  0  0
  -21.4450  -29.1670   22.3150 N   0  0  0  0  0  0  0  0  0  0  0  0
  -23.4210  -28.6450   23.2820 O   0  0  0  0  0  0  0  0  0  0  0  0
  -20.9810  -29.7500   21.6320 H   0  0  0  0  0  0  0  0  0  0  0  0
  -18.0190  -28.1120   22.7800 C   0  0  0  0  0  0  0  0  0  0  0  0
  -20.5860  -28.2460   23.0610 C   0  0  0  0  0  3  0  0  0  0  0  0
  -20.6260  -26.8280   22.4470 C   0  0  0  0  0  2  0  0  0  0  0  0
  -19.5130  -26.5800   21.4240 C   0  0  0  0  0  2  0  0  0  0  0  0
  -18.1360  -26.7750   22.0680 C   0  0  0  0  0  2  0  0  0  0  0  0
  -19.1720  -28.8100   23.2310 C   0  0  0  0  0  0  0  0  0  0  0  0
  -19.0110  -30.0670   23.8530 C   0  0  0  0  0  3  0  0  0  0  0  0
  -17.7320  -30.6250   24.0290 C   0  0  0  0  0  3  0  0  0  0  0  0
  -16.5940  -29.9230   23.5960 C   0  0  0  0  0  3  0  0  0  0  0  0
  -16.7390  -28.6680   22.9790 C   0  0  0  0  0  3  0  0  0  0  0  0
  -25.9040  -32.3200   23.8820 C   0  0  0  0  0  3  0  0  0  0  0  0
  -26.3600  -31.5520   25.1830 C   0  0  1  0  0  0  0  0  0  0  0  0
  -25.2230  -31.3350   26.2090 C   0  0  0  0  0  1  0  0  0  0  0  0
  -26.9420  -30.1660   24.8230 C   0  0  0  0  0  1  0  0  0  0  0  0
  -27.4900  -32.3390   25.8880 C   0  0  0  0  0  1  0  0  0  0  0  0
  -25.6070  -33.7250   24.1900 N   0  0  0  0  0  0  0  0  0  0  0  0
  -25.9690  -34.7650   23.4280 C   0  0  0  0  0  0  0  0  0  0  0  0
  -26.6660  -34.6420   22.4160 O   0  0  0  0  0  0  0  0  0  0  0  0
  -25.0020  -33.8970   24.9800 H   0  0  0  0  0  0  0  0  0  0  0  0
  -24.2730  -36.5720   23.0100 C   0  0  0  0  0  1  0  0  0  0  0  0
  -25.4850  -36.1620   23.8590 C   0  0  0  0  0  3  0  0  0  0  0  0
  -27.5960  -37.0360   24.7540 C   0  0  0  0  0  1  0  0  0  0  0  0
  -26.5300  -37.2030   23.7700 N   0  0  0  0  0  0  0  0  0  0  0  0
  -26.1270  -38.1270   23.8970 H   0  0  0  0  0  0  0  0  0  0  0  0
  1  5  1  0
  2  6  1  0
  4  7  1  0
  4  2  1  0
  4  1  1  0
  5  3  1  0
  5  8  1  0
  6 56  1  0
  6  3  1  0
  8  9  1  0
  8 11  1  0
 10  8  1  0
 11 12  1  0
 13 14  2  0
 13 16  1  0
 14 17  1  0
 16 18  2  0
 17 12  1  0
 17 15  2  0
 18 15  1  0
 18 19  1  0
 20 16  1  0
 21 26  1  0
 22 23  1  0
 22 21  1  0
 24 23  1  0
 24 31  1  0
 24 25  1  0
 26 20  1  0
 26 25  1  0
 27 20  2  0
 28 29  2  0
 29 48  1  0
 30 29  1  0
 30 33  1  0
 31 32  1  0
 31 28  1  0
 32 30  2  0
 33 34  1  0
 34 35  2  0
 36 39  1  0
 36 35  1  0
 37 36  2  0
 38 37  1  0
 38 33  2  0
 39 40  1  0
 40 41  1  0
 41 42  2  0
 43 42  1  0
 43 47  1  0
 44 43  2  0
 45 40  2  0
 45 44  1  0
 46 45  1  0
 48 49  1  0
 49 51  1  0
 49 52  1  0
 50 48  2  0
 53 28  1  0
 53 54  1  0
 55 53  1  0
 57 68  2  0
 58 56  1  0
 58 63  1  0
 59 67  1  0
 59 69  1  0
 60 62  1  0
 61 67  1  0
 62 63  2  0
 62 61  1  0
 64 58  2  0
 65 64  1  0
 65 60  2  0
 66 60  1  0
 66 59  1  0
 67 57  1  0
 69 71  2  0
 70 69  1  0
 72 70  1  0
 73 82  2  0
 73 78  1  0
 74 70  1  0
 74 78  1  0
 75 74  1  0
 76 77  1  0
 76 75  1  0
 77 73  1  0
 78 79  2  0
 79 80  1  0
 81 80  2  0
 82 81  1  0
 83 57  1  0
 83 88  1  0
 83 84  1  0
 84 87  1  1
 84 85  1  0
 86 84  1  0
 88 91  1  0
 89 93  1  0
 89 88  1  0
 90 89  2  0
 93 92  1  0
 95 93  1  0
 95 96  1  0
 95 94  1  0
M  ISO  4   6 101  16 100  20 100  56 101
M  END
>  <TORSDO>  (5) 
F 20

>  <SCORE>  (5) 
-11.527

>  <name>  (5) 
4

>  <ligand_id>  (5) 
4

>  <original_smiles>  (5) 
[H]c1c([H])c([H])c2c(c1[H])C([H])([H])C([H])([H])C([H])([H])C2([H])N([H])C(=O)C1([H])N(C(=O)C([H])(N([H])C(=O)C([H])(N([H])C([H])([H])[H])C([H])([H])[H])C(C([H])([H])[H])(C([H])([H])[H])C([H])([H])[H])C([H])([H])c2c([H])c(OC3([H])C([H])([H])C([H])(C([H])([H])[H])C([H])([H])C([H])([N+]([H])([H])C([H])([H])C([H])([H])c4c([H])c([H])c(C(=O)N5C([H])([H])C([H])([H])C([H])([H])C([H])(n6nc(-c7c([H])c([H])c(Oc8c([H])c([H])c(F)c([H])c8F)c([H])c7[H])c(C(=O)N([H])[H])c6N([H])[H])C5([H])[H])c(C([H])([H])[H])c4[H])C3([H])[H])c([H])c([H])c2C1([H])[H]

>  <smiles>  (5) 
[H]c1c([H])c([H])c2c(c1[H])C([H])([H])C([H])([H])C([H])([H])C2([H])N([H])C(=O)C1([H])N(C(=O)C([H])(N([H])C(=O)C([H])(N([H])C([H])([H])[H])C([H])([H])[H])C(C([H])([H])[H])(C([H])([H])[H])C([H])([H])[H])C([H])([H])c2c([H])c(OC3([H])C([H])([H])C([H])(C([H])([H])[H])C([H])([H])C([H])([N+]([H])([H])C([H])([H])C([H])([H])c4c([H])c([H])c(C(=O)N5C([H])([H])C([H])([H])C([H])([H])C([H])(n6nc(-c7c([H])c([H])c(Oc8c([H])c([H])c(F)c([H])c8F)c([H])c7[H])c(C(=O)N([H])[H])c6N([H])[H])C5([H])[H])c(C([H])([H])[H])c4[H])C3([H])[H])c([H])c([H])c2C1([H])[H]

$$$$
5:0:0
     RDKit          3D

 89 97  0  0  1  0  0  0  0  0999 V2000
  -28.9990  -23.2460   20.2560 C   0  0  0  0  0  3  0  0  0  0  0  0
  -27.2780  -21.6080   19.8590 C   0  0  0  0  0  3  0  0  0  0  0  0
  -26.7710  -24.0640   19.8770 C   0  0  0  0  0  3  0  0  0  0  0  0
  -28.6520  -21.7270   20.1690 C   0  0  0  0  0  0  0  0  0  0  0  0
  -28.0990  -24.5080   20.0740 C   0  0  0  0  0  0  0  0  0  0  0  0
  -26.3690  -22.6980   19.7530 C   0  0  0  0  0  0  0  0  0  0  0  0
  -24.0610  -23.3610   19.4730 C   0  0  0  0  0  1  0  0  0  0  0  0
  -25.0500  -22.3350   19.5570 O   0  0  0  0  0  0  0  0  0  0  0  0
  -28.3110  -26.0510   20.1250 O   0  0  0  0  0  0  0  0  0  0  0  0
  -24.6770  -31.9300   23.2880 C   0  0  0  0  0  0  0  0  0  0  0  0
  -27.3220  -27.1920   20.0960 C   0  0  0  0  0  0  0  0  0  0  0  0
  -23.5350  -30.6220   21.5440 C   0  0  0  0  0  3  0  0  0  0  0  0
  -25.0320  -29.1060   20.0700 C   0  0  0  0  0  0  0  0  0  0  0  0
  -26.1050  -30.8350   21.4890 C   0  0  0  0  0  2  0  0  0  0  0  0
  -26.1950  -29.4580   20.7660 C   0  0  0  0  0  0  0  0  0  0  0  0
  -27.3280  -28.5200   20.7670 C   0  0  0  0  0  3  0  0  0  0  0  0
  -26.1570  -27.0460   19.3020 C   0  0  0  0  0  3  0  0  0  0  0  0
  -25.0410  -27.9220   19.3170 C   0  0  0  0  0  3  0  0  0  0  0  0
  -23.8070  -30.0200   20.1380 C   0  0  0  0  0  2  0  0  0  0  0  0
  -24.7920  -31.1550   22.1610 N   0  0  0  0  0  0  0  0  0  0  0  0
  -23.5740  -32.1870   23.7950 O   0  0  0  0  0  0  0  0  0  0  0  0
  -22.8210  -29.5710   22.4350 C   0  0  0  0  0  0  0  0  0  0  0  0
  -21.4920  -29.4230   22.2840 N   0  0  0  0  0  0  0  0  0  0  0  0
  -23.4720  -28.8910   23.2330 O   0  0  0  0  0  0  0  0  0  0  0  0
  -21.0190  -30.0220   21.6220 H   0  0  0  0  0  0  0  0  0  0  0  0
  -18.0880  -28.2530   22.7350 C   0  0  0  0  0  0  0  0  0  0  0  0
  -20.6560  -28.4410   22.9840 C   0  0  0  0  0  3  0  0  0  0  0  0
  -20.7200  -27.0600   22.2900 C   0  0  0  0  0  2  0  0  0  0  0  0
  -19.5960  -26.8420   21.2710 C   0  0  0  0  0  2  0  0  0  0  0  0
  -18.2270  -26.9640   21.9420 C   0  0  0  0  0  2  0  0  0  0  0  0
  -19.2270  -28.9540   23.2120 C   0  0  0  0  0  0  0  0  0  0  0  0
  -19.0400  -30.1610   23.9190 C   0  0  0  0  0  3  0  0  0  0  0  0
  -17.7470  -30.6680   24.1510 C   0  0  0  0  0  3  0  0  0  0  0  0
  -16.6230  -29.9650   23.6860 C   0  0  0  0  0  3  0  0  0  0  0  0
  -16.7940  -28.7580   22.9840 C   0  0  0  0  0  3  0  0  0  0  0  0
  -25.9280  -32.5440   23.9840 C   0  0  0  0  0  3  0  0  0  0  0  0
  -26.3830  -31.7340   25.2620 C   0  0  1  0  0  0  0  0  0  0  0  0
  -25.2440  -31.4760   26.2760 C   0  0  0  0  0  1  0  0  0  0  0  0
  -26.9750  -30.3620   24.8700 C   0  0  0  0  0  1  0  0  0  0  0  0
  -27.5110  -32.5010   25.9940 C   0  0  0  0  0  1  0  0  0  0  0  0
  -25.6070  -33.9340   24.3560 N   0  0  0  0  0  0  0  0  0  0  0  0
  -25.9400  -35.0170   23.6410 C   0  0  0  0  0  0  0  0  0  0  0  0
  -26.6140  -34.9520   22.6110 O   0  0  0  0  0  0  0  0  0  0  0  0
  -25.0060  -34.0590   25.1580 H   0  0  0  0  0  0  0  0  0  0  0  0
  -24.1980  -36.8150   23.3690 C   0  0  0  0  0  1  0  0  0  0  0  0
  -25.4530  -36.3910   24.1490 C   0  0  0  0  0  3  0  0  0  0  0  0
  -27.5880  -37.2730   24.9830 C   0  0  0  0  0  1  0  0  0  0  0  0
  -26.4780  -37.4540   24.0510 N   0  0  0  0  0  0  0  0  0  0  0  0
  -26.0650  -38.3670   24.2230 H   0  0  0  0  0  0  0  0  0  0  0  0
  -29.4140  -20.1810   20.6170 C   0  0  0  0  0  2  0  0  0  0  0  0
  -29.7000  -18.5320   19.8710 C   0  0  0  0  0  2  0  0  0  0  0  0
  -30.6260  -15.6610   20.2180 C   0  0  0  0  0  0  0  0  0  0  0  0
  -30.6990  -13.1710   19.4240 C   0  0  0  0  0  2  0  0  0  0  0  0
  -29.8160  -12.9060   18.1740 C   0  0  0  0  0  2  0  0  0  0  0  0
  -28.3640  -12.6080   18.5830 C   0  0  0  0  0  2  0  0  0  0  0  0
  -27.8700  -13.5810   19.6820 C   0  0  0  0  0  3  0  0  0  0  0  0
  -28.8850  -13.7840   20.8280 C   0  0  0  0  0  2  0  0  0  0  0  0
  -30.1160  -14.3210   20.2240 N   0  0  0  0  0  0  0  0  0  0  0  0
  -31.8230  -15.6900   19.8940 O   0  0  0  0  0  0  0  0  0  0  0  0
  -29.8280  -16.9190   20.4060 N   0  0  0  0  0  0  0  0  0  0  0  0
  -28.9480  -16.6510   20.8230 H   0  0  0  0  0  0  0  0  0  0  0  0
  -25.4810  -14.1050   20.3920 C   0  0  0  0  0  0  0  0  0  0  0  0
  -24.4270  -13.3180   20.7570 C   0  0  0  0  0  0  0  0  0  0  0  0
  -24.9140  -11.9730   20.7420 C   0  0  0  0  0  0  0  0  0  0  0  0
  -26.5400  -13.2450   20.1690 N   0  0  0  0  0  0  0  0  0  0  0  0
  -26.2100  -11.9550   20.4470 N   0  0  0  0  0  0  0  0  0  0  0  0
  -24.2000  -10.7020   20.9300 C   0  0  0  0  0  0  0  0  0  0  0  0
  -24.5830   -9.7790   21.9290 C   0  0  0  0  0  3  0  0  0  0  0  0
  -23.8650   -8.5760   22.1050 C   0  0  0  0  0  3  0  0  0  0  0  0
  -22.7500   -8.2870   21.2830 C   0  0  0  0  0  0  0  0  0  0  0  0
  -22.3860   -9.1990   20.2760 C   0  0  0  0  0  3  0  0  0  0  0  0
  -23.1050  -10.3930   20.0980 C   0  0  0  0  0  3  0  0  0  0  0  0
  -22.0090   -7.1320   21.3660 O   0  0  0  0  0  0  0  0  0  0  0  0
  -21.8460   -6.4650   22.5520 C   0  0  0  0  0  0  0  0  0  0  0  0
  -21.2690   -7.0840   23.6830 C   0  0  0  0  0  3  0  0  0  0  0  0
  -21.0550   -6.3420   24.8610 C   0  0  0  0  0  3  0  0  0  0  0  0
  -21.4080   -4.9800   24.9080 C   0  0  0  0  0  0  0  0  0  0  0  0
  -21.9780   -4.3600   23.7830 C   0  0  0  0  0  3  0  0  0  0  0  0
  -22.1930   -5.1000   22.6070 C   0  0  0  0  0  0  0  0  0  0  0  0
  -22.7220   -4.4920   21.5190 F   0  0  0  0  0  0  0  0  0  0  0  0
  -21.1970   -4.2640   26.0370 F   0  0  0  0  0  0  0  0  0  0  0  0
  -23.0200  -13.7770   21.0030 C   0  0  0  0  0  0  0  0  0  0  0  0
  -22.2850  -13.0780   21.8590 N   0  0  0  0  0  0  0  0  0  0  0  0
  -22.5800  -14.7950   20.4680 O   0  0  0  0  0  0  0  0  0  0  0  0
  -22.6540  -12.2550   22.3130 H   0  0  0  0  0  0  0  0  0  0  0  0
  -21.3400  -13.3700   22.0640 H   0  0  0  0  0  0  0  0  0  0  0  0
  -25.6210  -15.4770   20.1980 N   0  0  0  0  0  0  0  0  0  0  0  0
  -24.8260  -16.1040   20.2610 H   0  0  0  0  0  0  0  0  0  0  0  0
  -26.4380  -15.9140   19.7940 H   0  0  0  0  0  0  0  0  0  0  0  0
  2  4  2  0
  3  5  1  0
  4  1  1  0
  4 50  1  0
  5  9  1  0
  5  1  2  0
  6  2  1  0
  6  3  2  0
  7  8  1  0
  8  6  1  0
 10 21  2  0
 11  9  1  0
 11 16  1  0
 12 20  1  0
 12 22  1  0
 13 19  1  0
 13 15  1  0
 14 20  1  0
 15 16  2  0
 15 14  1  0
 17 18  1  0
 17 11  2  0
 18 13  2  0
 19 12  1  0
 20 10  1  0
 22 24  2  0
 23 22  1  0
 25 23  1  0
 26 35  2  0
 26 31  1  0
 27 23  1  0
 27 31  1  0
 28 27  1  0
 29 30  1  0
 29 28  1  0
 30 26  1  0
 31 32  2  0
 32 33  1  0
 34 33  2  0
 35 34  1  0
 36 10  1  0
 36 41  1  0
 36 37  1  0
 37 40  1  1
 37 38  1  0
 39 37  1  0
 41 44  1  0
 42 46  1  0
 42 41  1  0
 43 42  2  0
 46 45  1  0
 48 46  1  0
 48 49  1  0
 48 47  1  0
 51 60  1  0
 51 50  1  0
 52 58  1  0
 52 60  1  0
 53 58  1  0
 54 55  1  0
 54 53  1  0
 56 55  1  0
 56 65  1  0
 56 57  1  0
 58 57  1  0
 59 52  2  0
 60 61  1  0
 62 63  2  0
 63 82  1  0
 64 63  1  0
 64 67  1  0
 65 62  1  0
 65 66  1  0
 66 64  2  0
 67 68  1  0
 68 69  2  0
 70 73  1  0
 70 69  1  0
 71 70  2  0
 72 71  1  0
 72 67  2  0
 73 74  1  0
 74 79  2  0
 74 75  1  0
 75 76  2  0
 76 77  1  0
 77 81  1  0
 78 77  2  0
 79 78  1  0
 80 79  1  0
 82 83  1  0
 83 86  1  0
 83 85  1  0
 84 82  2  0
 87 88  1  0
 87 62  1  0
 89 87  1  0
M  ISO  4   5 101   9 101  52 100  60 100
M  END
>  <TORSDO>  (6) 
F 19

>  <SCORE>  (6) 
-14.820

>  <name>  (6) 
5

>  <ligand_id>  (6) 
5

>  <original_smiles>  (6) 
[H]c1c([H])c([H])c2c(c1[H])C([H])([H])C([H])([H])C([H])([H])C2([H])N([H])C(=O)C1([H])N(C(=O)C([H])(N([H])C(=O)C([H])(N([H])C([H])([H])[H])C([H])([H])[H])C(C([H])([H])[H])(C([H])([H])[H])C([H])([H])[H])C([H])([H])c2c([H])c(Oc3c([H])c(OC([H])([H])[H])c([H])c(C([H])([H])C([H])([H])N([H])C(=O)N4C([H])([H])C([H])([H])C([H])([H])C([H])(n5nc(-c6c([H])c([H])c(Oc7c([H])c([H])c(F)c([H])c7F)c([H])c6[H])c(C(=O)N([H])[H])c5N([H])[H])C4([H])[H])c3[H])c([H])c([H])c2C1([H])[H]

>  <smiles>  (6) 
[H]c1c([H])c([H])c2c(c1[H])C([H])([H])C([H])([H])C([H])([H])C2([H])N([H])C(=O)C1([H])N(C(=O)C([H])(N([H])C(=O)C([H])(N([H])C([H])([H])[H])C([H])([H])[H])C(C([H])([H])[H])(C([H])([H])[H])C([H])([H])[H])C([H])([H])c2c([H])c(Oc3c([H])c(OC([H])([H])[H])c([H])c(C([H])([H])C([H])([H])N([H])C(=O)N4C([H])([H])C([H])([H])C([H])([H])C([H])(n5nc(-c6c([H])c([H])c(Oc7c([H])c([H])c(F)c([H])c7F)c([H])c6[H])c(C(=O)N([H])[H])c5N([H])[H])C4([H])[H])c3[H])c([H])c([H])c2C1([H])[H]

$$$$
6:0:0
     RDKit          3D

 93100  0  0  1  0  0  0  0  0999 V2000
  -27.0490  -21.3820   18.6570 C   0  0  0  0  0  3  0  0  0  0  0  0
  -27.2650  -22.7760   18.9960 C   0  0  0  0  0  3  0  0  0  0  0  0
  -29.1560  -21.8550   20.1080 C   0  0  0  0  0  3  0  0  0  0  0  0
  -27.8170  -20.1980   19.0110 C   0  0  0  0  0  0  0  0  0  0  0  0
  -29.0270  -20.1830   19.7270 C   0  0  0  0  0  3  0  0  0  0  0  0
  -28.3140  -23.3240   19.7950 C   0  0  0  0  0  0  0  0  0  0  0  0
  -27.9450  -17.8620   19.9150 C   0  0  0  0  0  3  0  0  0  0  0  0
  -29.4710  -18.2130   20.1040 C   0  0  0  0  0  2  0  0  0  0  0  0
  -27.3360  -18.7660   18.7610 C   0  0  1  0  0  0  0  0  0  0  0  0
  -27.1300  -17.9540   21.2370 C   0  0  0  0  0  1  0  0  0  0  0  0
  -25.7930  -18.6700   18.6850 C   0  0  0  0  0  1  0  0  0  0  0  0
  -27.8800  -18.2960   17.3950 C   0  0  0  0  0  1  0  0  0  0  0  0
  -30.2780  -16.3380   19.6590 C   0  0  0  0  0  2  0  0  0  0  0  0
  -30.5820  -13.6400   18.9040 C   0  0  0  0  0  2  0  0  0  0  0  0
  -29.6750  -12.9680   17.8080 C   0  0  0  0  0  2  0  0  0  0  0  0
  -28.3560  -12.4520   18.3940 C   0  0  0  0  0  2  0  0  0  0  0  0
  -27.8210  -13.4630   19.4240 C   0  0  0  0  0  3  0  0  0  0  0  0
  -28.8840  -14.0250   20.4170 C   0  0  0  0  0  2  0  0  0  0  0  0
  -29.9050  -14.8420   19.6670 N   0  0  0  0  0  0  0  0  0  0  0  0
  -31.4860  -16.2210   19.3200 O   0  0  0  0  0  1  0  0  0  0  0  0
  -25.5670  -13.8690   20.4920 C   0  0  0  0  0  0  0  0  0  0  0  0
  -24.5610  -13.0580   20.9210 C   0  0  0  0  0  0  0  0  0  0  0  0
  -25.0260  -11.7200   20.7330 C   0  0  0  0  0  0  0  0  0  0  0  0
  -26.5840  -13.0380   20.0680 N   0  0  0  0  0  0  0  0  0  0  0  0
  -26.2780  -11.7260   20.2710 N   0  0  0  0  0  0  0  0  0  0  0  0
  -24.3150  -10.4460   20.9070 C   0  0  0  0  0  0  0  0  0  0  0  0
  -24.7360   -9.4840   21.8520 C   0  0  0  0  0  3  0  0  0  0  0  0
  -24.0160   -8.2810   22.0200 C   0  0  0  0  0  3  0  0  0  0  0  0
  -22.8590   -8.0310   21.2440 C   0  0  0  0  0  0  0  0  0  0  0  0
  -22.4550   -8.9820   20.2900 C   0  0  0  0  0  3  0  0  0  0  0  0
  -23.1770  -10.1750   20.1200 C   0  0  0  0  0  3  0  0  0  0  0  0
  -22.1140   -6.8790   21.3200 O   0  0  0  0  0  0  0  0  0  0  0  0
  -21.9060   -6.2330   22.5130 C   0  0  0  0  0  0  0  0  0  0  0  0
  -21.2550   -6.8620   23.5970 C   0  0  0  0  0  3  0  0  0  0  0  0
  -21.0000   -6.1400   24.7800 C   0  0  0  0  0  3  0  0  0  0  0  0
  -21.3860   -4.7900   24.8790 C   0  0  0  0  0  0  0  0  0  0  0  0
  -22.0290   -4.1600   23.7980 C   0  0  0  0  0  3  0  0  0  0  0  0
  -22.2850   -4.8790   22.6180 C   0  0  0  0  0  0  0  0  0  0  0  0
  -22.8860   -4.2610   21.5730 F   0  0  0  0  0  0  0  0  0  0  0  0
  -21.1340   -4.0940   26.0120 F   0  0  0  0  0  0  0  0  0  0  0  0
  -23.2040  -13.5110   21.3730 C   0  0  0  0  0  0  0  0  0  0  0  0
  -22.5780  -12.7630   22.2730 N   0  0  0  0  0  0  0  0  0  0  0  0
  -22.7170  -14.5650   20.9670 O   0  0  0  0  0  0  0  0  0  0  0  0
  -22.9890  -11.9120   22.6240 H   0  0  0  0  0  0  0  0  0  0  0  0
  -21.6720  -13.0480   22.6180 H   0  0  0  0  0  0  0  0  0  0  0  0
  -25.6880  -15.2450   20.3840 N   0  0  0  0  0  0  0  0  0  0  0  0
  -24.9050  -15.8540   20.5950 H   0  0  0  0  0  0  0  0  0  0  0  0
  -26.4380  -15.7110   19.8990 H   0  0  0  0  0  0  0  0  0  0  0  0
  -29.9070  -18.2960   21.5060 N   0  0  0  0  0  4  0  0  0  0  0  0
  -29.3450  -18.9510   22.0140 H   0  0  0  0  0  0  0  0  0  0  0  0
  -30.8630  -18.6000   21.5260 H   0  0  0  0  0  0  0  0  0  0  0  0
  -29.8610  -17.3930   21.9390 H   0  0  0  0  0  0  0  0  0  0  0  0
  -28.3030  -25.0640   20.0250 O   0  0  0  0  0  0  0  0  0  0  0  0
  -24.8020  -31.7330   23.1000 C   0  0  0  0  0  0  0  0  0  0  0  0
  -27.3600  -26.4380   20.0050 C   0  0  0  0  0  0  0  0  0  0  0  0
  -23.6460  -30.3690   21.4170 C   0  0  0  0  0  3  0  0  0  0  0  0
  -25.1150  -28.6970   19.9880 C   0  0  0  0  0  0  0  0  0  0  0  0
  -26.2390  -30.4150   21.3630 C   0  0  0  0  0  2  0  0  0  0  0  0
  -26.3080  -28.9630   20.6660 C   0  0  0  0  0  0  0  0  0  0  0  0
  -27.3910  -27.8750   20.6400 C   0  0  0  0  0  3  0  0  0  0  0  0
  -26.1320  -26.4870   19.2630 C   0  0  0  0  0  3  0  0  0  0  0  0
  -25.0880  -27.4880   19.2620 C   0  0  0  0  0  3  0  0  0  0  0  0
  -23.9190  -29.6840   20.0400 C   0  0  0  0  0  2  0  0  0  0  0  0
  -24.9230  -30.8800   22.0120 N   0  0  0  0  0  0  0  0  0  0  0  0
  -23.6960  -32.0300   23.5900 O   0  0  0  0  0  0  0  0  0  0  0  0
  -22.8920  -29.3940   22.3640 C   0  0  0  0  0  0  0  0  0  0  0  0
  -21.5520  -29.2800   22.2440 N   0  0  0  0  0  0  0  0  0  0  0  0
  -23.5290  -28.7330   23.1850 O   0  0  0  0  0  0  0  0  0  0  0  0
  -21.0820  -29.8630   21.5660 H   0  0  0  0  0  0  0  0  0  0  0  0
  -18.1390  -28.1320   22.7910 C   0  0  0  0  0  0  0  0  0  0  0  0
  -20.7140  -28.3270   22.9880 C   0  0  0  0  0  3  0  0  0  0  0  0
  -20.7580  -26.9250   22.3340 C   0  0  0  0  0  2  0  0  0  0  0  0
  -19.6210  -26.6900   21.3340 C   0  0  0  0  0  2  0  0  0  0  0  0
  -18.2630  -26.8250   22.0240 C   0  0  0  0  0  2  0  0  0  0  0  0
  -19.2880  -28.8450   23.2280 C   0  0  0  0  0  0  0  0  0  0  0  0
  -19.1120  -30.0670   23.9130 C   0  0  0  0  0  3  0  0  0  0  0  0
  -17.8220  -30.5760   24.1600 C   0  0  0  0  0  3  0  0  0  0  0  0
  -16.6890  -29.8620   23.7320 C   0  0  0  0  0  3  0  0  0  0  0  0
  -16.8490  -28.6400   23.0540 C   0  0  0  0  0  3  0  0  0  0  0  0
  -26.0410  -32.3860   23.7840 C   0  0  0  0  0  3  0  0  0  0  0  0
  -26.5110  -31.6080   25.0770 C   0  0  1  0  0  0  0  0  0  0  0  0
  -25.3840  -31.3680   26.1090 C   0  0  0  0  0  1  0  0  0  0  0  0
  -27.1050  -30.2300   24.7150 C   0  0  0  0  0  1  0  0  0  0  0  0
  -27.6420  -32.3970   25.7800 C   0  0  0  0  0  1  0  0  0  0  0  0
  -25.7000  -33.7800   24.1510 N   0  0  0  0  0  0  0  0  0  0  0  0
  -25.9900  -34.8720   23.4300 C   0  0  0  0  0  0  0  0  0  0  0  0
  -26.6230  -34.8140   22.3720 O   0  0  0  0  0  0  0  0  0  0  0  0
  -25.1290  -33.8960   24.9760 H   0  0  0  0  0  0  0  0  0  0  0  0
  -24.2110  -36.6520   23.2470 C   0  0  0  0  0  1  0  0  0  0  0  0
  -25.5120  -36.2430   23.9570 C   0  0  0  0  0  3  0  0  0  0  0  0
  -27.6720  -37.1740   24.6740 C   0  0  0  0  0  1  0  0  0  0  0  0
  -26.5130  -37.3240   23.7990 N   0  0  0  0  0  0  0  0  0  0  0  0
  -26.0940  -38.2330   23.9810 H   0  0  0  0  0  0  0  0  0  0  0  0
  1  2  2  0
  1  4  1  0
  2  6  1  0
  4  5  2  0
  5  3  1  0
  6 53  1  0
  6  3  2  0
  7  8  1  0
  7 10  1  0
  8 49  1  0
  9  4  1  0
  9  7  1  0
  9 11  1  6
 12  9  1  0
 13 19  1  0
 14 19  1  0
 15 16  1  0
 15 14  1  0
 17 16  1  0
 17 24  1  0
 17 18  1  0
 19 18  1  0
 20 13  1  0
 21 22  2  0
 22 41  1  0
 23 26  1  0
 23 22  1  0
 24 25  1  0
 24 21  1  0
 25 23  2  0
 26 27  1  0
 27 28  2  0
 29 32  1  0
 29 28  1  0
 30 29  2  0
 31 30  1  0
 31 26  2  0
 32 33  1  0
 33 38  2  0
 33 34  1  0
 34 35  2  0
 35 36  1  0
 36 40  1  0
 37 36  2  0
 38 37  1  0
 39 38  1  0
 41 42  1  0
 42 45  1  0
 42 44  1  0
 43 41  2  0
 46 21  1  0
 46 47  1  0
 48 46  1  0
 49 51  1  0
 49 52  1  0
 49 50  1  0
 54 65  2  0
 55 53  1  0
 55 60  1  0
 56 64  1  0
 56 66  1  0
 57 63  1  0
 57 59  1  0
 58 64  1  0
 59 58  1  0
 60 59  2  0
 61 55  2  0
 62 61  1  0
 62 57  2  0
 63 56  1  0
 64 54  1  0
 66 68  2  0
 67 66  1  0
 69 67  1  0
 70 79  2  0
 70 75  1  0
 71 67  1  0
 71 75  1  0
 72 71  1  0
 73 74  1  0
 73 72  1  0
 74 70  1  0
 75 76  2  0
 76 77  1  0
 78 77  2  0
 79 78  1  0
 80 54  1  0
 80 85  1  0
 80 81  1  0
 81 84  1  1
 81 82  1  0
 83 81  1  0
 85 88  1  0
 86 90  1  0
 86 85  1  0
 87 86  2  0
 90 89  1  0
 92 90  1  0
 92 93  1  0
 92 91  1  0
M  ISO  4   6 101   8 100  13 100  53 101
M  END
>  <TORSDO>  (7) 
F 17

>  <SCORE>  (7) 
-13.274

>  <name>  (7) 
6

>  <ligand_id>  (7) 
6

>  <original_smiles>  (7) 
[H]c1c([H])c([H])c2c(c1[H])C([H])([H])C([H])([H])C([H])([H])C2([H])N([H])C(=O)C1([H])N(C(=O)C([H])(N([H])C(=O)C([H])(N([H])C([H])([H])[H])C([H])([H])[H])C(C([H])([H])[H])(C([H])([H])[H])C([H])([H])[H])C([H])([H])c2c([H])c(Oc3c([H])c([H])c4c(c3[H])C(C(=O)N3C([H])([H])C([H])([H])C([H])([H])C([H])(n5nc(-c6c([H])c([H])c(Oc7c([H])c([H])c(F)c([H])c7F)c([H])c6[H])c(C(=O)N([H])[H])c5N([H])[H])C3([H])[H])([N+]([H])([H])[H])C([H])(C([H])([H])[H])C4(C([H])([H])[H])C([H])([H])[H])c([H])c([H])c2C1([H])[H]

>  <smiles>  (7) 
[H]c1c([H])c([H])c2c(c1[H])C([H])([H])C([H])([H])C([H])([H])C2([H])N([H])C(=O)C1([H])N(C(=O)C([H])(N([H])C(=O)C([H])(N([H])C([H])([H])[H])C([H])([H])[H])C(C([H])([H])[H])(C([H])([H])[H])C([H])([H])[H])C([H])([H])c2c([H])c(Oc3c([H])c([H])c4c(c3[H])C(C(=O)N3C([H])([H])C([H])([H])C([H])([H])C([H])(n5nc(-c6c([H])c([H])c(Oc7c([H])c([H])c(F)c([H])c7F)c([H])c6[H])c(C(=O)N([H])[H])c5N([H])[H])C3([H])[H])([N+]([H])([H])[H])C([H])(C([H])([H])[H])C4(C([H])([H])[H])C([H])([H])[H])c([H])c([H])c2C1([H])[H]

$$$$
7:0:0
     RDKit          3D

 95103  0  0  1  0  0  0  0  0999 V2000
  -29.4980  -20.1470   17.3600 C   0  0  0  0  0  1  0  0  0  0  0  0
  -28.8190  -19.6990   18.6810 C   0  0  0  0  0  3  0  0  0  0  0  0
  -27.3770  -21.9930   19.2670 C   0  0  0  0  0  3  0  0  0  0  0  0
  -27.7370  -22.9230   21.5000 C   0  0  0  0  0  3  0  0  0  0  0  0
  -29.1360  -21.1240   20.6990 C   0  0  0  0  0  3  0  0  0  0  0  0
  -27.0370  -22.9720   20.2850 C   0  0  0  0  0  0  0  0  0  0  0  0
  -28.4180  -21.0150   19.4830 C   0  0  0  0  0  0  0  0  0  0  0  0
  -28.7860  -22.0170   21.7100 C   0  0  0  0  0  0  0  0  0  0  0  0
  -29.4280  -21.9740   22.9030 F   0  0  0  0  0  0  0  0  0  0  0  0
  -24.6040  -23.4290   19.6510 C   0  0  0  0  0  1  0  0  0  0  0  0
  -25.8870  -24.0260   20.2480 C   0  0  0  0  0  3  0  0  0  0  0  0
  -27.3240  -25.7080   18.9160 C   0  0  0  0  0  0  0  0  0  0  0  0
  -27.6240  -27.1510   16.9210 C   0  0  0  0  0  2  0  0  0  0  0  0
  -26.5250  -28.2340   16.9470 C   0  0  0  0  0  2  0  0  0  0  0  0
  -25.2360  -27.7220   16.2710 C   0  0  0  0  0  2  0  0  0  0  0  0
  -24.8270  -26.3060   16.7530 C   0  0  0  0  0  3  0  0  0  0  0  0
  -26.0270  -25.3340   16.7840 C   0  0  0  0  0  2  0  0  0  0  0  0
  -27.0750  -25.9640   17.5970 N   0  0  0  0  0  0  0  0  0  0  0  0
  -28.3220  -26.1610   19.4790 O   0  0  0  0  0  0  0  0  0  0  0  0
  -26.2470  -25.3570   19.6800 N   0  0  0  0  0  0  0  0  0  0  0  0
  -26.1310  -26.0370   20.4100 H   0  0  0  0  0  0  0  0  0  0  0  0
  -22.4200  -25.5120   16.3790 C   0  0  0  0  0  0  0  0  0  0  0  0
  -21.7590  -25.0540   15.2740 C   0  0  0  0  0  0  0  0  0  0  0  0
  -22.7010  -25.1240   14.2000 C   0  0  0  0  0  0  0  0  0  0  0  0
  -23.7150  -25.7750   15.9740 N   0  0  0  0  0  0  0  0  0  0  0  0
  -23.8910  -25.5030   14.6550 N   0  0  0  0  0  0  0  0  0  0  0  0
  -22.5130  -24.9360   12.7540 C   0  0  0  0  0  0  0  0  0  0  0  0
  -22.5790  -23.6560   12.1630 C   0  0  0  0  0  3  0  0  0  0  0  0
  -22.3700  -23.4990   10.7770 C   0  0  0  0  0  3  0  0  0  0  0  0
  -22.0900  -24.6270    9.9680 C   0  0  0  0  0  0  0  0  0  0  0  0
  -22.0500  -25.9020   10.5580 C   0  0  0  0  0  3  0  0  0  0  0  0
  -22.2640  -26.0580   11.9390 C   0  0  0  0  0  3  0  0  0  0  0  0
  -21.8980  -24.5740    8.6100 O   0  0  0  0  0  0  0  0  0  0  0  0
  -20.8470  -23.8820    8.0610 C   0  0  0  0  0  0  0  0  0  0  0  0
  -19.5070  -24.2800    8.2610 C   0  0  0  0  0  3  0  0  0  0  0  0
  -18.4620  -23.5790    7.6270 C   0  0  0  0  0  3  0  0  0  0  0  0
  -18.7560  -22.4860    6.7880 C   0  0  0  0  0  0  0  0  0  0  0  0
  -20.0900  -22.0880    6.5900 C   0  0  0  0  0  3  0  0  0  0  0  0
  -21.1320  -22.7860    7.2230 C   0  0  0  0  0  0  0  0  0  0  0  0
  -22.4170  -22.4120    7.0140 F   0  0  0  0  0  0  0  0  0  0  0  0
  -17.7540  -21.8170    6.1700 F   0  0  0  0  0  0  0  0  0  0  0  0
  -20.3010  -24.6960   15.1960 C   0  0  0  0  0  0  0  0  0  0  0  0
  -19.9830  -23.5600   14.5870 N   0  0  0  0  0  0  0  0  0  0  0  0
  -19.4390  -25.4060   15.7080 O   0  0  0  0  0  0  0  0  0  0  0  0
  -20.6870  -22.9690   14.1710 H   0  0  0  0  0  0  0  0  0  0  0  0
  -19.0160  -23.2790   14.5300 H   0  0  0  0  0  0  0  0  0  0  0  0
  -22.0130  -25.7690   17.6740 N   0  0  0  0  0  0  0  0  0  0  0  0
  -21.0560  -25.6290   17.9790 H   0  0  0  0  0  0  0  0  0  0  0  0
  -22.5620  -26.3200   18.3190 H   0  0  0  0  0  0  0  0  0  0  0  0
  -29.4810  -18.4660   19.2650 N   0  0  0  0  0  4  0  0  0  0  0  0
  -29.1740  -18.3880   20.2260 H   0  0  0  0  0  0  0  0  0  0  0  0
  -29.1230  -17.6620   18.7800 H   0  0  0  0  0  0  0  0  0  0  0  0
  -31.0250  -18.4680   19.2330 C   0  0  0  0  0  2  0  0  0  0  0  0
  -31.8300  -17.5780   18.1910 C   0  0  0  0  0  2  0  0  0  0  0  0
  -32.8480  -16.6080   18.6990 O   0  0  0  0  0  0  0  0  0  0  0  0
  -39.4400  -14.5310   20.8670 C   0  0  0  0  0  0  0  0  0  0  0  0
  -34.2080  -16.9320   18.8450 C   0  0  0  0  0  0  0  0  0  0  0  0
  -39.0770  -16.9500   20.5500 C   0  0  0  0  0  3  0  0  0  0  0  0
  -36.9470  -17.6110   19.2920 C   0  0  0  0  0  0  0  0  0  0  0  0
  -37.7330  -15.2460   19.1710 C   0  0  0  0  0  2  0  0  0  0  0  0
  -36.6000  -16.2710   19.0980 C   0  0  0  0  0  0  0  0  0  0  0  0
  -35.2340  -15.9290   18.8640 C   0  0  0  0  0  3  0  0  0  0  0  0
  -34.6190  -18.2700   19.0130 C   0  0  0  0  0  3  0  0  0  0  0  0
  -35.9630  -18.6110   19.2410 C   0  0  0  0  0  3  0  0  0  0  0  0
  -38.4030  -17.9380   19.5580 C   0  0  0  0  0  2  0  0  0  0  0  0
  -38.7520  -15.5220   20.2300 N   0  0  0  0  0  0  0  0  0  0  0  0
  -40.3400  -14.7900   21.6810 O   0  0  0  0  0  0  0  0  0  0  0  0
  -38.7010  -17.3600   21.9930 C   0  0  0  0  0  0  0  0  0  0  0  0
  -39.5520  -18.1870   22.6290 N   0  0  0  0  0  0  0  0  0  0  0  0
  -37.6570  -16.9530   22.5040 O   0  0  0  0  0  0  0  0  0  0  0  0
  -40.4230  -18.4310   22.1810 H   0  0  0  0  0  0  0  0  0  0  0  0
  -41.2570  -19.8410   25.3540 C   0  0  0  0  0  0  0  0  0  0  0  0
  -39.3780  -18.7310   23.9720 C   0  0  0  0  0  3  0  0  0  0  0  0
  -38.7230  -20.1330   23.9360 C   0  0  0  0  0  2  0  0  0  0  0  0
  -39.7300  -21.2860   23.9370 C   0  0  0  0  0  2  0  0  0  0  0  0
  -40.6230  -21.2090   25.1820 C   0  0  0  0  0  2  0  0  0  0  0  0
  -40.6780  -18.6850   24.7700 C   0  0  0  0  0  0  0  0  0  0  0  0
  -41.3210  -17.4370   24.9390 C   0  0  0  0  0  3  0  0  0  0  0  0
  -42.5250  -17.3410   25.6670 C   0  0  0  0  0  3  0  0  0  0  0  0
  -43.0770  -18.4870   26.2590 C   0  0  0  0  0  3  0  0  0  0  0  0
  -42.4400  -19.7330   26.1070 C   0  0  0  0  0  3  0  0  0  0  0  0
  -39.1400  -13.0240   20.5960 C   0  0  0  0  0  3  0  0  0  0  0  0
  -40.4290  -12.3280   20.4790 N   0  0  0  0  0  0  0  0  0  0  0  0
  -41.0890  -12.1380   19.3250 C   0  0  0  0  0  0  0  0  0  0  0  0
  -40.6310  -12.4730   18.2300 O   0  0  0  0  0  0  0  0  0  0  0  0
  -40.8910  -12.0730   21.3380 H   0  0  0  0  0  0  0  0  0  0  0  0
  -43.5690  -12.5180   19.1450 C   0  0  0  0  0  1  0  0  0  0  0  0
  -42.4740  -11.4690   19.3990 C   0  0  0  0  0  3  0  0  0  0  0  0
  -41.8790   -9.1550   18.8320 C   0  0  0  0  0  1  0  0  0  0  0  0
  -42.6360  -10.3450   18.4510 N   0  0  0  0  0  0  0  0  0  0  0  0
  -43.6140  -10.0830   18.3680 H   0  0  0  0  0  0  0  0  0  0  0  0
  -38.2510  -12.3570   21.7130 C   0  0  1  0  0  0  0  0  0  0  0  0
  -39.0680  -11.7070   22.8540 C   0  0  0  0  0  1  0  0  0  0  0  0
  -37.2990  -13.3970   22.3510 C   0  0  0  0  0  1  0  0  0  0  0  0
  -37.3520  -11.2630   21.0870 C   0  0  0  0  0  1  0  0  0  0  0  0
  2  1  1  0
  2 50  1  0
  2  7  1  0
  3  7  2  0
  3  6  1  0
  4  8  1  0
  5  8  2  0
  6  4  2  0
  7  5  1  0
  8  9  1  0
 11 10  1  0
 11  6  1  0
 12 19  2  0
 12 20  1  0
 13 14  1  0
 13 18  1  0
 15 16  1  0
 15 14  1  0
 16 25  1  0
 16 17  1  0
 17 18  1  0
 18 12  1  0
 20 11  1  0
 20 21  1  0
 22 47  1  0
 23 22  2  0
 24 26  2  0
 24 23  1  0
 25 22  1  0
 26 25  1  0
 27 24  1  0
 28 27  1  0
 29 28  2  0
 30 31  2  0
 30 29  1  0
 31 32  1  0
 32 27  2  0
 33 30  1  0
 34 35  1  0
 34 33  1  0
 36 35  2  0
 37 36  1  0
 38 37  2  0
 38 39  1  0
 39 34  2  0
 40 39  1  0
 41 37  1  0
 42 23  1  0
 42 44  2  0
 43 42  1  0
 45 43  1  0
 46 43  1  0
 47 48  1  0
 47 49  1  0
 50 51  1  0
 52 50  1  0
 53 50  1  0
 54 55  1  0
 54 53  1  0
 55 57  1  0
 56 67  2  0
 57 62  2  0
 57 63  1  0
 58 68  1  0
 59 65  1  0
 60 66  1  0
 61 60  1  0
 61 59  2  0
 62 61  1  0
 63 64  2  0
 64 59  1  0
 65 58  1  0
 66 58  1  0
 66 56  1  0
 68 70  2  0
 68 69  1  0
 71 69  1  0
 72 81  1  0
 73 69  1  0
 73 77  1  0
 74 75  1  0
 74 73  1  0
 75 76  1  0
 76 72  1  0
 77 78  1  0
 77 72  2  0
 78 79  2  0
 79 80  1  0
 81 80  2  0
 82 56  1  0
 82 92  1  0
 83 82  1  0
 83 86  1  0
 84 88  1  0
 84 83  1  0
 85 84  2  0
 88 87  1  0
 90 89  1  0
 90 88  1  0
 91 90  1  0
 92 94  1  1
 92 93  1  0
 95 92  1  0
M  ISO  4  12 100  20 100  54 101  55 101
M  END
>  <TORSDO>  (8) 
F 21

>  <SCORE>  (8) 
-5.369

>  <name>  (8) 
7

>  <ligand_id>  (8) 
7

>  <original_smiles>  (8) 
[H]c1c([H])c([H])c2c(c1[H])C([H])([H])C([H])([H])C([H])([H])C2([H])N([H])C(=O)C1([H])N(C(=O)C([H])(N([H])C(=O)C([H])(N([H])C([H])([H])[H])C([H])([H])[H])C(C([H])([H])[H])(C([H])([H])[H])C([H])([H])[H])C([H])([H])c2c([H])c(OC([H])([H])C([H])([H])[N+]([H])([H])C([H])(c3c([H])c(F)c([H])c(C([H])(N([H])C(=O)N4C([H])([H])C([H])([H])C([H])([H])C([H])(n5nc(-c6c([H])c([H])c(Oc7c([H])c([H])c(F)c([H])c7F)c([H])c6[H])c(C(=O)N([H])[H])c5N([H])[H])C4([H])[H])C([H])([H])[H])c3[H])C([H])([H])[H])c([H])c([H])c2C1([H])[H]

>  <smiles>  (8) 
[H]c1c([H])c([H])c2c(c1[H])C([H])([H])C([H])([H])C([H])([H])C2([H])N([H])C(=O)C1([H])N(C(=O)C([H])(N([H])C(=O)C([H])(N([H])C([H])([H])[H])C([H])([H])[H])C(C([H])([H])[H])(C([H])([H])[H])C([H])([H])[H])C([H])([H])c2c([H])c(OC([H])([H])C([H])([H])[N+]([H])([H])C([H])(c3c([H])c(F)c([H])c(C([H])(N([H])C(=O)N4C([H])([H])C([H])([H])C([H])([H])C([H])(n5nc(-c6c([H])c([H])c(Oc7c([H])c([H])c(F)c([H])c7F)c([H])c6[H])c(C(=O)N([H])[H])c5N([H])[H])C4([H])[H])C([H])([H])[H])c3[H])C([H])([H])[H])c([H])c([H])c2C1([H])[H]

$$$$
8:0:0
     RDKit          3D

 96106  0  0  1  0  0  0  0  0999 V2000
  -29.0680  -21.8870   18.6510 C   0  0  0  0  0  0  0  0  0  0  0  0
  -29.1110  -21.7790   20.0410 C   0  0  0  0  0  0  0  0  0  0  0  0
  -28.6460  -23.0490   17.9480 C   0  0  0  0  0  0  0  0  0  0  0  0
  -28.8020  -23.1410   20.7010 C   0  0  0  0  0  0  0  0  0  0  0  0
  -28.3830  -24.3040   18.5970 C   0  0  0  0  0  0  0  0  0  0  0  0
  -28.3940  -24.4730   20.0200 C   0  0  0  0  0  0  0  0  0  0  0  0
  -29.8120  -20.7260   18.0040 C   0  0  0  0  0  2  0  0  0  0  0  0
  -30.6360  -17.6080   18.5540 C   0  0  0  0  0  2  0  0  0  0  0  0
  -31.5290  -18.8510   18.7820 C   0  0  0  0  0  2  0  0  0  0  0  0
  -29.5940  -18.5600   20.7110 C   0  0  0  0  0  2  0  0  0  0  0  0
  -29.9520  -20.2810   20.3720 C   0  0  0  0  0  3  0  0  0  0  0  0
  -29.8750  -17.0460   19.7990 C   0  0  1  0  0  0  0  0  0  0  0  0
  -30.8130  -20.2120   19.0830 C   0  0  2  0  0  0  0  0  0  0  0  0
  -28.5600  -22.9480   16.4250 C   0  0  0  0  0  1  0  0  0  0  0  0
  -29.0190  -23.2200   22.1960 C   0  0  0  0  0  1  0  0  0  0  0  0
  -28.2310  -25.5290   17.6940 C   0  0  0  0  0  1  0  0  0  0  0  0
  -28.4590  -16.7610   19.2900 C   0  0  0  0  0  1  0  0  0  0  0  0
  -30.5880  -15.4300   20.1390 C   0  0  0  0  0  0  0  0  0  0  0  0
  -30.5550  -12.9520   19.3280 C   0  0  0  0  0  2  0  0  0  0  0  0
  -29.6270  -12.6980   18.1140 C   0  0  0  0  0  2  0  0  0  0  0  0
  -28.1830  -12.4110   18.5700 C   0  0  0  0  0  2  0  0  0  0  0  0
  -27.7260  -13.3820   19.6800 C   0  0  0  0  0  3  0  0  0  0  0  0
  -28.7870  -13.6070   20.7780 C   0  0  0  0  0  2  0  0  0  0  0  0
  -30.0100  -14.1160   20.1230 N   0  0  0  0  0  0  0  0  0  0  0  0
  -31.8230  -15.3470   20.0720 O   0  0  0  0  0  0  0  0  0  0  0  0
  -25.3620  -13.9510   20.4530 C   0  0  0  0  0  0  0  0  0  0  0  0
  -24.3030  -13.1760   20.8290 C   0  0  0  0  0  0  0  0  0  0  0  0
  -24.7730  -11.8280   20.7990 C   0  0  0  0  0  0  0  0  0  0  0  0
  -26.4060  -13.0750   20.2100 N   0  0  0  0  0  0  0  0  0  0  0  0
  -26.0630  -11.7910   20.4860 N   0  0  0  0  0  0  0  0  0  0  0  0
  -24.0470  -10.5690   20.9880 C   0  0  0  0  0  0  0  0  0  0  0  0
  -24.4600   -9.6150   21.9430 C   0  0  0  0  0  3  0  0  0  0  0  0
  -23.7300   -8.4190   22.1210 C   0  0  0  0  0  3  0  0  0  0  0  0
  -22.5750   -8.1710   21.3420 C   0  0  0  0  0  0  0  0  0  0  0  0
  -22.1830   -9.1150   20.3760 C   0  0  0  0  0  3  0  0  0  0  0  0
  -22.9130  -10.3020   20.1980 C   0  0  0  0  0  3  0  0  0  0  0  0
  -21.8170   -7.0290   21.4290 O   0  0  0  0  0  0  0  0  0  0  0  0
  -21.7250   -6.3140   22.5970 C   0  0  0  0  0  0  0  0  0  0  0  0
  -21.2010   -6.8810   23.7780 C   0  0  0  0  0  3  0  0  0  0  0  0
  -21.0620   -6.0910   24.9360 C   0  0  0  0  0  3  0  0  0  0  0  0
  -21.4380   -4.7340   24.9130 C   0  0  0  0  0  0  0  0  0  0  0  0
  -21.9570   -4.1660   23.7360 C   0  0  0  0  0  3  0  0  0  0  0  0
  -22.0980   -4.9550   22.5800 C   0  0  0  0  0  0  0  0  0  0  0  0
  -22.5780   -4.3970   21.4420 F   0  0  0  0  0  0  0  0  0  0  0  0
  -21.2970   -3.9730   26.0230 F   0  0  0  0  0  0  0  0  0  0  0  0
  -22.9060  -13.6560   21.0960 C   0  0  0  0  0  0  0  0  0  0  0  0
  -22.1770  -12.9570   21.9590 N   0  0  0  0  0  0  0  0  0  0  0  0
  -22.4730  -14.6830   20.5780 O   0  0  0  0  0  0  0  0  0  0  0  0
  -22.5460  -12.1300   22.4020 H   0  0  0  0  0  0  0  0  0  0  0  0
  -21.2410  -13.2590   22.1860 H   0  0  0  0  0  0  0  0  0  0  0  0
  -25.4990  -15.3220   20.2640 N   0  0  0  0  0  0  0  0  0  0  0  0
  -24.7120  -15.9530   20.3680 H   0  0  0  0  0  0  0  0  0  0  0  0
  -26.3260  -15.7790   19.9010 H   0  0  0  0  0  0  0  0  0  0  0  0
  -32.6830  -21.6370   18.2990 C   0  0  0  0  0  1  0  0  0  0  0  0
  -31.8360  -21.1890   19.3550 O   0  0  0  0  0  0  0  0  0  0  0  0
  -28.2530  -25.9140   20.5510 O   0  0  0  0  0  0  0  0  0  0  0  0
  -24.5460  -31.8830   23.3180 C   0  0  0  0  0  0  0  0  0  0  0  0
  -27.2080  -26.9800   20.4270 C   0  0  0  0  0  0  0  0  0  0  0  0
  -23.3990  -30.4620   21.6680 C   0  0  0  0  0  3  0  0  0  0  0  0
  -24.8860  -28.8400   20.3070 C   0  0  0  0  0  0  0  0  0  0  0  0
  -25.9670  -30.6820   21.5800 C   0  0  0  0  0  2  0  0  0  0  0  0
  -26.0590  -29.2640   20.9440 C   0  0  0  0  0  0  0  0  0  0  0  0
  -27.2110  -28.3560   20.9770 C   0  0  0  0  0  3  0  0  0  0  0  0
  -25.9860  -26.6920   19.7730 C   0  0  0  0  0  3  0  0  0  0  0  0
  -24.8740  -27.5700   19.7050 C   0  0  0  0  0  3  0  0  0  0  0  0
  -23.6650  -29.7570   20.3090 C   0  0  0  0  0  2  0  0  0  0  0  0
  -24.6580  -31.0360   22.2440 N   0  0  0  0  0  0  0  0  0  0  0  0
  -23.4430  -32.1760   23.8070 O   0  0  0  0  0  0  0  0  0  0  0  0
  -22.6790  -29.4790   22.6300 C   0  0  0  0  0  0  0  0  0  0  0  0
  -21.3550  -29.3030   22.4640 N   0  0  0  0  0  0  0  0  0  0  0  0
  -23.3210  -28.8770   23.4940 O   0  0  0  0  0  0  0  0  0  0  0  0
  -20.8900  -29.8450   21.7480 H   0  0  0  0  0  0  0  0  0  0  0  0
  -17.9690  -28.0580   22.8650 C   0  0  0  0  0  0  0  0  0  0  0  0
  -20.5130  -28.3710   23.2230 C   0  0  0  0  0  3  0  0  0  0  0  0
  -20.6580  -26.9260   22.6870 C   0  0  0  0  0  2  0  0  0  0  0  0
  -19.6010  -26.5640   21.6370 C   0  0  0  0  0  2  0  0  0  0  0  0
  -18.1930  -26.6980   22.2240 C   0  0  0  0  0  2  0  0  0  0  0  0
  -19.0580  -28.8500   23.3190 C   0  0  0  0  0  0  0  0  0  0  0  0
  -18.7930  -30.1190   23.8790 C   0  0  0  0  0  3  0  0  0  0  0  0
  -17.4750  -30.5960   23.9890 C   0  0  0  0  0  3  0  0  0  0  0  0
  -16.4000  -29.8030   23.5490 C   0  0  0  0  0  3  0  0  0  0  0  0
  -16.6480  -28.5350   22.9930 C   0  0  0  0  0  3  0  0  0  0  0  0
  -25.7970  -32.5360   23.9790 C   0  0  0  0  0  3  0  0  0  0  0  0
  -25.4830  -33.9500   24.2540 N   0  0  0  0  0  0  0  0  0  0  0  0
  -25.8460  -34.9810   23.4800 C   0  0  0  0  0  0  0  0  0  0  0  0
  -26.5430  -34.8440   22.4730 O   0  0  0  0  0  0  0  0  0  0  0  0
  -24.8690  -34.1300   25.0340 H   0  0  0  0  0  0  0  0  0  0  0  0
  -24.1530  -36.7900   23.0240 C   0  0  0  0  0  1  0  0  0  0  0  0
  -25.3620  -36.3900   23.8850 C   0  0  0  0  0  3  0  0  0  0  0  0
  -27.4740  -37.2840   24.7680 C   0  0  0  0  0  1  0  0  0  0  0  0
  -26.4120  -37.4280   23.7780 N   0  0  0  0  0  0  0  0  0  0  0  0
  -26.0120  -38.3580   23.8750 H   0  0  0  0  0  0  0  0  0  0  0  0
  -26.2420  -31.8120   25.3100 C   0  0  1  0  0  0  0  0  0  0  0  0
  -25.0940  -31.6180   26.3300 C   0  0  0  0  0  1  0  0  0  0  0  0
  -26.8390  -30.4180   25.0090 C   0  0  0  0  0  1  0  0  0  0  0  0
  -27.3590  -32.6280   26.0020 C   0  0  0  0  0  1  0  0  0  0  0  0
  1  2  1  0
  2 11  1  0
  2  4  2  0
  3  5  1  0
  3  1  2  0
  4 15  1  0
  5  6  2  0
  6 56  1  0
  6  4  1  0
  7  1  1  0
  7 13  1  0
  8  9  1  0
  8 12  1  0
  9 13  1  0
 11 10  1  0
 12 17  1  6
 12 18  1  0
 12 10  1  0
 13 55  1  1
 13 11  1  0
 14  3  1  0
 16  5  1  0
 19 24  1  0
 20 21  1  0
 20 19  1  0
 22 21  1  0
 22 29  1  0
 22 23  1  0
 24 18  1  0
 24 23  1  0
 25 18  2  0
 26 27  2  0
 27 46  1  0
 28 27  1  0
 28 31  1  0
 29 26  1  0
 29 30  1  0
 30 28  2  0
 31 32  1  0
 32 33  2  0
 34 37  1  0
 34 33  1  0
 35 34  2  0
 36 35  1  0
 36 31  2  0
 37 38  1  0
 38 39  1  0
 39 40  2  0
 41 40  1  0
 41 45  1  0
 42 41  2  0
 43 38  2  0
 43 42  1  0
 44 43  1  0
 46 47  1  0
 47 50  1  0
 47 49  1  0
 48 46  2  0
 51 52  1  0
 51 26  1  0
 53 51  1  0
 54 55  1  0
 57 68  2  0
 58 56  1  0
 58 63  1  0
 59 67  1  0
 59 69  1  0
 60 66  1  0
 60 62  1  0
 61 67  1  0
 62 63  2  0
 62 61  1  0
 64 58  2  0
 65 64  1  0
 65 60  2  0
 66 59  1  0
 67 57  1  0
 69 71  2  0
 70 69  1  0
 72 70  1  0
 73 82  2  0
 73 78  1  0
 74 70  1  0
 74 78  1  0
 75 74  1  0
 76 77  1  0
 76 75  1  0
 77 73  1  0
 78 79  2  0
 79 80  1  0
 81 80  2  0
 82 81  1  0
 83 57  1  0
 83 84  1  0
 83 93  1  0
 84 87  1  0
 85 89  1  0
 85 84  1  0
 86 85  2  0
 89 88  1  0
 91 92  1  0
 91 89  1  0
 91 90  1  0
 93 96  1  1
 93 94  1  0
 95 93  1  0
M  ISO  4   6 101  12 100  18 100  56 101
M  END
>  <TORSDO>  (9) 
F 17

>  <SCORE>  (9) 
-15.220

>  <name>  (9) 
8

>  <ligand_id>  (9) 
8

>  <original_smiles>  (9) 
[H]c1c([H])c([H])c2c(c1[H])C([H])([H])C([H])([H])C([H])([H])C2([H])N([H])C(=O)C1([H])N(C(=O)C([H])(N([H])C(=O)C([H])(N([H])C([H])([H])[H])C([H])([H])[H])C(C([H])([H])[H])(C([H])([H])[H])C([H])([H])[H])C([H])([H])c2c([H])c(Oc3c(C([H])([H])[H])c(C([H])([H])[H])c4c(c3C([H])([H])[H])C3([H])C([H])([H])C(C(=O)N5C([H])([H])C([H])([H])C([H])([H])C([H])(n6nc(-c7c([H])c([H])c(Oc8c([H])c([H])c(F)c([H])c8F)c([H])c7[H])c(C(=O)N([H])[H])c6N([H])[H])C5([H])[H])(C([H])([H])[H])C([H])([H])C([H])([H])C3(OC([H])([H])[H])C4([H])[H])c([H])c([H])c2C1([H])[H]

>  <smiles>  (9) 
[H]c1c([H])c([H])c2c(c1[H])C([H])([H])C([H])([H])C([H])([H])C2([H])N([H])C(=O)C1([H])N(C(=O)C([H])(N([H])C(=O)C([H])(N([H])C([H])([H])[H])C([H])([H])[H])C(C([H])([H])[H])(C([H])([H])[H])C([H])([H])[H])C([H])([H])c2c([H])c(Oc3c(C([H])([H])[H])c(C([H])([H])[H])c4c(c3C([H])([H])[H])C3([H])C([H])([H])C(C(=O)N5C([H])([H])C([H])([H])C([H])([H])C([H])(n6nc(-c7c([H])c([H])c(Oc8c([H])c([H])c(F)c([H])c8F)c([H])c7[H])c(C(=O)N([H])[H])c6N([H])[H])C5([H])[H])(C([H])([H])[H])C([H])([H])C([H])([H])C3(OC([H])([H])[H])C4([H])[H])c([H])c([H])c2C1([H])[H]

$$$$
9:0:0
     RDKit          3D

 87 95  0  0  1  0  0  0  0  0999 V2000
  -28.6980  -21.8840   20.1440 C   0  0  0  0  0  3  0  0  0  0  0  0
  -29.5560  -20.5470   20.6890 C   0  0  0  0  0  3  0  0  0  0  0  0
  -28.1260  -17.5590   18.5950 C   0  0  0  0  0  3  0  0  0  0  0  0
  -28.8200  -16.4040   19.0120 C   0  0  0  0  0  3  0  0  0  0  0  0
  -28.3520  -18.8210   19.1760 C   0  0  0  0  0  3  0  0  0  0  0  0
  -29.9850  -17.7530   20.6380 C   0  0  0  0  0  3  0  0  0  0  0  0
  -29.7360  -16.3930   20.0890 C   0  0  0  0  0  0  0  0  0  0  0  0
  -29.3070  -19.0040   20.1950 C   0  0  0  0  0  0  0  0  0  0  0  0
  -30.5190  -15.0160   20.3520 C   0  0  0  0  0  0  0  0  0  0  0  0
  -30.3940  -12.6570   19.4650 C   0  0  0  0  0  2  0  0  0  0  0  0
  -29.4640  -12.6040   18.2310 C   0  0  0  0  0  2  0  0  0  0  0  0
  -27.9980  -12.3910   18.6580 C   0  0  0  0  0  2  0  0  0  0  0  0
  -27.5740  -13.3070   19.8350 C   0  0  0  0  0  3  0  0  0  0  0  0
  -28.6350  -13.3710   20.9510 C   0  0  0  0  0  2  0  0  0  0  0  0
  -29.9140  -13.7600   20.3410 N   0  0  0  0  0  0  0  0  0  0  0  0
  -31.7490  -15.0460   20.2380 O   0  0  0  0  0  0  0  0  0  0  0  0
  -25.1950  -13.8750   20.5760 C   0  0  0  0  0  0  0  0  0  0  0  0
  -24.1350  -13.0920   20.9330 C   0  0  0  0  0  0  0  0  0  0  0  0
  -24.6100  -11.7440   20.9010 C   0  0  0  0  0  0  0  0  0  0  0  0
  -26.2440  -13.0010   20.3390 N   0  0  0  0  0  0  0  0  0  0  0  0
  -25.9020  -11.7160   20.6010 N   0  0  0  0  0  0  0  0  0  0  0  0
  -23.8940  -10.4770   21.0790 C   0  0  0  0  0  0  0  0  0  0  0  0
  -24.3250   -9.5120   22.0160 C   0  0  0  0  0  3  0  0  0  0  0  0
  -23.6090   -8.3080   22.1840 C   0  0  0  0  0  3  0  0  0  0  0  0
  -22.4480   -8.0600   21.4130 C   0  0  0  0  0  0  0  0  0  0  0  0
  -22.0370   -9.0130   20.4650 C   0  0  0  0  0  3  0  0  0  0  0  0
  -22.7540  -10.2090   20.2960 C   0  0  0  0  0  3  0  0  0  0  0  0
  -21.7030   -6.9090   21.4910 O   0  0  0  0  0  0  0  0  0  0  0  0
  -21.6350   -6.1720   22.6460 C   0  0  0  0  0  0  0  0  0  0  0  0
  -21.1430   -6.7190   23.8510 C   0  0  0  0  0  3  0  0  0  0  0  0
  -21.0260   -5.9080   24.9970 C   0  0  0  0  0  3  0  0  0  0  0  0
  -21.3910   -4.5490   24.9380 C   0  0  0  0  0  0  0  0  0  0  0  0
  -21.8780   -4.0020   23.7370 C   0  0  0  0  0  3  0  0  0  0  0  0
  -21.9970   -4.8120   22.5930 C   0  0  0  0  0  0  0  0  0  0  0  0
  -22.4460   -4.2740   21.4340 F   0  0  0  0  0  0  0  0  0  0  0  0
  -21.2720   -3.7670   26.0350 F   0  0  0  0  0  0  0  0  0  0  0  0
  -22.7320  -13.5570   21.1940 C   0  0  0  0  0  0  0  0  0  0  0  0
  -21.9990  -12.8460   22.0430 N   0  0  0  0  0  0  0  0  0  0  0  0
  -22.2940  -14.5860   20.6810 O   0  0  0  0  0  0  0  0  0  0  0  0
  -22.3670  -12.0130   22.4800 H   0  0  0  0  0  0  0  0  0  0  0  0
  -21.0570  -13.1390   22.2600 H   0  0  0  0  0  0  0  0  0  0  0  0
  -25.3510  -15.2490   20.4070 N   0  0  0  0  0  0  0  0  0  0  0  0
  -24.5830  -15.9000   20.5290 H   0  0  0  0  0  0  0  0  0  0  0  0
  -26.2120  -15.7000   20.1220 H   0  0  0  0  0  0  0  0  0  0  0  0
  -28.9910  -23.4900   20.5400 C   0  0  0  0  0  3  0  0  0  0  0  0
  -28.0280  -24.7800   20.0820 C   0  0  0  0  0  3  0  0  0  0  0  0
  -28.2730  -26.2880   20.3370 O   0  0  0  0  0  0  0  0  0  0  0  0
  -24.6430  -31.9450   23.2910 C   0  0  0  0  0  0  0  0  0  0  0  0
  -27.2110  -27.2540   20.2520 C   0  0  0  0  0  0  0  0  0  0  0  0
  -23.4390  -30.5600   21.6450 C   0  0  0  0  0  3  0  0  0  0  0  0
  -24.8830  -28.9870   20.2180 C   0  0  0  0  0  0  0  0  0  0  0  0
  -25.9920  -30.8220   21.4850 C   0  0  0  0  0  2  0  0  0  0  0  0
  -26.0610  -29.4340   20.8300 C   0  0  0  0  0  0  0  0  0  0  0  0
  -27.2260  -28.5830   20.8320 C   0  0  0  0  0  3  0  0  0  0  0  0
  -26.0100  -26.9040   19.5970 C   0  0  0  0  0  3  0  0  0  0  0  0
  -24.8690  -27.7350   19.5860 C   0  0  0  0  0  3  0  0  0  0  0  0
  -23.6580  -29.8850   20.2660 C   0  0  0  0  0  2  0  0  0  0  0  0
  -24.7110  -31.1300   22.1950 N   0  0  0  0  0  0  0  0  0  0  0  0
  -23.5570  -32.2340   23.8190 O   0  0  0  0  0  0  0  0  0  0  0  0
  -22.7550  -29.5530   22.6030 C   0  0  0  0  0  0  0  0  0  0  0  0
  -21.4300  -29.3750   22.4610 N   0  0  0  0  0  0  0  0  0  0  0  0
  -23.4200  -28.9340   23.4380 O   0  0  0  0  0  0  0  0  0  0  0  0
  -20.9510  -29.9250   21.7620 H   0  0  0  0  0  0  0  0  0  0  0  0
  -18.0480  -28.1640   22.9260 C   0  0  0  0  0  0  0  0  0  0  0  0
  -20.6020  -28.4390   23.2250 C   0  0  0  0  0  3  0  0  0  0  0  0
  -20.7170  -27.0030   22.6610 C   0  0  0  0  0  2  0  0  0  0  0  0
  -19.6300  -26.6700   21.6330 C   0  0  0  0  0  2  0  0  0  0  0  0
  -18.2390  -26.8130   22.2580 C   0  0  0  0  0  2  0  0  0  0  0  0
  -19.1580  -28.9340   23.3650 C   0  0  0  0  0  0  0  0  0  0  0  0
  -18.9250  -30.1980   23.9500 C   0  0  0  0  0  3  0  0  0  0  0  0
  -17.6150  -30.6930   24.0990 C   0  0  0  0  0  3  0  0  0  0  0  0
  -16.5190  -29.9210   23.6740 C   0  0  0  0  0  3  0  0  0  0  0  0
  -16.7370  -28.6580   23.0940 C   0  0  0  0  0  3  0  0  0  0  0  0
  -25.9240  -32.5730   23.9220 C   0  0  0  0  0  3  0  0  0  0  0  0
  -26.4080  -31.8170   25.2210 C   0  0  1  0  0  0  0  0  0  0  0  0
  -25.2950  -31.6140   26.2750 C   0  0  0  0  0  1  0  0  0  0  0  0
  -26.9790  -30.4250   24.8670 C   0  0  0  0  0  1  0  0  0  0  0  0
  -27.5590  -32.6080   25.8870 C   0  0  0  0  0  1  0  0  0  0  0  0
  -25.6290  -33.9810   24.2280 N   0  0  0  0  0  0  0  0  0  0  0  0
  -25.9760  -35.0190   23.4560 C   0  0  0  0  0  0  0  0  0  0  0  0
  -26.6470  -34.8920   22.4280 O   0  0  0  0  0  0  0  0  0  0  0  0
  -25.0340  -34.1540   25.0240 H   0  0  0  0  0  0  0  0  0  0  0  0
  -24.2780  -36.8360   23.0710 C   0  0  0  0  0  1  0  0  0  0  0  0
  -25.5080  -36.4220   23.8940 C   0  0  0  0  0  3  0  0  0  0  0  0
  -27.6480  -37.2920   24.7290 C   0  0  0  0  0  1  0  0  0  0  0  0
  -26.5580  -37.4580   23.7720 N   0  0  0  0  0  0  0  0  0  0  0  0
  -26.1640  -38.3860   23.8970 H   0  0  0  0  0  0  0  0  0  0  0  0
  1 45  1  0
  1  2  2  0
  3  4  2  0
  3  5  1  0
  4  7  1  0
  5  8  2  0
  7  9  1  0
  7  6  2  0
  8  6  1  0
  8  2  1  0
 10 15  1  0
 11 12  1  0
 11 10  1  0
 13 12  1  0
 13 20  1  0
 13 14  1  0
 15  9  1  0
 15 14  1  0
 16  9  2  0
 17 18  2  0
 18 37  1  0
 19 18  1  0
 19 22  1  0
 20 17  1  0
 20 21  1  0
 21 19  2  0
 22 23  1  0
 23 24  2  0
 25 28  1  0
 25 24  1  0
 26 25  2  0
 27 26  1  0
 27 22  2  0
 28 29  1  0
 29 30  1  0
 30 31  2  0
 32 31  1  0
 32 36  1  0
 33 32  2  0
 34 29  2  0
 34 33  1  0
 35 34  1  0
 37 38  1  0
 38 41  1  0
 38 40  1  0
 39 37  2  0
 42 43  1  0
 42 17  1  0
 44 42  1  0
 46 47  1  0
 46 45  2  0
 48 59  2  0
 49 47  1  0
 49 54  1  0
 50 58  1  0
 50 60  1  0
 51 57  1  0
 51 53  1  0
 52 58  1  0
 53 54  2  0
 53 52  1  0
 55 49  2  0
 56 55  1  0
 56 51  2  0
 57 50  1  0
 58 48  1  0
 60 62  2  0
 61 60  1  0
 63 61  1  0
 64 73  2  0
 64 69  1  0
 65 61  1  0
 65 69  1  0
 66 65  1  0
 67 68  1  0
 67 66  1  0
 68 64  1  0
 69 70  2  0
 70 71  1  0
 72 71  2  0
 73 72  1  0
 74 48  1  0
 74 79  1  0
 74 75  1  0
 75 78  1  1
 75 76  1  0
 77 75  1  0
 79 82  1  0
 80 84  1  0
 80 79  1  0
 81 80  2  0
 84 83  1  0
 86 84  1  0
 86 87  1  0
 86 85  1  0
M  ISO  4   7 100   9 100  46 101  47 101
M  END
>  <TORSDO>  (10) 
F 20

>  <SCORE>  (10) 
-13.873

>  <name>  (10) 
9

>  <ligand_id>  (10) 
9

>  <original_smiles>  (10) 
[H]c1c([H])c(C(=O)N2C([H])([H])C([H])([H])C([H])([H])C([H])(n3nc(-c4c([H])c([H])c(Oc5c([H])c([H])c(F)c([H])c5F)c([H])c4[H])c(C(=O)N([H])[H])c3N([H])[H])C2([H])[H])c([H])c(C([H])([H])C([H])([H])C([H])([H])C([H])([H])Oc2c([H])c([H])c3c(c2[H])C([H])([H])N(C(=O)C([H])(N([H])C(=O)C([H])(N([H])C([H])([H])[H])C([H])([H])[H])C(C([H])([H])[H])(C([H])([H])[H])C([H])([H])[H])C([H])(C(=O)N([H])C2([H])c4c([H])c([H])c([H])c([H])c4C([H])([H])C([H])([H])C2([H])[H])C3([H])[H])c1[H]

>  <smiles>  (10) 
[H]c1c([H])c(C(=O)N2C([H])([H])C([H])([H])C([H])([H])C([H])(n3nc(-c4c([H])c([H])c(Oc5c([H])c([H])c(F)c([H])c5F)c([H])c4[H])c(C(=O)N([H])[H])c3N([H])[H])C2([H])[H])c([H])c(C([H])([H])C([H])([H])C([H])([H])C([H])([H])Oc2c([H])c([H])c3c(c2[H])C([H])([H])N(C(=O)C([H])(N([H])C(=O)C([H])(N([H])C([H])([H])[H])C([H])([H])[H])C(C([H])([H])[H])(C([H])([H])[H])C([H])([H])[H])C([H])(C(=O)N([H])C2([H])c4c([H])c([H])c([H])c([H])c4C([H])([H])C([H])([H])C2([H])[H])C3([H])[H])c1[H]

$$$$
10:0:0
     RDKit          3D

 89 97  0  0  1  0  0  0  0  0999 V2000
  -29.6670  -20.6740   20.2760 C   0  0  0  0  0  3  0  0  0  0  0  0
  -28.0560  -19.0740   19.4300 C   0  0  0  0  0  3  0  0  0  0  0  0
  -27.5860  -21.5110   19.3560 C   0  0  0  0  0  3  0  0  0  0  0  0
  -29.3230  -19.2540   20.0250 C   0  0  0  0  0  0  0  0  0  0  0  0
  -28.8150  -21.8470   19.9600 C   0  0  0  0  0  0  0  0  0  0  0  0
  -27.2180  -20.1670   19.1020 C   0  0  0  0  0  0  0  0  0  0  0  0
  -26.0150  -19.9060   18.5130 O   0  0  0  0  0  0  0  0  0  0  0  0
  -25.5190  -20.6900   18.2900 H   0  0  0  0  0  0  0  0  0  0  0  0
  -30.2500  -17.9210   20.2990 C   0  0  0  0  0  3  0  0  0  0  0  0
  -29.6850  -16.3440   20.4350 C   0  0  0  0  0  3  0  0  0  0  0  0
  -30.5670  -14.9520   20.2620 C   0  0  0  0  0  0  0  0  0  0  0  0
  -30.4760  -12.5810   19.3780 C   0  0  0  0  0  2  0  0  0  0  0  0
  -29.5520  -12.5580   18.1360 C   0  0  0  0  0  2  0  0  0  0  0  0
  -28.0810  -12.3650   18.5490 C   0  0  0  0  0  2  0  0  0  0  0  0
  -27.6700  -13.2990   19.7170 C   0  0  0  0  0  3  0  0  0  0  0  0
  -28.7140  -13.3000   20.8520 C   0  0  0  0  0  2  0  0  0  0  0  0
  -30.0070  -13.6770   20.2690 N   0  0  0  0  0  0  0  0  0  0  0  0
  -31.7630  -15.0330   19.9580 O   0  0  0  0  0  0  0  0  0  0  0  0
  -25.2920  -13.9200   20.4370 C   0  0  0  0  0  0  0  0  0  0  0  0
  -24.2150  -13.1640   20.8080 C   0  0  0  0  0  0  0  0  0  0  0  0
  -24.6620  -11.8060   20.7900 C   0  0  0  0  0  0  0  0  0  0  0  0
  -26.3230  -13.0260   20.2060 N   0  0  0  0  0  0  0  0  0  0  0  0
  -25.9520  -11.7480   20.4820 N   0  0  0  0  0  0  0  0  0  0  0  0
  -23.9170  -10.5560   20.9880 C   0  0  0  0  0  0  0  0  0  0  0  0
  -24.3320   -9.5890   21.9280 C   0  0  0  0  0  3  0  0  0  0  0  0
  -23.5880   -8.4040   22.1160 C   0  0  0  0  0  3  0  0  0  0  0  0
  -22.4140   -8.1770   21.3590 C   0  0  0  0  0  0  0  0  0  0  0  0
  -22.0170   -9.1330   20.4080 C   0  0  0  0  0  3  0  0  0  0  0  0
  -22.7620  -10.3090   20.2190 C   0  0  0  0  0  3  0  0  0  0  0  0
  -21.6430   -7.0440   21.4520 O   0  0  0  0  0  0  0  0  0  0  0  0
  -21.5780   -6.3100   22.6090 C   0  0  0  0  0  0  0  0  0  0  0  0
  -21.1550   -6.8810   23.8290 C   0  0  0  0  0  3  0  0  0  0  0  0
  -21.0360   -6.0750   24.9790 C   0  0  0  0  0  3  0  0  0  0  0  0
  -21.3290   -4.6990   24.9110 C   0  0  0  0  0  0  0  0  0  0  0  0
  -21.7450   -4.1290   23.6950 C   0  0  0  0  0  3  0  0  0  0  0  0
  -21.8660   -4.9320   22.5480 C   0  0  0  0  0  0  0  0  0  0  0  0
  -22.2470   -4.3730   21.3740 F   0  0  0  0  0  0  0  0  0  0  0  0
  -21.2080   -3.9240   26.0140 F   0  0  0  0  0  0  0  0  0  0  0  0
  -22.8230  -13.6630   21.0670 C   0  0  0  0  0  0  0  0  0  0  0  0
  -22.0820  -12.9890   21.9380 N   0  0  0  0  0  0  0  0  0  0  0  0
  -22.3990  -14.6860   20.5290 O   0  0  0  0  0  0  0  0  0  0  0  0
  -22.4370  -12.1650   22.3970 H   0  0  0  0  0  0  0  0  0  0  0  0
  -21.1470  -13.3040   22.1520 H   0  0  0  0  0  0  0  0  0  0  0  0
  -25.4780  -15.2880   20.2520 N   0  0  0  0  0  0  0  0  0  0  0  0
  -24.7250  -15.9600   20.3590 H   0  0  0  0  0  0  0  0  0  0  0  0
  -26.3400  -15.7060   19.9300 H   0  0  0  0  0  0  0  0  0  0  0  0
  -29.1300  -23.4340   20.2510 C   0  0  0  0  0  3  0  0  0  0  0  0
  -28.1200  -24.7180   19.8730 C   0  0  0  0  0  3  0  0  0  0  0  0
  -28.3560  -26.2270   20.1380 O   0  0  0  0  0  0  0  0  0  0  0  0
  -24.5940  -31.7790   23.1560 C   0  0  0  0  0  0  0  0  0  0  0  0
  -27.2780  -27.1770   20.0740 C   0  0  0  0  0  0  0  0  0  0  0  0
  -23.4340  -30.3960   21.4790 C   0  0  0  0  0  3  0  0  0  0  0  0
  -24.9190  -28.8710   20.0440 C   0  0  0  0  0  0  0  0  0  0  0  0
  -25.9840  -30.7060   21.3480 C   0  0  0  0  0  2  0  0  0  0  0  0
  -26.0860  -29.3290   20.6720 C   0  0  0  0  0  0  0  0  0  0  0  0
  -27.2650  -28.4990   20.6690 C   0  0  0  0  0  3  0  0  0  0  0  0
  -26.0840  -26.8130   19.4120 C   0  0  0  0  0  3  0  0  0  0  0  0
  -24.9310  -27.6260   19.3980 C   0  0  0  0  0  3  0  0  0  0  0  0
  -23.6790  -29.7480   20.0910 C   0  0  0  0  0  2  0  0  0  0  0  0
  -24.6900  -30.9810   22.0490 N   0  0  0  0  0  0  0  0  0  0  0  0
  -23.4980  -32.0390   23.6750 O   0  0  0  0  0  0  0  0  0  0  0  0
  -22.7590  -29.3620   22.4140 C   0  0  0  0  0  0  0  0  0  0  0  0
  -21.4280  -29.2030   22.2940 N   0  0  0  0  0  0  0  0  0  0  0  0
  -23.4350  -28.7050   23.2110 O   0  0  0  0  0  0  0  0  0  0  0  0
  -20.9410  -29.7860   21.6270 H   0  0  0  0  0  0  0  0  0  0  0  0
  -18.0360  -28.0520   22.8330 C   0  0  0  0  0  0  0  0  0  0  0  0
  -20.6060  -28.2490   23.0440 C   0  0  0  0  0  3  0  0  0  0  0  0
  -20.6630  -26.8430   22.4040 C   0  0  0  0  0  2  0  0  0  0  0  0
  -19.5290  -26.5880   21.4060 C   0  0  0  0  0  2  0  0  0  0  0  0
  -18.1660  -26.7320   22.0910 C   0  0  0  0  0  2  0  0  0  0  0  0
  -19.1820  -28.7720   23.2650 C   0  0  0  0  0  0  0  0  0  0  0  0
  -19.0030  -30.0090   23.9210 C   0  0  0  0  0  3  0  0  0  0  0  0
  -17.7130  -30.5260   24.1460 C   0  0  0  0  0  3  0  0  0  0  0  0
  -16.5830  -29.8020   23.7250 C   0  0  0  0  0  3  0  0  0  0  0  0
  -16.7460  -28.5660   23.0750 C   0  0  0  0  0  3  0  0  0  0  0  0
  -25.8560  -32.4220   23.8090 C   0  0  0  0  0  3  0  0  0  0  0  0
  -25.5240  -33.8140   24.1490 N   0  0  0  0  0  0  0  0  0  0  0  0
  -25.8510  -34.8800   23.4070 C   0  0  0  0  0  0  0  0  0  0  0  0
  -26.5280  -34.7950   22.3800 O   0  0  0  0  0  0  0  0  0  0  0  0
  -24.9190  -33.9520   24.9460 H   0  0  0  0  0  0  0  0  0  0  0  0
  -24.1010  -36.6580   23.0660 C   0  0  0  0  0  1  0  0  0  0  0  0
  -25.3460  -36.2590   23.8750 C   0  0  0  0  0  3  0  0  0  0  0  0
  -27.4670  -37.1660   24.7190 C   0  0  0  0  0  1  0  0  0  0  0  0
  -26.3670  -37.3270   23.7730 N   0  0  0  0  0  0  0  0  0  0  0  0
  -25.9490  -38.2410   23.9220 H   0  0  0  0  0  0  0  0  0  0  0  0
  -26.3520  -31.6450   25.0920 C   0  0  1  0  0  0  0  0  0  0  0  0
  -25.2390  -31.3920   26.1370 C   0  0  0  0  0  1  0  0  0  0  0  0
  -26.9520  -30.2730   24.7060 C   0  0  0  0  0  1  0  0  0  0  0  0
  -27.4830  -32.4430   25.7820 C   0  0  0  0  0  1  0  0  0  0  0  0
  2  4  2  0
  3  5  1  0
  4  1  1  0
  4  9  1  0
  5 47  1  0
  5  1  2  0
  6  3  2  0
  6  2  1  0
  7  6  1  0
  8  7  1  0
  9 10  2  0
 11 17  1  0
 11 10  1  0
 12 17  1  0
 13 14  1  0
 13 12  1  0
 15 14  1  0
 15 22  1  0
 15 16  1  0
 17 16  1  0
 18 11  2  0
 19 20  2  0
 20 39  1  0
 21 20  1  0
 21 24  1  0
 22 19  1  0
 22 23  1  0
 23 21  2  0
 24 25  1  0
 25 26  2  0
 27 30  1  0
 27 26  1  0
 28 27  2  0
 29 28  1  0
 29 24  2  0
 30 31  1  0
 31 32  1  0
 32 33  2  0
 34 33  1  0
 34 38  1  0
 35 34  2  0
 36 31  2  0
 36 35  1  0
 37 36  1  0
 39 40  1  0
 40 43  1  0
 40 42  1  0
 41 39  2  0
 44 45  1  0
 44 19  1  0
 46 44  1  0
 48 49  1  0
 48 47  2  0
 50 61  2  0
 51 49  1  0
 51 56  1  0
 52 60  1  0
 52 62  1  0
 53 59  1  0
 53 55  1  0
 54 60  1  0
 55 54  1  0
 56 55  2  0
 57 51  2  0
 58 57  1  0
 58 53  2  0
 59 52  1  0
 60 50  1  0
 62 64  2  0
 63 62  1  0
 65 63  1  0
 66 75  2  0
 66 71  1  0
 67 63  1  0
 67 71  1  0
 68 67  1  0
 69 70  1  0
 69 68  1  0
 70 66  1  0
 71 72  2  0
 72 73  1  0
 74 73  2  0
 75 74  1  0
 76 50  1  0
 76 77  1  0
 76 86  1  0
 77 80  1  0
 78 82  1  0
 78 77  1  0
 79 78  2  0
 82 81  1  0
 84 82  1  0
 84 85  1  0
 84 83  1  0
 86 89  1  1
 86 87  1  0
 88 86  1  0
M  ISO  4  10 100  11 100  48 101  49 101
M  END
>  <TORSDO>  (11) 
F 21

>  <SCORE>  (11) 
-13.580

>  <name>  (11) 
10

>  <ligand_id>  (11) 
10

>  <original_smiles>  (11) 
[H]Oc1c([H])c(C([H])([H])C([H])([H])Oc2c([H])c([H])c3c(c2[H])C([H])([H])N(C(=O)C([H])(N([H])C(=O)C([H])(N([H])C([H])([H])[H])C([H])([H])[H])C(C([H])([H])[H])(C([H])([H])[H])C([H])([H])[H])C([H])(C(=O)N([H])C2([H])c4c([H])c([H])c([H])c([H])c4C([H])([H])C([H])([H])C2([H])[H])C3([H])[H])c([H])c(C([H])([H])C([H])([H])C(=O)N2C([H])([H])C([H])([H])C([H])([H])C([H])(n3nc(-c4c([H])c([H])c(Oc5c([H])c([H])c(F)c([H])c5F)c([H])c4[H])c(C(=O)N([H])[H])c3N([H])[H])C2([H])[H])c1[H]

>  <smiles>  (11) 
[H]Oc1c([H])c(C([H])([H])C([H])([H])Oc2c([H])c([H])c3c(c2[H])C([H])([H])N(C(=O)C([H])(N([H])C(=O)C([H])(N([H])C([H])([H])[H])C([H])([H])[H])C(C([H])([H])[H])(C([H])([H])[H])C([H])([H])[H])C([H])(C(=O)N([H])C2([H])c4c([H])c([H])c([H])c([H])c4C([H])([H])C([H])([H])C2([H])[H])C3([H])[H])c([H])c(C([H])([H])C([H])([H])C(=O)N2C([H])([H])C([H])([H])C([H])([H])C([H])(n3nc(-c4c([H])c([H])c(Oc5c([H])c([H])c(F)c([H])c5F)c([H])c4[H])c(C(=O)N([H])[H])c3N([H])[H])C2([H])[H])c1[H]

$$$$
11:0:0
     RDKit          3D

 88 97  0  0  1  0  0  0  0  0999 V2000
  -29.7060  -21.6700   19.4860 C   0  0  0  0  0  3  0  0  0  0  0  0
  -29.4800  -20.1340   19.7400 C   0  0  0  0  0  0  0  0  0  0  0  0
  -28.2210  -20.0280   20.2350 C   0  0  0  0  0  0  0  0  0  0  0  0
  -28.7160  -22.7210   19.7930 C   0  0  0  0  0  0  0  0  0  0  0  0
  -30.2890  -18.6420   19.5210 C   0  0  0  0  0  2  0  0  0  0  0  0
  -27.5860  -18.6620   20.5540 C   0  0  0  0  0  2  0  0  0  0  0  0
  -28.2110  -17.3120   19.9400 C   0  0  0  0  0  2  0  0  0  0  0  0
  -29.7590  -17.0640   20.0840 C   0  0  2  0  0  0  0  0  0  0  0  0
  -30.0730  -17.1130   21.5970 C   0  0  0  0  0  1  0  0  0  0  0  0
  -27.4200  -21.6540   20.4410 S   0  0  0  0  0  0  0  0  0  0  0  0
  -30.4090  -15.4360   19.6950 C   0  0  0  0  0  0  0  0  0  0  0  0
  -30.4060  -12.9320   18.9330 C   0  0  0  0  0  2  0  0  0  0  0  0
  -29.4220  -12.6390   17.7700 C   0  0  0  0  0  2  0  0  0  0  0  0
  -28.0140  -12.3360   18.3100 C   0  0  0  0  0  2  0  0  0  0  0  0
  -27.6040  -13.3310   19.4230 C   0  0  0  0  0  3  0  0  0  0  0  0
  -28.7150  -13.5650   20.4700 C   0  0  0  0  0  2  0  0  0  0  0  0
  -29.8880  -14.0990   19.7540 N   0  0  0  0  0  0  0  0  0  0  0  0
  -31.5790  -15.4040   19.2790 O   0  0  0  0  0  0  0  0  0  0  0  0
  -25.3080  -13.8540   20.3970 C   0  0  0  0  0  0  0  0  0  0  0  0
  -24.2790  -13.0640   20.8260 C   0  0  0  0  0  0  0  0  0  0  0  0
  -24.7350  -11.7160   20.6970 C   0  0  0  0  0  0  0  0  0  0  0  0
  -26.3240  -12.9910   20.0300 N   0  0  0  0  0  0  0  0  0  0  0  0
  -25.9970  -11.6930   20.2760 N   0  0  0  0  0  0  0  0  0  0  0  0
  -24.0180  -10.4480   20.8950 C   0  0  0  0  0  0  0  0  0  0  0  0
  -24.4640   -9.4810   21.8240 C   0  0  0  0  0  3  0  0  0  0  0  0
  -23.7420   -8.2840   22.0110 C   0  0  0  0  0  3  0  0  0  0  0  0
  -22.5600   -8.0420   21.2700 C   0  0  0  0  0  0  0  0  0  0  0  0
  -22.1330   -8.9970   20.3310 C   0  0  0  0  0  3  0  0  0  0  0  0
  -22.8550  -10.1870   20.1420 C   0  0  0  0  0  3  0  0  0  0  0  0
  -21.8090   -6.8960   21.3680 O   0  0  0  0  0  0  0  0  0  0  0  0
  -21.6940   -6.2080   22.5500 C   0  0  0  0  0  0  0  0  0  0  0  0
  -21.1650   -6.8090   23.7130 C   0  0  0  0  0  3  0  0  0  0  0  0
  -21.0000   -6.0460   24.8860 C   0  0  0  0  0  3  0  0  0  0  0  0
  -21.3540   -4.6840   24.8970 C   0  0  0  0  0  0  0  0  0  0  0  0
  -21.8770   -4.0830   23.7390 C   0  0  0  0  0  3  0  0  0  0  0  0
  -22.0430   -4.8430   22.5680 C   0  0  0  0  0  0  0  0  0  0  0  0
  -22.5270   -4.2530   21.4480 F   0  0  0  0  0  0  0  0  0  0  0  0
  -21.1900   -3.9490   26.0220 F   0  0  0  0  0  0  0  0  0  0  0  0
  -22.9130  -13.5330   21.2310 C   0  0  0  0  0  0  0  0  0  0  0  0
  -22.2620  -12.8140   22.1360 N   0  0  0  0  0  0  0  0  0  0  0  0
  -22.4370  -14.5750   20.7800 O   0  0  0  0  0  0  0  0  0  0  0  0
  -22.6620  -11.9720   22.5220 H   0  0  0  0  0  0  0  0  0  0  0  0
  -21.3490  -13.1100   22.4520 H   0  0  0  0  0  0  0  0  0  0  0  0
  -25.4550  -15.2290   20.2590 N   0  0  0  0  0  0  0  0  0  0  0  0
  -24.6970  -15.8740   20.4560 H   0  0  0  0  0  0  0  0  0  0  0  0
  -26.2640  -15.6800   19.8540 H   0  0  0  0  0  0  0  0  0  0  0  0
  -28.3270  -24.3880   19.3210 C   0  0  0  0  0  2  0  0  0  0  0  0
  -28.4100  -25.8920   20.0270 O   0  0  0  0  0  0  0  0  0  0  0  0
  -24.6040  -31.6720   23.1270 C   0  0  0  0  0  0  0  0  0  0  0  0
  -27.3990  -27.0060   19.9370 C   0  0  0  0  0  0  0  0  0  0  0  0
  -23.4960  -30.3060   21.4060 C   0  0  0  0  0  3  0  0  0  0  0  0
  -25.0330  -28.8280   19.9340 C   0  0  0  0  0  0  0  0  0  0  0  0
  -26.0570  -30.6120   21.3230 C   0  0  0  0  0  2  0  0  0  0  0  0
  -26.1930  -29.2340   20.6040 C   0  0  0  0  0  0  0  0  0  0  0  0
  -27.3640  -28.3430   20.5900 C   0  0  0  0  0  3  0  0  0  0  0  0
  -26.2110  -26.7810   19.2010 C   0  0  0  0  0  3  0  0  0  0  0  0
  -25.0700  -27.6250   19.2130 C   0  0  0  0  0  3  0  0  0  0  0  0
  -23.7770  -29.6980   20.0040 C   0  0  0  0  0  2  0  0  0  0  0  0
  -24.7390  -30.8900   22.0070 N   0  0  0  0  0  0  0  0  0  0  0  0
  -23.4940  -31.8970   23.6390 O   0  0  0  0  0  0  0  0  0  0  0  0
  -22.8250  -29.2410   22.3150 C   0  0  0  0  0  0  0  0  0  0  0  0
  -21.5010  -29.0420   22.1710 N   0  0  0  0  0  0  0  0  0  0  0  0
  -23.5030  -28.5970   23.1190 O   0  0  0  0  0  0  0  0  0  0  0  0
  -21.0040  -29.6150   21.5040 H   0  0  0  0  0  0  0  0  0  0  0  0
  -18.1480  -27.7290   22.6260 C   0  0  0  0  0  0  0  0  0  0  0  0
  -20.7040  -28.0400   22.8880 C   0  0  0  0  0  3  0  0  0  0  0  0
  -20.8330  -26.6490   22.2250 C   0  0  0  0  0  2  0  0  0  0  0  0
  -19.7310  -26.3630   21.2000 C   0  0  0  0  0  2  0  0  0  0  0  0
  -18.3510  -26.4320   21.8610 C   0  0  0  0  0  2  0  0  0  0  0  0
  -19.2510  -28.4920   23.0950 C   0  0  0  0  0  0  0  0  0  0  0  0
  -19.0040  -29.7040   23.7730 C   0  0  0  0  0  3  0  0  0  0  0  0
  -17.6880  -30.1560   23.9860 C   0  0  0  0  0  3  0  0  0  0  0  0
  -16.6000  -29.3910   23.5320 C   0  0  0  0  0  3  0  0  0  0  0  0
  -16.8310  -28.1790   22.8590 C   0  0  0  0  0  3  0  0  0  0  0  0
  -25.8360  -32.3380   23.8110 C   0  0  0  0  0  3  0  0  0  0  0  0
  -25.4710  -33.7250   24.1540 N   0  0  0  0  0  0  0  0  0  0  0  0
  -25.7790  -34.8040   23.4230 C   0  0  0  0  0  0  0  0  0  0  0  0
  -26.4620  -34.7400   22.3970 O   0  0  0  0  0  0  0  0  0  0  0  0
  -24.8650  -33.8460   24.9520 H   0  0  0  0  0  0  0  0  0  0  0  0
  -23.9940  -36.5520   23.1030 C   0  0  0  0  0  1  0  0  0  0  0  0
  -25.2500  -36.1720   23.9030 C   0  0  0  0  0  3  0  0  0  0  0  0
  -27.3510  -37.1240   24.7480 C   0  0  0  0  0  1  0  0  0  0  0  0
  -26.2470  -37.2600   23.8010 N   0  0  0  0  0  0  0  0  0  0  0  0
  -25.8110  -38.1660   23.9520 H   0  0  0  0  0  0  0  0  0  0  0  0
  -26.3150  -31.5700   25.1050 C   0  0  1  0  0  0  0  0  0  0  0  0
  -25.1830  -31.2990   26.1250 C   0  0  0  0  0  1  0  0  0  0  0  0
  -26.9460  -30.2080   24.7390 C   0  0  0  0  0  1  0  0  0  0  0  0
  -27.4190  -32.3860   25.8200 C   0  0  0  0  0  1  0  0  0  0  0  0
  1  2  1  0
  1  4  2  0
  2  3  2  0
  3 10  1  0
  3  6  1  0
  4 10  1  0
  5  2  1  0
  5  8  1  0
  7  8  1  0
  7  6  1  0
  8  9  1  1
 11 17  1  0
 11  8  1  0
 12 17  1  0
 13 14  1  0
 13 12  1  0
 15 14  1  0
 15 22  1  0
 15 16  1  0
 17 16  1  0
 18 11  2  0
 19 20  2  0
 20 39  1  0
 21 20  1  0
 21 24  1  0
 22 23  1  0
 22 19  1  0
 23 21  2  0
 24 25  1  0
 25 26  2  0
 27 30  1  0
 27 26  1  0
 28 27  2  0
 29 28  1  0
 29 24  2  0
 30 31  1  0
 31 36  2  0
 31 32  1  0
 32 33  2  0
 33 34  1  0
 34 38  1  0
 35 34  2  0
 36 35  1  0
 37 36  1  0
 39 40  1  0
 40 43  1  0
 40 42  1  0
 41 39  2  0
 44 19  1  0
 44 45  1  0
 46 44  1  0
 47  4  1  0
 47 48  1  0
 49 60  2  0
 50 48  1  0
 50 55  1  0
 51 59  1  0
 51 61  1  0
 52 58  1  0
 52 54  1  0
 53 59  1  0
 54 53  1  0
 55 54  2  0
 56 57  1  0
 56 50  2  0
 57 52  2  0
 58 51  1  0
 59 49  1  0
 61 63  2  0
 62 61  1  0
 64 62  1  0
 65 74  2  0
 65 70  1  0
 66 62  1  0
 66 70  1  0
 67 66  1  0
 68 69  1  0
 68 67  1  0
 69 65  1  0
 70 71  2  0
 71 72  1  0
 73 72  2  0
 74 73  1  0
 75 49  1  0
 75 76  1  0
 75 85  1  0
 76 79  1  0
 77 81  1  0
 77 76  1  0
 78 77  2  0
 81 80  1  0
 83 81  1  0
 83 84  1  0
 83 82  1  0
 85 88  1  1
 85 86  1  0
 87 85  1  0
M  ISO  4   8 100  11 100  47 101  48 101
M  END
>  <TORSDO>  (12) 
F 17

>  <SCORE>  (12) 
-15.880

>  <name>  (12) 
11

>  <ligand_id>  (12) 
11

>  <original_smiles>  (12) 
[H]c1c([H])c([H])c2c(c1[H])C([H])([H])C([H])([H])C([H])([H])C2([H])N([H])C(=O)C1([H])N(C(=O)C([H])(N([H])C(=O)C([H])(N([H])C([H])([H])[H])C([H])([H])[H])C(C([H])([H])[H])(C([H])([H])[H])C([H])([H])[H])C([H])([H])c2c([H])c(OC([H])([H])c3sc4c(c3[H])C([H])([H])C(C(=O)N3C([H])([H])C([H])([H])C([H])([H])C([H])(n5nc(-c6c([H])c([H])c(Oc7c([H])c([H])c(F)c([H])c7F)c([H])c6[H])c(C(=O)N([H])[H])c5N([H])[H])C3([H])[H])(C([H])([H])[H])C([H])([H])C4([H])[H])c([H])c([H])c2C1([H])[H]

>  <smiles>  (12) 
[H]c1c([H])c([H])c2c(c1[H])C([H])([H])C([H])([H])C([H])([H])C2([H])N([H])C(=O)C1([H])N(C(=O)C([H])(N([H])C(=O)C([H])(N([H])C([H])([H])[H])C([H])([H])[H])C(C([H])([H])[H])(C([H])([H])[H])C([H])([H])[H])C([H])([H])c2c([H])c(OC([H])([H])c3sc4c(c3[H])C([H])([H])C(C(=O)N3C([H])([H])C([H])([H])C([H])([H])C([H])(n5nc(-c6c([H])c([H])c(Oc7c([H])c([H])c(F)c([H])c7F)c([H])c6[H])c(C(=O)N([H])[H])c5N([H])[H])C3([H])[H])(C([H])([H])[H])C([H])([H])C4([H])[H])c([H])c([H])c2C1([H])[H]

$$$$
12:0:0
     RDKit          3D

 90 98  0  0  1  0  0  0  0  0999 V2000
  -27.6820  -20.9310   20.0880 C   0  0  0  0  0  3  0  0  0  0  0  0
  -29.3200  -22.6790   20.2180 C   0  0  0  0  0  3  0  0  0  0  0  0
  -29.0900  -21.0320   20.1990 C   0  0  0  0  0  0  0  0  0  0  0  0
  -26.7690  -22.0420   20.0270 C   0  0  0  0  0  0  0  0  0  0  0  0
  -28.3620  -24.0390   20.1400 C   0  0  0  0  0  0  0  0  0  0  0  0
  -27.0640  -23.4560   20.0570 C   0  0  0  0  0  0  0  0  0  0  0  0
  -25.9900  -24.2820   20.0150 F   0  0  0  0  0  0  0  0  0  0  0  0
  -30.6310  -16.4510   20.4960 C   0  0  0  0  0  0  0  0  0  0  0  0
  -30.9220  -13.8050   19.8730 C   0  0  0  0  0  2  0  0  0  0  0  0
  -30.1800  -13.1870   18.6460 C   0  0  0  0  0  2  0  0  0  0  0  0
  -28.7520  -12.7670   19.0120 C   0  0  0  0  0  2  0  0  0  0  0  0
  -28.0940  -13.8230   19.9230 C   0  0  0  0  0  3  0  0  0  0  0  0
  -28.9980  -14.3350   21.0760 C   0  0  0  0  0  2  0  0  0  0  0  0
  -30.1670  -15.0280   20.4600 N   0  0  0  0  0  0  0  0  0  0  0  0
  -31.8790  -16.3490   20.4650 O   0  0  0  0  0  0  0  0  0  0  0  0
  -30.0550  -19.4640   20.2970 C   0  0  0  0  0  0  0  0  0  0  0  0
  -29.8510  -17.8680   20.4070 N   0  0  0  0  0  0  0  0  0  0  0  0
  -31.2540  -19.7580   20.2640 O   0  0  0  0  0  0  0  0  0  0  0  0
  -28.8600  -17.6850   20.4140 H   0  0  0  0  0  0  0  0  0  0  0  0
  -25.6900  -14.3160   20.5470 C   0  0  0  0  0  0  0  0  0  0  0  0
  -24.6140  -13.5260   20.8260 C   0  0  0  0  0  0  0  0  0  0  0  0
  -25.0920  -12.1790   20.7990 C   0  0  0  0  0  0  0  0  0  0  0  0
  -26.7530  -13.4570   20.3560 N   0  0  0  0  0  0  0  0  0  0  0  0
  -26.4040  -12.1600   20.5740 N   0  0  0  0  0  0  0  0  0  0  0  0
  -24.3550  -10.9120   20.9140 C   0  0  0  0  0  0  0  0  0  0  0  0
  -24.6880   -9.9460   21.8900 C   0  0  0  0  0  3  0  0  0  0  0  0
  -23.9470   -8.7490   21.9960 C   0  0  0  0  0  3  0  0  0  0  0  0
  -22.8580   -8.5070   21.1260 C   0  0  0  0  0  0  0  0  0  0  0  0
  -22.5440   -9.4620   20.1410 C   0  0  0  0  0  3  0  0  0  0  0  0
  -23.2860  -10.6500   20.0340 C   0  0  0  0  0  3  0  0  0  0  0  0
  -22.0980   -7.3630   21.1370 O   0  0  0  0  0  0  0  0  0  0  0  0
  -21.8890   -6.6490   22.2910 C   0  0  0  0  0  0  0  0  0  0  0  0
  -21.2520   -7.2210   23.4140 C   0  0  0  0  0  3  0  0  0  0  0  0
  -20.9940   -6.4320   24.5540 C   0  0  0  0  0  3  0  0  0  0  0  0
  -21.3640   -5.0740   24.5690 C   0  0  0  0  0  0  0  0  0  0  0  0
  -21.9940   -4.5020   23.4500 C   0  0  0  0  0  3  0  0  0  0  0  0
  -22.2530   -5.2880   22.3130 C   0  0  0  0  0  0  0  0  0  0  0  0
  -22.8400   -4.7270   21.2290 F   0  0  0  0  0  0  0  0  0  0  0  0
  -21.1110   -4.3140   25.6610 F   0  0  0  0  0  0  0  0  0  0  0  0
  -23.1990  -13.9950   21.0010 C   0  0  0  0  0  0  0  0  0  0  0  0
  -22.4120  -13.2800   21.7950 N   0  0  0  0  0  0  0  0  0  0  0  0
  -22.8020  -15.0310   20.4710 O   0  0  0  0  0  0  0  0  0  0  0  0
  -22.7460  -12.4410   22.2460 H   0  0  0  0  0  0  0  0  0  0  0  0
  -21.4590  -13.5770   21.9560 H   0  0  0  0  0  0  0  0  0  0  0  0
  -25.8540  -15.6910   20.4030 N   0  0  0  0  0  0  0  0  0  0  0  0
  -25.0740  -16.3360   20.4670 H   0  0  0  0  0  0  0  0  0  0  0  0
  -26.7130  -16.1330   20.1040 H   0  0  0  0  0  0  0  0  0  0  0  0
  -25.4450  -21.7260   19.9370 O   0  0  0  0  0  0  0  0  0  0  0  0
  -24.9330  -22.5310   19.9090 H   0  0  0  0  0  0  0  0  0  0  0  0
  -28.4370  -25.7240   20.1740 O   0  0  0  0  0  0  0  0  0  0  0  0
  -24.7980  -32.0670   23.3430 C   0  0  0  0  0  0  0  0  0  0  0  0
  -27.4640  -27.0070   20.2040 C   0  0  0  0  0  0  0  0  0  0  0  0
  -23.6810  -30.7270   21.6150 C   0  0  0  0  0  3  0  0  0  0  0  0
  -25.1900  -29.1320   20.1760 C   0  0  0  0  0  0  0  0  0  0  0  0
  -26.2670  -30.8510   21.5920 C   0  0  0  0  0  2  0  0  0  0  0  0
  -26.3630  -29.4310   20.8760 C   0  0  0  0  0  0  0  0  0  0  0  0
  -27.4740  -28.4030   20.8590 C   0  0  0  0  0  3  0  0  0  0  0  0
  -26.2620  -26.9840   19.4350 C   0  0  0  0  0  3  0  0  0  0  0  0
  -25.1880  -27.9380   19.4340 C   0  0  0  0  0  3  0  0  0  0  0  0
  -23.9760  -30.0860   20.2260 C   0  0  0  0  0  2  0  0  0  0  0  0
  -24.9390  -31.2520   22.2370 N   0  0  0  0  0  0  0  0  0  0  0  0
  -23.6850  -32.3370   23.8280 O   0  0  0  0  0  0  0  0  0  0  0  0
  -22.9360  -29.7100   22.5240 C   0  0  0  0  0  0  0  0  0  0  0  0
  -21.6110  -29.5450   22.3500 N   0  0  0  0  0  0  0  0  0  0  0  0
  -23.5700  -29.0660   23.3640 O   0  0  0  0  0  0  0  0  0  0  0  0
  -21.1450  -30.1160   21.6580 H   0  0  0  0  0  0  0  0  0  0  0  0
  -18.2130  -28.3150   22.7820 C   0  0  0  0  0  0  0  0  0  0  0  0
  -20.7750  -28.5640   23.0580 C   0  0  0  0  0  3  0  0  0  0  0  0
  -20.8720  -27.1710   22.3920 C   0  0  0  0  0  2  0  0  0  0  0  0
  -19.7710  -26.9190   21.3580 C   0  0  0  0  0  2  0  0  0  0  0  0
  -18.3890  -27.0180   22.0090 C   0  0  0  0  0  2  0  0  0  0  0  0
  -19.3320  -29.0490   23.2600 C   0  0  0  0  0  0  0  0  0  0  0  0
  -19.1090  -30.2600   23.9500 C   0  0  0  0  0  3  0  0  0  0  0  0
  -17.8020  -30.7400   24.1600 C   0  0  0  0  0  3  0  0  0  0  0  0
  -16.6990  -30.0050   23.6930 C   0  0  0  0  0  3  0  0  0  0  0  0
  -16.9050  -28.7930   23.0100 C   0  0  0  0  0  3  0  0  0  0  0  0
  -26.0270  -32.7120   24.0530 C   0  0  0  0  0  3  0  0  0  0  0  0
  -25.6840  -34.1070   24.4020 N   0  0  0  0  0  0  0  0  0  0  0  0
  -26.0130  -35.1910   23.6850 C   0  0  0  0  0  0  0  0  0  0  0  0
  -26.6890  -35.1220   22.6560 O   0  0  0  0  0  0  0  0  0  0  0  0
  -25.0800  -34.2320   25.2010 H   0  0  0  0  0  0  0  0  0  0  0  0
  -24.2540  -36.9780   23.4110 C   0  0  0  0  0  1  0  0  0  0  0  0
  -25.5190  -36.5670   24.1830 C   0  0  0  0  0  3  0  0  0  0  0  0
  -27.6510  -37.4830   24.9950 C   0  0  0  0  0  1  0  0  0  0  0  0
  -26.5330  -37.6400   24.0680 N   0  0  0  0  0  0  0  0  0  0  0  0
  -26.1130  -38.5510   24.2310 H   0  0  0  0  0  0  0  0  0  0  0  0
  -26.4640  -31.9340   25.3570 C   0  0  1  0  0  0  0  0  0  0  0  0
  -25.3070  -31.6830   26.3530 C   0  0  0  0  0  1  0  0  0  0  0  0
  -27.0780  -30.5610   25.0080 C   0  0  0  0  0  1  0  0  0  0  0  0
  -27.5670  -32.7290   26.0950 C   0  0  0  0  0  1  0  0  0  0  0  0
  1  3  1  0
  3  2  2  0
  3 16  1  0
  4  6  1  0
  4  1  2  0
  5 50  1  0
  5  2  1  0
  6  5  2  0
  7  6  1  0
  9 14  1  0
 10 11  1  0
 10  9  1  0
 12 11  1  0
 12 23  1  0
 12 13  1  0
 14  8  1  0
 14 13  1  0
 15  8  2  0
 16 17  1  0
 17 19  1  0
 17  8  1  0
 18 16  2  0
 20 21  2  0
 21 40  1  0
 22 21  1  0
 22 25  1  0
 23 20  1  0
 23 24  1  0
 24 22  2  0
 25 26  1  0
 26 27  2  0
 28 31  1  0
 28 27  1  0
 29 28  2  0
 30 29  1  0
 30 25  2  0
 31 32  1  0
 32 37  2  0
 32 33  1  0
 33 34  2  0
 34 35  1  0
 35 39  1  0
 36 35  2  0
 37 36  1  0
 38 37  1  0
 40 41  1  0
 41 44  1  0
 41 43  1  0
 42 40  2  0
 45 46  1  0
 45 20  1  0
 47 45  1  0
 48  4  1  0
 49 48  1  0
 50 52  1  0
 51 62  2  0
 52 57  1  0
 53 61  1  0
 53 63  1  0
 54 60  1  0
 54 56  1  0
 55 61  1  0
 56 55  1  0
 57 56  2  0
 58 52  2  0
 59 58  1  0
 59 54  2  0
 60 53  1  0
 61 51  1  0
 63 65  2  0
 64 63  1  0
 66 64  1  0
 67 76  2  0
 67 72  1  0
 68 64  1  0
 68 72  1  0
 69 68  1  0
 70 71  1  0
 70 69  1  0
 71 67  1  0
 72 73  2  0
 73 74  1  0
 75 74  2  0
 76 75  1  0
 77 51  1  0
 77 78  1  0
 77 87  1  0
 78 81  1  0
 79 83  1  0
 79 78  1  0
 80 79  2  0
 83 82  1  0
 85 83  1  0
 85 86  1  0
 85 84  1  0
 87 90  1  1
 87 88  1  0
 89 87  1  0
M  ISO  4   5 101   8 100  17 100  50 101
M  END
>  <TORSDO>  (13) 
F 17

>  <SCORE>  (13) 
-14.360

>  <name>  (13) 
12

>  <ligand_id>  (13) 
12

>  <original_smiles>  (13) 
[H]Oc1c([H])c(C(=O)N([H])C(=O)N2C([H])([H])C([H])([H])C([H])([H])C([H])(n3nc(-c4c([H])c([H])c(Oc5c([H])c([H])c(F)c([H])c5F)c([H])c4[H])c(C(=O)N([H])[H])c3N([H])[H])C2([H])[H])c([H])c(Oc2c([H])c([H])c3c(c2[H])C([H])([H])N(C(=O)C([H])(N([H])C(=O)C([H])(N([H])C([H])([H])[H])C([H])([H])[H])C(C([H])([H])[H])(C([H])([H])[H])C([H])([H])[H])C([H])(C(=O)N([H])C2([H])c4c([H])c([H])c([H])c([H])c4C([H])([H])C([H])([H])C2([H])[H])C3([H])[H])c1F

>  <smiles>  (13) 
[H]Oc1c([H])c(C(=O)N([H])C(=O)N2C([H])([H])C([H])([H])C([H])([H])C([H])(n3nc(-c4c([H])c([H])c(Oc5c([H])c([H])c(F)c([H])c5F)c([H])c4[H])c(C(=O)N([H])[H])c3N([H])[H])C2([H])[H])c([H])c(Oc2c([H])c([H])c3c(c2[H])C([H])([H])N(C(=O)C([H])(N([H])C(=O)C([H])(N([H])C([H])([H])[H])C([H])([H])[H])C(C([H])([H])[H])(C([H])([H])[H])C([H])([H])[H])C([H])(C(=O)N([H])C2([H])c4c([H])c([H])c([H])c([H])c4C([H])([H])C([H])([H])C2([H])[H])C3([H])[H])c1F

$$$$
13:0:0
     RDKit          3D

 90 97  0  0  1  0  0  0  0  0999 V2000
  -28.4270  -22.3910   20.4990 C   0  0  0  0  0  3  0  0  0  0  0  0
  -27.0040  -22.0410   20.3040 N   0  0  0  0  0  4  0  0  0  0  0  0
  -26.3960  -22.8120   20.5140 H   0  0  0  0  0  0  0  0  0  0  0  0
  -26.7420  -21.2790   20.9040 H   0  0  0  0  0  0  0  0  0  0  0  0
  -26.8330  -21.7560   19.3560 H   0  0  0  0  0  0  0  0  0  0  0  0
  -29.3260  -21.1610   19.9780 C   0  0  0  0  0  2  0  0  0  0  0  0
  -29.2890  -19.7680   20.7780 C   0  0  0  0  0  2  0  0  0  0  0  0
  -29.7300  -18.3910   20.0870 C   0  0  0  0  0  2  0  0  0  0  0  0
  -30.1420  -17.1830   21.0510 C   0  0  0  0  0  2  0  0  0  0  0  0
  -30.6000  -14.6880   20.3400 C   0  0  0  0  0  0  0  0  0  0  0  0
  -30.3860  -12.4560   19.2480 C   0  0  0  0  0  2  0  0  0  0  0  0
  -29.4220  -12.5690   18.0450 C   0  0  0  0  0  2  0  0  0  0  0  0
  -27.9560  -12.4070   18.4940 C   0  0  0  0  0  2  0  0  0  0  0  0
  -27.6070  -13.2710   19.7350 C   0  0  0  0  0  3  0  0  0  0  0  0
  -28.6800  -13.1200   20.8350 C   0  0  0  0  0  2  0  0  0  0  0  0
  -29.9760  -13.4720   20.2380 N   0  0  0  0  0  0  0  0  0  0  0  0
  -31.7730  -14.8390   19.9890 O   0  0  0  0  0  0  0  0  0  0  0  0
  -29.8100  -15.7600   20.6830 N   0  0  0  0  0  0  0  0  0  0  0  0
  -28.8520  -15.5020   20.8730 H   0  0  0  0  0  0  0  0  0  0  0  0
  -25.2220  -13.8700   20.4800 C   0  0  0  0  0  0  0  0  0  0  0  0
  -24.1610  -13.0950   20.8580 C   0  0  0  0  0  0  0  0  0  0  0  0
  -24.6250  -11.7430   20.8240 C   0  0  0  0  0  0  0  0  0  0  0  0
  -26.2680  -12.9910   20.2390 N   0  0  0  0  0  0  0  0  0  0  0  0
  -25.9140  -11.7090   20.5080 N   0  0  0  0  0  0  0  0  0  0  0  0
  -23.9040  -10.4790   21.0210 C   0  0  0  0  0  0  0  0  0  0  0  0
  -24.3480   -9.5110   21.9490 C   0  0  0  0  0  3  0  0  0  0  0  0
  -23.6250   -8.3120   22.1350 C   0  0  0  0  0  3  0  0  0  0  0  0
  -22.4440   -8.0720   21.3930 C   0  0  0  0  0  0  0  0  0  0  0  0
  -22.0190   -9.0280   20.4550 C   0  0  0  0  0  3  0  0  0  0  0  0
  -22.7410  -10.2180   20.2670 C   0  0  0  0  0  3  0  0  0  0  0  0
  -21.6940   -6.9250   21.4860 O   0  0  0  0  0  0  0  0  0  0  0  0
  -21.6630   -6.1790   22.6370 C   0  0  0  0  0  0  0  0  0  0  0  0
  -21.2550   -6.7260   23.8730 C   0  0  0  0  0  3  0  0  0  0  0  0
  -21.1730   -5.9020   25.0140 C   0  0  0  0  0  3  0  0  0  0  0  0
  -21.4910   -4.5340   24.9210 C   0  0  0  0  0  0  0  0  0  0  0  0
  -21.8940   -3.9870   23.6900 C   0  0  0  0  0  3  0  0  0  0  0  0
  -21.9780   -4.8070   22.5510 C   0  0  0  0  0  0  0  0  0  0  0  0
  -22.3450   -4.2690   21.3640 F   0  0  0  0  0  0  0  0  0  0  0  0
  -21.4050   -3.7420   26.0160 F   0  0  0  0  0  0  0  0  0  0  0  0
  -22.7630  -13.5670   21.1380 C   0  0  0  0  0  0  0  0  0  0  0  0
  -22.0410  -12.8700   22.0080 N   0  0  0  0  0  0  0  0  0  0  0  0
  -22.3210  -14.5930   20.6190 O   0  0  0  0  0  0  0  0  0  0  0  0
  -22.4120  -12.0400   22.4500 H   0  0  0  0  0  0  0  0  0  0  0  0
  -21.1040  -13.1680   22.2370 H   0  0  0  0  0  0  0  0  0  0  0  0
  -25.3820  -15.2400   20.2940 N   0  0  0  0  0  0  0  0  0  0  0  0
  -24.6110  -15.8900   20.4160 H   0  0  0  0  0  0  0  0  0  0  0  0
  -26.2170  -15.6760   19.9210 H   0  0  0  0  0  0  0  0  0  0  0  0
  -28.7070  -23.8620   19.9050 C   0  0  0  0  0  3  0  0  0  0  0  0
  -28.1590  -25.1290   20.7150 C   0  0  0  0  0  3  0  0  0  0  0  0
  -28.3500  -26.5080   20.2020 O   0  0  0  0  0  0  0  0  0  0  0  0
  -24.6130  -31.8800   23.2540 C   0  0  0  0  0  0  0  0  0  0  0  0
  -27.2340  -27.3500   20.1900 C   0  0  0  0  0  0  0  0  0  0  0  0
  -23.4130  -30.4860   21.6080 C   0  0  0  0  0  3  0  0  0  0  0  0
  -24.8670  -28.9400   20.1780 C   0  0  0  0  0  0  0  0  0  0  0  0
  -25.9490  -30.8140   21.4220 C   0  0  0  0  0  2  0  0  0  0  0  0
  -26.0330  -29.4380   20.7730 C   0  0  0  0  0  0  0  0  0  0  0  0
  -27.2260  -28.6550   20.7680 C   0  0  0  0  0  3  0  0  0  0  0  0
  -26.0520  -26.9020   19.5670 C   0  0  0  0  0  3  0  0  0  0  0  0
  -24.8780  -27.6800   19.5610 C   0  0  0  0  0  3  0  0  0  0  0  0
  -23.6270  -29.8120   20.2280 C   0  0  0  0  0  2  0  0  0  0  0  0
  -24.6780  -31.0770   22.1520 N   0  0  0  0  0  0  0  0  0  0  0  0
  -23.5310  -32.1540   23.7910 O   0  0  0  0  0  0  0  0  0  0  0  0
  -22.7540  -29.4660   22.5660 C   0  0  0  0  0  0  0  0  0  0  0  0
  -21.4270  -29.2870   22.4380 N   0  0  0  0  0  0  0  0  0  0  0  0
  -23.4330  -28.8370   23.3810 O   0  0  0  0  0  0  0  0  0  0  0  0
  -20.9380  -29.8480   21.7550 H   0  0  0  0  0  0  0  0  0  0  0  0
  -18.0510  -28.0900   22.9380 C   0  0  0  0  0  0  0  0  0  0  0  0
  -20.6100  -28.3470   23.2060 C   0  0  0  0  0  3  0  0  0  0  0  0
  -20.7090  -26.9180   22.6250 C   0  0  0  0  0  2  0  0  0  0  0  0
  -19.6060  -26.6000   21.6100 C   0  0  0  0  0  2  0  0  0  0  0  0
  -18.2250  -26.7430   22.2570 C   0  0  0  0  0  2  0  0  0  0  0  0
  -19.1700  -28.8500   23.3690 C   0  0  0  0  0  0  0  0  0  0  0  0
  -18.9510  -30.1110   23.9680 C   0  0  0  0  0  3  0  0  0  0  0  0
  -17.6480  -30.6120   24.1370 C   0  0  0  0  0  3  0  0  0  0  0  0
  -16.5430  -29.8480   23.7210 C   0  0  0  0  0  3  0  0  0  0  0  0
  -16.7450  -28.5900   23.1270 C   0  0  0  0  0  3  0  0  0  0  0  0
  -25.8970  -32.5130   23.8790 C   0  0  0  0  0  3  0  0  0  0  0  0
  -26.4090  -31.7420   25.1580 C   0  0  1  0  0  0  0  0  0  0  0  0
  -25.3110  -31.5090   26.2230 C   0  0  0  0  0  1  0  0  0  0  0  0
  -26.9900  -30.3630   24.7700 C   0  0  0  0  0  1  0  0  0  0  0  0
  -27.5610  -32.5350   25.8210 C   0  0  0  0  0  1  0  0  0  0  0  0
  -25.5870  -33.9130   24.2050 N   0  0  0  0  0  0  0  0  0  0  0  0
  -25.9240  -34.9640   23.4490 C   0  0  0  0  0  0  0  0  0  0  0  0
  -26.5990  -34.8600   22.4200 O   0  0  0  0  0  0  0  0  0  0  0  0
  -24.9910  -34.0680   25.0050 H   0  0  0  0  0  0  0  0  0  0  0  0
  -24.2040  -36.7620   23.0810 C   0  0  0  0  0  1  0  0  0  0  0  0
  -25.4370  -36.3550   23.9030 C   0  0  0  0  0  3  0  0  0  0  0  0
  -27.5700  -37.2330   24.7490 C   0  0  0  0  0  1  0  0  0  0  0  0
  -26.4740  -37.4040   23.7980 N   0  0  0  0  0  0  0  0  0  0  0  0
  -26.0700  -38.3260   23.9420 H   0  0  0  0  0  0  0  0  0  0  0  0
  1 48  1  0
  2  1  1  0
  2  3  1  0
  2  4  1  0
  5  2  1  0
  6  1  1  0
  6  7  1  0
  8  7  1  0
  8  9  1  0
 10 18  1  0
 11 16  1  0
 12 13  1  0
 12 11  1  0
 14 13  1  0
 14 23  1  0
 14 15  1  0
 16 10  1  0
 16 15  1  0
 17 10  2  0
 18 19  1  0
 18  9  1  0
 20 21  2  0
 21 40  1  0
 22 21  1  0
 22 25  1  0
 23 20  1  0
 23 24  1  0
 24 22  2  0
 25 26  1  0
 26 27  2  0
 28 31  1  0
 28 27  1  0
 29 28  2  0
 30 29  1  0
 30 25  2  0
 31 32  1  0
 32 33  1  0
 33 34  2  0
 35 34  1  0
 35 39  1  0
 36 35  2  0
 37 32  2  0
 37 36  1  0
 38 37  1  0
 40 41  1  0
 41 44  1  0
 41 43  1  0
 42 40  2  0
 45 46  1  0
 45 20  1  0
 47 45  1  0
 48 49  2  0
 50 49  1  0
 51 62  2  0
 52 50  1  0
 52 57  1  0
 53 61  1  0
 53 63  1  0
 54 60  1  0
 54 56  1  0
 55 61  1  0
 56 55  1  0
 57 56  2  0
 58 52  2  0
 59 58  1  0
 59 54  2  0
 60 53  1  0
 61 51  1  0
 63 65  2  0
 64 63  1  0
 66 64  1  0
 67 76  2  0
 67 72  1  0
 68 64  1  0
 68 72  1  0
 69 68  1  0
 70 71  1  0
 70 69  1  0
 71 67  1  0
 72 73  2  0
 73 74  1  0
 75 74  2  0
 76 75  1  0
 77 51  1  0
 77 82  1  0
 77 78  1  0
 78 81  1  1
 78 79  1  0
 80 78  1  0
 82 85  1  0
 83 87  1  0
 83 82  1  0
 84 83  2  0
 87 86  1  0
 89 87  1  0
 89 90  1  0
 89 88  1  0
M  ISO  4  10 100  18 100  49 101  50 101
M  END
>  <TORSDO>  (14) 
F 23

>  <SCORE>  (14) 
-12.885

>  <name>  (14) 
13

>  <ligand_id>  (14) 
13

>  <original_smiles>  (14) 
[H]c1c([H])c([H])c2c(c1[H])C([H])([H])C([H])([H])C([H])([H])C2([H])N([H])C(=O)C1([H])N(C(=O)C([H])(N([H])C(=O)C([H])(N([H])C([H])([H])[H])C([H])([H])[H])C(C([H])([H])[H])(C([H])([H])[H])C([H])([H])[H])C([H])([H])c2c([H])c(OC([H])([H])C([H])([H])C([H])(C([H])([H])C([H])([H])C([H])([H])C([H])([H])N([H])C(=O)N3C([H])([H])C([H])([H])C([H])([H])C([H])(n4nc(-c5c([H])c([H])c(Oc6c([H])c([H])c(F)c([H])c6F)c([H])c5[H])c(C(=O)N([H])[H])c4N([H])[H])C3([H])[H])[N+]([H])([H])[H])c([H])c([H])c2C1([H])[H]

>  <smiles>  (14) 
[H]c1c([H])c([H])c2c(c1[H])C([H])([H])C([H])([H])C([H])([H])C2([H])N([H])C(=O)C1([H])N(C(=O)C([H])(N([H])C(=O)C([H])(N([H])C([H])([H])[H])C([H])([H])[H])C(C([H])([H])[H])(C([H])([H])[H])C([H])([H])[H])C([H])([H])c2c([H])c(OC([H])([H])C([H])([H])C([H])(C([H])([H])C([H])([H])C([H])([H])C([H])([H])N([H])C(=O)N3C([H])([H])C([H])([H])C([H])([H])C([H])(n4nc(-c5c([H])c([H])c(Oc6c([H])c([H])c(F)c([H])c6F)c([H])c5[H])c(C(=O)N([H])[H])c4N([H])[H])C3([H])[H])[N+]([H])([H])[H])c([H])c([H])c2C1([H])[H]

$$$$
14:0:0
     RDKit          3D

 95104  0  0  1  0  0  0  0  0999 V2000
  -29.7740  -21.9760   18.3930 C   0  0  0  0  0  1  0  0  0  0  0  0
  -30.1880  -22.0780   19.8740 C   0  0  0  0  0  3  0  0  0  0  0  0
  -30.7820  -14.6320   20.1430 C   0  0  0  0  0  0  0  0  0  0  0  0
  -30.4430  -12.4970   18.9350 C   0  0  0  0  0  2  0  0  0  0  0  0
  -29.4400  -12.7170   17.7820 C   0  0  0  0  0  2  0  0  0  0  0  0
  -27.9900  -12.5550   18.2790 C   0  0  0  0  0  2  0  0  0  0  0  0
  -27.7100  -13.3530   19.5790 C   0  0  0  0  0  3  0  0  0  0  0  0
  -28.8170  -13.1120   20.6280 C   0  0  0  0  0  2  0  0  0  0  0  0
  -30.1100  -13.4510   20.0080 N   0  0  0  0  0  0  0  0  0  0  0  0
  -31.8510  -14.8500   19.5640 O   0  0  0  0  0  0  0  0  0  0  0  0
  -29.9000  -19.4660   20.0340 C   0  0  0  0  0  3  0  0  0  0  0  0
  -31.1020  -20.6580   21.7760 C   0  0  0  0  0  3  0  0  0  0  0  0
  -30.1870  -18.2220   20.6670 C   0  0  0  0  0  0  0  0  0  0  0  0
  -30.9160  -18.2200   21.8760 C   0  0  0  0  0  0  0  0  0  0  0  0
  -30.3590  -20.7040   20.5750 C   0  0  0  0  0  0  0  0  0  0  0  0
  -31.3760  -19.4360   22.4210 C   0  0  0  0  0  0  0  0  0  0  0  0
  -31.2150  -16.9080   22.5850 C   0  0  0  0  0  2  0  0  0  0  0  0
  -29.7240  -16.8880   20.0470 C   0  0  0  0  0  2  0  0  0  0  0  0
  -30.2150  -15.7970   22.2160 C   0  0  0  0  0  2  0  0  0  0  0  0
  -30.1070  -15.6400   20.7620 N   0  0  0  0  0  0  0  0  0  0  0  0
  -32.0990  -19.4350   23.5660 F   0  0  0  0  0  0  0  0  0  0  0  0
  -25.3470  -13.9320   20.4160 C   0  0  0  0  0  0  0  0  0  0  0  0
  -24.3000  -13.1450   20.8150 C   0  0  0  0  0  0  0  0  0  0  0  0
  -24.7620  -11.7960   20.7240 C   0  0  0  0  0  0  0  0  0  0  0  0
  -26.3820  -13.0610   20.1130 N   0  0  0  0  0  0  0  0  0  0  0  0
  -26.0360  -11.7700   20.3540 N   0  0  0  0  0  0  0  0  0  0  0  0
  -24.0480  -10.5270   20.9160 C   0  0  0  0  0  0  0  0  0  0  0  0
  -24.4700   -9.5810   21.8760 C   0  0  0  0  0  3  0  0  0  0  0  0
  -23.7580   -8.3760   22.0540 C   0  0  0  0  0  3  0  0  0  0  0  0
  -22.6090   -8.1080   21.2730 C   0  0  0  0  0  0  0  0  0  0  0  0
  -22.2080   -9.0420   20.3010 C   0  0  0  0  0  3  0  0  0  0  0  0
  -22.9210  -10.2380   20.1220 C   0  0  0  0  0  3  0  0  0  0  0  0
  -21.8710   -6.9530   21.3580 O   0  0  0  0  0  0  0  0  0  0  0  0
  -21.7260   -6.2760   22.5420 C   0  0  0  0  0  0  0  0  0  0  0  0
  -21.1520   -6.8820   23.6820 C   0  0  0  0  0  3  0  0  0  0  0  0
  -20.9600   -6.1300   24.8570 C   0  0  0  0  0  3  0  0  0  0  0  0
  -21.3320   -4.7730   24.8940 C   0  0  0  0  0  0  0  0  0  0  0  0
  -21.8990   -4.1670   23.7590 C   0  0  0  0  0  3  0  0  0  0  0  0
  -22.0930   -4.9170   22.5860 C   0  0  0  0  0  0  0  0  0  0  0  0
  -22.6200   -4.3220   21.4890 F   0  0  0  0  0  0  0  0  0  0  0  0
  -21.1390   -4.0480   26.0210 F   0  0  0  0  0  0  0  0  0  0  0  0
  -22.9170  -13.6070   21.1720 C   0  0  0  0  0  0  0  0  0  0  0  0
  -22.2340  -12.8800   22.0480 N   0  0  0  0  0  0  0  0  0  0  0  0
  -22.4520  -14.6480   20.7090 O   0  0  0  0  0  0  0  0  0  0  0  0
  -22.6260  -12.0370   22.4420 H   0  0  0  0  0  0  0  0  0  0  0  0
  -21.3070  -13.1660   22.3290 H   0  0  0  0  0  0  0  0  0  0  0  0
  -25.5020  -15.3060   20.2690 N   0  0  0  0  0  0  0  0  0  0  0  0
  -24.7430  -15.9580   20.4310 H   0  0  0  0  0  0  0  0  0  0  0  0
  -26.3420  -15.7520   19.9230 H   0  0  0  0  0  0  0  0  0  0  0  0
  -29.2780  -23.0150   20.5980 N   0  0  0  0  0  4  0  0  0  0  0  0
  -28.3290  -22.7690   20.3640 H   0  0  0  0  0  0  0  0  0  0  0  0
  -29.3790  -22.8410   21.5860 H   0  0  0  0  0  0  0  0  0  0  0  0
  -29.5120  -24.4850   20.3730 C   0  0  0  0  0  2  0  0  0  0  0  0
  -28.2040  -25.2990   20.1730 C   0  0  0  0  0  2  0  0  0  0  0  0
  -28.3850  -26.7390   20.1440 O   0  0  0  0  0  0  0  0  0  0  0  0
  -24.5910  -31.9480   23.2260 C   0  0  0  0  0  0  0  0  0  0  0  0
  -27.2250  -27.5040   20.1140 C   0  0  0  0  0  0  0  0  0  0  0  0
  -23.3810  -30.5560   21.5820 C   0  0  0  0  0  3  0  0  0  0  0  0
  -24.8330  -29.0370   20.1350 C   0  0  0  0  0  0  0  0  0  0  0  0
  -25.9090  -30.9170   21.3760 C   0  0  0  0  0  2  0  0  0  0  0  0
  -25.9970  -29.5510   20.7220 C   0  0  0  0  0  0  0  0  0  0  0  0
  -27.1970  -28.7950   20.7030 C   0  0  0  0  0  3  0  0  0  0  0  0
  -26.0380  -27.0220   19.5120 C   0  0  0  0  0  3  0  0  0  0  0  0
  -24.8520  -27.7740   19.5260 C   0  0  0  0  0  3  0  0  0  0  0  0
  -23.5870  -29.8910   20.1940 C   0  0  0  0  0  2  0  0  0  0  0  0
  -24.6460  -31.1540   22.1190 N   0  0  0  0  0  0  0  0  0  0  0  0
  -23.5090  -32.2130   23.7720 O   0  0  0  0  0  0  0  0  0  0  0  0
  -22.7370  -29.5240   22.5350 C   0  0  0  0  0  0  0  0  0  0  0  0
  -21.4110  -29.3390   22.4120 N   0  0  0  0  0  0  0  0  0  0  0  0
  -23.4260  -28.8930   23.3410 O   0  0  0  0  0  0  0  0  0  0  0  0
  -20.9140  -29.8980   21.7330 H   0  0  0  0  0  0  0  0  0  0  0  0
  -18.0420  -28.1420   22.9290 C   0  0  0  0  0  0  0  0  0  0  0  0
  -20.6030  -28.3940   23.1820 C   0  0  0  0  0  3  0  0  0  0  0  0
  -20.6990  -26.9690   22.5900 C   0  0  0  0  0  2  0  0  0  0  0  0
  -19.5880  -26.6590   21.5830 C   0  0  0  0  0  2  0  0  0  0  0  0
  -18.2120  -26.8000   22.2390 C   0  0  0  0  0  2  0  0  0  0  0  0
  -19.1650  -28.8980   23.3590 C   0  0  0  0  0  0  0  0  0  0  0  0
  -18.9540  -30.1550   23.9640 C   0  0  0  0  0  3  0  0  0  0  0  0
  -17.6510  -30.6580   24.1460 C   0  0  0  0  0  3  0  0  0  0  0  0
  -16.5430  -29.8980   23.7340 C   0  0  0  0  0  3  0  0  0  0  0  0
  -16.7380  -28.6430   23.1320 C   0  0  0  0  0  3  0  0  0  0  0  0
  -25.8770  -32.5810   23.8430 C   0  0  0  0  0  3  0  0  0  0  0  0
  -26.4020  -31.8040   25.1120 C   0  0  1  0  0  0  0  0  0  0  0  0
  -25.3140  -31.5520   26.1810 C   0  0  0  0  0  1  0  0  0  0  0  0
  -26.9930  -30.4330   24.7080 C   0  0  0  0  0  1  0  0  0  0  0  0
  -27.5520  -32.5980   25.7750 C   0  0  0  0  0  1  0  0  0  0  0  0
  -25.5670  -33.9760   24.1790 N   0  0  0  0  0  0  0  0  0  0  0  0
  -25.8940  -35.0310   23.4200 C   0  0  0  0  0  0  0  0  0  0  0  0
  -26.5620  -34.9300   22.3860 O   0  0  0  0  0  0  0  0  0  0  0  0
  -24.9750  -34.1280   24.9820 H   0  0  0  0  0  0  0  0  0  0  0  0
  -24.1690  -36.8240   23.0640 C   0  0  0  0  0  1  0  0  0  0  0  0
  -25.4040  -36.4160   23.8820 C   0  0  0  0  0  3  0  0  0  0  0  0
  -27.5290  -37.2990   24.7360 C   0  0  0  0  0  1  0  0  0  0  0  0
  -26.4370  -37.4690   23.7810 N   0  0  0  0  0  0  0  0  0  0  0  0
  -26.0280  -38.3880   23.9300 H   0  0  0  0  0  0  0  0  0  0  0  0
  2  1  1  0
  2 15  1  0
  2 50  1  0
  3 20  1  0
  4  9  1  0
  5  6  1  0
  5  4  1  0
  7  6  1  0
  7 25  1  0
  7  8  1  0
  9  3  1  0
  9  8  1  0
 10  3  2  0
 11 15  2  0
 11 13  1  0
 12 16  2  0
 13 14  2  0
 14 16  1  0
 14 17  1  0
 15 12  1  0
 16 21  1  0
 18 13  1  0
 18 20  1  0
 19 17  1  0
 20 19  1  0
 22 23  2  0
 23 42  1  0
 24 23  1  0
 24 27  1  0
 25 26  1  0
 25 22  1  0
 26 24  2  0
 27 28  1  0
 28 29  2  0
 30 33  1  0
 30 29  1  0
 31 30  2  0
 32 31  1  0
 32 27  2  0
 33 34  1  0
 34 39  2  0
 34 35  1  0
 35 36  2  0
 36 37  1  0
 37 41  1  0
 38 37  2  0
 39 38  1  0
 40 39  1  0
 42 43  1  0
 43 46  1  0
 43 45  1  0
 44 42  2  0
 47 22  1  0
 47 48  1  0
 49 47  1  0
 50 52  1  0
 51 50  1  0
 53 50  1  0
 54 53  1  0
 55 54  1  0
 56 67  2  0
 57 55  1  0
 57 62  1  0
 58 66  1  0
 58 68  1  0
 59 65  1  0
 59 61  1  0
 60 66  1  0
 61 60  1  0
 62 61  2  0
 63 64  1  0
 63 57  2  0
 64 59  2  0
 65 58  1  0
 66 56  1  0
 68 70  2  0
 69 68  1  0
 71 69  1  0
 72 81  2  0
 72 77  1  0
 73 69  1  0
 73 77  1  0
 74 73  1  0
 75 76  1  0
 75 74  1  0
 76 72  1  0
 77 78  2  0
 78 79  1  0
 80 79  2  0
 81 80  1  0
 82 56  1  0
 82 87  1  0
 82 83  1  0
 83 86  1  1
 83 84  1  0
 85 83  1  0
 87 90  1  0
 88 92  1  0
 88 87  1  0
 89 88  2  0
 92 91  1  0
 94 92  1  0
 94 95  1  0
 94 93  1  0
M  ISO  4   3 100  20 100  54 101  55 101
M  END
>  <TORSDO>  (15) 
F 19

>  <SCORE>  (15) 
-13.566

>  <name>  (15) 
14

>  <ligand_id>  (15) 
14

>  <original_smiles>  (15) 
[H]c1c([H])c([H])c2c(c1[H])C([H])([H])C([H])([H])C([H])([H])C2([H])N([H])C(=O)C1([H])N(C(=O)C([H])(N([H])C(=O)C([H])(N([H])C([H])([H])[H])C([H])([H])[H])C(C([H])([H])[H])(C([H])([H])[H])C([H])([H])[H])C([H])([H])c2c([H])c(OC([H])([H])C([H])([H])[N+]([H])([H])C([H])(c3c([H])c(F)c4c(c3[H])C([H])([H])N(C(=O)N3C([H])([H])C([H])([H])C([H])([H])C([H])(n5nc(-c6c([H])c([H])c(Oc7c([H])c([H])c(F)c([H])c7F)c([H])c6[H])c(C(=O)N([H])[H])c5N([H])[H])C3([H])[H])C([H])([H])C4([H])[H])C([H])([H])[H])c([H])c([H])c2C1([H])[H]

>  <smiles>  (15) 
[H]c1c([H])c([H])c2c(c1[H])C([H])([H])C([H])([H])C([H])([H])C2([H])N([H])C(=O)C1([H])N(C(=O)C([H])(N([H])C(=O)C([H])(N([H])C([H])([H])[H])C([H])([H])[H])C(C([H])([H])[H])(C([H])([H])[H])C([H])([H])[H])C([H])([H])c2c([H])c(OC([H])([H])C([H])([H])[N+]([H])([H])C([H])(c3c([H])c(F)c4c(c3[H])C([H])([H])N(C(=O)N3C([H])([H])C([H])([H])C([H])([H])C([H])(n5nc(-c6c([H])c([H])c(Oc7c([H])c([H])c(F)c([H])c7F)c([H])c6[H])c(C(=O)N([H])[H])c5N([H])[H])C3([H])[H])C([H])([H])C4([H])[H])C([H])([H])[H])c([H])c([H])c2C1([H])[H]

$$$$
15:0:0
     RDKit          3D

 91 99  0  0  1  0  0  0  0  0999 V2000
  -28.7600  -25.1270   23.4520 C   0  0  0  0  0  3  0  0  0  0  0  0
  -28.6250  -25.8350   22.2530 C   0  0  0  0  0  3  0  0  0  0  0  0
  -29.1720  -23.1170   22.1860 C   0  0  0  0  0  3  0  0  0  0  0  0
  -29.0790  -23.7700   20.9300 C   0  0  0  0  0  0  0  0  0  0  0  0
  -29.0220  -23.7600   23.4200 C   0  0  0  0  0  0  0  0  0  0  0  0
  -28.7360  -25.2620   20.9580 C   0  0  0  0  0  0  0  0  0  0  0  0
  -29.1410  -23.0390   24.6050 N   0  0  0  0  0  0  0  0  0  0  0  0
  -29.2980  -23.5340   25.4780 H   0  0  0  0  0  0  0  0  0  0  0  0
  -29.5610  -22.1150   24.5850 H   0  0  0  0  0  0  0  0  0  0  0  0
  -28.5560  -26.3350   19.9870 O   0  0  0  0  0  0  0  0  0  0  0  0
  -24.7500  -31.8120   23.2190 C   0  0  0  0  0  0  0  0  0  0  0  0
  -27.4760  -27.2950   20.0420 C   0  0  0  0  0  0  0  0  0  0  0  0
  -23.5800  -30.4010   21.5700 C   0  0  0  0  0  3  0  0  0  0  0  0
  -25.0700  -28.9230   20.0860 C   0  0  0  0  0  0  0  0  0  0  0  0
  -26.1140  -30.7910   21.3600 C   0  0  0  0  0  2  0  0  0  0  0  0
  -26.2400  -29.4160   20.6810 C   0  0  0  0  0  0  0  0  0  0  0  0
  -27.4460  -28.6190   20.6410 C   0  0  0  0  0  3  0  0  0  0  0  0
  -26.2790  -26.9000   19.4180 C   0  0  0  0  0  3  0  0  0  0  0  0
  -25.1010  -27.6780   19.4380 C   0  0  0  0  0  3  0  0  0  0  0  0
  -23.8050  -29.7620   20.1730 C   0  0  0  0  0  2  0  0  0  0  0  0
  -24.8350  -31.0230   22.1050 N   0  0  0  0  0  0  0  0  0  0  0  0
  -23.6620  -32.0340   23.7740 O   0  0  0  0  0  0  0  0  0  0  0  0
  -22.9650  -29.3450   22.5210 C   0  0  0  0  0  0  0  0  0  0  0  0
  -21.6560  -29.0740   22.3700 N   0  0  0  0  0  0  0  0  0  0  0  0
  -23.6680  -28.7730   23.3580 O   0  0  0  0  0  0  0  0  0  0  0  0
  -21.1400  -29.5910   21.6730 H   0  0  0  0  0  0  0  0  0  0  0  0
  -18.3960  -27.5380   22.7420 C   0  0  0  0  0  0  0  0  0  0  0  0
  -20.8960  -28.0770   23.1290 C   0  0  0  0  0  3  0  0  0  0  0  0
  -21.1750  -26.6470   22.6090 C   0  0  0  0  0  2  0  0  0  0  0  0
  -20.1680  -26.1830   21.5500 C   0  0  0  0  0  2  0  0  0  0  0  0
  -18.7470  -26.1980   22.1190 C   0  0  0  0  0  2  0  0  0  0  0  0
  -19.4040  -28.4260   23.2030 C   0  0  0  0  0  0  0  0  0  0  0  0
  -19.0220  -29.6730   23.7470 C   0  0  0  0  0  3  0  0  0  0  0  0
  -17.6640  -30.0340   23.8320 C   0  0  0  0  0  3  0  0  0  0  0  0
  -16.6700  -29.1460   23.3860 C   0  0  0  0  0  3  0  0  0  0  0  0
  -17.0360  -27.9000   22.8480 C   0  0  0  0  0  3  0  0  0  0  0  0
  -26.0110  -32.4890   23.8380 C   0  0  0  0  0  3  0  0  0  0  0  0
  -25.6560  -33.8790   24.1680 N   0  0  0  0  0  0  0  0  0  0  0  0
  -25.9710  -34.9450   23.4200 C   0  0  0  0  0  0  0  0  0  0  0  0
  -26.6550  -34.8640   22.3970 O   0  0  0  0  0  0  0  0  0  0  0  0
  -25.0470  -34.0140   24.9610 H   0  0  0  0  0  0  0  0  0  0  0  0
  -24.1990  -36.6960   23.0620 C   0  0  0  0  0  1  0  0  0  0  0  0
  -25.4440  -36.3190   23.8800 C   0  0  0  0  0  3  0  0  0  0  0  0
  -27.5480  -37.2550   24.7350 C   0  0  0  0  0  1  0  0  0  0  0  0
  -26.4510  -37.3990   23.7820 N   0  0  0  0  0  0  0  0  0  0  0  0
  -26.0190  -38.3060   23.9320 H   0  0  0  0  0  0  0  0  0  0  0  0
  -26.5500  -31.7400   25.1190 C   0  0  1  0  0  0  0  0  0  0  0  0
  -25.4660  -31.4780   26.1910 C   0  0  0  0  0  1  0  0  0  0  0  0
  -27.1740  -30.3770   24.7370 C   0  0  0  0  0  1  0  0  0  0  0  0
  -27.6780  -32.5710   25.7760 C   0  0  0  0  0  1  0  0  0  0  0  0
  -29.3420  -22.6290   19.7930 C   0  0  0  0  0  2  0  0  0  0  0  0
  -30.1840  -21.1610   20.0420 C   0  0  0  0  0  3  0  0  0  0  0  0
  -29.6450  -19.5740   20.2710 C   0  0  0  0  0  3  0  0  0  0  0  0
  -30.5700  -18.1610   20.0800 C   0  0  0  0  0  3  0  0  0  0  0  0
  -30.1180  -16.5830   20.4950 C   0  0  0  0  0  3  0  0  0  0  0  0
  -30.9260  -15.1650   20.1590 C   0  0  0  0  0  0  0  0  0  0  0  0
  -30.7820  -12.8060   19.2200 C   0  0  0  0  0  2  0  0  0  0  0  0
  -29.8390  -12.7940   17.9930 C   0  0  0  0  0  2  0  0  0  0  0  0
  -28.3720  -12.6130   18.4270 C   0  0  0  0  0  2  0  0  0  0  0  0
  -27.9910  -13.5430   19.6080 C   0  0  0  0  0  3  0  0  0  0  0  0
  -29.0510  -13.5210   20.7280 C   0  0  0  0  0  2  0  0  0  0  0  0
  -30.3380  -13.8990   20.1310 N   0  0  0  0  0  0  0  0  0  0  0  0
  -32.1100  -15.2260   19.8070 O   0  0  0  0  0  0  0  0  0  0  0  0
  -25.6300  -14.1710   20.3770 C   0  0  0  0  0  0  0  0  0  0  0  0
  -24.5500  -13.4170   20.7450 C   0  0  0  0  0  0  0  0  0  0  0  0
  -24.9800  -12.0570   20.6910 C   0  0  0  0  0  0  0  0  0  0  0  0
  -26.6490  -13.2720   20.1140 N   0  0  0  0  0  0  0  0  0  0  0  0
  -26.2680  -11.9930   20.3690 N   0  0  0  0  0  0  0  0  0  0  0  0
  -24.2240  -10.8090   20.8710 C   0  0  0  0  0  0  0  0  0  0  0  0
  -24.6170   -9.8360   21.8150 C   0  0  0  0  0  3  0  0  0  0  0  0
  -23.8600   -8.6560   21.9840 C   0  0  0  0  0  3  0  0  0  0  0  0
  -22.6980   -8.4410   21.2060 C   0  0  0  0  0  0  0  0  0  0  0  0
  -22.3250   -9.4030   20.2520 C   0  0  0  0  0  3  0  0  0  0  0  0
  -23.0820  -10.5740   20.0820 C   0  0  0  0  0  3  0  0  0  0  0  0
  -21.9160   -7.3130   21.2830 O   0  0  0  0  0  0  0  0  0  0  0  0
  -21.7960   -6.5980   22.4460 C   0  0  0  0  0  0  0  0  0  0  0  0
  -21.3110   -7.1860   23.6360 C   0  0  0  0  0  3  0  0  0  0  0  0
  -21.1370   -6.3970   24.7910 C   0  0  0  0  0  3  0  0  0  0  0  0
  -21.4390   -5.0220   24.7580 C   0  0  0  0  0  0  0  0  0  0  0  0
  -21.9160   -4.4350   23.5740 C   0  0  0  0  0  3  0  0  0  0  0  0
  -22.0910   -5.2210   22.4210 C   0  0  0  0  0  0  0  0  0  0  0  0
  -22.5320   -4.6450   21.2760 F   0  0  0  0  0  0  0  0  0  0  0  0
  -21.2650   -4.2640   25.8650 F   0  0  0  0  0  0  0  0  0  0  0  0
  -23.1670  -13.9240   21.0350 C   0  0  0  0  0  0  0  0  0  0  0  0
  -22.4330  -13.2390   21.9040 N   0  0  0  0  0  0  0  0  0  0  0  0
  -22.7490  -14.9640   20.5260 O   0  0  0  0  0  0  0  0  0  0  0  0
  -22.7860  -12.3980   22.3370 H   0  0  0  0  0  0  0  0  0  0  0  0
  -21.5050  -13.5600   22.1420 H   0  0  0  0  0  0  0  0  0  0  0  0
  -25.8250  -15.5400   20.2180 N   0  0  0  0  0  0  0  0  0  0  0  0
  -25.0780  -16.2110   20.3540 H   0  0  0  0  0  0  0  0  0  0  0  0
  -26.6850  -15.9670   19.9010 H   0  0  0  0  0  0  0  0  0  0  0  0
  2  1  2  0
  3  5  2  0
  4  6  2  0
  4  3  1  0
  5  1  1  0
  5  7  1  0
  6  2  1  0
  7  8  1  0
  9  7  1  0
 10 12  1  0
 10  6  1  0
 11 22  2  0
 12 17  1  0
 13 21  1  0
 13 23  1  0
 14 20  1  0
 14 16  1  0
 15 21  1  0
 16 15  1  0
 17 16  2  0
 18 19  1  0
 18 12  2  0
 19 14  2  0
 20 13  1  0
 21 11  1  0
 23 25  2  0
 24 23  1  0
 26 24  1  0
 27 36  2  0
 27 32  1  0
 28 24  1  0
 28 32  1  0
 29 28  1  0
 30 31  1  0
 30 29  1  0
 31 27  1  0
 32 33  2  0
 33 34  1  0
 35 34  2  0
 36 35  1  0
 37 11  1  0
 37 38  1  0
 37 47  1  0
 38 41  1  0
 39 43  1  0
 39 38  1  0
 40 39  2  0
 43 42  1  0
 45 43  1  0
 45 46  1  0
 45 44  1  0
 47 50  1  1
 47 48  1  0
 49 47  1  0
 51 52  1  0
 51  4  1  0
 52 53  2  0
 54 53  1  0
 54 55  2  0
 56 55  1  0
 57 62  1  0
 58 59  1  0
 58 57  1  0
 60 59  1  0
 60 67  1  0
 60 61  1  0
 62 56  1  0
 62 61  1  0
 63 56  2  0
 64 65  2  0
 65 84  1  0
 66 65  1  0
 66 69  1  0
 67 68  1  0
 67 64  1  0
 68 66  2  0
 69 70  1  0
 70 71  2  0
 72 75  1  0
 72 71  1  0
 73 72  2  0
 74 73  1  0
 74 69  2  0
 75 76  1  0
 76 77  1  0
 77 78  2  0
 79 78  1  0
 79 83  1  0
 80 79  2  0
 81 76  2  0
 81 80  1  0
 82 81  1  0
 84 85  1  0
 85 88  1  0
 85 87  1  0
 86 84  2  0
 89 90  1  0
 89 64  1  0
 91 89  1  0
M  ISO  4   6 101  10 101  55 100  56 100
M  END
>  <TORSDO>  (16) 
F 22

>  <SCORE>  (16) 
-13.050

>  <name>  (16) 
15

>  <ligand_id>  (16) 
15

>  <original_smiles>  (16) 
[H]c1c([H])c([H])c2c(c1[H])C([H])([H])C([H])([H])C([H])([H])C2([H])N([H])C(=O)C1([H])N(C(=O)C([H])(N([H])C(=O)C([H])(N([H])C([H])([H])[H])C([H])([H])[H])C(C([H])([H])[H])(C([H])([H])[H])C([H])([H])[H])C([H])([H])c2c([H])c(Oc3c([H])c([H])c(N([H])[H])c([H])c3C([H])([H])C([H])([H])C([H])([H])C([H])([H])C([H])([H])C(=O)N3C([H])([H])C([H])([H])C([H])([H])C([H])(n4nc(-c5c([H])c([H])c(Oc6c([H])c([H])c(F)c([H])c6F)c([H])c5[H])c(C(=O)N([H])[H])c4N([H])[H])C3([H])[H])c([H])c([H])c2C1([H])[H]

>  <smiles>  (16) 
[H]c1c([H])c([H])c2c(c1[H])C([H])([H])C([H])([H])C([H])([H])C2([H])N([H])C(=O)C1([H])N(C(=O)C([H])(N([H])C(=O)C([H])(N([H])C([H])([H])[H])C([H])([H])[H])C(C([H])([H])[H])(C([H])([H])[H])C([H])([H])[H])C([H])([H])c2c([H])c(Oc3c([H])c([H])c(N([H])[H])c([H])c3C([H])([H])C([H])([H])C([H])([H])C([H])([H])C([H])([H])C(=O)N3C([H])([H])C([H])([H])C([H])([H])C([H])(n4nc(-c5c([H])c([H])c(Oc6c([H])c([H])c(F)c([H])c6F)c([H])c5[H])c(C(=O)N([H])[H])c4N([H])[H])C3([H])[H])c([H])c([H])c2C1([H])[H]

$$$$
16:0:0
     RDKit          3D

 91100  0  0  1  0  0  0  0  0999 V2000
  -29.6390  -22.8460   19.1960 C   0  0  0  0  0  3  0  0  0  0  0  0
  -29.4650  -22.6940   21.8240 C   0  0  0  0  0  3  0  0  0  0  0  0
  -29.9130  -21.3230   19.7480 C   0  0  0  0  0  0  0  0  0  0  0  0
  -29.8630  -21.4750   21.1590 C   0  0  0  0  0  0  0  0  0  0  0  0
  -29.2420  -24.2900   19.8750 C   0  0  0  0  0  0  0  0  0  0  0  0
  -29.1680  -23.9800   21.2560 C   0  0  0  0  0  0  0  0  0  0  0  0
  -31.8010  -19.8250   21.4300 C   0  0  0  0  0  2  0  0  0  0  0  0
  -31.9660  -19.8060   19.8850 C   0  0  0  0  0  2  0  0  0  0  0  0
  -30.4050  -20.2810   21.9560 C   0  0  0  0  0  3  0  0  0  0  0  0
  -30.6050  -19.6060   19.2120 C   0  0  0  0  0  3  0  0  0  0  0  0
  -30.4490  -20.4740   23.4830 C   0  0  0  0  0  1  0  0  0  0  0  0
  -28.8630  -24.9800   22.1170 F   0  0  0  0  0  0  0  0  0  0  0  0
  -31.2810  -16.4230   19.6870 C   0  0  0  0  0  0  0  0  0  0  0  0
  -31.5760  -13.7480   19.3540 C   0  0  0  0  0  2  0  0  0  0  0  0
  -30.7800  -13.0060   18.2370 C   0  0  0  0  0  2  0  0  0  0  0  0
  -29.3750  -12.6230   18.7210 C   0  0  0  0  0  2  0  0  0  0  0  0
  -28.7440  -13.7740   19.5340 C   0  0  0  0  0  3  0  0  0  0  0  0
  -29.6940  -14.4130   20.5780 C   0  0  0  0  0  2  0  0  0  0  0  0
  -30.8330  -15.0160   19.8310 N   0  0  0  0  0  0  0  0  0  0  0  0
  -32.5290  -16.3620   19.6180 O   0  0  0  0  0  0  0  0  0  0  0  0
  -30.4810  -17.7880   19.4580 N   0  0  0  0  0  0  0  0  0  0  0  0
  -29.5010  -17.5460   19.4670 H   0  0  0  0  0  0  0  0  0  0  0  0
  -26.4360  -14.3390   20.4160 C   0  0  0  0  0  0  0  0  0  0  0  0
  -25.3530  -13.5800   20.7540 C   0  0  0  0  0  0  0  0  0  0  0  0
  -25.7590  -12.2180   20.6030 C   0  0  0  0  0  0  0  0  0  0  0  0
  -27.4320  -13.4460   20.0730 N   0  0  0  0  0  0  0  0  0  0  0  0
  -27.0410  -12.1560   20.2510 N   0  0  0  0  0  0  0  0  0  0  0  0
  -24.9760  -10.9790   20.7160 C   0  0  0  0  0  0  0  0  0  0  0  0
  -25.2620  -10.0070   21.7010 C   0  0  0  0  0  3  0  0  0  0  0  0
  -24.4770   -8.8380   21.8020 C   0  0  0  0  0  3  0  0  0  0  0  0
  -23.3910   -8.6320   20.9190 C   0  0  0  0  0  0  0  0  0  0  0  0
  -23.1240   -9.5910   19.9260 C   0  0  0  0  0  3  0  0  0  0  0  0
  -23.9100  -10.7520   19.8220 C   0  0  0  0  0  3  0  0  0  0  0  0
  -22.5910   -7.5150   20.9270 O   0  0  0  0  0  0  0  0  0  0  0  0
  -22.1140   -6.9790   22.0970 C   0  0  0  0  0  0  0  0  0  0  0  0
  -21.3230   -7.7310   22.9930 C   0  0  0  0  0  3  0  0  0  0  0  0
  -20.7960   -7.1210   24.1490 C   0  0  0  0  0  3  0  0  0  0  0  0
  -21.0500   -5.7610   24.4060 C   0  0  0  0  0  0  0  0  0  0  0  0
  -21.8330   -5.0090   23.5130 C   0  0  0  0  0  3  0  0  0  0  0  0
  -22.3600   -5.6160   22.3600 C   0  0  0  0  0  0  0  0  0  0  0  0
  -23.0960   -4.8810   21.4910 F   0  0  0  0  0  0  0  0  0  0  0  0
  -20.5380   -5.1720   25.5130 F   0  0  0  0  0  0  0  0  0  0  0  0
  -23.9860  -14.0980   21.0930 C   0  0  0  0  0  0  0  0  0  0  0  0
  -23.2710  -13.4110   21.9760 N   0  0  0  0  0  0  0  0  0  0  0  0
  -23.5650  -15.1500   20.6110 O   0  0  0  0  0  0  0  0  0  0  0  0
  -23.6260  -12.5610   22.3870 H   0  0  0  0  0  0  0  0  0  0  0  0
  -22.3550  -13.7410   22.2450 H   0  0  0  0  0  0  0  0  0  0  0  0
  -26.6530  -15.7110   20.3370 N   0  0  0  0  0  0  0  0  0  0  0  0
  -25.9130  -16.3820   20.5150 H   0  0  0  0  0  0  0  0  0  0  0  0
  -27.5000  -16.1370   19.9870 H   0  0  0  0  0  0  0  0  0  0  0  0
  -29.0700  -25.8960   19.5050 O   0  0  0  0  0  0  0  0  0  0  0  0
  -24.9800  -31.6300   23.1050 C   0  0  0  0  0  0  0  0  0  0  0  0
  -27.9900  -27.0500   19.6600 C   0  0  0  0  0  0  0  0  0  0  0  0
  -23.9530  -30.3320   21.2910 C   0  0  0  0  0  3  0  0  0  0  0  0
  -25.5650  -28.9530   19.7610 C   0  0  0  0  0  0  0  0  0  0  0  0
  -26.5180  -30.6640   21.2730 C   0  0  0  0  0  2  0  0  0  0  0  0
  -26.7160  -29.3090   20.4730 C   0  0  0  0  0  0  0  0  0  0  0  0
  -27.9060  -28.3910   20.3910 C   0  0  0  0  0  3  0  0  0  0  0  0
  -26.7860  -26.9380   18.9120 C   0  0  0  0  0  3  0  0  0  0  0  0
  -25.6420  -27.7990   18.9610 C   0  0  0  0  0  3  0  0  0  0  0  0
  -24.2860  -29.8070   19.8640 C   0  0  0  0  0  2  0  0  0  0  0  0
  -25.1710  -30.9070   21.9460 N   0  0  0  0  0  0  0  0  0  0  0  0
  -23.8520  -31.7860   23.6070 O   0  0  0  0  0  0  0  0  0  0  0  0
  -23.2890  -29.2050   22.1290 C   0  0  0  0  0  0  0  0  0  0  0  0
  -21.9750  -28.9660   21.9500 N   0  0  0  0  0  0  0  0  0  0  0  0
  -23.9720  -28.5450   22.9160 O   0  0  0  0  0  0  0  0  0  0  0  0
  -21.4680  -29.5550   21.3040 H   0  0  0  0  0  0  0  0  0  0  0  0
  -18.6910  -27.4250   22.2110 C   0  0  0  0  0  0  0  0  0  0  0  0
  -21.2100  -27.8870   22.5900 C   0  0  0  0  0  3  0  0  0  0  0  0
  -21.4530  -26.5360   21.8760 C   0  0  0  0  0  2  0  0  0  0  0  0
  -20.4150  -26.2300   20.7940 C   0  0  0  0  0  2  0  0  0  0  0  0
  -19.0090  -26.1810   21.3990 C   0  0  0  0  0  2  0  0  0  0  0  0
  -19.7240  -28.2350   22.7570 C   0  0  0  0  0  0  0  0  0  0  0  0
  -19.3710  -29.3950   23.4800 C   0  0  0  0  0  3  0  0  0  0  0  0
  -18.0210  -29.7490   23.6610 C   0  0  0  0  0  3  0  0  0  0  0  0
  -17.0040  -28.9380   23.1280 C   0  0  0  0  0  3  0  0  0  0  0  0
  -17.3400  -27.7770   22.4090 C   0  0  0  0  0  3  0  0  0  0  0  0
  -26.1660  -32.3090   23.8560 C   0  0  0  0  0  3  0  0  0  0  0  0
  -25.7430  -33.6630   24.2690 N   0  0  0  0  0  0  0  0  0  0  0  0
  -26.0420  -34.7980   23.6220 C   0  0  0  0  0  0  0  0  0  0  0  0
  -26.7580  -34.8190   22.6190 O   0  0  0  0  0  0  0  0  0  0  0  0
  -25.1030  -33.7140   25.0480 H   0  0  0  0  0  0  0  0  0  0  0  0
  -24.2170  -36.5190   23.3570 C   0  0  0  0  0  1  0  0  0  0  0  0
  -25.4590  -36.1200   24.1700 C   0  0  0  0  0  3  0  0  0  0  0  0
  -27.5000  -37.0790   25.1470 C   0  0  0  0  0  1  0  0  0  0  0  0
  -26.4270  -37.2390   24.1690 N   0  0  0  0  0  0  0  0  0  0  0  0
  -25.9580  -38.1220   24.3560 H   0  0  0  0  0  0  0  0  0  0  0  0
  -26.6390  -31.4930   25.1240 C   0  0  1  0  0  0  0  0  0  0  0  0
  -25.4950  -31.1460   26.1080 C   0  0  0  0  0  1  0  0  0  0  0  0
  -27.3130  -30.1660   24.7130 C   0  0  0  0  0  1  0  0  0  0  0  0
  -27.7050  -32.3020   25.9000 C   0  0  0  0  0  1  0  0  0  0  0  0
  1  3  2  0
  1  5  1  0
  3  4  1  0
  4  2  2  0
  4  9  1  0
  5  6  2  0
  6  2  1  0
  6 12  1  0
  7  9  1  0
  8  7  1  0
  9 11  1  0
 10 21  1  0
 10  3  1  0
 10  8  1  0
 13 19  1  0
 14 19  1  0
 15 16  1  0
 15 14  1  0
 17 16  1  0
 17 26  1  0
 17 18  1  0
 19 18  1  0
 20 13  2  0
 21 22  1  0
 21 13  1  0
 23 24  2  0
 24 43  1  0
 25 28  1  0
 25 24  1  0
 26 27  1  0
 26 23  1  0
 27 25  2  0
 28 29  1  0
 29 30  2  0
 31 34  1  0
 31 30  1  0
 32 31  2  0
 33 32  1  0
 33 28  2  0
 34 35  1  0
 35 40  2  0
 35 36  1  0
 36 37  2  0
 37 38  1  0
 38 42  1  0
 39 38  2  0
 40 39  1  0
 41 40  1  0
 43 44  1  0
 44 47  1  0
 44 46  1  0
 45 43  2  0
 48 23  1  0
 48 49  1  0
 50 48  1  0
 51 53  1  0
 51  5  1  0
 52 63  2  0
 53 58  1  0
 54 62  1  0
 54 64  1  0
 55 61  1  0
 55 57  1  0
 56 62  1  0
 57 56  1  0
 58 57  2  0
 59 60  1  0
 59 53  2  0
 60 55  2  0
 61 54  1  0
 62 52  1  0
 64 66  2  0
 65 64  1  0
 67 65  1  0
 68 77  2  0
 68 73  1  0
 69 65  1  0
 69 73  1  0
 70 69  1  0
 71 72  1  0
 71 70  1  0
 72 68  1  0
 73 74  2  0
 74 75  1  0
 76 75  2  0
 77 76  1  0
 78 52  1  0
 78 79  1  0
 78 88  1  0
 79 82  1  0
 80 84  1  0
 80 79  1  0
 81 80  2  0
 84 83  1  0
 86 84  1  0
 86 87  1  0
 86 85  1  0
 88 91  1  1
 88 89  1  0
 90 88  1  0
M  ISO  4   5 101  13 100  21 100  51 101
M  END
>  <TORSDO>  (17) 
F 16

>  <SCORE>  (17) 
-12.520

>  <name>  (17) 
16

>  <ligand_id>  (17) 
16

>  <original_smiles>  (17) 
[H]c1c([H])c([H])c2c(c1[H])C([H])([H])C([H])([H])C([H])([H])C2([H])N([H])C(=O)C1([H])N(C(=O)C([H])(N([H])C(=O)C([H])(N([H])C([H])([H])[H])C([H])([H])[H])C(C([H])([H])[H])(C([H])([H])[H])C([H])([H])[H])C([H])([H])c2c([H])c(Oc3c([H])c4c(c([H])c3F)C([H])(C([H])([H])[H])C([H])([H])C([H])([H])C4([H])N([H])C(=O)N3C([H])([H])C([H])([H])C([H])([H])C([H])(n4nc(-c5c([H])c([H])c(Oc6c([H])c([H])c(F)c([H])c6F)c([H])c5[H])c(C(=O)N([H])[H])c4N([H])[H])C3([H])[H])c([H])c([H])c2C1([H])[H]

>  <smiles>  (17) 
[H]c1c([H])c([H])c2c(c1[H])C([H])([H])C([H])([H])C([H])([H])C2([H])N([H])C(=O)C1([H])N(C(=O)C([H])(N([H])C(=O)C([H])(N([H])C([H])([H])[H])C([H])([H])[H])C(C([H])([H])[H])(C([H])([H])[H])C([H])([H])[H])C([H])([H])c2c([H])c(Oc3c([H])c4c(c([H])c3F)C([H])(C([H])([H])[H])C([H])([H])C([H])([H])C4([H])N([H])C(=O)N3C([H])([H])C([H])([H])C([H])([H])C([H])(n4nc(-c5c([H])c([H])c(Oc6c([H])c([H])c(F)c([H])c6F)c([H])c5[H])c(C(=O)N([H])[H])c4N([H])[H])C3([H])[H])c([H])c([H])c2C1([H])[H]

$$$$
17:0:0
     RDKit          3D

 94103  0  0  1  0  0  0  0  0999 V2000
  -27.6910  -21.8920   20.9950 C   0  0  0  0  0  3  0  0  0  0  0  0
  -28.9740  -23.4860   19.7180 C   0  0  0  0  0  3  0  0  0  0  0  0
  -27.0830  -24.3500   20.9420 C   0  0  0  0  0  3  0  0  0  0  0  0
  -28.8140  -21.9820   20.1430 C   0  0  0  0  0  0  0  0  0  0  0  0
  -26.8730  -23.0020   21.3640 C   0  0  0  0  0  0  0  0  0  0  0  0
  -28.1360  -24.7580   20.0910 C   0  0  0  0  0  0  0  0  0  0  0  0
  -25.6880  -22.7380   22.2800 C   0  0  0  0  0  1  0  0  0  0  0  0
  -30.7250  -15.9940   20.2640 C   0  0  0  0  0  0  0  0  0  0  0  0
  -30.8170  -13.5020   19.4790 C   0  0  0  0  0  2  0  0  0  0  0  0
  -29.9550  -13.1690   18.2370 C   0  0  0  0  0  2  0  0  0  0  0  0
  -28.5090  -12.8410   18.6530 C   0  0  0  0  0  2  0  0  0  0  0  0
  -27.9770  -13.8270   19.7240 C   0  0  0  0  0  3  0  0  0  0  0  0
  -28.9820  -14.1200   20.8560 C   0  0  0  0  0  2  0  0  0  0  0  0
  -30.1840  -14.6660   20.2060 N   0  0  0  0  0  0  0  0  0  0  0  0
  -31.9640  -15.9690   20.2400 O   0  0  0  0  0  0  0  0  0  0  0  0
  -28.7850  -18.4840   18.0370 C   0  0  0  0  0  2  0  0  0  0  0  0
  -29.0060  -20.0070   18.3270 C   0  0  0  0  0  2  0  0  0  0  0  0
  -29.9100  -17.5030   18.4840 C   0  0  0  0  0  2  0  0  0  0  0  0
  -29.7240  -18.8250   20.5630 C   0  0  0  0  0  2  0  0  0  0  0  0
  -29.6000  -20.4320   19.7100 C   0  0  2  0  0  0  0  0  0  0  0  0
  -29.9860  -17.2770   19.9450 N   0  0  0  0  0  0  0  0  0  0  0  0
  -25.6100  -14.3310   20.5030 C   0  0  0  0  0  0  0  0  0  0  0  0
  -24.5460  -13.5350   20.8210 C   0  0  0  0  0  0  0  0  0  0  0  0
  -25.0180  -12.1900   20.7310 C   0  0  0  0  0  0  0  0  0  0  0  0
  -26.6550  -13.4730   20.2240 N   0  0  0  0  0  0  0  0  0  0  0  0
  -26.3130  -12.1750   20.4300 N   0  0  0  0  0  0  0  0  0  0  0  0
  -24.2940  -10.9180   20.8580 C   0  0  0  0  0  0  0  0  0  0  0  0
  -24.6850   -9.9370   21.7980 C   0  0  0  0  0  3  0  0  0  0  0  0
  -23.9640   -8.7300   21.9150 C   0  0  0  0  0  3  0  0  0  0  0  0
  -22.8360   -8.4940   21.0930 C   0  0  0  0  0  0  0  0  0  0  0  0
  -22.4660   -9.4640   20.1460 C   0  0  0  0  0  3  0  0  0  0  0  0
  -23.1880  -10.6630   20.0270 C   0  0  0  0  0  3  0  0  0  0  0  0
  -22.0870   -7.3450   21.1180 O   0  0  0  0  0  0  0  0  0  0  0  0
  -21.9260   -6.6170   22.2690 C   0  0  0  0  0  0  0  0  0  0  0  0
  -21.3350   -7.1700   23.4260 C   0  0  0  0  0  3  0  0  0  0  0  0
  -21.1280   -6.3650   24.5640 C   0  0  0  0  0  3  0  0  0  0  0  0
  -21.4990   -5.0050   24.5420 C   0  0  0  0  0  0  0  0  0  0  0  0
  -22.0800   -4.4530   23.3880 C   0  0  0  0  0  3  0  0  0  0  0  0
  -22.2900   -5.2560   22.2540 C   0  0  0  0  0  0  0  0  0  0  0  0
  -22.8340   -4.7110   21.1390 F   0  0  0  0  0  0  0  0  0  0  0  0
  -21.2920   -4.2310   25.6320 F   0  0  0  0  0  0  0  0  0  0  0  0
  -23.1450  -13.9970   21.0880 C   0  0  0  0  0  0  0  0  0  0  0  0
  -22.4060  -13.2650   21.9130 N   0  0  0  0  0  0  0  0  0  0  0  0
  -22.7130  -15.0390   20.5970 O   0  0  0  0  0  0  0  0  0  0  0  0
  -22.7760  -12.4260   22.3320 H   0  0  0  0  0  0  0  0  0  0  0  0
  -21.4590  -13.5480   22.1240 H   0  0  0  0  0  0  0  0  0  0  0  0
  -25.7650  -15.7100   20.3920 N   0  0  0  0  0  0  0  0  0  0  0  0
  -24.9840  -16.3440   20.5230 H   0  0  0  0  0  0  0  0  0  0  0  0
  -26.6150  -16.1700   20.0970 H   0  0  0  0  0  0  0  0  0  0  0  0
  -31.0100  -20.8170   19.5060 N   0  0  0  0  0  4  0  0  0  0  0  0
  -31.1010  -21.5130   18.7870 H   0  0  0  0  0  0  0  0  0  0  0  0
  -31.5630  -20.0210   19.2430 H   0  0  0  0  0  0  0  0  0  0  0  0
  -31.3960  -21.1890   20.3550 H   0  0  0  0  0  0  0  0  0  0  0  0
  -28.2440  -26.2920   19.8240 O   0  0  0  0  0  0  0  0  0  0  0  0
  -24.7560  -32.1090   23.3630 C   0  0  0  0  0  0  0  0  0  0  0  0
  -27.2340  -27.4110   19.9470 C   0  0  0  0  0  0  0  0  0  0  0  0
  -23.5300  -30.8440   21.6430 C   0  0  0  0  0  3  0  0  0  0  0  0
  -24.9490  -29.3350   20.0860 C   0  0  0  0  0  0  0  0  0  0  0  0
  -26.1010  -31.0340   21.4910 C   0  0  0  0  0  2  0  0  0  0  0  0
  -26.1480  -29.6700   20.7280 C   0  0  0  0  0  0  0  0  0  0  0  0
  -27.2810  -28.7340   20.6380 C   0  0  0  0  0  3  0  0  0  0  0  0
  -26.0090  -27.2520   19.2630 C   0  0  0  0  0  3  0  0  0  0  0  0
  -24.9070  -28.1460   19.3340 C   0  0  0  0  0  3  0  0  0  0  0  0
  -23.7420  -30.2660   20.2140 C   0  0  0  0  0  2  0  0  0  0  0  0
  -24.8170  -31.3590   22.2160 N   0  0  0  0  0  0  0  0  0  0  0  0
  -23.6750  -32.3600   23.9230 O   0  0  0  0  0  0  0  0  0  0  0  0
  -22.8420  -29.7860   22.5440 C   0  0  0  0  0  0  0  0  0  0  0  0
  -21.5170  -29.6040   22.3990 N   0  0  0  0  0  0  0  0  0  0  0  0
  -23.5120  -29.1320   23.3470 O   0  0  0  0  0  0  0  0  0  0  0  0
  -21.0270  -30.1870   21.7340 H   0  0  0  0  0  0  0  0  0  0  0  0
  -18.1480  -28.3180   22.8350 C   0  0  0  0  0  0  0  0  0  0  0  0
  -20.7060  -28.6070   23.1110 C   0  0  0  0  0  3  0  0  0  0  0  0
  -20.8280  -27.2180   22.4440 C   0  0  0  0  0  2  0  0  0  0  0  0
  -19.7280  -26.9440   21.4130 C   0  0  0  0  0  2  0  0  0  0  0  0
  -18.3450  -27.0220   22.0660 C   0  0  0  0  0  2  0  0  0  0  0  0
  -19.2550  -29.0710   23.3100 C   0  0  0  0  0  0  0  0  0  0  0  0
  -19.0160  -30.2840   23.9910 C   0  0  0  0  0  3  0  0  0  0  0  0
  -17.7030  -30.7410   24.2030 C   0  0  0  0  0  3  0  0  0  0  0  0
  -16.6100  -29.9870   23.7440 C   0  0  0  0  0  3  0  0  0  0  0  0
  -16.8350  -28.7760   23.0620 C   0  0  0  0  0  3  0  0  0  0  0  0
  -26.0390  -32.6990   24.0210 C   0  0  0  0  0  3  0  0  0  0  0  0
  -26.5520  -31.8540   25.2500 C   0  0  1  0  0  0  0  0  0  0  0  0
  -25.4630  -31.5630   26.3080 C   0  0  0  0  0  1  0  0  0  0  0  0
  -27.1260  -30.4950   24.7980 C   0  0  0  0  0  1  0  0  0  0  0  0
  -27.7130  -32.5980   25.9490 C   0  0  0  0  0  1  0  0  0  0  0  0
  -25.7410  -34.0780   24.4520 N   0  0  0  0  0  0  0  0  0  0  0  0
  -26.0460  -35.1860   23.7620 C   0  0  0  0  0  0  0  0  0  0  0  0
  -26.6710  -35.1550   22.7000 O   0  0  0  0  0  0  0  0  0  0  0  0
  -25.1960  -34.1740   25.2950 H   0  0  0  0  0  0  0  0  0  0  0  0
  -24.3070  -36.9990   23.6130 C   0  0  0  0  0  1  0  0  0  0  0  0
  -25.5830  -36.5390   24.3360 C   0  0  0  0  0  3  0  0  0  0  0  0
  -27.7430  -37.3840   25.1330 C   0  0  0  0  0  1  0  0  0  0  0  0
  -26.6040  -37.6040   24.2460 N   0  0  0  0  0  0  0  0  0  0  0  0
  -26.1960  -38.5070   24.4670 H   0  0  0  0  0  0  0  0  0  0  0  0
  1  5  1  0
  2  6  2  0
  2  4  1  0
  3  5  2  0
  4  1  2  0
  5  7  1  0
  6  3  1  0
  9 14  1  0
 10 11  1  0
 10  9  1  0
 12 11  1  0
 12 25  1  0
 12 13  1  0
 14  8  1  0
 14 13  1  0
 15  8  2  0
 16 17  1  0
 16 18  1  0
 17 20  1  0
 18 21  1  0
 20 50  1  6
 20  4  1  0
 20 19  1  0
 21  8  1  0
 21 19  1  0
 22 23  2  0
 23 42  1  0
 24 23  1  0
 24 27  1  0
 25 26  1  0
 25 22  1  0
 26 24  2  0
 27 28  1  0
 28 29  2  0
 30 33  1  0
 30 29  1  0
 31 30  2  0
 32 31  1  0
 32 27  2  0
 33 34  1  0
 34 35  1  0
 35 36  2  0
 37 36  1  0
 37 41  1  0
 38 37  2  0
 39 34  2  0
 39 38  1  0
 40 39  1  0
 42 43  1  0
 43 46  1  0
 43 45  1  0
 44 42  2  0
 47 22  1  0
 47 48  1  0
 49 47  1  0
 50 53  1  0
 51 50  1  0
 52 50  1  0
 54 56  1  0
 54  6  1  0
 55 66  2  0
 56 61  1  0
 57 65  1  0
 57 67  1  0
 58 64  1  0
 58 60  1  0
 59 65  1  0
 60 59  1  0
 61 60  2  0
 62 63  1  0
 62 56  2  0
 63 58  2  0
 64 57  1  0
 65 55  1  0
 67 69  2  0
 68 67  1  0
 70 68  1  0
 71 80  2  0
 71 76  1  0
 72 68  1  0
 72 76  1  0
 73 72  1  0
 74 75  1  0
 74 73  1  0
 75 71  1  0
 76 77  2  0
 77 78  1  0
 79 78  2  0
 80 79  1  0
 81 55  1  0
 81 86  1  0
 81 82  1  0
 82 85  1  1
 82 83  1  0
 84 82  1  0
 86 89  1  0
 87 91  1  0
 87 86  1  0
 88 87  2  0
 91 90  1  0
 93 91  1  0
 93 94  1  0
 93 92  1  0
M  ISO  4   6 101   8 100  21 100  54 101
M  END
>  <TORSDO>  (18) 
F 17

>  <SCORE>  (18) 
-13.481

>  <name>  (18) 
17

>  <ligand_id>  (18) 
17

>  <original_smiles>  (18) 
[H]c1c([H])c([H])c2c(c1[H])C([H])([H])C([H])([H])C([H])([H])C2([H])N([H])C(=O)C1([H])N(C(=O)C([H])(N([H])C(=O)C([H])(N([H])C([H])([H])[H])C([H])([H])[H])C(C([H])([H])[H])(C([H])([H])[H])C([H])([H])[H])C([H])([H])c2c([H])c(Oc3c([H])c(C([H])([H])[H])c([H])c(C4([N+]([H])([H])[H])C([H])([H])N(C(=O)N5C([H])([H])C([H])([H])C([H])([H])C([H])(n6nc(-c7c([H])c([H])c(Oc8c([H])c([H])c(F)c([H])c8F)c([H])c7[H])c(C(=O)N([H])[H])c6N([H])[H])C5([H])[H])C([H])([H])C([H])([H])C4([H])[H])c3[H])c([H])c([H])c2C1([H])[H]

>  <smiles>  (18) 
[H]c1c([H])c([H])c2c(c1[H])C([H])([H])C([H])([H])C([H])([H])C2([H])N([H])C(=O)C1([H])N(C(=O)C([H])(N([H])C(=O)C([H])(N([H])C([H])([H])[H])C([H])([H])[H])C(C([H])([H])[H])(C([H])([H])[H])C([H])([H])[H])C([H])([H])c2c([H])c(Oc3c([H])c(C([H])([H])[H])c([H])c(C4([N+]([H])([H])[H])C([H])([H])N(C(=O)N5C([H])([H])C([H])([H])C([H])([H])C([H])(n6nc(-c7c([H])c([H])c(Oc8c([H])c([H])c(F)c([H])c8F)c([H])c7[H])c(C(=O)N([H])[H])c6N([H])[H])C5([H])[H])C([H])([H])C([H])([H])C4([H])[H])c3[H])c([H])c([H])c2C1([H])[H]

$$$$
18:0:0
     RDKit          3D

 87 95  0  0  1  0  0  0  0  0999 V2000
  -30.2000  -21.1300   20.4160 C   0  0  0  0  0  3  0  0  0  0  0  0
  -29.8250  -22.6560   20.4550 C   0  0  0  0  0  3  0  0  0  0  0  0
  -27.8270  -22.2110   19.7670 C   0  0  0  0  0  3  0  0  0  0  0  0
  -29.4370  -19.8830   20.0130 C   0  0  0  0  0  0  0  0  0  0  0  0
  -28.2110  -20.6590   19.7150 C   0  0  0  0  0  0  0  0  0  0  0  0
  -28.5870  -23.5090   20.1570 C   0  0  0  0  0  0  0  0  0  0  0  0
  -27.2760  -19.4800   19.3850 C   0  0  0  0  0  2  0  0  0  0  0  0
  -28.0460  -18.0510   19.2880 C   0  0  0  0  0  2  0  0  0  0  0  0
  -29.4200  -17.9400   20.0580 C   0  0  0  0  0  3  0  0  0  0  0  0
  -29.1270  -17.7300   21.5570 C   0  0  0  0  0  1  0  0  0  0  0  0
  -30.2950  -16.1460   19.6940 C   0  0  0  0  0  2  0  0  0  0  0  0
  -30.5570  -13.4910   18.9130 C   0  0  0  0  0  2  0  0  0  0  0  0
  -29.6270  -12.8980   17.7990 C   0  0  0  0  0  2  0  0  0  0  0  0
  -28.2870  -12.4200   18.3740 C   0  0  0  0  0  2  0  0  0  0  0  0
  -27.7790  -13.4220   19.4280 C   0  0  0  0  0  3  0  0  0  0  0  0
  -28.8550  -13.9120   20.4360 C   0  0  0  0  0  2  0  0  0  0  0  0
  -29.9060  -14.6790   19.6930 N   0  0  0  0  0  0  0  0  0  0  0  0
  -31.5030  -16.0680   19.3600 O   0  0  0  0  0  1  0  0  0  0  0  0
  -25.5200  -13.8530   20.4860 C   0  0  0  0  0  0  0  0  0  0  0  0
  -24.5090  -13.0430   20.9110 C   0  0  0  0  0  0  0  0  0  0  0  0
  -24.9750  -11.7030   20.7370 C   0  0  0  0  0  0  0  0  0  0  0  0
  -26.5350  -13.0150   20.0690 N   0  0  0  0  0  0  0  0  0  0  0  0
  -26.2290  -11.7060   20.2820 N   0  0  0  0  0  0  0  0  0  0  0  0
  -24.2670  -10.4280   20.9190 C   0  0  0  0  0  0  0  0  0  0  0  0
  -24.7150   -9.4560   21.8410 C   0  0  0  0  0  3  0  0  0  0  0  0
  -23.9990   -8.2520   22.0160 C   0  0  0  0  0  3  0  0  0  0  0  0
  -22.8210   -8.0090   21.2700 C   0  0  0  0  0  0  0  0  0  0  0  0
  -22.3920   -8.9700   20.3380 C   0  0  0  0  0  3  0  0  0  0  0  0
  -23.1070  -10.1660   20.1600 C   0  0  0  0  0  3  0  0  0  0  0  0
  -22.0760   -6.8560   21.3550 O   0  0  0  0  0  0  0  0  0  0  0  0
  -21.9200   -6.1850   22.5420 C   0  0  0  0  0  0  0  0  0  0  0  0
  -21.3170   -6.7910   23.6660 C   0  0  0  0  0  3  0  0  0  0  0  0
  -21.1130   -6.0440   24.8440 C   0  0  0  0  0  3  0  0  0  0  0  0
  -21.5000   -4.6920   24.8960 C   0  0  0  0  0  0  0  0  0  0  0  0
  -22.0960   -4.0850   23.7770 C   0  0  0  0  0  3  0  0  0  0  0  0
  -22.3030   -4.8310   22.6020 C   0  0  0  0  0  0  0  0  0  0  0  0
  -22.8580   -4.2360   21.5190 F   0  0  0  0  0  0  0  0  0  0  0  0
  -21.2990   -3.9720   26.0250 F   0  0  0  0  0  0  0  0  0  0  0  0
  -23.1480  -13.4950   21.3530 C   0  0  0  0  0  0  0  0  0  0  0  0
  -22.5180  -12.7540   22.2550 N   0  0  0  0  0  0  0  0  0  0  0  0
  -22.6590  -14.5430   20.9340 O   0  0  0  0  0  0  0  0  0  0  0  0
  -22.9330  -11.9080   22.6180 H   0  0  0  0  0  0  0  0  0  0  0  0
  -21.6090  -13.0380   22.5920 H   0  0  0  0  0  0  0  0  0  0  0  0
  -25.6500  -15.2320   20.3850 N   0  0  0  0  0  0  0  0  0  0  0  0
  -24.8910  -15.8600   20.6230 H   0  0  0  0  0  0  0  0  0  0  0  0
  -26.4470  -15.7030   19.9810 H   0  0  0  0  0  0  0  0  0  0  0  0
  -28.4130  -25.2230   20.2510 O   0  0  0  0  0  0  0  0  0  0  0  0
  -24.9110  -31.7860   23.3020 C   0  0  0  0  0  0  0  0  0  0  0  0
  -27.4340  -26.5290   20.2610 C   0  0  0  0  0  0  0  0  0  0  0  0
  -23.7510  -30.4330   21.6110 C   0  0  0  0  0  3  0  0  0  0  0  0
  -25.2100  -28.7520   20.2020 C   0  0  0  0  0  0  0  0  0  0  0  0
  -26.3420  -30.4760   21.5720 C   0  0  0  0  0  2  0  0  0  0  0  0
  -26.3980  -29.0300   20.8860 C   0  0  0  0  0  0  0  0  0  0  0  0
  -27.4780  -27.9570   20.8780 C   0  0  0  0  0  3  0  0  0  0  0  0
  -26.2150  -26.5360   19.5150 C   0  0  0  0  0  3  0  0  0  0  0  0
  -25.1730  -27.5340   19.4930 C   0  0  0  0  0  3  0  0  0  0  0  0
  -24.0240  -29.7460   20.2370 C   0  0  0  0  0  2  0  0  0  0  0  0
  -25.0270  -30.9380   22.2150 N   0  0  0  0  0  0  0  0  0  0  0  0
  -23.8060  -32.0960   23.7850 O   0  0  0  0  0  0  0  0  0  0  0  0
  -22.9850  -29.4630   22.5520 C   0  0  0  0  0  0  0  0  0  0  0  0
  -21.6520  -29.3300   22.3940 N   0  0  0  0  0  0  0  0  0  0  0  0
  -23.6060  -28.8210   23.4010 O   0  0  0  0  0  0  0  0  0  0  0  0
  -21.1970  -29.8970   21.6920 H   0  0  0  0  0  0  0  0  0  0  0  0
  -18.2350  -28.1580   22.8450 C   0  0  0  0  0  0  0  0  0  0  0  0
  -20.7990  -28.3850   23.1290 C   0  0  0  0  0  3  0  0  0  0  0  0
  -20.8820  -26.9700   22.5100 C   0  0  0  0  0  2  0  0  0  0  0  0
  -19.7840  -26.6970   21.4770 C   0  0  0  0  0  2  0  0  0  0  0  0
  -18.4000  -26.8350   22.1160 C   0  0  0  0  0  2  0  0  0  0  0  0
  -19.3610  -28.8940   23.3050 C   0  0  0  0  0  0  0  0  0  0  0  0
  -19.1490  -30.1290   23.9540 C   0  0  0  0  0  3  0  0  0  0  0  0
  -17.8470  -30.6320   24.1420 C   0  0  0  0  0  3  0  0  0  0  0  0
  -16.7380  -29.8940   23.6920 C   0  0  0  0  0  3  0  0  0  0  0  0
  -16.9320  -28.6590   23.0500 C   0  0  0  0  0  3  0  0  0  0  0  0
  -26.1550  -32.4210   23.9940 C   0  0  0  0  0  3  0  0  0  0  0  0
  -25.8380  -33.8270   24.3340 N   0  0  0  0  0  0  0  0  0  0  0  0
  -26.1700  -34.8990   23.5990 C   0  0  0  0  0  0  0  0  0  0  0  0
  -26.8250  -34.8100   22.5590 O   0  0  0  0  0  0  0  0  0  0  0  0
  -25.2500  -33.9670   25.1410 H   0  0  0  0  0  0  0  0  0  0  0  0
  -24.4270  -36.7060   23.3530 C   0  0  0  0  0  1  0  0  0  0  0  0
  -25.7070  -36.2890   24.0940 C   0  0  0  0  0  3  0  0  0  0  0  0
  -27.8710  -37.1910   24.8360 C   0  0  0  0  0  1  0  0  0  0  0  0
  -26.7320  -37.3450   23.9330 N   0  0  0  0  0  0  0  0  0  0  0  0
  -26.3290  -38.2660   24.0860 H   0  0  0  0  0  0  0  0  0  0  0  0
  -26.5930  -31.6520   25.3020 C   0  0  1  0  0  0  0  0  0  0  0  0
  -25.4430  -31.4380   26.3160 C   0  0  0  0  0  1  0  0  0  0  0  0
  -27.1750  -30.2620   24.9640 C   0  0  0  0  0  1  0  0  0  0  0  0
  -27.7210  -32.4340   26.0170 C   0  0  0  0  0  1  0  0  0  0  0  0
  1  2  1  0
  3  6  1  0
  4  9  1  0
  4  1  2  0
  5  3  2  0
  5  4  1  0
  6 47  1  0
  6  2  2  0
  7  5  1  0
  8  7  1  0
  8  9  1  0
  9 10  1  0
 12 17  1  0
 13 14  1  0
 13 12  1  0
 15 14  1  0
 15 22  1  0
 15 16  1  0
 17 11  1  0
 17 16  1  0
 18 11  1  0
 19 20  2  0
 20 39  1  0
 21 20  1  0
 21 24  1  0
 22 23  1  0
 22 19  1  0
 23 21  2  0
 24 25  1  0
 25 26  2  0
 27 30  1  0
 27 26  1  0
 28 27  2  0
 29 28  1  0
 29 24  2  0
 30 31  1  0
 31 36  2  0
 31 32  1  0
 32 33  2  0
 33 34  1  0
 34 38  1  0
 35 34  2  0
 36 35  1  0
 37 36  1  0
 39 40  1  0
 40 43  1  0
 40 42  1  0
 41 39  2  0
 44 19  1  0
 44 45  1  0
 46 44  1  0
 47 49  1  0
 48 59  2  0
 49 54  1  0
 50 58  1  0
 50 60  1  0
 51 57  1  0
 51 53  1  0
 52 58  1  0
 53 52  1  0
 54 53  2  0
 55 49  2  0
 56 55  1  0
 56 51  2  0
 57 50  1  0
 58 48  1  0
 60 62  2  0
 61 60  1  0
 63 61  1  0
 64 73  2  0
 64 69  1  0
 65 61  1  0
 65 69  1  0
 66 65  1  0
 67 68  1  0
 67 66  1  0
 68 64  1  0
 69 70  2  0
 70 71  1  0
 72 71  2  0
 73 72  1  0
 74 48  1  0
 74 75  1  0
 74 84  1  0
 75 78  1  0
 76 80  1  0
 76 75  1  0
 77 76  2  0
 80 79  1  0
 82 83  1  0
 82 80  1  0
 82 81  1  0
 84 87  1  1
 84 85  1  0
 86 84  1  0
M  ISO  4   6 101   9 100  11 100  47 101
M  END
>  <TORSDO>  (19) 
F 16

>  <SCORE>  (19) 
-15.124

>  <name>  (19) 
18

>  <ligand_id>  (19) 
18

>  <original_smiles>  (19) 
[H]c1c([H])c([H])c2c(c1[H])C([H])([H])C([H])([H])C([H])([H])C2([H])N([H])C(=O)C1([H])N(C(=O)C([H])(N([H])C(=O)C([H])(N([H])C([H])([H])[H])C([H])([H])[H])C(C([H])([H])[H])(C([H])([H])[H])C([H])([H])[H])C([H])([H])c2c([H])c(Oc3c([H])c([H])c4c(c3[H])C([H])([H])C([H])([H])C4(C(=O)N3C([H])([H])C([H])([H])C([H])([H])C([H])(n4nc(-c5c([H])c([H])c(Oc6c([H])c([H])c(F)c([H])c6F)c([H])c5[H])c(C(=O)N([H])[H])c4N([H])[H])C3([H])[H])C([H])([H])[H])c([H])c([H])c2C1([H])[H]

>  <smiles>  (19) 
[H]c1c([H])c([H])c2c(c1[H])C([H])([H])C([H])([H])C([H])([H])C2([H])N([H])C(=O)C1([H])N(C(=O)C([H])(N([H])C(=O)C([H])(N([H])C([H])([H])[H])C([H])([H])[H])C(C([H])([H])[H])(C([H])([H])[H])C([H])([H])[H])C([H])([H])c2c([H])c(Oc3c([H])c([H])c4c(c3[H])C([H])([H])C([H])([H])C4(C(=O)N3C([H])([H])C([H])([H])C([H])([H])C([H])(n4nc(-c5c([H])c([H])c(Oc6c([H])c([H])c(F)c([H])c6F)c([H])c5[H])c(C(=O)N([H])[H])c4N([H])[H])C3([H])[H])C([H])([H])[H])c([H])c([H])c2C1([H])[H]

$$$$
19:0:0
     RDKit          3D

 95104  0  0  1  0  0  0  0  0999 V2000
  -30.7420  -21.9920   18.8330 C   0  0  0  0  0  3  0  0  0  0  0  0
  -31.3000  -23.0970   18.1790 C   0  0  0  0  0  3  0  0  0  0  0  0
  -29.6010  -22.1210   19.6550 C   0  0  0  0  0  0  0  0  0  0  0  0
  -30.7290  -24.3720   18.3230 C   0  0  0  0  0  0  0  0  0  0  0  0
  -29.6390  -24.5960   19.1980 C   0  0  0  0  0  0  0  0  0  0  0  0
  -29.0620  -23.4530   19.8730 C   0  0  0  0  0  0  0  0  0  0  0  0
  -31.3050  -25.5260   17.5150 C   0  0  0  0  0  2  0  0  0  0  0  0
  -30.2130  -26.4440   16.9270 C   0  0  0  0  0  2  0  0  0  0  0  0
  -29.0440  -26.7620   17.8860 C   0  0  0  0  0  2  0  0  0  0  0  0
  -29.2200  -26.1080   19.2700 C   0  0  0  0  0  3  0  0  0  0  0  0
  -27.8790  -23.6640   20.8150 C   0  0  0  0  0  1  0  0  0  0  0  0
  -28.9680  -20.8160   20.1570 C   0  0  0  0  0  0  0  0  0  0  0  0
  -29.7900  -19.7610   20.4040 N   0  0  0  0  0  0  0  0  0  0  0  0
  -27.7480  -20.7230   20.3010 O   0  0  0  0  0  0  0  0  0  0  0  0
  -30.7790  -19.9360   20.2930 H   0  0  0  0  0  0  0  0  0  0  0  0
  -29.3830  -18.4140   20.8840 C   0  0  0  0  0  2  0  0  0  0  0  0
  -30.2940  -17.2180   20.4330 C   0  0  0  0  0  2  0  0  0  0  0  0
  -29.8930  -15.8260   21.0470 C   0  0  0  0  0  2  0  0  0  0  0  0
  -30.6270  -14.5670   20.4770 C   0  0  0  0  0  0  0  0  0  0  0  0
  -30.3780  -12.3650   19.3580 C   0  0  0  0  0  2  0  0  0  0  0  0
  -29.4590  -12.5420   18.1290 C   0  0  0  0  0  2  0  0  0  0  0  0
  -27.9750  -12.4090   18.5270 C   0  0  0  0  0  2  0  0  0  0  0  0
  -27.6130  -13.2520   19.7810 C   0  0  0  0  0  3  0  0  0  0  0  0
  -28.6530  -13.0620   20.9100 C   0  0  0  0  0  2  0  0  0  0  0  0
  -29.9790  -13.3700   20.3580 N   0  0  0  0  0  0  0  0  0  0  0  0
  -31.7740  -14.7170   20.0420 O   0  0  0  0  0  0  0  0  0  0  0  0
  -25.2050  -13.8670   20.4350 C   0  0  0  0  0  0  0  0  0  0  0  0
  -24.1290  -13.0970   20.7960 C   0  0  0  0  0  0  0  0  0  0  0  0
  -24.5930  -11.7470   20.7980 C   0  0  0  0  0  0  0  0  0  0  0  0
  -26.2530  -12.9820   20.2420 N   0  0  0  0  0  0  0  0  0  0  0  0
  -25.8880  -11.7040   20.5150 N   0  0  0  0  0  0  0  0  0  0  0  0
  -23.8650  -10.4880   20.9950 C   0  0  0  0  0  0  0  0  0  0  0  0
  -24.2810   -9.5350   21.9500 C   0  0  0  0  0  3  0  0  0  0  0  0
  -23.5540   -8.3390   22.1330 C   0  0  0  0  0  3  0  0  0  0  0  0
  -22.3950   -8.0880   21.3590 C   0  0  0  0  0  0  0  0  0  0  0  0
  -22.0000   -9.0290   20.3910 C   0  0  0  0  0  3  0  0  0  0  0  0
  -22.7270  -10.2160   20.2080 C   0  0  0  0  0  3  0  0  0  0  0  0
  -21.6410   -6.9440   21.4500 O   0  0  0  0  0  0  0  0  0  0  0  0
  -21.5710   -6.2180   22.6130 C   0  0  0  0  0  0  0  0  0  0  0  0
  -21.1140   -6.7870   23.8210 C   0  0  0  0  0  3  0  0  0  0  0  0
  -20.9930   -5.9860   24.9750 C   0  0  0  0  0  3  0  0  0  0  0  0
  -21.3180   -4.6160   24.9190 C   0  0  0  0  0  0  0  0  0  0  0  0
  -21.7660   -4.0480   23.7140 C   0  0  0  0  0  3  0  0  0  0  0  0
  -21.8870   -4.8460   22.5640 C   0  0  0  0  0  0  0  0  0  0  0  0
  -22.3010   -4.2880   21.3990 F   0  0  0  0  0  0  0  0  0  0  0  0
  -21.1950   -3.8440   26.0230 F   0  0  0  0  0  0  0  0  0  0  0  0
  -22.7270  -13.5780   21.0320 C   0  0  0  0  0  0  0  0  0  0  0  0
  -21.9810  -12.8950   21.8960 N   0  0  0  0  0  0  0  0  0  0  0  0
  -22.2990  -14.5960   20.4900 O   0  0  0  0  0  0  0  0  0  0  0  0
  -22.3390  -12.0740   22.3630 H   0  0  0  0  0  0  0  0  0  0  0  0
  -21.0380  -13.1990   22.0900 H   0  0  0  0  0  0  0  0  0  0  0  0
  -25.3690  -15.2340   20.2380 N   0  0  0  0  0  0  0  0  0  0  0  0
  -24.5980  -15.8880   20.3250 H   0  0  0  0  0  0  0  0  0  0  0  0
  -26.2260  -15.6730   19.9230 H   0  0  0  0  0  0  0  0  0  0  0  0
  -28.3970  -26.6080   20.3340 O   0  0  0  0  0  0  0  0  0  0  0  0
  -24.6390  -31.8840   23.2170 C   0  0  0  0  0  0  0  0  0  0  0  0
  -27.2890  -27.4170   20.1470 C   0  0  0  0  0  0  0  0  0  0  0  0
  -23.4290  -30.4750   21.5790 C   0  0  0  0  0  3  0  0  0  0  0  0
  -24.8880  -28.9330   20.1420 C   0  0  0  0  0  0  0  0  0  0  0  0
  -25.9550  -30.8290   21.3790 C   0  0  0  0  0  2  0  0  0  0  0  0
  -26.0440  -29.4590   20.7340 C   0  0  0  0  0  0  0  0  0  0  0  0
  -27.2390  -28.7010   20.7440 C   0  0  0  0  0  3  0  0  0  0  0  0
  -26.1220  -26.9110   19.5380 C   0  0  0  0  0  3  0  0  0  0  0  0
  -24.9250  -27.6610   19.5360 C   0  0  0  0  0  3  0  0  0  0  0  0
  -23.6360  -29.7820   20.2010 C   0  0  0  0  0  2  0  0  0  0  0  0
  -24.6920  -31.0790   22.1150 N   0  0  0  0  0  0  0  0  0  0  0  0
  -23.5580  -32.1570   23.7600 O   0  0  0  0  0  0  0  0  0  0  0  0
  -22.7810  -29.4610   22.5500 C   0  0  0  0  0  0  0  0  0  0  0  0
  -21.4560  -29.2760   22.4280 N   0  0  0  0  0  0  0  0  0  0  0  0
  -23.4680  -28.8410   23.3680 O   0  0  0  0  0  0  0  0  0  0  0  0
  -20.9630  -29.8300   21.7410 H   0  0  0  0  0  0  0  0  0  0  0  0
  -18.0860  -28.0770   22.9420 C   0  0  0  0  0  0  0  0  0  0  0  0
  -20.6440  -28.3390   23.2050 C   0  0  0  0  0  3  0  0  0  0  0  0
  -20.7450  -26.9060   22.6330 C   0  0  0  0  0  2  0  0  0  0  0  0
  -19.6420  -26.5790   21.6220 C   0  0  0  0  0  2  0  0  0  0  0  0
  -18.2620  -26.7250   22.2690 C   0  0  0  0  0  2  0  0  0  0  0  0
  -19.2050  -28.8420   23.3670 C   0  0  0  0  0  0  0  0  0  0  0  0
  -18.9870  -30.1060   23.9540 C   0  0  0  0  0  3  0  0  0  0  0  0
  -17.6820  -30.6060   24.1240 C   0  0  0  0  0  3  0  0  0  0  0  0
  -16.5780  -29.8380   23.7170 C   0  0  0  0  0  3  0  0  0  0  0  0
  -16.7800  -28.5750   23.1300 C   0  0  0  0  0  3  0  0  0  0  0  0
  -25.9270  -32.5200   23.8310 C   0  0  0  0  0  3  0  0  0  0  0  0
  -26.4560  -31.7490   25.1020 C   0  0  1  0  0  0  0  0  0  0  0  0
  -25.3730  -31.5090   26.1790 C   0  0  0  0  0  1  0  0  0  0  0  0
  -27.0380  -30.3720   24.7040 C   0  0  0  0  0  1  0  0  0  0  0  0
  -27.6060  -32.5470   25.7600 C   0  0  0  0  0  1  0  0  0  0  0  0
  -25.6150  -33.9170   24.1660 N   0  0  0  0  0  0  0  0  0  0  0  0
  -25.9370  -34.9720   23.4070 C   0  0  0  0  0  0  0  0  0  0  0  0
  -26.6000  -34.8750   22.3710 O   0  0  0  0  0  0  0  0  0  0  0  0
  -25.0240  -34.0680   24.9700 H   0  0  0  0  0  0  0  0  0  0  0  0
  -24.2010  -36.7620   23.0680 C   0  0  0  0  0  1  0  0  0  0  0  0
  -25.4470  -36.3570   23.8720 C   0  0  0  0  0  3  0  0  0  0  0  0
  -27.5810  -37.2480   24.6980 C   0  0  0  0  0  1  0  0  0  0  0  0
  -26.4740  -37.4150   23.7600 N   0  0  0  0  0  0  0  0  0  0  0  0
  -26.0640  -38.3330   23.9100 H   0  0  0  0  0  0  0  0  0  0  0  0
  1  3  1  0
  2  4  1  0
  2  1  2  0
  3  6  2  0
  3 12  1  0
  4  5  2  0
  5 10  1  0
  5  6  1  0
  6 11  1  0
  7  4  1  0
  8  7  1  0
  8  9  1  0
  9 10  1  0
 10 55  1  0
 12 14  2  0
 12 13  1  0
 13 16  1  0
 15 13  1  0
 17 16  1  0
 17 18  1  0
 19 18  1  0
 20 25  1  0
 21 22  1  0
 21 20  1  0
 23 22  1  0
 23 30  1  0
 23 24  1  0
 25 19  1  0
 25 24  1  0
 26 19  2  0
 27 28  2  0
 28 29  1  0
 28 47  1  0
 29 32  1  0
 30 27  1  0
 30 31  1  0
 31 29  2  0
 32 33  1  0
 33 34  2  0
 35 38  1  0
 35 34  1  0
 36 35  2  0
 37 36  1  0
 37 32  2  0
 38 39  1  0
 39 40  1  0
 40 41  2  0
 42 41  1  0
 42 46  1  0
 43 42  2  0
 44 39  2  0
 44 43  1  0
 45 44  1  0
 47 48  1  0
 48 51  1  0
 48 50  1  0
 49 47  2  0
 52 53  1  0
 52 27  1  0
 54 52  1  0
 56 67  2  0
 57 55  1  0
 57 62  1  0
 58 66  1  0
 58 68  1  0
 59 65  1  0
 59 61  1  0
 60 66  1  0
 61 62  2  0
 61 60  1  0
 63 57  2  0
 64 63  1  0
 64 59  2  0
 65 58  1  0
 66 56  1  0
 68 70  2  0
 69 68  1  0
 71 69  1  0
 72 81  2  0
 72 77  1  0
 73 69  1  0
 73 77  1  0
 74 73  1  0
 75 76  1  0
 75 74  1  0
 76 72  1  0
 77 78  2  0
 78 79  1  0
 80 79  2  0
 81 80  1  0
 82 56  1  0
 82 87  1  0
 82 83  1  0
 83 86  1  1
 83 84  1  0
 85 83  1  0
 87 90  1  0
 88 92  1  0
 88 87  1  0
 89 88  2  0
 92 91  1  0
 94 92  1  0
 94 95  1  0
 94 93  1  0
M  ISO  4  10 101  18 100  19 100  55 101
M  END
>  <TORSDO>  (20) 
F 20

>  <SCORE>  (20) 
-13.718

>  <name>  (20) 
19

>  <ligand_id>  (20) 
19

>  <original_smiles>  (20) 
[H]c1c([H])c([H])c2c(c1[H])C([H])([H])C([H])([H])C([H])([H])C2([H])N([H])C(=O)C1([H])N(C(=O)C([H])(N([H])C(=O)C([H])(N([H])C([H])([H])[H])C([H])([H])[H])C(C([H])([H])[H])(C([H])([H])[H])C([H])([H])[H])C([H])([H])c2c([H])c(OC3([H])c4c(C([H])([H])[H])c(C(=O)N([H])C([H])([H])C([H])([H])C([H])([H])C(=O)N5C([H])([H])C([H])([H])C([H])([H])C([H])(n6nc(-c7c([H])c([H])c(Oc8c([H])c([H])c(F)c([H])c8F)c([H])c7[H])c(C(=O)N([H])[H])c6N([H])[H])C5([H])[H])c([H])c([H])c4C([H])([H])C([H])([H])C3([H])[H])c([H])c([H])c2C1([H])[H]

>  <smiles>  (20) 
[H]c1c([H])c([H])c2c(c1[H])C([H])([H])C([H])([H])C([H])([H])C2([H])N([H])C(=O)C1([H])N(C(=O)C([H])(N([H])C(=O)C([H])(N([H])C([H])([H])[H])C([H])([H])[H])C(C([H])([H])[H])(C([H])([H])[H])C([H])([H])[H])C([H])([H])c2c([H])c(OC3([H])c4c(C([H])([H])[H])c(C(=O)N([H])C([H])([H])C([H])([H])C([H])([H])C(=O)N5C([H])([H])C([H])([H])C([H])([H])C([H])(n6nc(-c7c([H])c([H])c(Oc8c([H])c([H])c(F)c([H])c8F)c([H])c7[H])c(C(=O)N([H])[H])c6N([H])[H])C5([H])[H])c([H])c([H])c4C([H])([H])C([H])([H])C3([H])[H])c([H])c([H])c2C1([H])[H]

$$$$
20:0:0
     RDKit          3D

 90 98  0  0  1  0  0  0  0  0999 V2000
  -27.9380  -20.6980   18.9920 C   0  0  0  0  0  3  0  0  0  0  0  0
  -27.3490  -21.8850   18.4460 C   0  0  0  0  0  3  0  0  0  0  0  0
  -28.8220  -20.6600   20.0920 C   0  0  0  0  0  0  0  0  0  0  0  0
  -27.4690  -23.2610   18.8870 C   0  0  0  0  0  0  0  0  0  0  0  0
  -28.1390  -23.6720   20.0820 C   0  0  0  0  0  0  0  0  0  0  0  0
  -28.8540  -22.2510   20.5860 C   0  0  0  0  0  0  0  0  0  0  0  0
  -29.6840  -22.4510   21.6380 F   0  0  0  0  0  0  0  0  0  0  0  0
  -30.2020  -16.0270   20.2350 C   0  0  0  0  0  0  0  0  0  0  0  0
  -30.3820  -13.4320   19.4000 C   0  0  0  0  0  2  0  0  0  0  0  0
  -29.5130  -12.8810   18.2260 C   0  0  0  0  0  2  0  0  0  0  0  0
  -28.1220  -12.4540   18.7130 C   0  0  0  0  0  2  0  0  0  0  0  0
  -27.5690  -13.4670   19.7360 C   0  0  0  0  0  3  0  0  0  0  0  0
  -28.5930  -13.9050   20.8170 C   0  0  0  0  0  2  0  0  0  0  0  0
  -29.6980  -14.6250   20.1150 N   0  0  0  0  0  0  0  0  0  0  0  0
  -31.4450  -15.9000   20.1660 O   0  0  0  0  0  0  0  0  0  0  0  0
  -29.6690  -19.0490   20.3950 C   0  0  0  0  0  0  0  0  0  0  0  0
  -29.4530  -17.4630   20.2130 N   0  0  0  0  0  0  0  0  0  0  0  0
  -30.7720  -19.2800   20.8930 O   0  0  0  0  0  0  0  0  0  0  0  0
  -28.4830  -17.3080   19.9910 H   0  0  0  0  0  0  0  0  0  0  0  0
  -25.2170  -13.9420   20.5440 C   0  0  0  0  0  0  0  0  0  0  0  0
  -24.1710  -13.1430   20.9080 C   0  0  0  0  0  0  0  0  0  0  0  0
  -24.6610  -11.8000   20.8560 C   0  0  0  0  0  0  0  0  0  0  0  0
  -26.2710  -13.0910   20.2790 N   0  0  0  0  0  0  0  0  0  0  0  0
  -25.9520  -11.7920   20.5310 N   0  0  0  0  0  0  0  0  0  0  0  0
  -23.9490  -10.5280   21.0350 C   0  0  0  0  0  0  0  0  0  0  0  0
  -24.3800   -9.5630   21.9730 C   0  0  0  0  0  3  0  0  0  0  0  0
  -23.6620   -8.3590   22.1440 C   0  0  0  0  0  3  0  0  0  0  0  0
  -22.4980   -8.1100   21.3780 C   0  0  0  0  0  0  0  0  0  0  0  0
  -22.0850   -9.0640   20.4300 C   0  0  0  0  0  3  0  0  0  0  0  0
  -22.8040  -10.2590   20.2580 C   0  0  0  0  0  3  0  0  0  0  0  0
  -21.7520   -6.9590   21.4580 O   0  0  0  0  0  0  0  0  0  0  0  0
  -21.6760   -6.2300   22.6180 C   0  0  0  0  0  0  0  0  0  0  0  0
  -21.1740   -6.7850   23.8160 C   0  0  0  0  0  3  0  0  0  0  0  0
  -21.0470   -5.9810   24.9660 C   0  0  0  0  0  3  0  0  0  0  0  0
  -21.4140   -4.6220   24.9200 C   0  0  0  0  0  0  0  0  0  0  0  0
  -21.9090   -4.0660   23.7270 C   0  0  0  0  0  3  0  0  0  0  0  0
  -22.0360   -4.8670   22.5790 C   0  0  0  0  0  0  0  0  0  0  0  0
  -22.4940   -4.3210   21.4270 F   0  0  0  0  0  0  0  0  0  0  0  0
  -21.2850   -3.8470   26.0220 F   0  0  0  0  0  0  0  0  0  0  0  0
  -22.7700  -13.5990   21.1870 C   0  0  0  0  0  0  0  0  0  0  0  0
  -22.0540  -12.8870   22.0480 N   0  0  0  0  0  0  0  0  0  0  0  0
  -22.3210  -14.6250   20.6780 O   0  0  0  0  0  0  0  0  0  0  0  0
  -22.4320  -12.0580   22.4830 H   0  0  0  0  0  0  0  0  0  0  0  0
  -21.1140  -13.1750   22.2780 H   0  0  0  0  0  0  0  0  0  0  0  0
  -25.3550  -15.3170   20.3810 N   0  0  0  0  0  0  0  0  0  0  0  0
  -24.5770  -15.9560   20.5080 H   0  0  0  0  0  0  0  0  0  0  0  0
  -26.1930  -15.7730   20.0440 H   0  0  0  0  0  0  0  0  0  0  0  0
  -26.4580  -24.0190   16.8150 C   0  0  0  0  0  1  0  0  0  0  0  0
  -26.9860  -24.2890   18.1080 O   0  0  0  0  0  0  0  0  0  0  0  0
  -28.1180  -25.3320   20.4100 O   0  0  0  0  0  0  0  0  0  0  0  0
  -24.6600  -31.8990   23.3000 C   0  0  0  0  0  0  0  0  0  0  0  0
  -27.1640  -26.6340   20.3440 C   0  0  0  0  0  0  0  0  0  0  0  0
  -23.4770  -30.4960   21.6720 C   0  0  0  0  0  3  0  0  0  0  0  0
  -24.9210  -28.8080   20.2820 C   0  0  0  0  0  0  0  0  0  0  0  0
  -26.0680  -30.5720   21.5760 C   0  0  0  0  0  2  0  0  0  0  0  0
  -26.1250  -29.1190   20.9220 C   0  0  0  0  0  0  0  0  0  0  0  0
  -27.2190  -28.0690   20.9150 C   0  0  0  0  0  3  0  0  0  0  0  0
  -25.9020  -26.5810   19.6780 C   0  0  0  0  0  3  0  0  0  0  0  0
  -24.8600  -27.5630   19.6380 C   0  0  0  0  0  3  0  0  0  0  0  0
  -23.7270  -29.7840   20.3110 C   0  0  0  0  0  2  0  0  0  0  0  0
  -24.7620  -31.0260   22.2350 N   0  0  0  0  0  0  0  0  0  0  0  0
  -23.5630  -32.2130   23.7950 O   0  0  0  0  0  0  0  0  0  0  0  0
  -22.7370  -29.5400   22.6480 C   0  0  0  0  0  0  0  0  0  0  0  0
  -21.4060  -29.3770   22.5020 N   0  0  0  0  0  0  0  0  0  0  0  0
  -23.3760  -28.9390   23.5160 O   0  0  0  0  0  0  0  0  0  0  0  0
  -20.9370  -29.9120   21.7830 H   0  0  0  0  0  0  0  0  0  0  0  0
  -18.0230  -28.1160   22.9600 C   0  0  0  0  0  0  0  0  0  0  0  0
  -20.5720  -28.4470   23.2770 C   0  0  0  0  0  3  0  0  0  0  0  0
  -20.7140  -27.0010   22.7470 C   0  0  0  0  0  2  0  0  0  0  0  0
  -19.6470  -26.6290   21.7120 C   0  0  0  0  0  2  0  0  0  0  0  0
  -18.2460  -26.7570   22.3170 C   0  0  0  0  0  2  0  0  0  0  0  0
  -19.1150  -28.9160   23.3950 C   0  0  0  0  0  0  0  0  0  0  0  0
  -18.8480  -30.1810   23.9620 C   0  0  0  0  0  3  0  0  0  0  0  0
  -17.5270  -30.6480   24.0930 C   0  0  0  0  0  3  0  0  0  0  0  0
  -16.4520  -29.8480   23.6690 C   0  0  0  0  0  3  0  0  0  0  0  0
  -16.7010  -28.5840   23.1090 C   0  0  0  0  0  3  0  0  0  0  0  0
  -25.9150  -32.5560   23.9500 C   0  0  0  0  0  3  0  0  0  0  0  0
  -25.5960  -33.9670   24.2570 N   0  0  0  0  0  0  0  0  0  0  0  0
  -25.9250  -35.0210   23.4970 C   0  0  0  0  0  0  0  0  0  0  0  0
  -26.5820  -34.9080   22.4590 O   0  0  0  0  0  0  0  0  0  0  0  0
  -25.0070  -34.1270   25.0600 H   0  0  0  0  0  0  0  0  0  0  0  0
  -24.1940  -36.8290   23.1830 C   0  0  0  0  0  1  0  0  0  0  0  0
  -25.4590  -36.4200   23.9560 C   0  0  0  0  0  3  0  0  0  0  0  0
  -27.6160  -37.3240   24.7150 C   0  0  0  0  0  1  0  0  0  0  0  0
  -26.4900  -37.4710   23.7970 N   0  0  0  0  0  0  0  0  0  0  0  0
  -26.0880  -38.3950   23.9340 H   0  0  0  0  0  0  0  0  0  0  0  0
  -26.3830  -31.8220   25.2680 C   0  0  1  0  0  0  0  0  0  0  0  0
  -25.2560  -31.6270   26.3100 C   0  0  0  0  0  1  0  0  0  0  0  0
  -26.9670  -30.4280   24.9520 C   0  0  0  0  0  1  0  0  0  0  0  0
  -27.5190  -32.6280   25.9400 C   0  0  0  0  0  1  0  0  0  0  0  0
  1  3  1  0
  2  4  1  0
  2  1  2  0
  3 16  1  0
  3  6  2  0
  4  5  2  0
  5 50  1  0
  5  6  1  0
  6  7  1  0
  9 14  1  0
 10 11  1  0
 10  9  1  0
 12 11  1  0
 12 23  1  0
 12 13  1  0
 14  8  1  0
 14 13  1  0
 15  8  2  0
 16 18  2  0
 17  8  1  0
 17 16  1  0
 19 17  1  0
 20 21  2  0
 21 40  1  0
 22 21  1  0
 22 25  1  0
 23 24  1  0
 23 20  1  0
 24 22  2  0
 25 26  1  0
 26 27  2  0
 28 31  1  0
 28 27  1  0
 29 28  2  0
 30 29  1  0
 30 25  2  0
 31 32  1  0
 32 33  1  0
 33 34  2  0
 35 34  1  0
 35 39  1  0
 36 35  2  0
 37 32  2  0
 37 36  1  0
 38 37  1  0
 40 41  1  0
 41 44  1  0
 41 43  1  0
 42 40  2  0
 45 46  1  0
 45 20  1  0
 47 45  1  0
 48 49  1  0
 49  4  1  0
 51 62  2  0
 52 50  1  0
 52 57  1  0
 53 61  1  0
 53 63  1  0
 54 60  1  0
 54 56  1  0
 55 61  1  0
 56 55  1  0
 57 56  2  0
 58 52  2  0
 59 58  1  0
 59 54  2  0
 60 53  1  0
 61 51  1  0
 63 65  2  0
 64 63  1  0
 66 64  1  0
 67 76  2  0
 67 72  1  0
 68 64  1  0
 68 72  1  0
 69 68  1  0
 70 71  1  0
 70 69  1  0
 71 67  1  0
 72 73  2  0
 73 74  1  0
 75 74  2  0
 76 75  1  0
 77 51  1  0
 77 78  1  0
 77 87  1  0
 78 81  1  0
 79 83  1  0
 79 78  1  0
 80 79  2  0
 83 82  1  0
 85 86  1  0
 85 83  1  0
 85 84  1  0
 87 90  1  1
 87 88  1  0
 89 87  1  0
M  ISO  4   5 101   8 100  17 100  50 101
M  END
>  <TORSDO>  (21) 
F 17

>  <SCORE>  (21) 
-15.771

>  <name>  (21) 
20

>  <ligand_id>  (21) 
20

>  <original_smiles>  (21) 
[H]c1c([H])c([H])c2c(c1[H])C([H])([H])C([H])([H])C([H])([H])C2([H])N([H])C(=O)C1([H])N(C(=O)C([H])(N([H])C(=O)C([H])(N([H])C([H])([H])[H])C([H])([H])[H])C(C([H])([H])[H])(C([H])([H])[H])C([H])([H])[H])C([H])([H])c2c([H])c(Oc3c(F)c(C(=O)N([H])C(=O)N4C([H])([H])C([H])([H])C([H])([H])C([H])(n5nc(-c6c([H])c([H])c(Oc7c([H])c([H])c(F)c([H])c7F)c([H])c6[H])c(C(=O)N([H])[H])c5N([H])[H])C4([H])[H])c([H])c([H])c3OC([H])([H])[H])c([H])c([H])c2C1([H])[H]

>  <smiles>  (21) 
[H]c1c([H])c([H])c2c(c1[H])C([H])([H])C([H])([H])C([H])([H])C2([H])N([H])C(=O)C1([H])N(C(=O)C([H])(N([H])C(=O)C([H])(N([H])C([H])([H])[H])C([H])([H])[H])C(C([H])([H])[H])(C([H])([H])[H])C([H])([H])[H])C([H])([H])c2c([H])c(Oc3c(F)c(C(=O)N([H])C(=O)N4C([H])([H])C([H])([H])C([H])([H])C([H])(n5nc(-c6c([H])c([H])c(Oc7c([H])c([H])c(F)c([H])c7F)c([H])c6[H])c(C(=O)N([H])[H])c5N([H])[H])C4([H])[H])c([H])c([H])c3OC([H])([H])[H])c([H])c([H])c2C1([H])[H]

$$$$
21:0:0
     RDKit          3D

 90 98  0  0  1  0  0  0  0  0999 V2000
  -27.9740  -22.6450   21.0360 C   0  0  0  0  0  3  0  0  0  0  0  0
  -27.6710  -24.0610   20.9720 C   0  0  0  0  0  3  0  0  0  0  0  0
  -29.4200  -24.3380   19.3980 C   0  0  0  0  0  3  0  0  0  0  0  0
  -29.0360  -22.0050   20.3090 C   0  0  0  0  0  0  0  0  0  0  0  0
  -28.4050  -24.9870   20.1670 C   0  0  0  0  0  0  0  0  0  0  0  0
  -29.7320  -22.9300   19.4600 C   0  0  0  0  0  0  0  0  0  0  0  0
  -29.6200  -20.5690   20.6830 C   0  0  0  0  0  0  0  0  0  0  0  0
  -30.5510  -20.5440   21.4940 O   0  0  0  0  0  0  0  0  0  0  0  0
  -29.1680  -19.1040   20.1570 C   0  0  0  0  0  3  0  0  0  0  0  0
  -30.0880  -17.7590   20.4980 C   0  0  0  0  0  3  0  0  0  0  0  0
  -29.5590  -16.2090   20.3270 C   0  0  0  0  0  2  0  0  0  0  0  0
  -30.5000  -14.8730   20.3050 C   0  0  0  0  0  0  0  0  0  0  0  0
  -30.4030  -12.5470   19.3710 C   0  0  0  0  0  2  0  0  0  0  0  0
  -29.4600  -12.5880   18.1440 C   0  0  0  0  0  2  0  0  0  0  0  0
  -27.9890  -12.3980   18.5670 C   0  0  0  0  0  2  0  0  0  0  0  0
  -27.6040  -13.2920   19.7730 C   0  0  0  0  0  3  0  0  0  0  0  0
  -28.6610  -13.2220   20.8920 C   0  0  0  0  0  2  0  0  0  0  0  0
  -29.9550  -13.6010   20.3120 N   0  0  0  0  0  0  0  0  0  0  0  0
  -31.7010  -14.9940   20.0400 O   0  0  0  0  0  0  0  0  0  0  0  0
  -25.2230  -13.8770   20.5180 C   0  0  0  0  0  0  0  0  0  0  0  0
  -24.1610  -13.1000   20.8940 C   0  0  0  0  0  0  0  0  0  0  0  0
  -24.6270  -11.7510   20.8570 C   0  0  0  0  0  0  0  0  0  0  0  0
  -26.2660  -12.9980   20.2720 N   0  0  0  0  0  0  0  0  0  0  0  0
  -25.9150  -11.7150   20.5410 N   0  0  0  0  0  0  0  0  0  0  0  0
  -23.9030  -10.4870   21.0470 C   0  0  0  0  0  0  0  0  0  0  0  0
  -24.3450   -9.5150   21.9720 C   0  0  0  0  0  3  0  0  0  0  0  0
  -23.6190   -8.3180   22.1510 C   0  0  0  0  0  3  0  0  0  0  0  0
  -22.4410   -8.0810   21.4050 C   0  0  0  0  0  0  0  0  0  0  0  0
  -22.0210   -9.0410   20.4670 C   0  0  0  0  0  3  0  0  0  0  0  0
  -22.7460  -10.2310   20.2860 C   0  0  0  0  0  3  0  0  0  0  0  0
  -21.6890   -6.9340   21.4910 O   0  0  0  0  0  0  0  0  0  0  0  0
  -21.6500   -6.1850   22.6390 C   0  0  0  0  0  0  0  0  0  0  0  0
  -21.2310   -6.7320   23.8730 C   0  0  0  0  0  3  0  0  0  0  0  0
  -21.1390   -5.9090   25.0130 C   0  0  0  0  0  3  0  0  0  0  0  0
  -21.4570   -4.5400   24.9220 C   0  0  0  0  0  0  0  0  0  0  0  0
  -21.8680   -3.9940   23.6940 C   0  0  0  0  0  3  0  0  0  0  0  0
  -21.9620   -4.8140   22.5570 C   0  0  0  0  0  0  0  0  0  0  0  0
  -22.3380   -4.2780   21.3700 F   0  0  0  0  0  0  0  0  0  0  0  0
  -21.3620   -3.7470   26.0150 F   0  0  0  0  0  0  0  0  0  0  0  0
  -22.7630  -13.5740   21.1700 C   0  0  0  0  0  0  0  0  0  0  0  0
  -22.0430  -12.8740   22.0400 N   0  0  0  0  0  0  0  0  0  0  0  0
  -22.3190  -14.5990   20.6520 O   0  0  0  0  0  0  0  0  0  0  0  0
  -22.4190  -12.0470   22.4800 H   0  0  0  0  0  0  0  0  0  0  0  0
  -21.1030  -13.1660   22.2650 H   0  0  0  0  0  0  0  0  0  0  0  0
  -25.3880  -15.2470   20.3400 N   0  0  0  0  0  0  0  0  0  0  0  0
  -24.6310  -15.9090   20.4610 H   0  0  0  0  0  0  0  0  0  0  0  0
  -26.2450  -15.6860   20.0270 H   0  0  0  0  0  0  0  0  0  0  0  0
  -30.7840  -22.4850   18.7050 O   0  0  0  0  0  0  0  0  0  0  0  0
  -31.2140  -23.1670   18.1950 H   0  0  0  0  0  0  0  0  0  0  0  0
  -28.3400  -26.4320   20.2040 O   0  0  0  0  0  0  0  0  0  0  0  0
  -24.6080  -31.9290   23.2230 C   0  0  0  0  0  0  0  0  0  0  0  0
  -27.1990  -27.2730   20.2140 C   0  0  0  0  0  0  0  0  0  0  0  0
  -23.4030  -30.5210   21.5900 C   0  0  0  0  0  3  0  0  0  0  0  0
  -24.8500  -28.9390   20.1790 C   0  0  0  0  0  0  0  0  0  0  0  0
  -25.9480  -30.8100   21.4150 C   0  0  0  0  0  2  0  0  0  0  0  0
  -26.0210  -29.4170   20.7820 C   0  0  0  0  0  0  0  0  0  0  0  0
  -27.1970  -28.5950   20.7860 C   0  0  0  0  0  3  0  0  0  0  0  0
  -26.0070  -26.8590   19.5900 C   0  0  0  0  0  3  0  0  0  0  0  0
  -24.8480  -27.6690   19.5760 C   0  0  0  0  0  3  0  0  0  0  0  0
  -23.6210  -29.8300   20.2170 C   0  0  0  0  0  2  0  0  0  0  0  0
  -24.6720  -31.1060   22.1330 N   0  0  0  0  0  0  0  0  0  0  0  0
  -23.5250  -32.2160   23.7540 O   0  0  0  0  0  0  0  0  0  0  0  0
  -22.7300  -29.5190   22.5600 C   0  0  0  0  0  0  0  0  0  0  0  0
  -21.4030  -29.3530   22.4410 N   0  0  0  0  0  0  0  0  0  0  0  0
  -23.4070  -28.8920   23.3800 O   0  0  0  0  0  0  0  0  0  0  0  0
  -20.9180  -29.9120   21.7530 H   0  0  0  0  0  0  0  0  0  0  0  0
  -18.0180  -28.1870   22.9660 C   0  0  0  0  0  0  0  0  0  0  0  0
  -20.5800  -28.4250   23.2190 C   0  0  0  0  0  3  0  0  0  0  0  0
  -20.6660  -26.9920   22.6460 C   0  0  0  0  0  2  0  0  0  0  0  0
  -19.5570  -26.6780   21.6390 C   0  0  0  0  0  2  0  0  0  0  0  0
  -18.1800  -26.8360   22.2900 C   0  0  0  0  0  2  0  0  0  0  0  0
  -19.1470  -28.9410   23.3870 C   0  0  0  0  0  0  0  0  0  0  0  0
  -18.9430  -30.2060   23.9800 C   0  0  0  0  0  3  0  0  0  0  0  0
  -17.6440  -30.7190   24.1550 C   0  0  0  0  0  3  0  0  0  0  0  0
  -16.5290  -29.9630   23.7490 C   0  0  0  0  0  3  0  0  0  0  0  0
  -16.7180  -28.7000   23.1620 C   0  0  0  0  0  3  0  0  0  0  0  0
  -25.8920  -32.5640   23.8410 C   0  0  0  0  0  3  0  0  0  0  0  0
  -25.5820  -33.9620   24.1760 N   0  0  0  0  0  0  0  0  0  0  0  0
  -25.9110  -35.0180   23.4190 C   0  0  0  0  0  0  0  0  0  0  0  0
  -26.5740  -34.9180   22.3830 O   0  0  0  0  0  0  0  0  0  0  0  0
  -24.9960  -34.1130   24.9840 H   0  0  0  0  0  0  0  0  0  0  0  0
  -24.1800  -36.8150   23.0820 C   0  0  0  0  0  1  0  0  0  0  0  0
  -25.4270  -36.4060   23.8840 C   0  0  0  0  0  3  0  0  0  0  0  0
  -27.5660  -37.2900   24.7050 C   0  0  0  0  0  1  0  0  0  0  0  0
  -26.4580  -37.4590   23.7690 N   0  0  0  0  0  0  0  0  0  0  0  0
  -26.0550  -38.3780   23.9220 H   0  0  0  0  0  0  0  0  0  0  0  0
  -26.4120  -31.7940   25.1190 C   0  0  1  0  0  0  0  0  0  0  0  0
  -25.3220  -31.5600   26.1900 C   0  0  0  0  0  1  0  0  0  0  0  0
  -26.9950  -30.4150   24.7310 C   0  0  0  0  0  1  0  0  0  0  0  0
  -27.5620  -32.5920   25.7790 C   0  0  0  0  0  1  0  0  0  0  0  0
  2  1  1  0
  3  6  2  0
  3  5  1  0
  4  7  1  0
  4  1  2  0
  5 50  1  0
  5  2  2  0
  6  4  1  0
  7  8  2  0
  9 10  2  0
  9  7  1  0
 11 10  1  0
 12 18  1  0
 12 11  1  0
 13 18  1  0
 14 15  1  0
 14 13  1  0
 16 15  1  0
 16 23  1  0
 16 17  1  0
 18 17  1  0
 19 12  2  0
 20 21  2  0
 21 40  1  0
 22 21  1  0
 22 25  1  0
 23 20  1  0
 23 24  1  0
 24 22  2  0
 25 26  1  0
 26 27  2  0
 28 31  1  0
 28 27  1  0
 29 28  2  0
 30 29  1  0
 30 25  2  0
 31 32  1  0
 32 33  1  0
 33 34  2  0
 35 34  1  0
 35 39  1  0
 36 35  2  0
 37 32  2  0
 37 36  1  0
 38 37  1  0
 40 41  1  0
 41 44  1  0
 41 43  1  0
 42 40  2  0
 45 46  1  0
 45 20  1  0
 47 45  1  0
 48  6  1  0
 49 48  1  0
 50 52  1  0
 51 62  2  0
 52 57  1  0
 53 61  1  0
 53 63  1  0
 54 60  1  0
 54 56  1  0
 55 61  1  0
 56 57  2  0
 56 55  1  0
 58 52  2  0
 59 58  1  0
 59 54  2  0
 60 53  1  0
 61 51  1  0
 63 65  2  0
 64 63  1  0
 66 64  1  0
 67 76  2  0
 67 72  1  0
 68 64  1  0
 68 72  1  0
 69 68  1  0
 70 71  1  0
 70 69  1  0
 71 67  1  0
 72 73  2  0
 73 74  1  0
 75 74  2  0
 76 75  1  0
 77 51  1  0
 77 78  1  0
 77 87  1  0
 78 81  1  0
 79 83  1  0
 79 78  1  0
 80 79  2  0
 83 82  1  0
 85 83  1  0
 85 86  1  0
 85 84  1  0
 87 90  1  1
 87 88  1  0
 89 87  1  0
M  ISO  4   5 101  11 100  12 100  50 101
M  END
>  <TORSDO>  (22) 
F 21

>  <SCORE>  (22) 
-13.708

>  <name>  (22) 
21

>  <ligand_id>  (22) 
21

>  <original_smiles>  (22) 
[H]Oc1c([H])c(Oc2c([H])c([H])c3c(c2[H])C([H])([H])N(C(=O)C([H])(N([H])C(=O)C([H])(N([H])C([H])([H])[H])C([H])([H])[H])C(C([H])([H])[H])(C([H])([H])[H])C([H])([H])[H])C([H])(C(=O)N([H])C2([H])c4c([H])c([H])c([H])c([H])c4C([H])([H])C([H])([H])C2([H])[H])C3([H])[H])c([H])c([H])c1C(=O)C([H])([H])C([H])([H])C([H])([H])C(=O)N1C([H])([H])C([H])([H])C([H])([H])C([H])(n2nc(-c3c([H])c([H])c(Oc4c([H])c([H])c(F)c([H])c4F)c([H])c3[H])c(C(=O)N([H])[H])c2N([H])[H])C1([H])[H]

>  <smiles>  (22) 
[H]Oc1c([H])c(Oc2c([H])c([H])c3c(c2[H])C([H])([H])N(C(=O)C([H])(N([H])C(=O)C([H])(N([H])C([H])([H])[H])C([H])([H])[H])C(C([H])([H])[H])(C([H])([H])[H])C([H])([H])[H])C([H])(C(=O)N([H])C2([H])c4c([H])c([H])c([H])c([H])c4C([H])([H])C([H])([H])C2([H])[H])C3([H])[H])c([H])c([H])c1C(=O)C([H])([H])C([H])([H])C([H])([H])C(=O)N1C([H])([H])C([H])([H])C([H])([H])C([H])(n2nc(-c3c([H])c([H])c(Oc4c([H])c([H])c(F)c([H])c4F)c([H])c3[H])c(C(=O)N([H])[H])c2N([H])[H])C1([H])[H]

$$$$
22:0:0
     RDKit          3D

 88 95  0  0  1  0  0  0  0  0999 V2000
  -28.0210  -23.9810   18.5010 C   0  0  0  0  0  3  0  0  0  0  0  0
  -29.1630  -23.6880   17.7260 C   0  0  0  0  0  3  0  0  0  0  0  0
  -30.2130  -22.5360   19.5970 C   0  0  0  0  0  3  0  0  0  0  0  0
  -28.9430  -22.4680   20.1960 C   0  0  0  0  0  0  0  0  0  0  0  0
  -28.1260  -23.8930   19.9050 C   0  0  0  0  0  0  0  0  0  0  0  0
  -30.3010  -23.1020   18.3120 C   0  0  0  0  0  0  0  0  0  0  0  0
  -31.4370  -22.9620   17.5890 F   0  0  0  0  0  0  0  0  0  0  0  0
  -28.1440  -25.4760   20.3040 O   0  0  0  0  0  0  0  0  0  0  0  0
  -24.6460  -31.8470   23.1630 C   0  0  0  0  0  0  0  0  0  0  0  0
  -27.1780  -26.7130   20.2020 C   0  0  0  0  0  0  0  0  0  0  0  0
  -23.4540  -30.4240   21.5540 C   0  0  0  0  0  3  0  0  0  0  0  0
  -24.8990  -28.7650   20.1460 C   0  0  0  0  0  0  0  0  0  0  0  0
  -26.0340  -30.5660   21.4140 C   0  0  0  0  0  2  0  0  0  0  0  0
  -26.1000  -29.1230   20.7700 C   0  0  0  0  0  0  0  0  0  0  0  0
  -27.2160  -28.1250   20.7680 C   0  0  0  0  0  3  0  0  0  0  0  0
  -25.9320  -26.5770   19.5290 C   0  0  0  0  0  3  0  0  0  0  0  0
  -24.8560  -27.5180   19.5030 C   0  0  0  0  0  3  0  0  0  0  0  0
  -23.6890  -29.7130   20.1900 C   0  0  0  0  0  2  0  0  0  0  0  0
  -24.7360  -30.9800   22.0950 N   0  0  0  0  0  0  0  0  0  0  0  0
  -23.5550  -32.1480   23.6770 O   0  0  0  0  0  0  0  0  0  0  0  0
  -22.7480  -29.4560   22.5430 C   0  0  0  0  0  0  0  0  0  0  0  0
  -21.4150  -29.2930   22.4300 N   0  0  0  0  0  0  0  0  0  0  0  0
  -23.4110  -28.8490   23.3860 O   0  0  0  0  0  0  0  0  0  0  0  0
  -20.9280  -29.8330   21.7280 H   0  0  0  0  0  0  0  0  0  0  0  0
  -18.0410  -28.0530   22.9720 C   0  0  0  0  0  0  0  0  0  0  0  0
  -20.5990  -28.3620   23.2200 C   0  0  0  0  0  3  0  0  0  0  0  0
  -20.7170  -26.9200   22.6740 C   0  0  0  0  0  2  0  0  0  0  0  0
  -19.6170  -26.5650   21.6680 C   0  0  0  0  0  2  0  0  0  0  0  0
  -18.2360  -26.6980   22.3140 C   0  0  0  0  0  2  0  0  0  0  0  0
  -19.1500  -28.8420   23.3830 C   0  0  0  0  0  0  0  0  0  0  0  0
  -18.9100  -30.1050   23.9660 C   0  0  0  0  0  3  0  0  0  0  0  0
  -17.5960  -30.5820   24.1370 C   0  0  0  0  0  3  0  0  0  0  0  0
  -16.5040  -29.7930   23.7380 C   0  0  0  0  0  3  0  0  0  0  0  0
  -16.7270  -28.5310   23.1630 C   0  0  0  0  0  3  0  0  0  0  0  0
  -25.9090  -32.5140   23.7880 C   0  0  0  0  0  3  0  0  0  0  0  0
  -25.5740  -33.9140   24.1230 N   0  0  0  0  0  0  0  0  0  0  0  0
  -25.8910  -34.9840   23.3810 C   0  0  0  0  0  0  0  0  0  0  0  0
  -26.5510  -34.8970   22.3430 O   0  0  0  0  0  0  0  0  0  0  0  0
  -24.9830  -34.0510   24.9290 H   0  0  0  0  0  0  0  0  0  0  0  0
  -24.1480  -36.7790   23.0770 C   0  0  0  0  0  1  0  0  0  0  0  0
  -25.4030  -36.3670   23.8640 C   0  0  0  0  0  3  0  0  0  0  0  0
  -27.5410  -37.2650   24.6750 C   0  0  0  0  0  1  0  0  0  0  0  0
  -26.4270  -37.4290   23.7470 N   0  0  0  0  0  0  0  0  0  0  0  0
  -26.0150  -38.3460   23.9050 H   0  0  0  0  0  0  0  0  0  0  0  0
  -26.4270  -31.7670   25.0800 C   0  0  1  0  0  0  0  0  0  0  0  0
  -25.3340  -31.5410   26.1520 C   0  0  0  0  0  1  0  0  0  0  0  0
  -27.0200  -30.3850   24.7250 C   0  0  0  0  0  1  0  0  0  0  0  0
  -27.5730  -32.5780   25.7300 C   0  0  0  0  0  1  0  0  0  0  0  0
  -28.6810  -20.6120   20.3760 C   0  0  0  0  0  1  0  0  0  0  0  0
  -29.7000  -18.9290   20.2230 C   0  0  0  0  0  1  0  0  0  0  0  0
  -30.2430  -15.7500   20.1770 C   0  0  0  0  0  0  0  0  0  0  0  0
  -30.3240  -13.2050   19.3220 C   0  0  0  0  0  2  0  0  0  0  0  0
  -29.4070  -12.7980   18.1310 C   0  0  0  0  0  2  0  0  0  0  0  0
  -28.0000  -12.4270   18.6200 C   0  0  0  0  0  2  0  0  0  0  0  0
  -27.5120  -13.4110   19.7060 C   0  0  0  0  0  3  0  0  0  0  0  0
  -28.5690  -13.7300   20.7910 C   0  0  0  0  0  2  0  0  0  0  0  0
  -29.7150  -14.3780   20.1060 N   0  0  0  0  0  0  0  0  0  0  0  0
  -31.4700  -15.6730   19.9680 O   0  0  0  0  0  0  0  0  0  0  0  0
  -29.5030  -17.1360   20.2920 N   0  0  0  0  0  0  0  0  0  0  0  0
  -28.5250  -16.9270   20.4300 H   0  0  0  0  0  0  0  0  0  0  0  0
  -25.1700  -13.9140   20.5420 C   0  0  0  0  0  0  0  0  0  0  0  0
  -24.1260  -13.1220   20.9260 C   0  0  0  0  0  0  0  0  0  0  0  0
  -24.6050  -11.7770   20.8640 C   0  0  0  0  0  0  0  0  0  0  0  0
  -26.2140  -13.0540   20.2580 N   0  0  0  0  0  0  0  0  0  0  0  0
  -25.8890  -11.7600   20.5200 N   0  0  0  0  0  0  0  0  0  0  0  0
  -23.8890  -10.5070   21.0540 C   0  0  0  0  0  0  0  0  0  0  0  0
  -24.3460   -9.5290   21.9660 C   0  0  0  0  0  3  0  0  0  0  0  0
  -23.6250   -8.3290   22.1480 C   0  0  0  0  0  3  0  0  0  0  0  0
  -22.4340   -8.0980   21.4200 C   0  0  0  0  0  0  0  0  0  0  0  0
  -21.9950   -9.0640   20.4980 C   0  0  0  0  0  3  0  0  0  0  0  0
  -22.7170  -10.2560   20.3140 C   0  0  0  0  0  3  0  0  0  0  0  0
  -21.6820   -6.9500   21.5130 O   0  0  0  0  0  0  0  0  0  0  0  0
  -21.6610   -6.1950   22.6580 C   0  0  0  0  0  0  0  0  0  0  0  0
  -21.2480   -6.7310   23.8970 C   0  0  0  0  0  3  0  0  0  0  0  0
  -21.1740   -5.9020   25.0340 C   0  0  0  0  0  3  0  0  0  0  0  0
  -21.5030   -4.5370   24.9330 C   0  0  0  0  0  0  0  0  0  0  0  0
  -21.9080   -4.0000   23.6990 C   0  0  0  0  0  3  0  0  0  0  0  0
  -21.9830   -4.8260   22.5640 C   0  0  0  0  0  0  0  0  0  0  0  0
  -22.3540   -4.2980   21.3730 F   0  0  0  0  0  0  0  0  0  0  0  0
  -21.4250   -3.7380   26.0230 F   0  0  0  0  0  0  0  0  0  0  0  0
  -22.7320  -13.5870   21.2290 C   0  0  0  0  0  0  0  0  0  0  0  0
  -22.0270  -12.8790   22.1030 N   0  0  0  0  0  0  0  0  0  0  0  0
  -22.2790  -14.6150   20.7260 O   0  0  0  0  0  0  0  0  0  0  0  0
  -22.4090  -12.0490   22.5310 H   0  0  0  0  0  0  0  0  0  0  0  0
  -21.0930  -13.1710   22.3490 H   0  0  0  0  0  0  0  0  0  0  0  0
  -25.3140  -15.2890   20.3770 N   0  0  0  0  0  0  0  0  0  0  0  0
  -24.5400  -15.9310   20.5100 H   0  0  0  0  0  0  0  0  0  0  0  0
  -26.1390  -15.7360   19.9990 H   0  0  0  0  0  0  0  0  0  0  0  0
  1  5  1  0
  2  6  1  0
  2  1  2  0
  3  4  1  0
  4 49  1  0
  5  4  2  3
  5  8  1  0
  6  3  2  0
  7  6  1  0
  9 20  2  0
 10  8  1  0
 10 15  1  0
 11 19  1  0
 11 21  1  0
 12 18  1  0
 12 14  1  0
 13 19  1  0
 14 13  1  0
 15 14  2  0
 16 10  2  0
 17 16  1  0
 17 12  2  0
 18 11  1  0
 19  9  1  0
 21 23  2  0
 22 21  1  0
 24 22  1  0
 25 34  2  0
 25 30  1  0
 26 22  1  0
 26 30  1  0
 27 26  1  0
 28 29  1  0
 28 27  1  0
 29 25  1  0
 30 31  2  0
 31 32  1  0
 33 32  2  0
 34 33  1  0
 35  9  1  0
 35 36  1  0
 35 45  1  0
 36 39  1  0
 37 41  1  0
 37 36  1  0
 38 37  2  0
 41 40  1  0
 43 41  1  0
 43 44  1  0
 43 42  1  0
 45 48  1  1
 45 46  1  0
 47 45  1  0
 50 59  1  0
 51 59  1  0
 52 57  1  0
 53 54  1  0
 53 52  1  0
 55 54  1  0
 55 64  1  0
 55 56  1  0
 57 51  1  0
 57 56  1  0
 58 51  2  0
 59 60  1  0
 61 62  2  0
 62 81  1  0
 63 62  1  0
 63 66  1  0
 64 65  1  0
 64 61  1  0
 65 63  2  0
 66 67  1  0
 67 68  2  0
 69 72  1  0
 69 68  1  0
 70 69  2  0
 71 70  1  0
 71 66  2  0
 72 73  1  0
 73 74  1  0
 74 75  2  0
 76 75  1  0
 76 80  1  0
 77 76  2  0
 78 73  2  0
 78 77  1  0
 79 78  1  0
 81 82  1  0
 82 85  1  0
 82 84  1  0
 83 81  2  0
 86 87  1  0
 86 61  1  0
 88 86  1  0
M  ISO  4   5 101   8 101  51 100  59 100
M  END
>  <TORSDO>  (23) 
F 18

>  <SCORE>  (23) 
-15.683

>  <name>  (23) 
22

>  <ligand_id>  (23) 
22

>  <original_smiles>  (23) 
[H]c1c([H])c([H])c2c(c1[H])C([H])([H])C([H])([H])C([H])([H])C2([H])N([H])C(=O)C1([H])N(C(=O)C([H])(N([H])C(=O)C([H])(N([H])C([H])([H])[H])C([H])([H])[H])C(C([H])([H])[H])(C([H])([H])[H])C([H])([H])[H])C([H])([H])c2c([H])c(Oc3c([H])c([H])c(F)c([H])c3C([H])([H])C([H])([H])N([H])C(=O)N3C([H])([H])C([H])([H])C([H])([H])C([H])(n4nc(-c5c([H])c([H])c(Oc6c([H])c([H])c(F)c([H])c6F)c([H])c5[H])c(C(=O)N([H])[H])c4N([H])[H])C3([H])[H])c([H])c([H])c2C1([H])[H]

>  <smiles>  (23) 
[H]c1c([H])c([H])c2c(c1[H])C([H])([H])C([H])([H])C([H])([H])C2([H])N([H])C(=O)C1([H])N(C(=O)C([H])(N([H])C(=O)C([H])(N([H])C([H])([H])[H])C([H])([H])[H])C(C([H])([H])[H])(C([H])([H])[H])C([H])([H])[H])C([H])([H])c2c([H])c(Oc3c([H])c([H])c(F)c([H])c3C([H])([H])C([H])([H])N([H])C(=O)N3C([H])([H])C([H])([H])C([H])([H])C([H])(n4nc(-c5c([H])c([H])c(Oc6c([H])c([H])c(F)c([H])c6F)c([H])c5[H])c(C(=O)N([H])[H])c4N([H])[H])C3([H])[H])c([H])c([H])c2C1([H])[H]

$$$$
23:0:0
     RDKit          3D

 92101  0  0  1  0  0  0  0  0999 V2000
  -28.9970  -19.9770   21.4170 C   0  0  0  0  0  3  0  0  0  0  0  0
  -28.8860  -21.1890   22.1290 C   0  0  0  0  0  3  0  0  0  0  0  0
  -28.9080  -21.3810   19.4330 C   0  0  0  0  0  3  0  0  0  0  0  0
  -29.1750  -19.9290   20.0220 C   0  0  0  0  0  0  0  0  0  0  0  0
  -28.8380  -22.4960   21.5650 C   0  0  0  0  0  0  0  0  0  0  0  0
  -28.6110  -22.7540   20.1600 C   0  0  0  0  0  0  0  0  0  0  0  0
  -29.2610  -23.6190   22.5470 C   0  0  0  0  0  2  0  0  0  0  0  0
  -30.6140  -24.2910   22.1770 C   0  0  0  0  0  2  0  0  0  0  0  0
  -30.5200  -25.4390   21.1500 C   0  0  0  0  0  2  0  0  0  0  0  0
  -29.9840  -25.0000   19.7960 C   0  0  0  0  0  2  0  0  0  0  0  0
  -28.5220  -24.5520   19.8760 C   0  0  0  0  0  3  0  0  0  0  0  0
  -30.3900  -15.6850   19.5390 C   0  0  0  0  0  0  0  0  0  0  0  0
  -30.3930  -13.1790   18.7670 C   0  0  0  0  0  2  0  0  0  0  0  0
  -29.3960  -12.8680   17.6200 C   0  0  0  0  0  2  0  0  0  0  0  0
  -27.9970  -12.5560   18.1740 C   0  0  0  0  0  2  0  0  0  0  0  0
  -27.6030  -13.5380   19.3010 C   0  0  0  0  0  3  0  0  0  0  0  0
  -28.7200  -13.7790   20.3360 C   0  0  0  0  0  2  0  0  0  0  0  0
  -29.8730  -14.3420   19.6060 N   0  0  0  0  0  0  0  0  0  0  0  0
  -31.5580  -15.6530   19.1200 O   0  0  0  0  0  0  0  0  0  0  0  0
  -29.8340  -18.4550   19.4310 C   0  0  0  0  0  0  0  0  0  0  0  0
  -29.6590  -16.9930   19.7970 N   0  0  0  0  0  0  0  0  0  0  0  0
  -30.6260  -18.6650   18.5120 O   0  0  0  0  0  0  0  0  0  0  0  0
  -28.8240  -16.8640   20.3480 H   0  0  0  0  0  0  0  0  0  0  0  0
  -25.3440  -14.0900   20.3290 C   0  0  0  0  0  0  0  0  0  0  0  0
  -24.3080  -13.3090   20.7720 C   0  0  0  0  0  0  0  0  0  0  0  0
  -24.7450  -11.9590   20.6290 C   0  0  0  0  0  0  0  0  0  0  0  0
  -26.3300  -13.2090   19.9270 N   0  0  0  0  0  0  0  0  0  0  0  0
  -25.9930  -11.9160   20.1790 N   0  0  0  0  0  0  0  0  0  0  0  0
  -24.0140  -10.7010   20.8390 C   0  0  0  0  0  0  0  0  0  0  0  0
  -24.4750   -9.7210   21.7450 C   0  0  0  0  0  3  0  0  0  0  0  0
  -23.7460   -8.5300   21.9450 C   0  0  0  0  0  3  0  0  0  0  0  0
  -22.5390   -8.3080   21.2410 C   0  0  0  0  0  0  0  0  0  0  0  0
  -22.0950   -9.2740   20.3220 C   0  0  0  0  0  3  0  0  0  0  0  0
  -22.8260  -10.4600   20.1220 C   0  0  0  0  0  3  0  0  0  0  0  0
  -21.7790   -7.1700   21.3510 O   0  0  0  0  0  0  0  0  0  0  0  0
  -21.7170   -6.4550   22.5210 C   0  0  0  0  0  0  0  0  0  0  0  0
  -21.2400   -7.0280   23.7220 C   0  0  0  0  0  3  0  0  0  0  0  0
  -21.1300   -6.2420   24.8840 C   0  0  0  0  0  3  0  0  0  0  0  0
  -21.4810   -4.8800   24.8480 C   0  0  0  0  0  0  0  0  0  0  0  0
  -21.9480   -4.3030   23.6540 C   0  0  0  0  0  3  0  0  0  0  0  0
  -22.0640   -5.0870   22.4930 C   0  0  0  0  0  0  0  0  0  0  0  0
  -22.4950   -4.5240   21.3390 F   0  0  0  0  0  0  0  0  0  0  0  0
  -21.3690   -4.1180   25.9620 F   0  0  0  0  0  0  0  0  0  0  0  0
  -22.9580  -13.8010   21.2020 C   0  0  0  0  0  0  0  0  0  0  0  0
  -22.3090  -13.0940   22.1200 N   0  0  0  0  0  0  0  0  0  0  0  0
  -22.4930  -14.8530   20.7630 O   0  0  0  0  0  0  0  0  0  0  0  0
  -22.7010  -12.2450   22.4990 H   0  0  0  0  0  0  0  0  0  0  0  0
  -21.4100  -13.4070   22.4490 H   0  0  0  0  0  0  0  0  0  0  0  0
  -25.5280  -15.4630   20.2090 N   0  0  0  0  0  0  0  0  0  0  0  0
  -24.8170  -16.1370   20.4620 H   0  0  0  0  0  0  0  0  0  0  0  0
  -26.3650  -15.8800   19.8220 H   0  0  0  0  0  0  0  0  0  0  0  0
  -27.7740  -25.8380   19.1050 O   0  0  0  0  0  0  0  0  0  0  0  0
  -24.6090  -31.7950   22.9110 C   0  0  0  0  0  0  0  0  0  0  0  0
  -26.8450  -26.9810   19.4680 C   0  0  0  0  0  0  0  0  0  0  0  0
  -23.2810  -30.5120   21.2880 C   0  0  0  0  0  3  0  0  0  0  0  0
  -24.6040  -28.9550   19.6960 C   0  0  0  0  0  0  0  0  0  0  0  0
  -25.8420  -30.6710   20.9870 C   0  0  0  0  0  2  0  0  0  0  0  0
  -25.8420  -29.2820   20.2620 C   0  0  0  0  0  0  0  0  0  0  0  0
  -26.9650  -28.3250   20.1180 C   0  0  0  0  0  3  0  0  0  0  0  0
  -25.5720  -26.8400   18.8790 C   0  0  0  0  0  3  0  0  0  0  0  0
  -24.4950  -27.7530   18.9890 C   0  0  0  0  0  3  0  0  0  0  0  0
  -23.4150  -29.9020   19.8670 C   0  0  0  0  0  2  0  0  0  0  0  0
  -24.6030  -31.0180   21.7800 N   0  0  0  0  0  0  0  0  0  0  0  0
  -23.5650  -32.0700   23.5250 O   0  0  0  0  0  0  0  0  0  0  0  0
  -22.6290  -29.4750   22.2430 C   0  0  0  0  0  0  0  0  0  0  0  0
  -21.2930  -29.3150   22.1890 N   0  0  0  0  0  0  0  0  0  0  0  0
  -23.3360  -28.8150   23.0090 O   0  0  0  0  0  0  0  0  0  0  0  0
  -20.7700  -29.9030   21.5520 H   0  0  0  0  0  0  0  0  0  0  0  0
  -17.9490  -28.0360   22.8030 C   0  0  0  0  0  0  0  0  0  0  0  0
  -20.5150  -28.3380   22.9630 C   0  0  0  0  0  3  0  0  0  0  0  0
  -20.6110  -26.9250   22.3420 C   0  0  0  0  0  2  0  0  0  0  0  0
  -19.4700  -26.6160   21.3650 C   0  0  0  0  0  2  0  0  0  0  0  0
  -18.1170  -26.7140   22.0730 C   0  0  0  0  0  2  0  0  0  0  0  0
  -19.0740  -28.8070   23.2070 C   0  0  0  0  0  0  0  0  0  0  0  0
  -18.8550  -30.0400   23.8580 C   0  0  0  0  0  3  0  0  0  0  0  0
  -17.5480  -30.5070   24.0990 C   0  0  0  0  0  3  0  0  0  0  0  0
  -16.4410  -29.7360   23.7040 C   0  0  0  0  0  3  0  0  0  0  0  0
  -16.6420  -28.5020   23.0650 C   0  0  0  0  0  3  0  0  0  0  0  0
  -25.9300  -32.3850   23.4890 C   0  0  0  0  0  3  0  0  0  0  0  0
  -25.6470  -33.7450   23.9790 N   0  0  0  0  0  0  0  0  0  0  0  0
  -25.9890  -34.8770   23.3460 C   0  0  0  0  0  0  0  0  0  0  0  0
  -26.6310  -34.8820   22.2940 O   0  0  0  0  0  0  0  0  0  0  0  0
  -25.0690  -33.8150   24.8040 H   0  0  0  0  0  0  0  0  0  0  0  0
  -24.3020  -36.7450   23.2450 C   0  0  0  0  0  1  0  0  0  0  0  0
  -25.5450  -36.2140   23.9760 C   0  0  0  0  0  3  0  0  0  0  0  0
  -27.7140  -36.9470   24.8690 C   0  0  0  0  0  1  0  0  0  0  0  0
  -26.6030  -37.2490   23.9710 N   0  0  0  0  0  0  0  0  0  0  0  0
  -26.2220  -38.1540   24.2340 H   0  0  0  0  0  0  0  0  0  0  0  0
  -26.5500  -31.5070   24.6490 C   0  0  1  0  0  0  0  0  0  0  0  0
  -25.5490  -31.1870   25.7850 C   0  0  0  0  0  1  0  0  0  0  0  0
  -27.0810  -30.1590   24.1080 C   0  0  0  0  0  1  0  0  0  0  0  0
  -27.7630  -32.2390   25.2650 C   0  0  0  0  0  1  0  0  0  0  0  0
  1  2  1  0
  3  4  1  0
  3  6  2  0
  4  1  2  0
  5  2  2  0
  5  7  1  0
  6  5  1  0
  8  7  1  0
  9  8  1  0
 10 11  1  0
 10  9  1  0
 11 52  1  0
 11  6  1  0
 12 18  1  0
 12 21  1  0
 13 18  1  0
 14 15  1  0
 14 13  1  0
 16 15  1  0
 16 27  1  0
 16 17  1  0
 18 17  1  0
 19 12  2  0
 20 21  1  0
 20  4  1  0
 21 23  1  0
 22 20  2  0
 24 25  2  0
 25 44  1  0
 26 25  1  0
 26 29  1  0
 27 28  1  0
 27 24  1  0
 28 26  2  0
 29 30  1  0
 30 31  2  0
 32 35  1  0
 32 31  1  0
 33 32  2  0
 34 33  1  0
 34 29  2  0
 35 36  1  0
 36 37  1  0
 37 38  2  0
 39 38  1  0
 39 43  1  0
 40 39  2  0
 41 36  2  0
 41 40  1  0
 42 41  1  0
 44 45  1  0
 45 48  1  0
 45 47  1  0
 46 44  2  0
 49 24  1  0
 49 50  1  0
 51 49  1  0
 52 54  1  0
 53 64  2  0
 54 59  1  0
 55 63  1  0
 55 65  1  0
 56 62  1  0
 56 58  1  0
 57 63  1  0
 58 57  1  0
 59 58  2  0
 60 61  1  0
 60 54  2  0
 61 56  2  0
 62 55  1  0
 63 53  1  0
 65 67  2  0
 66 65  1  0
 68 66  1  0
 69 78  2  0
 69 74  1  0
 70 66  1  0
 70 74  1  0
 71 70  1  0
 72 73  1  0
 72 71  1  0
 73 69  1  0
 74 75  2  0
 75 76  1  0
 77 76  2  0
 78 77  1  0
 79 53  1  0
 79 80  1  0
 79 89  1  0
 80 83  1  0
 81 85  1  0
 81 80  1  0
 82 81  2  0
 85 84  1  0
 87 85  1  0
 87 88  1  0
 87 86  1  0
 89 92  1  1
 89 90  1  0
 91 89  1  0
M  ISO  4  11 101  12 100  21 100  52 101
M  END
>  <TORSDO>  (24) 
F 16

>  <SCORE>  (24) 
-14.694

>  <name>  (24) 
23

>  <ligand_id>  (24) 
23

>  <original_smiles>  (24) 
[H]c1c([H])c([H])c2c(c1[H])C([H])([H])C([H])([H])C([H])([H])C2([H])N([H])C(=O)C1([H])N(C(=O)C([H])(N([H])C(=O)C([H])(N([H])C([H])([H])[H])C([H])([H])[H])C(C([H])([H])[H])(C([H])([H])[H])C([H])([H])[H])C([H])([H])c2c([H])c(OC3([H])c4c([H])c(C(=O)N([H])C(=O)N5C([H])([H])C([H])([H])C([H])([H])C([H])(n6nc(-c7c([H])c([H])c(Oc8c([H])c([H])c(F)c([H])c8F)c([H])c7[H])c(C(=O)N([H])[H])c6N([H])[H])C5([H])[H])c([H])c([H])c4C([H])([H])C([H])([H])C([H])([H])C3([H])[H])c([H])c([H])c2C1([H])[H]

>  <smiles>  (24) 
[H]c1c([H])c([H])c2c(c1[H])C([H])([H])C([H])([H])C([H])([H])C2([H])N([H])C(=O)C1([H])N(C(=O)C([H])(N([H])C(=O)C([H])(N([H])C([H])([H])[H])C([H])([H])[H])C(C([H])([H])[H])(C([H])([H])[H])C([H])([H])[H])C([H])([H])c2c([H])c(OC3([H])c4c([H])c(C(=O)N([H])C(=O)N5C([H])([H])C([H])([H])C([H])([H])C([H])(n6nc(-c7c([H])c([H])c(Oc8c([H])c([H])c(F)c([H])c8F)c([H])c7[H])c(C(=O)N([H])[H])c6N([H])[H])C5([H])[H])c([H])c([H])c4C([H])([H])C([H])([H])C([H])([H])C3([H])[H])c([H])c([H])c2C1([H])[H]

$$$$
24:0:0
     RDKit          3D

 90 99  0  0  1  0  0  0  0  0999 V2000
  -29.6820  -18.0220   21.1740 C   0  0  0  0  0  3  0  0  0  0  0  0
  -30.6310  -17.2210   18.9620 C   0  0  0  0  0  0  0  0  0  0  0  0
  -30.2870  -18.8170   18.5380 C   0  0  0  0  0  0  0  0  0  0  0  0
  -29.6080  -19.7060   19.4580 C   0  0  0  0  0  0  0  0  0  0  0  0
  -30.4580  -17.1450   20.3950 C   0  0  0  0  0  0  0  0  0  0  0  0
  -29.2200  -19.2520   20.7240 C   0  0  0  0  0  0  0  0  0  0  0  0
  -30.3160  -20.1490   17.3960 C   0  0  0  0  0  2  0  0  0  0  0  0
  -29.2500  -21.2340   19.1020 C   0  0  0  0  0  2  0  0  0  0  0  0
  -30.0040  -21.9030   17.9000 C   0  0  1  0  0  0  0  0  0  0  0  0
  -31.2310  -16.1670   21.2910 C   0  0  0  0  0  1  0  0  0  0  0  0
  -28.3970  -20.1090   21.6790 C   0  0  0  0  0  1  0  0  0  0  0  0
  -31.3930  -22.3630   18.3660 C   0  0  0  0  0  1  0  0  0  0  0  0
  -31.2700  -15.6240   18.4640 C   0  0  0  0  0  0  0  0  0  0  0  0
  -31.2820  -12.9490   18.0590 C   0  0  0  0  0  2  0  0  0  0  0  0
  -30.2130  -12.3760   17.0740 C   0  0  0  0  0  2  0  0  0  0  0  0
  -28.8720  -12.1290   17.7850 C   0  0  0  0  0  2  0  0  0  0  0  0
  -28.5320  -13.2950   18.7340 C   0  0  0  0  0  3  0  0  0  0  0  0
  -29.7150  -13.7570   19.6070 C   0  0  0  0  0  2  0  0  0  0  0  0
  -30.8030  -14.2500   18.7290 N   0  0  0  0  0  0  0  0  0  0  0  0
  -32.3660  -15.5220   17.8760 O   0  0  0  0  0  0  0  0  0  0  0  0
  -26.5560  -14.0340   20.1490 C   0  0  0  0  0  0  0  0  0  0  0  0
  -25.4880  -13.3740   20.6840 C   0  0  0  0  0  0  0  0  0  0  0  0
  -25.6760  -11.9950   20.3600 C   0  0  0  0  0  0  0  0  0  0  0  0
  -27.3290  -13.0740   19.5240 N   0  0  0  0  0  0  0  0  0  0  0  0
  -26.8290  -11.8230   19.7180 N   0  0  0  0  0  0  0  0  0  0  0  0
  -24.7880  -10.8440   20.5740 C   0  0  0  0  0  0  0  0  0  0  0  0
  -25.1630   -9.7590   21.3960 C   0  0  0  0  0  3  0  0  0  0  0  0
  -24.2810   -8.6760   21.6040 C   0  0  0  0  0  3  0  0  0  0  0  0
  -23.0060   -8.6700   20.9900 C   0  0  0  0  0  0  0  0  0  0  0  0
  -22.6450   -9.7420   20.1560 C   0  0  0  0  0  3  0  0  0  0  0  0
  -23.5260  -10.8160   19.9450 C   0  0  0  0  0  3  0  0  0  0  0  0
  -22.0970   -7.6460   21.1100 O   0  0  0  0  0  0  0  0  0  0  0  0
  -21.9440   -6.9500   22.2830 C   0  0  0  0  0  0  0  0  0  0  0  0
  -21.5450   -7.5860   23.4770 C   0  0  0  0  0  3  0  0  0  0  0  0
  -21.3320   -6.8260   24.6440 C   0  0  0  0  0  3  0  0  0  0  0  0
  -21.5050   -5.4300   24.6170 C   0  0  0  0  0  0  0  0  0  0  0  0
  -21.8950   -4.7910   23.4260 C   0  0  0  0  0  3  0  0  0  0  0  0
  -22.1120   -5.5510   22.2610 C   0  0  0  0  0  0  0  0  0  0  0  0
  -22.4660   -4.9290   21.1120 F   0  0  0  0  0  0  0  0  0  0  0  0
  -21.2960   -4.6960   25.7360 F   0  0  0  0  0  0  0  0  0  0  0  0
  -24.3050  -14.0050   21.3550 C   0  0  0  0  0  0  0  0  0  0  0  0
  -23.7050  -13.3200   22.3210 N   0  0  0  0  0  0  0  0  0  0  0  0
  -23.9360  -15.1400   21.0570 O   0  0  0  0  0  0  0  0  0  0  0  0
  -24.0300  -12.4000   22.5890 H   0  0  0  0  0  0  0  0  0  0  0  0
  -22.9160  -13.7240   22.8050 H   0  0  0  0  0  0  0  0  0  0  0  0
  -26.9160  -15.3770   20.1060 N   0  0  0  0  0  0  0  0  0  0  0  0
  -26.3200  -16.0980   20.4920 H   0  0  0  0  0  0  0  0  0  0  0  0
  -27.7010  -15.7480   19.5850 H   0  0  0  0  0  0  0  0  0  0  0  0
  -29.2320  -23.5830   17.2300 C   0  0  0  0  0  2  0  0  0  0  0  0
  -29.0950  -25.3290   17.5410 O   0  0  0  0  0  0  0  0  0  0  0  0
  -25.0660  -30.2410   22.0400 C   0  0  0  0  0  0  0  0  0  0  0  0
  -27.9620  -26.3750   17.7930 C   0  0  0  0  0  0  0  0  0  0  0  0
  -23.9240  -29.0700   20.1990 C   0  0  0  0  0  3  0  0  0  0  0  0
  -25.4430  -28.0080   18.3530 C   0  0  0  0  0  0  0  0  0  0  0  0
  -26.4350  -29.6240   19.9530 C   0  0  0  0  0  2  0  0  0  0  0  0
  -26.6320  -28.3910   18.9850 C   0  0  0  0  0  0  0  0  0  0  0  0
  -27.8630  -27.5990   18.6860 C   0  0  0  0  0  3  0  0  0  0  0  0
  -26.7050  -26.2120   17.1560 C   0  0  0  0  0  3  0  0  0  0  0  0
  -25.5140  -26.9560   17.4220 C   0  0  0  0  0  3  0  0  0  0  0  0
  -24.1250  -28.7280   18.6910 C   0  0  0  0  0  2  0  0  0  0  0  0
  -25.1660  -29.6700   20.7890 N   0  0  0  0  0  0  0  0  0  0  0  0
  -23.9960  -30.2550   22.6740 O   0  0  0  0  0  0  0  0  0  0  0  0
  -23.4410  -27.8090   20.9650 C   0  0  0  0  0  0  0  0  0  0  0  0
  -22.1390  -27.4750   20.8840 N   0  0  0  0  0  0  0  0  0  0  0  0
  -24.2500  -27.1350   21.6090 O   0  0  0  0  0  0  0  0  0  0  0  0
  -21.5240  -28.0820   20.3610 H   0  0  0  0  0  0  0  0  0  0  0  0
  -19.0160  -25.6710   21.3110 C   0  0  0  0  0  0  0  0  0  0  0  0
  -21.5260  -26.2760   21.4680 C   0  0  0  0  0  3  0  0  0  0  0  0
  -21.7690  -25.0360   20.5750 C   0  0  0  0  0  2  0  0  0  0  0  0
  -20.6320  -24.7760   19.5840 C   0  0  0  0  0  2  0  0  0  0  0  0
  -19.3140  -24.5510   20.3280 C   0  0  0  0  0  2  0  0  0  0  0  0
  -20.0510  -26.4910   21.8350 C   0  0  0  0  0  0  0  0  0  0  0  0
  -19.7140  -27.5320   22.7260 C   0  0  0  0  0  3  0  0  0  0  0  0
  -18.3730  -27.7620   23.0910 C   0  0  0  0  0  3  0  0  0  0  0  0
  -17.3540  -26.9420   22.5790 C   0  0  0  0  0  3  0  0  0  0  0  0
  -17.6770  -25.8950   21.6960 C   0  0  0  0  0  3  0  0  0  0  0  0
  -26.2870  -30.9190   22.7340 C   0  0  0  0  0  3  0  0  0  0  0  0
  -25.7990  -32.0820   23.5010 N   0  0  0  0  0  0  0  0  0  0  0  0
  -25.9610  -33.3640   23.1480 C   0  0  0  0  0  0  0  0  0  0  0  0
  -26.5960  -33.7030   22.1460 O   0  0  0  0  0  0  0  0  0  0  0  0
  -25.2190  -31.8810   24.3040 H   0  0  0  0  0  0  0  0  0  0  0  0
  -24.0270  -34.9620   23.3960 C   0  0  0  0  0  1  0  0  0  0  0  0
  -25.3200  -34.4440   24.0450 C   0  0  0  0  0  3  0  0  0  0  0  0
  -27.3350  -35.2450   25.2010 C   0  0  0  0  0  1  0  0  0  0  0  0
  -26.2170  -35.5870   24.3260 N   0  0  0  0  0  0  0  0  0  0  0  0
  -25.7020  -36.3490   24.7560 H   0  0  0  0  0  0  0  0  0  0  0  0
  -27.0770  -29.9410   23.6900 C   0  0  1  0  0  0  0  0  0  0  0  0
  -26.1810  -29.2320   24.7330 C   0  0  0  0  0  1  0  0  0  0  0  0
  -27.8090  -28.8440   22.8830 C   0  0  0  0  0  1  0  0  0  0  0  0
  -28.1710  -30.7240   24.4530 C   0  0  0  0  0  1  0  0  0  0  0  0
  2  5  1  0
  3  2  2  0
  3  4  1  0
  4  6  2  0
  5  1  2  0
  5 10  1  0
  6  1  1  0
  6 11  1  0
  7  9  1  0
  7  3  1  0
  8  4  1  0
  9 12  1  1
  9  8  1  0
 13 19  1  0
 13  2  1  0
 14 19  1  0
 15 16  1  0
 15 14  1  0
 17 16  1  0
 17 24  1  0
 17 18  1  0
 19 18  1  0
 20 13  2  0
 21 22  2  0
 22 41  1  0
 23 26  1  0
 23 22  1  0
 24 25  1  0
 24 21  1  0
 25 23  2  0
 26 27  1  0
 27 28  2  0
 29 32  1  0
 29 28  1  0
 30 29  2  0
 31 30  1  0
 31 26  2  0
 32 33  1  0
 33 34  1  0
 34 35  2  0
 36 35  1  0
 36 40  1  0
 37 36  2  0
 38 33  2  0
 38 37  1  0
 39 38  1  0
 41 42  1  0
 42 44  1  0
 42 45  1  0
 43 41  2  0
 46 21  1  0
 46 47  1  0
 48 46  1  0
 49 50  1  0
 49  9  1  0
 50 52  1  0
 51 62  2  0
 52 57  1  0
 53 61  1  0
 53 63  1  0
 54 60  1  0
 54 56  1  0
 55 61  1  0
 56 55  1  0
 57 56  2  0
 58 59  1  0
 58 52  2  0
 59 54  2  0
 60 53  1  0
 61 51  1  0
 63 65  2  0
 64 63  1  0
 66 64  1  0
 67 76  2  0
 67 72  1  0
 68 64  1  0
 68 72  1  0
 69 68  1  0
 70 71  1  0
 70 69  1  0
 71 67  1  0
 72 73  2  0
 73 74  1  0
 75 74  2  0
 76 75  1  0
 77 51  1  0
 77 78  1  0
 77 87  1  0
 78 81  1  0
 79 78  1  0
 79 83  1  0
 80 79  2  0
 83 82  1  0
 83 85  1  0
 85 86  1  0
 85 84  1  0
 87 90  1  1
 87 88  1  0
 89 87  1  0
M  ISO  4   2 100  13 100  49 101  50 101
M  END
>  <TORSDO>  (25) 
F 17

>  <SCORE>  (25) 
-7.489

>  <name>  (25) 
24

>  <ligand_id>  (25) 
24

>  <original_smiles>  (25) 
[H]c1c([H])c([H])c2c(c1[H])C([H])([H])C([H])([H])C([H])([H])C2([H])N([H])C(=O)C1([H])N(C(=O)C([H])(N([H])C(=O)C([H])(N([H])C([H])([H])[H])C([H])([H])[H])C(C([H])([H])[H])(C([H])([H])[H])C([H])([H])[H])C([H])([H])c2c([H])c(OC([H])([H])C3(C([H])([H])[H])C([H])([H])c4c(C(=O)N5C([H])([H])C([H])([H])C([H])([H])C([H])(n6nc(-c7c([H])c([H])c(Oc8c([H])c([H])c(F)c([H])c8F)c([H])c7[H])c(C(=O)N([H])[H])c6N([H])[H])C5([H])[H])c(C([H])([H])[H])c([H])c(C([H])([H])[H])c4C3([H])[H])c([H])c([H])c2C1([H])[H]

>  <smiles>  (25) 
[H]c1c([H])c([H])c2c(c1[H])C([H])([H])C([H])([H])C([H])([H])C2([H])N([H])C(=O)C1([H])N(C(=O)C([H])(N([H])C(=O)C([H])(N([H])C([H])([H])[H])C([H])([H])[H])C(C([H])([H])[H])(C([H])([H])[H])C([H])([H])[H])C([H])([H])c2c([H])c(OC([H])([H])C3(C([H])([H])[H])C([H])([H])c4c(C(=O)N5C([H])([H])C([H])([H])C([H])([H])C([H])(n6nc(-c7c([H])c([H])c(Oc8c([H])c([H])c(F)c([H])c8F)c([H])c7[H])c(C(=O)N([H])[H])c6N([H])[H])C5([H])[H])c(C([H])([H])[H])c([H])c(C([H])([H])[H])c4C3([H])[H])c([H])c([H])c2C1([H])[H]

$$$$
25:0:0
     RDKit          3D

 89 97  0  0  1  0  0  0  0  0999 V2000
  -29.4060  -21.4740   21.1180 C   0  0  0  0  0  3  0  0  0  0  0  0
  -28.7400  -23.9700   20.9810 C   0  0  0  0  0  3  0  0  0  0  0  0
  -28.6860  -22.5210   19.0840 C   0  0  0  0  0  3  0  0  0  0  0  0
  -29.2000  -22.7930   21.6880 C   0  0  0  0  0  0  0  0  0  0  0  0
  -29.1580  -21.1020   19.7630 C   0  0  0  0  0  0  0  0  0  0  0  0
  -28.4210  -24.0530   19.5900 C   0  0  0  0  0  0  0  0  0  0  0  0
  -29.4740  -22.9510   23.1910 C   0  0  0  0  0  1  0  0  0  0  0  0
  -28.0940  -25.5610   18.9800 O   0  0  0  0  0  0  0  0  0  0  0  0
  -24.7110  -31.5730   22.7410 C   0  0  0  0  0  0  0  0  0  0  0  0
  -27.0930  -26.7720   19.1820 C   0  0  0  0  0  0  0  0  0  0  0  0
  -23.4180  -30.2700   21.1060 C   0  0  0  0  0  3  0  0  0  0  0  0
  -24.7790  -28.7890   19.4350 C   0  0  0  0  0  0  0  0  0  0  0  0
  -25.9690  -30.5040   20.7630 C   0  0  0  0  0  2  0  0  0  0  0  0
  -26.0170  -29.1180   20.0040 C   0  0  0  0  0  0  0  0  0  0  0  0
  -27.1490  -28.1430   19.8470 C   0  0  0  0  0  3  0  0  0  0  0  0
  -25.8220  -26.7000   18.5410 C   0  0  0  0  0  3  0  0  0  0  0  0
  -24.7260  -27.6150   18.6700 C   0  0  0  0  0  3  0  0  0  0  0  0
  -23.5530  -29.6940   19.6650 C   0  0  0  0  0  2  0  0  0  0  0  0
  -24.7280  -30.8180   21.5860 N   0  0  0  0  0  0  0  0  0  0  0  0
  -23.6630  -31.7810   23.3750 O   0  0  0  0  0  0  0  0  0  0  0  0
  -22.8330  -29.1840   22.0510 C   0  0  0  0  0  0  0  0  0  0  0  0
  -21.5080  -28.9370   21.9880 N   0  0  0  0  0  0  0  0  0  0  0  0
  -23.5800  -28.5610   22.8090 O   0  0  0  0  0  0  0  0  0  0  0  0
  -20.9500  -29.4890   21.3510 H   0  0  0  0  0  0  0  0  0  0  0  0
  -18.2630  -27.4140   22.5940 C   0  0  0  0  0  0  0  0  0  0  0  0
  -20.8020  -27.8920   22.7430 C   0  0  0  0  0  3  0  0  0  0  0  0
  -20.9940  -26.5080   22.0790 C   0  0  0  0  0  2  0  0  0  0  0  0
  -19.8690  -26.1490   21.1020 C   0  0  0  0  0  2  0  0  0  0  0  0
  -18.5160  -26.1300   21.8220 C   0  0  0  0  0  2  0  0  0  0  0  0
  -19.3330  -28.2510   23.0130 C   0  0  0  0  0  0  0  0  0  0  0  0
  -19.0370  -29.4460   23.7010 C   0  0  0  0  0  3  0  0  0  0  0  0
  -17.7030  -29.8100   23.9710 C   0  0  0  0  0  3  0  0  0  0  0  0
  -16.6490  -28.9730   23.5640 C   0  0  0  0  0  3  0  0  0  0  0  0
  -16.9300  -27.7770   22.8810 C   0  0  0  0  0  3  0  0  0  0  0  0
  -26.0050  -32.2180   23.3210 C   0  0  0  0  0  3  0  0  0  0  0  0
  -25.6540  -33.5410   23.8770 N   0  0  0  0  0  0  0  0  0  0  0  0
  -25.8700  -34.7180   23.2710 C   0  0  0  0  0  0  0  0  0  0  0  0
  -26.4400  -34.8030   22.1820 O   0  0  0  0  0  0  0  0  0  0  0  0
  -25.1320  -33.5420   24.7410 H   0  0  0  0  0  0  0  0  0  0  0  0
  -24.0350  -36.4410   23.3740 C   0  0  0  0  0  1  0  0  0  0  0  0
  -25.3790  -36.0020   23.9780 C   0  0  0  0  0  3  0  0  0  0  0  0
  -27.5430  -36.9040   24.7170 C   0  0  0  0  0  1  0  0  0  0  0  0
  -26.3490  -37.1180   23.9050 N   0  0  0  0  0  0  0  0  0  0  0  0
  -25.9220  -37.9970   24.1910 H   0  0  0  0  0  0  0  0  0  0  0  0
  -26.6950  -31.3320   24.4320 C   0  0  1  0  0  0  0  0  0  0  0  0
  -25.7350  -30.9090   25.5680 C   0  0  0  0  0  1  0  0  0  0  0  0
  -27.2980  -30.0420   23.8320 C   0  0  0  0  0  1  0  0  0  0  0  0
  -27.8770  -32.1110   25.0610 C   0  0  0  0  0  1  0  0  0  0  0  0
  -29.2270  -19.2210   19.2980 C   0  0  0  0  0  3  0  0  0  0  0  0
  -30.4010  -16.1130   19.5860 C   0  0  0  0  0  0  0  0  0  0  0  0
  -30.6050  -13.4730   18.9500 C   0  0  0  0  0  2  0  0  0  0  0  0
  -29.6910  -12.8910   17.8220 C   0  0  0  0  0  2  0  0  0  0  0  0
  -28.3050  -12.5130   18.3610 C   0  0  0  0  0  2  0  0  0  0  0  0
  -27.8100  -13.5740   19.3640 C   0  0  0  0  0  3  0  0  0  0  0  0
  -28.8620  -14.0380   20.4030 C   0  0  0  0  0  2  0  0  0  0  0  0
  -29.9720  -14.6940   19.6720 N   0  0  0  0  0  0  0  0  0  0  0  0
  -31.5770  -16.0650   19.1660 O   0  0  0  0  0  0  0  0  0  0  0  0
  -29.6230  -17.4960   19.8330 N   0  0  0  0  0  0  0  0  0  0  0  0
  -28.8530  -17.2120   20.4230 H   0  0  0  0  0  0  0  0  0  0  0  0
  -25.5440  -14.1240   20.3580 C   0  0  0  0  0  0  0  0  0  0  0  0
  -24.5000  -13.3590   20.7840 C   0  0  0  0  0  0  0  0  0  0  0  0
  -24.9160  -11.9980   20.6310 C   0  0  0  0  0  0  0  0  0  0  0  0
  -26.5270  -13.2420   19.9670 N   0  0  0  0  0  0  0  0  0  0  0  0
  -26.1750  -11.9490   20.1950 N   0  0  0  0  0  0  0  0  0  0  0  0
  -24.1650  -10.7490   20.8220 C   0  0  0  0  0  0  0  0  0  0  0  0
  -24.5870   -9.7650   21.7450 C   0  0  0  0  0  3  0  0  0  0  0  0
  -23.8310   -8.5870   21.9290 C   0  0  0  0  0  3  0  0  0  0  0  0
  -22.6370   -8.3810   21.1930 C   0  0  0  0  0  0  0  0  0  0  0  0
  -22.2310   -9.3560   20.2660 C   0  0  0  0  0  3  0  0  0  0  0  0
  -22.9880  -10.5270   20.0780 C   0  0  0  0  0  3  0  0  0  0  0  0
  -21.8560   -7.2540   21.2850 O   0  0  0  0  0  0  0  0  0  0  0  0
  -21.7500   -6.5430   22.4520 C   0  0  0  0  0  0  0  0  0  0  0  0
  -21.2130   -7.1120   23.6270 C   0  0  0  0  0  3  0  0  0  0  0  0
  -21.0610   -6.3240   24.7840 C   0  0  0  0  0  3  0  0  0  0  0  0
  -21.4370   -4.9670   24.7680 C   0  0  0  0  0  0  0  0  0  0  0  0
  -21.9720   -4.3980   23.6000 C   0  0  0  0  0  3  0  0  0  0  0  0
  -22.1260   -5.1830   22.4430 C   0  0  0  0  0  0  0  0  0  0  0  0
  -22.6170   -4.6240   21.3110 F   0  0  0  0  0  0  0  0  0  0  0  0
  -21.2880   -4.2090   25.8800 F   0  0  0  0  0  0  0  0  0  0  0  0
  -23.1500  -13.8600   21.2010 C   0  0  0  0  0  0  0  0  0  0  0  0
  -22.4770  -13.1490   22.0940 N   0  0  0  0  0  0  0  0  0  0  0  0
  -22.7090  -14.9260   20.7660 O   0  0  0  0  0  0  0  0  0  0  0  0
  -22.8500  -12.2920   22.4710 H   0  0  0  0  0  0  0  0  0  0  0  0
  -21.5720  -13.4700   22.4020 H   0  0  0  0  0  0  0  0  0  0  0  0
  -25.7390  -15.5010   20.2450 N   0  0  0  0  0  0  0  0  0  0  0  0
  -25.0260  -16.1730   20.5080 H   0  0  0  0  0  0  0  0  0  0  0  0
  -26.5350  -15.9230   19.7900 H   0  0  0  0  0  0  0  0  0  0  0  0
  -26.8750  -19.9980   18.3770 C   0  0  0  0  0  1  0  0  0  0  0  0
  -27.6940  -18.9450   19.1470 C   0  0  0  0  0  2  0  0  0  0  0  0
  1  4  1  0
  2  4  2  0
  3  6  2  0
  3  5  1  0
  4  7  1  0
  5  1  2  0
  6  2  1  0
  8 10  1  0
  8  6  1  0
  9 20  2  0
 10 15  1  0
 11 19  1  0
 11 21  1  0
 12 18  1  0
 12 14  1  0
 13 19  1  0
 14 13  1  0
 15 14  2  0
 16 17  1  0
 16 10  2  0
 17 12  2  0
 18 11  1  0
 19  9  1  0
 21 23  2  0
 22 21  1  0
 24 22  1  0
 25 34  2  0
 25 30  1  0
 26 22  1  0
 26 30  1  0
 27 26  1  0
 28 29  1  0
 28 27  1  0
 29 25  1  0
 30 31  2  0
 31 32  1  0
 33 32  2  0
 34 33  1  0
 35  9  1  0
 35 36  1  0
 35 45  1  0
 36 39  1  0
 37 36  1  0
 37 41  1  0
 38 37  2  0
 41 40  1  0
 43 41  1  0
 43 44  1  0
 43 42  1  0
 45 48  1  1
 45 46  1  0
 47 45  1  0
 49 89  1  0
 49  5  1  0
 49 58  1  0
 50 56  1  0
 50 58  1  0
 51 56  1  0
 52 53  1  0
 52 51  1  0
 54 53  1  0
 54 63  1  0
 54 55  1  0
 56 55  1  0
 57 50  2  0
 58 59  1  0
 60 61  2  0
 61 80  1  0
 62 61  1  0
 62 65  1  0
 63 64  1  0
 63 60  1  0
 64 62  2  0
 65 66  1  0
 66 67  2  0
 68 71  1  0
 68 67  1  0
 69 68  2  0
 70 69  1  0
 70 65  2  0
 71 72  1  0
 72 73  1  0
 73 74  2  0
 75 74  1  0
 75 79  1  0
 76 75  2  0
 77 72  2  0
 77 76  1  0
 78 77  1  0
 80 81  1  0
 81 84  1  0
 81 83  1  0
 82 80  2  0
 85 60  1  0
 85 86  1  0
 87 85  1  0
 88 89  1  0
M  ISO  4   6 101   8 101  50 100  58 100
M  END
>  <TORSDO>  (26) 
F 18

>  <SCORE>  (26) 
-14.834

>  <name>  (26) 
25

>  <ligand_id>  (26) 
25

>  <original_smiles>  (26) 
[H]c1c([H])c([H])c2c(c1[H])C([H])([H])C([H])([H])C([H])([H])C2([H])N([H])C(=O)C1([H])N(C(=O)C([H])(N([H])C(=O)C([H])(N([H])C([H])([H])[H])C([H])([H])[H])C(C([H])([H])[H])(C([H])([H])[H])C([H])([H])[H])C([H])([H])c2c([H])c(Oc3c([H])c(C([H])([H])[H])c([H])c(C([H])(N([H])C(=O)N4C([H])([H])C([H])([H])C([H])([H])C([H])(n5nc(-c6c([H])c([H])c(Oc7c([H])c([H])c(F)c([H])c7F)c([H])c6[H])c(C(=O)N([H])[H])c5N([H])[H])C4([H])[H])C([H])([H])C([H])([H])[H])c3[H])c([H])c([H])c2C1([H])[H]

>  <smiles>  (26) 
[H]c1c([H])c([H])c2c(c1[H])C([H])([H])C([H])([H])C([H])([H])C2([H])N([H])C(=O)C1([H])N(C(=O)C([H])(N([H])C(=O)C([H])(N([H])C([H])([H])[H])C([H])([H])[H])C(C([H])([H])[H])(C([H])([H])[H])C([H])([H])[H])C([H])([H])c2c([H])c(Oc3c([H])c(C([H])([H])[H])c([H])c(C([H])(N([H])C(=O)N4C([H])([H])C([H])([H])C([H])([H])C([H])(n5nc(-c6c([H])c([H])c(Oc7c([H])c([H])c(F)c([H])c7F)c([H])c6[H])c(C(=O)N([H])[H])c5N([H])[H])C4([H])[H])C([H])([H])C([H])([H])[H])c3[H])c([H])c([H])c2C1([H])[H]

$$$$
26:0:0
     RDKit          3D

 89 97  0  0  1  0  0  0  0  0999 V2000
  -28.9800  -23.4190   19.3400 C   0  0  0  0  0  3  0  0  0  0  0  0
  -29.1310  -22.0090   19.9550 C   0  0  0  0  0  0  0  0  0  0  0  0
  -28.2920  -23.2180   21.9790 C   0  0  0  0  0  0  0  0  0  0  0  0
  -28.4890  -24.7320   19.9860 C   0  0  0  0  0  0  0  0  0  0  0  0
  -28.7490  -22.0390   21.3140 C   0  0  0  0  0  0  0  0  0  0  0  0
  -28.1680  -24.4950   21.3450 C   0  0  0  0  0  0  0  0  0  0  0  0
  -27.9540  -23.1160   23.3060 O   0  0  0  0  0  1  0  0  0  0  0  0
  -28.7960  -20.8810   22.0170 F   0  0  0  0  0  0  0  0  0  0  0  0
  -27.7490  -25.5430   22.0970 F   0  0  0  0  0  0  0  0  0  0  0  0
  -28.4260  -26.2000   19.5340 O   0  0  0  0  0  0  0  0  0  0  0  0
  -24.7340  -31.8360   23.0200 C   0  0  0  0  0  0  0  0  0  0  0  0
  -27.3580  -27.2290   19.6760 C   0  0  0  0  0  0  0  0  0  0  0  0
  -23.5330  -30.4810   21.3520 C   0  0  0  0  0  3  0  0  0  0  0  0
  -24.9870  -29.0070   19.8060 C   0  0  0  0  0  0  0  0  0  0  0  0
  -26.0820  -30.8010   21.1300 C   0  0  0  0  0  2  0  0  0  0  0  0
  -26.1800  -29.4290   20.4070 C   0  0  0  0  0  0  0  0  0  0  0  0
  -27.3600  -28.5610   20.3200 C   0  0  0  0  0  3  0  0  0  0  0  0
  -26.1290  -26.9570   19.0380 C   0  0  0  0  0  3  0  0  0  0  0  0
  -24.9830  -27.7900   19.1030 C   0  0  0  0  0  3  0  0  0  0  0  0
  -23.7390  -29.8770   19.9360 C   0  0  0  0  0  2  0  0  0  0  0  0
  -24.8050  -31.0650   21.8890 N   0  0  0  0  0  0  0  0  0  0  0  0
  -23.6540  -32.0570   23.5940 O   0  0  0  0  0  0  0  0  0  0  0  0
  -22.9120  -29.4100   22.2880 C   0  0  0  0  0  0  0  0  0  0  0  0
  -21.5910  -29.1780   22.1780 N   0  0  0  0  0  0  0  0  0  0  0  0
  -23.6260  -28.7910   23.0800 O   0  0  0  0  0  0  0  0  0  0  0  0
  -21.0660  -29.7330   21.5170 H   0  0  0  0  0  0  0  0  0  0  0  0
  -18.2920  -27.7550   22.6810 C   0  0  0  0  0  0  0  0  0  0  0  0
  -20.8350  -28.1680   22.9250 C   0  0  0  0  0  3  0  0  0  0  0  0
  -21.0150  -26.7650   22.2980 C   0  0  0  0  0  2  0  0  0  0  0  0
  -19.9200  -26.4110   21.2860 C   0  0  0  0  0  2  0  0  0  0  0  0
  -18.5420  -26.4460   21.9510 C   0  0  0  0  0  2  0  0  0  0  0  0
  -19.3680  -28.5700   23.1250 C   0  0  0  0  0  0  0  0  0  0  0  0
  -19.0780  -29.7910   23.7710 C   0  0  0  0  0  3  0  0  0  0  0  0
  -17.7460  -30.2000   23.9770 C   0  0  0  0  0  3  0  0  0  0  0  0
  -16.6870  -29.3830   23.5460 C   0  0  0  0  0  3  0  0  0  0  0  0
  -16.9600  -28.1620   22.9050 C   0  0  0  0  0  3  0  0  0  0  0  0
  -26.0020  -32.4950   23.6420 C   0  0  0  0  0  3  0  0  0  0  0  0
  -26.5690  -31.6980   24.8810 C   0  0  1  0  0  0  0  0  0  0  0  0
  -25.5080  -31.3950   25.9660 C   0  0  0  0  0  1  0  0  0  0  0  0
  -27.1820  -30.3500   24.4390 C   0  0  0  0  0  1  0  0  0  0  0  0
  -27.7120  -32.5030   25.5440 C   0  0  0  0  0  1  0  0  0  0  0  0
  -25.6510  -33.8690   24.0410 N   0  0  0  0  0  0  0  0  0  0  0  0
  -25.9400  -34.9710   23.3360 C   0  0  0  0  0  0  0  0  0  0  0  0
  -26.5920  -34.9400   22.2910 O   0  0  0  0  0  0  0  0  0  0  0  0
  -25.0660  -33.9640   24.8580 H   0  0  0  0  0  0  0  0  0  0  0  0
  -24.1510  -36.7320   23.1200 C   0  0  0  0  0  1  0  0  0  0  0  0
  -25.4250  -36.3220   23.8760 C   0  0  0  0  0  3  0  0  0  0  0  0
  -27.5510  -37.2380   24.6990 C   0  0  0  0  0  1  0  0  0  0  0  0
  -26.4240  -37.4120   23.7880 N   0  0  0  0  0  0  0  0  0  0  0  0
  -25.9930  -38.3120   23.9840 H   0  0  0  0  0  0  0  0  0  0  0  0
  -29.5000  -20.4280   19.3030 C   0  0  0  0  0  2  0  0  0  0  0  0
  -30.2030  -18.8930   19.9450 C   0  0  0  0  0  2  0  0  0  0  0  0
  -29.9210  -17.1460   19.5900 C   0  0  0  0  0  2  0  0  0  0  0  0
  -30.8160  -15.6310   19.6660 C   0  0  0  0  0  0  0  0  0  0  0  0
  -30.7780  -13.1530   18.8920 C   0  0  0  0  0  2  0  0  0  0  0  0
  -29.7820  -12.9350   17.7230 C   0  0  0  0  0  2  0  0  0  0  0  0
  -28.3560  -12.6870   18.2500 C   0  0  0  0  0  2  0  0  0  0  0  0
  -27.9770  -13.6800   19.3760 C   0  0  0  0  0  3  0  0  0  0  0  0
  -29.0890  -13.8390   20.4300 C   0  0  0  0  0  2  0  0  0  0  0  0
  -30.2950  -14.3090   19.7300 N   0  0  0  0  0  0  0  0  0  0  0  0
  -32.0290  -15.6380   19.4070 O   0  0  0  0  0  0  0  0  0  0  0  0
  -25.7040  -14.2770   20.3670 C   0  0  0  0  0  0  0  0  0  0  0  0
  -24.6430  -13.5200   20.7750 C   0  0  0  0  0  0  0  0  0  0  0  0
  -25.0450  -12.1570   20.6200 C   0  0  0  0  0  0  0  0  0  0  0  0
  -26.6820  -13.3810   19.9760 N   0  0  0  0  0  0  0  0  0  0  0  0
  -26.3040  -12.0950   20.1970 N   0  0  0  0  0  0  0  0  0  0  0  0
  -24.2810  -10.9140   20.7910 C   0  0  0  0  0  0  0  0  0  0  0  0
  -24.7100   -9.8960   21.6700 C   0  0  0  0  0  3  0  0  0  0  0  0
  -23.9450   -8.7210   21.8320 C   0  0  0  0  0  3  0  0  0  0  0  0
  -22.7340   -8.5570   21.1170 C   0  0  0  0  0  0  0  0  0  0  0  0
  -22.3240   -9.5630   20.2260 C   0  0  0  0  0  3  0  0  0  0  0  0
  -23.0900  -10.7290   20.0610 C   0  0  0  0  0  3  0  0  0  0  0  0
  -21.9410   -7.4370   21.1910 O   0  0  0  0  0  0  0  0  0  0  0  0
  -21.8640   -6.6840   22.3350 C   0  0  0  0  0  0  0  0  0  0  0  0
  -21.4230   -7.2300   23.5590 C   0  0  0  0  0  3  0  0  0  0  0  0
  -21.2930   -6.4040   24.6930 C   0  0  0  0  0  3  0  0  0  0  0  0
  -21.5940   -5.0320   24.6030 C   0  0  0  0  0  0  0  0  0  0  0  0
  -22.0280   -4.4840   23.3830 C   0  0  0  0  0  3  0  0  0  0  0  0
  -22.1590   -5.3080   22.2510 C   0  0  0  0  0  0  0  0  0  0  0  0
  -22.5570   -4.7710   21.0730 F   0  0  0  0  0  0  0  0  0  0  0  0
  -21.4620   -4.2360   25.6900 F   0  0  0  0  0  0  0  0  0  0  0  0
  -23.2940  -14.0320   21.1890 C   0  0  0  0  0  0  0  0  0  0  0  0
  -22.6100  -13.3140   22.0720 N   0  0  0  0  0  0  0  0  0  0  0  0
  -22.8610  -15.1030   20.7650 O   0  0  0  0  0  0  0  0  0  0  0  0
  -22.9760  -12.4470   22.4350 H   0  0  0  0  0  0  0  0  0  0  0  0
  -21.7070  -13.6380   22.3910 H   0  0  0  0  0  0  0  0  0  0  0  0
  -25.9120  -15.6500   20.2660 N   0  0  0  0  0  0  0  0  0  0  0  0
  -25.1890  -16.3250   20.4940 H   0  0  0  0  0  0  0  0  0  0  0  0
  -26.7530  -16.0800   19.9010 H   0  0  0  0  0  0  0  0  0  0  0  0
  1  2  2  0
  1  4  1  0
  2  5  1  0
  3  7  1  0
  4  6  2  0
  5  3  2  0
  5  8  1  0
  6  3  1  0
  6  9  1  0
 10 12  1  0
 10  4  1  0
 11 22  2  0
 12 17  1  0
 13 21  1  0
 13 23  1  0
 14 20  1  0
 14 16  1  0
 15 21  1  0
 16 15  1  0
 17 16  2  0
 18 19  1  0
 18 12  2  0
 19 14  2  0
 20 13  1  0
 21 11  1  0
 23 25  2  0
 24 23  1  0
 26 24  1  0
 27 36  2  0
 27 32  1  0
 28 24  1  0
 28 32  1  0
 29 28  1  0
 30 31  1  0
 30 29  1  0
 31 27  1  0
 32 33  2  0
 33 34  1  0
 35 34  2  0
 36 35  1  0
 37 11  1  0
 37 42  1  0
 37 38  1  0
 38 41  1  1
 38 39  1  0
 40 38  1  0
 42 45  1  0
 43 47  1  0
 43 42  1  0
 44 43  2  0
 47 46  1  0
 49 47  1  0
 49 50  1  0
 49 48  1  0
 51 52  1  0
 51  2  1  0
 53 54  1  0
 53 52  1  0
 54 60  1  0
 55 60  1  0
 56 57  1  0
 56 55  1  0
 58 57  1  0
 58 65  1  0
 58 59  1  0
 60 59  1  0
 61 54  2  0
 62 63  2  0
 63 82  1  0
 64 63  1  0
 64 67  1  0
 65 66  1  0
 65 62  1  0
 66 64  2  0
 67 68  1  0
 68 69  2  0
 70 73  1  0
 70 69  1  0
 71 70  2  0
 72 71  1  0
 72 67  2  0
 73 74  1  0
 74 75  1  0
 75 76  2  0
 77 76  1  0
 77 81  1  0
 78 77  2  0
 79 74  2  0
 79 78  1  0
 80 79  1  0
 82 83  1  0
 83 86  1  0
 83 85  1  0
 84 82  2  0
 87 62  1  0
 87 88  1  0
 89 87  1  0
M  ISO  4   4 101  10 101  53 100  54 100
M  END
>  <TORSDO>  (27) 
F 19

>  <SCORE>  (27) 
-13.107

>  <name>  (27) 
26

>  <ligand_id>  (27) 
26

>  <original_smiles>  (27) 
[H]c1c([H])c([H])c2c(c1[H])C([H])([H])C([H])([H])C([H])([H])C2([H])N([H])C(=O)C1([H])N(C(=O)C([H])(N([H])C(=O)C([H])(N([H])C([H])([H])[H])C([H])([H])[H])C(C([H])([H])[H])(C([H])([H])[H])C([H])([H])[H])C([H])([H])c2c([H])c(Oc3c([H])c(C([H])([H])C([H])([H])C([H])([H])C(=O)N4C([H])([H])C([H])([H])C([H])([H])C([H])(n5nc(-c6c([H])c([H])c(Oc7c([H])c([H])c(F)c([H])c7F)c([H])c6[H])c(C(=O)N([H])[H])c5N([H])[H])C4([H])[H])c(F)c([O-])c3F)c([H])c([H])c2C1([H])[H]

>  <smiles>  (27) 
[H]c1c([H])c([H])c2c(c1[H])C([H])([H])C([H])([H])C([H])([H])C2([H])N([H])C(=O)C1([H])N(C(=O)C([H])(N([H])C(=O)C([H])(N([H])C([H])([H])[H])C([H])([H])[H])C(C([H])([H])[H])(C([H])([H])[H])C([H])([H])[H])C([H])([H])c2c([H])c(Oc3c([H])c(C([H])([H])C([H])([H])C([H])([H])C(=O)N4C([H])([H])C([H])([H])C([H])([H])C([H])(n5nc(-c6c([H])c([H])c(Oc7c([H])c([H])c(F)c([H])c7F)c([H])c6[H])c(C(=O)N([H])[H])c5N([H])[H])C4([H])[H])c(F)c([O-])c3F)c([H])c([H])c2C1([H])[H]

$$$$
27:0:0
     RDKit          3D

 88 97  0  0  1  0  0  0  0  0999 V2000
  -30.2770  -15.8360   20.3070 C   0  0  0  0  0  0  0  0  0  0  0  0
  -30.3860  -13.2580   19.5210 C   0  0  0  0  0  2  0  0  0  0  0  0
  -29.5360  -12.7280   18.3310 C   0  0  0  0  0  2  0  0  0  0  0  0
  -28.1290  -12.3350   18.7910 C   0  0  0  0  0  2  0  0  0  0  0  0
  -27.5700  -13.3630   19.7960 C   0  0  0  0  0  3  0  0  0  0  0  0
  -28.5740  -13.7940   20.8970 C   0  0  0  0  0  2  0  0  0  0  0  0
  -29.7100  -14.4700   20.2100 N   0  0  0  0  0  0  0  0  0  0  0  0
  -31.5140  -15.6470   20.2430 O   0  0  0  0  0  0  0  0  0  0  0  0
  -27.5890  -21.2440   19.2660 C   0  0  0  0  0  2  0  0  0  0  0  0
  -27.4670  -22.7560   19.3920 C   0  0  0  0  0  3  0  0  0  0  0  0
  -28.5150  -20.2770   19.9070 C   0  0  0  0  0  0  0  0  0  0  0  0
  -29.3200  -21.1240   20.7190 C   0  0  0  0  0  0  0  0  0  0  0  0
  -29.1970  -22.7000   20.8470 C   0  0  0  0  0  0  0  0  0  0  0  0
  -28.2270  -23.7360   20.2030 C   0  0  0  0  0  0  0  0  0  0  0  0
  -30.2540  -20.0590   21.4780 C   0  0  0  0  0  3  0  0  0  0  0  0
  -28.6530  -18.4850   19.7990 C   0  0  0  0  0  3  0  0  0  0  0  0
  -30.6610  -18.5000   20.9290 C   0  0  0  0  0  3  0  0  0  0  0  0
  -30.2260  -23.3400   21.7680 C   0  0  0  0  0  1  0  0  0  0  0  0
  -29.7320  -17.3500   20.4310 N   0  0  0  0  0  0  0  0  0  0  0  0
  -25.2020  -13.8580   20.5390 C   0  0  0  0  0  0  0  0  0  0  0  0
  -24.1470  -13.0660   20.8930 C   0  0  0  0  0  0  0  0  0  0  0  0
  -24.6340  -11.7210   20.8730 C   0  0  0  0  0  0  0  0  0  0  0  0
  -26.2590  -12.9990   20.3120 N   0  0  0  0  0  0  0  0  0  0  0  0
  -25.9320  -11.7060   20.5790 N   0  0  0  0  0  0  0  0  0  0  0  0
  -23.9170  -10.4510   21.0580 C   0  0  0  0  0  0  0  0  0  0  0  0
  -24.3480   -9.4850   21.9920 C   0  0  0  0  0  3  0  0  0  0  0  0
  -23.6240   -8.2850   22.1680 C   0  0  0  0  0  3  0  0  0  0  0  0
  -22.4550   -8.0440   21.4080 C   0  0  0  0  0  0  0  0  0  0  0  0
  -22.0420   -9.0000   20.4620 C   0  0  0  0  0  3  0  0  0  0  0  0
  -22.7680  -10.1900   20.2840 C   0  0  0  0  0  3  0  0  0  0  0  0
  -21.7050   -6.8950   21.4920 O   0  0  0  0  0  0  0  0  0  0  0  0
  -21.6590   -6.1470   22.6410 C   0  0  0  0  0  0  0  0  0  0  0  0
  -21.2410   -6.6990   23.8720 C   0  0  0  0  0  3  0  0  0  0  0  0
  -21.1400   -5.8780   25.0130 C   0  0  0  0  0  3  0  0  0  0  0  0
  -21.4500   -4.5070   24.9240 C   0  0  0  0  0  0  0  0  0  0  0  0
  -21.8640   -3.9560   23.6990 C   0  0  0  0  0  3  0  0  0  0  0  0
  -21.9640   -4.7730   22.5600 C   0  0  0  0  0  0  0  0  0  0  0  0
  -22.3400   -4.2330   21.3770 F   0  0  0  0  0  0  0  0  0  0  0  0
  -21.3480   -3.7160   26.0170 F   0  0  0  0  0  0  0  0  0  0  0  0
  -22.7400  -13.5280   21.1330 C   0  0  0  0  0  0  0  0  0  0  0  0
  -22.0090  -12.8380   21.9990 N   0  0  0  0  0  0  0  0  0  0  0  0
  -22.3000  -14.5390   20.5880 O   0  0  0  0  0  0  0  0  0  0  0  0
  -22.3810  -12.0210   22.4610 H   0  0  0  0  0  0  0  0  0  0  0  0
  -21.0640  -13.1300   22.2040 H   0  0  0  0  0  0  0  0  0  0  0  0
  -25.3470  -15.2310   20.3620 N   0  0  0  0  0  0  0  0  0  0  0  0
  -24.5720  -15.8730   20.4790 H   0  0  0  0  0  0  0  0  0  0  0  0
  -26.1930  -15.6870   20.0480 H   0  0  0  0  0  0  0  0  0  0  0  0
  -28.1680  -25.3960   20.2560 O   0  0  0  0  0  0  0  0  0  0  0  0
  -24.6640  -31.8220   23.1390 C   0  0  0  0  0  0  0  0  0  0  0  0
  -27.1800  -26.6290   20.2080 C   0  0  0  0  0  0  0  0  0  0  0  0
  -23.4790  -30.4110   21.5120 C   0  0  0  0  0  3  0  0  0  0  0  0
  -24.9260  -28.7290   20.1240 C   0  0  0  0  0  0  0  0  0  0  0  0
  -26.0620  -30.5180   21.4090 C   0  0  0  0  0  2  0  0  0  0  0  0
  -26.1210  -29.0690   20.7670 C   0  0  0  0  0  0  0  0  0  0  0  0
  -27.2240  -28.0480   20.7780 C   0  0  0  0  0  3  0  0  0  0  0  0
  -25.9530  -26.5270   19.4980 C   0  0  0  0  0  3  0  0  0  0  0  0
  -24.8860  -27.4850   19.4670 C   0  0  0  0  0  3  0  0  0  0  0  0
  -23.7250  -29.6950   20.1520 C   0  0  0  0  0  2  0  0  0  0  0  0
  -24.7610  -30.9540   22.0720 N   0  0  0  0  0  0  0  0  0  0  0  0
  -23.5680  -32.1340   23.6390 O   0  0  0  0  0  0  0  0  0  0  0  0
  -22.7510  -29.4530   22.4940 C   0  0  0  0  0  0  0  0  0  0  0  0
  -21.4150  -29.3220   22.3810 N   0  0  0  0  0  0  0  0  0  0  0  0
  -23.4010  -28.8250   23.3320 O   0  0  0  0  0  0  0  0  0  0  0  0
  -20.9380  -29.8780   21.6840 H   0  0  0  0  0  0  0  0  0  0  0  0
  -18.0130  -28.1590   22.9310 C   0  0  0  0  0  0  0  0  0  0  0  0
  -20.5810  -28.3990   23.1620 C   0  0  0  0  0  3  0  0  0  0  0  0
  -20.6570  -26.9630   22.5910 C   0  0  0  0  0  2  0  0  0  0  0  0
  -19.5400  -26.6530   21.5880 C   0  0  0  0  0  2  0  0  0  0  0  0
  -18.1680  -26.8110   22.2480 C   0  0  0  0  0  2  0  0  0  0  0  0
  -19.1450  -28.9110   23.3470 C   0  0  0  0  0  0  0  0  0  0  0  0
  -18.9430  -30.1690   23.9530 C   0  0  0  0  0  3  0  0  0  0  0  0
  -17.6450  -30.6770   24.1440 C   0  0  0  0  0  3  0  0  0  0  0  0
  -16.5280  -29.9250   23.7410 C   0  0  0  0  0  3  0  0  0  0  0  0
  -16.7140  -28.6670   23.1400 C   0  0  0  0  0  3  0  0  0  0  0  0
  -25.9230  -32.4820   23.7810 C   0  0  0  0  0  3  0  0  0  0  0  0
  -25.5870  -33.8770   24.1320 N   0  0  0  0  0  0  0  0  0  0  0  0
  -25.9120  -34.9570   23.4070 C   0  0  0  0  0  0  0  0  0  0  0  0
  -26.5750  -34.8830   22.3710 O   0  0  0  0  0  0  0  0  0  0  0  0
  -24.9870  -34.0060   24.9340 H   0  0  0  0  0  0  0  0  0  0  0  0
  -24.1690  -36.7590   23.1360 C   0  0  0  0  0  1  0  0  0  0  0  0
  -25.4290  -36.3370   23.9080 C   0  0  0  0  0  3  0  0  0  0  0  0
  -27.5670  -37.2350   24.7200 C   0  0  0  0  0  1  0  0  0  0  0  0
  -26.4560  -37.3960   23.7850 N   0  0  0  0  0  0  0  0  0  0  0  0
  -26.0490  -38.3160   23.9250 H   0  0  0  0  0  0  0  0  0  0  0  0
  -26.4290  -31.7190   25.0690 C   0  0  1  0  0  0  0  0  0  0  0  0
  -25.3280  -31.4860   26.1330 C   0  0  0  0  0  1  0  0  0  0  0  0
  -27.0170  -30.3380   24.7030 C   0  0  0  0  0  1  0  0  0  0  0  0
  -27.5730  -32.5200   25.7350 C   0  0  0  0  0  1  0  0  0  0  0  0
  1 19  1  0
  2  7  1  0
  3  4  1  0
  3  2  1  0
  5  4  1  0
  5 23  1  0
  5  6  1  0
  7  1  1  0
  7  6  1  0
  8  1  2  0
  9 10  1  0
  9 11  1  0
 10 14  2  0
 11 12  1  0
 12 13  2  0
 12 15  1  0
 13 18  1  0
 14 48  1  0
 14 13  1  0
 16 11  2  0
 16 19  1  0
 17 15  2  0
 19 17  1  0
 20 21  2  0
 21 40  1  0
 22 21  1  0
 22 25  1  0
 23 20  1  0
 23 24  1  0
 24 22  2  0
 25 26  1  0
 26 27  2  0
 28 31  1  0
 28 27  1  0
 29 28  2  0
 30 29  1  0
 30 25  2  0
 31 32  1  0
 32 33  1  0
 33 34  2  0
 35 34  1  0
 35 39  1  0
 36 35  2  0
 37 32  2  0
 37 36  1  0
 38 37  1  0
 40 41  1  0
 41 44  1  0
 41 43  1  0
 42 40  2  0
 45 46  1  0
 45 20  1  0
 47 45  1  0
 49 60  2  0
 50 48  1  0
 50 55  1  0
 51 59  1  0
 51 61  1  0
 52 58  1  0
 52 54  1  0
 53 59  1  0
 54 55  2  0
 54 53  1  0
 56 50  2  0
 57 56  1  0
 57 52  2  0
 58 51  1  0
 59 49  1  0
 61 63  2  0
 62 61  1  0
 64 62  1  0
 65 74  2  0
 65 70  1  0
 66 62  1  0
 66 70  1  0
 67 66  1  0
 68 69  1  0
 68 67  1  0
 69 65  1  0
 70 71  2  0
 71 72  1  0
 73 72  2  0
 74 73  1  0
 75 49  1  0
 75 76  1  0
 75 85  1  0
 76 79  1  0
 77 81  1  0
 77 76  1  0
 78 77  2  0
 81 80  1  0
 83 81  1  0
 83 84  1  0
 83 82  1  0
 85 88  1  1
 85 86  1  0
 87 85  1  0
M  ISO  4   1 100  14 101  19 100  48 101
M  END
>  <TORSDO>  (28) 
F 15

>  <SCORE>  (28) 
-16.768

>  <name>  (28) 
27

>  <ligand_id>  (28) 
27

>  <original_smiles>  (28) 
[H]c1c([H])c([H])c2c(c1[H])C([H])([H])C([H])([H])C([H])([H])C2([H])N([H])C(=O)C1([H])N(C(=O)C([H])(N([H])C(=O)C([H])(N([H])C([H])([H])[H])C([H])([H])[H])C(C([H])([H])[H])(C([H])([H])[H])C([H])([H])[H])C([H])([H])c2c([H])c(Oc3c([H])c([H])c4c(c3C([H])([H])[H])C([H])([H])C([H])([H])N(C(=O)N3C([H])([H])C([H])([H])C([H])([H])C([H])(n5nc(-c6c([H])c([H])c(Oc7c([H])c([H])c(F)c([H])c7F)c([H])c6[H])c(C(=O)N([H])[H])c5N([H])[H])C3([H])[H])C4([H])[H])c([H])c([H])c2C1([H])[H]

>  <smiles>  (28) 
[H]c1c([H])c([H])c2c(c1[H])C([H])([H])C([H])([H])C([H])([H])C2([H])N([H])C(=O)C1([H])N(C(=O)C([H])(N([H])C(=O)C([H])(N([H])C([H])([H])[H])C([H])([H])[H])C(C([H])([H])[H])(C([H])([H])[H])C([H])([H])[H])C([H])([H])c2c([H])c(Oc3c([H])c([H])c4c(c3C([H])([H])[H])C([H])([H])C([H])([H])N(C(=O)N3C([H])([H])C([H])([H])C([H])([H])C([H])(n5nc(-c6c([H])c([H])c(Oc7c([H])c([H])c(F)c([H])c7F)c([H])c6[H])c(C(=O)N([H])[H])c5N([H])[H])C3([H])[H])C4([H])[H])c([H])c([H])c2C1([H])[H]

$$$$
28:0:0
     RDKit          3D

 91 99  0  0  1  0  0  0  0  0999 V2000
  -28.8100  -22.9280   17.9730 C   0  0  0  0  0  3  0  0  0  0  0  0
  -28.8370  -23.6670   16.7850 C   0  0  0  0  0  3  0  0  0  0  0  0
  -28.5610  -25.6790   18.0680 C   0  0  0  0  0  3  0  0  0  0  0  0
  -28.6750  -23.4770   19.2830 C   0  0  0  0  0  0  0  0  0  0  0  0
  -28.7370  -25.0520   16.8310 C   0  0  0  0  0  0  0  0  0  0  0  0
  -28.4480  -25.0080   19.3180 C   0  0  0  0  0  0  0  0  0  0  0  0
  -28.7960  -25.8680   15.5550 C   0  0  0  0  0  1  0  0  0  0  0  0
  -28.7650  -22.2780   20.3620 C   0  0  0  0  0  0  0  0  0  0  0  0
  -29.2050  -20.9470   20.0100 N   0  0  0  0  0  0  0  0  0  0  0  0
  -28.4150  -22.5120   21.5190 O   0  0  0  0  0  0  0  0  0  0  0  0
  -29.5250  -20.9090   19.0530 H   0  0  0  0  0  0  0  0  0  0  0  0
  -29.2020  -19.5040   20.6990 C   0  0  0  0  0  3  0  0  0  0  0  0
  -29.9190  -18.0600   20.1050 C   0  0  0  0  0  3  0  0  0  0  0  0
  -29.7090  -16.4680   20.7100 C   0  0  0  0  0  2  0  0  0  0  0  0
  -30.5190  -15.0440   20.3210 C   0  0  0  0  0  0  0  0  0  0  0  0
  -30.4480  -12.6750   19.3710 C   0  0  0  0  0  2  0  0  0  0  0  0
  -29.5250  -12.6310   18.1300 C   0  0  0  0  0  2  0  0  0  0  0  0
  -28.0570  -12.4080   18.5440 C   0  0  0  0  0  2  0  0  0  0  0  0
  -27.6380  -13.3230   19.7240 C   0  0  0  0  0  3  0  0  0  0  0  0
  -28.6830  -13.3320   20.8590 C   0  0  0  0  0  2  0  0  0  0  0  0
  -29.9620  -13.7590   20.2770 N   0  0  0  0  0  0  0  0  0  0  0  0
  -31.7050  -15.1160   19.9760 O   0  0  0  0  0  0  0  0  0  0  0  0
  -25.2460  -13.8900   20.4310 C   0  0  0  0  0  0  0  0  0  0  0  0
  -24.1830  -13.1110   20.7970 C   0  0  0  0  0  0  0  0  0  0  0  0
  -24.6570  -11.7640   20.7890 C   0  0  0  0  0  0  0  0  0  0  0  0
  -26.2980  -13.0170   20.2110 N   0  0  0  0  0  0  0  0  0  0  0  0
  -25.9530  -11.7340   20.4940 N   0  0  0  0  0  0  0  0  0  0  0  0
  -23.9380  -10.4990   20.9860 C   0  0  0  0  0  0  0  0  0  0  0  0
  -24.3610   -9.5480   21.9400 C   0  0  0  0  0  3  0  0  0  0  0  0
  -23.6400   -8.3490   22.1260 C   0  0  0  0  0  3  0  0  0  0  0  0
  -22.4800   -8.0910   21.3560 C   0  0  0  0  0  0  0  0  0  0  0  0
  -22.0760   -9.0310   20.3910 C   0  0  0  0  0  3  0  0  0  0  0  0
  -22.7990  -10.2210   20.2050 C   0  0  0  0  0  3  0  0  0  0  0  0
  -21.7320   -6.9430   21.4490 O   0  0  0  0  0  0  0  0  0  0  0  0
  -21.6690   -6.2160   22.6110 C   0  0  0  0  0  0  0  0  0  0  0  0
  -21.2180   -6.7860   23.8220 C   0  0  0  0  0  3  0  0  0  0  0  0
  -21.1020   -5.9860   24.9760 C   0  0  0  0  0  3  0  0  0  0  0  0
  -21.4290   -4.6180   24.9200 C   0  0  0  0  0  0  0  0  0  0  0  0
  -21.8720   -4.0470   23.7150 C   0  0  0  0  0  3  0  0  0  0  0  0
  -21.9890   -4.8440   22.5620 C   0  0  0  0  0  0  0  0  0  0  0  0
  -22.3970   -4.2860   21.3980 F   0  0  0  0  0  0  0  0  0  0  0  0
  -21.3110   -3.8470   26.0260 F   0  0  0  0  0  0  0  0  0  0  0  0
  -22.7780  -13.5810   21.0400 C   0  0  0  0  0  0  0  0  0  0  0  0
  -22.0420  -12.8900   21.9040 N   0  0  0  0  0  0  0  0  0  0  0  0
  -22.3410  -14.5970   20.5020 O   0  0  0  0  0  0  0  0  0  0  0  0
  -22.4100  -12.0700   22.3630 H   0  0  0  0  0  0  0  0  0  0  0  0
  -21.1000  -13.1870   22.1110 H   0  0  0  0  0  0  0  0  0  0  0  0
  -25.4020  -15.2600   20.2400 N   0  0  0  0  0  0  0  0  0  0  0  0
  -24.6310  -15.9120   20.3460 H   0  0  0  0  0  0  0  0  0  0  0  0
  -26.2560  -15.7040   19.9270 H   0  0  0  0  0  0  0  0  0  0  0  0
  -28.2090  -26.0810   20.2940 O   0  0  0  0  0  0  0  0  0  0  0  0
  -24.6120  -31.8630   23.2220 C   0  0  0  0  0  0  0  0  0  0  0  0
  -27.1890  -27.1200   20.1890 C   0  0  0  0  0  0  0  0  0  0  0  0
  -23.4090  -30.4580   21.5940 C   0  0  0  0  0  3  0  0  0  0  0  0
  -24.8560  -28.8800   20.1640 C   0  0  0  0  0  0  0  0  0  0  0  0
  -25.9640  -30.7220   21.4190 C   0  0  0  0  0  2  0  0  0  0  0  0
  -26.0390  -29.3240   20.7700 C   0  0  0  0  0  0  0  0  0  0  0  0
  -27.2020  -28.4580   20.7720 C   0  0  0  0  0  3  0  0  0  0  0  0
  -25.9710  -26.7840   19.5530 C   0  0  0  0  0  3  0  0  0  0  0  0
  -24.8370  -27.6250   19.5390 C   0  0  0  0  0  3  0  0  0  0  0  0
  -23.6260  -29.7760   20.2170 C   0  0  0  0  0  2  0  0  0  0  0  0
  -24.6820  -31.0360   22.1330 N   0  0  0  0  0  0  0  0  0  0  0  0
  -23.5270  -32.1470   23.7530 O   0  0  0  0  0  0  0  0  0  0  0  0
  -22.7340  -29.4550   22.5650 C   0  0  0  0  0  0  0  0  0  0  0  0
  -21.4060  -29.2800   22.4430 N   0  0  0  0  0  0  0  0  0  0  0  0
  -23.4100  -28.8370   23.3910 O   0  0  0  0  0  0  0  0  0  0  0  0
  -20.9180  -29.8280   21.7490 H   0  0  0  0  0  0  0  0  0  0  0  0
  -18.0330  -28.0550   22.9490 C   0  0  0  0  0  0  0  0  0  0  0  0
  -20.5900  -28.3440   23.2210 C   0  0  0  0  0  3  0  0  0  0  0  0
  -20.7050  -26.9060   22.6640 C   0  0  0  0  0  2  0  0  0  0  0  0
  -19.6090  -26.5630   21.6490 C   0  0  0  0  0  2  0  0  0  0  0  0
  -18.2250  -26.7000   22.2870 C   0  0  0  0  0  2  0  0  0  0  0  0
  -19.1430  -28.8330   23.3740 C   0  0  0  0  0  0  0  0  0  0  0  0
  -18.9080  -30.0970   23.9560 C   0  0  0  0  0  3  0  0  0  0  0  0
  -17.5970  -30.5850   24.1160 C   0  0  0  0  0  3  0  0  0  0  0  0
  -16.5030  -29.8050   23.7050 C   0  0  0  0  0  3  0  0  0  0  0  0
  -16.7210  -28.5410   23.1280 C   0  0  0  0  0  3  0  0  0  0  0  0
  -25.8900  -32.5060   23.8420 C   0  0  0  0  0  3  0  0  0  0  0  0
  -26.4060  -31.7440   25.1250 C   0  0  1  0  0  0  0  0  0  0  0  0
  -25.3120  -31.5170   26.1960 C   0  0  0  0  0  1  0  0  0  0  0  0
  -26.9870  -30.3620   24.7480 C   0  0  0  0  0  1  0  0  0  0  0  0
  -27.5590  -32.5400   25.7800 C   0  0  0  0  0  1  0  0  0  0  0  0
  -25.5740  -33.9050   24.1710 N   0  0  0  0  0  0  0  0  0  0  0  0
  -25.9060  -34.9620   23.4180 C   0  0  0  0  0  0  0  0  0  0  0  0
  -26.5760  -34.8610   22.3880 O   0  0  0  0  0  0  0  0  0  0  0  0
  -24.9760  -34.0560   24.9720 H   0  0  0  0  0  0  0  0  0  0  0  0
  -24.1820  -36.7630   23.0680 C   0  0  0  0  0  1  0  0  0  0  0  0
  -25.4210  -36.3510   23.8800 C   0  0  0  0  0  3  0  0  0  0  0  0
  -27.5540  -37.2320   24.7220 C   0  0  0  0  0  1  0  0  0  0  0  0
  -26.4560  -37.4030   23.7740 N   0  0  0  0  0  0  0  0  0  0  0  0
  -26.0510  -38.3230   23.9220 H   0  0  0  0  0  0  0  0  0  0  0  0
  1  4  1  0
  2  5  1  0
  2  1  2  0
  3  6  1  0
  4  6  2  0
  4  8  1  0
  5  3  2  0
  6 51  1  0
  7  5  1  0
  8 10  2  0
  9  8  1  0
  9 12  1  0
 11  9  1  0
 13 12  2  0
 13 14  1  0
 15 14  1  0
 16 21  1  0
 17 18  1  0
 17 16  1  0
 19 18  1  0
 19 26  1  0
 19 20  1  0
 21 15  1  0
 21 20  1  0
 22 15  2  0
 23 24  2  0
 24 43  1  0
 25 24  1  0
 25 28  1  0
 26 23  1  0
 26 27  1  0
 27 25  2  0
 28 29  1  0
 29 30  2  0
 31 34  1  0
 31 30  1  0
 32 31  2  0
 33 32  1  0
 33 28  2  0
 34 35  1  0
 35 36  1  0
 36 37  2  0
 38 37  1  0
 38 42  1  0
 39 38  2  0
 40 35  2  0
 40 39  1  0
 41 40  1  0
 43 44  1  0
 44 47  1  0
 44 46  1  0
 45 43  2  0
 48 49  1  0
 48 23  1  0
 50 48  1  0
 52 63  2  0
 53 51  1  0
 53 58  1  0
 54 62  1  0
 54 64  1  0
 55 61  1  0
 55 57  1  0
 56 62  1  0
 57 58  2  0
 57 56  1  0
 59 53  2  0
 60 59  1  0
 60 55  2  0
 61 54  1  0
 62 52  1  0
 64 66  2  0
 65 64  1  0
 67 65  1  0
 68 77  2  0
 68 73  1  0
 69 65  1  0
 69 73  1  0
 70 69  1  0
 71 72  1  0
 71 70  1  0
 72 68  1  0
 73 74  2  0
 74 75  1  0
 76 75  2  0
 77 76  1  0
 78 52  1  0
 78 83  1  0
 78 79  1  0
 79 82  1  1
 79 80  1  0
 81 79  1  0
 83 86  1  0
 84 88  1  0
 84 83  1  0
 85 84  2  0
 88 87  1  0
 90 88  1  0
 90 91  1  0
 90 89  1  0
M  ISO  4   6 101  14 100  15 100  51 101
M  END
>  <TORSDO>  (29) 
F 20

>  <SCORE>  (29) 
-14.808

>  <name>  (29) 
28

>  <ligand_id>  (29) 
28

>  <original_smiles>  (29) 
[H]c1c([H])c([H])c2c(c1[H])C([H])([H])C([H])([H])C([H])([H])C2([H])N([H])C(=O)C1([H])N(C(=O)C([H])(N([H])C(=O)C([H])(N([H])C([H])([H])[H])C([H])([H])[H])C(C([H])([H])[H])(C([H])([H])[H])C([H])([H])[H])C([H])([H])c2c([H])c(Oc3c([H])c(C([H])([H])[H])c([H])c([H])c3C(=O)N([H])C([H])([H])C([H])([H])C([H])([H])C(=O)N3C([H])([H])C([H])([H])C([H])([H])C([H])(n4nc(-c5c([H])c([H])c(Oc6c([H])c([H])c(F)c([H])c6F)c([H])c5[H])c(C(=O)N([H])[H])c4N([H])[H])C3([H])[H])c([H])c([H])c2C1([H])[H]

>  <smiles>  (29) 
[H]c1c([H])c([H])c2c(c1[H])C([H])([H])C([H])([H])C([H])([H])C2([H])N([H])C(=O)C1([H])N(C(=O)C([H])(N([H])C(=O)C([H])(N([H])C([H])([H])[H])C([H])([H])[H])C(C([H])([H])[H])(C([H])([H])[H])C([H])([H])[H])C([H])([H])c2c([H])c(Oc3c([H])c(C([H])([H])[H])c([H])c([H])c3C(=O)N([H])C([H])([H])C([H])([H])C([H])([H])C(=O)N3C([H])([H])C([H])([H])C([H])([H])C([H])(n4nc(-c5c([H])c([H])c(Oc6c([H])c([H])c(F)c([H])c6F)c([H])c5[H])c(C(=O)N([H])[H])c4N([H])[H])C3([H])[H])c([H])c([H])c2C1([H])[H]

$$$$
29:0:0
     RDKit          3D

 92101  0  0  1  0  0  0  0  0999 V2000
  -28.7970  -22.2200   18.6560 C   0  0  0  0  0  3  0  0  0  0  0  0
  -28.4800  -23.5660   20.6670 C   0  0  0  0  0  3  0  0  0  0  0  0
  -28.6950  -23.4340   17.9400 C   0  0  0  0  0  0  0  0  0  0  0  0
  -28.4740  -24.6840   18.5380 C   0  0  0  0  0  0  0  0  0  0  0  0
  -28.7320  -22.2080   20.0650 C   0  0  0  0  0  0  0  0  0  0  0  0
  -28.3190  -24.8670   19.9340 C   0  0  0  0  0  0  0  0  0  0  0  0
  -28.9200  -23.5690   16.4550 C   0  0  0  0  0  2  0  0  0  0  0  0
  -28.5460  -25.7820   17.5020 C   0  0  0  0  0  2  0  0  0  0  0  0
  -29.0730  -25.0870   16.2300 C   0  0  0  0  0  2  0  0  0  0  0  0
  -28.2580  -26.2570   20.4410 O   0  0  0  0  0  0  0  0  0  0  0  0
  -24.5790  -31.9960   23.2840 C   0  0  0  0  0  0  0  0  0  0  0  0
  -27.1840  -27.2260   20.3400 C   0  0  0  0  0  0  0  0  0  0  0  0
  -23.3880  -30.5660   21.6650 C   0  0  0  0  0  3  0  0  0  0  0  0
  -24.8450  -28.9660   20.2760 C   0  0  0  0  0  0  0  0  0  0  0  0
  -25.9410  -30.8380   21.5010 C   0  0  0  0  0  2  0  0  0  0  0  0
  -26.0220  -29.4300   20.8760 C   0  0  0  0  0  0  0  0  0  0  0  0
  -27.1890  -28.5750   20.8900 C   0  0  0  0  0  3  0  0  0  0  0  0
  -25.9640  -26.8540   19.7320 C   0  0  0  0  0  3  0  0  0  0  0  0
  -24.8280  -27.6910   19.6920 C   0  0  0  0  0  3  0  0  0  0  0  0
  -23.6180  -29.8630   20.3000 C   0  0  0  0  0  2  0  0  0  0  0  0
  -24.6560  -31.1570   22.2050 N   0  0  0  0  0  0  0  0  0  0  0  0
  -23.4900  -32.2840   23.8050 O   0  0  0  0  0  0  0  0  0  0  0  0
  -22.7090  -29.5750   22.6450 C   0  0  0  0  0  0  0  0  0  0  0  0
  -21.3930  -29.3470   22.4790 N   0  0  0  0  0  0  0  0  0  0  0  0
  -23.3710  -29.0120   23.5190 O   0  0  0  0  0  0  0  0  0  0  0  0
  -20.9120  -29.8610   21.7540 H   0  0  0  0  0  0  0  0  0  0  0  0
  -18.0610  -27.9800   22.8600 C   0  0  0  0  0  0  0  0  0  0  0  0
  -20.5810  -28.4100   23.2590 C   0  0  0  0  0  3  0  0  0  0  0  0
  -20.7960  -26.9530   22.7830 C   0  0  0  0  0  2  0  0  0  0  0  0
  -19.7790  -26.5060   21.7270 C   0  0  0  0  0  2  0  0  0  0  0  0
  -18.3550  -26.6050   22.2810 C   0  0  0  0  0  2  0  0  0  0  0  0
  -19.1070  -28.8320   23.3060 C   0  0  0  0  0  0  0  0  0  0  0  0
  -18.7820  -30.1110   23.8070 C   0  0  0  0  0  3  0  0  0  0  0  0
  -17.4430  -30.5410   23.8690 C   0  0  0  0  0  3  0  0  0  0  0  0
  -16.4100  -29.6890   23.4400 C   0  0  0  0  0  3  0  0  0  0  0  0
  -16.7200  -28.4100   22.9420 C   0  0  0  0  0  3  0  0  0  0  0  0
  -25.8510  -32.6510   23.9010 C   0  0  0  0  0  3  0  0  0  0  0  0
  -26.3540  -31.9180   25.2070 C   0  0  1  0  0  0  0  0  0  0  0  0
  -25.2450  -31.6970   26.2610 C   0  0  0  0  0  1  0  0  0  0  0  0
  -26.9590  -30.5380   24.8620 C   0  0  0  0  0  1  0  0  0  0  0  0
  -27.4850  -32.7400   25.8680 C   0  0  0  0  0  1  0  0  0  0  0  0
  -25.5350  -34.0570   24.1970 N   0  0  0  0  0  0  0  0  0  0  0  0
  -25.8810  -35.0970   23.4280 C   0  0  0  0  0  0  0  0  0  0  0  0
  -26.5640  -34.9730   22.4080 O   0  0  0  0  0  0  0  0  0  0  0  0
  -24.9300  -34.2270   24.9860 H   0  0  0  0  0  0  0  0  0  0  0  0
  -24.1750  -36.9020   23.0090 C   0  0  0  0  0  1  0  0  0  0  0  0
  -25.3920  -36.4950   23.8560 C   0  0  0  0  0  3  0  0  0  0  0  0
  -27.5010  -37.3870   24.7430 C   0  0  0  0  0  1  0  0  0  0  0  0
  -26.4320  -37.5420   23.7590 N   0  0  0  0  0  0  0  0  0  0  0  0
  -26.0250  -38.4640   23.8820 H   0  0  0  0  0  0  0  0  0  0  0  0
  -29.1080  -20.7710   20.8170 C   0  0  0  0  0  2  0  0  0  0  0  0
  -29.0070  -19.1710   20.2190 C   0  0  0  0  0  2  0  0  0  0  0  0
  -31.4030  -18.1500   20.1470 C   0  0  0  0  0  1  0  0  0  0  0  0
  -29.9910  -17.8560   20.6830 C   0  0  0  0  0  3  0  0  0  0  0  0
  -30.4290  -15.0980   20.3500 C   0  0  0  0  0  0  0  0  0  0  0  0
  -30.3170  -12.7660   19.3490 C   0  0  0  0  0  2  0  0  0  0  0  0
  -29.3710  -12.7310   18.1270 C   0  0  0  0  0  2  0  0  0  0  0  0
  -27.9130  -12.4970   18.5650 C   0  0  0  0  0  2  0  0  0  0  0  0
  -27.5060  -13.3750   19.7790 C   0  0  0  0  0  3  0  0  0  0  0  0
  -28.5790  -13.3880   20.8860 C   0  0  0  0  0  2  0  0  0  0  0  0
  -29.8280  -13.8410   20.2610 N   0  0  0  0  0  0  0  0  0  0  0  0
  -31.6390  -15.1380   20.1140 O   0  0  0  0  0  0  0  0  0  0  0  0
  -29.6580  -16.2990   20.4970 N   0  0  0  0  0  0  0  0  0  0  0  0
  -28.6730  -16.0970   20.5850 H   0  0  0  0  0  0  0  0  0  0  0  0
  -25.1230  -13.8800   20.5590 C   0  0  0  0  0  0  0  0  0  0  0  0
  -24.0810  -13.0750   20.9240 C   0  0  0  0  0  0  0  0  0  0  0  0
  -24.5760  -11.7350   20.8610 C   0  0  0  0  0  0  0  0  0  0  0  0
  -26.1830  -13.0310   20.2890 N   0  0  0  0  0  0  0  0  0  0  0  0
  -25.8640  -11.7340   20.5380 N   0  0  0  0  0  0  0  0  0  0  0  0
  -23.8780  -10.4540   21.0330 C   0  0  0  0  0  0  0  0  0  0  0  0
  -24.3110   -9.4980   21.9780 C   0  0  0  0  0  3  0  0  0  0  0  0
  -23.6110   -8.2830   22.1390 C   0  0  0  0  0  3  0  0  0  0  0  0
  -22.4620   -8.0150   21.3570 C   0  0  0  0  0  0  0  0  0  0  0  0
  -22.0470   -8.9600   20.4020 C   0  0  0  0  0  3  0  0  0  0  0  0
  -22.7480  -10.1670   20.2390 C   0  0  0  0  0  3  0  0  0  0  0  0
  -21.7360   -6.8510   21.4270 O   0  0  0  0  0  0  0  0  0  0  0  0
  -21.6560   -6.1190   22.5840 C   0  0  0  0  0  0  0  0  0  0  0  0
  -21.1080   -6.6550   23.7700 C   0  0  0  0  0  3  0  0  0  0  0  0
  -20.9860   -5.8460   24.9180 C   0  0  0  0  0  3  0  0  0  0  0  0
  -21.3980   -4.5020   24.8800 C   0  0  0  0  0  0  0  0  0  0  0  0
  -21.9370   -3.9640   23.6980 C   0  0  0  0  0  3  0  0  0  0  0  0
  -22.0640   -4.7700   22.5530 C   0  0  0  0  0  0  0  0  0  0  0  0
  -22.5650   -4.2410   21.4110 F   0  0  0  0  0  0  0  0  0  0  0  0
  -21.2720   -3.7230   25.9800 F   0  0  0  0  0  0  0  0  0  0  0  0
  -22.6760  -13.5160   21.2130 C   0  0  0  0  0  0  0  0  0  0  0  0
  -21.9700  -12.7870   22.0700 N   0  0  0  0  0  0  0  0  0  0  0  0
  -22.2140  -14.5400   20.7150 O   0  0  0  0  0  0  0  0  0  0  0  0
  -22.3580  -11.9610   22.5010 H   0  0  0  0  0  0  0  0  0  0  0  0
  -21.0260  -13.0610   22.3030 H   0  0  0  0  0  0  0  0  0  0  0  0
  -25.2510  -15.2580   20.4060 N   0  0  0  0  0  0  0  0  0  0  0  0
  -24.4650  -15.8830   20.5520 H   0  0  0  0  0  0  0  0  0  0  0  0
  -26.0630  -15.7320   20.0350 H   0  0  0  0  0  0  0  0  0  0  0  0
  1  5  1  0
  3  4  1  0
  3  1  2  0
  4  6  2  0
  5  2  2  0
  5 51  1  0
  6 10  1  0
  6  2  1  0
  7  3  1  0
  8  4  1  0
  9  7  1  0
  9  8  1  0
 11 22  2  0
 12 10  1  0
 12 17  1  0
 13 21  1  0
 13 23  1  0
 14 20  1  0
 14 16  1  0
 15 21  1  0
 16 17  2  0
 16 15  1  0
 18 12  2  0
 19 18  1  0
 19 14  2  0
 20 13  1  0
 21 11  1  0
 23 25  2  0
 24 23  1  0
 26 24  1  0
 27 36  2  0
 27 32  1  0
 28 24  1  0
 28 32  1  0
 29 28  1  0
 30 31  1  0
 30 29  1  0
 31 27  1  0
 32 33  2  0
 33 34  1  0
 35 34  2  0
 36 35  1  0
 37 11  1  0
 37 42  1  0
 37 38  1  0
 38 41  1  1
 38 39  1  0
 40 38  1  0
 42 45  1  0
 43 47  1  0
 43 42  1  0
 44 43  2  0
 47 46  1  0
 49 47  1  0
 49 50  1  0
 49 48  1  0
 52 54  1  0
 52 51  1  0
 54 53  1  0
 55 63  1  0
 56 61  1  0
 57 58  1  0
 57 56  1  0
 59 58  1  0
 59 68  1  0
 59 60  1  0
 61 55  1  0
 61 60  1  0
 62 55  2  0
 63 64  1  0
 63 54  1  0
 65 66  2  0
 66 85  1  0
 67 66  1  0
 67 70  1  0
 68 69  1  0
 68 65  1  0
 69 67  2  0
 70 71  1  0
 71 72  2  0
 73 76  1  0
 73 72  1  0
 74 73  2  0
 75 74  1  0
 75 70  2  0
 76 77  1  0
 77 78  1  0
 78 79  2  0
 80 79  1  0
 80 84  1  0
 81 80  2  0
 82 77  2  0
 82 81  1  0
 83 82  1  0
 85 86  1  0
 86 89  1  0
 86 88  1  0
 87 85  2  0
 90 91  1  0
 90 65  1  0
 92 90  1  0
M  ISO  4   6 101  10 101  55 100  63 100
M  END
>  <TORSDO>  (30) 
F 19

>  <SCORE>  (30) 
-15.111

>  <name>  (30) 
29

>  <ligand_id>  (30) 
29

>  <original_smiles>  (30) 
[H]c1c([H])c([H])c2c(c1[H])C([H])([H])C([H])([H])C([H])([H])C2([H])N([H])C(=O)C1([H])N(C(=O)C([H])(N([H])C(=O)C([H])(N([H])C([H])([H])[H])C([H])([H])[H])C(C([H])([H])[H])(C([H])([H])[H])C([H])([H])[H])C([H])([H])c2c([H])c(Oc3c([H])c(C([H])([H])C([H])([H])C([H])(N([H])C(=O)N4C([H])([H])C([H])([H])C([H])([H])C([H])(n5nc(-c6c([H])c([H])c(Oc7c([H])c([H])c(F)c([H])c7F)c([H])c6[H])c(C(=O)N([H])[H])c5N([H])[H])C4([H])[H])C([H])([H])[H])c([H])c4c3C([H])([H])C([H])([H])C4([H])[H])c([H])c([H])c2C1([H])[H]

>  <smiles>  (30) 
[H]c1c([H])c([H])c2c(c1[H])C([H])([H])C([H])([H])C([H])([H])C2([H])N([H])C(=O)C1([H])N(C(=O)C([H])(N([H])C(=O)C([H])(N([H])C([H])([H])[H])C([H])([H])[H])C(C([H])([H])[H])(C([H])([H])[H])C([H])([H])[H])C([H])([H])c2c([H])c(Oc3c([H])c(C([H])([H])C([H])([H])C([H])(N([H])C(=O)N4C([H])([H])C([H])([H])C([H])([H])C([H])(n5nc(-c6c([H])c([H])c(Oc7c([H])c([H])c(F)c([H])c7F)c([H])c6[H])c(C(=O)N([H])[H])c5N([H])[H])C4([H])[H])C([H])([H])[H])c([H])c4c3C([H])([H])C([H])([H])C4([H])[H])c([H])c([H])c2C1([H])[H]

$$$$
30:0:0
     RDKit          3D

 88 96  0  0  1  0  0  0  0  0999 V2000
  -28.1790  -22.0250   19.1990 C   0  0  0  0  0  3  0  0  0  0  0  0
  -29.5560  -22.1930   21.0300 C   0  0  0  0  0  3  0  0  0  0  0  0
  -27.9480  -23.4940   19.2190 C   0  0  0  0  0  3  0  0  0  0  0  0
  -29.3230  -23.6630   21.0510 C   0  0  0  0  0  3  0  0  0  0  0  0
  -29.0210  -21.2240   20.0850 C   0  0  0  0  0  0  0  0  0  0  0  0
  -28.4920  -24.4650   20.1580 C   0  0  0  0  0  0  0  0  0  0  0  0
  -28.4480  -25.9930   20.1300 O   0  0  0  0  0  0  0  0  0  0  0  0
  -24.7190  -31.8020   23.0870 C   0  0  0  0  0  0  0  0  0  0  0  0
  -27.3690  -27.0000   20.0990 C   0  0  0  0  0  0  0  0  0  0  0  0
  -23.5580  -30.4000   21.4280 C   0  0  0  0  0  3  0  0  0  0  0  0
  -25.0410  -28.8170   20.0200 C   0  0  0  0  0  0  0  0  0  0  0  0
  -26.1190  -30.6520   21.3130 C   0  0  0  0  0  2  0  0  0  0  0  0
  -26.2100  -29.2470   20.6590 C   0  0  0  0  0  0  0  0  0  0  0  0
  -27.3650  -28.3550   20.6810 C   0  0  0  0  0  3  0  0  0  0  0  0
  -26.1720  -26.7070   19.4130 C   0  0  0  0  0  3  0  0  0  0  0  0
  -25.0430  -27.5660   19.3790 C   0  0  0  0  0  3  0  0  0  0  0  0
  -23.8110  -29.7220   20.0510 C   0  0  0  0  0  2  0  0  0  0  0  0
  -24.8190  -30.9790   21.9970 N   0  0  0  0  0  0  0  0  0  0  0  0
  -23.6210  -32.0750   23.5990 O   0  0  0  0  0  0  0  0  0  0  0  0
  -22.8710  -29.3870   22.3810 C   0  0  0  0  0  0  0  0  0  0  0  0
  -21.5390  -29.2380   22.2690 N   0  0  0  0  0  0  0  0  0  0  0  0
  -23.5410  -28.7390   23.1870 O   0  0  0  0  0  0  0  0  0  0  0  0
  -21.0510  -29.8130   21.5950 H   0  0  0  0  0  0  0  0  0  0  0  0
  -18.1460  -28.0820   22.8160 C   0  0  0  0  0  0  0  0  0  0  0  0
  -20.7150  -28.2930   23.0310 C   0  0  0  0  0  3  0  0  0  0  0  0
  -20.7780  -26.8780   22.4140 C   0  0  0  0  0  2  0  0  0  0  0  0
  -19.6490  -26.6040   21.4160 C   0  0  0  0  0  2  0  0  0  0  0  0
  -18.2840  -26.7520   22.0940 C   0  0  0  0  0  2  0  0  0  0  0  0
  -19.2870  -28.8140   23.2410 C   0  0  0  0  0  0  0  0  0  0  0  0
  -19.1000  -30.0600   23.8790 C   0  0  0  0  0  3  0  0  0  0  0  0
  -17.8070  -30.5720   24.0940 C   0  0  0  0  0  3  0  0  0  0  0  0
  -16.6810  -29.8370   23.6820 C   0  0  0  0  0  3  0  0  0  0  0  0
  -16.8520  -28.5940   23.0480 C   0  0  0  0  0  3  0  0  0  0  0  0
  -25.9770  -32.4540   23.7380 C   0  0  0  0  0  3  0  0  0  0  0  0
  -26.4980  -31.6700   25.0060 C   0  0  1  0  0  0  0  0  0  0  0  0
  -25.4010  -31.3930   26.0610 C   0  0  0  0  0  1  0  0  0  0  0  0
  -27.1130  -30.3100   24.6030 C   0  0  0  0  0  1  0  0  0  0  0  0
  -27.6280  -32.4750   25.6920 C   0  0  0  0  0  1  0  0  0  0  0  0
  -25.6310  -33.8370   24.1040 N   0  0  0  0  0  0  0  0  0  0  0  0
  -25.9310  -34.9210   23.3760 C   0  0  0  0  0  0  0  0  0  0  0  0
  -26.5880  -34.8630   22.3340 O   0  0  0  0  0  0  0  0  0  0  0  0
  -25.0430  -33.9540   24.9160 H   0  0  0  0  0  0  0  0  0  0  0  0
  -24.1550  -36.6880   23.1040 C   0  0  0  0  0  1  0  0  0  0  0  0
  -25.4200  -36.2870   23.8820 C   0  0  0  0  0  3  0  0  0  0  0  0
  -27.5450  -37.2060   24.7030 C   0  0  0  0  0  1  0  0  0  0  0  0
  -26.4260  -37.3670   23.7790 N   0  0  0  0  0  0  0  0  0  0  0  0
  -26.0000  -38.2750   23.9520 H   0  0  0  0  0  0  0  0  0  0  0  0
  -29.0370  -19.4860   20.1840 C   0  0  0  0  0  3  0  0  0  0  0  0
  -30.1610  -18.1360   19.8720 C   0  0  0  0  0  3  0  0  0  0  0  0
  -30.6900  -15.2710   19.7120 C   0  0  0  0  0  0  0  0  0  0  0  0
  -30.5350  -12.8970   18.6700 C   0  0  0  0  0  2  0  0  0  0  0  0
  -29.4550  -12.8100   17.5590 C   0  0  0  0  0  2  0  0  0  0  0  0
  -28.0590  -12.5210   18.1480 C   0  0  0  0  0  2  0  0  0  0  0  0
  -27.7870  -13.3740   19.4090 C   0  0  0  0  0  3  0  0  0  0  0  0
  -28.9730  -13.3560   20.3860 C   0  0  0  0  0  2  0  0  0  0  0  0
  -30.1250  -13.9550   19.6700 N   0  0  0  0  0  0  0  0  0  0  0  0
  -31.7910  -15.3350   19.1430 O   0  0  0  0  0  0  0  0  0  0  0  0
  -30.0170  -16.5080   20.2060 N   0  0  0  0  0  0  0  0  0  0  0  0
  -25.5610  -13.8840   20.5520 C   0  0  0  0  0  0  0  0  0  0  0  0
  -24.5450  -13.0860   20.9930 C   0  0  0  0  0  0  0  0  0  0  0  0
  -24.9720  -11.7420   20.7660 C   0  0  0  0  0  0  0  0  0  0  0  0
  -26.5330  -13.0260   20.0650 N   0  0  0  0  0  0  0  0  0  0  0  0
  -26.2010  -11.7230   20.2610 N   0  0  0  0  0  0  0  0  0  0  0  0
  -24.2510  -10.4730   20.9430 C   0  0  0  0  0  0  0  0  0  0  0  0
  -24.6930   -9.4890   21.8560 C   0  0  0  0  0  3  0  0  0  0  0  0
  -23.9640   -8.2910   22.0220 C   0  0  0  0  0  3  0  0  0  0  0  0
  -22.7830   -8.0670   21.2760 C   0  0  0  0  0  0  0  0  0  0  0  0
  -22.3610   -9.0420   20.3520 C   0  0  0  0  0  3  0  0  0  0  0  0
  -23.0900  -10.2310   20.1830 C   0  0  0  0  0  3  0  0  0  0  0  0
  -22.0290   -6.9200   21.3520 O   0  0  0  0  0  0  0  0  0  0  0  0
  -21.8620   -6.2470   22.5370 C   0  0  0  0  0  0  0  0  0  0  0  0
  -21.3030   -6.8690   23.6740 C   0  0  0  0  0  3  0  0  0  0  0  0
  -21.0840   -6.1230   24.8490 C   0  0  0  0  0  3  0  0  0  0  0  0
  -21.4140   -4.7550   24.8850 C   0  0  0  0  0  0  0  0  0  0  0  0
  -21.9670   -4.1330   23.7530 C   0  0  0  0  0  3  0  0  0  0  0  0
  -22.1880   -4.8750   22.5800 C   0  0  0  0  0  0  0  0  0  0  0  0
  -22.7020   -4.2670   21.4860 F   0  0  0  0  0  0  0  0  0  0  0  0
  -21.1950   -4.0350   26.0110 F   0  0  0  0  0  0  0  0  0  0  0  0
  -23.2120  -13.5500   21.5090 C   0  0  0  0  0  0  0  0  0  0  0  0
  -22.6160  -12.8060   22.4310 N   0  0  0  0  0  0  0  0  0  0  0  0
  -22.7170  -14.6090   21.1290 O   0  0  0  0  0  0  0  0  0  0  0  0
  -23.0330  -11.9510   22.7670 H   0  0  0  0  0  0  0  0  0  0  0  0
  -21.7320  -13.1050   22.8220 H   0  0  0  0  0  0  0  0  0  0  0  0
  -25.7350  -15.2640   20.5050 N   0  0  0  0  0  0  0  0  0  0  0  0
  -25.0410  -15.9020   20.8770 H   0  0  0  0  0  0  0  0  0  0  0  0
  -26.5560  -15.7300   20.1400 H   0  0  0  0  0  0  0  0  0  0  0  0
  -30.0550  -17.1780   22.7100 C   0  0  0  0  0  1  0  0  0  0  0  0
  -29.4610  -16.3250   21.5670 C   0  0  0  0  0  2  0  0  0  0  0  0
  1  3  2  0
  1  5  1  0
  2  4  1  0
  3  6  1  0
  5 48  1  0
  5  2  2  0
  6  4  2  0
  7  6  1  0
  8 19  2  0
  9  7  1  0
  9 14  1  0
 10 18  1  0
 10 20  1  0
 11 17  1  0
 11 13  1  0
 12 18  1  0
 13 14  2  0
 13 12  1  0
 15  9  2  0
 16 15  1  0
 16 11  2  0
 17 10  1  0
 18  8  1  0
 20 22  2  0
 21 20  1  0
 23 21  1  0
 24 33  2  0
 24 29  1  0
 25 21  1  0
 25 29  1  0
 26 25  1  0
 27 28  1  0
 27 26  1  0
 28 24  1  0
 29 30  2  0
 30 31  1  0
 32 31  2  0
 33 32  1  0
 34  8  1  0
 34 39  1  0
 34 35  1  0
 35 38  1  1
 35 36  1  0
 37 35  1  0
 39 42  1  0
 40 44  1  0
 40 39  1  0
 41 40  2  0
 44 43  1  0
 46 44  1  0
 46 47  1  0
 46 45  1  0
 49 48  2  0
 49 58  1  0
 50 58  1  0
 51 56  1  0
 52 53  1  0
 52 51  1  0
 54 53  1  0
 54 62  1  0
 54 55  1  0
 56 50  1  0
 56 55  1  0
 57 50  2  0
 58 88  1  0
 59 60  2  0
 60 79  1  0
 61 64  1  0
 61 60  1  0
 62 63  1  0
 62 59  1  0
 63 61  2  0
 64 65  1  0
 65 66  2  0
 67 70  1  0
 67 66  1  0
 68 67  2  0
 69 68  1  0
 69 64  2  0
 70 71  1  0
 71 76  2  0
 71 72  1  0
 72 73  2  0
 73 74  1  0
 74 78  1  0
 75 74  2  0
 76 75  1  0
 77 76  1  0
 79 80  1  0
 80 82  1  0
 80 83  1  0
 81 79  2  0
 84 59  1  0
 84 85  1  0
 86 84  1  0
 88 87  1  0
M  ISO  4   6 101   7 101  50 100  58 100
M  END
>  <TORSDO>  (31) 
F 19

>  <SCORE>  (31) 
-13.406

>  <name>  (31) 
30

>  <ligand_id>  (31) 
30

>  <original_smiles>  (31) 
[H]c1c([H])c([H])c2c(c1[H])C([H])([H])C([H])([H])C([H])([H])C2([H])N([H])C(=O)C1([H])N(C(=O)C([H])(N([H])C(=O)C([H])(N([H])C([H])([H])[H])C([H])([H])[H])C(C([H])([H])[H])(C([H])([H])[H])C([H])([H])[H])C([H])([H])c2c([H])c(Oc3c([H])c([H])c(C([H])([H])C([H])([H])N(C(=O)N4C([H])([H])C([H])([H])C([H])([H])C([H])(n5nc(-c6c([H])c([H])c(Oc7c([H])c([H])c(F)c([H])c7F)c([H])c6[H])c(C(=O)N([H])[H])c5N([H])[H])C4([H])[H])C([H])([H])C([H])([H])[H])c([H])c3[H])c([H])c([H])c2C1([H])[H]

>  <smiles>  (31) 
[H]c1c([H])c([H])c2c(c1[H])C([H])([H])C([H])([H])C([H])([H])C2([H])N([H])C(=O)C1([H])N(C(=O)C([H])(N([H])C(=O)C([H])(N([H])C([H])([H])[H])C([H])([H])[H])C(C([H])([H])[H])(C([H])([H])[H])C([H])([H])[H])C([H])([H])c2c([H])c(Oc3c([H])c([H])c(C([H])([H])C([H])([H])N(C(=O)N4C([H])([H])C([H])([H])C([H])([H])C([H])(n5nc(-c6c([H])c([H])c(Oc7c([H])c([H])c(F)c([H])c7F)c([H])c6[H])c(C(=O)N([H])[H])c5N([H])[H])C4([H])[H])C([H])([H])C([H])([H])[H])c([H])c3[H])c([H])c([H])c2C1([H])[H]

$$$$
31:0:0
     RDKit          3D

 92101  0  0  1  0  0  0  0  0999 V2000
  -28.2130  -22.3100   21.5620 C   0  0  0  0  0  3  0  0  0  0  0  0
  -28.7560  -21.1380   20.9380 C   0  0  0  0  0  0  0  0  0  0  0  0
  -29.0210  -21.0290   19.5550 C   0  0  0  0  0  0  0  0  0  0  0  0
  -27.9500  -23.6050   20.9850 C   0  0  0  0  0  0  0  0  0  0  0  0
  -28.8010  -22.5610   18.9850 C   0  0  0  0  0  0  0  0  0  0  0  0
  -28.2570  -23.9740   19.6410 C   0  0  0  0  0  0  0  0  0  0  0  0
  -29.1040  -19.9230   21.7960 C   0  0  0  0  0  2  0  0  0  0  0  0
  -30.6100  -19.5100   21.8420 C   0  0  0  0  0  2  0  0  0  0  0  0
  -31.5580  -19.9980   20.7170 C   0  0  0  0  0  2  0  0  0  0  0  0
  -31.2330  -19.5340   19.2810 C   0  0  0  0  0  2  0  0  0  0  0  0
  -29.7300  -19.3100   19.0490 C   0  0  0  0  0  3  0  0  0  0  0  0
  -27.3120  -24.6420   21.8940 C   0  0  0  0  0  1  0  0  0  0  0  0
  -29.2340  -22.7130   17.5360 C   0  0  0  0  0  1  0  0  0  0  0  0
  -30.3770  -16.1110   19.4290 C   0  0  0  0  0  0  0  0  0  0  0  0
  -30.5700  -13.4820   18.8350 C   0  0  0  0  0  2  0  0  0  0  0  0
  -29.6430  -12.8180   17.7710 C   0  0  0  0  0  2  0  0  0  0  0  0
  -28.2970  -12.4170   18.3880 C   0  0  0  0  0  2  0  0  0  0  0  0
  -27.7820  -13.4970   19.3630 C   0  0  0  0  0  3  0  0  0  0  0  0
  -28.8620  -14.0420   20.3370 C   0  0  0  0  0  2  0  0  0  0  0  0
  -29.9090  -14.7050   19.5080 N   0  0  0  0  0  0  0  0  0  0  0  0
  -31.6060  -16.0360   19.2250 O   0  0  0  0  0  0  0  0  0  0  0  0
  -29.5980  -17.5050   19.3780 N   0  0  0  0  0  0  0  0  0  0  0  0
  -28.6180  -17.2930   19.4950 H   0  0  0  0  0  0  0  0  0  0  0  0
  -25.5430  -13.9900   20.4510 C   0  0  0  0  0  0  0  0  0  0  0  0
  -24.5120  -13.2030   20.8730 C   0  0  0  0  0  0  0  0  0  0  0  0
  -24.9410  -11.8520   20.6840 C   0  0  0  0  0  0  0  0  0  0  0  0
  -26.5320  -13.1290   20.0200 N   0  0  0  0  0  0  0  0  0  0  0  0
  -26.1890  -11.8260   20.2210 N   0  0  0  0  0  0  0  0  0  0  0  0
  -24.2080  -10.5900   20.8600 C   0  0  0  0  0  0  0  0  0  0  0  0
  -24.5910   -9.6460   21.8370 C   0  0  0  0  0  3  0  0  0  0  0  0
  -23.8580   -8.4520   22.0120 C   0  0  0  0  0  3  0  0  0  0  0  0
  -22.7240   -8.1910   21.2040 C   0  0  0  0  0  0  0  0  0  0  0  0
  -22.3550   -9.1260   20.2200 C   0  0  0  0  0  3  0  0  0  0  0  0
  -23.0900  -10.3110   20.0470 C   0  0  0  0  0  3  0  0  0  0  0  0
  -21.9700   -7.0450   21.2800 O   0  0  0  0  0  0  0  0  0  0  0  0
  -21.6650   -6.4620   22.4840 C   0  0  0  0  0  0  0  0  0  0  0  0
  -20.9430   -7.1500   23.4830 C   0  0  0  0  0  3  0  0  0  0  0  0
  -20.5930   -6.4910   24.6790 C   0  0  0  0  0  3  0  0  0  0  0  0
  -20.9490   -5.1430   24.8700 C   0  0  0  0  0  0  0  0  0  0  0  0
  -21.6560   -4.4520   23.8710 C   0  0  0  0  0  3  0  0  0  0  0  0
  -22.0110   -5.1110   22.6800 C   0  0  0  0  0  0  0  0  0  0  0  0
  -22.6770   -4.4350   21.7130 F   0  0  0  0  0  0  0  0  0  0  0  0
  -20.6050   -4.5070   26.0140 F   0  0  0  0  0  0  0  0  0  0  0  0
  -23.1640  -13.6790   21.3300 C   0  0  0  0  0  0  0  0  0  0  0  0
  -22.5280  -12.9480   22.2360 N   0  0  0  0  0  0  0  0  0  0  0  0
  -22.6890  -14.7380   20.9190 O   0  0  0  0  0  0  0  0  0  0  0  0
  -22.9300  -12.0970   22.5990 H   0  0  0  0  0  0  0  0  0  0  0  0
  -21.6230  -13.2450   22.5740 H   0  0  0  0  0  0  0  0  0  0  0  0
  -25.7180  -15.3690   20.3580 N   0  0  0  0  0  0  0  0  0  0  0  0
  -24.9860  -16.0270   20.6060 H   0  0  0  0  0  0  0  0  0  0  0  0
  -26.5370  -15.8090   19.9660 H   0  0  0  0  0  0  0  0  0  0  0  0
  -28.1200  -25.5890   19.2730 O   0  0  0  0  0  0  0  0  0  0  0  0
  -24.7330  -31.7660   22.9260 C   0  0  0  0  0  0  0  0  0  0  0  0
  -27.1250  -26.8150   19.4770 C   0  0  0  0  0  0  0  0  0  0  0  0
  -23.4630  -30.4430   21.2880 C   0  0  0  0  0  3  0  0  0  0  0  0
  -24.8350  -28.8740   19.7050 C   0  0  0  0  0  0  0  0  0  0  0  0
  -26.0340  -30.5990   21.0220 C   0  0  0  0  0  2  0  0  0  0  0  0
  -26.0700  -29.1930   20.2830 C   0  0  0  0  0  0  0  0  0  0  0  0
  -27.1900  -28.1960   20.1360 C   0  0  0  0  0  3  0  0  0  0  0  0
  -25.8460  -26.7430   18.8540 C   0  0  0  0  0  3  0  0  0  0  0  0
  -24.7660  -27.6770   18.9670 C   0  0  0  0  0  3  0  0  0  0  0  0
  -23.6300  -29.8170   19.8710 C   0  0  0  0  0  2  0  0  0  0  0  0
  -24.7720  -30.9700   21.7970 N   0  0  0  0  0  0  0  0  0  0  0  0
  -23.6680  -32.0210   23.5180 O   0  0  0  0  0  0  0  0  0  0  0  0
  -22.8070  -29.4130   22.2520 C   0  0  0  0  0  0  0  0  0  0  0  0
  -21.4730  -29.2350   22.1940 N   0  0  0  0  0  0  0  0  0  0  0  0
  -23.5170  -28.7660   23.0280 O   0  0  0  0  0  0  0  0  0  0  0  0
  -20.9430  -29.8130   21.5560 H   0  0  0  0  0  0  0  0  0  0  0  0
  -18.1490  -27.8750   22.8030 C   0  0  0  0  0  0  0  0  0  0  0  0
  -20.7100  -28.2370   22.9630 C   0  0  0  0  0  3  0  0  0  0  0  0
  -20.8340  -26.8310   22.3300 C   0  0  0  0  0  2  0  0  0  0  0  0
  -19.7010  -26.5050   21.3510 C   0  0  0  0  0  2  0  0  0  0  0  0
  -18.3450  -26.5670   22.0590 C   0  0  0  0  0  2  0  0  0  0  0  0
  -19.2550  -28.6680   23.2140 C   0  0  0  0  0  0  0  0  0  0  0  0
  -19.0080  -29.8900   23.8790 C   0  0  0  0  0  3  0  0  0  0  0  0
  -17.6920  -30.3240   24.1210 C   0  0  0  0  0  3  0  0  0  0  0  0
  -16.6030  -29.5280   23.7220 C   0  0  0  0  0  3  0  0  0  0  0  0
  -16.8330  -28.3040   23.0710 C   0  0  0  0  0  3  0  0  0  0  0  0
  -26.0190  -32.4030   23.5300 C   0  0  0  0  0  3  0  0  0  0  0  0
  -25.6850  -33.7520   24.0350 N   0  0  0  0  0  0  0  0  0  0  0  0
  -25.9600  -34.9030   23.4030 C   0  0  0  0  0  0  0  0  0  0  0  0
  -26.5770  -34.9410   22.3370 O   0  0  0  0  0  0  0  0  0  0  0  0
  -25.1360  -33.7910   24.8800 H   0  0  0  0  0  0  0  0  0  0  0  0
  -24.1960  -36.7000   23.3630 C   0  0  0  0  0  1  0  0  0  0  0  0
  -25.4800  -36.2180   24.0590 C   0  0  0  0  0  3  0  0  0  0  0  0
  -27.6380  -37.0390   24.9010 C   0  0  0  0  0  1  0  0  0  0  0  0
  -26.4900  -37.2990   24.0330 N   0  0  0  0  0  0  0  0  0  0  0  0
  -26.0770  -38.1860   24.3090 H   0  0  0  0  0  0  0  0  0  0  0  0
  -26.6450  -31.5470   24.7020 C   0  0  1  0  0  0  0  0  0  0  0  0
  -25.6330  -31.1620   25.8090 C   0  0  0  0  0  1  0  0  0  0  0  0
  -27.2520  -30.2360   24.1630 C   0  0  0  0  0  1  0  0  0  0  0  0
  -27.8080  -32.3320   25.3570 C   0  0  0  0  0  1  0  0  0  0  0  0
  2  1  2  0
  2  7  1  0
  3  2  1  0
  4  1  1  0
  4 12  1  0
  5  3  2  0
  5  6  1  0
  6  4  2  0
  7  8  1  0
  9  8  1  0
 10  9  1  0
 11 10  1  0
 11 22  1  0
 11  3  1  0
 13  5  1  0
 14 20  1  0
 15 20  1  0
 16 17  1  0
 16 15  1  0
 18 17  1  0
 18 27  1  0
 18 19  1  0
 20 19  1  0
 21 14  2  0
 22 14  1  0
 22 23  1  0
 24 25  2  0
 25 44  1  0
 26 29  1  0
 26 25  1  0
 27 28  1  0
 27 24  1  0
 28 26  2  0
 29 30  1  0
 30 31  2  0
 32 35  1  0
 32 31  1  0
 33 32  2  0
 34 33  1  0
 34 29  2  0
 35 36  1  0
 36 41  2  0
 36 37  1  0
 37 38  2  0
 38 39  1  0
 39 43  1  0
 40 39  2  0
 41 40  1  0
 42 41  1  0
 44 45  1  0
 45 48  1  0
 45 47  1  0
 46 44  2  0
 49 24  1  0
 49 50  1  0
 51 49  1  0
 52 54  1  0
 52  6  1  0
 53 64  2  0
 54 59  1  0
 55 63  1  0
 55 65  1  0
 56 62  1  0
 56 58  1  0
 57 63  1  0
 58 57  1  0
 59 58  2  0
 60 61  1  0
 60 54  2  0
 61 56  2  0
 62 55  1  0
 63 53  1  0
 65 67  2  0
 66 65  1  0
 68 66  1  0
 69 78  2  0
 69 74  1  0
 70 66  1  0
 70 74  1  0
 71 70  1  0
 72 73  1  0
 72 71  1  0
 73 69  1  0
 74 75  2  0
 75 76  1  0
 77 76  2  0
 78 77  1  0
 79 53  1  0
 79 80  1  0
 79 89  1  0
 80 83  1  0
 81 80  1  0
 81 85  1  0
 82 81  2  0
 85 84  1  0
 87 85  1  0
 87 88  1  0
 87 86  1  0
 89 92  1  1
 89 90  1  0
 91 89  1  0
M  ISO  4   6 101  14 100  22 100  52 101
M  END
>  <TORSDO>  (32) 
F 16

>  <SCORE>  (32) 
-14.626

>  <name>  (32) 
31

>  <ligand_id>  (32) 
31

>  <original_smiles>  (32) 
[H]c1c([H])c([H])c2c(c1[H])C([H])([H])C([H])([H])C([H])([H])C2([H])N([H])C(=O)C1([H])N(C(=O)C([H])(N([H])C(=O)C([H])(N([H])C([H])([H])[H])C([H])([H])[H])C(C([H])([H])[H])(C([H])([H])[H])C([H])([H])[H])C([H])([H])c2c([H])c(Oc3c(C([H])([H])[H])c([H])c4c(c3C([H])([H])[H])C([H])(N([H])C(=O)N3C([H])([H])C([H])([H])C([H])([H])C([H])(n5nc(-c6c([H])c([H])c(Oc7c([H])c([H])c(F)c([H])c7F)c([H])c6[H])c(C(=O)N([H])[H])c5N([H])[H])C3([H])[H])C([H])([H])C([H])([H])C([H])([H])C4([H])[H])c([H])c([H])c2C1([H])[H]

>  <smiles>  (32) 
[H]c1c([H])c([H])c2c(c1[H])C([H])([H])C([H])([H])C([H])([H])C2([H])N([H])C(=O)C1([H])N(C(=O)C([H])(N([H])C(=O)C([H])(N([H])C([H])([H])[H])C([H])([H])[H])C(C([H])([H])[H])(C([H])([H])[H])C([H])([H])[H])C([H])([H])c2c([H])c(Oc3c(C([H])([H])[H])c([H])c4c(c3C([H])([H])[H])C([H])(N([H])C(=O)N3C([H])([H])C([H])([H])C([H])([H])C([H])(n5nc(-c6c([H])c([H])c(Oc7c([H])c([H])c(F)c([H])c7F)c([H])c6[H])c(C(=O)N([H])[H])c5N([H])[H])C3([H])[H])C([H])([H])C([H])([H])C([H])([H])C4([H])[H])c([H])c([H])c2C1([H])[H]

$$$$
32:0:0
     RDKit          3D

 93101  0  0  1  0  0  0  0  0999 V2000
  -28.4690  -23.5000   22.2770 C   0  0  0  0  0  3  0  0  0  0  0  0
  -28.0970  -24.0480   23.5110 C   0  0  0  0  0  3  0  0  0  0  0  0
  -27.9230  -26.2210   22.4560 C   0  0  0  0  0  3  0  0  0  0  0  0
  -28.5720  -24.2850   21.1010 C   0  0  0  0  0  0  0  0  0  0  0  0
  -28.2810  -25.7030   21.1800 C   0  0  0  0  0  0  0  0  0  0  0  0
  -27.8260  -25.4140   23.6010 C   0  0  0  0  0  0  0  0  0  0  0  0
  -27.4730  -25.9550   24.7930 F   0  0  0  0  0  0  0  0  0  0  0  0
  -28.3330  -26.6000   20.1020 O   0  0  0  0  0  0  0  0  0  0  0  0
  -24.6090  -31.8780   23.1220 C   0  0  0  0  0  0  0  0  0  0  0  0
  -27.2540  -27.4660   19.9800 C   0  0  0  0  0  0  0  0  0  0  0  0
  -23.4090  -30.4960   21.4610 C   0  0  0  0  0  3  0  0  0  0  0  0
  -24.8680  -29.0000   19.9890 C   0  0  0  0  0  0  0  0  0  0  0  0
  -25.9360  -30.8710   21.2650 C   0  0  0  0  0  2  0  0  0  0  0  0
  -26.0280  -29.5140   20.5830 C   0  0  0  0  0  0  0  0  0  0  0  0
  -27.2310  -28.7620   20.5630 C   0  0  0  0  0  3  0  0  0  0  0  0
  -26.0860  -26.9870   19.3560 C   0  0  0  0  0  3  0  0  0  0  0  0
  -24.8960  -27.7430   19.3610 C   0  0  0  0  0  3  0  0  0  0  0  0
  -23.6180  -29.8510   20.0650 C   0  0  0  0  0  2  0  0  0  0  0  0
  -24.6680  -31.0980   22.0060 N   0  0  0  0  0  0  0  0  0  0  0  0
  -23.5290  -32.1330   23.6710 O   0  0  0  0  0  0  0  0  0  0  0  0
  -22.7680  -29.4530   22.4060 C   0  0  0  0  0  0  0  0  0  0  0  0
  -21.4450  -29.2550   22.2760 N   0  0  0  0  0  0  0  0  0  0  0  0
  -23.4590  -28.8260   23.2140 O   0  0  0  0  0  0  0  0  0  0  0  0
  -20.9450  -29.8160   21.6000 H   0  0  0  0  0  0  0  0  0  0  0  0
  -18.0910  -27.9940   22.7340 C   0  0  0  0  0  0  0  0  0  0  0  0
  -20.6410  -28.2950   23.0320 C   0  0  0  0  0  3  0  0  0  0  0  0
  -20.7730  -26.8700   22.4450 C   0  0  0  0  0  2  0  0  0  0  0  0
  -19.6870  -26.5380   21.4180 C   0  0  0  0  0  2  0  0  0  0  0  0
  -18.2980  -26.6530   22.0520 C   0  0  0  0  0  2  0  0  0  0  0  0
  -19.1910  -28.7720   23.1810 C   0  0  0  0  0  0  0  0  0  0  0  0
  -18.9430  -30.0280   23.7770 C   0  0  0  0  0  3  0  0  0  0  0  0
  -17.6280  -30.5040   23.9330 C   0  0  0  0  0  3  0  0  0  0  0  0
  -16.5420  -29.7220   23.5050 C   0  0  0  0  0  3  0  0  0  0  0  0
  -16.7750  -28.4680   22.9120 C   0  0  0  0  0  3  0  0  0  0  0  0
  -25.8930  -32.5090   23.7460 C   0  0  0  0  0  3  0  0  0  0  0  0
  -25.5720  -33.8930   24.1180 N   0  0  0  0  0  0  0  0  0  0  0  0
  -25.8940  -34.9690   23.3870 C   0  0  0  0  0  0  0  0  0  0  0  0
  -26.5630  -34.9000   22.3520 O   0  0  0  0  0  0  0  0  0  0  0  0
  -24.9760  -34.0210   24.9230 H   0  0  0  0  0  0  0  0  0  0  0  0
  -24.1460  -36.7520   23.0880 C   0  0  0  0  0  1  0  0  0  0  0  0
  -25.3960  -36.3400   23.8850 C   0  0  0  0  0  3  0  0  0  0  0  0
  -27.5240  -37.2230   24.7310 C   0  0  0  0  0  1  0  0  0  0  0  0
  -26.4180  -37.4060   23.7950 N   0  0  0  0  0  0  0  0  0  0  0  0
  -26.0030  -38.3180   23.9690 H   0  0  0  0  0  0  0  0  0  0  0  0
  -26.4360  -31.7090   24.9950 C   0  0  1  0  0  0  0  0  0  0  0  0
  -25.3590  -31.4310   26.0700 C   0  0  0  0  0  1  0  0  0  0  0  0
  -27.0300  -30.3490   24.5610 C   0  0  0  0  0  1  0  0  0  0  0  0
  -27.5850  -32.4990   25.6660 C   0  0  0  0  0  1  0  0  0  0  0  0
  -29.0230  -23.5560   19.8150 C   0  0  0  0  0  2  0  0  0  0  0  0
  -28.6760  -22.0130   19.6730 C   0  0  0  0  0  2  0  0  0  0  0  0
  -29.6720  -20.9410   20.2160 C   0  0  0  0  0  0  0  0  0  0  0  0
  -29.3850  -19.6270   20.0240 N   0  0  0  0  0  0  0  0  0  0  0  0
  -30.6740  -21.2910   20.8400 O   0  0  0  0  0  0  0  0  0  0  0  0
  -28.5660  -19.4200   19.4670 H   0  0  0  0  0  0  0  0  0  0  0  0
  -30.0420  -18.4740   20.6940 C   0  0  0  0  0  3  0  0  0  0  0  0
  -29.8180  -17.0790   20.0110 C   0  0  0  0  0  3  0  0  0  0  0  0
  -30.1520  -15.8220   20.8980 C   0  0  0  0  0  2  0  0  0  0  0  0
  -30.6910  -14.5790   20.1270 C   0  0  0  0  0  0  0  0  0  0  0  0
  -30.3170  -12.4300   18.9520 C   0  0  0  0  0  2  0  0  0  0  0  0
  -29.3360  -12.6570   17.7830 C   0  0  0  0  0  2  0  0  0  0  0  0
  -27.8800  -12.5150   18.2710 C   0  0  0  0  0  2  0  0  0  0  0  0
  -27.5980  -13.3410   19.5560 C   0  0  0  0  0  3  0  0  0  0  0  0
  -28.6950  -13.0930   20.6160 C   0  0  0  0  0  2  0  0  0  0  0  0
  -29.9940  -13.4090   20.0060 N   0  0  0  0  0  0  0  0  0  0  0  0
  -31.7800  -14.7270   19.5680 O   0  0  0  0  0  0  0  0  0  0  0  0
  -25.2230  -13.9570   20.3340 C   0  0  0  0  0  0  0  0  0  0  0  0
  -24.1630  -13.1900   20.7340 C   0  0  0  0  0  0  0  0  0  0  0  0
  -24.6200  -11.8350   20.7000 C   0  0  0  0  0  0  0  0  0  0  0  0
  -26.2590  -13.0720   20.0790 N   0  0  0  0  0  0  0  0  0  0  0  0
  -25.9010  -11.7910   20.3580 N   0  0  0  0  0  0  0  0  0  0  0  0
  -23.8990  -10.5760   20.9250 C   0  0  0  0  0  0  0  0  0  0  0  0
  -24.3560   -9.6180   21.8560 C   0  0  0  0  0  3  0  0  0  0  0  0
  -23.6340   -8.4240   22.0660 C   0  0  0  0  0  3  0  0  0  0  0  0
  -22.4420   -8.1790   21.3450 C   0  0  0  0  0  0  0  0  0  0  0  0
  -22.0010   -9.1270   20.4030 C   0  0  0  0  0  3  0  0  0  0  0  0
  -22.7230  -10.3120   20.1920 C   0  0  0  0  0  3  0  0  0  0  0  0
  -21.6900   -7.0350   21.4630 O   0  0  0  0  0  0  0  0  0  0  0  0
  -21.6730   -6.3010   22.6220 C   0  0  0  0  0  0  0  0  0  0  0  0
  -21.2870   -6.8660   23.8570 C   0  0  0  0  0  3  0  0  0  0  0  0
  -21.2180   -6.0600   25.0110 C   0  0  0  0  0  3  0  0  0  0  0  0
  -21.5270   -4.6890   24.9320 C   0  0  0  0  0  0  0  0  0  0  0  0
  -21.9110   -4.1230   23.7020 C   0  0  0  0  0  3  0  0  0  0  0  0
  -21.9810   -4.9260   22.5510 C   0  0  0  0  0  0  0  0  0  0  0  0
  -22.3290   -4.3710   21.3650 F   0  0  0  0  0  0  0  0  0  0  0  0
  -21.4520   -3.9120   26.0380 F   0  0  0  0  0  0  0  0  0  0  0  0
  -22.7750  -13.6720   21.0440 C   0  0  0  0  0  0  0  0  0  0  0  0
  -22.0700  -12.9830   21.9350 N   0  0  0  0  0  0  0  0  0  0  0  0
  -22.3260  -14.6970   20.5300 O   0  0  0  0  0  0  0  0  0  0  0  0
  -22.4500  -12.1600   22.3790 H   0  0  0  0  0  0  0  0  0  0  0  0
  -21.1380  -13.2840   22.1820 H   0  0  0  0  0  0  0  0  0  0  0  0
  -25.3880  -15.3270   20.1520 N   0  0  0  0  0  0  0  0  0  0  0  0
  -24.6400  -15.9910   20.3230 H   0  0  0  0  0  0  0  0  0  0  0  0
  -26.2560  -15.7680   19.8720 H   0  0  0  0  0  0  0  0  0  0  0  0
  1  2  1  0
  2  6  2  0
  3  6  1  0
  4  5  1  0
  4  1  2  0
  5  3  2  0
  6  7  1  0
  8  5  1  0
  9 20  2  0
 10  8  1  0
 10 15  1  0
 11 19  1  0
 11 21  1  0
 12 18  1  0
 12 14  1  0
 13 19  1  0
 14 13  1  0
 15 14  2  0
 16 17  1  0
 16 10  2  0
 17 12  2  0
 18 11  1  0
 19  9  1  0
 21 23  2  0
 22 21  1  0
 24 22  1  0
 25 34  2  0
 25 30  1  0
 26 22  1  0
 26 30  1  0
 27 26  1  0
 28 29  1  0
 28 27  1  0
 29 25  1  0
 30 31  2  0
 31 32  1  0
 33 32  2  0
 34 33  1  0
 35  9  1  0
 35 36  1  0
 35 45  1  0
 36 39  1  0
 37 41  1  0
 37 36  1  0
 38 37  2  0
 41 40  1  0
 43 41  1  0
 43 44  1  0
 43 42  1  0
 45 48  1  1
 45 46  1  0
 47 45  1  0
 49  4  1  0
 50 49  1  0
 50 51  1  0
 51 53  2  0
 52 51  1  0
 52 55  1  0
 54 52  1  0
 56 55  2  0
 56 57  1  0
 58 57  1  0
 59 64  1  0
 60 61  1  0
 60 59  1  0
 62 61  1  0
 62 69  1  0
 62 63  1  0
 64 58  1  0
 64 63  1  0
 65 58  2  0
 66 67  2  0
 67 86  1  0
 68 67  1  0
 68 71  1  0
 69 66  1  0
 69 70  1  0
 70 68  2  0
 71 72  1  0
 72 73  2  0
 74 77  1  0
 74 73  1  0
 75 74  2  0
 76 75  1  0
 76 71  2  0
 77 78  1  0
 78 79  1  0
 79 80  2  0
 81 80  1  0
 81 85  1  0
 82 81  2  0
 83 78  2  0
 83 82  1  0
 84 83  1  0
 86 87  1  0
 87 90  1  0
 87 89  1  0
 88 86  2  0
 91 92  1  0
 91 66  1  0
 93 91  1  0
M  ISO  4   5 101   8 101  57 100  58 100
M  END
>  <TORSDO>  (33) 
F 22

>  <SCORE>  (33) 
-11.598

>  <name>  (33) 
32

>  <ligand_id>  (33) 
32

>  <original_smiles>  (33) 
[H]c1c([H])c([H])c2c(c1[H])C([H])([H])C([H])([H])C([H])([H])C2([H])N([H])C(=O)C1([H])N(C(=O)C([H])(N([H])C(=O)C([H])(N([H])C([H])([H])[H])C([H])([H])[H])C(C([H])([H])[H])(C([H])([H])[H])C([H])([H])[H])C([H])([H])c2c([H])c(Oc3c([H])c(F)c([H])c([H])c3C([H])([H])C([H])([H])C(=O)N([H])C([H])([H])C([H])([H])C([H])([H])C(=O)N3C([H])([H])C([H])([H])C([H])([H])C([H])(n4nc(-c5c([H])c([H])c(Oc6c([H])c([H])c(F)c([H])c6F)c([H])c5[H])c(C(=O)N([H])[H])c4N([H])[H])C3([H])[H])c([H])c([H])c2C1([H])[H]

>  <smiles>  (33) 
[H]c1c([H])c([H])c2c(c1[H])C([H])([H])C([H])([H])C([H])([H])C2([H])N([H])C(=O)C1([H])N(C(=O)C([H])(N([H])C(=O)C([H])(N([H])C([H])([H])[H])C([H])([H])[H])C(C([H])([H])[H])(C([H])([H])[H])C([H])([H])[H])C([H])([H])c2c([H])c(Oc3c([H])c(F)c([H])c([H])c3C([H])([H])C([H])([H])C(=O)N([H])C([H])([H])C([H])([H])C([H])([H])C(=O)N3C([H])([H])C([H])([H])C([H])([H])C([H])(n4nc(-c5c([H])c([H])c(Oc6c([H])c([H])c(F)c([H])c6F)c([H])c5[H])c(C(=O)N([H])[H])c4N([H])[H])C3([H])[H])c([H])c([H])c2C1([H])[H]

$$$$
33:0:0
     RDKit          3D

 88 96  0  0  1  0  0  0  0  0999 V2000
  -28.6650  -21.6840   21.7830 C   0  0  0  0  0  3  0  0  0  0  0  0
  -28.4990  -22.9080   22.4850 C   0  0  0  0  0  3  0  0  0  0  0  0
  -28.5230  -23.0340   19.7890 C   0  0  0  0  0  3  0  0  0  0  0  0
  -28.7420  -21.6010   20.3830 C   0  0  0  0  0  0  0  0  0  0  0  0
  -28.3720  -24.2010   21.8920 C   0  0  0  0  0  0  0  0  0  0  0  0
  -28.2970  -24.4170   20.4880 C   0  0  0  0  0  0  0  0  0  0  0  0
  -28.4130  -25.4000   22.8290 C   0  0  0  0  0  1  0  0  0  0  0  0
  -28.2560  -25.9120   20.0360 O   0  0  0  0  0  0  0  0  0  0  0  0
  -24.6590  -31.9200   23.1170 C   0  0  0  0  0  0  0  0  0  0  0  0
  -27.2290  -27.0170   20.1040 C   0  0  0  0  0  0  0  0  0  0  0  0
  -23.4710  -30.5200   21.4830 C   0  0  0  0  0  3  0  0  0  0  0  0
  -24.9250  -28.9250   20.0520 C   0  0  0  0  0  0  0  0  0  0  0  0
  -26.0360  -30.7400   21.3250 C   0  0  0  0  0  2  0  0  0  0  0  0
  -26.1140  -29.3240   20.6760 C   0  0  0  0  0  0  0  0  0  0  0  0
  -27.2600  -28.3960   20.6720 C   0  0  0  0  0  3  0  0  0  0  0  0
  -26.0140  -26.7910   19.4190 C   0  0  0  0  0  3  0  0  0  0  0  0
  -24.9070  -27.6810   19.3990 C   0  0  0  0  0  3  0  0  0  0  0  0
  -23.7010  -29.8460   20.1030 C   0  0  0  0  0  2  0  0  0  0  0  0
  -24.7440  -31.0870   22.0300 N   0  0  0  0  0  0  0  0  0  0  0  0
  -23.5690  -32.2010   23.6430 O   0  0  0  0  0  0  0  0  0  0  0  0
  -22.7850  -29.5170   22.4460 C   0  0  0  0  0  0  0  0  0  0  0  0
  -21.4560  -29.3520   22.3300 N   0  0  0  0  0  0  0  0  0  0  0  0
  -23.4580  -28.8900   23.2690 O   0  0  0  0  0  0  0  0  0  0  0  0
  -20.9670  -29.9110   21.6440 H   0  0  0  0  0  0  0  0  0  0  0  0
  -18.0760  -28.1510   22.8790 C   0  0  0  0  0  0  0  0  0  0  0  0
  -20.6410  -28.4090   23.1010 C   0  0  0  0  0  3  0  0  0  0  0  0
  -20.7290  -26.9860   22.5020 C   0  0  0  0  0  2  0  0  0  0  0  0
  -19.6080  -26.6810   21.5040 C   0  0  0  0  0  2  0  0  0  0  0  0
  -18.2380  -26.8140   22.1740 C   0  0  0  0  0  2  0  0  0  0  0  0
  -19.2020  -28.9050   23.3000 C   0  0  0  0  0  0  0  0  0  0  0  0
  -18.9940  -30.1540   23.9260 C   0  0  0  0  0  3  0  0  0  0  0  0
  -17.6920  -30.6460   24.1360 C   0  0  0  0  0  3  0  0  0  0  0  0
  -16.5790  -29.8900   23.7280 C   0  0  0  0  0  3  0  0  0  0  0  0
  -16.7730  -28.6440   23.1020 C   0  0  0  0  0  3  0  0  0  0  0  0
  -25.9270  -32.5670   23.7520 C   0  0  0  0  0  3  0  0  0  0  0  0
  -25.5970  -33.9600   24.1010 N   0  0  0  0  0  0  0  0  0  0  0  0
  -25.9200  -35.0340   23.3690 C   0  0  0  0  0  0  0  0  0  0  0  0
  -26.5900  -34.9590   22.3370 O   0  0  0  0  0  0  0  0  0  0  0  0
  -24.9860  -34.0910   24.8950 H   0  0  0  0  0  0  0  0  0  0  0  0
  -24.1840  -36.8370   23.0610 C   0  0  0  0  0  1  0  0  0  0  0  0
  -25.4260  -36.4110   23.8610 C   0  0  0  0  0  3  0  0  0  0  0  0
  -27.5510  -37.2970   24.7170 C   0  0  0  0  0  1  0  0  0  0  0  0
  -26.4510  -37.4740   23.7740 N   0  0  0  0  0  0  0  0  0  0  0  0
  -26.0350  -38.3860   23.9410 H   0  0  0  0  0  0  0  0  0  0  0  0
  -26.4410  -31.7950   25.0310 C   0  0  1  0  0  0  0  0  0  0  0  0
  -25.3420  -31.5530   26.0920 C   0  0  0  0  0  1  0  0  0  0  0  0
  -27.0340  -30.4190   24.6470 C   0  0  0  0  0  1  0  0  0  0  0  0
  -27.5800  -32.5960   25.7040 C   0  0  0  0  0  1  0  0  0  0  0  0
  -28.8940  -19.9390   19.7690 C   0  0  0  0  0  2  0  0  0  0  0  0
  -29.7630  -18.4130   20.3100 C   0  0  0  0  0  2  0  0  0  0  0  0
  -30.3510  -15.4730   19.9280 C   0  0  0  0  0  0  0  0  0  0  0  0
  -30.3350  -13.0240   19.0180 C   0  0  0  0  0  2  0  0  0  0  0  0
  -29.3540  -12.7860   17.8400 C   0  0  0  0  0  2  0  0  0  0  0  0
  -27.9330  -12.5000   18.3570 C   0  0  0  0  0  2  0  0  0  0  0  0
  -27.5290  -13.4620   19.5020 C   0  0  0  0  0  3  0  0  0  0  0  0
  -28.6310  -13.6000   20.5710 C   0  0  0  0  0  2  0  0  0  0  0  0
  -29.8060  -14.1510   19.8770 N   0  0  0  0  0  0  0  0  0  0  0  0
  -31.5660  -15.4770   19.6800 O   0  0  0  0  0  0  0  0  0  0  0  0
  -29.5620  -16.7400   20.0690 N   0  0  0  0  0  0  0  0  0  0  0  0
  -28.5910  -16.4890   20.1960 H   0  0  0  0  0  0  0  0  0  0  0  0
  -25.2120  -14.0050   20.4050 C   0  0  0  0  0  0  0  0  0  0  0  0
  -24.1710  -13.2260   20.8150 C   0  0  0  0  0  0  0  0  0  0  0  0
  -24.6330  -11.8750   20.7370 C   0  0  0  0  0  0  0  0  0  0  0  0
  -26.2350  -13.1330   20.0800 N   0  0  0  0  0  0  0  0  0  0  0  0
  -25.9040  -11.8430   20.3500 N   0  0  0  0  0  0  0  0  0  0  0  0
  -23.9170  -10.6100   20.9440 C   0  0  0  0  0  0  0  0  0  0  0  0
  -24.3830   -9.6400   21.8580 C   0  0  0  0  0  3  0  0  0  0  0  0
  -23.6650   -8.4420   22.0590 C   0  0  0  0  0  3  0  0  0  0  0  0
  -22.4680   -8.2050   21.3440 C   0  0  0  0  0  0  0  0  0  0  0  0
  -22.0220   -9.1620   20.4160 C   0  0  0  0  0  3  0  0  0  0  0  0
  -22.7390  -10.3520   20.2120 C   0  0  0  0  0  3  0  0  0  0  0  0
  -21.7160   -7.0620   21.4540 O   0  0  0  0  0  0  0  0  0  0  0  0
  -21.6910   -6.3270   22.6120 C   0  0  0  0  0  0  0  0  0  0  0  0
  -21.2580   -6.8760   23.8390 C   0  0  0  0  0  3  0  0  0  0  0  0
  -21.1880   -6.0630   24.9880 C   0  0  0  0  0  3  0  0  0  0  0  0
  -21.5370   -4.7010   24.9120 C   0  0  0  0  0  0  0  0  0  0  0  0
  -21.9630   -4.1520   23.6890 C   0  0  0  0  0  3  0  0  0  0  0  0
  -22.0370   -4.9630   22.5430 C   0  0  0  0  0  0  0  0  0  0  0  0
  -22.4290   -4.4230   21.3650 F   0  0  0  0  0  0  0  0  0  0  0  0
  -21.4610   -3.9180   26.0130 F   0  0  0  0  0  0  0  0  0  0  0  0
  -22.7910  -13.6950   21.1640 C   0  0  0  0  0  0  0  0  0  0  0  0
  -22.1110  -12.9870   22.0540 N   0  0  0  0  0  0  0  0  0  0  0  0
  -22.3250  -14.7260   20.6760 O   0  0  0  0  0  0  0  0  0  0  0  0
  -22.5120  -12.1630   22.4760 H   0  0  0  0  0  0  0  0  0  0  0  0
  -21.1790  -13.2720   22.3250 H   0  0  0  0  0  0  0  0  0  0  0  0
  -25.3710  -15.3810   20.2510 N   0  0  0  0  0  0  0  0  0  0  0  0
  -24.6150  -16.0320   20.4360 H   0  0  0  0  0  0  0  0  0  0  0  0
  -26.1990  -15.8240   19.8750 H   0  0  0  0  0  0  0  0  0  0  0  0
  1  2  1  0
  3  4  1  0
  3  6  2  0
  4  1  2  0
  5  2  2  0
  5  7  1  0
  6  5  1  0
  8 10  1  0
  8  6  1  0
  9 20  2  0
 10 15  1  0
 11 19  1  0
 11 21  1  0
 12 18  1  0
 12 14  1  0
 13 19  1  0
 14 13  1  0
 15 14  2  0
 16 10  2  0
 17 16  1  0
 17 12  2  0
 18 11  1  0
 19  9  1  0
 21 23  2  0
 22 21  1  0
 24 22  1  0
 25 34  2  0
 25 30  1  0
 26 22  1  0
 26 30  1  0
 27 26  1  0
 28 29  1  0
 28 27  1  0
 29 25  1  0
 30 31  2  0
 31 32  1  0
 33 32  2  0
 34 33  1  0
 35  9  1  0
 35 36  1  0
 35 45  1  0
 36 39  1  0
 37 41  1  0
 37 36  1  0
 38 37  2  0
 41 40  1  0
 43 41  1  0
 43 44  1  0
 43 42  1  0
 45 48  1  1
 45 46  1  0
 47 45  1  0
 49 50  1  0
 49  4  1  0
 51 59  1  0
 52 57  1  0
 53 54  1  0
 53 52  1  0
 55 54  1  0
 55 64  1  0
 55 56  1  0
 57 51  1  0
 57 56  1  0
 58 51  2  0
 59 60  1  0
 59 50  1  0
 61 62  2  0
 62 81  1  0
 63 62  1  0
 63 66  1  0
 64 65  1  0
 64 61  1  0
 65 63  2  0
 66 67  1  0
 67 68  2  0
 69 72  1  0
 69 68  1  0
 70 69  2  0
 71 70  1  0
 71 66  2  0
 72 73  1  0
 73 74  1  0
 74 75  2  0
 76 75  1  0
 76 80  1  0
 77 76  2  0
 78 73  2  0
 78 77  1  0
 79 78  1  0
 81 82  1  0
 82 85  1  0
 82 84  1  0
 83 81  2  0
 86 61  1  0
 86 87  1  0
 88 86  1  0
M  ISO  4   6 101   8 101  51 100  59 100
M  END
>  <TORSDO>  (34) 
F 18

>  <SCORE>  (34) 
-15.632

>  <name>  (34) 
33

>  <ligand_id>  (34) 
33

>  <original_smiles>  (34) 
[H]c1c([H])c([H])c2c(c1[H])C([H])([H])C([H])([H])C([H])([H])C2([H])N([H])C(=O)C1([H])N(C(=O)C([H])(N([H])C(=O)C([H])(N([H])C([H])([H])[H])C([H])([H])[H])C(C([H])([H])[H])(C([H])([H])[H])C([H])([H])[H])C([H])([H])c2c([H])c(Oc3c([H])c(C([H])([H])C([H])([H])N([H])C(=O)N4C([H])([H])C([H])([H])C([H])([H])C([H])(n5nc(-c6c([H])c([H])c(Oc7c([H])c([H])c(F)c([H])c7F)c([H])c6[H])c(C(=O)N([H])[H])c5N([H])[H])C4([H])[H])c([H])c([H])c3C([H])([H])[H])c([H])c([H])c2C1([H])[H]

>  <smiles>  (34) 
[H]c1c([H])c([H])c2c(c1[H])C([H])([H])C([H])([H])C([H])([H])C2([H])N([H])C(=O)C1([H])N(C(=O)C([H])(N([H])C(=O)C([H])(N([H])C([H])([H])[H])C([H])([H])[H])C(C([H])([H])[H])(C([H])([H])[H])C([H])([H])[H])C([H])([H])c2c([H])c(Oc3c([H])c(C([H])([H])C([H])([H])N([H])C(=O)N4C([H])([H])C([H])([H])C([H])([H])C([H])(n5nc(-c6c([H])c([H])c(Oc7c([H])c([H])c(F)c([H])c7F)c([H])c6[H])c(C(=O)N([H])[H])c5N([H])[H])C4([H])[H])c([H])c([H])c3C([H])([H])[H])c([H])c([H])c2C1([H])[H]

$$$$
34:0:0
     RDKit          3D

 91 98  0  0  1  0  0  0  0  0999 V2000
  -29.8190  -20.8580   18.2950 C   0  0  0  0  0  3  0  0  0  0  0  0
  -29.1560  -21.8740   20.2830 C   0  0  0  0  0  0  0  0  0  0  0  0
  -29.5300  -20.3690   19.6260 C   0  0  0  0  0  3  0  0  0  0  0  0
  -29.6330  -22.1560   17.7070 C   0  0  0  0  0  0  0  0  0  0  0  0
  -29.0480  -23.3320   18.3150 C   0  0  0  0  0  0  0  0  0  0  0  0
  -28.8090  -23.4910   19.7190 C   0  0  0  0  0  0  0  0  0  0  0  0
  -29.3430  -21.5710   21.7490 C   0  0  0  0  0  0  0  0  0  0  0  0
  -29.8170  -20.1270   22.2460 C   0  0  0  0  0  2  0  0  0  0  0  0
  -30.6050  -19.0610   21.3200 C   0  0  0  0  0  2  0  0  0  0  0  0
  -29.7670  -18.3900   20.1690 C   0  0  0  0  0  2  0  0  0  0  0  0
  -30.2360  -22.2260   16.2940 C   0  0  0  0  0  1  0  0  0  0  0  0
  -28.7110  -24.5290   17.4240 C   0  0  0  0  0  1  0  0  0  0  0  0
  -30.0940  -18.1340   18.6540 C   0  0  0  0  0  1  0  0  0  0  0  0
  -29.1410  -22.4330   22.6070 O   0  0  0  0  0  0  0  0  0  0  0  0
  -30.5250  -16.4150   20.2000 C   0  0  0  0  0  2  0  0  0  0  0  0
  -30.7980  -13.7120   19.4820 C   0  0  0  0  0  2  0  0  0  0  0  0
  -29.9870  -13.0750   18.2940 C   0  0  0  0  0  2  0  0  0  0  0  0
  -28.5930  -12.6150   18.7410 C   0  0  0  0  0  2  0  0  0  0  0  0
  -27.9860  -13.6390   19.7140 C   0  0  0  0  0  3  0  0  0  0  0  0
  -28.9620  -14.1740   20.8050 C   0  0  0  0  0  2  0  0  0  0  0  0
  -30.0800  -14.9460   20.1530 N   0  0  0  0  0  0  0  0  0  0  0  0
  -31.7680  -16.2250   20.1030 O   0  0  0  0  0  1  0  0  0  0  0  0
  -25.6170  -14.0840   20.4690 C   0  0  0  0  0  0  0  0  0  0  0  0
  -24.5640  -13.2840   20.8140 C   0  0  0  0  0  0  0  0  0  0  0  0
  -25.0600  -11.9460   20.7780 C   0  0  0  0  0  0  0  0  0  0  0  0
  -26.6800  -13.2430   20.2350 N   0  0  0  0  0  0  0  0  0  0  0  0
  -26.3600  -11.9430   20.4810 N   0  0  0  0  0  0  0  0  0  0  0  0
  -24.3380  -10.6710   20.9570 C   0  0  0  0  0  0  0  0  0  0  0  0
  -24.7140   -9.7350   21.9450 C   0  0  0  0  0  3  0  0  0  0  0  0
  -23.9880   -8.5330   22.1160 C   0  0  0  0  0  3  0  0  0  0  0  0
  -22.8670   -8.2580   21.2970 C   0  0  0  0  0  0  0  0  0  0  0  0
  -22.5060   -9.1840   20.3050 C   0  0  0  0  0  3  0  0  0  0  0  0
  -23.2320  -10.3760   20.1350 C   0  0  0  0  0  3  0  0  0  0  0  0
  -22.1200   -7.1100   21.3700 O   0  0  0  0  0  0  0  0  0  0  0  0
  -21.9360   -6.4450   22.5520 C   0  0  0  0  0  0  0  0  0  0  0  0
  -21.3530   -7.0670   23.6780 C   0  0  0  0  0  3  0  0  0  0  0  0
  -21.1220   -6.3220   24.8500 C   0  0  0  0  0  3  0  0  0  0  0  0
  -21.4690   -4.9580   24.9010 C   0  0  0  0  0  0  0  0  0  0  0  0
  -22.0450   -4.3390   23.7800 C   0  0  0  0  0  3  0  0  0  0  0  0
  -22.2750   -5.0790   22.6090 C   0  0  0  0  0  0  0  0  0  0  0  0
  -22.8150   -4.4720   21.5240 F   0  0  0  0  0  0  0  0  0  0  0  0
  -21.2380   -4.2400   26.0250 F   0  0  0  0  0  0  0  0  0  0  0  0
  -23.1590  -13.7440   21.0550 C   0  0  0  0  0  0  0  0  0  0  0  0
  -22.4320  -13.0450   21.9180 N   0  0  0  0  0  0  0  0  0  0  0  0
  -22.7190  -14.7580   20.5170 O   0  0  0  0  0  0  0  0  0  0  0  0
  -22.7980  -12.2240   22.3760 H   0  0  0  0  0  0  0  0  0  0  0  0
  -21.4880  -13.3400   22.1350 H   0  0  0  0  0  0  0  0  0  0  0  0
  -25.7460  -15.4580   20.2990 N   0  0  0  0  0  0  0  0  0  0  0  0
  -24.9560  -16.0790   20.4170 H   0  0  0  0  0  0  0  0  0  0  0  0
  -26.5800  -15.9220   19.9610 H   0  0  0  0  0  0  0  0  0  0  0  0
  -28.6060  -25.1960   20.1050 O   0  0  0  0  0  0  0  0  0  0  0  0
  -25.0500  -31.7850   23.2360 C   0  0  0  0  0  0  0  0  0  0  0  0
  -27.6710  -26.5760   20.0230 C   0  0  0  0  0  0  0  0  0  0  0  0
  -23.9010  -30.4520   21.5200 C   0  0  0  0  0  3  0  0  0  0  0  0
  -25.3940  -28.8150   20.0640 C   0  0  0  0  0  0  0  0  0  0  0  0
  -26.4980  -30.5140   21.4780 C   0  0  0  0  0  2  0  0  0  0  0  0
  -26.5870  -29.0740   20.7500 C   0  0  0  0  0  0  0  0  0  0  0  0
  -27.6760  -27.9950   20.7000 C   0  0  0  0  0  3  0  0  0  0  0  0
  -26.4360  -26.6250   19.2860 C   0  0  0  0  0  3  0  0  0  0  0  0
  -25.3810  -27.6210   19.3110 C   0  0  0  0  0  3  0  0  0  0  0  0
  -24.1820  -29.7800   20.1370 C   0  0  0  0  0  2  0  0  0  0  0  0
  -25.1780  -30.9570   22.1320 N   0  0  0  0  0  0  0  0  0  0  0  0
  -23.9430  -32.0690   23.7300 O   0  0  0  0  0  0  0  0  0  0  0  0
  -23.1510  -29.4600   22.4490 C   0  0  0  0  0  0  0  0  0  0  0  0
  -21.8210  -29.2950   22.2920 N   0  0  0  0  0  0  0  0  0  0  0  0
  -23.7910  -28.8320   23.2940 O   0  0  0  0  0  0  0  0  0  0  0  0
  -21.3510  -29.8580   21.5960 H   0  0  0  0  0  0  0  0  0  0  0  0
  -18.4570  -27.9560   22.6620 C   0  0  0  0  0  0  0  0  0  0  0  0
  -20.9990  -28.3140   23.0160 C   0  0  0  0  0  3  0  0  0  0  0  0
  -21.1680  -26.8960   22.4170 C   0  0  0  0  0  2  0  0  0  0  0  0
  -20.1180  -26.5610   21.3520 C   0  0  0  0  0  2  0  0  0  0  0  0
  -18.7120  -26.6360   21.9510 C   0  0  0  0  0  2  0  0  0  0  0  0
  -19.5320  -28.7500   23.1470 C   0  0  0  0  0  0  0  0  0  0  0  0
  -19.2410  -29.9840   23.7710 C   0  0  0  0  0  3  0  0  0  0  0  0
  -17.9080  -30.4180   23.9210 C   0  0  0  0  0  3  0  0  0  0  0  0
  -16.8500  -29.6220   23.4490 C   0  0  0  0  0  3  0  0  0  0  0  0
  -17.1260  -28.3930   22.8230 C   0  0  0  0  0  3  0  0  0  0  0  0
  -26.2880  -32.4390   23.9300 C   0  0  0  0  0  3  0  0  0  0  0  0
  -25.9160  -33.7990   24.3830 N   0  0  0  0  0  0  0  0  0  0  0  0
  -26.2050  -34.9380   23.7400 C   0  0  0  0  0  0  0  0  0  0  0  0
  -26.8550  -34.9630   22.6930 O   0  0  0  0  0  0  0  0  0  0  0  0
  -25.3240  -33.8520   25.1980 H   0  0  0  0  0  0  0  0  0  0  0  0
  -24.4060  -36.7130   23.6430 C   0  0  0  0  0  1  0  0  0  0  0  0
  -25.6910  -36.2580   24.3540 C   0  0  0  0  0  3  0  0  0  0  0  0
  -27.8170  -37.1700   25.1910 C   0  0  0  0  0  1  0  0  0  0  0  0
  -26.6730  -37.3630   24.3070 N   0  0  0  0  0  0  0  0  0  0  0  0
  -26.2260  -38.2400   24.5570 H   0  0  0  0  0  0  0  0  0  0  0  0
  -26.8080  -31.6080   25.1680 C   0  0  1  0  0  0  0  0  0  0  0  0
  -25.7150  -31.2880   26.2140 C   0  0  0  0  0  1  0  0  0  0  0  0
  -27.4190  -30.2640   24.7150 C   0  0  0  0  0  1  0  0  0  0  0  0
  -27.9250  -32.3880   25.8990 C   0  0  0  0  0  1  0  0  0  0  0  0
  1  3  1  0
  2  7  1  0
  3  2  2  0
  4  1  2  0
  4  5  1  0
  5  6  2  0
  6 51  1  0
  6  2  1  0
  7  8  1  0
  7 14  2  0
  9  8  1  0
 10  9  1  0
 11  4  1  0
 12  5  1  0
 13 10  1  0
 16 21  1  0
 17 18  1  0
 17 16  1  0
 19 18  1  0
 19 26  1  0
 19 20  1  0
 21 15  1  0
 21 20  1  0
 22 15  1  0
 23 24  2  0
 24 43  1  0
 25 24  1  0
 25 28  1  0
 26 23  1  0
 26 27  1  0
 27 25  2  0
 28 29  1  0
 29 30  2  0
 31 34  1  0
 31 30  1  0
 32 31  2  0
 33 32  1  0
 33 28  2  0
 34 35  1  0
 35 40  2  0
 35 36  1  0
 36 37  2  0
 37 38  1  0
 38 42  1  0
 39 38  2  0
 40 39  1  0
 41 40  1  0
 43 44  1  0
 44 47  1  0
 44 46  1  0
 45 43  2  0
 48 49  1  0
 48 23  1  0
 50 48  1  0
 52 63  2  0
 53 51  1  0
 53 58  1  0
 54 62  1  0
 54 64  1  0
 55 61  1  0
 55 57  1  0
 56 62  1  0
 57 56  1  0
 58 57  2  0
 59 60  1  0
 59 53  2  0
 60 55  2  0
 61 54  1  0
 62 52  1  0
 64 66  2  0
 65 64  1  0
 67 65  1  0
 68 77  2  0
 68 73  1  0
 69 65  1  0
 69 73  1  0
 70 69  1  0
 71 72  1  0
 71 70  1  0
 72 68  1  0
 73 74  2  0
 74 75  1  0
 76 75  2  0
 77 76  1  0
 78 52  1  0
 78 79  1  0
 78 88  1  0
 79 82  1  0
 80 84  1  0
 80 79  1  0
 81 80  2  0
 84 83  1  0
 86 84  1  0
 86 87  1  0
 86 85  1  0
 88 91  1  1
 88 89  1  0
 90 88  1  0
M  ISO  4   6 101  10 100  15 100  51 101
M  END
>  <TORSDO>  (35) 
F 16

>  <SCORE>  (35) 
-15.584

>  <name>  (35) 
34

>  <ligand_id>  (35) 
34

>  <original_smiles>  (35) 
[H]c1c([H])c([H])c2c(c1[H])C([H])([H])C([H])([H])C([H])([H])C2([H])N([H])C(=O)C1([H])N(C(=O)C([H])(N([H])C(=O)C([H])(N([H])C([H])([H])[H])C([H])([H])[H])C(C([H])([H])[H])(C([H])([H])[H])C([H])([H])[H])C([H])([H])c2c([H])c(Oc3c4c(c([H])c(C([H])([H])[H])c3C([H])([H])[H])C(C(=O)N3C([H])([H])C([H])([H])C([H])([H])C([H])(n5nc(-c6c([H])c([H])c(Oc7c([H])c([H])c(F)c([H])c7F)c([H])c6[H])c(C(=O)N([H])[H])c5N([H])[H])C3([H])[H])(C([H])([H])[H])C([H])([H])C([H])([H])C4=O)c([H])c([H])c2C1([H])[H]

>  <smiles>  (35) 
[H]c1c([H])c([H])c2c(c1[H])C([H])([H])C([H])([H])C([H])([H])C2([H])N([H])C(=O)C1([H])N(C(=O)C([H])(N([H])C(=O)C([H])(N([H])C([H])([H])[H])C([H])([H])[H])C(C([H])([H])[H])(C([H])([H])[H])C([H])([H])[H])C([H])([H])c2c([H])c(Oc3c4c(c([H])c(C([H])([H])[H])c3C([H])([H])[H])C(C(=O)N3C([H])([H])C([H])([H])C([H])([H])C([H])(n5nc(-c6c([H])c([H])c(Oc7c([H])c([H])c(F)c([H])c7F)c([H])c6[H])c(C(=O)N([H])[H])c5N([H])[H])C3([H])[H])(C([H])([H])[H])C([H])([H])C([H])([H])C4=O)c([H])c([H])c2C1([H])[H]

$$$$
35:0:0
     RDKit          3D

 94103  0  0  1  0  0  0  0  0999 V2000
  -27.6160  -21.7330   19.9800 C   0  0  0  0  0  3  0  0  0  0  0  0
  -27.5490  -23.1520   19.8630 C   0  0  0  0  0  3  0  0  0  0  0  0
  -30.0130  -21.8340   20.0990 C   0  0  0  0  0  3  0  0  0  0  0  0
  -29.9580  -23.2660   19.9680 C   0  0  0  0  0  0  0  0  0  0  0  0
  -28.8470  -21.0240   20.0580 C   0  0  0  0  0  0  0  0  0  0  0  0
  -28.7130  -23.9560   19.8030 C   0  0  0  0  0  0  0  0  0  0  0  0
  -31.2400  -24.0290   19.9160 C   0  0  0  0  0  0  0  0  0  0  0  0
  -31.1510  -25.5310   19.6380 C   0  0  0  0  0  2  0  0  0  0  0  0
  -29.9790  -25.8700   18.7030 C   0  0  0  0  0  2  0  0  0  0  0  0
  -28.6350  -25.4590   19.3180 C   0  0  0  0  0  3  0  0  0  0  0  0
  -32.3500  -23.5150   20.0780 O   0  0  0  0  0  0  0  0  0  0  0  0
  -28.8700  -19.4870   19.8800 C   0  0  0  0  0  0  0  0  0  0  0  0
  -29.8080  -18.6860   20.4660 N   0  0  0  0  0  0  0  0  0  0  0  0
  -28.0100  -18.9840   19.1550 O   0  0  0  0  0  0  0  0  0  0  0  0
  -30.4430  -19.1480   21.1030 H   0  0  0  0  0  0  0  0  0  0  0  0
  -30.2090  -17.2990   20.0060 C   0  0  0  0  0  3  0  0  0  0  0  0
  -29.9110  -16.0090   20.8970 C   0  0  0  0  0  3  0  0  0  0  0  0
  -30.6340  -14.6680   20.4440 C   0  0  0  0  0  0  0  0  0  0  0  0
  -30.3900  -12.4360   19.3750 C   0  0  0  0  0  2  0  0  0  0  0  0
  -29.4600  -12.5890   18.1510 C   0  0  0  0  0  2  0  0  0  0  0  0
  -27.9830  -12.4370   18.5670 C   0  0  0  0  0  2  0  0  0  0  0  0
  -27.6240  -13.2980   19.8070 C   0  0  0  0  0  3  0  0  0  0  0  0
  -28.6740  -13.1440   20.9290 C   0  0  0  0  0  2  0  0  0  0  0  0
  -29.9900  -13.4600   20.3620 N   0  0  0  0  0  0  0  0  0  0  0  0
  -31.7970  -14.7670   20.0420 O   0  0  0  0  0  0  0  0  0  0  0  0
  -25.2290  -13.9070   20.5100 C   0  0  0  0  0  0  0  0  0  0  0  0
  -24.1560  -13.1390   20.8730 C   0  0  0  0  0  0  0  0  0  0  0  0
  -24.6130  -11.7860   20.8520 C   0  0  0  0  0  0  0  0  0  0  0  0
  -26.2710  -13.0210   20.2850 N   0  0  0  0  0  0  0  0  0  0  0  0
  -25.9040  -11.7410   20.5520 N   0  0  0  0  0  0  0  0  0  0  0  0
  -23.8780  -10.5280   21.0420 C   0  0  0  0  0  0  0  0  0  0  0  0
  -24.3050   -9.5580   21.9770 C   0  0  0  0  0  3  0  0  0  0  0  0
  -23.5730   -8.3640   22.1550 C   0  0  0  0  0  3  0  0  0  0  0  0
  -22.3990   -8.1320   21.3980 C   0  0  0  0  0  0  0  0  0  0  0  0
  -21.9930   -9.0900   20.4520 C   0  0  0  0  0  3  0  0  0  0  0  0
  -22.7260  -10.2750   20.2730 C   0  0  0  0  0  3  0  0  0  0  0  0
  -21.6380   -6.9900   21.4840 O   0  0  0  0  0  0  0  0  0  0  0  0
  -21.5900   -6.2450   22.6350 C   0  0  0  0  0  0  0  0  0  0  0  0
  -21.1770   -6.7990   23.8660 C   0  0  0  0  0  3  0  0  0  0  0  0
  -21.0750   -5.9790   25.0090 C   0  0  0  0  0  3  0  0  0  0  0  0
  -21.3750   -4.6070   24.9200 C   0  0  0  0  0  0  0  0  0  0  0  0
  -21.7810   -4.0520   23.6940 C   0  0  0  0  0  3  0  0  0  0  0  0
  -21.8850   -4.8680   22.5530 C   0  0  0  0  0  0  0  0  0  0  0  0
  -22.2570   -4.3240   21.3690 F   0  0  0  0  0  0  0  0  0  0  0  0
  -21.2700   -3.8180   26.0150 F   0  0  0  0  0  0  0  0  0  0  0  0
  -22.7580  -13.6240   21.1330 C   0  0  0  0  0  0  0  0  0  0  0  0
  -22.0210  -12.9330   21.9950 N   0  0  0  0  0  0  0  0  0  0  0  0
  -22.3290  -14.6500   20.6070 O   0  0  0  0  0  0  0  0  0  0  0  0
  -22.3810  -12.1030   22.4420 H   0  0  0  0  0  0  0  0  0  0  0  0
  -21.0820  -13.2370   22.2110 H   0  0  0  0  0  0  0  0  0  0  0  0
  -25.4020  -15.2770   20.3310 N   0  0  0  0  0  0  0  0  0  0  0  0
  -24.6390  -15.9370   20.4330 H   0  0  0  0  0  0  0  0  0  0  0  0
  -26.2590  -15.7100   20.0110 H   0  0  0  0  0  0  0  0  0  0  0  0
  -28.3540  -26.5390   20.2720 O   0  0  0  0  0  0  0  0  0  0  0  0
  -24.5980  -31.8950   23.2420 C   0  0  0  0  0  0  0  0  0  0  0  0
  -27.2160  -27.3530   20.1780 C   0  0  0  0  0  0  0  0  0  0  0  0
  -23.3890  -30.4900   21.6080 C   0  0  0  0  0  3  0  0  0  0  0  0
  -24.8370  -28.9390   20.1790 C   0  0  0  0  0  0  0  0  0  0  0  0
  -25.9240  -30.8200   21.4110 C   0  0  0  0  0  2  0  0  0  0  0  0
  -26.0030  -29.4400   20.7700 C   0  0  0  0  0  0  0  0  0  0  0  0
  -27.1910  -28.6530   20.7670 C   0  0  0  0  0  3  0  0  0  0  0  0
  -26.0210  -26.8910   19.5830 C   0  0  0  0  0  3  0  0  0  0  0  0
  -24.8460  -27.6690   19.5820 C   0  0  0  0  0  3  0  0  0  0  0  0
  -23.5970  -29.8070   20.2300 C   0  0  0  0  0  2  0  0  0  0  0  0
  -24.6560  -31.0850   22.1440 N   0  0  0  0  0  0  0  0  0  0  0  0
  -23.5150  -32.1730   23.7790 O   0  0  0  0  0  0  0  0  0  0  0  0
  -22.7320  -29.4770   22.5740 C   0  0  0  0  0  0  0  0  0  0  0  0
  -21.4050  -29.3010   22.4520 N   0  0  0  0  0  0  0  0  0  0  0  0
  -23.4130  -28.8510   23.3910 O   0  0  0  0  0  0  0  0  0  0  0  0
  -20.9170  -29.8570   21.7640 H   0  0  0  0  0  0  0  0  0  0  0  0
  -18.0270  -28.1160   22.9620 C   0  0  0  0  0  0  0  0  0  0  0  0
  -20.5870  -28.3670   23.2260 C   0  0  0  0  0  3  0  0  0  0  0  0
  -20.6830  -26.9350   22.6510 C   0  0  0  0  0  2  0  0  0  0  0  0
  -19.5760  -26.6150   21.6410 C   0  0  0  0  0  2  0  0  0  0  0  0
  -18.1970  -26.7650   22.2890 C   0  0  0  0  0  2  0  0  0  0  0  0
  -19.1490  -28.8760   23.3880 C   0  0  0  0  0  0  0  0  0  0  0  0
  -18.9350  -30.1400   23.9780 C   0  0  0  0  0  3  0  0  0  0  0  0
  -17.6330  -30.6460   24.1470 C   0  0  0  0  0  3  0  0  0  0  0  0
  -16.5250  -29.8840   23.7370 C   0  0  0  0  0  3  0  0  0  0  0  0
  -16.7230  -28.6220   23.1510 C   0  0  0  0  0  3  0  0  0  0  0  0
  -25.8820  -32.5280   23.8610 C   0  0  0  0  0  3  0  0  0  0  0  0
  -26.3980  -31.7590   25.1400 C   0  0  1  0  0  0  0  0  0  0  0  0
  -25.3060  -31.5280   26.2100 C   0  0  0  0  0  1  0  0  0  0  0  0
  -26.9760  -30.3780   24.7490 C   0  0  0  0  0  1  0  0  0  0  0  0
  -27.5520  -32.5510   25.7970 C   0  0  0  0  0  1  0  0  0  0  0  0
  -25.5740  -33.9270   24.1870 N   0  0  0  0  0  0  0  0  0  0  0  0
  -25.9100  -34.9780   23.4280 C   0  0  0  0  0  0  0  0  0  0  0  0
  -26.5830  -34.8720   22.3990 O   0  0  0  0  0  0  0  0  0  0  0  0
  -24.9710  -34.0830   24.9820 H   0  0  0  0  0  0  0  0  0  0  0  0
  -24.1880  -36.7760   23.0670 C   0  0  0  0  0  1  0  0  0  0  0  0
  -25.4250  -36.3680   23.8830 C   0  0  0  0  0  3  0  0  0  0  0  0
  -27.5600  -37.2480   24.7180 C   0  0  0  0  0  1  0  0  0  0  0  0
  -26.4600  -37.4190   23.7730 N   0  0  0  0  0  0  0  0  0  0  0  0
  -26.0550  -38.3390   23.9170 H   0  0  0  0  0  0  0  0  0  0  0  0
  1  5  1  0
  2  1  2  0
  4  3  1  0
  5  3  2  0
  6  2  1  0
  6  4  2  0
  7  4  1  0
  7 11  2  0
  8  7  1  0
  9 10  1  0
  9  8  1  0
 10  6  1  0
 10 54  1  0
 12  5  1  0
 12 13  1  0
 13 15  1  0
 14 12  2  0
 16 13  1  0
 16 17  2  0
 18 17  1  0
 19 24  1  0
 20 21  1  0
 20 19  1  0
 22 21  1  0
 22 29  1  0
 22 23  1  0
 24 18  1  0
 24 23  1  0
 25 18  2  0
 26 27  2  0
 27 46  1  0
 28 27  1  0
 28 31  1  0
 29 26  1  0
 29 30  1  0
 30 28  2  0
 31 32  1  0
 32 33  2  0
 34 37  1  0
 34 33  1  0
 35 34  2  0
 36 35  1  0
 36 31  2  0
 37 38  1  0
 38 39  1  0
 39 40  2  0
 41 40  1  0
 41 45  1  0
 42 41  2  0
 43 38  2  0
 43 42  1  0
 44 43  1  0
 46 47  1  0
 47 50  1  0
 47 49  1  0
 48 46  2  0
 51 52  1  0
 51 26  1  0
 53 51  1  0
 55 66  2  0
 56 54  1  0
 56 61  1  0
 57 65  1  0
 57 67  1  0
 58 64  1  0
 58 60  1  0
 59 65  1  0
 60 59  1  0
 61 60  2  0
 62 56  2  0
 63 62  1  0
 63 58  2  0
 64 57  1  0
 65 55  1  0
 67 69  2  0
 68 67  1  0
 70 68  1  0
 71 80  2  0
 71 76  1  0
 72 68  1  0
 72 76  1  0
 73 72  1  0
 74 75  1  0
 74 73  1  0
 75 71  1  0
 76 77  2  0
 77 78  1  0
 79 78  2  0
 80 79  1  0
 81 55  1  0
 81 86  1  0
 81 82  1  0
 82 85  1  1
 82 83  1  0
 84 82  1  0
 86 89  1  0
 87 91  1  0
 87 86  1  0
 88 87  2  0
 91 90  1  0
 93 91  1  0
 93 94  1  0
 93 92  1  0
M  ISO  4  10 101  17 100  18 100  54 101
M  END
>  <TORSDO>  (36) 
F 19

>  <SCORE>  (36) 
-14.359

>  <name>  (36) 
35

>  <ligand_id>  (36) 
35

>  <original_smiles>  (36) 
[H]c1c([H])c([H])c2c(c1[H])C([H])([H])C([H])([H])C([H])([H])C2([H])N([H])C(=O)C1([H])N(C(=O)C([H])(N([H])C(=O)C([H])(N([H])C([H])([H])[H])C([H])([H])[H])C(C([H])([H])[H])(C([H])([H])[H])C([H])([H])[H])C([H])([H])c2c([H])c(OC3([H])c4c([H])c([H])c(C(=O)N([H])C([H])([H])C([H])([H])C(=O)N5C([H])([H])C([H])([H])C([H])([H])C([H])(n6nc(-c7c([H])c([H])c(Oc8c([H])c([H])c(F)c([H])c8F)c([H])c7[H])c(C(=O)N([H])[H])c6N([H])[H])C5([H])[H])c([H])c4C(=O)C([H])([H])C3([H])[H])c([H])c([H])c2C1([H])[H]

>  <smiles>  (36) 
[H]c1c([H])c([H])c2c(c1[H])C([H])([H])C([H])([H])C([H])([H])C2([H])N([H])C(=O)C1([H])N(C(=O)C([H])(N([H])C(=O)C([H])(N([H])C([H])([H])[H])C([H])([H])[H])C(C([H])([H])[H])(C([H])([H])[H])C([H])([H])[H])C([H])([H])c2c([H])c(OC3([H])c4c([H])c([H])c(C(=O)N([H])C([H])([H])C([H])([H])C(=O)N5C([H])([H])C([H])([H])C([H])([H])C([H])(n6nc(-c7c([H])c([H])c(Oc8c([H])c([H])c(F)c([H])c8F)c([H])c7[H])c(C(=O)N([H])[H])c6N([H])[H])C5([H])[H])c([H])c4C(=O)C([H])([H])C3([H])[H])c([H])c([H])c2C1([H])[H]

$$$$
36:0:0
     RDKit          3D

 89 97  0  0  1  0  0  0  0  0999 V2000
  -27.1480  -22.6060   21.3680 C   0  0  0  0  0  3  0  0  0  0  0  0
  -28.1410  -23.2650   20.5580 C   0  0  0  0  0  0  0  0  0  0  0  0
  -26.1660  -23.3720   21.9090 C   0  0  0  0  0  0  0  0  0  0  0  0
  -27.7760  -24.7730   20.4570 C   0  0  0  0  0  0  0  0  0  0  0  0
  -25.0380  -22.9300   22.7820 C   0  0  0  0  0  1  0  0  0  0  0  0
  -26.3620  -25.0190   21.4890 S   0  0  0  0  0  0  0  0  0  0  0  0
  -29.2350  -21.9960   20.1350 C   0  0  0  0  0  0  0  0  0  0  0  0
  -29.1320  -20.5320   20.4400 N   0  0  0  0  0  0  0  0  0  0  0  0
  -30.2410  -22.3340   19.5110 O   0  0  0  0  0  0  0  0  0  0  0  0
  -28.2770  -20.3380   20.9410 H   0  0  0  0  0  0  0  0  0  0  0  0
  -30.0340  -19.1180   20.2280 C   0  0  0  0  0  3  0  0  0  0  0  0
  -29.7310  -17.3560   20.5790 C   0  0  0  0  0  3  0  0  0  0  0  0
  -30.5880  -15.8300   20.2820 C   0  0  0  0  0  0  0  0  0  0  0  0
  -30.6430  -13.3730   19.3920 C   0  0  0  0  0  2  0  0  0  0  0  0
  -29.7240  -13.1580   18.1600 C   0  0  0  0  0  2  0  0  0  0  0  0
  -28.2800  -12.8550   18.5970 C   0  0  0  0  0  2  0  0  0  0  0  0
  -27.8120  -13.8020   19.7290 C   0  0  0  0  0  3  0  0  0  0  0  0
  -28.8570  -13.9580   20.8530 C   0  0  0  0  0  2  0  0  0  0  0  0
  -30.0870  -14.4920   20.2440 N   0  0  0  0  0  0  0  0  0  0  0  0
  -31.7940  -15.8610   19.9870 O   0  0  0  0  0  0  0  0  0  0  0  0
  -25.4450  -14.3140   20.5240 C   0  0  0  0  0  0  0  0  0  0  0  0
  -24.3920  -13.5180   20.8760 C   0  0  0  0  0  0  0  0  0  0  0  0
  -24.8690  -12.1730   20.7950 C   0  0  0  0  0  0  0  0  0  0  0  0
  -26.4920  -13.4570   20.2390 N   0  0  0  0  0  0  0  0  0  0  0  0
  -26.1580  -12.1590   20.4710 N   0  0  0  0  0  0  0  0  0  0  0  0
  -24.1520  -10.9000   20.9500 C   0  0  0  0  0  0  0  0  0  0  0  0
  -24.5680   -9.9230   21.8820 C   0  0  0  0  0  3  0  0  0  0  0  0
  -23.8490   -8.7180   22.0260 C   0  0  0  0  0  3  0  0  0  0  0  0
  -22.6980   -8.4790   21.2370 C   0  0  0  0  0  0  0  0  0  0  0  0
  -22.3010   -9.4430   20.2950 C   0  0  0  0  0  3  0  0  0  0  0  0
  -23.0220  -10.6410   20.1490 C   0  0  0  0  0  3  0  0  0  0  0  0
  -21.9520   -7.3260   21.2900 O   0  0  0  0  0  0  0  0  0  0  0  0
  -21.8340   -6.5970   22.4470 C   0  0  0  0  0  0  0  0  0  0  0  0
  -21.2950   -7.1550   23.6260 C   0  0  0  0  0  3  0  0  0  0  0  0
  -21.1270   -6.3510   24.7720 C   0  0  0  0  0  3  0  0  0  0  0  0
  -21.4880   -4.9900   24.7370 C   0  0  0  0  0  0  0  0  0  0  0  0
  -22.0210   -4.4320   23.5620 C   0  0  0  0  0  3  0  0  0  0  0  0
  -22.1890   -5.2340   22.4190 C   0  0  0  0  0  0  0  0  0  0  0  0
  -22.6830   -4.6860   21.2820 F   0  0  0  0  0  0  0  0  0  0  0  0
  -21.3210   -4.2160   25.8350 F   0  0  0  0  0  0  0  0  0  0  0  0
  -22.9940  -13.9750   21.1710 C   0  0  0  0  0  0  0  0  0  0  0  0
  -22.2820  -13.2530   22.0290 N   0  0  0  0  0  0  0  0  0  0  0  0
  -22.5440  -15.0090   20.6780 O   0  0  0  0  0  0  0  0  0  0  0  0
  -22.6610  -12.4180   22.4490 H   0  0  0  0  0  0  0  0  0  0  0  0
  -21.3440  -13.5420   22.2690 H   0  0  0  0  0  0  0  0  0  0  0  0
  -25.5970  -15.6920   20.3940 N   0  0  0  0  0  0  0  0  0  0  0  0
  -24.8280  -16.3370   20.5390 H   0  0  0  0  0  0  0  0  0  0  0  0
  -26.4430  -16.1500   20.0780 H   0  0  0  0  0  0  0  0  0  0  0  0
  -28.0500  -26.1830   19.9710 O   0  0  0  0  0  0  0  0  0  0  0  0
  -24.6900  -32.1380   23.3150 C   0  0  0  0  0  0  0  0  0  0  0  0
  -27.1180  -27.3680   20.0130 C   0  0  0  0  0  0  0  0  0  0  0  0
  -23.4600  -30.8650   21.6040 C   0  0  0  0  0  3  0  0  0  0  0  0
  -24.8700  -29.3190   20.0790 C   0  0  0  0  0  0  0  0  0  0  0  0
  -26.0310  -31.0190   21.4660 C   0  0  0  0  0  2  0  0  0  0  0  0
  -26.0670  -29.6460   20.7310 C   0  0  0  0  0  0  0  0  0  0  0  0
  -27.1840  -28.6890   20.6850 C   0  0  0  0  0  3  0  0  0  0  0  0
  -25.9090  -27.2230   19.2930 C   0  0  0  0  0  3  0  0  0  0  0  0
  -24.8180  -28.1290   19.3390 C   0  0  0  0  0  3  0  0  0  0  0  0
  -23.6710  -30.2610   20.1880 C   0  0  0  0  0  2  0  0  0  0  0  0
  -24.7490  -31.3660   22.1810 N   0  0  0  0  0  0  0  0  0  0  0  0
  -23.6100  -32.4220   23.8580 O   0  0  0  0  0  0  0  0  0  0  0  0
  -22.7480  -29.8290   22.5140 C   0  0  0  0  0  0  0  0  0  0  0  0
  -21.4170  -29.6810   22.3700 N   0  0  0  0  0  0  0  0  0  0  0  0
  -23.4010  -29.1610   23.3200 O   0  0  0  0  0  0  0  0  0  0  0  0
  -20.9440  -30.2690   21.6990 H   0  0  0  0  0  0  0  0  0  0  0  0
  -18.0140  -28.5140   22.8390 C   0  0  0  0  0  0  0  0  0  0  0  0
  -20.5820  -28.7140   23.0910 C   0  0  0  0  0  3  0  0  0  0  0  0
  -20.6490  -27.3190   22.4270 C   0  0  0  0  0  2  0  0  0  0  0  0
  -19.5300  -27.0830   21.4060 C   0  0  0  0  0  2  0  0  0  0  0  0
  -18.1570  -27.2090   22.0730 C   0  0  0  0  0  2  0  0  0  0  0  0
  -19.1510  -29.2280   23.3030 C   0  0  0  0  0  0  0  0  0  0  0  0
  -18.9590  -30.4510   23.9820 C   0  0  0  0  0  3  0  0  0  0  0  0
  -17.6640  -30.9580   24.2000 C   0  0  0  0  0  3  0  0  0  0  0  0
  -16.5420  -30.2410   23.7490 C   0  0  0  0  0  3  0  0  0  0  0  0
  -16.7180  -29.0190   23.0750 C   0  0  0  0  0  3  0  0  0  0  0  0
  -25.9780  -32.7160   23.9750 C   0  0  0  0  0  3  0  0  0  0  0  0
  -26.4740  -31.8680   25.2110 C   0  0  1  0  0  0  0  0  0  0  0  0
  -25.3730  -31.6000   26.2660 C   0  0  0  0  0  1  0  0  0  0  0  0
  -27.0290  -30.4980   24.7600 C   0  0  0  0  0  1  0  0  0  0  0  0
  -27.6400  -32.6020   25.9140 C   0  0  0  0  0  1  0  0  0  0  0  0
  -25.6910  -34.0990   24.3940 N   0  0  0  0  0  0  0  0  0  0  0  0
  -26.0350  -35.1970   23.7070 C   0  0  0  0  0  0  0  0  0  0  0  0
  -26.6890  -35.1500   22.6610 O   0  0  0  0  0  0  0  0  0  0  0  0
  -25.1090  -34.2100   25.2110 H   0  0  0  0  0  0  0  0  0  0  0  0
  -24.3370  -37.0460   23.5060 C   0  0  0  0  0  1  0  0  0  0  0  0
  -25.5840  -36.5630   24.2630 C   0  0  0  0  0  3  0  0  0  0  0  0
  -27.7470  -37.3610   25.1140 C   0  0  0  0  0  1  0  0  0  0  0  0
  -26.6350  -37.6030   24.1980 N   0  0  0  0  0  0  0  0  0  0  0  0
  -26.2480  -38.5200   24.4070 H   0  0  0  0  0  0  0  0  0  0  0  0
  1  3  2  0
  2  1  1  0
  3  5  1  0
  4  2  2  0
  4  6  1  0
  6  3  1  0
  7  8  1  0
  7  2  1  0
  8 10  1  0
  9  7  2  0
 11  8  1  0
 11 12  2  0
 13 12  1  0
 14 19  1  0
 15 16  1  0
 15 14  1  0
 17 16  1  0
 17 24  1  0
 17 18  1  0
 19 13  1  0
 19 18  1  0
 20 13  2  0
 21 22  2  0
 22 41  1  0
 23 22  1  0
 23 26  1  0
 24 25  1  0
 24 21  1  0
 25 23  2  0
 26 27  1  0
 27 28  2  0
 29 32  1  0
 29 28  1  0
 30 29  2  0
 31 30  1  0
 31 26  2  0
 32 33  1  0
 33 34  1  0
 34 35  2  0
 36 35  1  0
 36 40  1  0
 37 36  2  0
 38 33  2  0
 38 37  1  0
 39 38  1  0
 41 42  1  0
 42 45  1  0
 42 44  1  0
 43 41  2  0
 46 21  1  0
 46 47  1  0
 48 46  1  0
 49 51  1  0
 49  4  1  0
 50 61  2  0
 51 56  1  0
 52 60  1  0
 52 62  1  0
 53 59  1  0
 53 55  1  0
 54 60  1  0
 55 54  1  0
 56 55  2  0
 57 58  1  0
 57 51  2  0
 58 53  2  0
 59 52  1  0
 60 50  1  0
 62 64  2  0
 63 62  1  0
 65 63  1  0
 66 75  2  0
 66 71  1  0
 67 63  1  0
 67 71  1  0
 68 67  1  0
 69 70  1  0
 69 68  1  0
 70 66  1  0
 71 72  2  0
 72 73  1  0
 74 73  2  0
 75 74  1  0
 76 50  1  0
 76 81  1  0
 76 77  1  0
 77 80  1  1
 77 78  1  0
 79 77  1  0
 81 84  1  0
 82 86  1  0
 82 81  1  0
 83 82  2  0
 86 85  1  0
 88 86  1  0
 88 89  1  0
 88 87  1  0
M  ISO  4   4 101  12 100  13 100  49 101
M  END
>  <TORSDO>  (37) 
F 19

>  <SCORE>  (37) 
-13.287

>  <name>  (37) 
36

>  <ligand_id>  (37) 
36

>  <original_smiles>  (37) 
[H]c1c([H])c([H])c2c(c1[H])C([H])([H])C([H])([H])C([H])([H])C2([H])N([H])C(=O)C1([H])N(C(=O)C([H])(N([H])C(=O)C([H])(N([H])C([H])([H])[H])C([H])([H])[H])C(C([H])([H])[H])(C([H])([H])[H])C([H])([H])[H])C([H])([H])c2c([H])c(Oc3sc(C([H])([H])[H])c([H])c3C(=O)N([H])C([H])([H])C([H])([H])C(=O)N3C([H])([H])C([H])([H])C([H])([H])C([H])(n4nc(-c5c([H])c([H])c(Oc6c([H])c([H])c(F)c([H])c6F)c([H])c5[H])c(C(=O)N([H])[H])c4N([H])[H])C3([H])[H])c([H])c([H])c2C1([H])[H]

>  <smiles>  (37) 
[H]c1c([H])c([H])c2c(c1[H])C([H])([H])C([H])([H])C([H])([H])C2([H])N([H])C(=O)C1([H])N(C(=O)C([H])(N([H])C(=O)C([H])(N([H])C([H])([H])[H])C([H])([H])[H])C(C([H])([H])[H])(C([H])([H])[H])C([H])([H])[H])C([H])([H])c2c([H])c(Oc3sc(C([H])([H])[H])c([H])c3C(=O)N([H])C([H])([H])C([H])([H])C(=O)N3C([H])([H])C([H])([H])C([H])([H])C([H])(n4nc(-c5c([H])c([H])c(Oc6c([H])c([H])c(F)c([H])c6F)c([H])c5[H])c(C(=O)N([H])[H])c4N([H])[H])C3([H])[H])c([H])c([H])c2C1([H])[H]

$$$$
37:0:0
     RDKit          3D

 90 98  0  0  1  0  0  0  0  0999 V2000
  -27.6640  -22.0400   21.4070 C   0  0  0  0  0  3  0  0  0  0  0  0
  -26.9650  -23.1450   21.9380 C   0  0  0  0  0  3  0  0  0  0  0  0
  -28.7790  -23.6220   19.9460 C   0  0  0  0  0  3  0  0  0  0  0  0
  -28.6360  -22.1930   20.4050 C   0  0  0  0  0  0  0  0  0  0  0  0
  -27.1530  -24.4890   21.5190 C   0  0  0  0  0  0  0  0  0  0  0  0
  -28.0370  -24.8320   20.4480 C   0  0  0  0  0  0  0  0  0  0  0  0
  -26.3950  -25.5380   22.3250 C   0  0  0  0  0  1  0  0  0  0  0  0
  -28.2120  -26.2630   20.0570 O   0  0  0  0  0  0  0  0  0  0  0  0
  -24.6090  -31.9400   23.1730 C   0  0  0  0  0  0  0  0  0  0  0  0
  -27.1800  -27.2860   20.0220 C   0  0  0  0  0  0  0  0  0  0  0  0
  -23.4060  -30.5730   21.5120 C   0  0  0  0  0  3  0  0  0  0  0  0
  -24.8530  -29.0420   20.0300 C   0  0  0  0  0  0  0  0  0  0  0  0
  -25.9560  -30.8510   21.3350 C   0  0  0  0  0  2  0  0  0  0  0  0
  -26.0320  -29.4710   20.6520 C   0  0  0  0  0  0  0  0  0  0  0  0
  -27.1940  -28.6070   20.6370 C   0  0  0  0  0  3  0  0  0  0  0  0
  -25.9880  -26.9770   19.3350 C   0  0  0  0  0  3  0  0  0  0  0  0
  -24.8460  -27.8110   19.3550 C   0  0  0  0  0  3  0  0  0  0  0  0
  -23.6190  -29.9310   20.1140 C   0  0  0  0  0  2  0  0  0  0  0  0
  -24.6780  -31.1440   22.0620 N   0  0  0  0  0  0  0  0  0  0  0  0
  -23.5260  -32.2050   23.7160 O   0  0  0  0  0  0  0  0  0  0  0  0
  -22.7430  -29.5400   22.4570 C   0  0  0  0  0  0  0  0  0  0  0  0
  -21.4150  -29.3620   22.3380 N   0  0  0  0  0  0  0  0  0  0  0  0
  -23.4270  -28.9030   23.2610 O   0  0  0  0  0  0  0  0  0  0  0  0
  -20.9210  -29.9260   21.6620 H   0  0  0  0  0  0  0  0  0  0  0  0
  -18.0440  -28.1450   22.8710 C   0  0  0  0  0  0  0  0  0  0  0  0
  -20.6090  -28.4010   23.0950 C   0  0  0  0  0  3  0  0  0  0  0  0
  -20.6970  -26.9900   22.4700 C   0  0  0  0  0  2  0  0  0  0  0  0
  -19.5750  -26.6990   21.4700 C   0  0  0  0  0  2  0  0  0  0  0  0
  -18.2060  -26.8200   22.1450 C   0  0  0  0  0  2  0  0  0  0  0  0
  -19.1710  -28.8950   23.3030 C   0  0  0  0  0  0  0  0  0  0  0  0
  -18.9620  -30.1340   23.9450 C   0  0  0  0  0  3  0  0  0  0  0  0
  -17.6610  -30.6270   24.1570 C   0  0  0  0  0  3  0  0  0  0  0  0
  -16.5490  -29.8750   23.7390 C   0  0  0  0  0  3  0  0  0  0  0  0
  -16.7410  -28.6360   23.1030 C   0  0  0  0  0  3  0  0  0  0  0  0
  -25.8880  -32.5710   23.8050 C   0  0  0  0  0  3  0  0  0  0  0  0
  -25.5760  -33.9660   24.1500 N   0  0  0  0  0  0  0  0  0  0  0  0
  -25.9080  -35.0310   23.4070 C   0  0  0  0  0  0  0  0  0  0  0  0
  -26.5760  -34.9400   22.3740 O   0  0  0  0  0  0  0  0  0  0  0  0
  -24.9830  -34.1140   24.9540 H   0  0  0  0  0  0  0  0  0  0  0  0
  -24.1930  -36.8420   23.0720 C   0  0  0  0  0  1  0  0  0  0  0  0
  -25.4260  -36.4160   23.8840 C   0  0  0  0  0  3  0  0  0  0  0  0
  -27.5550  -37.2820   24.7510 C   0  0  0  0  0  1  0  0  0  0  0  0
  -26.4660  -37.4650   23.7950 N   0  0  0  0  0  0  0  0  0  0  0  0
  -26.0630  -38.3870   23.9430 H   0  0  0  0  0  0  0  0  0  0  0  0
  -26.3960  -31.7920   25.0800 C   0  0  1  0  0  0  0  0  0  0  0  0
  -25.2950  -31.5440   26.1400 C   0  0  0  0  0  1  0  0  0  0  0  0
  -26.9840  -30.4170   24.6880 C   0  0  0  0  0  1  0  0  0  0  0  0
  -27.5420  -32.5820   25.7530 C   0  0  0  0  0  1  0  0  0  0  0  0
  -29.4940  -20.8220   19.9740 C   0  0  0  0  0  3  0  0  0  0  0  0
  -29.1320  -19.1750   20.3130 C   0  0  0  0  0  3  0  0  0  0  0  0
  -30.6500  -15.2610   20.1090 C   0  0  0  0  0  0  0  0  0  0  0  0
  -30.5760  -12.8740   19.2230 C   0  0  0  0  0  2  0  0  0  0  0  0
  -29.6320  -12.7710   18.0030 C   0  0  0  0  0  2  0  0  0  0  0  0
  -28.1780  -12.5330   18.4540 C   0  0  0  0  0  2  0  0  0  0  0  0
  -27.7660  -13.4610   19.6270 C   0  0  0  0  0  3  0  0  0  0  0  0
  -28.8350  -13.5320   20.7350 C   0  0  0  0  0  2  0  0  0  0  0  0
  -30.0770  -13.9810   20.0970 N   0  0  0  0  0  0  0  0  0  0  0  0
  -31.8530  -15.2950   19.8280 O   0  0  0  0  0  0  0  0  0  0  0  0
  -30.1570  -17.8620   20.0980 C   0  0  0  0  0  0  0  0  0  0  0  0
  -29.8570  -16.4600   20.2460 N   0  0  0  0  0  0  0  0  0  0  0  0
  -31.3030  -18.1890   19.7780 O   0  0  0  0  0  0  0  0  0  0  0  0
  -28.8930  -16.2790   20.4680 H   0  0  0  0  0  0  0  0  0  0  0  0
  -25.3970  -13.9960   20.4210 C   0  0  0  0  0  0  0  0  0  0  0  0
  -24.3500  -13.2040   20.8010 C   0  0  0  0  0  0  0  0  0  0  0  0
  -24.8290  -11.8590   20.7460 C   0  0  0  0  0  0  0  0  0  0  0  0
  -26.4450  -13.1350   20.1500 N   0  0  0  0  0  0  0  0  0  0  0  0
  -26.1150  -11.8420   20.4100 N   0  0  0  0  0  0  0  0  0  0  0  0
  -24.1200  -10.5870   20.9320 C   0  0  0  0  0  0  0  0  0  0  0  0
  -24.5270   -9.6490   21.9070 C   0  0  0  0  0  3  0  0  0  0  0  0
  -23.8130   -8.4440   22.0830 C   0  0  0  0  0  3  0  0  0  0  0  0
  -22.6780   -8.1680   21.2830 C   0  0  0  0  0  0  0  0  0  0  0  0
  -22.2920   -9.0950   20.2990 C   0  0  0  0  0  3  0  0  0  0  0  0
  -23.0060  -10.2900   20.1220 C   0  0  0  0  0  3  0  0  0  0  0  0
  -21.9410   -7.0100   21.3640 O   0  0  0  0  0  0  0  0  0  0  0  0
  -21.7910   -6.3340   22.5460 C   0  0  0  0  0  0  0  0  0  0  0  0
  -21.1870   -6.9290   23.6750 C   0  0  0  0  0  3  0  0  0  0  0  0
  -20.9910   -6.1740   24.8500 C   0  0  0  0  0  3  0  0  0  0  0  0
  -21.3880   -4.8250   24.8950 C   0  0  0  0  0  0  0  0  0  0  0  0
  -21.9850   -4.2290   23.7700 C   0  0  0  0  0  3  0  0  0  0  0  0
  -22.1840   -4.9810   22.5990 C   0  0  0  0  0  0  0  0  0  0  0  0
  -22.7390   -4.3940   21.5120 F   0  0  0  0  0  0  0  0  0  0  0  0
  -21.1930   -4.0990   26.0200 F   0  0  0  0  0  0  0  0  0  0  0  0
  -22.9530  -13.6620   21.1030 C   0  0  0  0  0  0  0  0  0  0  0  0
  -22.2450  -12.9430   21.9650 N   0  0  0  0  0  0  0  0  0  0  0  0
  -22.4990  -14.6950   20.6100 O   0  0  0  0  0  0  0  0  0  0  0  0
  -22.6270  -12.1070   22.3840 H   0  0  0  0  0  0  0  0  0  0  0  0
  -21.3110  -13.2360   22.2110 H   0  0  0  0  0  0  0  0  0  0  0  0
  -25.5390  -15.3710   20.2540 N   0  0  0  0  0  0  0  0  0  0  0  0
  -24.7570  -16.0070   20.3700 H   0  0  0  0  0  0  0  0  0  0  0  0
  -26.3510  -15.8240   19.8560 H   0  0  0  0  0  0  0  0  0  0  0  0
  1  2  1  0
  3  4  1  0
  3  6  2  0
  4  1  2  0
  5  2  2  0
  5  7  1  0
  6  5  1  0
  8  6  1  0
  9 20  2  0
 10  8  1  0
 10 15  1  0
 11 19  1  0
 11 21  1  0
 12 18  1  0
 12 14  1  0
 13 19  1  0
 14 13  1  0
 15 14  2  0
 16 17  1  0
 16 10  2  0
 17 12  2  0
 18 11  1  0
 19  9  1  0
 21 23  2  0
 22 21  1  0
 24 22  1  0
 25 34  2  0
 25 30  1  0
 26 22  1  0
 26 30  1  0
 27 26  1  0
 28 29  1  0
 28 27  1  0
 29 25  1  0
 30 31  2  0
 31 32  1  0
 33 32  2  0
 34 33  1  0
 35  9  1  0
 35 36  1  0
 35 45  1  0
 36 39  1  0
 37 41  1  0
 37 36  1  0
 38 37  2  0
 41 40  1  0
 43 41  1  0
 43 44  1  0
 43 42  1  0
 45 48  1  1
 45 46  1  0
 47 45  1  0
 49 50  2  0
 49  4  1  0
 51 60  1  0
 52 57  1  0
 53 54  1  0
 53 52  1  0
 55 54  1  0
 55 66  1  0
 55 56  1  0
 57 51  1  0
 57 56  1  0
 58 51  2  0
 59 60  1  0
 59 50  1  0
 60 62  1  0
 61 59  2  0
 63 64  2  0
 64 83  1  0
 65 64  1  0
 65 68  1  0
 66 67  1  0
 66 63  1  0
 67 65  2  0
 68 69  1  0
 69 70  2  0
 71 74  1  0
 71 70  1  0
 72 71  2  0
 73 72  1  0
 73 68  2  0
 74 75  1  0
 75 80  2  0
 75 76  1  0
 76 77  2  0
 77 78  1  0
 78 82  1  0
 79 78  2  0
 80 79  1  0
 81 80  1  0
 83 84  1  0
 84 87  1  0
 84 86  1  0
 85 83  2  0
 88 89  1  0
 88 63  1  0
 90 88  1  0
M  ISO  4   6 101   8 101  51 100  60 100
M  END
>  <TORSDO>  (38) 
F 18

>  <SCORE>  (38) 
-15.287

>  <name>  (38) 
37

>  <ligand_id>  (38) 
37

>  <original_smiles>  (38) 
[H]c1c([H])c([H])c2c(c1[H])C([H])([H])C([H])([H])C([H])([H])C2([H])N([H])C(=O)C1([H])N(C(=O)C([H])(N([H])C(=O)C([H])(N([H])C([H])([H])[H])C([H])([H])[H])C(C([H])([H])[H])(C([H])([H])[H])C([H])([H])[H])C([H])([H])c2c([H])c(Oc3c([H])c(C([H])([H])C([H])([H])C(=O)N([H])C(=O)N4C([H])([H])C([H])([H])C([H])([H])C([H])(n5nc(-c6c([H])c([H])c(Oc7c([H])c([H])c(F)c([H])c7F)c([H])c6[H])c(C(=O)N([H])[H])c5N([H])[H])C4([H])[H])c([H])c([H])c3C([H])([H])[H])c([H])c([H])c2C1([H])[H]

>  <smiles>  (38) 
[H]c1c([H])c([H])c2c(c1[H])C([H])([H])C([H])([H])C([H])([H])C2([H])N([H])C(=O)C1([H])N(C(=O)C([H])(N([H])C(=O)C([H])(N([H])C([H])([H])[H])C([H])([H])[H])C(C([H])([H])[H])(C([H])([H])[H])C([H])([H])[H])C([H])([H])c2c([H])c(Oc3c([H])c(C([H])([H])C([H])([H])C(=O)N([H])C(=O)N4C([H])([H])C([H])([H])C([H])([H])C([H])(n5nc(-c6c([H])c([H])c(Oc7c([H])c([H])c(F)c([H])c7F)c([H])c6[H])c(C(=O)N([H])[H])c5N([H])[H])C4([H])[H])c([H])c([H])c3C([H])([H])[H])c([H])c([H])c2C1([H])[H]

$$$$
38:0:0
     RDKit          3D

 97101  0  0  1  0  0  0  0  0999 V2000
  -24.8340  -12.2170   18.8680 C   0  0  0  0  0  3  0  0  0  0  0  0
  -24.1490  -12.4350   21.5830 C   0  0  0  0  0  1  0  0  0  0  0  0
  -26.9290  -10.7800   20.8800 C   0  0  0  0  0  2  0  0  0  0  0  0
  -24.0190  -13.4090   19.9560 C   0  0  0  0  0  2  0  0  0  0  0  0
  -26.2610  -11.0840   19.1740 C   0  0  2  0  0  0  0  0  0  0  0  0
  -25.8220  -11.5070   22.2950 C   0  0  0  0  0  2  0  0  0  0  0  0
  -26.6860  -10.0380   18.1550 C   0  0  0  0  0  1  0  0  0  0  0  0
  -23.9530  -15.5520   19.5810 C   0  0  0  0  0  2  0  0  0  0  0  0
  -24.6260  -17.2910   19.7200 N   0  0  0  0  0  2  0  0  0  0  0  0
  -22.9290  -15.6860   18.9150 O   0  0  0  0  0  1  0  0  0  0  0  0
  -24.0210  -17.4650   18.9260 H   0  0  0  0  0  0  0  0  0  0  0  0
  -24.9010  -19.4890   19.8130 C   0  0  0  0  0 15  0  0  0  0  0  0
  -25.7080  -21.8080   19.3950 C   0  0  0  0  0 15  0  0  0  0  0  0
  -26.5200  -23.8680   19.6140 O   0  0  0  0  0  1  0  0  0  0  0  0
  -24.7330  -31.5330   22.6300 C   0  0  0  0  0  0  0  0  0  0  0  0
  -26.3080  -25.6210   19.5920 C   0  0  0  0  0  0  0  0  0  0  0  0
  -23.4880  -30.1260   21.0960 C   0  0  0  0  0  3  0  0  0  0  0  0
  -24.7400  -28.3850   19.5590 C   0  0  0  0  0  0  0  0  0  0  0  0
  -26.0580  -29.9170   20.9600 C   0  0  0  0  0  2  0  0  0  0  0  0
  -25.9300  -28.4240   20.2670 C   0  0  0  0  0  0  0  0  0  0  0  0
  -26.7100  -27.0630   20.2600 C   0  0  0  0  0  3  0  0  0  0  0  0
  -25.3400  -26.0840   18.6900 C   0  0  0  0  0  3  0  0  0  0  0  0
  -24.5550  -27.2790   18.7250 C   0  0  0  0  0  3  0  0  0  0  0  0
  -23.6590  -29.4780   19.6910 C   0  0  0  0  0  2  0  0  0  0  0  0
  -24.8110  -30.5940   21.6020 N   0  0  0  0  0  0  0  0  0  0  0  0
  -23.6450  -31.8590   23.1500 O   0  0  0  0  0  0  0  0  0  0  0  0
  -22.8200  -29.1430   22.0940 C   0  0  0  0  0  0  0  0  0  0  0  0
  -21.4820  -29.0090   22.0680 N   0  0  0  0  0  0  0  0  0  0  0  0
  -23.5230  -28.5130   22.8890 O   0  0  0  0  0  0  0  0  0  0  0  0
  -20.9550  -29.5680   21.4120 H   0  0  0  0  0  0  0  0  0  0  0  0
  -18.1440  -27.7900   22.8280 C   0  0  0  0  0  0  0  0  0  0  0  0
  -20.7160  -28.0670   22.8920 C   0  0  0  0  0  3  0  0  0  0  0  0
  -20.7770  -26.6400   22.2980 C   0  0  0  0  0  2  0  0  0  0  0  0
  -19.6050  -26.3280   21.3640 C   0  0  0  0  0  2  0  0  0  0  0  0
  -18.2760  -26.4560   22.1120 C   0  0  0  0  0  2  0  0  0  0  0  0
  -19.2900  -28.5540   23.1780 C   0  0  0  0  0  0  0  0  0  0  0  0
  -19.1080  -29.8000   23.8170 C   0  0  0  0  0  3  0  0  0  0  0  0
  -17.8160  -30.2830   24.1060 C   0  0  0  0  0  3  0  0  0  0  0  0
  -16.6890  -29.5160   23.7660 C   0  0  0  0  0  3  0  0  0  0  0  0
  -16.8530  -28.2710   23.1320 C   0  0  0  0  0  3  0  0  0  0  0  0
  -25.9780  -32.2670   23.2200 C   0  0  0  0  0  3  0  0  0  0  0  0
  -25.5620  -33.6190   23.6820 N   0  0  0  0  0  0  0  0  0  0  0  0
  -25.8160  -34.7840   23.0660 C   0  0  0  0  0  0  0  0  0  0  0  0
  -26.4690  -34.8430   22.0230 O   0  0  0  0  0  0  0  0  0  0  0  0
  -24.9680  -33.6440   24.4980 H   0  0  0  0  0  0  0  0  0  0  0  0
  -23.9800  -36.5190   22.9860 C   0  0  0  0  0  1  0  0  0  0  0  0
  -25.2710  -36.0880   23.7000 C   0  0  0  0  0  3  0  0  0  0  0  0
  -27.3780  -37.0180   24.5670 C   0  0  0  0  0  1  0  0  0  0  0  0
  -26.2370  -37.2120   23.6770 N   0  0  0  0  0  0  0  0  0  0  0  0
  -25.7810  -38.0830   23.9340 H   0  0  0  0  0  0  0  0  0  0  0  0
  -26.6200  -31.4970   24.4400 C   0  0  1  0  0  0  0  0  0  0  0  0
  -25.6140  -31.1420   25.5610 C   0  0  0  0  0  1  0  0  0  0  0  0
  -27.2730  -30.1790   23.9860 C   0  0  0  0  0  1  0  0  0  0  0  0
  -27.7530  -32.3480   25.0600 C   0  0  0  0  0  1  0  0  0  0  0  0
  -26.9220  -11.9640   23.3930 C   0  0  0  0  0  2  0  0  0  0  0  0
  -28.2350  -12.9940   23.1460 C   0  0  0  0  0  2  0  0  0  0  0  0
  -29.7630  -12.7490   22.5070 C   0  0  0  0  0  2  0  0  0  0  0  0
  -32.2200  -13.3450   19.5730 C   0  0  0  0  0  0  0  0  0  0  0  0
  -31.8110  -11.6140   17.7460 C   0  0  0  0  0  2  0  0  0  0  0  0
  -30.7440  -12.0820   16.6840 C   0  0  0  0  0  2  0  0  0  0  0  0
  -29.3170  -12.4320   17.2160 C   0  0  0  0  0  2  0  0  0  0  0  0
  -29.4660  -13.1250   18.5810 C   0  0  0  0  0  3  0  0  0  0  0  0
  -30.2700  -12.0290   19.3560 C   0  0  0  0  0  2  0  0  0  0  0  0
  -31.5990  -12.2750   19.0440 N   0  0  0  0  0  0  0  0  0  0  0  0
  -33.2010  -13.7840   18.9310 O   0  0  0  0  0  0  0  0  0  0  0  0
  -30.7060  -13.8960   21.7760 C   0  0  0  0  0  0  0  0  0  0  0  0
  -31.7140  -13.9290   20.7610 N   0  0  0  0  0  0  0  0  0  0  0  0
  -30.5840  -14.9900   22.3300 O   0  0  0  0  0  0  0  0  0  0  0  0
  -32.2290  -14.7840   20.9020 H   0  0  0  0  0  0  0  0  0  0  0  0
  -27.7890  -14.6370   19.9700 C   0  0  0  0  0  3  0  0  0  0  0  0
  -26.8580  -14.2880   20.9090 C   0  0  0  0  0  3  0  0  0  0  0  0
  -26.8340  -13.0120   20.2200 C   0  0  0  0  0  2  0  0  0  0  0  0
  -28.2940  -13.5380   19.2860 N   0  0  0  0  0  0  0  0  0  0  0  0
  -28.1050  -12.8410   20.2340 N   0  0  0  0  0  2  0  0  0  0  0  0
  -24.7920  -10.9720   19.9800 C   0  0  1  0  0  0  0  0  0  0  0  0
  -24.8060   -9.7420   20.9710 C   0  0  0  0  0  3  0  0  0  0  0  0
  -24.0650   -8.6960   21.3720 C   0  0  0  0  0  3  0  0  0  0  0  0
  -22.8460   -8.6870   20.8020 C   0  0  0  0  0  0  0  0  0  0  0  0
  -22.5680   -9.7260   19.8430 C   0  0  0  0  0  3  0  0  0  0  0  0
  -23.4770  -10.8020   19.4610 C   0  0  0  0  0  2  0  0  0  0  0  0
  -21.9790   -7.6810   21.1650 O   0  0  0  0  0  0  0  0  0  0  0  0
  -22.0290   -7.0450   22.4030 C   0  0  0  0  0  0  0  0  0  0  0  0
  -21.7400   -7.7150   23.6190 C   0  0  0  0  0  3  0  0  0  0  0  0
  -21.6120   -6.9910   24.8250 C   0  0  0  0  0  3  0  0  0  0  0  0
  -21.7700   -5.5910   24.8300 C   0  0  0  0  0  0  0  0  0  0  0  0
  -22.1110   -4.9250   23.6390 C   0  0  0  0  0  3  0  0  0  0  0  0
  -22.2520   -5.6490   22.4400 C   0  0  0  0  0  0  0  0  0  0  0  0
  -22.5590   -4.9840   21.3030 F   0  0  0  0  0  0  0  0  0  0  0  0
  -21.5910   -4.8870   25.9730 F   0  0  0  0  0  0  0  0  0  0  0  0
  -25.7310  -15.0950   21.7710 C   0  0  0  0  0  0  0  0  0  0  0  0
  -25.1700  -14.4720   22.8440 N   0  0  0  0  0  0  0  0  0  0  0  0
  -24.8540  -15.8020   21.2650 O   0  0  0  0  0  0  0  0  0  0  0  0
  -25.4970  -13.5390   23.0460 H   0  0  0  0  0  0  0  0  0  0  0  0
  -24.3210  -14.7980   23.2930 H   0  0  0  0  0  0  0  0  0  0  0  0
  -28.3320  -15.7970   19.6210 N   0  0  0  0  0  0  0  0  0  0  0  0
  -27.8470  -16.6790   19.7730 H   0  0  0  0  0  0  0  0  0  0  0  0
  -28.9420  -15.8410   18.8150 H   0  0  0  0  0  0  0  0  0  0  0  0
  1  5  1  0
  1  4  1  0
  1 75  1  0
  3  6  1  0
  4  2  1  0
  5  7  1  6
  5 75  1  0
  5  3  1  0
  6 55  1  0
  8  9  1  0
 10  8  1  0
 11  9  1  0
 15 26  2  0
 16 14  1  0
 16 21  1  0
 17 25  1  0
 17 27  1  0
 18 24  1  0
 18 20  1  0
 19 25  1  0
 20 19  1  0
 21 20  2  0
 22 23  1  0
 22 16  2  0
 23 18  2  0
 24 17  1  0
 25 15  1  0
 27 29  2  0
 28 27  1  0
 30 28  1  0
 31 40  2  0
 31 36  1  0
 32 28  1  0
 32 36  1  0
 33 32  1  0
 34 35  1  0
 34 33  1  0
 35 31  1  0
 36 37  2  0
 37 38  1  0
 39 38  2  0
 40 39  1  0
 41 15  1  0
 41 42  1  0
 41 51  1  0
 42 45  1  0
 43 42  1  0
 43 47  1  0
 44 43  2  0
 47 46  1  0
 49 47  1  0
 49 50  1  0
 49 48  1  0
 51 54  1  1
 51 52  1  0
 53 51  1  0
 56 55  1  0
 57 56  1  0
 58 67  1  0
 59 64  1  0
 60 61  1  0
 60 59  1  0
 62 61  1  0
 62 73  1  0
 62 63  1  0
 64 63  1  0
 64 58  1  0
 65 58  2  0
 66 68  2  0
 66 57  1  0
 67 69  1  0
 67 66  1  0
 70 95  1  0
 70 71  1  0
 71 90  1  0
 72 74  1  0
 72 71  1  0
 73 70  1  0
 73 74  1  0
 75 80  1  6
 75 76  1  0
 76 77  2  0
 78 81  1  0
 78 77  1  0
 79 78  2  0
 80 79  1  0
 81 82  1  0
 82 87  2  0
 82 83  1  0
 83 84  2  0
 84 85  1  0
 85 89  1  0
 86 85  2  0
 87 86  1  0
 88 87  1  0
 90 91  1  0
 91 93  1  0
 91 94  1  0
 92 90  2  0
 95 96  1  0
 97 95  1  0
M  ISO  4  13 101  14 101  58 100  67 100
M  END
>  <TORSDO>  (39) 
F 22

>  <SCORE>  (39) 
14.625

>  <name>  (39) 
38

>  <ligand_id>  (39) 
38

>  <original_smiles>  (39) 
[H]c1c([H])c([H])c2c(c1[H])C([H])([H])C([H])([H])C([H])([H])C2([H])N([H])C(=O)C1([H])N(C(=O)C([H])(N([H])C(=O)C([H])(N([H])C([H])([H])[H])C([H])([H])[H])C(C([H])([H])[H])(C([H])([H])[H])C([H])([H])[H])C([H])([H])c2c([H])c(OC([H])([H])C([H])([H])N([H])C(=O)c3c([H])c(C([H])([H])[H])c([H])c(C([H])([H])C([H])([H])C([H])([H])C(=O)N([H])C(=O)N4C([H])([H])C([H])([H])C([H])([H])C([H])(n5nc(-c6c([H])c([H])c(Oc7c([H])c([H])c(F)c([H])c7F)c([H])c6[H])c(C(=O)N([H])[H])c5N([H])[H])C4([H])[H])c3[H])c([H])c([H])c2C1([H])[H]

>  <smiles>  (39) 
[H]c1c([H])c([H])c2c(c1[H])C([H])([H])C([H])([H])C([H])([H])C2([H])N([H])C(=O)C1([H])N(C(=O)C([H])(N([H])C(=O)C([H])(N([H])C([H])([H])[H])C([H])([H])[H])C(C([H])([H])[H])(C([H])([H])[H])C([H])([H])[H])C([H])([H])c2c([H])c(OC([H])([H])C([H])([H])N([H])C(=O)c3c([H])c(C([H])([H])[H])c([H])c(C([H])([H])C([H])([H])C([H])([H])C(=O)N([H])C(=O)N4C([H])([H])C([H])([H])C([H])([H])C([H])(n5nc(-c6c([H])c([H])c(Oc7c([H])c([H])c(F)c([H])c7F)c([H])c6[H])c(C(=O)N([H])[H])c5N([H])[H])C4([H])[H])c3[H])c([H])c([H])c2C1([H])[H]

$$$$
39:0:0
     RDKit          3D

 90 99  0  0  1  0  0  0  0  0999 V2000
  -27.8240  -20.9850   19.8530 C   0  0  0  0  0  3  0  0  0  0  0  0
  -30.3990  -20.1890   20.1410 C   0  0  0  0  0  3  0  0  0  0  0  0
  -28.2590  -19.5370   19.8870 C   0  0  0  0  0  0  0  0  0  0  0  0
  -29.5720  -18.9620   19.9990 C   0  0  0  0  0  0  0  0  0  0  0  0
  -29.9790  -21.6690   20.1070 C   0  0  0  0  0  0  0  0  0  0  0  0
  -28.6120  -22.2430   19.9640 C   0  0  0  0  0  0  0  0  0  0  0  0
  -27.3050  -18.3590   19.9720 C   0  0  0  0  0  2  0  0  0  0  0  0
  -28.1270  -17.0100   20.0290 C   0  0  0  0  0  2  0  0  0  0  0  0
  -29.6370  -17.1940   20.3470 C   0  0  2  0  0  0  0  0  0  0  0  0
  -29.8370  -17.2340   21.8700 C   0  0  0  0  0  1  0  0  0  0  0  0
  -30.4540  -15.5860   19.9080 C   0  0  0  0  0  0  0  0  0  0  0  0
  -30.4930  -13.0660   19.0410 C   0  0  0  0  0  2  0  0  0  0  0  0
  -29.5180  -12.7880   17.8620 C   0  0  0  0  0  2  0  0  0  0  0  0
  -28.1050  -12.4550   18.3720 C   0  0  0  0  0  2  0  0  0  0  0  0
  -27.6870  -13.3960   19.5250 C   0  0  0  0  0  3  0  0  0  0  0  0
  -28.7960  -13.6060   20.5800 C   0  0  0  0  0  2  0  0  0  0  0  0
  -29.9620  -14.2140   19.8960 N   0  0  0  0  0  0  0  0  0  0  0  0
  -31.6440  -15.5690   19.5460 O   0  0  0  0  0  0  0  0  0  0  0  0
  -25.3590  -13.8940   20.4450 C   0  0  0  0  0  0  0  0  0  0  0  0
  -24.3390  -13.1010   20.8740 C   0  0  0  0  0  0  0  0  0  0  0  0
  -24.8120  -11.7570   20.7670 C   0  0  0  0  0  0  0  0  0  0  0  0
  -26.3990  -13.0410   20.1130 N   0  0  0  0  0  0  0  0  0  0  0  0
  -26.0820  -11.7430   20.3690 N   0  0  0  0  0  0  0  0  0  0  0  0
  -24.0960  -10.4910   20.9560 C   0  0  0  0  0  0  0  0  0  0  0  0
  -24.5420   -9.5200   21.8780 C   0  0  0  0  0  3  0  0  0  0  0  0
  -23.8200   -8.3210   22.0600 C   0  0  0  0  0  3  0  0  0  0  0  0
  -22.6370   -8.0860   21.3210 C   0  0  0  0  0  0  0  0  0  0  0  0
  -22.2120   -9.0430   20.3840 C   0  0  0  0  0  3  0  0  0  0  0  0
  -22.9330  -10.2330   20.2020 C   0  0  0  0  0  3  0  0  0  0  0  0
  -21.8870   -6.9390   21.4120 O   0  0  0  0  0  0  0  0  0  0  0  0
  -21.7980   -6.2300   22.5830 C   0  0  0  0  0  0  0  0  0  0  0  0
  -21.3190   -6.8150   23.7740 C   0  0  0  0  0  3  0  0  0  0  0  0
  -21.1800   -6.0320   24.9370 C   0  0  0  0  0  3  0  0  0  0  0  0
  -21.5080   -4.6640   24.9080 C   0  0  0  0  0  0  0  0  0  0  0  0
  -21.9820   -4.0770   23.7210 C   0  0  0  0  0  3  0  0  0  0  0  0
  -22.1230   -4.8600   22.5610 C   0  0  0  0  0  0  0  0  0  0  0  0
  -22.5570   -4.2840   21.4140 F   0  0  0  0  0  0  0  0  0  0  0  0
  -21.3670   -3.9080   26.0240 F   0  0  0  0  0  0  0  0  0  0  0  0
  -22.9620  -13.5660   21.2460 C   0  0  0  0  0  0  0  0  0  0  0  0
  -22.2950  -12.8530   22.1450 N   0  0  0  0  0  0  0  0  0  0  0  0
  -22.4910  -14.6010   20.7740 O   0  0  0  0  0  0  0  0  0  0  0  0
  -22.6900  -12.0140   22.5430 H   0  0  0  0  0  0  0  0  0  0  0  0
  -21.3740  -13.1440   22.4400 H   0  0  0  0  0  0  0  0  0  0  0  0
  -25.4590  -15.2660   20.2710 N   0  0  0  0  0  0  0  0  0  0  0  0
  -24.6500  -15.8660   20.3900 H   0  0  0  0  0  0  0  0  0  0  0  0
  -26.2160  -15.7180   19.7790 H   0  0  0  0  0  0  0  0  0  0  0  0
  -32.5030  -22.3350   20.0760 C   0  0  0  0  0  1  0  0  0  0  0  0
  -31.0420  -22.7440   20.3030 C   0  0  0  0  0  2  0  0  0  0  0  0
  -27.8590  -23.9270   19.9220 C   0  0  0  0  0  2  0  0  0  0  0  0
  -28.1830  -25.6020   20.1390 O   0  0  0  0  0  0  0  0  0  0  0  0
  -24.6770  -31.7890   23.1330 C   0  0  0  0  0  0  0  0  0  0  0  0
  -27.2140  -26.7960   20.0880 C   0  0  0  0  0  0  0  0  0  0  0  0
  -23.4880  -30.4040   21.4870 C   0  0  0  0  0  3  0  0  0  0  0  0
  -24.9350  -28.7820   20.0550 C   0  0  0  0  0  0  0  0  0  0  0  0
  -26.0620  -30.5670   21.3570 C   0  0  0  0  0  2  0  0  0  0  0  0
  -26.1280  -29.1460   20.6910 C   0  0  0  0  0  0  0  0  0  0  0  0
  -27.2550  -28.1780   20.6810 C   0  0  0  0  0  3  0  0  0  0  0  0
  -25.9850  -26.6270   19.4020 C   0  0  0  0  0  3  0  0  0  0  0  0
  -24.8980  -27.5480   19.3890 C   0  0  0  0  0  3  0  0  0  0  0  0
  -23.7250  -29.7250   20.1080 C   0  0  0  0  0  2  0  0  0  0  0  0
  -24.7660  -30.9510   22.0460 N   0  0  0  0  0  0  0  0  0  0  0  0
  -23.5850  -32.0820   23.6490 O   0  0  0  0  0  0  0  0  0  0  0  0
  -22.7780  -29.4140   22.4490 C   0  0  0  0  0  0  0  0  0  0  0  0
  -21.4460  -29.2570   22.3230 N   0  0  0  0  0  0  0  0  0  0  0  0
  -23.4370  -28.7870   23.2820 O   0  0  0  0  0  0  0  0  0  0  0  0
  -20.9640  -29.8200   21.6350 H   0  0  0  0  0  0  0  0  0  0  0  0
  -18.0630  -28.0210   22.8150 C   0  0  0  0  0  0  0  0  0  0  0  0
  -20.6210  -28.3140   23.0890 C   0  0  0  0  0  3  0  0  0  0  0  0
  -20.7390  -26.8820   22.5170 C   0  0  0  0  0  2  0  0  0  0  0  0
  -19.6460  -26.5500   21.4950 C   0  0  0  0  0  2  0  0  0  0  0  0
  -18.2580  -26.6780   22.1280 C   0  0  0  0  0  2  0  0  0  0  0  0
  -19.1730  -28.7960   23.2480 C   0  0  0  0  0  0  0  0  0  0  0  0
  -18.9350  -30.0500   23.8520 C   0  0  0  0  0  3  0  0  0  0  0  0
  -17.6250  -30.5320   24.0190 C   0  0  0  0  0  3  0  0  0  0  0  0
  -16.5310  -29.7570   23.5980 C   0  0  0  0  0  3  0  0  0  0  0  0
  -16.7510  -28.5020   23.0030 C   0  0  0  0  0  3  0  0  0  0  0  0
  -25.9430  -32.4350   23.7770 C   0  0  0  0  0  3  0  0  0  0  0  0
  -25.6160  -33.8280   24.1380 N   0  0  0  0  0  0  0  0  0  0  0  0
  -25.9170  -34.9070   23.4020 C   0  0  0  0  0  0  0  0  0  0  0  0
  -26.5620  -34.8370   22.3530 O   0  0  0  0  0  0  0  0  0  0  0  0
  -25.0480  -33.9540   24.9620 H   0  0  0  0  0  0  0  0  0  0  0  0
  -24.1510  -36.6900   23.1620 C   0  0  0  0  0  1  0  0  0  0  0  0
  -25.4320  -36.2830   23.9090 C   0  0  0  0  0  3  0  0  0  0  0  0
  -27.5870  -37.1900   24.6660 C   0  0  0  0  0  1  0  0  0  0  0  0
  -26.4430  -37.3560   23.7730 N   0  0  0  0  0  0  0  0  0  0  0  0
  -26.0280  -38.2650   23.9580 H   0  0  0  0  0  0  0  0  0  0  0  0
  -26.4500  -31.6580   25.0550 C   0  0  1  0  0  0  0  0  0  0  0  0
  -25.3530  -31.4160   26.1180 C   0  0  0  0  0  1  0  0  0  0  0  0
  -27.0380  -30.2810   24.6700 C   0  0  0  0  0  1  0  0  0  0  0  0
  -27.5940  -32.4510   25.7300 C   0  0  0  0  0  1  0  0  0  0  0  0
  1  3  2  0
  1  6  1  0
  3  7  1  0
  3  4  1  0
  4  2  2  0
  4  9  1  0
  5  2  1  0
  5 48  1  0
  6  5  2  0
  7  8  1  0
  8  9  1  0
  9 10  1  1
 11  9  1  0
 12 17  1  0
 13 14  1  0
 13 12  1  0
 15 14  1  0
 15 22  1  0
 15 16  1  0
 17 11  1  0
 17 16  1  0
 18 11  2  0
 19 20  2  0
 20 39  1  0
 21 20  1  0
 21 24  1  0
 22 23  1  0
 22 19  1  0
 23 21  2  0
 24 25  1  0
 25 26  2  0
 27 30  1  0
 27 26  1  0
 28 27  2  0
 29 28  1  0
 29 24  2  0
 30 31  1  0
 31 32  1  0
 32 33  2  0
 34 33  1  0
 34 38  1  0
 35 34  2  0
 36 31  2  0
 36 35  1  0
 37 36  1  0
 39 40  1  0
 40 43  1  0
 40 42  1  0
 41 39  2  0
 44 45  1  0
 44 19  1  0
 46 44  1  0
 47 48  1  0
 49  6  1  0
 49 50  1  0
 51 62  2  0
 52 50  1  0
 52 57  1  0
 53 61  1  0
 53 63  1  0
 54 60  1  0
 54 56  1  0
 55 61  1  0
 56 55  1  0
 57 56  2  0
 58 52  2  0
 59 58  1  0
 59 54  2  0
 60 53  1  0
 61 51  1  0
 63 65  2  0
 64 63  1  0
 66 64  1  0
 67 76  2  0
 67 72  1  0
 68 64  1  0
 68 72  1  0
 69 68  1  0
 70 71  1  0
 70 69  1  0
 71 67  1  0
 72 73  2  0
 73 74  1  0
 75 74  2  0
 76 75  1  0
 77 51  1  0
 77 78  1  0
 77 87  1  0
 78 81  1  0
 79 83  1  0
 79 78  1  0
 80 79  2  0
 83 82  1  0
 85 83  1  0
 85 86  1  0
 85 84  1  0
 87 90  1  1
 87 88  1  0
 89 87  1  0
M  ISO  4   9 100  11 100  49 101  50 101
M  END
>  <TORSDO>  (40) 
F 18

>  <SCORE>  (40) 
-16.226

>  <name>  (40) 
39

>  <ligand_id>  (40) 
39

>  <original_smiles>  (40) 
[H]c1c([H])c([H])c2c(c1[H])C([H])([H])C([H])([H])C([H])([H])C2([H])N([H])C(=O)C1([H])N(C(=O)C([H])(N([H])C(=O)C([H])(N([H])C([H])([H])[H])C([H])([H])[H])C(C([H])([H])[H])(C([H])([H])[H])C([H])([H])[H])C([H])([H])c2c([H])c(OC([H])([H])c3c([H])c4c(c([H])c3C([H])([H])C([H])([H])[H])C(C(=O)N3C([H])([H])C([H])([H])C([H])([H])C([H])(n5nc(-c6c([H])c([H])c(Oc7c([H])c([H])c(F)c([H])c7F)c([H])c6[H])c(C(=O)N([H])[H])c5N([H])[H])C3([H])[H])(C([H])([H])[H])C([H])([H])C4([H])[H])c([H])c([H])c2C1([H])[H]

>  <smiles>  (40) 
[H]c1c([H])c([H])c2c(c1[H])C([H])([H])C([H])([H])C([H])([H])C2([H])N([H])C(=O)C1([H])N(C(=O)C([H])(N([H])C(=O)C([H])(N([H])C([H])([H])[H])C([H])([H])[H])C(C([H])([H])[H])(C([H])([H])[H])C([H])([H])[H])C([H])([H])c2c([H])c(OC([H])([H])c3c([H])c4c(c([H])c3C([H])([H])C([H])([H])[H])C(C(=O)N3C([H])([H])C([H])([H])C([H])([H])C([H])(n5nc(-c6c([H])c([H])c(Oc7c([H])c([H])c(F)c([H])c7F)c([H])c6[H])c(C(=O)N([H])[H])c5N([H])[H])C3([H])[H])(C([H])([H])[H])C([H])([H])C4([H])[H])c([H])c([H])c2C1([H])[H]

$$$$
40:0:0
     RDKit          3D

 89 98  0  0  1  0  0  0  0  0999 V2000
  -30.0730  -18.9580   20.0870 C   0  0  0  0  0  3  0  0  0  0  0  0
  -28.2400  -17.5750   19.6310 C   0  0  0  0  0  3  0  0  0  0  0  0
  -29.6370  -17.4180   19.9130 C   0  0  0  0  0  0  0  0  0  0  0  0
  -29.2940  -20.3720   19.9290 C   0  0  0  0  0  0  0  0  0  0  0  0
  -27.4740  -18.8120   19.4450 C   0  0  0  0  0  0  0  0  0  0  0  0
  -27.9650  -20.1850   19.5120 C   0  0  0  0  0  3  0  0  0  0  0  0
  -29.5820  -22.1560   20.1070 C   0  0  0  0  0  3  0  0  0  0  0  0
  -27.1930  -22.7250   19.8280 C   0  0  0  0  0  3  0  0  0  0  0  0
  -28.4850  -23.6440   19.7380 C   0  0  0  0  0  0  0  0  0  0  0  0
  -25.9890  -18.5750   19.1960 C   0  0  0  0  0  1  0  0  0  0  0  0
  -27.2090  -21.3750   19.1000 N   0  0  0  0  0  0  0  0  0  0  0  0
  -26.8520  -21.3140   17.7150 O   0  0  0  0  0  1  0  0  0  0  0  0
  -30.3890  -15.7640   19.9730 C   0  0  0  0  0  0  0  0  0  0  0  0
  -30.5340  -13.1340   19.3720 C   0  0  0  0  0  2  0  0  0  0  0  0
  -29.6660  -12.5610   18.2090 C   0  0  0  0  0  2  0  0  0  0  0  0
  -28.2400  -12.2280   18.6730 C   0  0  0  0  0  2  0  0  0  0  0  0
  -27.6990  -13.3180   19.6210 C   0  0  0  0  0  3  0  0  0  0  0  0
  -28.7100  -13.7590   20.7050 C   0  0  0  0  0  2  0  0  0  0  0  0
  -29.8830  -14.3720   20.0220 N   0  0  0  0  0  0  0  0  0  0  0  0
  -31.6240  -15.6520   19.8210 O   0  0  0  0  0  0  0  0  0  0  0  0
  -25.3540  -13.8930   20.4100 C   0  0  0  0  0  0  0  0  0  0  0  0
  -24.2870  -13.1410   20.8050 C   0  0  0  0  0  0  0  0  0  0  0  0
  -24.7300  -11.7820   20.7750 C   0  0  0  0  0  0  0  0  0  0  0  0
  -26.3820  -13.0030   20.1590 N   0  0  0  0  0  0  0  0  0  0  0  0
  -26.0190  -11.7220   20.4470 N   0  0  0  0  0  0  0  0  0  0  0  0
  -23.9720  -10.5380   20.9720 C   0  0  0  0  0  0  0  0  0  0  0  0
  -24.3800   -9.5580   21.9030 C   0  0  0  0  0  3  0  0  0  0  0  0
  -23.6190   -8.3850   22.0900 C   0  0  0  0  0  3  0  0  0  0  0  0
  -22.4340   -8.1800   21.3450 C   0  0  0  0  0  0  0  0  0  0  0  0
  -22.0420   -9.1490   20.4020 C   0  0  0  0  0  3  0  0  0  0  0  0
  -22.8050  -10.3140   20.2140 C   0  0  0  0  0  3  0  0  0  0  0  0
  -21.6440   -7.0620   21.4430 O   0  0  0  0  0  0  0  0  0  0  0  0
  -21.5800   -6.3260   22.5990 C   0  0  0  0  0  0  0  0  0  0  0  0
  -21.1770   -6.8980   23.8250 C   0  0  0  0  0  3  0  0  0  0  0  0
  -21.0550   -6.0900   24.9730 C   0  0  0  0  0  3  0  0  0  0  0  0
  -21.3310   -4.7120   24.8970 C   0  0  0  0  0  0  0  0  0  0  0  0
  -21.7290   -4.1400   23.6770 C   0  0  0  0  0  3  0  0  0  0  0  0
  -21.8510   -4.9450   22.5310 C   0  0  0  0  0  0  0  0  0  0  0  0
  -22.2110   -4.3820   21.3530 F   0  0  0  0  0  0  0  0  0  0  0  0
  -21.2120   -3.9350   26.0000 F   0  0  0  0  0  0  0  0  0  0  0  0
  -22.9040  -13.6520   21.0810 C   0  0  0  0  0  0  0  0  0  0  0  0
  -22.1650  -12.9900   21.9630 N   0  0  0  0  0  0  0  0  0  0  0  0
  -22.4860  -14.6800   20.5460 O   0  0  0  0  0  0  0  0  0  0  0  0
  -22.5120  -12.1560   22.4120 H   0  0  0  0  0  0  0  0  0  0  0  0
  -21.2400  -13.3240   22.1930 H   0  0  0  0  0  0  0  0  0  0  0  0
  -25.5320  -15.2540   20.1910 N   0  0  0  0  0  0  0  0  0  0  0  0
  -24.7510  -15.8950   20.2500 H   0  0  0  0  0  0  0  0  0  0  0  0
  -26.2750  -15.5990   19.5980 H   0  0  0  0  0  0  0  0  0  0  0  0
  -28.3870  -25.4100   20.1170 O   0  0  0  0  0  0  0  0  0  0  0  0
  -24.6180  -31.6380   23.0120 C   0  0  0  0  0  0  0  0  0  0  0  0
  -27.3740  -26.6130   20.0220 C   0  0  0  0  0  0  0  0  0  0  0  0
  -23.5200  -30.2330   21.3150 C   0  0  0  0  0  3  0  0  0  0  0  0
  -25.0530  -28.6250   19.9270 C   0  0  0  0  0  0  0  0  0  0  0  0
  -26.0970  -30.4200   21.2870 C   0  0  0  0  0  2  0  0  0  0  0  0
  -26.2170  -28.9900   20.6130 C   0  0  0  0  0  0  0  0  0  0  0  0
  -27.3520  -28.0120   20.6290 C   0  0  0  0  0  3  0  0  0  0  0  0
  -26.1690  -26.4770   19.2790 C   0  0  0  0  0  3  0  0  0  0  0  0
  -25.0710  -27.3950   19.2410 C   0  0  0  0  0  3  0  0  0  0  0  0
  -23.8270  -29.5570   19.9450 C   0  0  0  0  0  2  0  0  0  0  0  0
  -24.7670  -30.7970   21.9270 N   0  0  0  0  0  0  0  0  0  0  0  0
  -23.5000  -31.9050   23.4870 O   0  0  0  0  0  0  0  0  0  0  0  0
  -22.7870  -29.2330   22.2500 C   0  0  0  0  0  0  0  0  0  0  0  0
  -21.4510  -29.0960   22.1180 N   0  0  0  0  0  0  0  0  0  0  0  0
  -23.4330  -28.5830   23.0740 O   0  0  0  0  0  0  0  0  0  0  0  0
  -20.9740  -29.6660   21.4330 H   0  0  0  0  0  0  0  0  0  0  0  0
  -18.0430  -27.9400   22.6450 C   0  0  0  0  0  0  0  0  0  0  0  0
  -20.6170  -28.1380   22.8580 C   0  0  0  0  0  3  0  0  0  0  0  0
  -20.6720  -26.7390   22.2020 C   0  0  0  0  0  2  0  0  0  0  0  0
  -19.5380  -26.5020   21.1990 C   0  0  0  0  0  2  0  0  0  0  0  0
  -18.1740  -26.6350   21.8810 C   0  0  0  0  0  2  0  0  0  0  0  0
  -19.1890  -28.6540   23.0910 C   0  0  0  0  0  0  0  0  0  0  0  0
  -19.0070  -29.8770   23.7710 C   0  0  0  0  0  3  0  0  0  0  0  0
  -17.7180  -30.3910   24.0000 C   0  0  0  0  0  3  0  0  0  0  0  0
  -16.5880  -29.6730   23.5700 C   0  0  0  0  0  3  0  0  0  0  0  0
  -16.7530  -28.4480   22.9010 C   0  0  0  0  0  3  0  0  0  0  0  0
  -25.8410  -32.3120   23.7080 C   0  0  0  0  0  3  0  0  0  0  0  0
  -25.4800  -33.6980   24.0650 N   0  0  0  0  0  0  0  0  0  0  0  0
  -25.7940  -34.7870   23.3500 C   0  0  0  0  0  0  0  0  0  0  0  0
  -26.4850  -34.7330   22.3300 O   0  0  0  0  0  0  0  0  0  0  0  0
  -24.9050  -33.8180   24.8850 H   0  0  0  0  0  0  0  0  0  0  0  0
  -24.0210  -36.5370   23.0170 C   0  0  0  0  0  1  0  0  0  0  0  0
  -25.2610  -36.1510   23.8400 C   0  0  0  0  0  3  0  0  0  0  0  0
  -27.3560  -37.0680   24.7320 C   0  0  0  0  0  1  0  0  0  0  0  0
  -26.2650  -37.2390   23.7750 N   0  0  0  0  0  0  0  0  0  0  0  0
  -25.8330  -38.1420   23.9460 H   0  0  0  0  0  0  0  0  0  0  0  0
  -26.3130  -31.5440   25.0030 C   0  0  1  0  0  0  0  0  0  0  0  0
  -25.1760  -31.2820   26.0210 C   0  0  0  0  0  1  0  0  0  0  0  0
  -26.9410  -30.1800   24.6440 C   0  0  0  0  0  1  0  0  0  0  0  0
  -27.4230  -32.3520   25.7180 C   0  0  0  0  0  1  0  0  0  0  0  0
  2  3  1  0
  3 13  1  0
  3  1  2  0
  4  1  1  0
  4  7  2  0
  5  2  2  0
  6  5  1  0
  6  4  1  0
  9  8  2  0
  9  7  1  0
  9 49  1  0
 10  5  1  0
 11  6  1  0
 11  8  1  0
 12 11  1  0
 13 19  1  0
 14 19  1  0
 15 16  1  0
 15 14  1  0
 17 16  1  0
 17 24  1  0
 17 18  1  0
 19 18  1  0
 20 13  2  0
 21 22  2  0
 22 41  1  0
 23 22  1  0
 23 26  1  0
 24 21  1  0
 24 25  1  0
 25 23  2  0
 26 27  1  0
 27 28  2  0
 29 32  1  0
 29 28  1  0
 30 29  2  0
 31 30  1  0
 31 26  2  0
 32 33  1  0
 33 34  1  0
 34 35  2  0
 36 35  1  0
 36 40  1  0
 37 36  2  0
 38 33  2  0
 38 37  1  0
 39 38  1  0
 41 42  1  0
 42 45  1  0
 42 44  1  0
 43 41  2  0
 46 47  1  0
 46 21  1  0
 48 46  1  0
 50 61  2  0
 51 49  1  0
 51 56  1  0
 52 60  1  0
 52 62  1  0
 53 59  1  0
 53 55  1  0
 54 60  1  0
 55 56  2  0
 55 54  1  0
 57 51  2  0
 58 57  1  0
 58 53  2  0
 59 52  1  0
 60 50  1  0
 62 64  2  0
 63 62  1  0
 65 63  1  0
 66 75  2  0
 66 71  1  0
 67 63  1  0
 67 71  1  0
 68 67  1  0
 69 70  1  0
 69 68  1  0
 70 66  1  0
 71 72  2  0
 72 73  1  0
 74 73  2  0
 75 74  1  0
 76 50  1  0
 76 77  1  0
 76 86  1  0
 77 80  1  0
 78 82  1  0
 78 77  1  0
 79 78  2  0
 82 81  1  0
 84 82  1  0
 84 85  1  0
 84 83  1  0
 86 89  1  1
 86 87  1  0
 88 86  1  0
M  ISO  4   3 100   9 101  13 100  49 101
M  END
>  <TORSDO>  (41) 
F 16

>  <SCORE>  (41) 
-16.201

>  <name>  (41) 
40

>  <ligand_id>  (41) 
40

>  <original_smiles>  (41) 
[H]c1c([H])c([H])c2c(c1[H])C([H])([H])C([H])([H])C([H])([H])C2([H])N([H])C(=O)C1([H])N(C(=O)C([H])(N([H])C(=O)C([H])(N([H])C([H])([H])[H])C([H])([H])[H])C(C([H])([H])[H])(C([H])([H])[H])C([H])([H])[H])C([H])([H])c2c([H])c(OC3([H])C([H])([H])c4c([H])c(C(=O)N5C([H])([H])C([H])([H])C([H])([H])C([H])(n6nc(-c7c([H])c([H])c(Oc8c([H])c([H])c(F)c([H])c8F)c([H])c7[H])c(C(=O)N([H])[H])c6N([H])[H])C5([H])[H])c([H])c(C([H])([H])[H])c4N([O-])C3([H])[H])c([H])c([H])c2C1([H])[H]

>  <smiles>  (41) 
[H]c1c([H])c([H])c2c(c1[H])C([H])([H])C([H])([H])C([H])([H])C2([H])N([H])C(=O)C1([H])N(C(=O)C([H])(N([H])C(=O)C([H])(N([H])C([H])([H])[H])C([H])([H])[H])C(C([H])([H])[H])(C([H])([H])[H])C([H])([H])[H])C([H])([H])c2c([H])c(OC3([H])C([H])([H])c4c([H])c(C(=O)N5C([H])([H])C([H])([H])C([H])([H])C([H])(n6nc(-c7c([H])c([H])c(Oc8c([H])c([H])c(F)c([H])c8F)c([H])c7[H])c(C(=O)N([H])[H])c6N([H])[H])C5([H])[H])c([H])c(C([H])([H])[H])c4N([O-])C3([H])[H])c([H])c([H])c2C1([H])[H]

$$$$
41:0:0
     RDKit          3D

 92101  0  0  1  0  0  0  0  0999 V2000
  -27.8790  -23.4520   22.6190 C   0  0  0  0  0  3  0  0  0  0  0  0
  -26.7010  -23.8730   21.9700 C   0  0  0  0  0  3  0  0  0  0  0  0
  -28.9300  -22.9510   21.8240 C   0  0  0  0  0  3  0  0  0  0  0  0
  -26.7300  -24.0740   20.5720 C   0  0  0  0  0  0  0  0  0  0  0  0
  -28.8280  -23.0410   20.4170 C   0  0  0  0  0  0  0  0  0  0  0  0
  -27.9970  -24.3000   19.9760 C   0  0  0  0  0  0  0  0  0  0  0  0
  -25.4430  -23.9350   19.7750 C   0  0  0  0  0  1  0  0  0  0  0  0
  -28.2760  -25.8310   19.9800 O   0  0  0  0  0  0  0  0  0  0  0  0
  -24.6650  -31.7730   23.0720 C   0  0  0  0  0  0  0  0  0  0  0  0
  -27.3060  -26.9810   19.9490 C   0  0  0  0  0  0  0  0  0  0  0  0
  -23.5100  -30.3900   21.4000 C   0  0  0  0  0  3  0  0  0  0  0  0
  -24.9960  -28.8600   19.9340 C   0  0  0  0  0  0  0  0  0  0  0  0
  -26.0720  -30.6330   21.2880 C   0  0  0  0  0  2  0  0  0  0  0  0
  -26.1650  -29.2390   20.6030 C   0  0  0  0  0  0  0  0  0  0  0  0
  -27.3070  -28.3110   20.6100 C   0  0  0  0  0  3  0  0  0  0  0  0
  -26.1520  -26.8320   19.1520 C   0  0  0  0  0  3  0  0  0  0  0  0
  -25.0160  -27.6780   19.1840 C   0  0  0  0  0  3  0  0  0  0  0  0
  -23.7580  -29.7510   20.0080 C   0  0  0  0  0  2  0  0  0  0  0  0
  -24.7700  -30.9590   21.9730 N   0  0  0  0  0  0  0  0  0  0  0  0
  -23.5660  -32.0360   23.5870 O   0  0  0  0  0  0  0  0  0  0  0  0
  -22.8250  -29.3600   22.3370 C   0  0  0  0  0  0  0  0  0  0  0  0
  -21.4940  -29.1970   22.2180 N   0  0  0  0  0  0  0  0  0  0  0  0
  -23.4990  -28.7150   23.1450 O   0  0  0  0  0  0  0  0  0  0  0  0
  -21.0020  -29.7700   21.5450 H   0  0  0  0  0  0  0  0  0  0  0  0
  -18.1120  -28.0000   22.7640 C   0  0  0  0  0  0  0  0  0  0  0  0
  -20.6810  -28.2340   22.9700 C   0  0  0  0  0  3  0  0  0  0  0  0
  -20.7550  -26.8270   22.3300 C   0  0  0  0  0  2  0  0  0  0  0  0
  -19.6240  -26.5590   21.3330 C   0  0  0  0  0  2  0  0  0  0  0  0
  -18.2610  -26.6820   22.0210 C   0  0  0  0  0  2  0  0  0  0  0  0
  -19.2490  -28.7340   23.1960 C   0  0  0  0  0  0  0  0  0  0  0  0
  -19.0530  -29.9650   23.8590 C   0  0  0  0  0  3  0  0  0  0  0  0
  -17.7570  -30.4630   24.0920 C   0  0  0  0  0  3  0  0  0  0  0  0
  -16.6360  -29.7240   23.6750 C   0  0  0  0  0  3  0  0  0  0  0  0
  -16.8140  -28.4950   23.0170 C   0  0  0  0  0  3  0  0  0  0  0  0
  -25.9180  -32.4260   23.7230 C   0  0  0  0  0  3  0  0  0  0  0  0
  -25.5740  -33.8130   24.0800 N   0  0  0  0  0  0  0  0  0  0  0  0
  -25.9070  -34.8980   23.3660 C   0  0  0  0  0  0  0  0  0  0  0  0
  -26.5970  -34.8340   22.3450 O   0  0  0  0  0  0  0  0  0  0  0  0
  -24.9410  -33.9370   24.8590 H   0  0  0  0  0  0  0  0  0  0  0  0
  -24.1730  -36.7010   23.0380 C   0  0  0  0  0  1  0  0  0  0  0  0
  -25.3970  -36.2680   23.8620 C   0  0  0  0  0  3  0  0  0  0  0  0
  -27.4950  -37.1560   24.7800 C   0  0  0  0  0  1  0  0  0  0  0  0
  -26.4240  -37.3330   23.8060 N   0  0  0  0  0  0  0  0  0  0  0  0
  -26.0040  -38.2480   23.9570 H   0  0  0  0  0  0  0  0  0  0  0  0
  -26.4310  -31.6460   24.9980 C   0  0  1  0  0  0  0  0  0  0  0  0
  -25.3250  -31.3770   26.0460 C   0  0  0  0  0  1  0  0  0  0  0  0
  -27.0440  -30.2810   24.6090 C   0  0  0  0  0  1  0  0  0  0  0  0
  -27.5550  -32.4560   25.6840 C   0  0  0  0  0  1  0  0  0  0  0  0
  -29.3000  -21.5090   19.7140 C   0  0  0  0  0  2  0  0  0  0  0  0
  -27.9030  -18.6390   18.5430 C   0  0  0  0  0  2  0  0  0  0  0  0
  -27.7860  -19.3390   19.9130 C   0  0  0  0  0  2  0  0  0  0  0  0
  -29.3810  -18.2210   18.3620 C   0  0  0  0  0  2  0  0  0  0  0  0
  -29.2060  -19.7850   20.2850 C   0  0  0  0  0  3  0  0  0  0  0  0
  -30.0210  -18.2620   19.7620 C   0  0  0  0  0  3  0  0  0  0  0  0
  -30.7000  -15.3940   20.1420 C   0  0  0  0  0  0  0  0  0  0  0  0
  -30.6590  -12.9230   19.3430 C   0  0  0  0  0  2  0  0  0  0  0  0
  -29.7310  -12.7360   18.1160 C   0  0  0  0  0  2  0  0  0  0  0  0
  -28.2880  -12.4670   18.5740 C   0  0  0  0  0  2  0  0  0  0  0  0
  -27.8570  -13.4310   19.7070 C   0  0  0  0  0  3  0  0  0  0  0  0
  -28.9200  -13.5980   20.8180 C   0  0  0  0  0  2  0  0  0  0  0  0
  -30.1450  -14.0810   20.1670 N   0  0  0  0  0  0  0  0  0  0  0  0
  -31.8990  -15.3990   19.8270 O   0  0  0  0  0  0  0  0  0  0  0  0
  -29.9320  -16.6610   20.2690 N   0  0  0  0  0  0  0  0  0  0  0  0
  -29.0080  -16.4540   20.6200 H   0  0  0  0  0  0  0  0  0  0  0  0
  -25.5080  -13.9890   20.5140 C   0  0  0  0  0  0  0  0  0  0  0  0
  -24.4530  -13.2110   20.8920 C   0  0  0  0  0  0  0  0  0  0  0  0
  -24.9100  -11.8570   20.8280 C   0  0  0  0  0  0  0  0  0  0  0  0
  -26.5430  -13.1100   20.2400 N   0  0  0  0  0  0  0  0  0  0  0  0
  -26.1970  -11.8230   20.4990 N   0  0  0  0  0  0  0  0  0  0  0  0
  -24.1790  -10.5960   21.0140 C   0  0  0  0  0  0  0  0  0  0  0  0
  -24.5770   -9.6430   21.9770 C   0  0  0  0  0  3  0  0  0  0  0  0
  -23.8420   -8.4510   22.1520 C   0  0  0  0  0  3  0  0  0  0  0  0
  -22.6940   -8.2040   21.3630 C   0  0  0  0  0  0  0  0  0  0  0  0
  -22.3160   -9.1430   20.3870 C   0  0  0  0  0  3  0  0  0  0  0  0
  -23.0520  -10.3270   20.2110 C   0  0  0  0  0  3  0  0  0  0  0  0
  -21.9390   -7.0560   21.4400 O   0  0  0  0  0  0  0  0  0  0  0  0
  -21.7990   -6.3650   22.6160 C   0  0  0  0  0  0  0  0  0  0  0  0
  -21.2270   -6.9580   23.7640 C   0  0  0  0  0  3  0  0  0  0  0  0
  -21.0410   -6.1920   24.9320 C   0  0  0  0  0  3  0  0  0  0  0  0
  -21.4130   -4.8360   24.9520 C   0  0  0  0  0  0  0  0  0  0  0  0
  -21.9750   -4.2430   23.8070 C   0  0  0  0  0  3  0  0  0  0  0  0
  -22.1650   -5.0060   22.6410 C   0  0  0  0  0  0  0  0  0  0  0  0
  -22.6890   -4.4240   21.5350 F   0  0  0  0  0  0  0  0  0  0  0  0
  -21.2250   -4.0960   26.0700 F   0  0  0  0  0  0  0  0  0  0  0  0
  -23.0620  -13.6900   21.1930 C   0  0  0  0  0  0  0  0  0  0  0  0
  -22.3500  -12.9880   22.0670 N   0  0  0  0  0  0  0  0  0  0  0  0
  -22.6210  -14.7210   20.6860 O   0  0  0  0  0  0  0  0  0  0  0  0
  -22.7260  -12.1530   22.4940 H   0  0  0  0  0  0  0  0  0  0  0  0
  -21.4120  -13.2760   22.3060 H   0  0  0  0  0  0  0  0  0  0  0  0
  -25.6750  -15.3640   20.3460 N   0  0  0  0  0  0  0  0  0  0  0  0
  -24.9060  -16.0150   20.4550 H   0  0  0  0  0  0  0  0  0  0  0  0
  -26.5000  -15.7950   19.9530 H   0  0  0  0  0  0  0  0  0  0  0  0
  2  1  1  0
  3  1  2  0
  4  2  2  0
  5  3  1  0
  6  8  1  0
  6  5  2  3
  6  4  1  0
  7  4  1  0
  9 20  2  0
 10  8  1  0
 10 15  1  0
 11 19  1  0
 11 21  1  0
 12 18  1  0
 12 14  1  0
 13 19  1  0
 14 15  2  0
 14 13  1  0
 16 17  1  0
 16 10  2  0
 17 12  2  0
 18 11  1  0
 19  9  1  0
 21 23  2  0
 22 21  1  0
 24 22  1  0
 25 34  2  0
 25 30  1  0
 26 22  1  0
 26 30  1  0
 27 26  1  0
 28 29  1  0
 28 27  1  0
 29 25  1  0
 30 31  2  0
 31 32  1  0
 33 32  2  0
 34 33  1  0
 35  9  1  0
 35 36  1  0
 35 45  1  0
 36 39  1  0
 37 41  1  0
 37 36  1  0
 38 37  2  0
 41 40  1  0
 43 41  1  0
 43 44  1  0
 43 42  1  0
 45 48  1  1
 45 46  1  0
 47 45  1  0
 49  5  1  0
 50 51  1  0
 51 53  1  0
 52 50  1  0
 52 54  1  0
 53 49  1  0
 54 63  1  0
 54 53  1  0
 55 61  1  0
 55 63  1  0
 56 61  1  0
 57 58  1  0
 57 56  1  0
 59 58  1  0
 59 68  1  0
 59 60  1  0
 61 60  1  0
 62 55  2  0
 63 64  1  0
 65 66  2  0
 66 85  1  0
 67 66  1  0
 67 70  1  0
 68 69  1  0
 68 65  1  0
 69 67  2  0
 70 71  1  0
 71 72  2  0
 73 76  1  0
 73 72  1  0
 74 73  2  0
 75 74  1  0
 75 70  2  0
 76 77  1  0
 77 82  2  0
 77 78  1  0
 78 79  2  0
 79 80  1  0
 80 84  1  0
 81 80  2  0
 82 81  1  0
 83 82  1  0
 85 86  1  0
 86 89  1  0
 86 88  1  0
 87 85  2  0
 90 91  1  0
 90 65  1  0
 92 90  1  0
M  ISO  4   6 101   8 101  55 100  63 100
M  END
>  <TORSDO>  (42) 
F 18

>  <SCORE>  (42) 
-15.247

>  <name>  (42) 
41

>  <ligand_id>  (42) 
41

>  <original_smiles>  (42) 
[H]c1c([H])c([H])c2c(c1[H])C([H])([H])C([H])([H])C([H])([H])C2([H])N([H])C(=O)C1([H])N(C(=O)C([H])(N([H])C(=O)C([H])(N([H])C([H])([H])[H])C([H])([H])[H])C(C([H])([H])[H])(C([H])([H])[H])C([H])([H])[H])C([H])([H])c2c([H])c(Oc3c(C([H])([H])[H])c([H])c([H])c([H])c3C([H])([H])C3([H])C([H])([H])C([H])([H])C([H])([H])C3([H])N([H])C(=O)N3C([H])([H])C([H])([H])C([H])([H])C([H])(n4nc(-c5c([H])c([H])c(Oc6c([H])c([H])c(F)c([H])c6F)c([H])c5[H])c(C(=O)N([H])[H])c4N([H])[H])C3([H])[H])c([H])c([H])c2C1([H])[H]

>  <smiles>  (42) 
[H]c1c([H])c([H])c2c(c1[H])C([H])([H])C([H])([H])C([H])([H])C2([H])N([H])C(=O)C1([H])N(C(=O)C([H])(N([H])C(=O)C([H])(N([H])C([H])([H])[H])C([H])([H])[H])C(C([H])([H])[H])(C([H])([H])[H])C([H])([H])[H])C([H])([H])c2c([H])c(Oc3c(C([H])([H])[H])c([H])c([H])c([H])c3C([H])([H])C3([H])C([H])([H])C([H])([H])C([H])([H])C3([H])N([H])C(=O)N3C([H])([H])C([H])([H])C([H])([H])C([H])(n4nc(-c5c([H])c([H])c(Oc6c([H])c([H])c(F)c([H])c6F)c([H])c5[H])c(C(=O)N([H])[H])c4N([H])[H])C3([H])[H])c([H])c([H])c2C1([H])[H]

$$$$
42:0:0
     RDKit          3D

 88 95  0  0  1  0  0  0  0  0999 V2000
  -28.4750  -18.7440   19.9160 C   0  0  0  0  0  3  0  0  0  0  0  0
  -30.4110  -19.3180   20.6630 C   0  0  0  0  0  3  0  0  0  0  0  0
  -29.7250  -17.9850   20.3370 C   0  0  0  0  0  0  0  0  0  0  0  0
  -28.0620  -20.2670   19.8690 C   0  0  0  0  0  0  0  0  0  0  0  0
  -28.7500  -21.5900   20.1970 C   0  0  0  0  0  3  0  0  0  0  0  0
  -30.0130  -20.8500   20.6330 C   0  0  0  0  0  0  0  0  0  0  0  0
  -26.6330  -20.5150   19.4160 C   0  0  0  0  0  2  0  0  0  0  0  0
  -26.4680  -21.8270   18.6200 C   0  0  0  0  0  2  0  0  0  0  0  0
  -26.6020  -23.1480   19.4180 C   0  0  0  0  0  2  0  0  0  0  0  0
  -27.9350  -23.4090   20.1540 C   0  0  0  0  0  1  0  0  0  0  0  0
  -31.0850  -21.7880   21.1570 C   0  0  0  0  0  1  0  0  0  0  0  0
  -30.3510  -16.2110   20.3560 C   0  0  0  0  0  0  0  0  0  0  0  0
  -30.6080  -13.5390   19.7440 C   0  0  0  0  0  2  0  0  0  0  0  0
  -29.8360  -12.9120   18.5370 C   0  0  0  0  0  2  0  0  0  0  0  0
  -28.4270  -12.4710   18.9470 C   0  0  0  0  0  2  0  0  0  0  0  0
  -27.7910  -13.5190   19.8830 C   0  0  0  0  0  3  0  0  0  0  0  0
  -28.7250  -14.0710   20.9950 C   0  0  0  0  0  2  0  0  0  0  0  0
  -29.8780  -14.7780   20.3570 N   0  0  0  0  0  0  0  0  0  0  0  0
  -31.5930  -16.0540   20.2690 O   0  0  0  0  0  0  0  0  0  0  0  0
  -25.4110  -13.9770   20.6030 C   0  0  0  0  0  0  0  0  0  0  0  0
  -24.3560  -13.1750   20.9280 C   0  0  0  0  0  0  0  0  0  0  0  0
  -24.8500  -11.8330   20.8940 C   0  0  0  0  0  0  0  0  0  0  0  0
  -26.4770  -13.1290   20.3760 N   0  0  0  0  0  0  0  0  0  0  0  0
  -26.1540  -11.8290   20.6160 N   0  0  0  0  0  0  0  0  0  0  0  0
  -24.1340  -10.5570   21.0490 C   0  0  0  0  0  0  0  0  0  0  0  0
  -24.5040   -9.6110   22.0300 C   0  0  0  0  0  3  0  0  0  0  0  0
  -23.7800   -8.4070   22.1740 C   0  0  0  0  0  3  0  0  0  0  0  0
  -22.6720   -8.1400   21.3360 C   0  0  0  0  0  0  0  0  0  0  0  0
  -22.3210   -9.0740   20.3460 C   0  0  0  0  0  3  0  0  0  0  0  0
  -23.0460  -10.2690   20.2010 C   0  0  0  0  0  3  0  0  0  0  0  0
  -21.9270   -6.9850   21.3860 O   0  0  0  0  0  0  0  0  0  0  0  0
  -21.7420   -6.2960   22.5580 C   0  0  0  0  0  0  0  0  0  0  0  0
  -21.0750   -6.8700   23.6630 C   0  0  0  0  0  3  0  0  0  0  0  0
  -20.8470   -6.1040   24.8240 C   0  0  0  0  0  3  0  0  0  0  0  0
  -21.2720   -4.7640   24.8780 C   0  0  0  0  0  0  0  0  0  0  0  0
  -21.9290   -4.1880   23.7770 C   0  0  0  0  0  3  0  0  0  0  0  0
  -22.1610   -4.9510   22.6200 C   0  0  0  0  0  0  0  0  0  0  0  0
  -22.7750   -4.3850   21.5540 F   0  0  0  0  0  0  0  0  0  0  0  0
  -21.0460   -4.0250   25.9900 F   0  0  0  0  0  0  0  0  0  0  0  0
  -22.9440  -13.6270   21.1560 C   0  0  0  0  0  0  0  0  0  0  0  0
  -22.2080  -12.9280   22.0090 N   0  0  0  0  0  0  0  0  0  0  0  0
  -22.5060  -14.6410   20.6120 O   0  0  0  0  0  0  0  0  0  0  0  0
  -22.5770  -12.1090   22.4690 H   0  0  0  0  0  0  0  0  0  0  0  0
  -21.2590  -13.2150   22.2080 H   0  0  0  0  0  0  0  0  0  0  0  0
  -25.5540  -15.3530   20.4450 N   0  0  0  0  0  0  0  0  0  0  0  0
  -24.7730  -15.9920   20.5400 H   0  0  0  0  0  0  0  0  0  0  0  0
  -26.4070  -15.8090   20.1470 H   0  0  0  0  0  0  0  0  0  0  0  0
  -28.1180  -25.2940   20.0930 O   0  0  0  0  0  1  0  0  0  0  0  0
  -24.5850  -31.8540   23.1200 C   0  0  0  0  0  0  0  0  0  0  0  0
  -27.1740  -26.6290   20.1020 C   0  0  0  0  0  0  0  0  0  0  0  0
  -23.4420  -30.4740   21.4450 C   0  0  0  0  0  3  0  0  0  0  0  0
  -24.9270  -28.8240   20.0420 C   0  0  0  0  0  0  0  0  0  0  0  0
  -26.0330  -30.5580   21.4020 C   0  0  0  0  0  2  0  0  0  0  0  0
  -26.1130  -29.1120   20.7250 C   0  0  0  0  0  0  0  0  0  0  0  0
  -27.2060  -28.0520   20.7210 C   0  0  0  0  0  3  0  0  0  0  0  0
  -25.9660  -26.6520   19.3310 C   0  0  0  0  0  3  0  0  0  0  0  0
  -24.9110  -27.6250   19.3150 C   0  0  0  0  0  3  0  0  0  0  0  0
  -23.7230  -29.7910   20.0730 C   0  0  0  0  0  2  0  0  0  0  0  0
  -24.7120  -31.0010   22.0410 N   0  0  0  0  0  0  0  0  0  0  0  0
  -23.4770  -32.1480   23.6060 O   0  0  0  0  0  0  0  0  0  0  0  0
  -22.6950  -29.4910   22.3900 C   0  0  0  0  0  0  0  0  0  0  0  0
  -21.3590  -29.3580   22.2560 N   0  0  0  0  0  0  0  0  0  0  0  0
  -23.3340  -28.8420   23.2220 O   0  0  0  0  0  0  0  0  0  0  0  0
  -20.8900  -29.9290   21.5670 H   0  0  0  0  0  0  0  0  0  0  0  0
  -17.9440  -28.2360   22.8270 C   0  0  0  0  0  0  0  0  0  0  0  0
  -20.5210  -28.4080   23.0020 C   0  0  0  0  0  3  0  0  0  0  0  0
  -20.5490  -27.0090   22.3440 C   0  0  0  0  0  2  0  0  0  0  0  0
  -19.4020  -26.7850   21.3530 C   0  0  0  0  0  2  0  0  0  0  0  0
  -18.0500  -26.9300   22.0580 C   0  0  0  0  0  2  0  0  0  0  0  0
  -19.1030  -28.9380   23.2570 C   0  0  0  0  0  0  0  0  0  0  0  0
  -18.9450  -30.1590   23.9480 C   0  0  0  0  0  3  0  0  0  0  0  0
  -17.6620  -30.6800   24.2060 C   0  0  0  0  0  3  0  0  0  0  0  0
  -16.5190  -29.9770   23.7880 C   0  0  0  0  0  3  0  0  0  0  0  0
  -16.6610  -28.7560   23.1050 C   0  0  0  0  0  3  0  0  0  0  0  0
  -25.8230  -32.5130   23.8000 C   0  0  0  0  0  3  0  0  0  0  0  0
  -25.4880  -33.9150   24.1280 N   0  0  0  0  0  0  0  0  0  0  0  0
  -25.8210  -34.9860   23.3950 C   0  0  0  0  0  0  0  0  0  0  0  0
  -26.4970  -34.8990   22.3680 O   0  0  0  0  0  0  0  0  0  0  0  0
  -24.8840  -34.0540   24.9250 H   0  0  0  0  0  0  0  0  0  0  0  0
  -24.0920  -36.7940   23.0720 C   0  0  0  0  0  1  0  0  0  0  0  0
  -25.3340  -36.3720   23.8740 C   0  0  0  0  0  3  0  0  0  0  0  0
  -27.4580  -37.2690   24.7260 C   0  0  0  0  0  1  0  0  0  0  0  0
  -26.3640  -37.4320   23.7740 N   0  0  0  0  0  0  0  0  0  0  0  0
  -25.9510  -38.3490   23.9210 H   0  0  0  0  0  0  0  0  0  0  0  0
  -26.2780  -31.7590   25.1120 C   0  0  1  0  0  0  0  0  0  0  0  0
  -25.1360  -31.5370   26.1320 C   0  0  0  0  0  1  0  0  0  0  0  0
  -26.8780  -30.3740   24.7850 C   0  0  0  0  0  1  0  0  0  0  0  0
  -27.3980  -32.5620   25.8140 C   0  0  0  0  0  1  0  0  0  0  0  0
  1  3  1  0
  3 12  1  0
  3  2  2  0
  4  1  2  0
  4  5  1  0
  5  6  2  0
  6  2  1  0
  6 11  1  0
  7  4  1  0
  8  7  1  0
  8  9  1  0
  9 10  1  0
 12 18  1  0
 13 18  1  0
 14 15  1  0
 14 13  1  0
 16 15  1  0
 16 23  1  0
 16 17  1  0
 18 17  1  0
 19 12  2  0
 20 21  2  0
 21 40  1  0
 22 21  1  0
 22 25  1  0
 23 20  1  0
 23 24  1  0
 24 22  2  0
 25 26  1  0
 26 27  2  0
 28 31  1  0
 28 27  1  0
 29 28  2  0
 30 29  1  0
 30 25  2  0
 31 32  1  0
 32 37  2  0
 32 33  1  0
 33 34  2  0
 34 35  1  0
 35 39  1  0
 36 35  2  0
 37 36  1  0
 38 37  1  0
 40 41  1  0
 41 44  1  0
 41 43  1  0
 42 40  2  0
 45 46  1  0
 45 20  1  0
 47 45  1  0
 48 50  1  0
 49 60  2  0
 50 55  1  0
 51 59  1  0
 51 61  1  0
 52 58  1  0
 52 54  1  0
 53 59  1  0
 54 53  1  0
 55 54  2  0
 56 50  2  0
 57 56  1  0
 57 52  2  0
 58 51  1  0
 59 49  1  0
 61 63  2  0
 62 61  1  0
 64 62  1  0
 65 74  2  0
 65 70  1  0
 66 62  1  0
 66 70  1  0
 67 66  1  0
 68 69  1  0
 68 67  1  0
 69 65  1  0
 70 71  2  0
 71 72  1  0
 73 72  2  0
 74 73  1  0
 75 49  1  0
 75 76  1  0
 75 85  1  0
 76 79  1  0
 77 81  1  0
 77 76  1  0
 78 77  2  0
 81 80  1  0
 83 81  1  0
 83 84  1  0
 83 82  1  0
 85 88  1  1
 85 86  1  0
 87 85  1  0
M  ISO  4   3 100  10 101  12 100  48 101
M  END
>  <TORSDO>  (43) 
F 16

>  <SCORE>  (43) 
-16.074

>  <name>  (43) 
42

>  <ligand_id>  (43) 
42

>  <original_smiles>  (43) 
[H]c1c([H])c([H])c2c(c1[H])C([H])([H])C([H])([H])C([H])([H])C2([H])N([H])C(=O)C1([H])N(C(=O)C([H])(N([H])C(=O)C([H])(N([H])C([H])([H])[H])C([H])([H])[H])C(C([H])([H])[H])(C([H])([H])[H])C([H])([H])[H])C([H])([H])c2c([H])c(OC3([H])c4c(C([H])([H])[H])c([H])c(C(=O)N5C([H])([H])C([H])([H])C([H])([H])C([H])(n6nc(-c7c([H])c([H])c(Oc8c([H])c([H])c(F)c([H])c8F)c([H])c7[H])c(C(=O)N([H])[H])c6N([H])[H])C5([H])[H])c([H])c4C([H])([H])C([H])([H])C3([H])[H])c([H])c([H])c2C1([H])[H]

>  <smiles>  (43) 
[H]c1c([H])c([H])c2c(c1[H])C([H])([H])C([H])([H])C([H])([H])C2([H])N([H])C(=O)C1([H])N(C(=O)C([H])(N([H])C(=O)C([H])(N([H])C([H])([H])[H])C([H])([H])[H])C(C([H])([H])[H])(C([H])([H])[H])C([H])([H])[H])C([H])([H])c2c([H])c(OC3([H])c4c(C([H])([H])[H])c([H])c(C(=O)N5C([H])([H])C([H])([H])C([H])([H])C([H])(n6nc(-c7c([H])c([H])c(Oc8c([H])c([H])c(F)c([H])c8F)c([H])c7[H])c(C(=O)N([H])[H])c6N([H])[H])C5([H])[H])c([H])c4C([H])([H])C([H])([H])C3([H])[H])c([H])c([H])c2C1([H])[H]

$$$$
43:0:0
     RDKit          3D

 97107  0  0  1  0  0  0  0  0999 V2000
  -29.5810  -20.4970   19.9040 C   0  0  0  0  0  3  0  0  0  0  0  0
  -31.7040  -22.2970   20.1520 C   0  0  0  0  0  3  0  0  0  0  0  0
  -30.8920  -19.9900   20.0640 C   0  0  0  0  0  0  0  0  0  0  0  0
  -29.3320  -21.8650   19.7970 C   0  0  0  0  0  0  0  0  0  0  0  0
  -30.3980  -22.7770   19.9400 C   0  0  0  0  0  0  0  0  0  0  0  0
  -31.9710  -20.9130   20.1960 C   0  0  0  0  0  0  0  0  0  0  0  0
  -27.9140  -22.3130   19.5020 C   0  0  0  0  0  2  0  0  0  0  0  0
  -27.9060  -23.6640   18.8000 C   0  0  0  0  0  2  0  0  0  0  0  0
  -30.9140  -24.9530   18.7380 C   0  0  0  0  0  2  0  0  0  0  0  0
  -30.2010  -26.2910   18.5610 C   0  0  0  0  0  2  0  0  0  0  0  0
  -30.1550  -24.2720   19.8770 C   0  0  0  0  0  3  0  0  0  0  0  0
  -28.6890  -24.6690   19.6490 C   0  0  0  0  0  3  0  0  0  0  0  0
  -28.7520  -26.0570   19.0200 C   0  0  0  0  0  3  0  0  0  0  0  0
  -33.4210  -20.4840   20.3770 C   0  0  0  0  0  1  0  0  0  0  0  0
  -31.0690  -18.4940   20.0780 C   0  0  0  0  0  0  0  0  0  0  0  0
  -30.0120  -17.8320   19.5970 N   0  0  0  0  0  0  0  0  0  0  0  0
  -32.0920  -17.9360   20.4760 O   0  0  0  0  0  0  0  0  0  0  0  0
  -29.2550  -18.4110   19.2600 H   0  0  0  0  0  0  0  0  0  0  0  0
  -29.8370  -16.4040   19.4630 C   0  0  0  0  0  2  0  0  0  0  0  0
  -29.9440  -15.6450   20.8070 C   0  0  0  0  0  2  0  0  0  0  0  0
  -30.7150  -14.3600   20.5370 C   0  0  0  0  0  0  0  0  0  0  0  0
  -30.3930  -12.2460   19.3680 C   0  0  0  0  0  2  0  0  0  0  0  0
  -29.4810  -12.5360   18.1560 C   0  0  0  0  0  2  0  0  0  0  0  0
  -27.9930  -12.4280   18.5520 C   0  0  0  0  0  2  0  0  0  0  0  0
  -27.6520  -13.2360   19.8330 C   0  0  0  0  0  3  0  0  0  0  0  0
  -28.6820  -12.9460   20.9500 C   0  0  0  0  0  2  0  0  0  0  0  0
  -30.0310  -13.2000   20.4210 N   0  0  0  0  0  0  0  0  0  0  0  0
  -31.8900  -14.4910   20.1810 O   0  0  0  0  0  0  0  0  0  0  0  0
  -25.2390  -13.8690   20.4780 C   0  0  0  0  0  0  0  0  0  0  0  0
  -24.1580  -13.1050   20.8300 C   0  0  0  0  0  0  0  0  0  0  0  0
  -24.6130  -11.7510   20.8220 C   0  0  0  0  0  0  0  0  0  0  0  0
  -26.2850  -12.9790   20.2810 N   0  0  0  0  0  0  0  0  0  0  0  0
  -25.9090  -11.7020   20.5430 N   0  0  0  0  0  0  0  0  0  0  0  0
  -23.8790  -10.4930   21.0080 C   0  0  0  0  0  0  0  0  0  0  0  0
  -24.2830   -9.5370   21.9650 C   0  0  0  0  0  3  0  0  0  0  0  0
  -23.5510   -8.3430   22.1370 C   0  0  0  0  0  3  0  0  0  0  0  0
  -22.4010   -8.0970   21.3500 C   0  0  0  0  0  0  0  0  0  0  0  0
  -22.0160   -9.0420   20.3830 C   0  0  0  0  0  3  0  0  0  0  0  0
  -22.7490  -10.2270   20.2090 C   0  0  0  0  0  3  0  0  0  0  0  0
  -21.6430   -6.9530   21.4300 O   0  0  0  0  0  0  0  0  0  0  0  0
  -21.5510   -6.2310   22.5930 C   0  0  0  0  0  0  0  0  0  0  0  0
  -21.0690   -6.8040   23.7900 C   0  0  0  0  0  3  0  0  0  0  0  0
  -20.9260   -6.0060   24.9440 C   0  0  0  0  0  3  0  0  0  0  0  0
  -21.2530   -4.6370   24.9000 C   0  0  0  0  0  0  0  0  0  0  0  0
  -21.7280   -4.0650   23.7070 C   0  0  0  0  0  3  0  0  0  0  0  0
  -21.8730   -4.8590   22.5550 C   0  0  0  0  0  0  0  0  0  0  0  0
  -22.3110   -4.2980   21.4030 F   0  0  0  0  0  0  0  0  0  0  0  0
  -21.1080   -3.8700   26.0050 F   0  0  0  0  0  0  0  0  0  0  0  0
  -22.7570  -13.5900   21.0690 C   0  0  0  0  0  0  0  0  0  0  0  0
  -22.0060  -12.9000   21.9190 N   0  0  0  0  0  0  0  0  0  0  0  0
  -22.3360  -14.6160   20.5360 O   0  0  0  0  0  0  0  0  0  0  0  0
  -22.3590  -12.0690   22.3730 H   0  0  0  0  0  0  0  0  0  0  0  0
  -21.0640  -13.2060   22.1220 H   0  0  0  0  0  0  0  0  0  0  0  0
  -25.4140  -15.2360   20.2930 N   0  0  0  0  0  0  0  0  0  0  0  0
  -24.6490  -15.8960   20.3820 H   0  0  0  0  0  0  0  0  0  0  0  0
  -26.2780  -15.6720   19.9980 H   0  0  0  0  0  0  0  0  0  0  0  0
  -28.4740  -26.9420   20.0870 O   0  0  0  0  0  0  0  0  0  0  0  0
  -24.5570  -31.9010   23.2290 C   0  0  0  0  0  0  0  0  0  0  0  0
  -27.2370  -27.5270   20.1390 C   0  0  0  0  0  0  0  0  0  0  0  0
  -23.3540  -30.4940   21.5840 C   0  0  0  0  0  3  0  0  0  0  0  0
  -24.8130  -28.9560   20.1760 C   0  0  0  0  0  0  0  0  0  0  0  0
  -25.8720  -30.8710   21.3890 C   0  0  0  0  0  2  0  0  0  0  0  0
  -25.9600  -29.5010   20.7650 C   0  0  0  0  0  0  0  0  0  0  0  0
  -27.1690  -28.7840   20.7610 C   0  0  0  0  0  3  0  0  0  0  0  0
  -26.0650  -26.9620   19.5820 C   0  0  0  0  0  3  0  0  0  0  0  0
  -24.8530  -27.6770   19.5950 C   0  0  0  0  0  3  0  0  0  0  0  0
  -23.5660  -29.8060   20.2080 C   0  0  0  0  0  2  0  0  0  0  0  0
  -24.6120  -31.1030   22.1260 N   0  0  0  0  0  0  0  0  0  0  0  0
  -23.4740  -32.1720   23.7670 O   0  0  0  0  0  0  0  0  0  0  0  0
  -22.7060  -29.4720   22.5430 C   0  0  0  0  0  0  0  0  0  0  0  0
  -21.3830  -29.2910   22.4130 N   0  0  0  0  0  0  0  0  0  0  0  0
  -23.3890  -28.8430   23.3560 O   0  0  0  0  0  0  0  0  0  0  0  0
  -20.8950  -29.8500   21.7270 H   0  0  0  0  0  0  0  0  0  0  0  0
  -18.0000  -28.1390   22.9240 C   0  0  0  0  0  0  0  0  0  0  0  0
  -20.5620  -28.3560   23.1800 C   0  0  0  0  0  3  0  0  0  0  0  0
  -20.6410  -26.9310   22.5870 C   0  0  0  0  0  2  0  0  0  0  0  0
  -19.5260  -26.6350   21.5780 C   0  0  0  0  0  2  0  0  0  0  0  0
  -18.1520  -26.7940   22.2340 C   0  0  0  0  0  2  0  0  0  0  0  0
  -19.1320  -28.8800   23.3530 C   0  0  0  0  0  0  0  0  0  0  0  0
  -18.9380  -30.1420   23.9560 C   0  0  0  0  0  3  0  0  0  0  0  0
  -17.6420  -30.6620   24.1340 C   0  0  0  0  0  3  0  0  0  0  0  0
  -16.5230  -29.9170   23.7220 C   0  0  0  0  0  3  0  0  0  0  0  0
  -16.7040  -28.6570   23.1220 C   0  0  0  0  0  3  0  0  0  0  0  0
  -25.8430  -32.5300   23.8510 C   0  0  0  0  0  3  0  0  0  0  0  0
  -26.3600  -31.7580   25.1270 C   0  0  1  0  0  0  0  0  0  0  0  0
  -25.2660  -31.5170   26.1920 C   0  0  0  0  0  1  0  0  0  0  0  0
  -26.9450  -30.3830   24.7300 C   0  0  0  0  0  1  0  0  0  0  0  0
  -27.5080  -32.5530   25.7920 C   0  0  0  0  0  1  0  0  0  0  0  0
  -25.5370  -33.9280   24.1750 N   0  0  0  0  0  0  0  0  0  0  0  0
  -25.8890  -34.9770   23.4190 C   0  0  0  0  0  0  0  0  0  0  0  0
  -26.5780  -34.8690   22.4010 O   0  0  0  0  0  0  0  0  0  0  0  0
  -24.9280  -34.0870   24.9640 H   0  0  0  0  0  0  0  0  0  0  0  0
  -24.1920  -36.7860   23.0060 C   0  0  0  0  0  1  0  0  0  0  0  0
  -25.3980  -36.3670   23.8640 C   0  0  0  0  0  3  0  0  0  0  0  0
  -27.5050  -37.2280   24.7840 C   0  0  0  0  0  1  0  0  0  0  0  0
  -26.4440  -37.4100   23.7970 N   0  0  0  0  0  0  0  0  0  0  0  0
  -26.0410  -38.3340   23.9310 H   0  0  0  0  0  0  0  0  0  0  0  0
  1  3  1  0
  2  6  1  0
  3 15  1  0
  3  6  2  0
  4  1  2  0
  4  5  1  0
  5  2  2  0
  6 14  1  0
  7  4  1  0
  8  7  1  0
 10  9  1  0
 10 13  1  0
 11  9  1  0
 11  5  1  0
 12  8  1  0
 12 11  1  0
 13 12  1  0
 13 57  1  0
 15 17  2  0
 16 15  1  0
 18 16  1  0
 19 16  1  0
 19 20  1  0
 21 20  1  0
 22 27  1  0
 23 24  1  0
 23 22  1  0
 25 24  1  0
 25 32  1  0
 25 26  1  0
 27 21  1  0
 27 26  1  0
 28 21  2  0
 29 30  2  0
 30 49  1  0
 31 30  1  0
 31 34  1  0
 32 29  1  0
 32 33  1  0
 33 31  2  0
 34 35  1  0
 35 36  2  0
 37 40  1  0
 37 36  1  0
 38 37  2  0
 39 38  1  0
 39 34  2  0
 40 41  1  0
 41 42  1  0
 42 43  2  0
 44 43  1  0
 44 48  1  0
 45 44  2  0
 46 41  2  0
 46 45  1  0
 47 46  1  0
 49 50  1  0
 50 53  1  0
 50 52  1  0
 51 49  2  0
 54 55  1  0
 54 29  1  0
 56 54  1  0
 57 59  1  0
 58 69  2  0
 59 64  1  0
 60 68  1  0
 60 70  1  0
 61 67  1  0
 61 63  1  0
 62 68  1  0
 63 62  1  0
 64 63  2  0
 65 66  1  0
 65 59  2  0
 66 61  2  0
 67 60  1  0
 68 58  1  0
 70 72  2  0
 71 70  1  0
 73 71  1  0
 74 83  2  0
 74 79  1  0
 75 71  1  0
 75 79  1  0
 76 75  1  0
 77 78  1  0
 77 76  1  0
 78 74  1  0
 79 80  2  0
 80 81  1  0
 82 81  2  0
 83 82  1  0
 84 58  1  0
 84 89  1  0
 84 85  1  0
 85 88  1  1
 85 86  1  0
 87 85  1  0
 89 92  1  0
 90 94  1  0
 90 89  1  0
 91 90  2  0
 94 93  1  0
 96 94  1  0
 96 97  1  0
 96 95  1  0
M  ISO  4  13 101  20 100  21 100  57 101
M  END
>  <TORSDO>  (44) 
F 19

>  <SCORE>  (44) 
-14.476

>  <name>  (44) 
43

>  <ligand_id>  (44) 
43

>  <original_smiles>  (44) 
[H]c1c([H])c([H])c2c(c1[H])C([H])([H])C([H])([H])C([H])([H])C2([H])N([H])C(=O)C1([H])N(C(=O)C([H])(N([H])C(=O)C([H])(N([H])C([H])([H])[H])C([H])([H])[H])C(C([H])([H])[H])(C([H])([H])[H])C([H])([H])[H])C([H])([H])c2c([H])c(OC3([H])C([H])([H])C([H])([H])C4([H])c5c([H])c(C([H])([H])[H])c(C(=O)N([H])C([H])([H])C([H])([H])C(=O)N6C([H])([H])C([H])([H])C([H])([H])C([H])(n7nc(-c8c([H])c([H])c(Oc9c([H])c([H])c(F)c([H])c9F)c([H])c8[H])c(C(=O)N([H])[H])c7N([H])[H])C6([H])[H])c([H])c5C([H])([H])C([H])([H])C34[H])c([H])c([H])c2C1([H])[H]

>  <smiles>  (44) 
[H]c1c([H])c([H])c2c(c1[H])C([H])([H])C([H])([H])C([H])([H])C2([H])N([H])C(=O)C1([H])N(C(=O)C([H])(N([H])C(=O)C([H])(N([H])C([H])([H])[H])C([H])([H])[H])C(C([H])([H])[H])(C([H])([H])[H])C([H])([H])[H])C([H])([H])c2c([H])c(OC3([H])C([H])([H])C([H])([H])C4([H])c5c([H])c(C([H])([H])[H])c(C(=O)N([H])C([H])([H])C([H])([H])C(=O)N6C([H])([H])C([H])([H])C([H])([H])C([H])(n7nc(-c8c([H])c([H])c(Oc9c([H])c([H])c(F)c([H])c9F)c([H])c8[H])c(C(=O)N([H])[H])c7N([H])[H])C6([H])[H])c([H])c5C([H])([H])C([H])([H])C34[H])c([H])c([H])c2C1([H])[H]

$$$$
44:0:0
     RDKit          3D

 91100  0  0  1  0  0  0  0  0999 V2000
  -29.3860  -21.8980   21.7740 C   0  0  0  0  0  3  0  0  0  0  0  0
  -29.3050  -20.7580   20.8500 C   0  0  0  0  0  0  0  0  0  0  0  0
  -28.7010  -21.2930   19.6770 C   0  0  0  0  0  0  0  0  0  0  0  0
  -28.9760  -23.3360   21.6000 C   0  0  0  0  0  0  0  0  0  0  0  0
  -28.3060  -22.8060   19.4780 C   0  0  0  0  0  0  0  0  0  0  0  0
  -28.4050  -24.0210   20.4310 C   0  0  0  0  0  0  0  0  0  0  0  0
  -29.8430  -19.0940   21.0720 C   0  0  0  0  0  2  0  0  0  0  0  0
  -29.3290  -18.5530   18.8240 C   0  0  0  0  0  2  0  0  0  0  0  0
  -28.4570  -20.0110   18.7300 C   0  0  0  0  0  3  0  0  0  0  0  0
  -29.5380  -17.5970   20.1470 C   0  0  0  0  0  3  0  0  0  0  0  0
  -29.1700  -24.2380   22.8060 C   0  0  0  0  0  1  0  0  0  0  0  0
  -27.7350  -23.1410   18.1140 C   0  0  0  0  0  1  0  0  0  0  0  0
  -30.3670  -15.8800   20.0640 C   0  0  0  0  0  0  0  0  0  0  0  0
  -30.5350  -13.3100   19.2850 C   0  0  0  0  0  2  0  0  0  0  0  0
  -29.6330  -12.8760   18.0910 C   0  0  0  0  0  2  0  0  0  0  0  0
  -28.2300  -12.4830   18.5730 C   0  0  0  0  0  2  0  0  0  0  0  0
  -27.7120  -13.4840   19.6290 C   0  0  0  0  0  3  0  0  0  0  0  0
  -28.7490  -13.8320   20.7210 C   0  0  0  0  0  2  0  0  0  0  0  0
  -29.9060  -14.4820   20.0580 N   0  0  0  0  0  0  0  0  0  0  0  0
  -31.5950  -15.8180   19.8480 O   0  0  0  0  0  0  0  0  0  0  0  0
  -25.3720  -13.9740   20.4730 C   0  0  0  0  0  0  0  0  0  0  0  0
  -24.3300  -13.1780   20.8530 C   0  0  0  0  0  0  0  0  0  0  0  0
  -24.8130  -11.8320   20.7800 C   0  0  0  0  0  0  0  0  0  0  0  0
  -26.4150  -13.1190   20.1790 N   0  0  0  0  0  0  0  0  0  0  0  0
  -26.0960  -11.8220   20.4310 N   0  0  0  0  0  0  0  0  0  0  0  0
  -24.1010  -10.5600   20.9640 C   0  0  0  0  0  0  0  0  0  0  0  0
  -24.5260   -9.6050   21.9140 C   0  0  0  0  0  3  0  0  0  0  0  0
  -23.8120   -8.3990   22.0890 C   0  0  0  0  0  3  0  0  0  0  0  0
  -22.6570   -8.1410   21.3140 C   0  0  0  0  0  0  0  0  0  0  0  0
  -22.2510   -9.0830   20.3530 C   0  0  0  0  0  3  0  0  0  0  0  0
  -22.9660  -10.2800   20.1760 C   0  0  0  0  0  3  0  0  0  0  0  0
  -21.9150   -6.9860   21.3950 O   0  0  0  0  0  0  0  0  0  0  0  0
  -21.8040   -6.2840   22.5670 C   0  0  0  0  0  0  0  0  0  0  0  0
  -21.2740   -6.8680   23.7380 C   0  0  0  0  0  3  0  0  0  0  0  0
  -21.1110   -6.0910   24.9020 C   0  0  0  0  0  3  0  0  0  0  0  0
  -21.4690   -4.7280   24.8950 C   0  0  0  0  0  0  0  0  0  0  0  0
  -21.9930   -4.1440   23.7280 C   0  0  0  0  0  3  0  0  0  0  0  0
  -22.1570   -4.9190   22.5680 C   0  0  0  0  0  0  0  0  0  0  0  0
  -22.6420   -4.3460   21.4390 F   0  0  0  0  0  0  0  0  0  0  0  0
  -21.3080   -3.9790   26.0110 F   0  0  0  0  0  0  0  0  0  0  0  0
  -22.9360  -13.6360   21.1630 C   0  0  0  0  0  0  0  0  0  0  0  0
  -22.2350  -12.9150   22.0300 N   0  0  0  0  0  0  0  0  0  0  0  0
  -22.4780  -14.6660   20.6710 O   0  0  0  0  0  0  0  0  0  0  0  0
  -22.6220  -12.0810   22.4470 H   0  0  0  0  0  0  0  0  0  0  0  0
  -21.2990  -13.2020   22.2790 H   0  0  0  0  0  0  0  0  0  0  0  0
  -25.5150  -15.3500   20.3230 N   0  0  0  0  0  0  0  0  0  0  0  0
  -24.7470  -15.9940   20.4790 H   0  0  0  0  0  0  0  0  0  0  0  0
  -26.3520  -15.8100   19.9890 H   0  0  0  0  0  0  0  0  0  0  0  0
  -26.4390  -19.3420   17.6010 C   0  0  0  0  0  1  0  0  0  0  0  0
  -27.0760  -19.6690   18.8300 O   0  0  0  0  0  0  0  0  0  0  0  0
  -28.2940  -25.6470   20.3140 O   0  0  0  0  0  0  0  0  0  0  0  0
  -24.7170  -31.9530   23.2520 C   0  0  0  0  0  0  0  0  0  0  0  0
  -27.2740  -26.8270   20.3440 C   0  0  0  0  0  0  0  0  0  0  0  0
  -23.5450  -30.5380   21.6190 C   0  0  0  0  0  3  0  0  0  0  0  0
  -25.0070  -28.8710   20.2440 C   0  0  0  0  0  0  0  0  0  0  0  0
  -26.1250  -30.6790   21.5180 C   0  0  0  0  0  2  0  0  0  0  0  0
  -26.1960  -29.2320   20.8870 C   0  0  0  0  0  0  0  0  0  0  0  0
  -27.3120  -28.2380   20.9030 C   0  0  0  0  0  3  0  0  0  0  0  0
  -26.0500  -26.6820   19.6410 C   0  0  0  0  0  3  0  0  0  0  0  0
  -24.9730  -27.6210   19.6010 C   0  0  0  0  0  3  0  0  0  0  0  0
  -23.8000  -29.8250   20.2590 C   0  0  0  0  0  2  0  0  0  0  0  0
  -24.8200  -31.0930   22.1820 N   0  0  0  0  0  0  0  0  0  0  0  0
  -23.6190  -32.2540   23.7530 O   0  0  0  0  0  0  0  0  0  0  0  0
  -22.8240  -29.5680   22.5940 C   0  0  0  0  0  0  0  0  0  0  0  0
  -21.4940  -29.4030   22.4550 N   0  0  0  0  0  0  0  0  0  0  0  0
  -23.4750  -28.9600   23.4470 O   0  0  0  0  0  0  0  0  0  0  0  0
  -21.0190  -29.9440   21.7460 H   0  0  0  0  0  0  0  0  0  0  0  0
  -18.1100  -28.1740   22.9430 C   0  0  0  0  0  0  0  0  0  0  0  0
  -20.6660  -28.4700   23.2290 C   0  0  0  0  0  3  0  0  0  0  0  0
  -20.7840  -27.0300   22.6770 C   0  0  0  0  0  2  0  0  0  0  0  0
  -19.6980  -26.6870   21.6520 C   0  0  0  0  0  2  0  0  0  0  0  0
  -18.3090  -26.8220   22.2790 C   0  0  0  0  0  2  0  0  0  0  0  0
  -19.2160  -28.9540   23.3750 C   0  0  0  0  0  0  0  0  0  0  0  0
  -18.9730  -30.2160   23.9610 C   0  0  0  0  0  3  0  0  0  0  0  0
  -17.6610  -30.6990   24.1140 C   0  0  0  0  0  3  0  0  0  0  0  0
  -16.5690  -29.9180   23.6960 C   0  0  0  0  0  3  0  0  0  0  0  0
  -16.7950  -28.6570   23.1170 C   0  0  0  0  0  3  0  0  0  0  0  0
  -25.9710  -32.6160   23.8980 C   0  0  0  0  0  3  0  0  0  0  0  0
  -25.6380  -34.0160   24.2270 N   0  0  0  0  0  0  0  0  0  0  0  0
  -25.9370  -35.0800   23.4680 C   0  0  0  0  0  0  0  0  0  0  0  0
  -26.5810  -34.9850   22.4190 O   0  0  0  0  0  0  0  0  0  0  0  0
  -25.0650  -34.1590   25.0450 H   0  0  0  0  0  0  0  0  0  0  0  0
  -24.1600  -36.8460   23.1970 C   0  0  0  0  0  1  0  0  0  0  0  0
  -25.4510  -36.4660   23.9430 C   0  0  0  0  0  3  0  0  0  0  0  0
  -27.6050  -37.4100   24.6560 C   0  0  0  0  0  1  0  0  0  0  0  0
  -26.4550  -37.5400   23.7650 N   0  0  0  0  0  0  0  0  0  0  0  0
  -26.0370  -38.4540   23.9180 H   0  0  0  0  0  0  0  0  0  0  0  0
  -26.4630  -31.8660   25.1980 C   0  0  1  0  0  0  0  0  0  0  0  0
  -25.3480  -31.6370   26.2460 C   0  0  0  0  0  1  0  0  0  0  0  0
  -27.0650  -30.4870   24.8500 C   0  0  0  0  0  1  0  0  0  0  0  0
  -27.5940  -32.6770   25.8750 C   0  0  0  0  0  1  0  0  0  0  0  0
  2  7  1  0
  2  1  2  0
  3  2  1  0
  4  1  1  0
  4 11  1  0
  5  3  2  0
  5  6  1  0
  6  4  2  0
  8 10  1  0
  9  8  1  0
  9 50  1  0
  9  3  1  0
 10 13  1  0
 10  7  1  0
 12  5  1  0
 14 19  1  0
 15 16  1  0
 15 14  1  0
 17 16  1  0
 17 24  1  0
 17 18  1  0
 19 13  1  0
 19 18  1  0
 20 13  2  0
 21 22  2  0
 22 41  1  0
 23 22  1  0
 23 26  1  0
 24 25  1  0
 24 21  1  0
 25 23  2  0
 26 27  1  0
 27 28  2  0
 29 32  1  0
 29 28  1  0
 30 29  2  0
 31 30  1  0
 31 26  2  0
 32 33  1  0
 33 38  2  0
 33 34  1  0
 34 35  2  0
 36 35  1  0
 36 40  1  0
 37 36  2  0
 38 37  1  0
 39 38  1  0
 41 42  1  0
 42 45  1  0
 42 44  1  0
 43 41  2  0
 46 21  1  0
 46 47  1  0
 48 46  1  0
 49 50  1  0
 51 53  1  0
 51  6  1  0
 52 63  2  0
 53 58  1  0
 54 62  1  0
 54 64  1  0
 55 61  1  0
 55 57  1  0
 56 62  1  0
 57 58  2  0
 57 56  1  0
 59 53  2  0
 60 59  1  0
 60 55  2  0
 61 54  1  0
 62 52  1  0
 64 66  2  0
 65 64  1  0
 67 65  1  0
 68 77  2  0
 68 73  1  0
 69 65  1  0
 69 73  1  0
 70 69  1  0
 71 72  1  0
 71 70  1  0
 72 68  1  0
 73 74  2  0
 74 75  1  0
 76 75  2  0
 77 76  1  0
 78 52  1  0
 78 79  1  0
 78 88  1  0
 79 82  1  0
 80 84  1  0
 80 79  1  0
 81 80  2  0
 84 83  1  0
 86 87  1  0
 86 84  1  0
 86 85  1  0
 88 91  1  1
 88 89  1  0
 90 88  1  0
M  ISO  4   6 101  10 100  13 100  51 101
M  END
>  <TORSDO>  (45) 
F 17

>  <SCORE>  (45) 
-15.066

>  <name>  (45) 
44

>  <ligand_id>  (45) 
44

>  <original_smiles>  (45) 
[H]c1c([H])c([H])c2c(c1[H])C([H])([H])C([H])([H])C([H])([H])C2([H])N([H])C(=O)C1([H])N(C(=O)C([H])(N([H])C(=O)C([H])(N([H])C([H])([H])[H])C([H])([H])[H])C(C([H])([H])[H])(C([H])([H])[H])C([H])([H])[H])C([H])([H])c2c([H])c(Oc3c(C([H])([H])[H])c([H])c4c(c3C([H])([H])[H])C([H])(OC([H])([H])[H])C([H])([H])C([H])(C(=O)N3C([H])([H])C([H])([H])C([H])([H])C([H])(n5nc(-c6c([H])c([H])c(Oc7c([H])c([H])c(F)c([H])c7F)c([H])c6[H])c(C(=O)N([H])[H])c5N([H])[H])C3([H])[H])C4([H])[H])c([H])c([H])c2C1([H])[H]

>  <smiles>  (45) 
[H]c1c([H])c([H])c2c(c1[H])C([H])([H])C([H])([H])C([H])([H])C2([H])N([H])C(=O)C1([H])N(C(=O)C([H])(N([H])C(=O)C([H])(N([H])C([H])([H])[H])C([H])([H])[H])C(C([H])([H])[H])(C([H])([H])[H])C([H])([H])[H])C([H])([H])c2c([H])c(Oc3c(C([H])([H])[H])c([H])c4c(c3C([H])([H])[H])C([H])(OC([H])([H])[H])C([H])([H])C([H])(C(=O)N3C([H])([H])C([H])([H])C([H])([H])C([H])(n5nc(-c6c([H])c([H])c(Oc7c([H])c([H])c(F)c([H])c7F)c([H])c6[H])c(C(=O)N([H])[H])c5N([H])[H])C3([H])[H])C4([H])[H])c([H])c([H])c2C1([H])[H]

$$$$
45:0:0
     RDKit          3D

 93101  0  0  1  0  0  0  0  0999 V2000
  -28.2590  -23.8810   21.4230 C   0  0  0  0  0  3  0  0  0  0  0  0
  -29.6100  -23.5960   19.4230 C   0  0  0  0  0  3  0  0  0  0  0  0
  -28.4500  -25.2770   21.3600 C   0  0  0  0  0  3  0  0  0  0  0  0
  -29.7710  -24.9960   19.3360 C   0  0  0  0  0  3  0  0  0  0  0  0
  -28.8540  -23.0210   20.4710 C   0  0  0  0  0  0  0  0  0  0  0  0
  -29.1940  -25.8530   20.3040 C   0  0  0  0  0  0  0  0  0  0  0  0
  -29.2450  -27.2240   20.1490 O   0  0  0  0  0  0  0  0  0  0  0  0
  -24.6420  -31.6720   23.2770 C   0  0  0  0  0  0  0  0  0  0  0  0
  -28.0130  -27.8390   20.1020 C   0  0  0  0  0  0  0  0  0  0  0  0
  -23.7110  -30.1440   21.5710 C   0  0  0  0  0  3  0  0  0  0  0  0
  -25.4160  -28.9380   20.1180 C   0  0  0  0  0  0  0  0  0  0  0  0
  -26.1460  -30.9280   21.4370 C   0  0  0  0  0  2  0  0  0  0  0  0
  -26.4650  -29.6170   20.7500 C   0  0  0  0  0  0  0  0  0  0  0  0
  -27.7700  -29.0720   20.7480 C   0  0  0  0  0  3  0  0  0  0  0  0
  -26.9490  -27.1910   19.4390 C   0  0  0  0  0  3  0  0  0  0  0  0
  -25.6520  -27.7220   19.4630 C   0  0  0  0  0  3  0  0  0  0  0  0
  -24.0450  -29.5710   20.1710 C   0  0  0  0  0  2  0  0  0  0  0  0
  -24.8470  -30.9290   22.1530 N   0  0  0  0  0  0  0  0  0  0  0  0
  -23.5220  -31.7420   23.8040 O   0  0  0  0  0  0  0  0  0  0  0  0
  -23.2340  -28.9920   22.4840 C   0  0  0  0  0  0  0  0  0  0  0  0
  -21.9990  -28.5160   22.2470 N   0  0  0  0  0  0  0  0  0  0  0  0
  -23.9700  -28.5310   23.3610 O   0  0  0  0  0  0  0  0  0  0  0  0
  -21.4500  -28.9510   21.5180 H   0  0  0  0  0  0  0  0  0  0  0  0
  -19.0100  -26.4850   22.3740 C   0  0  0  0  0  0  0  0  0  0  0  0
  -21.3520  -27.4140   22.9560 C   0  0  0  0  0  3  0  0  0  0  0  0
  -21.9000  -26.0480   22.4780 C   0  0  0  0  0  2  0  0  0  0  0  0
  -21.0630  -25.4180   21.3590 C   0  0  0  0  0  2  0  0  0  0  0  0
  -19.6190  -25.2080   21.8170 C   0  0  0  0  0  2  0  0  0  0  0  0
  -19.8250  -27.5250   22.8970 C   0  0  0  0  0  0  0  0  0  0  0  0
  -19.2090  -28.7040   23.3680 C   0  0  0  0  0  3  0  0  0  0  0  0
  -17.8110  -28.8530   23.3320 C   0  0  0  0  0  3  0  0  0  0  0  0
  -17.0070  -27.8160   22.8280 C   0  0  0  0  0  3  0  0  0  0  0  0
  -17.6080  -26.6330   22.3570 C   0  0  0  0  0  3  0  0  0  0  0  0
  -25.7970  -32.4890   23.9370 C   0  0  0  0  0  3  0  0  0  0  0  0
  -25.3030  -33.8540   24.1550 N   0  0  0  0  0  0  0  0  0  0  0  0
  -25.6950  -34.9260   23.4540 C   0  0  0  0  0  0  0  0  0  0  0  0
  -26.5790  -34.8790   22.5950 O   0  0  0  0  0  0  0  0  0  0  0  0
  -24.5440  -33.9590   24.8100 H   0  0  0  0  0  0  0  0  0  0  0  0
  -23.9410  -36.5480   22.6690 C   0  0  0  0  0  1  0  0  0  0  0  0
  -24.9930  -36.2640   23.7520 C   0  0  0  0  0  3  0  0  0  0  0  0
  -26.8200  -37.3230   25.0050 C   0  0  0  0  0  1  0  0  0  0  0  0
  -25.9270  -37.4070   23.8540 N   0  0  0  0  0  0  0  0  0  0  0  0
  -25.4130  -38.2810   23.9170 H   0  0  0  0  0  0  0  0  0  0  0  0
  -26.3090  -31.8570   25.2900 C   0  0  1  0  0  0  0  0  0  0  0  0
  -25.1720  -31.5190   26.2820 C   0  0  0  0  0  1  0  0  0  0  0  0
  -27.1070  -30.5580   25.0230 C   0  0  0  0  0  1  0  0  0  0  0  0
  -27.2790  -32.8360   25.9910 C   0  0  0  0  0  1  0  0  0  0  0  0
  -28.6260  -21.5000   20.4880 C   0  0  0  0  0  2  0  0  0  0  0  0
  -29.5860  -20.6720   21.3720 C   0  0  0  0  0  0  0  0  0  0  0  0
  -29.5720  -19.3440   21.1860 N   0  0  0  0  0  0  0  0  0  0  0  0
  -30.3250  -21.2020   22.2030 O   0  0  0  0  0  0  0  0  0  0  0  0
  -28.9240  -18.9780   20.5000 H   0  0  0  0  0  0  0  0  0  0  0  0
  -30.4150  -18.3570   21.8730 C   0  0  0  0  0  2  0  0  0  0  0  0
  -31.7870  -18.1290   21.1960 C   0  0  0  0  0  2  0  0  0  0  0  0
  -31.8130  -16.9410   20.2180 C   0  0  0  0  0  2  0  0  0  0  0  0
  -32.4820  -15.6550   20.7390 C   0  0  0  0  0  2  0  0  0  0  0  0
  -32.1030  -14.5010   19.7970 C   0  0  0  0  0  2  0  0  0  0  0  0
  -32.6870  -13.1200   20.1240 C   0  0  0  0  0  0  0  0  0  0  0  0
  -32.1020  -10.7350   20.1060 C   0  0  0  0  0  2  0  0  0  0  0  0
  -31.2120  -10.4450   18.8790 C   0  0  0  0  0  2  0  0  0  0  0  0
  -29.7300  -10.6880   19.2240 C   0  0  0  0  0  2  0  0  0  0  0  0
  -29.4910  -12.0730   19.8770 C   0  0  0  0  0  3  0  0  0  0  0  0
  -30.4940  -12.3150   21.0280 C   0  0  0  0  0  2  0  0  0  0  0  0
  -31.8570  -12.1240   20.5130 N   0  0  0  0  0  0  0  0  0  0  0  0
  -33.8570  -12.9190   19.7890 O   0  0  0  0  0  0  0  0  0  0  0  0
  -27.3830  -13.3820   20.5740 C   0  0  0  0  0  0  0  0  0  0  0  0
  -26.1200  -12.9680   20.8960 C   0  0  0  0  0  0  0  0  0  0  0  0
  -26.1410  -11.5400   20.8290 C   0  0  0  0  0  0  0  0  0  0  0  0
  -28.1090  -12.2240   20.3260 N   0  0  0  0  0  0  0  0  0  0  0  0
  -27.3630  -11.1110   20.5450 N   0  0  0  0  0  0  0  0  0  0  0  0
  -25.0560  -10.5580   20.9600 C   0  0  0  0  0  0  0  0  0  0  0  0
  -25.1360   -9.4890   21.8790 C   0  0  0  0  0  3  0  0  0  0  0  0
  -24.0730   -8.5680   22.0030 C   0  0  0  0  0  3  0  0  0  0  0  0
  -22.9130   -8.7150   21.2080 C   0  0  0  0  0  0  0  0  0  0  0  0
  -22.8470   -9.7650   20.2770 C   0  0  0  0  0  3  0  0  0  0  0  0
  -23.9080  -10.6780   20.1520 C   0  0  0  0  0  3  0  0  0  0  0  0
  -21.8440   -7.8530   21.2410 O   0  0  0  0  0  0  0  0  0  0  0  0
  -21.5290   -7.1420   22.3700 C   0  0  0  0  0  0  0  0  0  0  0  0
  -21.2320   -7.7800   23.5950 C   0  0  0  0  0  3  0  0  0  0  0  0
  -20.8420   -7.0130   24.7110 C   0  0  0  0  0  3  0  0  0  0  0  0
  -20.7440   -5.6120   24.6030 C   0  0  0  0  0  0  0  0  0  0  0  0
  -21.0350   -4.9750   23.3840 C   0  0  0  0  0  3  0  0  0  0  0  0
  -21.4250   -5.7400   22.2700 C   0  0  0  0  0  0  0  0  0  0  0  0
  -21.6820   -5.1240   21.0910 F   0  0  0  0  0  0  0  0  0  0  0  0
  -20.3570   -4.8770   25.6720 F   0  0  0  0  0  0  0  0  0  0  0  0
  -24.9290  -13.8470   21.1530 C   0  0  0  0  0  0  0  0  0  0  0  0
  -24.0150  -13.4110   22.0130 N   0  0  0  0  0  0  0  0  0  0  0  0
  -24.8190  -14.9520   20.6220 O   0  0  0  0  0  0  0  0  0  0  0  0
  -24.1100  -12.5170   22.4680 H   0  0  0  0  0  0  0  0  0  0  0  0
  -23.2100  -13.9840   22.2200 H   0  0  0  0  0  0  0  0  0  0  0  0
  -27.9670  -14.6400   20.4530 N   0  0  0  0  0  0  0  0  0  0  0  0
  -27.4560  -15.5010   20.6190 H   0  0  0  0  0  0  0  0  0  0  0  0
  -28.9370  -14.7940   20.2040 H   0  0  0  0  0  0  0  0  0  0  0  0
  2  5  1  0
  3  1  1  0
  4  2  2  0
  4  6  1  0
  5 48  1  0
  5  1  2  0
  6  3  2  0
  7  6  1  0
  8 19  2  0
  9  7  1  0
  9 14  1  0
 10 18  1  0
 10 20  1  0
 11 17  1  0
 11 13  1  0
 12 18  1  0
 13 12  1  0
 14 13  2  0
 15 16  1  0
 15  9  2  0
 16 11  2  0
 17 10  1  0
 18  8  1  0
 20 22  2  0
 21 20  1  0
 23 21  1  0
 24 29  1  0
 25 21  1  0
 26 25  1  0
 27 28  1  0
 27 26  1  0
 28 24  1  0
 29 25  1  0
 29 30  2  0
 31 30  1  0
 32 31  2  0
 33 24  2  0
 33 32  1  0
 34  8  1  0
 34 35  1  0
 34 44  1  0
 35 38  1  0
 36 40  1  0
 36 35  1  0
 37 36  2  0
 40 39  1  0
 40 42  1  0
 42 43  1  0
 42 41  1  0
 44 47  1  1
 44 45  1  0
 46 44  1  0
 48 49  1  0
 49 51  2  0
 50 49  1  0
 50 53  1  0
 52 50  1  0
 54 53  1  0
 55 56  1  0
 55 54  1  0
 57 58  1  0
 57 56  1  0
 58 64  1  0
 59 64  1  0
 60 61  1  0
 60 59  1  0
 62 61  1  0
 62 69  1  0
 62 63  1  0
 64 63  1  0
 65 58  2  0
 66 67  2  0
 67 86  1  0
 68 67  1  0
 68 71  1  0
 69 70  1  0
 69 66  1  0
 70 68  2  0
 71 72  1  0
 72 73  2  0
 74 77  1  0
 74 73  1  0
 75 74  2  0
 76 75  1  0
 76 71  2  0
 77 78  1  0
 78 79  1  0
 79 80  2  0
 81 80  1  0
 81 85  1  0
 82 81  2  0
 83 78  2  0
 83 82  1  0
 84 83  1  0
 86 87  1  0
 87 90  1  0
 87 89  1  0
 88 86  2  0
 91 66  1  0
 91 92  1  0
 93 91  1  0
M  ISO  4   6 101   7 101  57 100  58 100
M  END
>  <TORSDO>  (46) 
F 23

>  <SCORE>  (46) 
-9.832

>  <name>  (46) 
45

>  <ligand_id>  (46) 
45

>  <original_smiles>  (46) 
[H]c1c([H])c([H])c2c(c1[H])C([H])([H])C([H])([H])C([H])([H])C2([H])N([H])C(=O)C1([H])N(C(=O)C([H])(N([H])C(=O)C([H])(N([H])C([H])([H])[H])C([H])([H])[H])C(C([H])([H])[H])(C([H])([H])[H])C([H])([H])[H])C([H])([H])c2c([H])c(Oc3c([H])c([H])c(C([H])([H])C(=O)N([H])C([H])([H])C([H])([H])C([H])([H])C([H])([H])C([H])([H])C(=O)N4C([H])([H])C([H])([H])C([H])([H])C([H])(n5nc(-c6c([H])c([H])c(Oc7c([H])c([H])c(F)c([H])c7F)c([H])c6[H])c(C(=O)N([H])[H])c5N([H])[H])C4([H])[H])c([H])c3[H])c([H])c([H])c2C1([H])[H]

>  <smiles>  (46) 
[H]c1c([H])c([H])c2c(c1[H])C([H])([H])C([H])([H])C([H])([H])C2([H])N([H])C(=O)C1([H])N(C(=O)C([H])(N([H])C(=O)C([H])(N([H])C([H])([H])[H])C([H])([H])[H])C(C([H])([H])[H])(C([H])([H])[H])C([H])([H])[H])C([H])([H])c2c([H])c(Oc3c([H])c([H])c(C([H])([H])C(=O)N([H])C([H])([H])C([H])([H])C([H])([H])C([H])([H])C([H])([H])C(=O)N4C([H])([H])C([H])([H])C([H])([H])C([H])(n5nc(-c6c([H])c([H])c(Oc7c([H])c([H])c(F)c([H])c7F)c([H])c6[H])c(C(=O)N([H])[H])c5N([H])[H])C4([H])[H])c([H])c3[H])c([H])c([H])c2C1([H])[H]

$$$$
46:0:0
     RDKit          3D

 93102  0  0  1  0  0  0  0  0999 V2000
  -28.5710  -20.5550   20.1840 C   0  0  0  0  0  3  0  0  0  0  0  0
  -30.2640  -22.7400   20.2990 C   0  0  0  0  0  3  0  0  0  0  0  0
  -28.0880  -21.9630   20.1020 C   0  0  0  0  0  0  0  0  0  0  0  0
  -28.8990  -23.1920   20.1260 C   0  0  0  0  0  0  0  0  0  0  0  0
  -29.9370  -20.1040   20.3340 C   0  0  0  0  0  0  0  0  0  0  0  0
  -30.7310  -21.3360   20.4050 C   0  0  0  0  0  0  0  0  0  0  0  0
  -26.5990  -22.1090   19.9800 C   0  0  0  0  0  0  0  0  0  0  0  0
  -25.9880  -23.5090   19.8860 C   0  0  0  0  0  2  0  0  0  0  0  0
  -26.8160  -24.6210   20.5410 C   0  0  0  0  0  2  0  0  0  0  0  0
  -28.1970  -24.7620   19.8720 C   0  0  0  0  0  3  0  0  0  0  0  0
  -25.8270  -21.1470   19.9440 O   0  0  0  0  0  0  0  0  0  0  0  0
  -32.0660  -21.1790   20.5710 F   0  0  0  0  0  0  0  0  0  0  0  0
  -31.2270  -18.3920   18.8750 C   0  0  0  0  0  1  0  0  0  0  0  0
  -30.6520  -18.5160   20.3010 C   0  0  0  0  0  0  0  0  0  0  0  0
  -30.9500  -15.6850   20.6840 C   0  0  0  0  0  0  0  0  0  0  0  0
  -30.9440  -13.2460   19.8540 C   0  0  0  0  0  2  0  0  0  0  0  0
  -30.1340  -13.0620   18.5480 C   0  0  0  0  0  2  0  0  0  0  0  0
  -28.6480  -12.8160   18.8620 C   0  0  0  0  0  2  0  0  0  0  0  0
  -28.1130  -13.7910   19.9420 C   0  0  0  0  0  3  0  0  0  0  0  0
  -29.0630  -13.9370   21.1500 C   0  0  0  0  0  2  0  0  0  0  0  0
  -30.3570  -14.4010   20.6220 N   0  0  0  0  0  0  0  0  0  0  0  0
  -32.1790  -15.6630   20.5380 O   0  0  0  0  0  0  0  0  0  0  0  0
  -30.2260  -16.9680   20.6870 N   0  0  0  0  0  4  0  0  0  0  0  0
  -29.2330  -16.8550   20.8330 H   0  0  0  0  0  0  0  0  0  0  0  0
  -25.6940  -14.3650   20.5110 C   0  0  0  0  0  0  0  0  0  0  0  0
  -24.5990  -13.5940   20.7850 C   0  0  0  0  0  0  0  0  0  0  0  0
  -25.0550  -12.2410   20.7750 C   0  0  0  0  0  0  0  0  0  0  0  0
  -26.7450  -13.4840   20.3410 N   0  0  0  0  0  0  0  0  0  0  0  0
  -26.3670  -12.1980   20.5690 N   0  0  0  0  0  0  0  0  0  0  0  0
  -24.3030  -10.9830   20.8910 C   0  0  0  0  0  0  0  0  0  0  0  0
  -24.6440  -10.0030   21.8490 C   0  0  0  0  0  3  0  0  0  0  0  0
  -23.8920   -8.8130   21.9550 C   0  0  0  0  0  3  0  0  0  0  0  0
  -22.7840   -8.5930   21.1020 C   0  0  0  0  0  0  0  0  0  0  0  0
  -22.4630   -9.5630   20.1350 C   0  0  0  0  0  3  0  0  0  0  0  0
  -23.2160  -10.7440   20.0270 C   0  0  0  0  0  3  0  0  0  0  0  0
  -22.0130   -7.4570   21.1150 O   0  0  0  0  0  0  0  0  0  0  0  0
  -21.8470   -6.7120   22.2560 C   0  0  0  0  0  0  0  0  0  0  0  0
  -21.2900   -7.2630   23.4300 C   0  0  0  0  0  3  0  0  0  0  0  0
  -21.0730   -6.4460   24.5570 C   0  0  0  0  0  3  0  0  0  0  0  0
  -21.4040   -5.0780   24.5090 C   0  0  0  0  0  0  0  0  0  0  0  0
  -21.9540   -4.5260   23.3390 C   0  0  0  0  0  3  0  0  0  0  0  0
  -22.1710   -5.3410   22.2140 C   0  0  0  0  0  0  0  0  0  0  0  0
  -22.6820   -4.8000   21.0820 F   0  0  0  0  0  0  0  0  0  0  0  0
  -21.1890   -4.2900   25.5890 F   0  0  0  0  0  0  0  0  0  0  0  0
  -23.1880  -14.0820   20.9440 C   0  0  0  0  0  0  0  0  0  0  0  0
  -22.3860  -13.3880   21.7420 N   0  0  0  0  0  0  0  0  0  0  0  0
  -22.8060  -15.1160   20.3970 O   0  0  0  0  0  0  0  0  0  0  0  0
  -22.7070  -12.5530   22.2100 H   0  0  0  0  0  0  0  0  0  0  0  0
  -21.4360  -13.6970   21.8900 H   0  0  0  0  0  0  0  0  0  0  0  0
  -25.8820  -15.7370   20.3630 N   0  0  0  0  0  0  0  0  0  0  0  0
  -25.1150  -16.3970   20.4290 H   0  0  0  0  0  0  0  0  0  0  0  0
  -26.7520  -16.1690   20.0810 H   0  0  0  0  0  0  0  0  0  0  0  0
  -28.6060  -26.3270   20.0830 O   0  0  0  0  0  0  0  0  0  0  0  0
  -24.8190  -31.9190   23.3920 C   0  0  0  0  0  0  0  0  0  0  0  0
  -27.6100  -27.4320   20.0460 C   0  0  0  0  0  0  0  0  0  0  0  0
  -23.7240  -30.6580   21.5840 C   0  0  0  0  0  3  0  0  0  0  0  0
  -25.2700  -29.2430   20.0750 C   0  0  0  0  0  0  0  0  0  0  0  0
  -26.2880  -30.9460   21.5670 C   0  0  0  0  0  2  0  0  0  0  0  0
  -26.4190  -29.6120   20.7850 C   0  0  0  0  0  0  0  0  0  0  0  0
  -27.5860  -28.7260   20.7570 C   0  0  0  0  0  3  0  0  0  0  0  0
  -26.4400  -27.2340   19.2750 C   0  0  0  0  0  3  0  0  0  0  0  0
  -25.3040  -28.0740   19.3020 C   0  0  0  0  0  3  0  0  0  0  0  0
  -24.0240  -30.1200   20.1590 C   0  0  0  0  0  2  0  0  0  0  0  0
  -24.9620  -31.1950   22.2370 N   0  0  0  0  0  0  0  0  0  0  0  0
  -23.7030  -32.1340   23.8940 O   0  0  0  0  0  0  0  0  0  0  0  0
  -23.0210  -29.5580   22.4200 C   0  0  0  0  0  0  0  0  0  0  0  0
  -21.6970  -29.3950   22.2450 N   0  0  0  0  0  0  0  0  0  0  0  0
  -23.6730  -28.8560   23.1970 O   0  0  0  0  0  0  0  0  0  0  0  0
  -21.2240  -30.0130   21.6010 H   0  0  0  0  0  0  0  0  0  0  0  0
  -18.2970  -28.1880   22.6280 C   0  0  0  0  0  0  0  0  0  0  0  0
  -20.8640  -28.3780   22.8960 C   0  0  0  0  0  3  0  0  0  0  0  0
  -20.9370  -27.0320   22.1360 C   0  0  0  0  0  2  0  0  0  0  0  0
  -19.8190  -26.8630   21.1010 C   0  0  0  0  0  2  0  0  0  0  0  0
  -18.4460  -26.9390   21.7750 C   0  0  0  0  0  2  0  0  0  0  0  0
  -19.4330  -28.8720   23.1410 C   0  0  0  0  0  0  0  0  0  0  0  0
  -19.2360  -30.0440   23.9020 C   0  0  0  0  0  3  0  0  0  0  0  0
  -17.9400  -30.5320   24.1540 C   0  0  0  0  0  3  0  0  0  0  0  0
  -16.8210  -29.8430   23.6550 C   0  0  0  0  0  3  0  0  0  0  0  0
  -17.0000  -28.6710   22.8970 C   0  0  0  0  0  3  0  0  0  0  0  0
  -26.0490  -32.5250   24.1310 C   0  0  0  0  0  3  0  0  0  0  0  0
  -25.7340  -33.9260   24.4590 N   0  0  0  0  0  0  0  0  0  0  0  0
  -26.0980  -34.9870   23.7240 C   0  0  0  0  0  0  0  0  0  0  0  0
  -26.7950  -34.8870   22.7110 O   0  0  0  0  0  0  0  0  0  0  0  0
  -25.1180  -34.0770   25.2440 H   0  0  0  0  0  0  0  0  0  0  0  0
  -24.3760  -36.7880   23.3670 C   0  0  0  0  0  1  0  0  0  0  0  0
  -25.6120  -36.3770   24.1820 C   0  0  0  0  0  3  0  0  0  0  0  0
  -27.7360  -37.2670   25.0370 C   0  0  0  0  0  1  0  0  0  0  0  0
  -26.6470  -37.4290   24.0760 N   0  0  0  0  0  0  0  0  0  0  0  0
  -26.2400  -38.3500   24.2110 H   0  0  0  0  0  0  0  0  0  0  0  0
  -26.4350  -31.7330   25.4410 C   0  0  1  0  0  0  0  0  0  0  0  0
  -25.2470  -31.5070   26.4050 C   0  0  0  0  0  1  0  0  0  0  0  0
  -27.0250  -30.3460   25.0970 C   0  0  0  0  0  1  0  0  0  0  0  0
  -27.5380  -32.4990   26.2100 C   0  0  0  0  0  1  0  0  0  0  0  0
  1  5  1  0
  2  6  1  0
  3  4  1  0
  3  1  2  0
  4  2  2  0
  5  6  2  0
  6 12  1  0
  7  3  1  0
  8  7  1  0
  8  9  1  0
 10 53  1  0
 10  4  1  0
 10  9  1  0
 11  7  2  0
 13 14  1  0
 14  5  1  0
 14 23  2  0
 15 23  1  0
 16 21  1  0
 17 18  1  0
 17 16  1  0
 19 18  1  0
 19 28  1  0
 19 20  1  0
 21 15  1  0
 21 20  1  0
 22 15  2  0
 23 24  1  0
 25 26  2  0
 26 45  1  0
 27 26  1  0
 27 30  1  0
 28 25  1  0
 28 29  1  0
 29 27  2  0
 30 31  1  0
 31 32  2  0
 33 36  1  0
 33 32  1  0
 34 33  2  0
 35 34  1  0
 35 30  2  0
 36 37  1  0
 37 38  1  0
 38 39  2  0
 40 39  1  0
 40 44  1  0
 41 40  2  0
 42 37  2  0
 42 41  1  0
 43 42  1  0
 45 46  1  0
 46 49  1  0
 46 48  1  0
 47 45  2  0
 50 51  1  0
 50 25  1  0
 52 50  1  0
 54 65  2  0
 55 53  1  0
 55 60  1  0
 56 64  1  0
 56 66  1  0
 57 63  1  0
 57 59  1  0
 58 64  1  0
 59 58  1  0
 60 59  2  0
 61 62  1  0
 61 55  2  0
 62 57  2  0
 63 56  1  0
 64 54  1  0
 66 68  2  0
 67 66  1  0
 69 67  1  0
 70 79  2  0
 70 75  1  0
 71 67  1  0
 71 75  1  0
 72 71  1  0
 73 74  1  0
 73 72  1  0
 74 70  1  0
 75 76  2  0
 76 77  1  0
 78 77  2  0
 79 78  1  0
 80 54  1  0
 80 81  1  0
 80 90  1  0
 81 84  1  0
 82 86  1  0
 82 81  1  0
 83 82  2  0
 86 85  1  0
 88 86  1  0
 88 89  1  0
 88 87  1  0
 90 93  1  1
 90 91  1  0
 92 90  1  0
M  ISO  4  10 101  15 100  23 100  53 101
M  END
>  <TORSDO>  (47) 
F 17

>  <SCORE>  (47) 
-13.277

>  <name>  (47) 
46

>  <ligand_id>  (47) 
46

>  <original_smiles>  (47) 
[H]c1c([H])c([H])c2c(c1[H])C([H])([H])C([H])([H])C([H])([H])C2([H])N([H])C(=O)C1([H])N(C(=O)C([H])(N([H])C(=O)C([H])(N([H])C([H])([H])[H])C([H])([H])[H])C(C([H])([H])[H])(C([H])([H])[H])C([H])([H])[H])C([H])([H])c2c([H])c(OC3([H])c4c([H])c(F)c(C([H])(N([H])C(=O)N5C([H])([H])C([H])([H])C([H])([H])C([H])(n6nc(-c7c([H])c([H])c(Oc8c([H])c([H])c(F)c([H])c8F)c([H])c7[H])c(C(=O)N([H])[H])c6N([H])[H])C5([H])[H])C([H])([H])[H])c([H])c4C(=O)C([H])([H])C3([H])[H])c([H])c([H])c2C1([H])[H]

>  <smiles>  (47) 
[H]c1c([H])c([H])c2c(c1[H])C([H])([H])C([H])([H])C([H])([H])C2([H])N([H])C(=O)C1([H])N(C(=O)C([H])(N([H])C(=O)C([H])(N([H])C([H])([H])[H])C([H])([H])[H])C(C([H])([H])[H])(C([H])([H])[H])C([H])([H])[H])C([H])([H])c2c([H])c(OC3([H])c4c([H])c(F)c(C([H])(N([H])C(=O)N5C([H])([H])C([H])([H])C([H])([H])C([H])(n6nc(-c7c([H])c([H])c(Oc8c([H])c([H])c(F)c([H])c8F)c([H])c7[H])c(C(=O)N([H])[H])c6N([H])[H])C5([H])[H])C([H])([H])[H])c([H])c4C(=O)C([H])([H])C3([H])[H])c([H])c([H])c2C1([H])[H]

$$$$
47:0:0
     RDKit          3D

 93102  0  0  1  0  0  0  0  0999 V2000
  -27.7500  -22.6800   21.4760 C   0  0  0  0  0  3  0  0  0  0  0  0
  -28.6070  -23.9170   19.5680 C   0  0  0  0  0  3  0  0  0  0  0  0
  -27.2460  -25.0770   21.2240 C   0  0  0  0  0  3  0  0  0  0  0  0
  -28.5310  -22.6230   20.2950 C   0  0  0  0  0  0  0  0  0  0  0  0
  -27.1370  -23.8620   21.9370 C   0  0  0  0  0  0  0  0  0  0  0  0
  -27.9630  -25.1860   20.0110 C   0  0  0  0  0  0  0  0  0  0  0  0
  -28.9510  -20.3690   18.9330 C   0  0  0  0  0  3  0  0  0  0  0  0
  -29.1210  -21.1570   20.0370 C   0  0  0  0  0  0  0  0  0  0  0  0
  -29.4110  -18.8520   18.7090 C   0  0  0  0  0  2  0  0  0  0  0  0
  -29.9820  -20.3990   21.0910 C   0  0  0  0  0  2  0  0  0  0  0  0
  -29.8030  -18.8140   21.1530 C   0  0  0  0  0  2  0  0  0  0  0  0
  -30.1690  -18.0150   19.8490 C   0  0  0  0  0  3  0  0  0  0  0  0
  -30.8130  -15.3180   19.7350 C   0  0  0  0  0  0  0  0  0  0  0  0
  -30.7600  -12.9050   18.9550 C   0  0  0  0  0  2  0  0  0  0  0  0
  -29.7640  -12.7350   17.7850 C   0  0  0  0  0  2  0  0  0  0  0  0
  -28.3320  -12.4990   18.3080 C   0  0  0  0  0  2  0  0  0  0  0  0
  -27.9500  -13.4770   19.4540 C   0  0  0  0  0  3  0  0  0  0  0  0
  -29.0670  -13.6120   20.5110 C   0  0  0  0  0  2  0  0  0  0  0  0
  -30.2820  -14.0350   19.8020 N   0  0  0  0  0  0  0  0  0  0  0  0
  -31.9790  -15.4390   19.3490 O   0  0  0  0  0  0  0  0  0  0  0  0
  -29.9780  -16.4490   19.9160 N   0  0  0  0  0  0  0  0  0  0  0  0
  -29.0350  -16.1780   20.1490 H   0  0  0  0  0  0  0  0  0  0  0  0
  -25.6500  -13.9990   20.4510 C   0  0  0  0  0  0  0  0  0  0  0  0
  -24.6220  -13.2010   20.8710 C   0  0  0  0  0  0  0  0  0  0  0  0
  -25.0740  -11.8560   20.7050 C   0  0  0  0  0  0  0  0  0  0  0  0
  -26.6610  -13.1420   20.0550 N   0  0  0  0  0  0  0  0  0  0  0  0
  -26.3300  -11.8440   20.2700 N   0  0  0  0  0  0  0  0  0  0  0  0
  -24.3620  -10.5840   20.8800 C   0  0  0  0  0  0  0  0  0  0  0  0
  -24.7820   -9.6270   21.8310 C   0  0  0  0  0  3  0  0  0  0  0  0
  -24.0660   -8.4210   21.9960 C   0  0  0  0  0  3  0  0  0  0  0  0
  -22.9190   -8.1620   21.2100 C   0  0  0  0  0  0  0  0  0  0  0  0
  -22.5180   -9.1090   20.2510 C   0  0  0  0  0  3  0  0  0  0  0  0
  -23.2330  -10.3060   20.0840 C   0  0  0  0  0  3  0  0  0  0  0  0
  -22.1780   -7.0070   21.2820 O   0  0  0  0  0  0  0  0  0  0  0  0
  -21.9540   -6.3680   22.4750 C   0  0  0  0  0  0  0  0  0  0  0  0
  -21.2660   -6.9950   23.5380 C   0  0  0  0  0  3  0  0  0  0  0  0
  -20.9970   -6.2790   24.7210 C   0  0  0  0  0  3  0  0  0  0  0  0
  -21.4030   -4.9360   24.8400 C   0  0  0  0  0  0  0  0  0  0  0  0
  -22.0820   -4.3080   23.7800 C   0  0  0  0  0  3  0  0  0  0  0  0
  -22.3520   -5.0210   22.6000 C   0  0  0  0  0  0  0  0  0  0  0  0
  -22.9880   -4.4050   21.5730 F   0  0  0  0  0  0  0  0  0  0  0  0
  -21.1370   -4.2450   25.9740 F   0  0  0  0  0  0  0  0  0  0  0  0
  -23.2610  -13.6590   21.3050 C   0  0  0  0  0  0  0  0  0  0  0  0
  -22.6260  -12.9200   22.2080 N   0  0  0  0  0  0  0  0  0  0  0  0
  -22.7730  -14.7060   20.8780 O   0  0  0  0  0  0  0  0  0  0  0  0
  -23.0380  -12.0730   22.5730 H   0  0  0  0  0  0  0  0  0  0  0  0
  -21.7160  -13.2070   22.5410 H   0  0  0  0  0  0  0  0  0  0  0  0
  -25.7970  -15.3800   20.3510 N   0  0  0  0  0  0  0  0  0  0  0  0
  -25.0380  -16.0130   20.5780 H   0  0  0  0  0  0  0  0  0  0  0  0
  -26.5920  -15.8530   19.9390 H   0  0  0  0  0  0  0  0  0  0  0  0
  -26.4220  -23.8450   23.1040 O   0  0  0  0  0  0  0  0  0  0  0  0
  -26.5040  -23.0420   23.6090 H   0  0  0  0  0  0  0  0  0  0  0  0
  -28.0290  -26.5170   19.4140 O   0  0  0  0  0  0  0  0  0  0  0  0
  -24.5680  -31.8370   23.1120 C   0  0  0  0  0  0  0  0  0  0  0  0
  -26.9800  -27.4870   19.5300 C   0  0  0  0  0  0  0  0  0  0  0  0
  -23.2790  -30.6200   21.3910 C   0  0  0  0  0  3  0  0  0  0  0  0
  -24.6580  -29.2030   19.7450 C   0  0  0  0  0  0  0  0  0  0  0  0
  -25.8190  -30.9090   21.1400 C   0  0  0  0  0  2  0  0  0  0  0  0
  -25.8600  -29.5920   20.3530 C   0  0  0  0  0  0  0  0  0  0  0  0
  -27.0230  -28.7530   20.2300 C   0  0  0  0  0  3  0  0  0  0  0  0
  -25.7580  -27.1890   18.8900 C   0  0  0  0  0  3  0  0  0  0  0  0
  -24.6190  -28.0180   18.9910 C   0  0  0  0  0  3  0  0  0  0  0  0
  -23.4330  -30.0850   19.9410 C   0  0  0  0  0  2  0  0  0  0  0  0
  -24.5760  -31.1410   21.9370 N   0  0  0  0  0  0  0  0  0  0  0  0
  -23.5120  -32.0670   23.7190 O   0  0  0  0  0  0  0  0  0  0  0  0
  -22.6410  -29.5220   22.2760 C   0  0  0  0  0  0  0  0  0  0  0  0
  -21.3100  -29.3480   22.1650 N   0  0  0  0  0  0  0  0  0  0  0  0
  -23.3450  -28.8350   23.0210 O   0  0  0  0  0  0  0  0  0  0  0  0
  -20.8060  -29.9490   21.5310 H   0  0  0  0  0  0  0  0  0  0  0  0
  -17.9540  -28.0970   22.6940 C   0  0  0  0  0  0  0  0  0  0  0  0
  -20.5230  -28.3360   22.8730 C   0  0  0  0  0  3  0  0  0  0  0  0
  -20.5960  -26.9730   22.1470 C   0  0  0  0  0  2  0  0  0  0  0  0
  -19.4490  -26.7550   21.1540 C   0  0  0  0  0  2  0  0  0  0  0  0
  -18.0960  -26.8280   21.8690 C   0  0  0  0  0  2  0  0  0  0  0  0
  -19.0920  -28.8120   23.1520 C   0  0  0  0  0  0  0  0  0  0  0  0
  -18.9030  -30.0000   23.8890 C   0  0  0  0  0  3  0  0  0  0  0  0
  -17.6070  -30.4790   24.1600 C   0  0  0  0  0  3  0  0  0  0  0  0
  -16.4840  -29.7590   23.7160 C   0  0  0  0  0  3  0  0  0  0  0  0
  -16.6580  -28.5680   22.9920 C   0  0  0  0  0  3  0  0  0  0  0  0
  -25.8790  -32.3970   23.7430 C   0  0  0  0  0  3  0  0  0  0  0  0
  -25.6200  -33.7840   24.1560 N   0  0  0  0  0  0  0  0  0  0  0  0
  -25.9300  -34.8680   23.4320 C   0  0  0  0  0  0  0  0  0  0  0  0
  -26.5360  -34.8050   22.3590 O   0  0  0  0  0  0  0  0  0  0  0  0
  -25.0680  -33.9120   24.9910 H   0  0  0  0  0  0  0  0  0  0  0  0
  -24.2090  -36.6980   23.2970 C   0  0  0  0  0  1  0  0  0  0  0  0
  -25.5040  -36.2430   23.9860 C   0  0  0  0  0  3  0  0  0  0  0  0
  -27.7040  -37.0670   24.6960 C   0  0  0  0  0  1  0  0  0  0  0  0
  -26.5430  -37.2870   23.8390 N   0  0  0  0  0  0  0  0  0  0  0  0
  -26.1640  -38.2040   24.0530 H   0  0  0  0  0  0  0  0  0  0  0  0
  -26.3930  -31.5430   24.9670 C   0  0  1  0  0  0  0  0  0  0  0  0
  -25.3120  -31.2770   26.0410 C   0  0  0  0  0  1  0  0  0  0  0  0
  -26.9270  -30.1700   24.4990 C   0  0  0  0  0  1  0  0  0  0  0  0
  -27.5800  -32.2660   25.6470 C   0  0  0  0  0  1  0  0  0  0  0  0
  1  5  1  0
  2  6  2  0
  2  4  1  0
  3  5  2  0
  4  1  2  0
  5 51  1  0
  6  3  1  0
  7  8  2  0
  8  4  1  0
  8 10  1  0
  9  7  1  0
  9 12  1  0
 10 11  1  0
 12 21  1  0
 12 11  1  0
 13 19  1  0
 13 21  1  0
 14 19  1  0
 15 16  1  0
 15 14  1  0
 17 16  1  0
 17 26  1  0
 17 18  1  0
 19 18  1  0
 20 13  2  0
 21 22  1  0
 23 24  2  0
 24 43  1  0
 25 24  1  0
 25 28  1  0
 26 27  1  0
 26 23  1  0
 27 25  2  0
 28 29  1  0
 29 30  2  0
 31 34  1  0
 31 30  1  0
 32 31  2  0
 33 32  1  0
 33 28  2  0
 34 35  1  0
 35 40  2  0
 35 36  1  0
 36 37  2  0
 37 38  1  0
 38 42  1  0
 39 38  2  0
 40 39  1  0
 41 40  1  0
 43 44  1  0
 44 47  1  0
 44 46  1  0
 45 43  2  0
 48 23  1  0
 48 49  1  0
 50 48  1  0
 51 52  1  0
 53 55  1  0
 53  6  1  0
 54 65  2  0
 55 60  1  0
 56 64  1  0
 56 66  1  0
 57 63  1  0
 57 59  1  0
 58 64  1  0
 59 58  1  0
 60 59  2  0
 61 62  1  0
 61 55  2  0
 62 57  2  0
 63 56  1  0
 64 54  1  0
 66 68  2  0
 67 66  1  0
 69 67  1  0
 70 79  2  0
 70 75  1  0
 71 67  1  0
 71 75  1  0
 72 71  1  0
 73 74  1  0
 73 72  1  0
 74 70  1  0
 75 76  2  0
 76 77  1  0
 78 77  2  0
 79 78  1  0
 80 54  1  0
 80 81  1  0
 80 90  1  0
 81 84  1  0
 82 86  1  0
 82 81  1  0
 83 82  2  0
 86 85  1  0
 88 86  1  0
 88 89  1  0
 88 87  1  0
 90 93  1  1
 90 91  1  0
 92 90  1  0
M  ISO  4   6 101  13 100  21 100  53 101
M  END
>  <TORSDO>  (48) 
F 18

>  <SCORE>  (48) 
-13.035

>  <name>  (48) 
47

>  <ligand_id>  (48) 
47

>  <original_smiles>  (48) 
[H]Oc1c([H])c(Oc2c([H])c([H])c3c(c2[H])C([H])([H])N(C(=O)C([H])(N([H])C(=O)C([H])(N([H])C([H])([H])[H])C([H])([H])[H])C(C([H])([H])[H])(C([H])([H])[H])C([H])([H])[H])C([H])(C(=O)N([H])C2([H])c4c([H])c([H])c([H])c([H])c4C([H])([H])C([H])([H])C2([H])[H])C3([H])[H])c([H])c(C2=C([H])C([H])([H])C([H])(N([H])C(=O)N3C([H])([H])C([H])([H])C([H])([H])C([H])(n4nc(-c5c([H])c([H])c(Oc6c([H])c([H])c(F)c([H])c6F)c([H])c5[H])c(C(=O)N([H])[H])c4N([H])[H])C3([H])[H])C([H])([H])C2([H])[H])c1[H]

>  <smiles>  (48) 
[H]Oc1c([H])c(Oc2c([H])c([H])c3c(c2[H])C([H])([H])N(C(=O)C([H])(N([H])C(=O)C([H])(N([H])C([H])([H])[H])C([H])([H])[H])C(C([H])([H])[H])(C([H])([H])[H])C([H])([H])[H])C([H])(C(=O)N([H])C2([H])c4c([H])c([H])c([H])c([H])c4C([H])([H])C([H])([H])C2([H])[H])C3([H])[H])c([H])c(C2=C([H])C([H])([H])C([H])(N([H])C(=O)N3C([H])([H])C([H])([H])C([H])([H])C([H])(n4nc(-c5c([H])c([H])c(Oc6c([H])c([H])c(F)c([H])c6F)c([H])c5[H])c(C(=O)N([H])[H])c4N([H])[H])C3([H])[H])C([H])([H])C2([H])[H])c1[H]

$$$$
48:0:0
     RDKit          3D

 93102  0  0  1  0  0  0  0  0999 V2000
  -30.4630  -22.8370   20.2760 C   0  0  0  0  0  3  0  0  0  0  0  0
  -30.4030  -24.2580   20.4780 C   0  0  0  0  0  0  0  0  0  0  0  0
  -29.2070  -24.6820   21.0130 C   0  0  0  0  0  0  0  0  0  0  0  0
  -29.3460  -22.1750   20.7210 C   0  0  0  0  0  0  0  0  0  0  0  0
  -31.4830  -25.1600   20.1060 C   0  0  0  0  0  0  0  0  0  0  0  0
  -31.9520  -26.1200   21.2010 C   0  0  0  0  0  2  0  0  0  0  0  0
  -31.0010  -27.3000   21.4650 C   0  0  0  0  0  2  0  0  0  0  0  0
  -29.6900  -26.9120   22.1750 C   0  0  0  0  0  2  0  0  0  0  0  0
  -28.7150  -26.0770   21.3240 C   0  0  0  0  0  3  0  0  0  0  0  0
  -32.0850  -25.1380   19.0290 O   0  0  0  0  0  0  0  0  0  0  0  0
  -28.2060  -23.3070   21.4110 S   0  0  0  0  0  0  0  0  0  0  0  0
  -28.4030  -26.7240   20.0810 O   0  0  0  0  0  0  0  0  0  0  0  0
  -24.6170  -31.8930   23.2130 C   0  0  0  0  0  0  0  0  0  0  0  0
  -27.2510  -27.4810   20.1040 C   0  0  0  0  0  0  0  0  0  0  0  0
  -23.3940  -30.4860   21.5830 C   0  0  0  0  0  3  0  0  0  0  0  0
  -24.8400  -28.9540   20.1410 C   0  0  0  0  0  0  0  0  0  0  0  0
  -25.9120  -30.8660   21.3470 C   0  0  0  0  0  2  0  0  0  0  0  0
  -25.9990  -29.4930   20.7120 C   0  0  0  0  0  0  0  0  0  0  0  0
  -27.2090  -28.7680   20.6860 C   0  0  0  0  0  3  0  0  0  0  0  0
  -26.0810  -26.9530   19.5230 C   0  0  0  0  0  3  0  0  0  0  0  0
  -24.8740  -27.6810   19.5440 C   0  0  0  0  0  3  0  0  0  0  0  0
  -23.5880  -29.8020   20.2030 C   0  0  0  0  0  2  0  0  0  0  0  0
  -24.6600  -31.0960   22.1070 N   0  0  0  0  0  0  0  0  0  0  0  0
  -23.5410  -32.1610   23.7680 O   0  0  0  0  0  0  0  0  0  0  0  0
  -22.7590  -29.4640   22.5530 C   0  0  0  0  0  0  0  0  0  0  0  0
  -21.4340  -29.2780   22.4410 N   0  0  0  0  0  0  0  0  0  0  0  0
  -23.4550  -28.8410   23.3590 O   0  0  0  0  0  0  0  0  0  0  0  0
  -20.9340  -29.8350   21.7630 H   0  0  0  0  0  0  0  0  0  0  0  0
  -18.0710  -28.0680   22.9700 C   0  0  0  0  0  0  0  0  0  0  0  0
  -20.6290  -28.3380   23.2210 C   0  0  0  0  0  3  0  0  0  0  0  0
  -20.7330  -26.9050   22.6480 C   0  0  0  0  0  2  0  0  0  0  0  0
  -19.6250  -26.5760   21.6430 C   0  0  0  0  0  2  0  0  0  0  0  0
  -18.2470  -26.7170   22.2970 C   0  0  0  0  0  2  0  0  0  0  0  0
  -19.1890  -28.8360   23.3890 C   0  0  0  0  0  0  0  0  0  0  0  0
  -18.9680  -30.1020   23.9760 C   0  0  0  0  0  3  0  0  0  0  0  0
  -17.6620  -30.5970   24.1480 C   0  0  0  0  0  3  0  0  0  0  0  0
  -16.5590  -29.8260   23.7450 C   0  0  0  0  0  3  0  0  0  0  0  0
  -16.7640  -28.5630   23.1610 C   0  0  0  0  0  3  0  0  0  0  0  0
  -25.9090  -32.5270   23.8180 C   0  0  0  0  0  3  0  0  0  0  0  0
  -25.5980  -33.9200   24.1650 N   0  0  0  0  0  0  0  0  0  0  0  0
  -25.9190  -34.9800   23.4090 C   0  0  0  0  0  0  0  0  0  0  0  0
  -26.5770  -34.8870   22.3700 O   0  0  0  0  0  0  0  0  0  0  0  0
  -25.0130  -34.0670   24.9750 H   0  0  0  0  0  0  0  0  0  0  0  0
  -24.1810  -36.7660   23.0820 C   0  0  0  0  0  1  0  0  0  0  0  0
  -25.4310  -36.3620   23.8810 C   0  0  0  0  0  3  0  0  0  0  0  0
  -27.5720  -37.2440   24.6970 C   0  0  0  0  0  1  0  0  0  0  0  0
  -26.4590  -37.4190   23.7680 N   0  0  0  0  0  0  0  0  0  0  0  0
  -26.0530  -38.3370   23.9300 H   0  0  0  0  0  0  0  0  0  0  0  0
  -26.4550  -31.7460   25.0750 C   0  0  1  0  0  0  0  0  0  0  0  0
  -25.3860  -31.4900   26.1620 C   0  0  0  0  0  1  0  0  0  0  0  0
  -27.0400  -30.3780   24.6540 C   0  0  0  0  0  1  0  0  0  0  0  0
  -27.6160  -32.5400   25.7220 C   0  0  0  0  0  1  0  0  0  0  0  0
  -28.9960  -20.7110   20.6730 C   0  0  0  0  0  2  0  0  0  0  0  0
  -30.1520  -19.6830   20.7520 C   0  0  0  0  0  2  0  0  0  0  0  0
  -29.5910  -18.2410   20.7930 C   0  0  0  0  0  2  0  0  0  0  0  0
  -30.6330  -17.0990   20.8210 C   0  0  0  0  0  2  0  0  0  0  0  0
  -29.9970  -15.7130   21.1410 C   0  0  0  0  0  2  0  0  0  0  0  0
  -30.6960  -14.4920   20.4990 C   0  0  0  0  0  0  0  0  0  0  0  0
  -30.3870  -12.3500   19.3130 C   0  0  0  0  0  2  0  0  0  0  0  0
  -29.4540  -12.5760   18.1050 C   0  0  0  0  0  2  0  0  0  0  0  0
  -27.9750  -12.4480   18.5200 C   0  0  0  0  0  2  0  0  0  0  0  0
  -27.6340  -13.2740   19.7900 C   0  0  0  0  0  3  0  0  0  0  0  0
  -28.6830  -13.0390   20.9030 C   0  0  0  0  0  2  0  0  0  0  0  0
  -30.0150  -13.3230   20.3490 N   0  0  0  0  0  0  0  0  0  0  0  0
  -31.8260  -14.6520   20.0290 O   0  0  0  0  0  0  0  0  0  0  0  0
  -25.2250  -13.8870   20.4600 C   0  0  0  0  0  0  0  0  0  0  0  0
  -24.1510  -13.1160   20.8230 C   0  0  0  0  0  0  0  0  0  0  0  0
  -24.6160  -11.7660   20.8170 C   0  0  0  0  0  0  0  0  0  0  0  0
  -26.2750  -13.0040   20.2560 N   0  0  0  0  0  0  0  0  0  0  0  0
  -25.9120  -11.7240   20.5290 N   0  0  0  0  0  0  0  0  0  0  0  0
  -23.8910  -10.5050   21.0130 C   0  0  0  0  0  0  0  0  0  0  0  0
  -24.3210   -9.5440   21.9550 C   0  0  0  0  0  3  0  0  0  0  0  0
  -23.5960   -8.3470   22.1400 C   0  0  0  0  0  3  0  0  0  0  0  0
  -22.4280   -8.1020   21.3830 C   0  0  0  0  0  0  0  0  0  0  0  0
  -22.0160   -9.0510   20.4290 C   0  0  0  0  0  3  0  0  0  0  0  0
  -22.7400  -10.2400   20.2420 C   0  0  0  0  0  3  0  0  0  0  0  0
  -21.6740   -6.9570   21.4760 O   0  0  0  0  0  0  0  0  0  0  0  0
  -21.6280   -6.2160   22.6300 C   0  0  0  0  0  0  0  0  0  0  0  0
  -21.2130   -6.7750   23.8580 C   0  0  0  0  0  3  0  0  0  0  0  0
  -21.1180   -5.9630   25.0060 C   0  0  0  0  0  3  0  0  0  0  0  0
  -21.4230   -4.5910   24.9220 C   0  0  0  0  0  0  0  0  0  0  0  0
  -21.8270   -4.0290   23.6980 C   0  0  0  0  0  3  0  0  0  0  0  0
  -21.9280   -4.8410   22.5540 C   0  0  0  0  0  0  0  0  0  0  0  0
  -22.2990   -4.2940   21.3730 F   0  0  0  0  0  0  0  0  0  0  0  0
  -21.3250   -3.8070   26.0210 F   0  0  0  0  0  0  0  0  0  0  0  0
  -22.7490  -13.5930   21.0680 C   0  0  0  0  0  0  0  0  0  0  0  0
  -22.0080  -12.9070   21.9320 N   0  0  0  0  0  0  0  0  0  0  0  0
  -22.3160  -14.6110   20.5280 O   0  0  0  0  0  0  0  0  0  0  0  0
  -22.3700  -12.0860   22.3930 H   0  0  0  0  0  0  0  0  0  0  0  0
  -21.0670  -13.2090   22.1380 H   0  0  0  0  0  0  0  0  0  0  0  0
  -25.3860  -15.2530   20.2650 N   0  0  0  0  0  0  0  0  0  0  0  0
  -24.6140  -15.9040   20.3600 H   0  0  0  0  0  0  0  0  0  0  0  0
  -26.2440  -15.7020   19.9650 H   0  0  0  0  0  0  0  0  0  0  0  0
  1  2  1  0
  1  4  2  0
  2  3  2  0
  3  9  1  0
  3 11  1  0
  4 11  1  0
  5  2  1  0
  5  6  1  0
  6  7  1  0
  7  8  1  0
  9 12  1  0
  9  8  1  0
 10  5  2  0
 12 14  1  0
 13 24  2  0
 14 19  1  0
 15 23  1  0
 15 25  1  0
 16 22  1  0
 16 18  1  0
 17 23  1  0
 18 17  1  0
 19 18  2  0
 20 21  1  0
 20 14  2  0
 21 16  2  0
 22 15  1  0
 23 13  1  0
 25 27  2  0
 26 25  1  0
 28 26  1  0
 29 38  2  0
 29 34  1  0
 30 26  1  0
 30 34  1  0
 31 30  1  0
 32 33  1  0
 32 31  1  0
 33 29  1  0
 34 35  2  0
 35 36  1  0
 37 36  2  0
 38 37  1  0
 39 13  1  0
 39 40  1  0
 39 49  1  0
 40 43  1  0
 41 45  1  0
 41 40  1  0
 42 41  2  0
 45 44  1  0
 47 45  1  0
 47 48  1  0
 47 46  1  0
 49 52  1  1
 49 50  1  0
 51 49  1  0
 53  4  1  0
 53 54  1  0
 54 55  1  0
 55 56  1  0
 56 57  1  0
 58 57  1  0
 59 64  1  0
 60 61  1  0
 60 59  1  0
 62 61  1  0
 62 69  1  0
 62 63  1  0
 64 58  1  0
 64 63  1  0
 65 58  2  0
 66 67  2  0
 67 86  1  0
 68 67  1  0
 68 71  1  0
 69 66  1  0
 69 70  1  0
 70 68  2  0
 71 72  1  0
 72 73  2  0
 74 77  1  0
 74 73  1  0
 75 74  2  0
 76 75  1  0
 76 71  2  0
 77 78  1  0
 78 79  1  0
 79 80  2  0
 81 80  1  0
 81 85  1  0
 82 81  2  0
 83 78  2  0
 83 82  1  0
 84 83  1  0
 86 87  1  0
 87 90  1  0
 87 89  1  0
 88 86  2  0
 91 92  1  0
 91 66  1  0
 93 91  1  0
M  ISO  4   9 101  12 101  57 100  58 100
M  END
>  <TORSDO>  (49) 
F 21

>  <SCORE>  (49) 
-13.679

>  <name>  (49) 
48

>  <ligand_id>  (49) 
48

>  <original_smiles>  (49) 
[H]c1c([H])c([H])c2c(c1[H])C([H])([H])C([H])([H])C([H])([H])C2([H])N([H])C(=O)C1([H])N(C(=O)C([H])(N([H])C(=O)C([H])(N([H])C([H])([H])[H])C([H])([H])[H])C(C([H])([H])[H])(C([H])([H])[H])C([H])([H])[H])C([H])([H])c2c([H])c(OC3([H])c4sc(C([H])([H])C([H])([H])C([H])([H])C([H])([H])C([H])([H])C(=O)N5C([H])([H])C([H])([H])C([H])([H])C([H])(n6nc(-c7c([H])c([H])c(Oc8c([H])c([H])c(F)c([H])c8F)c([H])c7[H])c(C(=O)N([H])[H])c6N([H])[H])C5([H])[H])c([H])c4C(=O)C([H])([H])C([H])([H])C3([H])[H])c([H])c([H])c2C1([H])[H]

>  <smiles>  (49) 
[H]c1c([H])c([H])c2c(c1[H])C([H])([H])C([H])([H])C([H])([H])C2([H])N([H])C(=O)C1([H])N(C(=O)C([H])(N([H])C(=O)C([H])(N([H])C([H])([H])[H])C([H])([H])[H])C(C([H])([H])[H])(C([H])([H])[H])C([H])([H])[H])C([H])([H])c2c([H])c(OC3([H])c4sc(C([H])([H])C([H])([H])C([H])([H])C([H])([H])C([H])([H])C(=O)N5C([H])([H])C([H])([H])C([H])([H])C([H])(n6nc(-c7c([H])c([H])c(Oc8c([H])c([H])c(F)c([H])c8F)c([H])c7[H])c(C(=O)N([H])[H])c6N([H])[H])C5([H])[H])c([H])c4C(=O)C([H])([H])C([H])([H])C3([H])[H])c([H])c([H])c2C1([H])[H]

$$$$
49:0:0
     RDKit          3D

 89 98  0  0  1  0  0  0  0  0999 V2000
  -30.2730  -15.6570   20.3050 C   0  0  0  0  0  0  0  0  0  0  0  0
  -30.4170  -13.0930   19.5340 C   0  0  0  0  0  2  0  0  0  0  0  0
  -29.5490  -12.6330   18.3260 C   0  0  0  0  0  2  0  0  0  0  0  0
  -28.1230  -12.2640   18.7670 C   0  0  0  0  0  2  0  0  0  0  0  0
  -27.5770  -13.2840   19.7890 C   0  0  0  0  0  3  0  0  0  0  0  0
  -28.5910  -13.6380   20.9060 C   0  0  0  0  0  2  0  0  0  0  0  0
  -29.7600  -14.2800   20.2460 N   0  0  0  0  0  0  0  0  0  0  0  0
  -31.5170  -15.5940   20.2250 O   0  0  0  0  0  0  0  0  0  0  0  0
  -27.8080  -20.8120   19.8980 C   0  0  0  0  0  3  0  0  0  0  0  0
  -30.3040  -19.9290   20.4500 C   0  0  0  0  0  3  0  0  0  0  0  0
  -28.2070  -19.3460   19.9680 C   0  0  0  0  0  0  0  0  0  0  0  0
  -28.5880  -22.0700   20.0990 C   0  0  0  0  0  0  0  0  0  0  0  0
  -29.9140  -21.4250   20.3900 C   0  0  0  0  0  0  0  0  0  0  0  0
  -29.4720  -18.7050   20.2390 C   0  0  0  0  0  0  0  0  0  0  0  0
  -27.2630  -18.1900   19.7360 C   0  0  0  0  0  3  0  0  0  0  0  0
  -28.0330  -16.8280   19.9740 C   0  0  0  0  0  3  0  0  0  0  0  0
  -29.4730  -17.0110   20.2340 N   0  0  0  0  0  0  0  0  0  0  0  0
  -25.1880  -13.8230   20.4860 C   0  0  0  0  0  0  0  0  0  0  0  0
  -24.1270  -13.0460   20.8440 C   0  0  0  0  0  0  0  0  0  0  0  0
  -24.6070  -11.7020   20.8440 C   0  0  0  0  0  0  0  0  0  0  0  0
  -26.2490  -12.9570   20.2860 N   0  0  0  0  0  0  0  0  0  0  0  0
  -25.9080  -11.6720   20.5670 N   0  0  0  0  0  0  0  0  0  0  0  0
  -23.8820  -10.4390   21.0270 C   0  0  0  0  0  0  0  0  0  0  0  0
  -24.2960   -9.4810   21.9790 C   0  0  0  0  0  3  0  0  0  0  0  0
  -23.5650   -8.2870   22.1550 C   0  0  0  0  0  3  0  0  0  0  0  0
  -22.4070   -8.0420   21.3780 C   0  0  0  0  0  0  0  0  0  0  0  0
  -22.0130   -8.9880   20.4160 C   0  0  0  0  0  3  0  0  0  0  0  0
  -22.7440  -10.1740   20.2380 C   0  0  0  0  0  3  0  0  0  0  0  0
  -21.6520   -6.8970   21.4630 O   0  0  0  0  0  0  0  0  0  0  0  0
  -21.5800   -6.1660   22.6210 C   0  0  0  0  0  0  0  0  0  0  0  0
  -21.1480   -6.7390   23.8370 C   0  0  0  0  0  3  0  0  0  0  0  0
  -21.0220   -5.9350   24.9880 C   0  0  0  0  0  3  0  0  0  0  0  0
  -21.3210   -4.5610   24.9230 C   0  0  0  0  0  0  0  0  0  0  0  0
  -21.7480   -3.9880   23.7110 C   0  0  0  0  0  3  0  0  0  0  0  0
  -21.8740   -4.7890   22.5630 C   0  0  0  0  0  0  0  0  0  0  0  0
  -22.2650   -4.2290   21.3930 F   0  0  0  0  0  0  0  0  0  0  0  0
  -21.1930   -3.7860   26.0250 F   0  0  0  0  0  0  0  0  0  0  0  0
  -22.7200  -13.5210   21.0630 C   0  0  0  0  0  0  0  0  0  0  0  0
  -21.9730  -12.8440   21.9260 N   0  0  0  0  0  0  0  0  0  0  0  0
  -22.2940  -14.5330   20.5070 O   0  0  0  0  0  0  0  0  0  0  0  0
  -22.3310  -12.0280   22.4000 H   0  0  0  0  0  0  0  0  0  0  0  0
  -21.0280  -13.1470   22.1170 H   0  0  0  0  0  0  0  0  0  0  0  0
  -25.3220  -15.1900   20.2770 N   0  0  0  0  0  0  0  0  0  0  0  0
  -24.5290  -15.8190   20.3440 H   0  0  0  0  0  0  0  0  0  0  0  0
  -26.1520  -15.6330   19.9130 H   0  0  0  0  0  0  0  0  0  0  0  0
  -31.0350  -22.8240   22.1690 C   0  0  0  0  0  1  0  0  0  0  0  0
  -31.0340  -22.4030   20.6930 C   0  0  0  0  0  2  0  0  0  0  0  0
  -27.8680  -23.7930   19.9340 C   0  0  0  0  0  2  0  0  0  0  0  0
  -28.1650  -25.5070   20.1120 O   0  0  0  0  0  0  0  0  0  0  0  0
  -24.6830  -31.7880   23.0580 C   0  0  0  0  0  0  0  0  0  0  0  0
  -27.1960  -26.7200   20.0560 C   0  0  0  0  0  0  0  0  0  0  0  0
  -23.4790  -30.3830   21.4380 C   0  0  0  0  0  3  0  0  0  0  0  0
  -24.9170  -28.7350   20.0170 C   0  0  0  0  0  0  0  0  0  0  0  0
  -26.0560  -30.5350   21.2870 C   0  0  0  0  0  2  0  0  0  0  0  0
  -26.1180  -29.1020   20.6360 C   0  0  0  0  0  0  0  0  0  0  0  0
  -27.2420  -28.1210   20.6250 C   0  0  0  0  0  3  0  0  0  0  0  0
  -25.9590  -26.5600   19.3830 C   0  0  0  0  0  3  0  0  0  0  0  0
  -24.8740  -27.4900   19.3670 C   0  0  0  0  0  3  0  0  0  0  0  0
  -23.7050  -29.6800   20.0690 C   0  0  0  0  0  2  0  0  0  0  0  0
  -24.7640  -30.9340   21.9800 N   0  0  0  0  0  0  0  0  0  0  0  0
  -23.5940  -32.0880   23.5790 O   0  0  0  0  0  0  0  0  0  0  0  0
  -22.7740  -29.4070   22.4210 C   0  0  0  0  0  0  0  0  0  0  0  0
  -21.4380  -29.2690   22.3230 N   0  0  0  0  0  0  0  0  0  0  0  0
  -23.4410  -28.7750   23.2430 O   0  0  0  0  0  0  0  0  0  0  0  0
  -20.9500  -29.8280   21.6390 H   0  0  0  0  0  0  0  0  0  0  0  0
  -18.0480  -28.0970   22.9070 C   0  0  0  0  0  0  0  0  0  0  0  0
  -20.6170  -28.3380   23.1100 C   0  0  0  0  0  3  0  0  0  0  0  0
  -20.6890  -26.9070   22.5270 C   0  0  0  0  0  2  0  0  0  0  0  0
  -19.5600  -26.6020   21.5370 C   0  0  0  0  0  2  0  0  0  0  0  0
  -18.1960  -26.7530   22.2140 C   0  0  0  0  0  2  0  0  0  0  0  0
  -19.1830  -28.8480   23.3130 C   0  0  0  0  0  0  0  0  0  0  0  0
  -18.9870  -30.1030   23.9290 C   0  0  0  0  0  3  0  0  0  0  0  0
  -17.6900  -30.6090   24.1370 C   0  0  0  0  0  3  0  0  0  0  0  0
  -16.5700  -29.8560   23.7440 C   0  0  0  0  0  3  0  0  0  0  0  0
  -16.7510  -28.6010   23.1350 C   0  0  0  0  0  3  0  0  0  0  0  0
  -25.9520  -32.4410   23.6820 C   0  0  0  0  0  3  0  0  0  0  0  0
  -25.6160  -33.8290   24.0610 N   0  0  0  0  0  0  0  0  0  0  0  0
  -25.9240  -34.9200   23.3480 C   0  0  0  0  0  0  0  0  0  0  0  0
  -26.5770  -34.8650   22.3020 O   0  0  0  0  0  0  0  0  0  0  0  0
  -25.0330  -33.9400   24.8780 H   0  0  0  0  0  0  0  0  0  0  0  0
  -24.1700  -36.7140   23.1090 C   0  0  0  0  0  1  0  0  0  0  0  0
  -25.4360  -36.2870   23.8710 C   0  0  0  0  0  3  0  0  0  0  0  0
  -27.5820  -37.1700   24.6790 C   0  0  0  0  0  1  0  0  0  0  0  0
  -26.4540  -37.3570   23.7720 N   0  0  0  0  0  0  0  0  0  0  0  0
  -26.0410  -38.2660   23.9640 H   0  0  0  0  0  0  0  0  0  0  0  0
  -26.4910  -31.6570   24.9440 C   0  0  1  0  0  0  0  0  0  0  0  0
  -25.4150  -31.4020   26.0270 C   0  0  0  0  0  1  0  0  0  0  0  0
  -27.0760  -30.2870   24.5370 C   0  0  0  0  0  1  0  0  0  0  0  0
  -27.6470  -32.4500   25.5990 C   0  0  0  0  0  1  0  0  0  0  0  0
  2  7  1  0
  3  4  1  0
  3  2  1  0
  5  4  1  0
  5 21  1  0
  5  6  1  0
  7  1  1  0
  7  6  1  0
  8  1  2  0
  9 11  2  0
  9 12  1  0
 11 14  1  0
 12 13  2  0
 13 10  1  0
 13 47  1  0
 14 10  2  0
 15 11  1  0
 15 16  2  0
 16 17  1  0
 17 14  1  0
 17  1  1  0
 18 19  2  0
 19 20  1  0
 19 38  1  0
 20 23  1  0
 21 18  1  0
 21 22  1  0
 22 20  2  0
 23 24  1  0
 24 25  2  0
 26 29  1  0
 26 25  1  0
 27 26  2  0
 28 27  1  0
 28 23  2  0
 29 30  1  0
 30 31  1  0
 31 32  2  0
 33 32  1  0
 33 37  1  0
 34 33  2  0
 35 30  2  0
 35 34  1  0
 36 35  1  0
 38 39  1  0
 39 42  1  0
 39 41  1  0
 40 38  2  0
 43 44  1  0
 43 18  1  0
 45 43  1  0
 47 46  1  0
 48 12  1  0
 48 49  1  0
 50 61  2  0
 51 49  1  0
 51 56  1  0
 52 60  1  0
 52 62  1  0
 53 59  1  0
 53 55  1  0
 54 60  1  0
 55 54  1  0
 56 55  2  0
 57 51  2  0
 58 57  1  0
 58 53  2  0
 59 52  1  0
 60 50  1  0
 62 64  2  0
 63 62  1  0
 65 63  1  0
 66 75  2  0
 66 71  1  0
 67 63  1  0
 67 71  1  0
 68 67  1  0
 69 70  1  0
 69 68  1  0
 70 66  1  0
 71 72  2  0
 72 73  1  0
 74 73  2  0
 75 74  1  0
 76 50  1  0
 76 77  1  0
 76 86  1  0
 77 80  1  0
 78 82  1  0
 78 77  1  0
 79 78  2  0
 82 81  1  0
 84 82  1  0
 84 85  1  0
 84 83  1  0
 86 89  1  1
 86 87  1  0
 88 86  1  0
M  ISO  4   1 100  17 100  48 101  49 101
M  END
>  <TORSDO>  (50) 
F 17

>  <SCORE>  (50) 
-15.976

>  <name>  (50) 
49

>  <ligand_id>  (50) 
49

>  <original_smiles>  (50) 
[H]c1c([H])c([H])c2c(c1[H])C([H])([H])C([H])([H])C([H])([H])C2([H])N([H])C(=O)C1([H])N(C(=O)C([H])(N([H])C(=O)C([H])(N([H])C([H])([H])[H])C([H])([H])[H])C(C([H])([H])[H])(C([H])([H])[H])C([H])([H])[H])C([H])([H])c2c([H])c(OC([H])([H])c3c([H])c4c(c([H])c3C([H])([H])C([H])([H])[H])N(C(=O)N3C([H])([H])C([H])([H])C([H])([H])C([H])(n5nc(-c6c([H])c([H])c(Oc7c([H])c([H])c(F)c([H])c7F)c([H])c6[H])c(C(=O)N([H])[H])c5N([H])[H])C3([H])[H])C([H])([H])C4([H])[H])c([H])c([H])c2C1([H])[H]

>  <smiles>  (50) 
[H]c1c([H])c([H])c2c(c1[H])C([H])([H])C([H])([H])C([H])([H])C2([H])N([H])C(=O)C1([H])N(C(=O)C([H])(N([H])C(=O)C([H])(N([H])C([H])([H])[H])C([H])([H])[H])C(C([H])([H])[H])(C([H])([H])[H])C([H])([H])[H])C([H])([H])c2c([H])c(OC([H])([H])c3c([H])c4c(c([H])c3C([H])([H])C([H])([H])[H])N(C(=O)N3C([H])([H])C([H])([H])C([H])([H])C([H])(n5nc(-c6c([H])c([H])c(Oc7c([H])c([H])c(F)c([H])c7F)c([H])c6[H])c(C(=O)N([H])[H])c5N([H])[H])C3([H])[H])C([H])([H])C4([H])[H])c([H])c([H])c2C1([H])[H]

$$$$
50:0:0
     RDKit          3D

 90 99  0  0  1  0  0  0  0  0999 V2000
  -30.1980  -20.8540   20.9380 C   0  0  0  0  0  3  0  0  0  0  0  0
  -28.9170  -20.3630   19.0990 C   0  0  0  0  0  3  0  0  0  0  0  0
  -29.7170  -22.2580   20.9540 C   0  0  0  0  0  3  0  0  0  0  0  0
  -28.4390  -21.7700   19.1080 C   0  0  0  0  0  3  0  0  0  0  0  0
  -29.8550  -19.7540   20.0260 C   0  0  0  0  0  0  0  0  0  0  0  0
  -28.7910  -22.8610   20.0210 C   0  0  0  0  0  0  0  0  0  0  0  0
  -30.7930  -15.3240   19.7320 C   0  0  0  0  0  0  0  0  0  0  0  0
  -30.6870  -12.9250   18.7570 C   0  0  0  0  0  2  0  0  0  0  0  0
  -29.6150  -12.7410   17.6530 C   0  0  0  0  0  2  0  0  0  0  0  0
  -28.2320  -12.4420   18.2610 C   0  0  0  0  0  2  0  0  0  0  0  0
  -27.9270  -13.3500   19.4790 C   0  0  0  0  0  3  0  0  0  0  0  0
  -29.1190  -13.4070   20.4610 C   0  0  0  0  0  2  0  0  0  0  0  0
  -30.2320  -14.0110   19.7010 N   0  0  0  0  0  0  0  0  0  0  0  0
  -31.9600  -15.3380   19.3080 O   0  0  0  0  0  0  0  0  0  0  0  0
  -30.5560  -17.8920   22.5550 C   0  0  0  0  0  2  0  0  0  0  0  0
  -29.5680  -16.7100   22.3840 C   0  0  0  0  0  2  0  0  0  0  0  0
  -31.4690  -18.0970   21.3220 C   0  0  0  0  0  2  0  0  0  0  0  0
  -28.9760  -16.6550   20.9570 C   0  0  0  0  0  2  0  0  0  0  0  0
  -30.6070  -18.1700   20.0360 C   0  0  0  0  0  3  0  0  0  0  0  0
  -30.0840  -16.6110   20.0030 N   0  0  0  0  0  0  0  0  0  0  0  0
  -25.6870  -13.8610   20.5970 C   0  0  0  0  0  0  0  0  0  0  0  0
  -24.6660  -13.0620   21.0280 C   0  0  0  0  0  0  0  0  0  0  0  0
  -25.0890  -11.7180   20.7860 C   0  0  0  0  0  0  0  0  0  0  0  0
  -26.6680  -13.0050   20.1270 N   0  0  0  0  0  0  0  0  0  0  0  0
  -26.3260  -11.7030   20.3010 N   0  0  0  0  0  0  0  0  0  0  0  0
  -24.3600  -10.4520   20.9350 C   0  0  0  0  0  0  0  0  0  0  0  0
  -24.8120   -9.4380   21.8070 C   0  0  0  0  0  3  0  0  0  0  0  0
  -24.0810   -8.2380   21.9500 C   0  0  0  0  0  3  0  0  0  0  0  0
  -22.8830   -8.0470   21.2190 C   0  0  0  0  0  0  0  0  0  0  0  0
  -22.4500   -9.0500   20.3350 C   0  0  0  0  0  3  0  0  0  0  0  0
  -23.1820  -10.2410   20.1910 C   0  0  0  0  0  3  0  0  0  0  0  0
  -22.1210   -6.9050   21.2760 O   0  0  0  0  0  0  0  0  0  0  0  0
  -21.9770   -6.1930   22.4390 C   0  0  0  0  0  0  0  0  0  0  0  0
  -21.4540   -6.7800   23.6120 C   0  0  0  0  0  3  0  0  0  0  0  0
  -21.2570   -5.9940   24.7650 C   0  0  0  0  0  3  0  0  0  0  0  0
  -21.5710   -4.6220   24.7450 C   0  0  0  0  0  0  0  0  0  0  0  0
  -22.0870   -4.0340   23.5760 C   0  0  0  0  0  3  0  0  0  0  0  0
  -22.2850   -4.8180   22.4260 C   0  0  0  0  0  0  0  0  0  0  0  0
  -22.7610   -4.2410   21.2960 F   0  0  0  0  0  0  0  0  0  0  0  0
  -21.3760   -3.8650   25.8490 F   0  0  0  0  0  0  0  0  0  0  0  0
  -23.3330  -13.5230   21.5380 C   0  0  0  0  0  0  0  0  0  0  0  0
  -22.7250  -12.7600   22.4370 N   0  0  0  0  0  0  0  0  0  0  0  0
  -22.8470  -14.5950   21.1760 O   0  0  0  0  0  0  0  0  0  0  0  0
  -23.1350  -11.8920   22.7480 H   0  0  0  0  0  0  0  0  0  0  0  0
  -21.8360  -13.0470   22.8220 H   0  0  0  0  0  0  0  0  0  0  0  0
  -25.8450  -15.2430   20.5370 N   0  0  0  0  0  0  0  0  0  0  0  0
  -25.1070  -15.8780   20.8200 H   0  0  0  0  0  0  0  0  0  0  0  0
  -26.6340  -15.7150   20.1160 H   0  0  0  0  0  0  0  0  0  0  0  0
  -28.0090  -24.4100   19.9950 C   0  0  0  0  0  2  0  0  0  0  0  0
  -28.3770  -25.9520   20.3370 O   0  0  0  0  0  0  0  0  0  0  0  0
  -24.8180  -31.8860   23.2870 C   0  0  0  0  0  0  0  0  0  0  0  0
  -27.3860  -27.0530   20.2610 C   0  0  0  0  0  0  0  0  0  0  0  0
  -23.6340  -30.5060   21.6280 C   0  0  0  0  0  3  0  0  0  0  0  0
  -25.0890  -28.9170   20.2080 C   0  0  0  0  0  0  0  0  0  0  0  0
  -26.2010  -30.7190   21.5070 C   0  0  0  0  0  2  0  0  0  0  0  0
  -26.2720  -29.3170   20.8430 C   0  0  0  0  0  0  0  0  0  0  0  0
  -27.4170  -28.4050   20.8490 C   0  0  0  0  0  3  0  0  0  0  0  0
  -26.1740  -26.8000   19.5750 C   0  0  0  0  0  3  0  0  0  0  0  0
  -25.0640  -27.6770   19.5540 C   0  0  0  0  0  3  0  0  0  0  0  0
  -23.8740  -29.8370   20.2480 C   0  0  0  0  0  2  0  0  0  0  0  0
  -24.9050  -31.0620   22.1940 N   0  0  0  0  0  0  0  0  0  0  0  0
  -23.7250  -32.1760   23.8000 O   0  0  0  0  0  0  0  0  0  0  0  0
  -22.9290  -29.5040   22.5790 C   0  0  0  0  0  0  0  0  0  0  0  0
  -21.6020  -29.3310   22.4260 N   0  0  0  0  0  0  0  0  0  0  0  0
  -23.5820  -28.8830   23.4210 O   0  0  0  0  0  0  0  0  0  0  0  0
  -21.1300  -29.8860   21.7260 H   0  0  0  0  0  0  0  0  0  0  0  0
  -18.2150  -28.1070   22.8650 C   0  0  0  0  0  0  0  0  0  0  0  0
  -20.7680  -28.3910   23.1820 C   0  0  0  0  0  3  0  0  0  0  0  0
  -20.8900  -26.9580   22.6150 C   0  0  0  0  0  2  0  0  0  0  0  0
  -19.8120  -26.6250   21.5780 C   0  0  0  0  0  2  0  0  0  0  0  0
  -18.4160  -26.7600   22.1930 C   0  0  0  0  0  2  0  0  0  0  0  0
  -19.3200  -28.8800   23.3150 C   0  0  0  0  0  0  0  0  0  0  0  0
  -19.0760  -30.1390   23.9050 C   0  0  0  0  0  3  0  0  0  0  0  0
  -17.7640  -30.6270   24.0480 C   0  0  0  0  0  3  0  0  0  0  0  0
  -16.6750  -29.8530   23.6110 C   0  0  0  0  0  3  0  0  0  0  0  0
  -16.9020  -28.5940   23.0260 C   0  0  0  0  0  3  0  0  0  0  0  0
  -26.0870  -32.5170   23.9350 C   0  0  0  0  0  3  0  0  0  0  0  0
  -25.7770  -33.9190   24.2650 N   0  0  0  0  0  0  0  0  0  0  0  0
  -26.1050  -34.9750   23.5100 C   0  0  0  0  0  0  0  0  0  0  0  0
  -26.7630  -34.8730   22.4720 O   0  0  0  0  0  0  0  0  0  0  0  0
  -25.1920  -34.0710   25.0730 H   0  0  0  0  0  0  0  0  0  0  0  0
  -24.3690  -36.7730   23.1960 C   0  0  0  0  0  1  0  0  0  0  0  0
  -25.6280  -36.3660   23.9780 C   0  0  0  0  0  3  0  0  0  0  0  0
  -27.7800  -37.2580   24.7600 C   0  0  0  0  0  1  0  0  0  0  0  0
  -26.6580  -37.4200   23.8390 N   0  0  0  0  0  0  0  0  0  0  0  0
  -26.2540  -38.3410   23.9910 H   0  0  0  0  0  0  0  0  0  0  0  0
  -26.5700  -31.7480   25.2270 C   0  0  1  0  0  0  0  0  0  0  0  0
  -25.4480  -31.5080   26.2650 C   0  0  0  0  0  1  0  0  0  0  0  0
  -27.1690  -30.3710   24.8580 C   0  0  0  0  0  1  0  0  0  0  0  0
  -27.6990  -32.5470   25.9190 C   0  0  0  0  0  1  0  0  0  0  0  0
  1  3  1  0
  2  4  2  0
  2  5  1  0
  4  6  1  0
  5  1  2  0
  6  3  2  0
  7 20  1  0
  8 13  1  0
  9 10  1  0
  9  8  1  0
 11 10  1  0
 11 24  1  0
 11 12  1  0
 13  7  1  0
 13 12  1  0
 14  7  2  0
 16 15  1  0
 17 15  1  0
 18 16  1  0
 19  5  1  0
 19 17  1  0
 20 19  1  0
 20 18  1  0
 21 22  2  0
 22 41  1  0
 23 26  1  0
 23 22  1  0
 24 25  1  0
 24 21  1  0
 25 23  2  0
 26 27  1  0
 27 28  2  0
 29 32  1  0
 29 28  1  0
 30 29  2  0
 31 30  1  0
 31 26  2  0
 32 33  1  0
 33 34  1  0
 34 35  2  0
 36 35  1  0
 36 40  1  0
 37 36  2  0
 38 33  2  0
 38 37  1  0
 39 38  1  0
 41 42  1  0
 42 44  1  0
 42 45  1  0
 43 41  2  0
 46 21  1  0
 46 47  1  0
 48 46  1  0
 49  6  1  0
 49 50  1  0
 51 62  2  0
 52 50  1  0
 52 57  1  0
 53 61  1  0
 53 63  1  0
 54 60  1  0
 54 56  1  0
 55 61  1  0
 56 57  2  0
 56 55  1  0
 58 52  2  0
 59 58  1  0
 59 54  2  0
 60 53  1  0
 61 51  1  0
 63 65  2  0
 64 63  1  0
 66 64  1  0
 67 76  2  0
 67 72  1  0
 68 64  1  0
 68 72  1  0
 69 68  1  0
 70 71  1  0
 70 69  1  0
 71 67  1  0
 72 73  2  0
 73 74  1  0
 75 74  2  0
 76 75  1  0
 77 51  1  0
 77 78  1  0
 77 87  1  0
 78 81  1  0
 79 83  1  0
 79 78  1  0
 80 79  2  0
 83 82  1  0
 85 83  1  0
 85 86  1  0
 85 84  1  0
 87 90  1  1
 87 88  1  0
 89 87  1  0
M  ISO  4   7 100  20 100  49 101  50 101
M  END
>  <TORSDO>  (51) 
F 17

>  <SCORE>  (51) 
-13.872

>  <name>  (51) 
50

>  <ligand_id>  (51) 
50

>  <original_smiles>  (51) 
[H]c1c([H])c([H])c2c(c1[H])C([H])([H])C([H])([H])C([H])([H])C2([H])N([H])C(=O)C1([H])N(C(=O)C([H])(N([H])C(=O)C([H])(N([H])C([H])([H])[H])C([H])([H])[H])C(C([H])([H])[H])(C([H])([H])[H])C([H])([H])[H])C([H])([H])c2c([H])c(OC([H])([H])c3c([H])c([H])c(C4([H])N(C(=O)N5C([H])([H])C([H])([H])C([H])([H])C([H])(n6nc(-c7c([H])c([H])c(Oc8c([H])c([H])c(F)c([H])c8F)c([H])c7[H])c(C(=O)N([H])[H])c6N([H])[H])C5([H])[H])C([H])([H])C([H])([H])C([H])([H])C4([H])[H])c([H])c3[H])c([H])c([H])c2C1([H])[H]

>  <smiles>  (51) 
[H]c1c([H])c([H])c2c(c1[H])C([H])([H])C([H])([H])C([H])([H])C2([H])N([H])C(=O)C1([H])N(C(=O)C([H])(N([H])C(=O)C([H])(N([H])C([H])([H])[H])C([H])([H])[H])C(C([H])([H])[H])(C([H])([H])[H])C([H])([H])[H])C([H])([H])c2c([H])c(OC([H])([H])c3c([H])c([H])c(C4([H])N(C(=O)N5C([H])([H])C([H])([H])C([H])([H])C([H])(n6nc(-c7c([H])c([H])c(Oc8c([H])c([H])c(F)c([H])c8F)c([H])c7[H])c(C(=O)N([H])[H])c6N([H])[H])C5([H])[H])C([H])([H])C([H])([H])C([H])([H])C4([H])[H])c([H])c3[H])c([H])c([H])c2C1([H])[H]

$$$$
51:0:0
     RDKit          3D

 92101  0  0  1  0  0  0  0  0999 V2000
  -30.4230  -23.4560   18.0410 C   0  0  0  0  0  2  0  0  0  0  0  0
  -29.3300  -24.4340   17.5830 C   0  0  0  0  0  2  0  0  0  0  0  0
  -29.9210  -22.0550   18.4490 C   0  0  0  0  0  2  0  0  0  0  0  0
  -28.0570  -24.4480   18.4350 C   0  0  0  0  0  2  0  0  0  0  0  0
  -28.8880  -23.1970   20.6420 C   0  0  0  0  0  2  0  0  0  0  0  0
  -29.7620  -21.8460   19.9770 C   0  0  0  0  0  3  0  0  0  0  0  0
  -28.2690  -24.6880   19.9430 C   0  0  0  0  0  3  0  0  0  0  0  0
  -30.7480  -17.9960   21.4740 C   0  0  0  0  0  3  0  0  0  0  0  0
  -29.3980  -19.1310   19.3910 C   0  0  0  0  0  3  0  0  0  0  0  0
  -30.3570  -16.9800   20.5070 C   0  0  0  0  0  0  0  0  0  0  0  0
  -29.8180  -20.1590   20.3290 C   0  0  0  0  0  0  0  0  0  0  0  0
  -30.5040  -19.4590   21.4040 C   0  0  0  0  0  0  0  0  0  0  0  0
  -29.6570  -17.6830   19.4450 C   0  0  0  0  0  0  0  0  0  0  0  0
  -31.0780  -20.2980   22.5290 C   0  0  0  0  0  1  0  0  0  0  0  0
  -29.2310  -16.8890   18.2210 C   0  0  0  0  0  1  0  0  0  0  0  0
  -30.9300  -15.4300   20.4030 C   0  0  0  0  0  0  0  0  0  0  0  0
  -30.7250  -13.1050   19.3540 C   0  0  0  0  0  2  0  0  0  0  0  0
  -29.8100  -13.0750   18.1070 C   0  0  0  0  0  2  0  0  0  0  0  0
  -28.3480  -12.8470   18.5230 C   0  0  0  0  0  2  0  0  0  0  0  0
  -27.9270  -13.7420   19.7150 C   0  0  0  0  0  3  0  0  0  0  0  0
  -28.9750  -13.7660   20.8480 C   0  0  0  0  0  2  0  0  0  0  0  0
  -30.2510  -14.2010   20.2650 N   0  0  0  0  0  0  0  0  0  0  0  0
  -32.1470  -15.3410   20.1980 O   0  0  0  0  0  0  0  0  0  0  0  0
  -25.5510  -14.2970   20.4670 C   0  0  0  0  0  0  0  0  0  0  0  0
  -24.4770  -13.5170   20.7970 C   0  0  0  0  0  0  0  0  0  0  0  0
  -24.9360  -12.1650   20.7300 C   0  0  0  0  0  0  0  0  0  0  0  0
  -26.5900  -13.4230   20.2040 N   0  0  0  0  0  0  0  0  0  0  0  0
  -26.2290  -12.1330   20.4340 N   0  0  0  0  0  0  0  0  0  0  0  0
  -24.1980  -10.9010   20.8700 C   0  0  0  0  0  0  0  0  0  0  0  0
  -24.5730   -9.9270   21.8220 C   0  0  0  0  0  3  0  0  0  0  0  0
  -23.8330   -8.7300   21.9520 C   0  0  0  0  0  3  0  0  0  0  0  0
  -22.7050   -8.4980   21.1290 C   0  0  0  0  0  0  0  0  0  0  0  0
  -22.3500   -9.4610   20.1690 C   0  0  0  0  0  3  0  0  0  0  0  0
  -23.0900  -10.6480   20.0360 C   0  0  0  0  0  3  0  0  0  0  0  0
  -21.9450   -7.3530   21.1660 O   0  0  0  0  0  0  0  0  0  0  0  0
  -21.7280   -6.6700   22.3350 C   0  0  0  0  0  0  0  0  0  0  0  0
  -21.0820   -7.2680   23.4380 C   0  0  0  0  0  3  0  0  0  0  0  0
  -20.8170   -6.5100   24.5950 C   0  0  0  0  0  3  0  0  0  0  0  0
  -21.1890   -5.1530   24.6490 C   0  0  0  0  0  0  0  0  0  0  0  0
  -21.8280   -4.5540   23.5490 C   0  0  0  0  0  3  0  0  0  0  0  0
  -22.0940   -5.3110   22.3950 C   0  0  0  0  0  0  0  0  0  0  0  0
  -22.6930   -4.7240   21.3310 F   0  0  0  0  0  0  0  0  0  0  0  0
  -20.9270   -4.4210   25.7570 F   0  0  0  0  0  0  0  0  0  0  0  0
  -23.0800  -13.9950   21.0590 C   0  0  0  0  0  0  0  0  0  0  0  0
  -22.3400  -13.2870   21.9040 N   0  0  0  0  0  0  0  0  0  0  0  0
  -22.6540  -15.0330   20.5500 O   0  0  0  0  0  0  0  0  0  0  0  0
  -22.6980  -12.4520   22.3440 H   0  0  0  0  0  0  0  0  0  0  0  0
  -21.4020  -13.5910   22.1230 H   0  0  0  0  0  0  0  0  0  0  0  0
  -25.7270  -15.6710   20.3420 N   0  0  0  0  0  0  0  0  0  0  0  0
  -24.9680  -16.3290   20.4760 H   0  0  0  0  0  0  0  0  0  0  0  0
  -26.5950  -16.1170   20.0700 H   0  0  0  0  0  0  0  0  0  0  0  0
  -28.4750  -26.2660   20.1950 O   0  0  0  0  0  0  0  0  0  0  0  0
  -24.7230  -31.9900   23.2270 C   0  0  0  0  0  0  0  0  0  0  0  0
  -27.4260  -27.2990   20.1360 C   0  0  0  0  0  0  0  0  0  0  0  0
  -23.5820  -30.6070   21.5430 C   0  0  0  0  0  3  0  0  0  0  0  0
  -25.0800  -29.0820   20.1100 C   0  0  0  0  0  0  0  0  0  0  0  0
  -26.1410  -30.8930   21.4350 C   0  0  0  0  0  2  0  0  0  0  0  0
  -26.2500  -29.5100   20.7480 C   0  0  0  0  0  0  0  0  0  0  0  0
  -27.4200  -28.6390   20.7380 C   0  0  0  0  0  3  0  0  0  0  0  0
  -26.2100  -26.9980   19.4810 C   0  0  0  0  0  3  0  0  0  0  0  0
  -25.0780  -27.8420   19.4600 C   0  0  0  0  0  3  0  0  0  0  0  0
  -23.8410  -29.9680   20.1570 C   0  0  0  0  0  2  0  0  0  0  0  0
  -24.8350  -31.1870   22.1230 N   0  0  0  0  0  0  0  0  0  0  0  0
  -23.6200  -32.2440   23.7380 O   0  0  0  0  0  0  0  0  0  0  0  0
  -22.8990  -29.5690   22.4720 C   0  0  0  0  0  0  0  0  0  0  0  0
  -21.5750  -29.3790   22.3190 N   0  0  0  0  0  0  0  0  0  0  0  0
  -23.5650  -28.9380   23.2970 O   0  0  0  0  0  0  0  0  0  0  0  0
  -21.0920  -29.9390   21.6300 H   0  0  0  0  0  0  0  0  0  0  0  0
  -18.2010  -28.1320   22.7710 C   0  0  0  0  0  0  0  0  0  0  0  0
  -20.7570  -28.4120   23.0560 C   0  0  0  0  0  3  0  0  0  0  0  0
  -20.8740  -26.9990   22.4400 C   0  0  0  0  0  2  0  0  0  0  0  0
  -19.7800  -26.6970   21.4110 C   0  0  0  0  0  2  0  0  0  0  0  0
  -18.3940  -26.8070   22.0520 C   0  0  0  0  0  2  0  0  0  0  0  0
  -19.3100  -28.8930   23.2290 C   0  0  0  0  0  0  0  0  0  0  0  0
  -19.0750  -30.1310   23.8650 C   0  0  0  0  0  3  0  0  0  0  0  0
  -17.7650  -30.6110   24.0440 C   0  0  0  0  0  3  0  0  0  0  0  0
  -16.6690  -29.8490   23.6020 C   0  0  0  0  0  3  0  0  0  0  0  0
  -16.8890  -28.6100   22.9720 C   0  0  0  0  0  3  0  0  0  0  0  0
  -25.9720  -32.6410   23.8920 C   0  0  0  0  0  3  0  0  0  0  0  0
  -25.6430  -34.0450   24.1920 N   0  0  0  0  0  0  0  0  0  0  0  0
  -25.9630  -35.0880   23.4160 C   0  0  0  0  0  0  0  0  0  0  0  0
  -26.6320  -34.9720   22.3860 O   0  0  0  0  0  0  0  0  0  0  0  0
  -25.0440  -34.2060   24.9880 H   0  0  0  0  0  0  0  0  0  0  0  0
  -24.2030  -36.8520   23.0550 C   0  0  0  0  0  1  0  0  0  0  0  0
  -25.4660  -36.4830   23.8500 C   0  0  0  0  0  3  0  0  0  0  0  0
  -27.5900  -37.4320   24.6300 C   0  0  0  0  0  1  0  0  0  0  0  0
  -26.4810  -37.5470   23.6870 N   0  0  0  0  0  0  0  0  0  0  0  0
  -26.0630  -38.4670   23.7970 H   0  0  0  0  0  0  0  0  0  0  0  0
  -26.4300  -31.8970   25.2070 C   0  0  1  0  0  0  0  0  0  0  0  0
  -25.2880  -31.6680   26.2270 C   0  0  0  0  0  1  0  0  0  0  0  0
  -27.0420  -30.5160   24.8750 C   0  0  0  0  0  1  0  0  0  0  0  0
  -27.5420  -32.7120   25.9080 C   0  0  0  0  0  1  0  0  0  0  0  0
  1  3  1  0
  2  1  1  0
  2  4  1  0
  3  6  1  0
  4  7  1  0
  6 11  1  0
  6  5  1  0
  7 52  1  0
  7  5  1  0
  9 13  2  0
  9 11  1  0
 10  8  2  0
 11 12  2  0
 12  8  1  0
 12 14  1  0
 13 10  1  0
 15 13  1  0
 16 10  1  0
 17 22  1  0
 18 19  1  0
 18 17  1  0
 20 19  1  0
 20 27  1  0
 20 21  1  0
 22 16  1  0
 22 21  1  0
 23 16  2  0
 24 25  2  0
 25 44  1  0
 26 25  1  0
 26 29  1  0
 27 28  1  0
 27 24  1  0
 28 26  2  0
 29 30  1  0
 30 31  2  0
 32 35  1  0
 32 31  1  0
 33 32  2  0
 34 33  1  0
 34 29  2  0
 35 36  1  0
 36 41  2  0
 36 37  1  0
 37 38  2  0
 38 39  1  0
 39 43  1  0
 40 39  2  0
 41 40  1  0
 42 41  1  0
 44 45  1  0
 45 48  1  0
 45 47  1  0
 46 44  2  0
 49 24  1  0
 49 50  1  0
 51 49  1  0
 53 64  2  0
 54 52  1  0
 54 59  1  0
 55 63  1  0
 55 65  1  0
 56 62  1  0
 56 58  1  0
 57 63  1  0
 58 57  1  0
 59 58  2  0
 60 54  2  0
 61 60  1  0
 61 56  2  0
 62 55  1  0
 63 53  1  0
 65 67  2  0
 66 65  1  0
 68 66  1  0
 69 78  2  0
 69 74  1  0
 70 66  1  0
 70 74  1  0
 71 70  1  0
 72 73  1  0
 72 71  1  0
 73 69  1  0
 74 75  2  0
 75 76  1  0
 77 76  2  0
 78 77  1  0
 79 53  1  0
 79 80  1  0
 79 89  1  0
 80 83  1  0
 81 85  1  0
 81 80  1  0
 82 81  2  0
 85 84  1  0
 87 88  1  0
 87 85  1  0
 87 86  1  0
 89 92  1  1
 89 90  1  0
 91 89  1  0
M  ISO  4   7 101  10 100  16 100  52 101
M  END
>  <TORSDO>  (52) 
F 17

>  <SCORE>  (52) 
-14.745

>  <name>  (52) 
51

>  <ligand_id>  (52) 
51

>  <original_smiles>  (52) 
[H]c1c([H])c([H])c2c(c1[H])C([H])([H])C([H])([H])C([H])([H])C2([H])N([H])C(=O)C1([H])N(C(=O)C([H])(N([H])C(=O)C([H])(N([H])C([H])([H])[H])C([H])([H])[H])C(C([H])([H])[H])(C([H])([H])[H])C([H])([H])[H])C([H])([H])c2c([H])c(OC3([H])C([H])([H])C([H])([H])C([H])([H])C([H])([H])C([H])(c4c([H])c(C([H])([H])[H])c(C(=O)N5C([H])([H])C([H])([H])C([H])([H])C([H])(n6nc(-c7c([H])c([H])c(Oc8c([H])c([H])c(F)c([H])c8F)c([H])c7[H])c(C(=O)N([H])[H])c6N([H])[H])C5([H])[H])c([H])c4C([H])([H])[H])C3([H])[H])c([H])c([H])c2C1([H])[H]

>  <smiles>  (52) 
[H]c1c([H])c([H])c2c(c1[H])C([H])([H])C([H])([H])C([H])([H])C2([H])N([H])C(=O)C1([H])N(C(=O)C([H])(N([H])C(=O)C([H])(N([H])C([H])([H])[H])C([H])([H])[H])C(C([H])([H])[H])(C([H])([H])[H])C([H])([H])[H])C([H])([H])c2c([H])c(OC3([H])C([H])([H])C([H])([H])C([H])([H])C([H])([H])C([H])(c4c([H])c(C([H])([H])[H])c(C(=O)N5C([H])([H])C([H])([H])C([H])([H])C([H])(n6nc(-c7c([H])c([H])c(Oc8c([H])c([H])c(F)c([H])c8F)c([H])c7[H])c(C(=O)N([H])[H])c6N([H])[H])C5([H])[H])c([H])c4C([H])([H])[H])C3([H])[H])c([H])c([H])c2C1([H])[H]

$$$$
52:0:0
     RDKit          3D

 97107  0  0  1  0  0  0  0  0999 V2000
  -28.7390  -20.4740   19.4810 N   0  0  0  0  0  4  0  0  0  0  0  0
  -29.0510  -20.2710   18.5460 H   0  0  0  0  0  0  0  0  0  0  0  0
  -27.8050  -20.8390   19.3970 H   0  0  0  0  0  0  0  0  0  0  0  0
  -29.5770  -21.5930   20.0180 C   0  0  0  0  0  2  0  0  0  0  0  0
  -27.5250  -23.9560   22.2620 C   0  0  0  0  0  3  0  0  0  0  0  0
  -28.1290  -22.8020   21.7300 C   0  0  0  0  0  3  0  0  0  0  0  0
  -27.5950  -25.1860   21.5810 C   0  0  0  0  0  3  0  0  0  0  0  0
  -28.8590  -24.1120   19.8030 C   0  0  0  0  0  3  0  0  0  0  0  0
  -28.8140  -22.8570   20.4980 C   0  0  0  0  0  0  0  0  0  0  0  0
  -28.2510  -25.2940   20.3300 C   0  0  0  0  0  0  0  0  0  0  0  0
  -28.3200  -26.5310   19.6710 O   0  0  0  0  0  0  0  0  0  0  0  0
  -24.4780  -31.6080   22.9590 C   0  0  0  0  0  0  0  0  0  0  0  0
  -27.1930  -27.3410   19.6640 C   0  0  0  0  0  0  0  0  0  0  0  0
  -23.3000  -30.2770   21.2400 C   0  0  0  0  0  3  0  0  0  0  0  0
  -24.7860  -28.8440   19.7320 C   0  0  0  0  0  0  0  0  0  0  0  0
  -25.8240  -30.6780   21.0740 C   0  0  0  0  0  2  0  0  0  0  0  0
  -25.9360  -29.3430   20.3580 C   0  0  0  0  0  0  0  0  0  0  0  0
  -27.1450  -28.5980   20.3230 C   0  0  0  0  0  3  0  0  0  0  0  0
  -26.0300  -26.8790   19.0120 C   0  0  0  0  0  3  0  0  0  0  0  0
  -24.8300  -27.6140   19.0520 C   0  0  0  0  0  3  0  0  0  0  0  0
  -23.5270  -29.6810   19.8250 C   0  0  0  0  0  2  0  0  0  0  0  0
  -24.5520  -30.8660   21.8170 N   0  0  0  0  0  0  0  0  0  0  0  0
  -23.3910  -31.8330   23.5090 O   0  0  0  0  0  0  0  0  0  0  0  0
  -22.6630  -29.1940   22.1420 C   0  0  0  0  0  0  0  0  0  0  0  0
  -21.3340  -29.0380   22.0430 N   0  0  0  0  0  0  0  0  0  0  0  0
  -23.3620  -28.5020   22.8870 O   0  0  0  0  0  0  0  0  0  0  0  0
  -20.8300  -29.6490   21.4160 H   0  0  0  0  0  0  0  0  0  0  0  0
  -17.9490  -27.9230   22.6550 C   0  0  0  0  0  0  0  0  0  0  0  0
  -20.5280  -28.0530   22.7680 C   0  0  0  0  0  3  0  0  0  0  0  0
  -20.5260  -26.6900   22.0370 C   0  0  0  0  0  2  0  0  0  0  0  0
  -19.3450  -26.5220   21.0770 C   0  0  0  0  0  2  0  0  0  0  0  0
  -18.0180  -26.6500   21.8300 C   0  0  0  0  0  2  0  0  0  0  0  0
  -19.1270  -28.5910   23.0830 C   0  0  0  0  0  0  0  0  0  0  0  0
  -19.0060  -29.7900   23.8170 C   0  0  0  0  0  3  0  0  0  0  0  0
  -17.7400  -30.3200   24.1270 C   0  0  0  0  0  3  0  0  0  0  0  0
  -16.5770  -29.6470   23.7150 C   0  0  0  0  0  3  0  0  0  0  0  0
  -16.6820  -28.4500   22.9850 C   0  0  0  0  0  3  0  0  0  0  0  0
  -25.7510  -32.2290   23.6150 C   0  0  0  0  0  3  0  0  0  0  0  0
  -25.4050  -33.5860   24.0590 N   0  0  0  0  0  0  0  0  0  0  0  0
  -25.6770  -34.7030   23.3730 C   0  0  0  0  0  0  0  0  0  0  0  0
  -26.3180  -34.7010   22.3180 O   0  0  0  0  0  0  0  0  0  0  0  0
  -24.8340  -33.6570   24.8890 H   0  0  0  0  0  0  0  0  0  0  0  0
  -23.8730  -36.4480   23.2060 C   0  0  0  0  0  1  0  0  0  0  0  0
  -25.1560  -36.0340   23.9470 C   0  0  0  0  0  3  0  0  0  0  0  0
  -27.2790  -36.9410   24.7800 C   0  0  0  0  0  1  0  0  0  0  0  0
  -26.1450  -37.1310   23.8800 N   0  0  0  0  0  0  0  0  0  0  0  0
  -25.7100  -38.0220   24.1020 H   0  0  0  0  0  0  0  0  0  0  0  0
  -26.3080  -31.3740   24.8200 C   0  0  1  0  0  0  0  0  0  0  0  0
  -25.2360  -31.0100   25.8720 C   0  0  0  0  0  1  0  0  0  0  0  0
  -26.9360  -30.0550   24.3100 C   0  0  0  0  0  1  0  0  0  0  0  0
  -27.4370  -32.1520   25.5370 C   0  0  0  0  0  1  0  0  0  0  0  0
  -28.6620  -19.1740   20.2340 C   0  0  0  0  0  2  0  0  0  0  0  0
  -28.4350  -17.5470   18.2640 C   0  0  0  0  0  1  0  0  0  0  0  0
  -29.2580  -17.8880   19.5200 C   0  0  0  0  0  3  0  0  0  0  0  0
  -32.0890  -16.8870   21.6340 C   0  0  0  0  0  2  0  0  0  0  0  0
  -31.9020  -16.3160   20.2200 C   0  0  0  0  0  2  0  0  0  0  0  0
  -29.6090  -17.0160   21.9450 C   0  0  0  0  0  2  0  0  0  0  0  0
  -30.7230  -14.9440   21.6990 C   0  0  0  0  0  2  0  0  0  0  0  0
  -30.8910  -16.2900   22.3770 C   0  0  0  0  0  3  0  0  0  0  0  0
  -29.3850  -16.6030   20.4600 C   0  0  0  0  0  3  0  0  0  0  0  0
  -30.5560  -15.5260   20.2800 C   0  0  1  0  0  0  0  0  0  0  0  0
  -30.5280  -14.4370   19.1280 C   0  0  0  0  0  0  0  0  0  0  0  0
  -29.9780  -12.2540   18.0690 C   0  0  0  0  0  2  0  0  0  0  0  0
  -28.8390  -12.3720   17.0390 C   0  0  0  0  0  2  0  0  0  0  0  0
  -27.4800  -12.1760   17.7310 C   0  0  0  0  0  2  0  0  0  0  0  0
  -27.3390  -13.0640   18.9910 C   0  0  0  0  0  3  0  0  0  0  0  0
  -28.5800  -12.9820   19.9050 C   0  0  0  0  0  2  0  0  0  0  0  0
  -29.7870  -13.2830   19.1180 N   0  0  0  0  0  0  0  0  0  0  0  0
  -31.3400  -14.6280   18.2170 O   0  0  0  0  0  0  0  0  0  0  0  0
  -25.1490  -13.6350   20.2140 C   0  0  0  0  0  0  0  0  0  0  0  0
  -24.1730  -12.8470   20.7620 C   0  0  0  0  0  0  0  0  0  0  0  0
  -24.6050  -11.4980   20.5780 C   0  0  0  0  0  0  0  0  0  0  0  0
  -26.1130  -12.7650   19.7280 N   0  0  0  0  0  0  0  0  0  0  0  0
  -25.8030  -11.4720   20.0070 N   0  0  0  0  0  0  0  0  0  0  0  0
  -23.9200  -10.2290   20.8590 C   0  0  0  0  0  0  0  0  0  0  0  0
  -24.3960   -9.3340   21.8420 C   0  0  0  0  0  3  0  0  0  0  0  0
  -23.7090   -8.1300   22.1070 C   0  0  0  0  0  3  0  0  0  0  0  0
  -22.5310   -7.8110   21.3900 C   0  0  0  0  0  0  0  0  0  0  0  0
  -22.0750   -8.6950   20.3970 C   0  0  0  0  0  3  0  0  0  0  0  0
  -22.7620   -9.8910   20.1310 C   0  0  0  0  0  3  0  0  0  0  0  0
  -21.8140   -6.6520   21.5600 O   0  0  0  0  0  0  0  0  0  0  0  0
  -21.7020   -6.0480   22.7880 C   0  0  0  0  0  0  0  0  0  0  0  0
  -21.1300   -6.7120   23.8940 C   0  0  0  0  0  3  0  0  0  0  0  0
  -20.9700   -6.0320   25.1180 C   0  0  0  0  0  3  0  0  0  0  0  0
  -21.3700   -4.6880   25.2350 C   0  0  0  0  0  0  0  0  0  0  0  0
  -21.9350   -4.0230   24.1320 C   0  0  0  0  0  3  0  0  0  0  0  0
  -22.0960   -4.7010   22.9110 C   0  0  0  0  0  0  0  0  0  0  0  0
  -22.6210   -4.0490   21.8450 F   0  0  0  0  0  0  0  0  0  0  0  0
  -21.2100   -4.0320   26.4080 F   0  0  0  0  0  0  0  0  0  0  0  0
  -22.8680  -13.3140   21.3380 C   0  0  0  0  0  0  0  0  0  0  0  0
  -22.3750  -12.6370   22.3700 N   0  0  0  0  0  0  0  0  0  0  0  0
  -22.2990  -14.3140   20.9030 O   0  0  0  0  0  0  0  0  0  0  0  0
  -22.8520  -11.8290   22.7400 H   0  0  0  0  0  0  0  0  0  0  0  0
  -21.5080  -12.9350   22.7960 H   0  0  0  0  0  0  0  0  0  0  0  0
  -25.2910  -15.0120   20.0680 N   0  0  0  0  0  0  0  0  0  0  0  0
  -24.5690  -15.6620   20.3590 H   0  0  0  0  0  0  0  0  0  0  0  0
  -26.0560  -15.4610   19.5830 H   0  0  0  0  0  0  0  0  0  0  0  0
  1  4  1  0
  1 52  1  0
  2  1  1  0
  3  1  1  0
  4  9  1  0
  6  5  1  0
  7  5  2  0
  8 10  2  0
  8  9  1  0
  9  6  2  0
 10  7  1  0
 11 10  1  0
 12 23  2  0
 13 11  1  0
 13 18  1  0
 14 22  1  0
 14 24  1  0
 15 21  1  0
 15 17  1  0
 16 22  1  0
 17 16  1  0
 18 17  2  0
 19 20  1  0
 19 13  2  0
 20 15  2  0
 21 14  1  0
 22 12  1  0
 24 26  2  0
 25 24  1  0
 27 25  1  0
 28 37  2  0
 28 33  1  0
 29 25  1  0
 29 33  1  0
 30 29  1  0
 31 32  1  0
 31 30  1  0
 32 28  1  0
 33 34  2  0
 34 35  1  0
 36 35  2  0
 37 36  1  0
 38 12  1  0
 38 39  1  0
 38 48  1  0
 39 42  1  0
 40 44  1  0
 40 39  1  0
 41 40  2  0
 44 43  1  0
 46 44  1  0
 46 47  1  0
 46 45  1  0
 48 51  1  1
 48 49  1  0
 50 48  1  0
 54 53  1  0
 54 52  1  0
 56 61  1  0
 56 55  1  0
 57 59  1  0
 58 59  1  0
 59 55  1  0
 60 54  1  0
 60 57  1  0
 61 62  1  6
 61 60  1  0
 61 58  1  0
 63 68  1  0
 64 65  1  0
 64 63  1  0
 66 65  1  0
 66 73  1  0
 66 67  1  0
 68 62  1  0
 68 67  1  0
 69 62  2  0
 70 71  2  0
 71 90  1  0
 72 71  1  0
 72 75  1  0
 73 74  1  0
 73 70  1  0
 74 72  2  0
 75 76  1  0
 76 77  2  0
 78 81  1  0
 78 77  1  0
 79 78  2  0
 80 79  1  0
 80 75  2  0
 81 82  1  0
 82 87  2  0
 82 83  1  0
 83 84  2  0
 84 85  1  0
 85 89  1  0
 86 85  2  0
 87 86  1  0
 88 87  1  0
 90 91  1  0
 91 93  1  0
 91 94  1  0
 92 90  2  0
 95 70  1  0
 95 96  1  0
 97 95  1  0
M  ISO  4  10 101  11 101  61 100  62 100
M  END
>  <TORSDO>  (53) 
F 21

>  <SCORE>  (53) 
-9.669

>  <name>  (53) 
52

>  <ligand_id>  (53) 
52

>  <original_smiles>  (53) 
[H]c1c([H])c([H])c2c(c1[H])C([H])([H])C([H])([H])C([H])([H])C2([H])N([H])C(=O)C1([H])N(C(=O)C([H])(N([H])C(=O)C([H])(N([H])C([H])([H])[H])C([H])([H])[H])C(C([H])([H])[H])(C([H])([H])[H])C([H])([H])[H])C([H])([H])c2c([H])c(Oc3c([H])c([H])c([H])c(C([H])([H])[N+]([H])([H])C([H])([H])C([H])(C([H])([H])[H])C4([H])C([H])([H])C5([H])C([H])([H])C([H])([H])C4(C(=O)N4C([H])([H])C([H])([H])C([H])([H])C([H])(n6nc(-c7c([H])c([H])c(Oc8c([H])c([H])c(F)c([H])c8F)c([H])c7[H])c(C(=O)N([H])[H])c6N([H])[H])C4([H])[H])C5([H])[H])c3[H])c([H])c([H])c2C1([H])[H]

>  <smiles>  (53) 
[H]c1c([H])c([H])c2c(c1[H])C([H])([H])C([H])([H])C([H])([H])C2([H])N([H])C(=O)C1([H])N(C(=O)C([H])(N([H])C(=O)C([H])(N([H])C([H])([H])[H])C([H])([H])[H])C(C([H])([H])[H])(C([H])([H])[H])C([H])([H])[H])C([H])([H])c2c([H])c(Oc3c([H])c([H])c([H])c(C([H])([H])[N+]([H])([H])C([H])([H])C([H])(C([H])([H])[H])C4([H])C([H])([H])C5([H])C([H])([H])C([H])([H])C4(C(=O)N4C([H])([H])C([H])([H])C([H])([H])C([H])(n6nc(-c7c([H])c([H])c(Oc8c([H])c([H])c(F)c([H])c8F)c([H])c7[H])c(C(=O)N([H])[H])c6N([H])[H])C4([H])[H])C5([H])[H])c3[H])c([H])c([H])c2C1([H])[H]

$$$$
53:0:0
     RDKit          3D

 94103  0  0  1  0  0  0  0  0999 V2000
  -26.2460  -23.2280   18.5500 C   0  0  0  0  0  3  0  0  0  0  0  0
  -26.9060  -23.9940   17.5670 C   0  0  0  0  0  3  0  0  0  0  0  0
  -26.7700  -23.1790   19.8600 C   0  0  0  0  0  0  0  0  0  0  0  0
  -28.0330  -23.7670   20.0850 C   0  0  0  0  0  0  0  0  0  0  0  0
  -27.8700  -24.9460   17.9710 C   0  0  0  0  0  0  0  0  0  0  0  0
  -28.2360  -25.0410   19.3450 C   0  0  0  0  0  0  0  0  0  0  0  0
  -26.0700  -22.3670   20.9440 C   0  0  0  0  0  1  0  0  0  0  0  0
  -28.2690  -25.8960   17.0740 O   0  0  0  0  0  0  0  0  0  0  0  0
  -28.0130  -25.6900   16.1780 H   0  0  0  0  0  0  0  0  0  0  0  0
  -28.3360  -26.4060   19.8550 O   0  0  0  0  0  0  0  0  0  0  0  0
  -24.7040  -31.9160   23.1280 C   0  0  0  0  0  0  0  0  0  0  0  0
  -27.2510  -27.3530   19.8730 C   0  0  0  0  0  0  0  0  0  0  0  0
  -23.4760  -30.5520   21.4890 C   0  0  0  0  0  3  0  0  0  0  0  0
  -24.8990  -29.0510   19.9790 C   0  0  0  0  0  0  0  0  0  0  0  0
  -26.0210  -30.8620   21.2580 C   0  0  0  0  0  2  0  0  0  0  0  0
  -26.0900  -29.4950   20.5640 C   0  0  0  0  0  0  0  0  0  0  0  0
  -27.2670  -28.6600   20.4990 C   0  0  0  0  0  3  0  0  0  0  0  0
  -26.0130  -26.9970   19.2920 C   0  0  0  0  0  3  0  0  0  0  0  0
  -24.8670  -27.8120   19.3300 C   0  0  0  0  0  3  0  0  0  0  0  0
  -23.6630  -29.9290   20.0840 C   0  0  0  0  0  2  0  0  0  0  0  0
  -24.7560  -31.1310   22.0120 N   0  0  0  0  0  0  0  0  0  0  0  0
  -23.6280  -32.1720   23.6910 O   0  0  0  0  0  0  0  0  0  0  0  0
  -22.8430  -29.5010   22.4390 C   0  0  0  0  0  0  0  0  0  0  0  0
  -21.5190  -29.2850   22.3240 N   0  0  0  0  0  0  0  0  0  0  0  0
  -23.5420  -28.8900   23.2500 O   0  0  0  0  0  0  0  0  0  0  0  0
  -21.0070  -29.8470   21.6560 H   0  0  0  0  0  0  0  0  0  0  0  0
  -18.1990  -27.9170   22.7780 C   0  0  0  0  0  0  0  0  0  0  0  0
  -20.7370  -28.3110   23.0900 C   0  0  0  0  0  3  0  0  0  0  0  0
  -20.9190  -26.8820   22.5280 C   0  0  0  0  0  2  0  0  0  0  0  0
  -19.8510  -26.5030   21.4940 C   0  0  0  0  0  2  0  0  0  0  0  0
  -18.4560  -26.5760   22.1120 C   0  0  0  0  0  2  0  0  0  0  0  0
  -19.2690  -28.7380   23.2210 C   0  0  0  0  0  0  0  0  0  0  0  0
  -18.9740  -29.9910   23.8000 C   0  0  0  0  0  3  0  0  0  0  0  0
  -17.6430  -30.4240   23.9470 C   0  0  0  0  0  3  0  0  0  0  0  0
  -16.5880  -29.6010   23.5200 C   0  0  0  0  0  3  0  0  0  0  0  0
  -16.8660  -28.3500   22.9410 C   0  0  0  0  0  3  0  0  0  0  0  0
  -25.9890  -32.5570   23.7340 C   0  0  0  0  0  3  0  0  0  0  0  0
  -26.5530  -31.7590   24.9740 C   0  0  1  0  0  0  0  0  0  0  0  0
  -25.4950  -31.4790   26.0670 C   0  0  0  0  0  1  0  0  0  0  0  0
  -27.1470  -30.4000   24.5330 C   0  0  0  0  0  1  0  0  0  0  0  0
  -27.7110  -32.5550   25.6210 C   0  0  0  0  0  1  0  0  0  0  0  0
  -25.6600  -33.9380   24.1180 N   0  0  0  0  0  0  0  0  0  0  0  0
  -25.9390  -35.0240   23.3840 C   0  0  0  0  0  0  0  0  0  0  0  0
  -26.5650  -34.9670   22.3220 O   0  0  0  0  0  0  0  0  0  0  0  0
  -25.0940  -34.0500   24.9450 H   0  0  0  0  0  0  0  0  0  0  0  0
  -24.1540  -36.7870   23.1830 C   0  0  0  0  0  1  0  0  0  0  0  0
  -25.4480  -36.3870   23.9090 C   0  0  0  0  0  3  0  0  0  0  0  0
  -27.6060  -37.3000   24.6460 C   0  0  0  0  0  1  0  0  0  0  0  0
  -26.4480  -37.4670   23.7720 N   0  0  0  0  0  0  0  0  0  0  0  0
  -26.0310  -38.3730   23.9650 H   0  0  0  0  0  0  0  0  0  0  0  0
  -29.1200  -22.5960   20.4100 C   0  0  0  0  0  3  0  0  0  0  0  0
  -28.9930  -21.0720   19.7360 C   0  0  0  0  0  3  0  0  0  0  0  0
  -30.8750  -15.0840   20.0350 C   0  0  0  0  0  0  0  0  0  0  0  0
  -30.6200  -12.7530   19.1280 C   0  0  0  0  0  2  0  0  0  0  0  0
  -29.6650  -12.7440   17.9140 C   0  0  0  0  0  2  0  0  0  0  0  0
  -28.2100  -12.5650   18.3870 C   0  0  0  0  0  2  0  0  0  0  0  0
  -27.8430  -13.5080   19.5600 C   0  0  0  0  0  3  0  0  0  0  0  0
  -28.9280  -13.5220   20.6580 C   0  0  0  0  0  2  0  0  0  0  0  0
  -30.1960  -13.8740   20.0090 N   0  0  0  0  0  0  0  0  0  0  0  0
  -32.0730  -15.0650   19.7260 O   0  0  0  0  0  0  0  0  0  0  0  0
  -30.6240  -18.8840   19.1380 C   0  0  0  0  0  2  0  0  0  0  0  0
  -28.9190  -18.4880   20.8360 C   0  0  0  0  0  2  0  0  0  0  0  0
  -30.3930  -17.3130   18.8440 C   0  0  0  0  0  2  0  0  0  0  0  0
  -29.6770  -17.1020   21.1310 C   0  0  0  0  0  2  0  0  0  0  0  0
  -29.7630  -19.6650   20.2080 C   0  0  0  0  0  3  0  0  0  0  0  0
  -30.1860  -16.3220   19.9630 N   0  0  0  0  0  0  0  0  0  0  0  0
  -25.4790  -14.1120   20.3440 C   0  0  0  0  0  0  0  0  0  0  0  0
  -24.4140  -13.3480   20.7270 C   0  0  0  0  0  0  0  0  0  0  0  0
  -24.8640  -11.9920   20.6930 C   0  0  0  0  0  0  0  0  0  0  0  0
  -26.5110  -13.2260   20.0870 N   0  0  0  0  0  0  0  0  0  0  0  0
  -26.1500  -11.9450   20.3640 N   0  0  0  0  0  0  0  0  0  0  0  0
  -24.1250  -10.7370   20.8880 C   0  0  0  0  0  0  0  0  0  0  0  0
  -24.5360   -9.7810   21.8420 C   0  0  0  0  0  3  0  0  0  0  0  0
  -23.7980   -8.5920   22.0310 C   0  0  0  0  0  3  0  0  0  0  0  0
  -22.6330   -8.3490   21.2650 C   0  0  0  0  0  0  0  0  0  0  0  0
  -22.2400   -9.2920   20.2990 C   0  0  0  0  0  3  0  0  0  0  0  0
  -22.9790  -10.4720   20.1080 C   0  0  0  0  0  3  0  0  0  0  0  0
  -21.8690   -7.2100   21.3630 O   0  0  0  0  0  0  0  0  0  0  0  0
  -21.7600   -6.5160   22.5420 C   0  0  0  0  0  0  0  0  0  0  0  0
  -21.2820   -7.1240   23.7220 C   0  0  0  0  0  3  0  0  0  0  0  0
  -21.1200   -6.3560   24.8930 C   0  0  0  0  0  3  0  0  0  0  0  0
  -21.4230   -4.9820   24.8830 C   0  0  0  0  0  0  0  0  0  0  0  0
  -21.8910   -4.3730   23.7060 C   0  0  0  0  0  3  0  0  0  0  0  0
  -22.0550   -5.1370   22.5370 C   0  0  0  0  0  0  0  0  0  0  0  0
  -22.4860   -4.5420   21.3990 F   0  0  0  0  0  0  0  0  0  0  0  0
  -21.2600   -4.2440   26.0050 F   0  0  0  0  0  0  0  0  0  0  0  0
  -23.0240  -13.8340   21.0180 C   0  0  0  0  0  0  0  0  0  0  0  0
  -22.3080  -13.1540   21.9070 N   0  0  0  0  0  0  0  0  0  0  0  0
  -22.5830  -14.8570   20.4920 O   0  0  0  0  0  0  0  0  0  0  0  0
  -22.6790  -12.3290   22.3540 H   0  0  0  0  0  0  0  0  0  0  0  0
  -21.3740  -13.4620   22.1440 H   0  0  0  0  0  0  0  0  0  0  0  0
  -25.6560  -15.4820   20.1690 N   0  0  0  0  0  0  0  0  0  0  0  0
  -24.8950  -16.1430   20.2820 H   0  0  0  0  0  0  0  0  0  0  0  0
  -26.5180  -15.9150   19.8640 H   0  0  0  0  0  0  0  0  0  0  0  0
  1  3  1  0
  2  5  1  0
  2  1  2  0
  3  4  2  0
  3  7  1  0
  4 51  1  0
  5  6  2  0
  6 10  1  0
  6  4  1  0
  8  5  1  0
  9  8  1  0
 10 12  1  0
 11 22  2  0
 12 17  1  0
 13 21  1  0
 13 23  1  0
 14 20  1  0
 14 16  1  0
 15 21  1  0
 16 15  1  0
 17 16  2  0
 18 19  1  0
 18 12  2  0
 19 14  2  0
 20 13  1  0
 21 11  1  0
 23 25  2  0
 24 23  1  0
 26 24  1  0
 27 36  2  0
 27 32  1  0
 28 24  1  0
 28 32  1  0
 29 28  1  0
 30 31  1  0
 30 29  1  0
 31 27  1  0
 32 33  2  0
 33 34  1  0
 35 34  2  0
 36 35  1  0
 37 11  1  0
 37 42  1  0
 37 38  1  0
 38 41  1  1
 38 39  1  0
 40 38  1  0
 42 45  1  0
 43 47  1  0
 43 42  1  0
 44 43  2  0
 47 46  1  0
 49 47  1  0
 49 50  1  0
 49 48  1  0
 52 51  2  0
 54 59  1  0
 55 56  1  0
 55 54  1  0
 57 56  1  0
 57 70  1  0
 57 58  1  0
 59 53  1  0
 59 58  1  0
 60 53  2  0
 61 65  1  0
 62 64  1  0
 63 61  1  0
 63 66  1  0
 65 52  1  0
 65 62  1  0
 66 53  1  0
 66 64  1  0
 67 68  2  0
 68 87  1  0
 69 68  1  0
 69 72  1  0
 70 67  1  0
 70 71  1  0
 71 69  2  0
 72 73  1  0
 73 74  2  0
 75 78  1  0
 75 74  1  0
 76 75  2  0
 77 76  1  0
 77 72  2  0
 78 79  1  0
 79 80  1  0
 80 81  2  0
 82 81  1  0
 82 86  1  0
 83 82  2  0
 84 79  2  0
 84 83  1  0
 85 84  1  0
 87 88  1  0
 88 91  1  0
 88 90  1  0
 89 87  2  0
 92 93  1  0
 92 67  1  0
 94 92  1  0
M  ISO  4   6 101  10 101  53 100  66 100
M  END
>  <TORSDO>  (54) 
F 19

>  <SCORE>  (54) 
-13.405

>  <name>  (54) 
53

>  <ligand_id>  (54) 
53

>  <original_smiles>  (54) 
[H]Oc1c([H])c([H])c(C([H])([H])[H])c(C([H])([H])C([H])([H])C2([H])C([H])([H])C([H])([H])N(C(=O)N3C([H])([H])C([H])([H])C([H])([H])C([H])(n4nc(-c5c([H])c([H])c(Oc6c([H])c([H])c(F)c([H])c6F)c([H])c5[H])c(C(=O)N([H])[H])c4N([H])[H])C3([H])[H])C([H])([H])C2([H])[H])c1Oc1c([H])c([H])c2c(c1[H])C([H])([H])N(C(=O)C([H])(N([H])C(=O)C([H])(N([H])C([H])([H])[H])C([H])([H])[H])C(C([H])([H])[H])(C([H])([H])[H])C([H])([H])[H])C([H])(C(=O)N([H])C1([H])c3c([H])c([H])c([H])c([H])c3C([H])([H])C([H])([H])C1([H])[H])C2([H])[H]

>  <smiles>  (54) 
[H]Oc1c([H])c([H])c(C([H])([H])[H])c(C([H])([H])C([H])([H])C2([H])C([H])([H])C([H])([H])N(C(=O)N3C([H])([H])C([H])([H])C([H])([H])C([H])(n4nc(-c5c([H])c([H])c(Oc6c([H])c([H])c(F)c([H])c6F)c([H])c5[H])c(C(=O)N([H])[H])c4N([H])[H])C3([H])[H])C([H])([H])C2([H])[H])c1Oc1c([H])c([H])c2c(c1[H])C([H])([H])N(C(=O)C([H])(N([H])C(=O)C([H])(N([H])C([H])([H])[H])C([H])([H])[H])C(C([H])([H])[H])(C([H])([H])[H])C([H])([H])[H])C([H])(C(=O)N([H])C1([H])c3c([H])c([H])c([H])c([H])c3C([H])([H])C([H])([H])C1([H])[H])C2([H])[H]

$$$$
54:0:0
     RDKit          3D

 86 94  0  0  1  0  0  0  0  0999 V2000
  -31.1700  -20.9320   20.4430 C   0  0  0  0  0  3  0  0  0  0  0  0
  -30.2760  -22.0570   20.4060 C   0  0  0  0  0  3  0  0  0  0  0  0
  -30.8430  -19.5330   20.3890 C   0  0  0  0  0  3  0  0  0  0  0  0
  -28.5970  -20.3530   20.2540 C   0  0  0  0  0  3  0  0  0  0  0  0
  -28.8660  -21.9710   20.3050 C   0  0  0  0  0  0  0  0  0  0  0  0
  -29.5320  -19.0050   20.2890 C   0  0  0  0  0  0  0  0  0  0  0  0
  -30.1920  -15.8550   20.2000 C   0  0  0  0  0  0  0  0  0  0  0  0
  -30.3410  -13.2850   19.3630 C   0  0  0  0  0  2  0  0  0  0  0  0
  -29.4560  -12.8160   18.1690 C   0  0  0  0  0  2  0  0  0  0  0  0
  -28.0490  -12.4220   18.6400 C   0  0  0  0  0  2  0  0  0  0  0  0
  -27.5220  -13.4180   19.6950 C   0  0  0  0  0  3  0  0  0  0  0  0
  -28.5540  -13.7840   20.7920 C   0  0  0  0  0  2  0  0  0  0  0  0
  -29.6910  -14.4650   20.1150 N   0  0  0  0  0  0  0  0  0  0  0  0
  -31.4300  -15.7760   20.0400 O   0  0  0  0  0  0  0  0  0  0  0  0
  -29.4130  -17.2430   20.2600 N   0  0  0  0  0  0  0  0  0  0  0  0
  -28.4360  -16.9880   20.2920 H   0  0  0  0  0  0  0  0  0  0  0  0
  -25.1650  -13.9080   20.4880 C   0  0  0  0  0  0  0  0  0  0  0  0
  -24.1200  -13.1120   20.8580 C   0  0  0  0  0  0  0  0  0  0  0  0
  -24.6060  -11.7690   20.8140 C   0  0  0  0  0  0  0  0  0  0  0  0
  -26.2190  -13.0530   20.2290 N   0  0  0  0  0  0  0  0  0  0  0  0
  -25.8990  -11.7570   20.4910 N   0  0  0  0  0  0  0  0  0  0  0  0
  -23.8950  -10.4960   20.9990 C   0  0  0  0  0  0  0  0  0  0  0  0
  -24.3210   -9.5410   21.9480 C   0  0  0  0  0  3  0  0  0  0  0  0
  -23.6030   -8.3370   22.1240 C   0  0  0  0  0  3  0  0  0  0  0  0
  -22.4450   -8.0810   21.3530 C   0  0  0  0  0  0  0  0  0  0  0  0
  -22.0370   -9.0260   20.3930 C   0  0  0  0  0  3  0  0  0  0  0  0
  -22.7560  -10.2200   20.2160 C   0  0  0  0  0  3  0  0  0  0  0  0
  -21.7000   -6.9290   21.4370 O   0  0  0  0  0  0  0  0  0  0  0  0
  -21.6170   -6.2090   22.6020 C   0  0  0  0  0  0  0  0  0  0  0  0
  -21.1080   -6.7740   23.7910 C   0  0  0  0  0  3  0  0  0  0  0  0
  -20.9740   -5.9790   24.9470 C   0  0  0  0  0  3  0  0  0  0  0  0
  -21.3410   -4.6210   24.9140 C   0  0  0  0  0  0  0  0  0  0  0  0
  -21.8440   -4.0550   23.7290 C   0  0  0  0  0  3  0  0  0  0  0  0
  -21.9780   -4.8470   22.5760 C   0  0  0  0  0  0  0  0  0  0  0  0
  -22.4430   -4.2910   21.4310 F   0  0  0  0  0  0  0  0  0  0  0  0
  -21.2070   -3.8540   26.0220 F   0  0  0  0  0  0  0  0  0  0  0  0
  -22.7170  -13.5690   21.1330 C   0  0  0  0  0  0  0  0  0  0  0  0
  -22.0030  -12.8670   22.0040 N   0  0  0  0  0  0  0  0  0  0  0  0
  -22.2660  -14.5890   20.6110 O   0  0  0  0  0  0  0  0  0  0  0  0
  -22.3830  -12.0440   22.4480 H   0  0  0  0  0  0  0  0  0  0  0  0
  -21.0620  -13.1570   22.2300 H   0  0  0  0  0  0  0  0  0  0  0  0
  -25.3030  -15.2820   20.3150 N   0  0  0  0  0  0  0  0  0  0  0  0
  -24.5210  -15.9180   20.4310 H   0  0  0  0  0  0  0  0  0  0  0  0
  -26.1290  -15.7320   19.9470 H   0  0  0  0  0  0  0  0  0  0  0  0
  -27.9040  -23.6280   20.2440 C   0  0  0  0  0  2  0  0  0  0  0  0
  -28.1320  -25.4200   20.3730 O   0  0  0  0  0  0  0  0  0  0  0  0
  -24.6750  -31.8720   23.2620 C   0  0  0  0  0  0  0  0  0  0  0  0
  -27.1850  -26.6880   20.3150 C   0  0  0  0  0  0  0  0  0  0  0  0
  -23.4950  -30.4780   21.6190 C   0  0  0  0  0  3  0  0  0  0  0  0
  -24.9430  -28.7980   20.2290 C   0  0  0  0  0  0  0  0  0  0  0  0
  -26.0790  -30.5740   21.5310 C   0  0  0  0  0  2  0  0  0  0  0  0
  -26.1380  -29.1300   20.8780 C   0  0  0  0  0  0  0  0  0  0  0  0
  -27.2390  -28.1060   20.8840 C   0  0  0  0  0  3  0  0  0  0  0  0
  -25.9550  -26.5930   19.6070 C   0  0  0  0  0  3  0  0  0  0  0  0
  -24.8960  -27.5580   19.5690 C   0  0  0  0  0  3  0  0  0  0  0  0
  -23.7460  -29.7690   20.2550 C   0  0  0  0  0  2  0  0  0  0  0  0
  -24.7750  -31.0100   22.1900 N   0  0  0  0  0  0  0  0  0  0  0  0
  -23.5770  -32.1850   23.7580 O   0  0  0  0  0  0  0  0  0  0  0  0
  -22.7530  -29.5170   22.5880 C   0  0  0  0  0  0  0  0  0  0  0  0
  -21.4200  -29.3750   22.4510 N   0  0  0  0  0  0  0  0  0  0  0  0
  -23.3920  -28.8940   23.4400 O   0  0  0  0  0  0  0  0  0  0  0  0
  -20.9530  -29.9280   21.7440 H   0  0  0  0  0  0  0  0  0  0  0  0
  -18.0190  -28.1820   22.9320 C   0  0  0  0  0  0  0  0  0  0  0  0
  -20.5780  -28.4480   23.2190 C   0  0  0  0  0  3  0  0  0  0  0  0
  -20.6800  -27.0100   22.6570 C   0  0  0  0  0  2  0  0  0  0  0  0
  -19.5890  -26.6850   21.6310 C   0  0  0  0  0  2  0  0  0  0  0  0
  -18.2010  -26.8320   22.2590 C   0  0  0  0  0  2  0  0  0  0  0  0
  -19.1330  -28.9480   23.3680 C   0  0  0  0  0  0  0  0  0  0  0  0
  -18.9060  -30.2070   23.9630 C   0  0  0  0  0  3  0  0  0  0  0  0
  -17.5980  -30.7030   24.1240 C   0  0  0  0  0  3  0  0  0  0  0  0
  -16.4980  -29.9370   23.7000 C   0  0  0  0  0  3  0  0  0  0  0  0
  -16.7090  -28.6770   23.1110 C   0  0  0  0  0  3  0  0  0  0  0  0
  -25.9330  -32.5200   23.9170 C   0  0  0  0  0  3  0  0  0  0  0  0
  -25.6150  -33.9250   24.2440 N   0  0  0  0  0  0  0  0  0  0  0  0
  -25.9320  -34.9870   23.4900 C   0  0  0  0  0  0  0  0  0  0  0  0
  -26.5750  -34.8860   22.4430 O   0  0  0  0  0  0  0  0  0  0  0  0
  -25.0360  -34.0750   25.0570 H   0  0  0  0  0  0  0  0  0  0  0  0
  -24.1820  -36.7830   23.2210 C   0  0  0  0  0  1  0  0  0  0  0  0
  -25.4640  -36.3790   23.9670 C   0  0  0  0  0  3  0  0  0  0  0  0
  -27.6290  -37.2890   24.6910 C   0  0  0  0  0  1  0  0  0  0  0  0
  -26.4850  -37.4380   23.7970 N   0  0  0  0  0  0  0  0  0  0  0  0
  -26.0790  -38.3570   23.9500 H   0  0  0  0  0  0  0  0  0  0  0  0
  -26.4050  -31.7660   25.2230 C   0  0  1  0  0  0  0  0  0  0  0  0
  -25.2830  -31.5600   26.2680 C   0  0  0  0  0  1  0  0  0  0  0  0
  -26.9830  -30.3740   24.8840 C   0  0  0  0  0  1  0  0  0  0  0  0
  -27.5480  -32.5590   25.9010 C   0  0  0  0  0  1  0  0  0  0  0  0
  2  1  1  0
  3  1  2  0
  4  6  2  0
  4  5  1  0
  5  2  2  0
  6  3  1  0
  7 15  1  0
  8 13  1  0
  9 10  1  0
  9  8  1  0
 11 10  1  0
 11 20  1  0
 11 12  1  0
 13  7  1  0
 13 12  1  0
 14  7  2  0
 15  6  1  0
 15 16  1  0
 17 18  2  0
 18 37  1  0
 19 18  1  0
 19 22  1  0
 20 17  1  0
 20 21  1  0
 21 19  2  0
 22 23  1  0
 23 24  2  0
 25 28  1  0
 25 24  1  0
 26 25  2  0
 27 26  1  0
 27 22  2  0
 28 29  1  0
 29 30  1  0
 30 31  2  0
 32 31  1  0
 32 36  1  0
 33 32  2  0
 34 29  2  0
 34 33  1  0
 35 34  1  0
 37 38  1  0
 38 41  1  0
 38 40  1  0
 39 37  2  0
 42 43  1  0
 42 17  1  0
 44 42  1  0
 45  5  1  0
 45 46  1  0
 47 58  2  0
 48 46  1  0
 48 53  1  0
 49 57  1  0
 49 59  1  0
 50 56  1  0
 50 52  1  0
 51 57  1  0
 52 53  2  0
 52 51  1  0
 54 48  2  0
 55 54  1  0
 55 50  2  0
 56 49  1  0
 57 47  1  0
 59 61  2  0
 60 59  1  0
 62 60  1  0
 63 72  2  0
 63 68  1  0
 64 60  1  0
 64 68  1  0
 65 64  1  0
 66 67  1  0
 66 65  1  0
 67 63  1  0
 68 69  2  0
 69 70  1  0
 71 70  2  0
 72 71  1  0
 73 47  1  0
 73 74  1  0
 73 83  1  0
 74 77  1  0
 75 79  1  0
 75 74  1  0
 76 75  2  0
 79 78  1  0
 81 82  1  0
 81 79  1  0
 81 80  1  0
 83 86  1  1
 83 84  1  0
 85 83  1  0
M  ISO  4   7 100  15 100  45 101  46 101
M  END
>  <TORSDO>  (55) 
F 17

>  <SCORE>  (55) 
-16.516

>  <name>  (55) 
54

>  <ligand_id>  (55) 
54

>  <original_smiles>  (55) 
[H]c1c([H])c(N([H])C(=O)N2C([H])([H])C([H])([H])C([H])([H])C([H])(n3nc(-c4c([H])c([H])c(Oc5c([H])c([H])c(F)c([H])c5F)c([H])c4[H])c(C(=O)N([H])[H])c3N([H])[H])C2([H])[H])c([H])c(C([H])([H])Oc2c([H])c([H])c3c(c2[H])C([H])([H])N(C(=O)C([H])(N([H])C(=O)C([H])(N([H])C([H])([H])[H])C([H])([H])[H])C(C([H])([H])[H])(C([H])([H])[H])C([H])([H])[H])C([H])(C(=O)N([H])C2([H])c4c([H])c([H])c([H])c([H])c4C([H])([H])C([H])([H])C2([H])[H])C3([H])[H])c1[H]

>  <smiles>  (55) 
[H]c1c([H])c(N([H])C(=O)N2C([H])([H])C([H])([H])C([H])([H])C([H])(n3nc(-c4c([H])c([H])c(Oc5c([H])c([H])c(F)c([H])c5F)c([H])c4[H])c(C(=O)N([H])[H])c3N([H])[H])C2([H])[H])c([H])c(C([H])([H])Oc2c([H])c([H])c3c(c2[H])C([H])([H])N(C(=O)C([H])(N([H])C(=O)C([H])(N([H])C([H])([H])[H])C([H])([H])[H])C(C([H])([H])[H])(C([H])([H])[H])C([H])([H])[H])C([H])(C(=O)N([H])C2([H])c4c([H])c([H])c([H])c([H])c4C([H])([H])C([H])([H])C2([H])[H])C3([H])[H])c1[H]

$$$$
55:0:0
     RDKit          3D

 88 96  0  0  1  0  0  0  0  0999 V2000
  -28.4220  -22.1910   19.1900 C   0  0  0  0  0  3  0  0  0  0  0  0
  -28.2110  -23.6560   19.1650 C   0  0  0  0  0  3  0  0  0  0  0  0
  -28.8360  -22.2930   21.4630 C   0  0  0  0  0  3  0  0  0  0  0  0
  -28.7580  -21.3740   20.3440 C   0  0  0  0  0  0  0  0  0  0  0  0
  -28.2670  -24.5690   20.2920 C   0  0  0  0  0  0  0  0  0  0  0  0
  -28.6250  -23.7580   21.4440 C   0  0  0  0  0  0  0  0  0  0  0  0
  -28.7910  -24.4250   22.6240 O   0  0  0  0  0  0  0  0  0  0  0  0
  -29.0370  -23.8520   23.3420 H   0  0  0  0  0  0  0  0  0  0  0  0
  -28.2480  -26.0800   20.2600 O   0  0  0  0  0  0  0  0  0  0  0  0
  -24.6190  -31.8910   23.2430 C   0  0  0  0  0  0  0  0  0  0  0  0
  -27.1660  -27.0670   20.2490 C   0  0  0  0  0  0  0  0  0  0  0  0
  -23.4110  -30.4900   21.6130 C   0  0  0  0  0  3  0  0  0  0  0  0
  -24.8510  -28.8780   20.2000 C   0  0  0  0  0  0  0  0  0  0  0  0
  -25.9690  -30.7180   21.4500 C   0  0  0  0  0  2  0  0  0  0  0  0
  -26.0340  -29.3100   20.8110 C   0  0  0  0  0  0  0  0  0  0  0  0
  -27.1860  -28.4210   20.8140 C   0  0  0  0  0  3  0  0  0  0  0  0
  -25.9540  -26.7560   19.5960 C   0  0  0  0  0  3  0  0  0  0  0  0
  -24.8280  -27.6170   19.5780 C   0  0  0  0  0  3  0  0  0  0  0  0
  -23.6310  -29.7940   20.2410 C   0  0  0  0  0  2  0  0  0  0  0  0
  -24.6880  -31.0580   22.1560 N   0  0  0  0  0  0  0  0  0  0  0  0
  -23.5330  -32.1870   23.7680 O   0  0  0  0  0  0  0  0  0  0  0  0
  -22.7210  -29.5010   22.5850 C   0  0  0  0  0  0  0  0  0  0  0  0
  -21.3920  -29.3380   22.4600 N   0  0  0  0  0  0  0  0  0  0  0  0
  -23.3870  -28.8790   23.4160 O   0  0  0  0  0  0  0  0  0  0  0  0
  -20.9100  -29.8890   21.7650 H   0  0  0  0  0  0  0  0  0  0  0  0
  -18.0080  -28.1420   22.9680 C   0  0  0  0  0  0  0  0  0  0  0  0
  -20.5670  -28.4090   23.2380 C   0  0  0  0  0  3  0  0  0  0  0  0
  -20.6690  -26.9710   22.6780 C   0  0  0  0  0  2  0  0  0  0  0  0
  -19.5690  -26.6400   21.6630 C   0  0  0  0  0  2  0  0  0  0  0  0
  -18.1870  -26.7890   22.3020 C   0  0  0  0  0  2  0  0  0  0  0  0
  -19.1250  -28.9100   23.3940 C   0  0  0  0  0  0  0  0  0  0  0  0
  -18.9020  -30.1750   23.9790 C   0  0  0  0  0  3  0  0  0  0  0  0
  -17.5960  -30.6730   24.1430 C   0  0  0  0  0  3  0  0  0  0  0  0
  -16.4940  -29.9040   23.7320 C   0  0  0  0  0  3  0  0  0  0  0  0
  -16.7000  -28.6410   23.1500 C   0  0  0  0  0  3  0  0  0  0  0  0
  -25.8970  -32.5270   23.8680 C   0  0  0  0  0  3  0  0  0  0  0  0
  -26.4070  -31.7600   25.1510 C   0  0  1  0  0  0  0  0  0  0  0  0
  -25.3100  -31.5360   26.2180 C   0  0  0  0  0  1  0  0  0  0  0  0
  -26.9840  -30.3770   24.7740 C   0  0  0  0  0  1  0  0  0  0  0  0
  -27.5610  -32.5520   25.8110 C   0  0  0  0  0  1  0  0  0  0  0  0
  -25.5870  -33.9280   24.2020 N   0  0  0  0  0  0  0  0  0  0  0  0
  -25.9080  -34.9850   23.4450 C   0  0  0  0  0  0  0  0  0  0  0  0
  -26.5600  -34.8850   22.4030 O   0  0  0  0  0  0  0  0  0  0  0  0
  -25.0030  -34.0790   25.0110 H   0  0  0  0  0  0  0  0  0  0  0  0
  -24.1700  -36.7820   23.1420 C   0  0  0  0  0  1  0  0  0  0  0  0
  -25.4320  -36.3740   23.9170 C   0  0  0  0  0  3  0  0  0  0  0  0
  -27.5860  -37.2660   24.6920 C   0  0  0  0  0  1  0  0  0  0  0  0
  -26.4600  -37.4300   23.7770 N   0  0  0  0  0  0  0  0  0  0  0  0
  -26.0570  -38.3490   23.9310 H   0  0  0  0  0  0  0  0  0  0  0  0
  -28.7020  -19.6610   20.4450 C   0  0  0  0  0  3  0  0  0  0  0  0
  -29.8110  -18.3180   20.2630 C   0  0  0  0  0  3  0  0  0  0  0  0
  -29.4670  -16.6060   20.4790 C   0  0  0  0  0  2  0  0  0  0  0  0
  -30.3570  -15.1600   20.2060 C   0  0  0  0  0  0  0  0  0  0  0  0
  -30.3150  -12.7620   19.2690 C   0  0  0  0  0  2  0  0  0  0  0  0
  -29.3500  -12.6730   18.0580 C   0  0  0  0  0  2  0  0  0  0  0  0
  -27.9040  -12.4210   18.5250 C   0  0  0  0  0  2  0  0  0  0  0  0
  -27.5070  -13.3360   19.7110 C   0  0  0  0  0  3  0  0  0  0  0  0
  -28.5900  -13.3810   20.8070 C   0  0  0  0  0  2  0  0  0  0  0  0
  -29.8320  -13.8510   20.1800 N   0  0  0  0  0  0  0  0  0  0  0  0
  -31.5510  -15.2270   19.8820 O   0  0  0  0  0  0  0  0  0  0  0  0
  -25.1550  -13.8890   20.5410 C   0  0  0  0  0  0  0  0  0  0  0  0
  -24.1040  -13.1050   20.9290 C   0  0  0  0  0  0  0  0  0  0  0  0
  -24.5700  -11.7560   20.8610 C   0  0  0  0  0  0  0  0  0  0  0  0
  -26.1900  -13.0180   20.2490 N   0  0  0  0  0  0  0  0  0  0  0  0
  -25.8520  -11.7280   20.5090 N   0  0  0  0  0  0  0  0  0  0  0  0
  -23.8500  -10.4900   21.0520 C   0  0  0  0  0  0  0  0  0  0  0  0
  -24.3030   -9.5110   21.9640 C   0  0  0  0  0  3  0  0  0  0  0  0
  -23.5820   -8.3110   22.1440 C   0  0  0  0  0  3  0  0  0  0  0  0
  -22.3920   -8.0820   21.4130 C   0  0  0  0  0  0  0  0  0  0  0  0
  -21.9580   -9.0500   20.4890 C   0  0  0  0  0  3  0  0  0  0  0  0
  -22.6800  -10.2420   20.3080 C   0  0  0  0  0  3  0  0  0  0  0  0
  -21.6400   -6.9360   21.5020 O   0  0  0  0  0  0  0  0  0  0  0  0
  -21.6070   -6.1840   22.6500 C   0  0  0  0  0  0  0  0  0  0  0  0
  -21.1850   -6.7260   23.8840 C   0  0  0  0  0  3  0  0  0  0  0  0
  -21.1000   -5.9010   25.0220 C   0  0  0  0  0  3  0  0  0  0  0  0
  -21.4260   -4.5340   24.9300 C   0  0  0  0  0  0  0  0  0  0  0  0
  -21.8410   -3.9920   23.7000 C   0  0  0  0  0  3  0  0  0  0  0  0
  -21.9280   -4.8150   22.5630 C   0  0  0  0  0  0  0  0  0  0  0  0
  -22.3070   -4.2830   21.3760 F   0  0  0  0  0  0  0  0  0  0  0  0
  -21.3380   -3.7400   26.0210 F   0  0  0  0  0  0  0  0  0  0  0  0
  -22.7150  -13.5760   21.2470 C   0  0  0  0  0  0  0  0  0  0  0  0
  -22.0150  -12.8680   22.1260 N   0  0  0  0  0  0  0  0  0  0  0  0
  -22.2610  -14.6070   20.7530 O   0  0  0  0  0  0  0  0  0  0  0  0
  -22.3960  -12.0350   22.5480 H   0  0  0  0  0  0  0  0  0  0  0  0
  -21.0830  -13.1630   22.3810 H   0  0  0  0  0  0  0  0  0  0  0  0
  -25.3130  -15.2630   20.3860 N   0  0  0  0  0  0  0  0  0  0  0  0
  -24.5530  -15.9160   20.5410 H   0  0  0  0  0  0  0  0  0  0  0  0
  -26.1570  -15.7110   20.0510 H   0  0  0  0  0  0  0  0  0  0  0  0
  1  4  1  0
  2  1  2  0
  2  5  1  0
  4 50  1  0
  4  3  2  0
  5  6  2  0
  6  3  1  0
  6  7  1  0
  7  8  1  0
  9  5  1  0
 10 21  2  0
 11  9  1  0
 11 16  1  0
 12 20  1  0
 12 22  1  0
 13 19  1  0
 13 15  1  0
 14 20  1  0
 15 16  2  0
 15 14  1  0
 17 11  2  0
 18 17  1  0
 18 13  2  0
 19 12  1  0
 20 10  1  0
 22 24  2  0
 23 22  1  0
 25 23  1  0
 26 35  2  0
 26 31  1  0
 27 23  1  0
 27 31  1  0
 28 27  1  0
 29 30  1  0
 29 28  1  0
 30 26  1  0
 31 32  2  0
 32 33  1  0
 34 33  2  0
 35 34  1  0
 36 10  1  0
 36 41  1  0
 36 37  1  0
 37 40  1  1
 37 38  1  0
 39 37  1  0
 41 44  1  0
 42 46  1  0
 42 41  1  0
 43 42  2  0
 46 45  1  0
 48 46  1  0
 48 49  1  0
 48 47  1  0
 51 50  2  0
 51 52  1  0
 53 52  1  0
 54 59  1  0
 55 56  1  0
 55 54  1  0
 57 56  1  0
 57 64  1  0
 57 58  1  0
 59 53  1  0
 59 58  1  0
 60 53  2  0
 61 62  2  0
 62 81  1  0
 63 62  1  0
 63 66  1  0
 64 65  1  0
 64 61  1  0
 65 63  2  0
 66 67  1  0
 67 68  2  0
 69 72  1  0
 69 68  1  0
 70 69  2  0
 71 70  1  0
 71 66  2  0
 72 73  1  0
 73 74  1  0
 74 75  2  0
 76 75  1  0
 76 80  1  0
 77 76  2  0
 78 73  2  0
 78 77  1  0
 79 78  1  0
 81 82  1  0
 82 85  1  0
 82 84  1  0
 83 81  2  0
 86 87  1  0
 86 61  1  0
 88 86  1  0
M  ISO  4   5 101   9 101  52 100  53 100
M  END
>  <TORSDO>  (56) 
F 20

>  <SCORE>  (56) 
-15.835

>  <name>  (56) 
55

>  <ligand_id>  (56) 
55

>  <original_smiles>  (56) 
[H]Oc1c([H])c(C([H])([H])C([H])([H])C([H])([H])C(=O)N2C([H])([H])C([H])([H])C([H])([H])C([H])(n3nc(-c4c([H])c([H])c(Oc5c([H])c([H])c(F)c([H])c5F)c([H])c4[H])c(C(=O)N([H])[H])c3N([H])[H])C2([H])[H])c([H])c([H])c1Oc1c([H])c([H])c2c(c1[H])C([H])([H])N(C(=O)C([H])(N([H])C(=O)C([H])(N([H])C([H])([H])[H])C([H])([H])[H])C(C([H])([H])[H])(C([H])([H])[H])C([H])([H])[H])C([H])(C(=O)N([H])C1([H])c3c([H])c([H])c([H])c([H])c3C([H])([H])C([H])([H])C1([H])[H])C2([H])[H]

>  <smiles>  (56) 
[H]Oc1c([H])c(C([H])([H])C([H])([H])C([H])([H])C(=O)N2C([H])([H])C([H])([H])C([H])([H])C([H])(n3nc(-c4c([H])c([H])c(Oc5c([H])c([H])c(F)c([H])c5F)c([H])c4[H])c(C(=O)N([H])[H])c3N([H])[H])C2([H])[H])c([H])c([H])c1Oc1c([H])c([H])c2c(c1[H])C([H])([H])N(C(=O)C([H])(N([H])C(=O)C([H])(N([H])C([H])([H])[H])C([H])([H])[H])C(C([H])([H])[H])(C([H])([H])[H])C([H])([H])[H])C([H])(C(=O)N([H])C1([H])c3c([H])c([H])c([H])c([H])c3C([H])([H])C([H])([H])C1([H])[H])C2([H])[H]

$$$$
56:0:0
     RDKit          3D

 88 97  0  0  1  0  0  0  0  0999 V2000
  -30.5400  -15.0870   20.3650 C   0  0  0  0  0  0  0  0  0  0  0  0
  -30.3850  -12.7310   19.4160 C   0  0  0  0  0  2  0  0  0  0  0  0
  -29.4600  -12.6540   18.1820 C   0  0  0  0  0  2  0  0  0  0  0  0
  -27.9950  -12.4330   18.6100 C   0  0  0  0  0  2  0  0  0  0  0  0
  -27.5700  -13.3470   19.7900 C   0  0  0  0  0  3  0  0  0  0  0  0
  -28.6330  -13.4190   20.9060 C   0  0  0  0  0  2  0  0  0  0  0  0
  -29.8890  -13.8500   20.2720 N   0  0  0  0  0  0  0  0  0  0  0  0
  -31.7700  -15.0530   20.2480 O   0  0  0  0  0  0  0  0  0  0  0  0
  -28.7360  -20.7980   19.2920 C   0  0  0  0  0  3  0  0  0  0  0  0
  -29.0850  -19.3710   19.5380 C   0  0  0  0  0  0  0  0  0  0  0  0
  -29.7670  -19.1300   20.6890 C   0  0  0  0  0  0  0  0  0  0  0  0
  -29.1400  -21.7680   20.2300 C   0  0  0  0  0  3  0  0  0  0  0  0
  -28.8740  -18.1320   18.6780 C   0  0  0  0  0  3  0  0  0  0  0  0
  -30.3160  -17.6770   21.1200 C   0  0  0  0  0  3  0  0  0  0  0  0
  -28.7830  -16.7340   19.4330 C   0  0  0  0  0  3  0  0  0  0  0  0
  -29.8560  -16.3640   20.4090 N   0  0  0  0  0  0  0  0  0  0  0  0
  -29.9580  -20.7520   21.4970 S   0  0  0  0  0  0  0  0  0  0  0  0
  -25.1910  -13.9080   20.5400 C   0  0  0  0  0  0  0  0  0  0  0  0
  -24.1280  -13.1270   20.9010 C   0  0  0  0  0  0  0  0  0  0  0  0
  -24.6030  -11.7810   20.8720 C   0  0  0  0  0  0  0  0  0  0  0  0
  -26.2400  -13.0380   20.2970 N   0  0  0  0  0  0  0  0  0  0  0  0
  -25.8950  -11.7510   20.5630 N   0  0  0  0  0  0  0  0  0  0  0  0
  -23.8830  -10.5150   21.0530 C   0  0  0  0  0  0  0  0  0  0  0  0
  -24.3120   -9.5470   21.9850 C   0  0  0  0  0  3  0  0  0  0  0  0
  -23.5870   -8.3480   22.1580 C   0  0  0  0  0  3  0  0  0  0  0  0
  -22.4200   -8.1060   21.3940 C   0  0  0  0  0  0  0  0  0  0  0  0
  -22.0100   -9.0640   20.4500 C   0  0  0  0  0  3  0  0  0  0  0  0
  -22.7370  -10.2550   20.2760 C   0  0  0  0  0  3  0  0  0  0  0  0
  -21.6650   -6.9610   21.4780 O   0  0  0  0  0  0  0  0  0  0  0  0
  -21.6040   -6.2220   22.6310 C   0  0  0  0  0  0  0  0  0  0  0  0
  -21.1560   -6.7760   23.8500 C   0  0  0  0  0  3  0  0  0  0  0  0
  -21.0430   -5.9610   24.9940 C   0  0  0  0  0  3  0  0  0  0  0  0
  -21.3670   -4.5930   24.9220 C   0  0  0  0  0  0  0  0  0  0  0  0
  -21.8080   -4.0380   23.7080 C   0  0  0  0  0  3  0  0  0  0  0  0
  -21.9260   -4.8500   22.5660 C   0  0  0  0  0  0  0  0  0  0  0  0
  -22.3290   -4.3050   21.3950 F   0  0  0  0  0  0  0  0  0  0  0  0
  -21.2520   -3.8100   26.0200 F   0  0  0  0  0  0  0  0  0  0  0  0
  -22.7270  -13.5970   21.1590 C   0  0  0  0  0  0  0  0  0  0  0  0
  -21.9950  -12.9040   22.0250 N   0  0  0  0  0  0  0  0  0  0  0  0
  -22.2890  -14.6150   20.6260 O   0  0  0  0  0  0  0  0  0  0  0  0
  -22.3680  -12.0890   22.4910 H   0  0  0  0  0  0  0  0  0  0  0  0
  -21.0460  -13.1880   22.2220 H   0  0  0  0  0  0  0  0  0  0  0  0
  -25.3400  -15.2810   20.3740 N   0  0  0  0  0  0  0  0  0  0  0  0
  -24.5650  -15.9210   20.5140 H   0  0  0  0  0  0  0  0  0  0  0  0
  -26.1870  -15.7490   20.0860 H   0  0  0  0  0  0  0  0  0  0  0  0
  -29.2020  -23.4290   20.1090 C   0  0  0  0  0  3  0  0  0  0  0  0
  -28.0890  -24.6540   20.4780 C   0  0  0  0  0  3  0  0  0  0  0  0
  -28.3040  -26.2080   20.3330 O   0  0  0  0  0  0  0  0  0  0  0  0
  -24.6300  -31.9370   23.2770 C   0  0  0  0  0  0  0  0  0  0  0  0
  -27.2270  -27.1790   20.3010 C   0  0  0  0  0  0  0  0  0  0  0  0
  -23.4380  -30.5260   21.6450 C   0  0  0  0  0  3  0  0  0  0  0  0
  -24.8910  -28.9280   20.2500 C   0  0  0  0  0  0  0  0  0  0  0  0
  -25.9940  -30.7860   21.4860 C   0  0  0  0  0  2  0  0  0  0  0  0
  -26.0710  -29.3840   20.8520 C   0  0  0  0  0  0  0  0  0  0  0  0
  -27.2390  -28.5270   20.8520 C   0  0  0  0  0  3  0  0  0  0  0  0
  -26.0150  -26.8280   19.6650 C   0  0  0  0  0  3  0  0  0  0  0  0
  -24.8770  -27.6650   19.6430 C   0  0  0  0  0  3  0  0  0  0  0  0
  -23.6630  -29.8280   20.2780 C   0  0  0  0  0  2  0  0  0  0  0  0
  -24.7070  -31.1070   22.1910 N   0  0  0  0  0  0  0  0  0  0  0  0
  -23.5410  -32.2270   23.7940 O   0  0  0  0  0  0  0  0  0  0  0  0
  -22.7530  -29.5310   22.6140 C   0  0  0  0  0  0  0  0  0  0  0  0
  -21.4250  -29.3570   22.4800 N   0  0  0  0  0  0  0  0  0  0  0  0
  -23.4200  -28.9190   23.4530 O   0  0  0  0  0  0  0  0  0  0  0  0
  -20.9470  -29.9080   21.7790 H   0  0  0  0  0  0  0  0  0  0  0  0
  -18.0430  -28.1560   22.9610 C   0  0  0  0  0  0  0  0  0  0  0  0
  -20.5980  -28.4280   23.2560 C   0  0  0  0  0  3  0  0  0  0  0  0
  -20.7080  -26.9880   22.7000 C   0  0  0  0  0  2  0  0  0  0  0  0
  -19.6210  -26.6510   21.6770 C   0  0  0  0  0  2  0  0  0  0  0  0
  -18.2320  -26.7990   22.3040 C   0  0  0  0  0  2  0  0  0  0  0  0
  -19.1540  -28.9290   23.3940 C   0  0  0  0  0  0  0  0  0  0  0  0
  -18.9230  -30.1960   23.9680 C   0  0  0  0  0  3  0  0  0  0  0  0
  -17.6150  -30.6900   24.1230 C   0  0  0  0  0  3  0  0  0  0  0  0
  -16.5170  -29.9150   23.7070 C   0  0  0  0  0  3  0  0  0  0  0  0
  -16.7330  -28.6510   23.1300 C   0  0  0  0  0  3  0  0  0  0  0  0
  -25.9010  -32.5810   23.9070 C   0  0  0  0  0  3  0  0  0  0  0  0
  -25.5890  -33.9850   24.2200 N   0  0  0  0  0  0  0  0  0  0  0  0
  -25.9150  -35.0340   23.4560 C   0  0  0  0  0  0  0  0  0  0  0  0
  -26.5840  -34.9220   22.4230 O   0  0  0  0  0  0  0  0  0  0  0  0
  -24.9950  -34.1430   25.0210 H   0  0  0  0  0  0  0  0  0  0  0  0
  -24.1800  -36.8260   23.1070 C   0  0  0  0  0  1  0  0  0  0  0  0
  -25.4280  -36.4260   23.9080 C   0  0  0  0  0  3  0  0  0  0  0  0
  -27.5680  -37.3280   24.7110 C   0  0  0  0  0  1  0  0  0  0  0  0
  -26.4580  -37.4820   23.7760 N   0  0  0  0  0  0  0  0  0  0  0  0
  -26.0500  -38.4010   23.9200 H   0  0  0  0  0  0  0  0  0  0  0  0
  -26.3990  -31.8310   25.2030 C   0  0  1  0  0  0  0  0  0  0  0  0
  -25.2920  -31.6150   26.2620 C   0  0  0  0  0  1  0  0  0  0  0  0
  -26.9830  -30.4460   24.8420 C   0  0  0  0  0  1  0  0  0  0  0  0
  -27.5400  -32.6350   25.8680 C   0  0  0  0  0  1  0  0  0  0  0  0
  1 16  1  0
  2  7  1  0
  3  4  1  0
  3  2  1  0
  5  4  1  0
  5 21  1  0
  5  6  1  0
  7  1  1  0
  7  6  1  0
  8  1  2  0
  9 10  2  0
  9 12  1  0
 10 11  1  0
 11 14  2  0
 11 17  1  0
 12 46  1  0
 12 17  1  0
 13 15  2  0
 13 10  1  0
 15 16  1  0
 16 14  1  0
 18 19  2  0
 19 38  1  0
 20 19  1  0
 20 23  1  0
 21 18  1  0
 21 22  1  0
 22 20  2  0
 23 24  1  0
 24 25  2  0
 26 29  1  0
 26 25  1  0
 27 26  2  0
 28 27  1  0
 28 23  2  0
 29 30  1  0
 30 31  1  0
 31 32  2  0
 33 32  1  0
 33 37  1  0
 34 33  2  0
 35 30  2  0
 35 34  1  0
 36 35  1  0
 38 39  1  0
 39 42  1  0
 39 41  1  0
 40 38  2  0
 43 44  1  0
 43 18  1  0
 45 43  1  0
 46 47  2  0
 48 47  1  0
 49 60  2  0
 50 48  1  0
 50 55  1  0
 51 59  1  0
 51 61  1  0
 52 58  1  0
 52 54  1  0
 53 59  1  0
 54 55  2  0
 54 53  1  0
 56 50  2  0
 57 56  1  0
 57 52  2  0
 58 51  1  0
 59 49  1  0
 61 63  2  0
 62 61  1  0
 64 62  1  0
 65 74  2  0
 65 70  1  0
 66 62  1  0
 66 70  1  0
 67 66  1  0
 68 69  1  0
 68 67  1  0
 69 65  1  0
 70 71  2  0
 71 72  1  0
 73 72  2  0
 74 73  1  0
 75 49  1  0
 75 76  1  0
 75 85  1  0
 76 79  1  0
 77 81  1  0
 77 76  1  0
 78 77  2  0
 81 80  1  0
 83 81  1  0
 83 84  1  0
 83 82  1  0
 85 88  1  1
 85 86  1  0
 87 85  1  0
M  ISO  4   1 100  16 100  47 101  48 101
M  END
>  <TORSDO>  (57) 
F 17

>  <SCORE>  (57) 
-16.088

>  <name>  (57) 
56

>  <ligand_id>  (57) 
56

>  <original_smiles>  (57) 
[H]c1c([H])c([H])c2c(c1[H])C([H])([H])C([H])([H])C([H])([H])C2([H])N([H])C(=O)C1([H])N(C(=O)C([H])(N([H])C(=O)C([H])(N([H])C([H])([H])[H])C([H])([H])[H])C(C([H])([H])[H])(C([H])([H])[H])C([H])([H])[H])C([H])([H])c2c([H])c(OC([H])([H])C([H])([H])c3sc4c(c3[H])C([H])([H])C([H])([H])N(C(=O)N3C([H])([H])C([H])([H])C([H])([H])C([H])(n5nc(-c6c([H])c([H])c(Oc7c([H])c([H])c(F)c([H])c7F)c([H])c6[H])c(C(=O)N([H])[H])c5N([H])[H])C3([H])[H])C4([H])[H])c([H])c([H])c2C1([H])[H]

>  <smiles>  (57) 
[H]c1c([H])c([H])c2c(c1[H])C([H])([H])C([H])([H])C([H])([H])C2([H])N([H])C(=O)C1([H])N(C(=O)C([H])(N([H])C(=O)C([H])(N([H])C([H])([H])[H])C([H])([H])[H])C(C([H])([H])[H])(C([H])([H])[H])C([H])([H])[H])C([H])([H])c2c([H])c(OC([H])([H])C([H])([H])c3sc4c(c3[H])C([H])([H])C([H])([H])N(C(=O)N3C([H])([H])C([H])([H])C([H])([H])C([H])(n5nc(-c6c([H])c([H])c(Oc7c([H])c([H])c(F)c([H])c7F)c([H])c6[H])c(C(=O)N([H])[H])c5N([H])[H])C3([H])[H])C4([H])[H])c([H])c([H])c2C1([H])[H]

$$$$
57:0:0
     RDKit          3D

 89 97  0  0  1  0  0  0  0  0999 V2000
  -28.7400  -21.7060   18.6760 C   0  0  0  0  0  3  0  0  0  0  0  0
  -28.2600  -24.1770   18.6540 C   0  0  0  0  0  3  0  0  0  0  0  0
  -28.5960  -22.9680   20.7220 C   0  0  0  0  0  3  0  0  0  0  0  0
  -28.4950  -22.9320   18.0000 C   0  0  0  0  0  0  0  0  0  0  0  0
  -28.8280  -21.5640   20.0800 C   0  0  0  0  0  0  0  0  0  0  0  0
  -28.2860  -24.3490   20.0580 C   0  0  0  0  0  0  0  0  0  0  0  0
  -28.5370  -22.8900   16.4810 C   0  0  0  0  0  1  0  0  0  0  0  0
  -28.2000  -25.8240   20.5300 O   0  0  0  0  0  0  0  0  0  0  0  0
  -24.5920  -31.8730   23.2910 C   0  0  0  0  0  0  0  0  0  0  0  0
  -27.1960  -26.9340   20.3670 C   0  0  0  0  0  0  0  0  0  0  0  0
  -23.4280  -30.4650   21.6400 C   0  0  0  0  0  3  0  0  0  0  0  0
  -24.8990  -28.8420   20.2510 C   0  0  0  0  0  0  0  0  0  0  0  0
  -25.9970  -30.6560   21.5500 C   0  0  0  0  0  2  0  0  0  0  0  0
  -26.0730  -29.2410   20.9020 C   0  0  0  0  0  0  0  0  0  0  0  0
  -27.2070  -28.3070   20.9360 C   0  0  0  0  0  3  0  0  0  0  0  0
  -25.9920  -26.6920   19.6620 C   0  0  0  0  0  3  0  0  0  0  0  0
  -24.8850  -27.5890   19.6140 C   0  0  0  0  0  3  0  0  0  0  0  0
  -23.6800  -29.7690   20.2720 C   0  0  0  0  0  2  0  0  0  0  0  0
  -24.6930  -31.0300   22.2130 N   0  0  0  0  0  0  0  0  0  0  0  0
  -23.4920  -32.1700   23.7870 O   0  0  0  0  0  0  0  0  0  0  0  0
  -22.7140  -29.4800   22.6020 C   0  0  0  0  0  0  0  0  0  0  0  0
  -21.3880  -29.3030   22.4460 N   0  0  0  0  0  0  0  0  0  0  0  0
  -23.3590  -28.8720   23.4580 O   0  0  0  0  0  0  0  0  0  0  0  0
  -20.9150  -29.8420   21.7330 H   0  0  0  0  0  0  0  0  0  0  0  0
  -18.0030  -28.0830   22.8970 C   0  0  0  0  0  0  0  0  0  0  0  0
  -20.5550  -28.3720   23.2150 C   0  0  0  0  0  3  0  0  0  0  0  0
  -20.6790  -26.9320   22.6620 C   0  0  0  0  0  2  0  0  0  0  0  0
  -19.6050  -26.5890   21.6270 C   0  0  0  0  0  2  0  0  0  0  0  0
  -18.2060  -26.7300   22.2370 C   0  0  0  0  0  2  0  0  0  0  0  0
  -19.1040  -28.8600   23.3430 C   0  0  0  0  0  0  0  0  0  0  0  0
  -18.8620  -30.1250   23.9200 C   0  0  0  0  0  3  0  0  0  0  0  0
  -17.5490  -30.6140   24.0540 C   0  0  0  0  0  3  0  0  0  0  0  0
  -16.4620  -29.8330   23.6250 C   0  0  0  0  0  3  0  0  0  0  0  0
  -16.6880  -28.5690   23.0530 C   0  0  0  0  0  3  0  0  0  0  0  0
  -25.8510  -32.5210   23.9430 C   0  0  0  0  0  3  0  0  0  0  0  0
  -25.5370  -33.9290   24.2410 N   0  0  0  0  0  0  0  0  0  0  0  0
  -25.8840  -34.9740   23.4770 C   0  0  0  0  0  0  0  0  0  0  0  0
  -26.5680  -34.8520   22.4570 O   0  0  0  0  0  0  0  0  0  0  0  0
  -24.9390  -34.1010   25.0360 H   0  0  0  0  0  0  0  0  0  0  0  0
  -24.1730  -36.7760   23.0730 C   0  0  0  0  0  1  0  0  0  0  0  0
  -25.3970  -36.3720   23.9110 C   0  0  0  0  0  3  0  0  0  0  0  0
  -27.5170  -37.2620   24.7720 C   0  0  0  0  0  1  0  0  0  0  0  0
  -26.4370  -37.4180   23.8020 N   0  0  0  0  0  0  0  0  0  0  0  0
  -26.0320  -38.3420   23.9250 H   0  0  0  0  0  0  0  0  0  0  0  0
  -26.3120  -31.7890   25.2630 C   0  0  1  0  0  0  0  0  0  0  0  0
  -25.1770  -31.5890   26.2950 C   0  0  0  0  0  1  0  0  0  0  0  0
  -26.9030  -30.3960   24.9480 C   0  0  0  0  0  1  0  0  0  0  0  0
  -27.4430  -32.5990   25.9450 C   0  0  0  0  0  1  0  0  0  0  0  0
  -29.0970  -19.8900   20.6270 C   0  0  0  0  0  2  0  0  0  0  0  0
  -30.5750  -18.4120   18.8070 C   0  0  0  0  0  1  0  0  0  0  0  0
  -29.9960  -18.3200   20.2350 C   0  0  0  0  0  0  0  0  0  0  0  0
  -30.4480  -15.3760   20.3040 C   0  0  0  0  0  0  0  0  0  0  0  0
  -30.4110  -12.9580   19.3490 C   0  0  0  0  0  2  0  0  0  0  0  0
  -29.4780  -12.7740   18.1250 C   0  0  0  0  0  2  0  0  0  0  0  0
  -28.0270  -12.4960   18.5580 C   0  0  0  0  0  2  0  0  0  0  0  0
  -27.5990  -13.3930   19.7430 C   0  0  0  0  0  3  0  0  0  0  0  0
  -28.6640  -13.5200   20.8570 C   0  0  0  0  0  2  0  0  0  0  0  0
  -29.8740  -14.0710   20.2220 N   0  0  0  0  0  0  0  0  0  0  0  0
  -31.6620  -15.3610   20.0460 O   0  0  0  0  0  0  0  0  0  0  0  0
  -29.7080  -16.6700   20.4620 N   0  0  0  0  0  4  0  0  0  0  0  0
  -28.7350  -16.4930   20.6630 H   0  0  0  0  0  0  0  0  0  0  0  0
  -25.2440  -13.9170   20.5530 C   0  0  0  0  0  0  0  0  0  0  0  0
  -24.1920  -13.1280   20.9220 C   0  0  0  0  0  0  0  0  0  0  0  0
  -24.6610  -11.7820   20.8510 C   0  0  0  0  0  0  0  0  0  0  0  0
  -26.2840  -13.0510   20.2660 N   0  0  0  0  0  0  0  0  0  0  0  0
  -25.9470  -11.7570   20.5130 N   0  0  0  0  0  0  0  0  0  0  0  0
  -23.9370  -10.5130   21.0260 C   0  0  0  0  0  0  0  0  0  0  0  0
  -24.3650   -9.5390   21.9530 C   0  0  0  0  0  3  0  0  0  0  0  0
  -23.6460   -8.3380   22.1160 C   0  0  0  0  0  3  0  0  0  0  0  0
  -22.4800   -8.1010   21.3530 C   0  0  0  0  0  0  0  0  0  0  0  0
  -22.0700   -9.0610   20.4110 C   0  0  0  0  0  3  0  0  0  0  0  0
  -22.7910  -10.2550   20.2470 C   0  0  0  0  0  3  0  0  0  0  0  0
  -21.7290   -6.9540   21.4250 O   0  0  0  0  0  0  0  0  0  0  0  0
  -21.6460   -6.2210   22.5800 C   0  0  0  0  0  0  0  0  0  0  0  0
  -21.1340   -6.7700   23.7760 C   0  0  0  0  0  3  0  0  0  0  0  0
  -21.0040   -5.9590   24.9230 C   0  0  0  0  0  3  0  0  0  0  0  0
  -21.3730   -4.6020   24.8720 C   0  0  0  0  0  0  0  0  0  0  0  0
  -21.8740   -4.0520   23.6790 C   0  0  0  0  0  3  0  0  0  0  0  0
  -22.0080   -4.8600   22.5360 C   0  0  0  0  0  0  0  0  0  0  0  0
  -22.4730   -4.3200   21.3840 F   0  0  0  0  0  0  0  0  0  0  0  0
  -21.2400   -3.8220   25.9690 F   0  0  0  0  0  0  0  0  0  0  0  0
  -22.7980  -13.5970   21.2250 C   0  0  0  0  0  0  0  0  0  0  0  0
  -22.0810  -12.8780   22.0810 N   0  0  0  0  0  0  0  0  0  0  0  0
  -22.3530  -14.6360   20.7380 O   0  0  0  0  0  0  0  0  0  0  0  0
  -22.4550  -12.0410   22.5010 H   0  0  0  0  0  0  0  0  0  0  0  0
  -21.1460  -13.1740   22.3250 H   0  0  0  0  0  0  0  0  0  0  0  0
  -25.3990  -15.2940   20.4090 N   0  0  0  0  0  0  0  0  0  0  0  0
  -24.6210  -15.9360   20.5130 H   0  0  0  0  0  0  0  0  0  0  0  0
  -26.2390  -15.7410   20.0660 H   0  0  0  0  0  0  0  0  0  0  0  0
  1  5  1  0
  2  6  2  0
  4  2  1  0
  4  1  2  0
  5 49  1  0
  5  3  2  0
  6  8  1  0
  6  3  1  0
  7  4  1  0
  9 20  2  0
 10  8  1  0
 10 15  1  0
 11 19  1  0
 11 21  1  0
 12 18  1  0
 12 14  1  0
 13 19  1  0
 14 15  2  0
 14 13  1  0
 16 10  2  0
 17 16  1  0
 17 12  2  0
 18 11  1  0
 19  9  1  0
 21 23  2  0
 22 21  1  0
 24 22  1  0
 25 34  2  0
 25 30  1  0
 26 22  1  0
 26 30  1  0
 27 26  1  0
 28 29  1  0
 28 27  1  0
 29 25  1  0
 30 31  2  0
 31 32  1  0
 33 32  2  0
 34 33  1  0
 35  9  1  0
 35 36  1  0
 35 45  1  0
 36 39  1  0
 37 41  1  0
 37 36  1  0
 38 37  2  0
 41 40  1  0
 43 41  1  0
 43 44  1  0
 43 42  1  0
 45 48  1  1
 45 46  1  0
 47 45  1  0
 50 51  1  0
 51 60  2  0
 51 49  1  0
 52 60  1  0
 53 58  1  0
 54 55  1  0
 54 53  1  0
 56 55  1  0
 56 65  1  0
 56 57  1  0
 58 52  1  0
 58 57  1  0
 59 52  2  0
 60 61  1  0
 62 63  2  0
 63 82  1  0
 64 63  1  0
 64 67  1  0
 65 66  1  0
 65 62  1  0
 66 64  2  0
 67 68  1  0
 68 69  2  0
 70 73  1  0
 70 69  1  0
 71 70  2  0
 72 71  1  0
 72 67  2  0
 73 74  1  0
 74 75  1  0
 75 76  2  0
 77 76  1  0
 77 81  1  0
 78 77  2  0
 79 74  2  0
 79 78  1  0
 80 79  1  0
 82 83  1  0
 83 86  1  0
 83 85  1  0
 84 82  2  0
 87 88  1  0
 87 62  1  0
 89 87  1  0
M  ISO  4   6 101   8 101  52 100  60 100
M  END
>  <TORSDO>  (58) 
F 18

>  <SCORE>  (58) 
-15.274

>  <name>  (58) 
57

>  <ligand_id>  (58) 
57

>  <original_smiles>  (58) 
[H]c1c([H])c([H])c2c(c1[H])C([H])([H])C([H])([H])C([H])([H])C2([H])N([H])C(=O)C1([H])N(C(=O)C([H])(N([H])C(=O)C([H])(N([H])C([H])([H])[H])C([H])([H])[H])C(C([H])([H])[H])(C([H])([H])[H])C([H])([H])[H])C([H])([H])c2c([H])c(Oc3c([H])c(C([H])([H])[H])c([H])c(C([H])([H])C([H])(N([H])C(=O)N4C([H])([H])C([H])([H])C([H])([H])C([H])(n5nc(-c6c([H])c([H])c(Oc7c([H])c([H])c(F)c([H])c7F)c([H])c6[H])c(C(=O)N([H])[H])c5N([H])[H])C4([H])[H])C([H])([H])[H])c3[H])c([H])c([H])c2C1([H])[H]

>  <smiles>  (58) 
[H]c1c([H])c([H])c2c(c1[H])C([H])([H])C([H])([H])C([H])([H])C2([H])N([H])C(=O)C1([H])N(C(=O)C([H])(N([H])C(=O)C([H])(N([H])C([H])([H])[H])C([H])([H])[H])C(C([H])([H])[H])(C([H])([H])[H])C([H])([H])[H])C([H])([H])c2c([H])c(Oc3c([H])c(C([H])([H])[H])c([H])c(C([H])([H])C([H])(N([H])C(=O)N4C([H])([H])C([H])([H])C([H])([H])C([H])(n5nc(-c6c([H])c([H])c(Oc7c([H])c([H])c(F)c([H])c7F)c([H])c6[H])c(C(=O)N([H])[H])c5N([H])[H])C4([H])[H])C([H])([H])[H])c3[H])c([H])c([H])c2C1([H])[H]

$$$$
58:0:0
     RDKit          3D

 87 95  0  0  1  0  0  0  0  0999 V2000
  -31.2230  -21.1080   19.4140 C   0  0  0  0  0  3  0  0  0  0  0  0
  -30.3430  -22.2290   19.6170 C   0  0  0  0  0  3  0  0  0  0  0  0
  -30.9330  -19.7180   19.6360 C   0  0  0  0  0  3  0  0  0  0  0  0
  -28.7850  -20.5400   20.3060 C   0  0  0  0  0  3  0  0  0  0  0  0
  -29.0150  -22.1290   20.1000 C   0  0  0  0  0  0  0  0  0  0  0  0
  -29.6940  -19.2180   20.1030 C   0  0  0  0  0  0  0  0  0  0  0  0
  -28.0530  -17.1440   20.0920 C   0  0  0  0  0  1  0  0  0  0  0  0
  -29.7000  -17.2840   21.9170 C   0  0  0  0  0  1  0  0  0  0  0  0
  -29.5320  -17.3630   20.3850 C   0  0  2  0  0  0  0  0  0  0  0  0
  -30.3090  -15.6870   19.9000 C   0  0  0  0  0  0  0  0  0  0  0  0
  -30.3180  -13.1720   18.9280 C   0  0  0  0  0  2  0  0  0  0  0  0
  -29.3160  -12.8540   17.7760 C   0  0  0  0  0  2  0  0  0  0  0  0
  -27.9360  -12.4720   18.3250 C   0  0  0  0  0  2  0  0  0  0  0  0
  -27.5320  -13.4100   19.4820 C   0  0  0  0  0  3  0  0  0  0  0  0
  -28.6570  -13.6390   20.5210 C   0  0  0  0  0  2  0  0  0  0  0  0
  -29.7980  -14.3040   19.8280 N   0  0  0  0  0  0  0  0  0  0  0  0
  -31.5010  -15.6280   19.5320 O   0  0  0  0  0  0  0  0  0  0  0  0
  -25.2270  -13.9110   20.4390 C   0  0  0  0  0  0  0  0  0  0  0  0
  -24.2000  -13.1160   20.8520 C   0  0  0  0  0  0  0  0  0  0  0  0
  -24.6650  -11.7720   20.7320 C   0  0  0  0  0  0  0  0  0  0  0  0
  -26.2560  -13.0540   20.0890 N   0  0  0  0  0  0  0  0  0  0  0  0
  -25.9340  -11.7540   20.3280 N   0  0  0  0  0  0  0  0  0  0  0  0
  -23.9490  -10.5030   20.9250 C   0  0  0  0  0  0  0  0  0  0  0  0
  -24.4020   -9.5330   21.8440 C   0  0  0  0  0  3  0  0  0  0  0  0
  -23.6750   -8.3370   22.0400 C   0  0  0  0  0  3  0  0  0  0  0  0
  -22.4860   -8.0990   21.3090 C   0  0  0  0  0  0  0  0  0  0  0  0
  -22.0540   -9.0580   20.3770 C   0  0  0  0  0  3  0  0  0  0  0  0
  -22.7790  -10.2450   20.1820 C   0  0  0  0  0  3  0  0  0  0  0  0
  -21.7330   -6.9530   21.4070 O   0  0  0  0  0  0  0  0  0  0  0  0
  -21.6560   -6.2420   22.5770 C   0  0  0  0  0  0  0  0  0  0  0  0
  -21.1820   -6.8250   23.7720 C   0  0  0  0  0  3  0  0  0  0  0  0
  -21.0570   -6.0430   24.9360 C   0  0  0  0  0  3  0  0  0  0  0  0
  -21.3890   -4.6760   24.9070 C   0  0  0  0  0  0  0  0  0  0  0  0
  -21.8560   -4.0890   23.7170 C   0  0  0  0  0  3  0  0  0  0  0  0
  -21.9900   -4.8710   22.5550 C   0  0  0  0  0  0  0  0  0  0  0  0
  -22.4240   -4.2980   21.4060 F   0  0  0  0  0  0  0  0  0  0  0  0
  -21.2550   -3.9230   26.0240 F   0  0  0  0  0  0  0  0  0  0  0  0
  -22.8280  -13.5800   21.2370 C   0  0  0  0  0  0  0  0  0  0  0  0
  -22.1740  -12.8630   22.1420 N   0  0  0  0  0  0  0  0  0  0  0  0
  -22.3560  -14.6180   20.7730 O   0  0  0  0  0  0  0  0  0  0  0  0
  -22.5820  -12.0330   22.5430 H   0  0  0  0  0  0  0  0  0  0  0  0
  -21.2530  -13.1460   22.4480 H   0  0  0  0  0  0  0  0  0  0  0  0
  -25.3540  -15.2890   20.3100 N   0  0  0  0  0  0  0  0  0  0  0  0
  -24.5900  -15.9260   20.5010 H   0  0  0  0  0  0  0  0  0  0  0  0
  -26.2240  -15.7680   20.1210 H   0  0  0  0  0  0  0  0  0  0  0  0
  -28.0230  -23.7190   20.2270 C   0  0  0  0  0  2  0  0  0  0  0  0
  -28.2420  -25.4750   20.2400 O   0  0  0  0  0  0  0  0  0  0  0  0
  -24.6400  -31.7660   23.1250 C   0  0  0  0  0  0  0  0  0  0  0  0
  -27.2510  -26.6820   20.2000 C   0  0  0  0  0  0  0  0  0  0  0  0
  -23.4770  -30.3470   21.4850 C   0  0  0  0  0  3  0  0  0  0  0  0
  -24.9560  -28.6970   20.1080 C   0  0  0  0  0  0  0  0  0  0  0  0
  -26.0550  -30.5150   21.3840 C   0  0  0  0  0  2  0  0  0  0  0  0
  -26.1470  -29.0730   20.7460 C   0  0  0  0  0  0  0  0  0  0  0  0
  -27.2790  -28.0940   20.7540 C   0  0  0  0  0  3  0  0  0  0  0  0
  -26.0190  -26.5160   19.5150 C   0  0  0  0  0  3  0  0  0  0  0  0
  -24.9350  -27.4450   19.4700 C   0  0  0  0  0  3  0  0  0  0  0  0
  -23.7390  -29.6360   20.1250 C   0  0  0  0  0  2  0  0  0  0  0  0
  -24.7480  -30.9080   22.0530 N   0  0  0  0  0  0  0  0  0  0  0  0
  -23.5400  -32.0670   23.6210 O   0  0  0  0  0  0  0  0  0  0  0  0
  -22.7530  -29.3750   22.4570 C   0  0  0  0  0  0  0  0  0  0  0  0
  -21.4250  -29.2030   22.3070 N   0  0  0  0  0  0  0  0  0  0  0  0
  -23.3980  -28.7710   23.3190 O   0  0  0  0  0  0  0  0  0  0  0  0
  -20.9550  -29.7400   21.5920 H   0  0  0  0  0  0  0  0  0  0  0  0
  -18.0530  -27.9330   22.7580 C   0  0  0  0  0  0  0  0  0  0  0  0
  -20.5970  -28.2650   23.0760 C   0  0  0  0  0  3  0  0  0  0  0  0
  -20.7430  -26.8220   22.5380 C   0  0  0  0  0  2  0  0  0  0  0  0
  -19.6750  -26.4560   21.4990 C   0  0  0  0  0  2  0  0  0  0  0  0
  -18.2770  -26.5790   22.1090 C   0  0  0  0  0  2  0  0  0  0  0  0
  -19.1430  -28.7310   23.2000 C   0  0  0  0  0  0  0  0  0  0  0  0
  -18.8770  -29.9930   23.7740 C   0  0  0  0  0  3  0  0  0  0  0  0
  -17.5560  -30.4610   23.9050 C   0  0  0  0  0  3  0  0  0  0  0  0
  -16.4800  -29.6630   23.4760 C   0  0  0  0  0  3  0  0  0  0  0  0
  -16.7300  -28.4000   22.9090 C   0  0  0  0  0  3  0  0  0  0  0  0
  -25.8910  -32.4280   23.7740 C   0  0  0  0  0  3  0  0  0  0  0  0
  -25.5500  -33.8220   24.1180 N   0  0  0  0  0  0  0  0  0  0  0  0
  -25.8720  -34.8970   23.3850 C   0  0  0  0  0  0  0  0  0  0  0  0
  -26.5430  -34.8180   22.3540 O   0  0  0  0  0  0  0  0  0  0  0  0
  -24.9430  -33.9530   24.9130 H   0  0  0  0  0  0  0  0  0  0  0  0
  -24.1220  -36.6840   23.0680 C   0  0  0  0  0  1  0  0  0  0  0  0
  -25.3690  -36.2730   23.8690 C   0  0  0  0  0  3  0  0  0  0  0  0
  -27.4920  -37.1780   24.7140 C   0  0  0  0  0  1  0  0  0  0  0  0
  -26.3880  -37.3410   23.7720 N   0  0  0  0  0  0  0  0  0  0  0  0
  -25.9700  -38.2540   23.9320 H   0  0  0  0  0  0  0  0  0  0  0  0
  -26.3910  -31.6620   25.0630 C   0  0  1  0  0  0  0  0  0  0  0  0
  -25.2810  -31.4270   26.1120 C   0  0  0  0  0  1  0  0  0  0  0  0
  -26.9920  -30.2840   24.6980 C   0  0  0  0  0  1  0  0  0  0  0  0
  -27.5270  -32.4620   25.7420 C   0  0  0  0  0  1  0  0  0  0  0  0
  1  2  2  0
  1  3  1  0
  2  5  1  0
  3  6  2  0
  5 46  1  0
  5  4  2  0
  6  4  1  0
  6  9  1  0
  9  7  1  1
  9  8  1  0
 10  9  1  0
 11 16  1  0
 12 13  1  0
 12 11  1  0
 14 13  1  0
 14 21  1  0
 14 15  1  0
 16 10  1  0
 16 15  1  0
 17 10  2  0
 18 19  2  0
 19 38  1  0
 20 19  1  0
 20 23  1  0
 21 22  1  0
 21 18  1  0
 22 20  2  0
 23 24  1  0
 24 25  2  0
 26 29  1  0
 26 25  1  0
 27 26  2  0
 28 27  1  0
 28 23  2  0
 29 30  1  0
 30 31  1  0
 31 32  2  0
 33 32  1  0
 33 37  1  0
 34 33  2  0
 35 30  2  0
 35 34  1  0
 36 35  1  0
 38 39  1  0
 39 42  1  0
 39 41  1  0
 40 38  2  0
 43 18  1  0
 43 44  1  0
 45 43  1  0
 46 47  1  0
 48 59  2  0
 49 47  1  0
 49 54  1  0
 50 58  1  0
 50 60  1  0
 51 57  1  0
 51 53  1  0
 52 58  1  0
 53 54  2  0
 53 52  1  0
 55 49  2  0
 56 55  1  0
 56 51  2  0
 57 50  1  0
 58 48  1  0
 60 62  2  0
 61 60  1  0
 63 61  1  0
 64 73  2  0
 64 69  1  0
 65 61  1  0
 65 69  1  0
 66 65  1  0
 67 68  1  0
 67 66  1  0
 68 64  1  0
 69 70  2  0
 70 71  1  0
 72 71  2  0
 73 72  1  0
 74 48  1  0
 74 75  1  0
 74 84  1  0
 75 78  1  0
 76 80  1  0
 76 75  1  0
 77 76  2  0
 80 79  1  0
 82 80  1  0
 82 83  1  0
 82 81  1  0
 84 87  1  1
 84 85  1  0
 86 84  1  0
M  ISO  4   9 100  10 100  46 101  47 101
M  END
>  <TORSDO>  (59) 
F 18

>  <SCORE>  (59) 
-16.266

>  <name>  (59) 
58

>  <ligand_id>  (59) 
58

>  <original_smiles>  (59) 
[H]c1c([H])c([H])c2c(c1[H])C([H])([H])C([H])([H])C([H])([H])C2([H])N([H])C(=O)C1([H])N(C(=O)C([H])(N([H])C(=O)C([H])(N([H])C([H])([H])[H])C([H])([H])[H])C(C([H])([H])[H])(C([H])([H])[H])C([H])([H])[H])C([H])([H])c2c([H])c(OC([H])([H])c3c([H])c([H])c([H])c(C(C(=O)N4C([H])([H])C([H])([H])C([H])([H])C([H])(n5nc(-c6c([H])c([H])c(Oc7c([H])c([H])c(F)c([H])c7F)c([H])c6[H])c(C(=O)N([H])[H])c5N([H])[H])C4([H])[H])(C([H])([H])[H])C([H])([H])[H])c3[H])c([H])c([H])c2C1([H])[H]

>  <smiles>  (59) 
[H]c1c([H])c([H])c2c(c1[H])C([H])([H])C([H])([H])C([H])([H])C2([H])N([H])C(=O)C1([H])N(C(=O)C([H])(N([H])C(=O)C([H])(N([H])C([H])([H])[H])C([H])([H])[H])C(C([H])([H])[H])(C([H])([H])[H])C([H])([H])[H])C([H])([H])c2c([H])c(OC([H])([H])c3c([H])c([H])c([H])c(C(C(=O)N4C([H])([H])C([H])([H])C([H])([H])C([H])(n5nc(-c6c([H])c([H])c(Oc7c([H])c([H])c(F)c([H])c7F)c([H])c6[H])c(C(=O)N([H])[H])c5N([H])[H])C4([H])[H])(C([H])([H])[H])C([H])([H])[H])c3[H])c([H])c([H])c2C1([H])[H]

$$$$
59:0:0
     RDKit          3D

 92101  0  0  1  0  0  0  0  0999 V2000
  -26.9930  -21.6290   20.1290 C   0  0  0  0  0  3  0  0  0  0  0  0
  -28.8680  -23.0760   19.8780 C   0  0  0  0  0  3  0  0  0  0  0  0
  -28.4030  -21.5700   19.9640 C   0  0  0  0  0  0  0  0  0  0  0  0
  -26.2140  -22.7800   20.3790 C   0  0  0  0  0  0  0  0  0  0  0  0
  -28.0550  -24.4280   20.0710 C   0  0  0  0  0  0  0  0  0  0  0  0
  -26.7340  -24.0920   20.4580 C   0  0  0  0  0  0  0  0  0  0  0  0
  -25.8920  -25.0360   20.9380 F   0  0  0  0  0  0  0  0  0  0  0  0
  -30.5250  -15.6970   19.9470 C   0  0  0  0  0  0  0  0  0  0  0  0
  -30.5460  -13.2340   19.0370 C   0  0  0  0  0  2  0  0  0  0  0  0
  -29.5660  -12.9410   17.8690 C   0  0  0  0  0  2  0  0  0  0  0  0
  -28.1450  -12.6400   18.3780 C   0  0  0  0  0  2  0  0  0  0  0  0
  -27.7270  -13.5810   19.5290 C   0  0  0  0  0  3  0  0  0  0  0  0
  -28.8440  -13.6950   20.5940 C   0  0  0  0  0  2  0  0  0  0  0  0
  -29.9830  -14.3520   19.9010 N   0  0  0  0  0  0  0  0  0  0  0  0
  -31.7420  -15.6490   19.7050 O   0  0  0  0  0  0  0  0  0  0  0  0
  -28.5330  -17.2800   20.4120 C   0  0  0  0  0  0  0  0  0  0  0  0
  -27.9700  -18.7590   20.4270 C   0  0  0  0  0  2  0  0  0  0  0  0
  -30.1820  -18.6610   19.9490 C   0  0  0  0  0  2  0  0  0  0  0  0
  -28.8930  -19.8310   19.7410 C   0  0  0  0  0  3  0  0  0  0  0  0
  -29.8160  -17.0540   20.0510 N   0  0  0  0  0  0  0  0  0  0  0  0
  -27.7830  -16.4000   20.7980 O   0  0  0  0  0  0  0  0  0  0  0  0
  -25.3400  -14.1230   20.2820 C   0  0  0  0  0  0  0  0  0  0  0  0
  -24.3080  -13.3450   20.7060 C   0  0  0  0  0  0  0  0  0  0  0  0
  -24.7840  -12.0000   20.6700 C   0  0  0  0  0  0  0  0  0  0  0  0
  -26.4070  -13.2640   20.0650 N   0  0  0  0  0  0  0  0  0  0  0  0
  -26.0750  -11.9750   20.3470 N   0  0  0  0  0  0  0  0  0  0  0  0
  -24.0610  -10.7370   20.8580 C   0  0  0  0  0  0  0  0  0  0  0  0
  -24.4840   -9.7740   21.7970 C   0  0  0  0  0  3  0  0  0  0  0  0
  -23.7540   -8.5800   21.9770 C   0  0  0  0  0  3  0  0  0  0  0  0
  -22.5880   -8.3390   21.2130 C   0  0  0  0  0  0  0  0  0  0  0  0
  -22.1850   -9.2900   20.2590 C   0  0  0  0  0  3  0  0  0  0  0  0
  -22.9180  -10.4730   20.0780 C   0  0  0  0  0  3  0  0  0  0  0  0
  -21.8320   -7.1980   21.3010 O   0  0  0  0  0  0  0  0  0  0  0  0
  -21.6820   -6.5250   22.4860 C   0  0  0  0  0  0  0  0  0  0  0  0
  -21.1060   -7.1340   23.6220 C   0  0  0  0  0  3  0  0  0  0  0  0
  -20.9110   -6.3840   24.8000 C   0  0  0  0  0  3  0  0  0  0  0  0
  -21.2820   -5.0260   24.8410 C   0  0  0  0  0  0  0  0  0  0  0  0
  -21.8490   -4.4160   23.7090 C   0  0  0  0  0  3  0  0  0  0  0  0
  -22.0450   -5.1650   22.5330 C   0  0  0  0  0  0  0  0  0  0  0  0
  -22.5760   -4.5670   21.4400 F   0  0  0  0  0  0  0  0  0  0  0  0
  -21.0820   -4.3030   25.9680 F   0  0  0  0  0  0  0  0  0  0  0  0
  -22.9230  -13.8200   21.0280 C   0  0  0  0  0  0  0  0  0  0  0  0
  -22.2390  -13.1430   21.9410 N   0  0  0  0  0  0  0  0  0  0  0  0
  -22.4650  -14.8430   20.5190 O   0  0  0  0  0  0  0  0  0  0  0  0
  -22.6280  -12.3260   22.3880 H   0  0  0  0  0  0  0  0  0  0  0  0
  -21.3150  -13.4560   22.2000 H   0  0  0  0  0  0  0  0  0  0  0  0
  -25.4380  -15.4810   20.0310 N   0  0  0  0  0  0  0  0  0  0  0  0
  -24.7150  -16.1220   20.3360 H   0  0  0  0  0  0  0  0  0  0  0  0
  -26.3800  -15.8730   20.1710 H   0  0  0  0  0  0  0  0  0  0  0  0
  -24.8660  -22.6150   20.5580 O   0  0  0  0  0  0  0  0  0  0  0  0
  -24.5720  -21.7350   20.3580 H   0  0  0  0  0  0  0  0  0  0  0  0
  -28.3330  -25.9760   19.9800 O   0  0  0  0  0  0  0  0  0  0  0  0
  -24.8300  -31.7960   23.4890 C   0  0  0  0  0  0  0  0  0  0  0  0
  -27.3910  -27.1680   20.0250 C   0  0  0  0  0  0  0  0  0  0  0  0
  -23.6680  -30.6000   21.6850 C   0  0  0  0  0  3  0  0  0  0  0  0
  -25.1370  -29.1380   20.1270 C   0  0  0  0  0  0  0  0  0  0  0  0
  -26.2450  -30.7570   21.6420 C   0  0  0  0  0  2  0  0  0  0  0  0
  -26.3080  -29.4210   20.8370 C   0  0  0  0  0  0  0  0  0  0  0  0
  -27.4230  -28.4560   20.7780 C   0  0  0  0  0  3  0  0  0  0  0  0
  -26.2270  -27.1130   19.2200 C   0  0  0  0  0  3  0  0  0  0  0  0
  -25.1290  -28.0100   19.2930 C   0  0  0  0  0  3  0  0  0  0  0  0
  -23.9320  -30.0690   20.2480 C   0  0  0  0  0  2  0  0  0  0  0  0
  -24.9340  -31.0740   22.3270 N   0  0  0  0  0  0  0  0  0  0  0  0
  -23.7280  -32.0470   24.0070 O   0  0  0  0  0  0  0  0  0  0  0  0
  -22.9320  -29.5170   22.5150 C   0  0  0  0  0  0  0  0  0  0  0  0
  -21.6050  -29.3820   22.3320 N   0  0  0  0  0  0  0  0  0  0  0  0
  -23.5640  -28.8070   23.3010 O   0  0  0  0  0  0  0  0  0  0  0  0
  -21.1450  -30.0080   21.6840 H   0  0  0  0  0  0  0  0  0  0  0  0
  -18.1780  -28.2350   22.7240 C   0  0  0  0  0  0  0  0  0  0  0  0
  -20.7520  -28.3750   22.9750 C   0  0  0  0  0  3  0  0  0  0  0  0
  -20.7950  -27.0360   22.1970 C   0  0  0  0  0  2  0  0  0  0  0  0
  -19.6570  -26.8930   21.1810 C   0  0  0  0  0  2  0  0  0  0  0  0
  -18.2990  -26.9820   21.8760 C   0  0  0  0  0  2  0  0  0  0  0  0
  -19.3280  -28.8960   23.2320 C   0  0  0  0  0  0  0  0  0  0  0  0
  -19.1580  -30.0720   23.9970 C   0  0  0  0  0  3  0  0  0  0  0  0
  -17.8720  -30.5820   24.2570 C   0  0  0  0  0  3  0  0  0  0  0  0
  -16.7380  -29.9160   23.7620 C   0  0  0  0  0  3  0  0  0  0  0  0
  -16.8920  -28.7460   22.9960 C   0  0  0  0  0  3  0  0  0  0  0  0
  -26.0900  -32.3520   24.2190 C   0  0  0  0  0  3  0  0  0  0  0  0
  -25.8190  -33.7530   24.5890 N   0  0  0  0  0  0  0  0  0  0  0  0
  -26.1760  -34.8220   23.8660 C   0  0  0  0  0  0  0  0  0  0  0  0
  -26.8350  -34.7310   22.8260 O   0  0  0  0  0  0  0  0  0  0  0  0
  -25.2390  -33.8960   25.4020 H   0  0  0  0  0  0  0  0  0  0  0  0
  -24.4760  -36.6660   23.6400 C   0  0  0  0  0  1  0  0  0  0  0  0
  -25.7430  -36.2110   24.3780 C   0  0  0  0  0  3  0  0  0  0  0  0
  -27.9190  -37.0540   25.1480 C   0  0  0  0  0  1  0  0  0  0  0  0
  -26.7910  -37.2470   24.2420 N   0  0  0  0  0  0  0  0  0  0  0  0
  -26.4070  -38.1730   24.4050 H   0  0  0  0  0  0  0  0  0  0  0  0
  -26.4780  -31.5190   25.5030 C   0  0  1  0  0  0  0  0  0  0  0  0
  -25.3030  -31.2990   26.4830 C   0  0  0  0  0  1  0  0  0  0  0  0
  -27.0270  -30.1270   25.1190 C   0  0  0  0  0  1  0  0  0  0  0  0
  -27.6130  -32.2370   26.2700 C   0  0  0  0  0  1  0  0  0  0  0  0
  1  4  1  0
  2  3  1  0
  2  5  2  0
  3  1  2  0
  4  6  2  0
  4 50  1  0
  5  6  1  0
  6  7  1  0
  8 20  1  0
  9 14  1  0
 10 11  1  0
 10  9  1  0
 12 11  1  0
 12 25  1  0
 12 13  1  0
 14  8  1  0
 14 13  1  0
 15  8  2  0
 16 17  1  0
 16 21  2  0
 18 20  1  0
 19 18  1  0
 19  3  1  0
 19 17  1  0
 20 16  1  0
 22 23  2  0
 23 42  1  0
 24 23  1  0
 24 27  1  0
 25 22  1  0
 25 26  1  0
 26 24  2  0
 27 28  1  0
 28 29  2  0
 30 33  1  0
 30 29  1  0
 31 30  2  0
 32 31  1  0
 32 27  2  0
 33 34  1  0
 34 39  2  0
 34 35  1  0
 35 36  2  0
 36 37  1  0
 37 41  1  0
 38 37  2  0
 39 38  1  0
 40 39  1  0
 42 43  1  0
 43 46  1  0
 43 45  1  0
 44 42  2  0
 47 49  1  0
 47 22  1  0
 47 48  1  0
 51 50  1  0
 52 54  1  0
 52  5  1  0
 53 64  2  0
 54 59  1  0
 55 63  1  0
 55 65  1  0
 56 62  1  0
 56 58  1  0
 57 63  1  0
 58 57  1  0
 59 58  2  0
 60 61  1  0
 60 54  2  0
 61 56  2  0
 62 55  1  0
 63 53  1  0
 65 67  2  0
 66 65  1  0
 68 66  1  0
 69 78  2  0
 69 74  1  0
 70 66  1  0
 70 74  1  0
 71 70  1  0
 72 73  1  0
 72 71  1  0
 73 69  1  0
 74 75  2  0
 75 76  1  0
 77 76  2  0
 78 77  1  0
 79 53  1  0
 79 80  1  0
 79 89  1  0
 80 83  1  0
 81 85  1  0
 81 80  1  0
 82 81  2  0
 85 84  1  0
 87 85  1  0
 87 88  1  0
 87 86  1  0
 89 92  1  1
 89 90  1  0
 91 89  1  0
M  ISO  4   5 101   8 100  20 100  52 101
M  END
>  <TORSDO>  (60) 
F 17

>  <SCORE>  (60) 
-14.380

>  <name>  (60) 
59

>  <ligand_id>  (60) 
59

>  <original_smiles>  (60) 
[H]Oc1c([H])c(C2([H])C([H])([H])C(=O)N(C(=O)N3C([H])([H])C([H])([H])C([H])([H])C([H])(n4nc(-c5c([H])c([H])c(Oc6c([H])c([H])c(F)c([H])c6F)c([H])c5[H])c(C(=O)N([H])[H])c4N([H])[H])C3([H])[H])C2([H])[H])c([H])c(Oc2c([H])c([H])c3c(c2[H])C([H])([H])N(C(=O)C([H])(N([H])C(=O)C([H])(N([H])C([H])([H])[H])C([H])([H])[H])C(C([H])([H])[H])(C([H])([H])[H])C([H])([H])[H])C([H])(C(=O)N([H])C2([H])c4c([H])c([H])c([H])c([H])c4C([H])([H])C([H])([H])C2([H])[H])C3([H])[H])c1F

>  <smiles>  (60) 
[H]Oc1c([H])c(C2([H])C([H])([H])C(=O)N(C(=O)N3C([H])([H])C([H])([H])C([H])([H])C([H])(n4nc(-c5c([H])c([H])c(Oc6c([H])c([H])c(F)c([H])c6F)c([H])c5[H])c(C(=O)N([H])[H])c4N([H])[H])C3([H])[H])C2([H])[H])c([H])c(Oc2c([H])c([H])c3c(c2[H])C([H])([H])N(C(=O)C([H])(N([H])C(=O)C([H])(N([H])C([H])([H])[H])C([H])([H])[H])C(C([H])([H])[H])(C([H])([H])[H])C([H])([H])[H])C([H])(C(=O)N([H])C2([H])c4c([H])c([H])c([H])c([H])c4C([H])([H])C([H])([H])C2([H])[H])C3([H])[H])c1F

$$$$
60:0:0
     RDKit          3D

 90 98  0  0  1  0  0  0  0  0999 V2000
  -30.4040  -23.1980   20.1390 C   0  0  0  0  0  3  0  0  0  0  0  0
  -30.9230  -23.9110   19.0360 C   0  0  0  0  0  3  0  0  0  0  0  0
  -28.6640  -24.6170   18.4100 C   0  0  0  0  0  3  0  0  0  0  0  0
  -29.0030  -23.0390   20.2020 C   0  0  0  0  0  3  0  0  0  0  0  0
  -30.0420  -24.5090   18.1060 C   0  0  0  0  0  0  0  0  0  0  0  0
  -28.2890  -24.3800   19.7470 C   0  0  0  0  0  3  0  0  0  0  0  0
  -30.5840  -25.1190   16.8270 C   0  0  0  0  0  1  0  0  0  0  0  0
  -28.6540  -21.4000   19.9570 C   0  0  0  0  0  0  0  0  0  0  0  0
  -29.4120  -20.1620   20.3180 N   0  0  0  0  0  0  0  0  0  0  0  0
  -27.6130  -21.2030   19.3300 O   0  0  0  0  0  0  0  0  0  0  0  0
  -30.2070  -20.4030   20.8950 H   0  0  0  0  0  0  0  0  0  0  0  0
  -29.5030  -18.5410   19.8260 C   0  0  0  0  0  2  0  0  0  0  0  0
  -29.6990  -16.9200   20.6390 C   0  0  0  0  0  2  0  0  0  0  0  0
  -30.3850  -15.3320   20.2270 C   0  0  0  0  0  0  0  0  0  0  0  0
  -30.3580  -12.8550   19.3940 C   0  0  0  0  0  2  0  0  0  0  0  0
  -29.4500  -12.6710   18.1510 C   0  0  0  0  0  2  0  0  0  0  0  0
  -28.0000  -12.3890   18.5760 C   0  0  0  0  0  2  0  0  0  0  0  0
  -27.5420  -13.3530   19.6970 C   0  0  0  0  0  3  0  0  0  0  0  0
  -28.5810  -13.5170   20.8270 C   0  0  0  0  0  2  0  0  0  0  0  0
  -29.8310  -14.0100   20.2200 N   0  0  0  0  0  0  0  0  0  0  0  0
  -31.5800  -15.2980   19.8910 O   0  0  0  0  0  0  0  0  0  0  0  0
  -25.1670  -13.9130   20.4280 C   0  0  0  0  0  0  0  0  0  0  0  0
  -24.1030  -13.1400   20.7980 C   0  0  0  0  0  0  0  0  0  0  0  0
  -24.5710  -11.7900   20.7880 C   0  0  0  0  0  0  0  0  0  0  0  0
  -26.2120  -13.0360   20.2010 N   0  0  0  0  0  0  0  0  0  0  0  0
  -25.8640  -11.7520   20.4820 N   0  0  0  0  0  0  0  0  0  0  0  0
  -23.8410  -10.5290   20.9900 C   0  0  0  0  0  0  0  0  0  0  0  0
  -24.2730   -9.5670   21.9290 C   0  0  0  0  0  3  0  0  0  0  0  0
  -23.5410   -8.3750   22.1200 C   0  0  0  0  0  3  0  0  0  0  0  0
  -22.3630   -8.1390   21.3740 C   0  0  0  0  0  0  0  0  0  0  0  0
  -21.9520   -9.0880   20.4220 C   0  0  0  0  0  3  0  0  0  0  0  0
  -22.6830  -10.2720   20.2300 C   0  0  0  0  0  3  0  0  0  0  0  0
  -21.6030   -6.9980   21.4720 O   0  0  0  0  0  0  0  0  0  0  0  0
  -21.5660   -6.2540   22.6230 C   0  0  0  0  0  0  0  0  0  0  0  0
  -21.1710   -6.8130   23.8580 C   0  0  0  0  0  3  0  0  0  0  0  0
  -21.0810   -5.9970   25.0030 C   0  0  0  0  0  3  0  0  0  0  0  0
  -21.3760   -4.6230   24.9160 C   0  0  0  0  0  0  0  0  0  0  0  0
  -21.7630   -4.0640   23.6850 C   0  0  0  0  0  3  0  0  0  0  0  0
  -21.8540   -4.8760   22.5420 C   0  0  0  0  0  0  0  0  0  0  0  0
  -22.2090   -4.3280   21.3550 F   0  0  0  0  0  0  0  0  0  0  0  0
  -21.2800   -3.8380   26.0150 F   0  0  0  0  0  0  0  0  0  0  0  0
  -22.7040  -13.6190   21.0500 C   0  0  0  0  0  0  0  0  0  0  0  0
  -21.9710  -12.9370   21.9220 N   0  0  0  0  0  0  0  0  0  0  0  0
  -22.2700  -14.6350   20.5070 O   0  0  0  0  0  0  0  0  0  0  0  0
  -22.3380  -12.1190   22.3850 H   0  0  0  0  0  0  0  0  0  0  0  0
  -21.0300  -13.2380   22.1280 H   0  0  0  0  0  0  0  0  0  0  0  0
  -25.3320  -15.2830   20.2390 N   0  0  0  0  0  0  0  0  0  0  0  0
  -24.5680  -15.9420   20.3430 H   0  0  0  0  0  0  0  0  0  0  0  0
  -26.1880  -15.7200   19.9210 H   0  0  0  0  0  0  0  0  0  0  0  0
  -28.2240  -25.8220   20.2990 O   0  0  0  0  0  0  0  0  0  0  0  0
  -24.6600  -31.8360   23.1860 C   0  0  0  0  0  0  0  0  0  0  0  0
  -27.2200  -26.9350   20.1670 C   0  0  0  0  0  0  0  0  0  0  0  0
  -23.4620  -30.4300   21.5580 C   0  0  0  0  0  3  0  0  0  0  0  0
  -24.9090  -28.8200   20.1290 C   0  0  0  0  0  0  0  0  0  0  0  0
  -26.0270  -30.6390   21.4030 C   0  0  0  0  0  2  0  0  0  0  0  0
  -26.0970  -29.2260   20.7480 C   0  0  0  0  0  0  0  0  0  0  0  0
  -27.2390  -28.3010   20.7480 C   0  0  0  0  0  3  0  0  0  0  0  0
  -26.0020  -26.6900   19.4930 C   0  0  0  0  0  3  0  0  0  0  0  0
  -24.8880  -27.5740   19.4790 C   0  0  0  0  0  3  0  0  0  0  0  0
  -23.6870  -29.7380   20.1830 C   0  0  0  0  0  2  0  0  0  0  0  0
  -24.7370  -30.9960   22.1010 N   0  0  0  0  0  0  0  0  0  0  0  0
  -23.5730  -32.1310   23.7090 O   0  0  0  0  0  0  0  0  0  0  0  0
  -22.7660  -29.4440   22.5330 C   0  0  0  0  0  0  0  0  0  0  0  0
  -21.4340  -29.2850   22.4180 N   0  0  0  0  0  0  0  0  0  0  0  0
  -23.4340  -28.8190   23.3600 O   0  0  0  0  0  0  0  0  0  0  0  0
  -20.9490  -29.8400   21.7270 H   0  0  0  0  0  0  0  0  0  0  0  0
  -18.0510  -28.0760   22.9460 C   0  0  0  0  0  0  0  0  0  0  0  0
  -20.6120  -28.3510   23.1960 C   0  0  0  0  0  3  0  0  0  0  0  0
  -20.7140  -26.9150   22.6290 C   0  0  0  0  0  2  0  0  0  0  0  0
  -19.6090  -26.5850   21.6200 C   0  0  0  0  0  2  0  0  0  0  0  0
  -18.2300  -26.7270   22.2690 C   0  0  0  0  0  2  0  0  0  0  0  0
  -19.1690  -28.8460   23.3650 C   0  0  0  0  0  0  0  0  0  0  0  0
  -18.9470  -30.1070   23.9590 C   0  0  0  0  0  3  0  0  0  0  0  0
  -17.6390  -30.6000   24.1370 C   0  0  0  0  0  3  0  0  0  0  0  0
  -16.5370  -29.8280   23.7300 C   0  0  0  0  0  3  0  0  0  0  0  0
  -16.7440  -28.5680   23.1410 C   0  0  0  0  0  3  0  0  0  0  0  0
  -25.9340  -32.4810   23.8110 C   0  0  0  0  0  3  0  0  0  0  0  0
  -26.4530  -31.7130   25.0890 C   0  0  1  0  0  0  0  0  0  0  0  0
  -25.3620  -31.4780   26.1600 C   0  0  0  0  0  1  0  0  0  0  0  0
  -27.0350  -30.3320   24.7080 C   0  0  0  0  0  1  0  0  0  0  0  0
  -27.6050  -32.5070   25.7490 C   0  0  0  0  0  1  0  0  0  0  0  0
  -25.6140  -33.8790   24.1590 N   0  0  0  0  0  0  0  0  0  0  0  0
  -25.9270  -34.9470   23.4140 C   0  0  0  0  0  0  0  0  0  0  0  0
  -26.5810  -34.8630   22.3700 O   0  0  0  0  0  0  0  0  0  0  0  0
  -25.0330  -34.0180   24.9720 H   0  0  0  0  0  0  0  0  0  0  0  0
  -24.1800  -36.7380   23.1280 C   0  0  0  0  0  1  0  0  0  0  0  0
  -25.4430  -36.3290   23.9010 C   0  0  0  0  0  3  0  0  0  0  0  0
  -27.5900  -37.2230   24.6890 C   0  0  0  0  0  1  0  0  0  0  0  0
  -26.4640  -37.3910   23.7740 N   0  0  0  0  0  0  0  0  0  0  0  0
  -26.0540  -38.3050   23.9440 H   0  0  0  0  0  0  0  0  0  0  0  0
  1  4  1  0
  2  1  2  0
  3  6  1  0
  4  8  1  0
  5  3  2  0
  5  2  1  0
  6  4  1  0
  6 50  1  0
  7  5  1  0
  8  9  1  0
  9 11  1  0
 10  8  2  0
 12  9  1  0
 12 13  1  0
 14 13  1  0
 15 20  1  0
 16 17  1  0
 16 15  1  0
 18 17  1  0
 18 25  1  0
 18 19  1  0
 20 14  1  0
 20 19  1  0
 21 14  2  0
 22 23  2  0
 23 42  1  0
 24 23  1  0
 24 27  1  0
 25 22  1  0
 25 26  1  0
 26 24  2  0
 27 28  1  0
 28 29  2  0
 30 33  1  0
 30 29  1  0
 31 30  2  0
 32 31  1  0
 32 27  2  0
 33 34  1  0
 34 35  1  0
 35 36  2  0
 37 36  1  0
 37 41  1  0
 38 37  2  0
 39 34  2  0
 39 38  1  0
 40 39  1  0
 42 43  1  0
 43 46  1  0
 43 45  1  0
 44 42  2  0
 47 48  1  0
 47 22  1  0
 49 47  1  0
 51 62  2  0
 52 50  1  0
 52 57  1  0
 53 61  1  0
 53 63  1  0
 54 60  1  0
 54 56  1  0
 55 61  1  0
 56 57  2  0
 56 55  1  0
 58 52  2  0
 59 58  1  0
 59 54  2  0
 60 53  1  0
 61 51  1  0
 63 65  2  0
 64 63  1  0
 66 64  1  0
 67 76  2  0
 67 72  1  0
 68 64  1  0
 68 72  1  0
 69 68  1  0
 70 71  1  0
 70 69  1  0
 71 67  1  0
 72 73  2  0
 73 74  1  0
 75 74  2  0
 76 75  1  0
 77 51  1  0
 77 82  1  0
 77 78  1  0
 78 81  1  1
 78 79  1  0
 80 78  1  0
 82 85  1  0
 83 87  1  0
 83 82  1  0
 84 83  2  0
 87 86  1  0
 89 87  1  0
 89 90  1  0
 89 88  1  0
M  ISO  4   6 101  13 100  14 100  50 101
M  END
>  <TORSDO>  (61) 
F 19

>  <SCORE>  (61) 
-15.253

>  <name>  (61) 
60

>  <ligand_id>  (61) 
60

>  <original_smiles>  (61) 
[H]c1c([H])c([H])c2c(c1[H])C([H])([H])C([H])([H])C([H])([H])C2([H])N([H])C(=O)C1([H])N(C(=O)C([H])(N([H])C(=O)C([H])(N([H])C([H])([H])[H])C([H])([H])[H])C(C([H])([H])[H])(C([H])([H])[H])C([H])([H])[H])C([H])([H])c2c([H])c(Oc3c([H])c(C([H])([H])[H])c([H])c([H])c3C(=O)N([H])C([H])([H])C([H])([H])C(=O)N3C([H])([H])C([H])([H])C([H])([H])C([H])(n4nc(-c5c([H])c([H])c(Oc6c([H])c([H])c(F)c([H])c6F)c([H])c5[H])c(C(=O)N([H])[H])c4N([H])[H])C3([H])[H])c([H])c([H])c2C1([H])[H]

>  <smiles>  (61) 
[H]c1c([H])c([H])c2c(c1[H])C([H])([H])C([H])([H])C([H])([H])C2([H])N([H])C(=O)C1([H])N(C(=O)C([H])(N([H])C(=O)C([H])(N([H])C([H])([H])[H])C([H])([H])[H])C(C([H])([H])[H])(C([H])([H])[H])C([H])([H])[H])C([H])([H])c2c([H])c(Oc3c([H])c(C([H])([H])[H])c([H])c([H])c3C(=O)N([H])C([H])([H])C([H])([H])C(=O)N3C([H])([H])C([H])([H])C([H])([H])C([H])(n4nc(-c5c([H])c([H])c(Oc6c([H])c([H])c(F)c([H])c6F)c([H])c5[H])c(C(=O)N([H])[H])c4N([H])[H])C3([H])[H])c([H])c([H])c2C1([H])[H]

$$$$
61:0:0
     RDKit          3D

 88 96  0  0  1  0  0  0  0  0999 V2000
  -28.2880  -21.9600   20.2320 C   0  0  0  0  0  3  0  0  0  0  0  0
  -30.5300  -21.4700   20.4620 C   0  0  0  0  0  3  0  0  0  0  0  0
  -29.3010  -20.8580   20.3650 C   0  0  0  0  0  0  0  0  0  0  0  0
  -28.7030  -23.3300   20.2240 C   0  0  0  0  0  0  0  0  0  0  0  0
  -30.4490  -23.2600   20.3960 S   0  0  0  0  0  0  0  0  0  0  0  0
  -29.0440  -19.2560   20.4120 C   0  0  0  0  0  0  0  0  0  0  0  0
  -27.8380  -18.8930   20.5030 N   0  0  0  0  0  0  0  0  0  0  0  0
  -27.2120  -19.6890   20.5380 H   0  0  0  0  0  0  0  0  0  0  0  0
  -30.1050  -17.9750   20.3370 C   0  0  0  0  0  3  0  0  0  0  0  0
  -29.6440  -16.3810   20.6580 C   0  0  0  0  0  3  0  0  0  0  0  0
  -30.4960  -14.9880   20.3620 C   0  0  0  0  0  0  0  0  0  0  0  0
  -30.3830  -12.6510   19.3770 C   0  0  0  0  0  2  0  0  0  0  0  0
  -29.4450  -12.6720   18.1460 C   0  0  0  0  0  2  0  0  0  0  0  0
  -27.9760  -12.4670   18.5660 C   0  0  0  0  0  2  0  0  0  0  0  0
  -27.5820  -13.3500   19.7760 C   0  0  0  0  0  3  0  0  0  0  0  0
  -28.6410  -13.3130   20.8980 C   0  0  0  0  0  2  0  0  0  0  0  0
  -29.9270  -13.7160   20.3150 N   0  0  0  0  0  0  0  0  0  0  0  0
  -31.6850  -15.0750   20.0320 O   0  0  0  0  0  0  0  0  0  0  0  0
  -25.1970  -13.9240   20.5150 C   0  0  0  0  0  0  0  0  0  0  0  0
  -24.1340  -13.1460   20.8800 C   0  0  0  0  0  0  0  0  0  0  0  0
  -24.6010  -11.7950   20.8470 C   0  0  0  0  0  0  0  0  0  0  0  0
  -26.2430  -13.0490   20.2720 N   0  0  0  0  0  0  0  0  0  0  0  0
  -25.8930  -11.7630   20.5370 N   0  0  0  0  0  0  0  0  0  0  0  0
  -23.8760  -10.5320   21.0350 C   0  0  0  0  0  0  0  0  0  0  0  0
  -24.3010   -9.5680   21.9740 C   0  0  0  0  0  3  0  0  0  0  0  0
  -23.5750   -8.3700   22.1500 C   0  0  0  0  0  3  0  0  0  0  0  0
  -22.4080   -8.1280   21.3870 C   0  0  0  0  0  0  0  0  0  0  0  0
  -22.0020   -9.0810   20.4370 C   0  0  0  0  0  3  0  0  0  0  0  0
  -22.7290  -10.2710   20.2590 C   0  0  0  0  0  3  0  0  0  0  0  0
  -21.6540   -6.9820   21.4710 O   0  0  0  0  0  0  0  0  0  0  0  0
  -21.5900   -6.2460   22.6270 C   0  0  0  0  0  0  0  0  0  0  0  0
  -21.1310   -6.8040   23.8400 C   0  0  0  0  0  3  0  0  0  0  0  0
  -21.0150   -5.9930   24.9870 C   0  0  0  0  0  3  0  0  0  0  0  0
  -21.3470   -4.6270   24.9220 C   0  0  0  0  0  0  0  0  0  0  0  0
  -21.7970   -4.0690   23.7130 C   0  0  0  0  0  3  0  0  0  0  0  0
  -21.9160   -4.8760   22.5680 C   0  0  0  0  0  0  0  0  0  0  0  0
  -22.3310   -4.3290   21.4000 F   0  0  0  0  0  0  0  0  0  0  0  0
  -21.2270   -3.8460   26.0220 F   0  0  0  0  0  0  0  0  0  0  0  0
  -22.7350  -13.6190   21.1510 C   0  0  0  0  0  0  0  0  0  0  0  0
  -22.0100  -12.9210   22.0190 N   0  0  0  0  0  0  0  0  0  0  0  0
  -22.2940  -14.6400   20.6280 O   0  0  0  0  0  0  0  0  0  0  0  0
  -22.3840  -12.0970   22.4660 H   0  0  0  0  0  0  0  0  0  0  0  0
  -21.0700  -13.2150   22.2400 H   0  0  0  0  0  0  0  0  0  0  0  0
  -25.3590  -15.2960   20.3450 N   0  0  0  0  0  0  0  0  0  0  0  0
  -24.5970  -15.9520   20.4730 H   0  0  0  0  0  0  0  0  0  0  0  0
  -26.2200  -15.7480   20.0620 H   0  0  0  0  0  0  0  0  0  0  0  0
  -27.8010  -24.6780   19.9760 C   0  0  0  0  0  2  0  0  0  0  0  0
  -28.2040  -26.1590   20.2400 O   0  0  0  0  0  0  0  0  0  0  0  0
  -24.6160  -31.8890   23.2410 C   0  0  0  0  0  0  0  0  0  0  0  0
  -27.1730  -27.1760   20.1720 C   0  0  0  0  0  0  0  0  0  0  0  0
  -23.4080  -30.5000   21.6050 C   0  0  0  0  0  3  0  0  0  0  0  0
  -24.8480  -28.9370   20.1650 C   0  0  0  0  0  0  0  0  0  0  0  0
  -25.9640  -30.7590   21.4330 C   0  0  0  0  0  2  0  0  0  0  0  0
  -26.0340  -29.3710   20.7720 C   0  0  0  0  0  0  0  0  0  0  0  0
  -27.1960  -28.5070   20.7620 C   0  0  0  0  0  3  0  0  0  0  0  0
  -25.9570  -26.8590   19.5190 C   0  0  0  0  0  3  0  0  0  0  0  0
  -24.8220  -27.6930   19.5250 C   0  0  0  0  0  3  0  0  0  0  0  0
  -23.6210  -29.8330   20.2220 C   0  0  0  0  0  2  0  0  0  0  0  0
  -24.6830  -31.0700   22.1470 N   0  0  0  0  0  0  0  0  0  0  0  0
  -23.5310  -32.1730   23.7730 O   0  0  0  0  0  0  0  0  0  0  0  0
  -22.7330  -29.4880   22.5650 C   0  0  0  0  0  0  0  0  0  0  0  0
  -21.4050  -29.3150   22.4420 N   0  0  0  0  0  0  0  0  0  0  0  0
  -23.4080  -28.8600   23.3860 O   0  0  0  0  0  0  0  0  0  0  0  0
  -20.9160  -29.8730   21.7550 H   0  0  0  0  0  0  0  0  0  0  0  0
  -18.0260  -28.1100   22.9550 C   0  0  0  0  0  0  0  0  0  0  0  0
  -20.5850  -28.3770   23.2150 C   0  0  0  0  0  3  0  0  0  0  0  0
  -20.6870  -26.9440   22.6420 C   0  0  0  0  0  2  0  0  0  0  0  0
  -19.5830  -26.6190   21.6310 C   0  0  0  0  0  2  0  0  0  0  0  0
  -18.2020  -26.7620   22.2770 C   0  0  0  0  0  2  0  0  0  0  0  0
  -19.1440  -28.8750   23.3810 C   0  0  0  0  0  0  0  0  0  0  0  0
  -18.9230  -30.1360   23.9760 C   0  0  0  0  0  3  0  0  0  0  0  0
  -17.6180  -30.6330   24.1480 C   0  0  0  0  0  3  0  0  0  0  0  0
  -16.5140  -29.8660   23.7370 C   0  0  0  0  0  3  0  0  0  0  0  0
  -16.7190  -28.6060   23.1470 C   0  0  0  0  0  3  0  0  0  0  0  0
  -25.8970  -32.5220   23.8630 C   0  0  0  0  0  3  0  0  0  0  0  0
  -26.4130  -31.7480   25.1380 C   0  0  1  0  0  0  0  0  0  0  0  0
  -25.3210  -31.5100   26.2070 C   0  0  0  0  0  1  0  0  0  0  0  0
  -26.9950  -30.3700   24.7490 C   0  0  0  0  0  1  0  0  0  0  0  0
  -27.5650  -32.5400   25.8000 C   0  0  0  0  0  1  0  0  0  0  0  0
  -25.5840  -33.9200   24.2030 N   0  0  0  0  0  0  0  0  0  0  0  0
  -25.8920  -34.9790   23.4440 C   0  0  0  0  0  0  0  0  0  0  0  0
  -26.5360  -34.8830   22.3950 O   0  0  0  0  0  0  0  0  0  0  0  0
  -25.0060  -34.0670   25.0180 H   0  0  0  0  0  0  0  0  0  0  0  0
  -24.1380  -36.7610   23.1560 C   0  0  0  0  0  1  0  0  0  0  0  0
  -25.4120  -36.3640   23.9200 C   0  0  0  0  0  3  0  0  0  0  0  0
  -27.5670  -37.2670   24.6730 C   0  0  0  0  0  1  0  0  0  0  0  0
  -26.4310  -37.4250   23.7690 N   0  0  0  0  0  0  0  0  0  0  0  0
  -26.0240  -38.3430   23.9290 H   0  0  0  0  0  0  0  0  0  0  0  0
  1  3  1  0
  3  6  1  0
  3  2  2  0
  4  1  2  0
  4  5  1  0
  5  2  1  0
  6  7  2  0
  7  8  1  0
  9  6  1  0
  9 10  2  0
 11 10  1  0
 12 17  1  0
 13 14  1  0
 13 12  1  0
 15 14  1  0
 15 22  1  0
 15 16  1  0
 17 11  1  0
 17 16  1  0
 18 11  2  0
 19 20  2  0
 20 39  1  0
 21 20  1  0
 21 24  1  0
 22 19  1  0
 22 23  1  0
 23 21  2  0
 24 25  1  0
 25 26  2  0
 27 30  1  0
 27 26  1  0
 28 27  2  0
 29 28  1  0
 29 24  2  0
 30 31  1  0
 31 32  1  0
 32 33  2  0
 34 33  1  0
 34 38  1  0
 35 34  2  0
 36 31  2  0
 36 35  1  0
 37 36  1  0
 39 40  1  0
 40 43  1  0
 40 42  1  0
 41 39  2  0
 44 45  1  0
 44 19  1  0
 46 44  1  0
 47  4  1  0
 47 48  1  0
 49 60  2  0
 50 48  1  0
 50 55  1  0
 51 59  1  0
 51 61  1  0
 52 58  1  0
 52 54  1  0
 53 59  1  0
 54 53  1  0
 55 54  2  0
 56 57  1  0
 56 50  2  0
 57 52  2  0
 58 51  1  0
 59 49  1  0
 61 63  2  0
 62 61  1  0
 64 62  1  0
 65 74  2  0
 65 70  1  0
 66 62  1  0
 66 70  1  0
 67 66  1  0
 68 69  1  0
 68 67  1  0
 69 65  1  0
 70 71  2  0
 71 72  1  0
 73 72  2  0
 74 73  1  0
 75 49  1  0
 75 80  1  0
 75 76  1  0
 76 79  1  1
 76 77  1  0
 78 76  1  0
 80 83  1  0
 81 85  1  0
 81 80  1  0
 82 81  2  0
 85 84  1  0
 87 85  1  0
 87 88  1  0
 87 86  1  0
M  ISO  4  10 100  11 100  47 101  48 101
M  END
>  <TORSDO>  (62) 
F 20

>  <SCORE>  (62) 
-13.993

>  <name>  (62) 
61

>  <ligand_id>  (62) 
61

>  <original_smiles>  (62) 
[H]N=C(c1c([H])sc(C([H])([H])Oc2c([H])c([H])c3c(c2[H])C([H])([H])N(C(=O)C([H])(N([H])C(=O)C([H])(N([H])C([H])([H])[H])C([H])([H])[H])C(C([H])([H])[H])(C([H])([H])[H])C([H])([H])[H])C([H])(C(=O)N([H])C2([H])c4c([H])c([H])c([H])c([H])c4C([H])([H])C([H])([H])C2([H])[H])C3([H])[H])c1[H])C([H])([H])C([H])([H])C(=O)N1C([H])([H])C([H])([H])C([H])([H])C([H])(n2nc(-c3c([H])c([H])c(Oc4c([H])c([H])c(F)c([H])c4F)c([H])c3[H])c(C(=O)N([H])[H])c2N([H])[H])C1([H])[H]

>  <smiles>  (62) 
[H]N=C(c1c([H])sc(C([H])([H])Oc2c([H])c([H])c3c(c2[H])C([H])([H])N(C(=O)C([H])(N([H])C(=O)C([H])(N([H])C([H])([H])[H])C([H])([H])[H])C(C([H])([H])[H])(C([H])([H])[H])C([H])([H])[H])C([H])(C(=O)N([H])C2([H])c4c([H])c([H])c([H])c([H])c4C([H])([H])C([H])([H])C2([H])[H])C3([H])[H])c1[H])C([H])([H])C([H])([H])C(=O)N1C([H])([H])C([H])([H])C([H])([H])C([H])(n2nc(-c3c([H])c([H])c(Oc4c([H])c([H])c(F)c([H])c4F)c([H])c3[H])c(C(=O)N([H])[H])c2N([H])[H])C1([H])[H]

$$$$
62:0:0
     RDKit          3D

 95 94  0  0  1  0  0  0  0  0999 V2000
  -26.4360  -12.6340   18.4180 C   0  0  0  0  0 15  0  0  0  0  0  0
  -27.3790  -11.2410   19.9110 C   0  0  0  0  0 15  0  0  0  0  0  0
  -27.0490  -14.7500   18.5270 C   0  0  0  0  0 15  0  0  0  0  0  0
  -28.4870  -14.6300   21.4350 C   0  0  0  0  0 15  0  0  0  0  0  0
  -28.4460  -12.5220   21.6670 C   0  0  0  0  0  1  0  0  0  0  0  0
  -28.1620  -15.8950   19.9110 C   0  0  0  0  0 15  0  0  0  0  0  0
  -30.8490  -13.2410   22.0390 C   0  0  0  0  0  2  0  0  0  0  0  0
  -32.4820  -11.5100   21.8100 C   0  0  0  0  0  3  0  0  0  0  0  0
  -30.3240  -11.0210   22.8290 C   0  0  0  0  0  2  0  0  0  0  0  0
  -31.9640  -12.7540   21.3820 C   0  0  0  0  0  3  0  0  0  0  0  0
  -29.8640  -12.2690   22.3390 C   0  0  0  0  0  3  0  0  0  0  0  0
  -31.6960  -10.6760   22.6410 C   0  0  0  0  0  0  0  0  0  0  0  0
  -32.2530   -9.3240   23.0920 C   0  0  0  0  0  1  0  0  0  0  0  0
  -31.9880  -13.1360   19.9220 C   0  0  0  0  0  0  0  0  0  0  0  0
  -31.1910  -12.0760   17.8420 C   0  0  0  0  0  2  0  0  0  0  0  0
  -30.0980  -12.8040   17.0570 C   0  0  0  0  0  2  0  0  0  0  0  0
  -28.8090  -13.0870   17.8230 C   0  0  0  0  0  2  0  0  0  0  0  0
  -28.6020  -13.5100   19.5010 C   0  0  0  0  0  2  0  0  0  0  0  0
  -29.7760  -12.2720   19.6360 C   0  0  0  0  0  2  0  0  0  0  0  0
  -31.0560  -12.5410   19.1940 N   0  0  0  0  0  0  0  0  0  0  0  0
  -32.8570  -13.8050   19.3910 O   0  0  0  0  0  0  0  0  0  0  0  0
  -25.4140  -14.1480   20.7420 C   0  0  0  0  0  3  0  0  0  0  0  0
  -24.4330  -13.1930   20.9740 C   0  0  2  0  0  0  0  0  0  0  0  0
  -24.9220  -11.8860   20.9960 C   0  0  0  0  0  3  0  0  0  0  0  0
  -26.6260  -13.5380   20.6630 N   0  0  0  0  0  2  0  0  0  0  0  0
  -26.0080  -12.4320   21.4990 N   0  0  0  0  0  0  0  0  0  0  0  0
  -24.3210  -10.4670   21.1420 C   0  0  0  0  0  0  0  0  0  0  0  0
  -24.7520   -9.4130   22.0080 C   0  0  0  0  0  3  0  0  0  0  0  0
  -24.0020   -8.2000   22.1450 C   0  0  0  0  0  3  0  0  0  0  0  0
  -22.7950   -7.9960   21.4280 C   0  0  0  0  0  0  0  0  0  0  0  0
  -22.4240   -8.9950   20.5120 C   0  0  0  0  0  3  0  0  0  0  0  0
  -23.1700  -10.1820   20.3640 C   0  0  0  0  0  3  0  0  0  0  0  0
  -21.9800   -6.8760   21.5110 O   0  0  0  0  0  0  0  0  0  0  0  0
  -21.7890   -6.1740   22.6810 C   0  0  0  0  0  0  0  0  0  0  0  0
  -21.2320   -6.7650   23.8350 C   0  0  0  0  0  3  0  0  0  0  0  0
  -21.0090   -5.9910   24.9940 C   0  0  0  0  0  3  0  0  0  0  0  0
  -21.3200   -4.6170   24.9970 C   0  0  0  0  0  0  0  0  0  0  0  0
  -21.8380   -4.0150   23.8380 C   0  0  0  0  0  3  0  0  0  0  0  0
  -22.0700   -4.7890   22.6850 C   0  0  0  0  0  0  0  0  0  0  0  0
  -22.5580   -4.1900   21.5740 F   0  0  0  0  0  0  0  0  0  0  0  0
  -21.1060   -3.8710   26.1100 F   0  0  0  0  0  0  0  0  0  0  0  0
  -23.0950  -13.5430   21.3940 C   0  0  0  0  0  0  0  0  0  0  0  0
  -22.5650  -12.8420   22.3860 N   0  0  0  0  0  0  0  0  0  0  0  0
  -22.5830  -14.5450   20.9150 O   0  0  0  0  0  0  0  0  0  0  0  0
  -23.0940  -12.1230   22.8560 H   0  0  0  0  0  0  0  0  0  0  0  0
  -21.6280  -13.0660   22.7010 H   0  0  0  0  0  0  0  0  0  0  0  0
  -25.3380  -15.5160   20.7020 N   0  0  0  0  0  0  0  0  0  0  0  0
  -24.4880  -15.9990   20.3900 H   0  0  0  0  0  0  0  0  0  0  0  0
  -26.1020  -16.1420   20.9250 H   0  0  0  0  0  0  0  0  0  0  0  0
  -28.2740  -17.8830   19.9690 N   0  0  0  0  0  2  0  0  0  0  0  0
  -27.3640  -18.0940   20.3430 H   0  0  0  0  0  0  0  0  0  0  0  0
  -28.1800  -18.0340   18.9810 H   0  0  0  0  0  0  0  0  0  0  0  0
  -29.2480  -19.5630   20.3690 C   0  0  0  0  0 15  0  0  0  0  0  0
  -29.2860  -21.8030   20.2820 C   0  0  0  0  0 15  0  0  0  0  0  0
  -30.0700  -23.5820   20.7600 O   0  0  0  0  0  1  0  0  0  0  0  0
  -28.3140  -30.5420   24.6200 C   0  0  0  0  0  0  0  0  0  0  0  0
  -29.7000  -25.2040   20.9130 C   0  0  0  0  0  0  0  0  0  0  0  0
  -27.0080  -29.6380   22.7610 C   0  0  0  0  0  3  0  0  0  0  0  0
  -28.1740  -27.9440   21.1230 C   0  0  0  0  0  0  0  0  0  0  0  0
  -29.5520  -29.1540   22.7690 C   0  0  0  0  0  2  0  0  0  0  0  0
  -29.3370  -27.8190   21.8830 C   0  0  0  0  0  0  0  0  0  0  0  0
  -30.0920  -26.4860   21.7590 C   0  0  0  0  0  3  0  0  0  0  0  0
  -28.6580  -25.6970   20.0920 C   0  0  0  0  0  3  0  0  0  0  0  0
  -27.9200  -26.9190   20.2030 C   0  0  0  0  0  3  0  0  0  0  0  0
  -27.2170  -29.1420   21.2970 C   0  0  0  0  0  2  0  0  0  0  0  0
  -28.3320  -29.8160   23.4380 N   0  0  0  0  0  0  0  0  0  0  0  0
  -27.2560  -30.9610   25.1240 O   0  0  0  0  0  0  0  0  0  0  0  0
  -26.0780  -28.6690   23.5420 C   0  0  0  0  0  0  0  0  0  0  0  0
  -24.8220  -28.4780   23.0920 N   0  0  0  0  0  0  0  0  0  0  0  0
  -26.5050  -28.0900   24.5450 O   0  0  0  0  0  0  0  0  0  0  0  0
  -24.5180  -29.0030   22.2830 H   0  0  0  0  0  0  0  0  0  0  0  0
  -21.5390  -26.9780   22.6470 C   0  0  0  0  0  0  0  0  0  0  0  0
  -23.8520  -27.5340   23.6670 C   0  0  0  0  0  3  0  0  0  0  0  0
  -24.2300  -26.0720   23.3260 C   0  0  0  0  0  2  0  0  0  0  0  0
  -23.5460  -25.5540   22.0570 C   0  0  0  0  0  2  0  0  0  0  0  0
  -22.0240  -25.6060   22.2120 C   0  0  0  0  0  2  0  0  0  0  0  0
  -22.4000  -27.8890   23.3160 C   0  0  0  0  0  0  0  0  0  0  0  0
  -21.9050  -29.1610   23.6760 C   0  0  0  0  0  3  0  0  0  0  0  0
  -20.5810  -29.5280   23.3740 C   0  0  0  0  0  3  0  0  0  0  0  0
  -19.7300  -28.6200   22.7210 C   0  0  0  0  0  3  0  0  0  0  0  0
  -20.2080  -27.3460   22.3650 C   0  0  0  0  0  3  0  0  0  0  0  0
  -29.6180  -30.8960   25.3980 C   0  0  0  0  0  3  0  0  0  0  0  0
  -29.8800  -29.9370   26.6290 C   0  0  1  0  0  0  0  0  0  0  0  0
  -28.6670  -29.7900   27.5770 C   0  0  0  0  0  1  0  0  0  0  0  0
  -30.2710  -28.5210   26.1570 C   0  0  0  0  0  1  0  0  0  0  0  0
  -31.0700  -30.4610   27.4680 C   0  0  0  0  0  1  0  0  0  0  0  0
  -29.5120  -32.2910   25.8900 N   0  0  0  0  0  0  0  0  0  0  0  0
  -30.0870  -33.3660   25.3350 C   0  0  0  0  0  0  0  0  0  0  0  0
  -30.8190  -33.2840   24.3470 O   0  0  0  0  0  0  0  0  0  0  0  0
  -28.8860  -32.4380   26.6670 H   0  0  0  0  0  0  0  0  0  0  0  0
  -28.7600  -35.5060   25.1520 C   0  0  0  0  0  1  0  0  0  0  0  0
  -29.8180  -34.7490   25.9720 C   0  0  0  0  0  3  0  0  0  0  0  0
  -31.9780  -35.1020   27.0930 C   0  0  0  0  0  1  0  0  0  0  0  0
  -31.0270  -35.5950   26.1000 N   0  0  0  0  0  0  0  0  0  0  0  0
  -30.7760  -36.5470   26.3500 H   0  0  0  0  0  0  0  0  0  0  0  0
  7 11  1  0
  8 12  2  0
 10 14  1  0
 10  8  1  0
 10  7  1  0
 11  5  1  0
 11  9  1  0
 12  9  1  0
 12 13  1  0
 15 20  1  0
 16 17  1  0
 16 15  1  0
 17 18  1  0
 18 19  1  0
 20 19  1  0
 20 14  1  0
 21 14  2  0
 22 47  1  0
 22 23  1  0
 23 24  1  0
 23 42  1  6
 23 26  1  0
 24 27  1  0
 24 26  1  0
 25 22  1  0
 26 25  1  0
 27 28  1  0
 28 29  2  0
 30 33  1  0
 30 29  1  0
 31 30  2  0
 32 31  1  0
 32 27  2  0
 33 34  1  0
 34 39  2  0
 34 35  1  0
 35 36  2  0
 36 37  1  0
 37 41  1  0
 38 37  2  0
 39 38  1  0
 40 39  1  0
 42 43  1  0
 43 46  1  0
 43 45  1  0
 44 42  2  0
 47 49  1  0
 48 47  1  0
 50 51  1  0
 52 50  1  0
 55 57  1  0
 56 67  2  0
 57 62  1  0
 58 66  1  0
 58 68  1  0
 59 65  1  0
 59 61  1  0
 60 66  1  0
 61 60  1  0
 62 61  2  0
 63 64  1  0
 63 57  2  0
 64 59  2  0
 65 58  1  0
 66 56  1  0
 68 70  2  0
 69 68  1  0
 71 69  1  0
 72 77  1  0
 73 69  1  0
 74 73  1  0
 75 76  1  0
 75 74  1  0
 76 72  1  0
 77 73  1  0
 77 78  2  0
 79 78  1  0
 80 79  2  0
 81 72  2  0
 81 80  1  0
 82 56  1  0
 82 87  1  0
 82 83  1  0
 83 86  1  1
 83 84  1  0
 85 83  1  0
 87 90  1  0
 88 87  1  0
 88 92  1  0
 89 88  2  0
 92 91  1  0
 92 94  1  0
 94 95  1  0
 94 93  1  0
M  ISO  4  10 100  14 100  54 101  55 101
M  END
>  <TORSDO>  (63) 
F 20

>  <SCORE>  (63) 
-7.972

>  <name>  (63) 
62

>  <ligand_id>  (63) 
62

>  <original_smiles>  (63) 
[H]c1c([H])c([H])c2c(c1[H])C([H])([H])C([H])([H])C([H])([H])C2([H])N([H])C(=O)C1([H])N(C(=O)C([H])(N([H])C(=O)C([H])(N([H])C([H])([H])[H])C([H])([H])[H])C(C([H])([H])[H])(C([H])([H])[H])C([H])([H])[H])C([H])([H])c2c([H])c(OC([H])([H])C([H])([H])[N+]([H])([H])C3([H])C([H])([H])C([H])([H])C([H])([H])C([H])(c4c([H])c(C(=O)N5C([H])([H])C([H])([H])C([H])([H])C([H])(n6nc(-c7c([H])c([H])c(Oc8c([H])c([H])c(F)c([H])c8F)c([H])c7[H])c(C(=O)N([H])[H])c6N([H])[H])C5([H])[H])c([H])c(C([H])([H])[H])c4[H])C3([H])[H])c([H])c([H])c2C1([H])[H]

>  <smiles>  (63) 
[H]c1c([H])c([H])c2c(c1[H])C([H])([H])C([H])([H])C([H])([H])C2([H])N([H])C(=O)C1([H])N(C(=O)C([H])(N([H])C(=O)C([H])(N([H])C([H])([H])[H])C([H])([H])[H])C(C([H])([H])[H])(C([H])([H])[H])C([H])([H])[H])C([H])([H])c2c([H])c(OC([H])([H])C([H])([H])[N+]([H])([H])C3([H])C([H])([H])C([H])([H])C([H])([H])C([H])(c4c([H])c(C(=O)N5C([H])([H])C([H])([H])C([H])([H])C([H])(n6nc(-c7c([H])c([H])c(Oc8c([H])c([H])c(F)c([H])c8F)c([H])c7[H])c(C(=O)N([H])[H])c6N([H])[H])C5([H])[H])c([H])c(C([H])([H])[H])c4[H])C3([H])[H])c([H])c([H])c2C1([H])[H]

$$$$
63:0:0
     RDKit          3D

 88 97  0  0  1  0  0  0  0  0999 V2000
  -28.0430  -21.6070   20.8660 C   0  0  0  0  0  3  0  0  0  0  0  0
  -28.5600  -20.1770   20.6610 C   0  0  0  0  0  0  0  0  0  0  0  0
  -29.5120  -20.0440   19.6920 C   0  0  0  0  0  0  0  0  0  0  0  0
  -28.4860  -22.7140   20.0640 C   0  0  0  0  0  0  0  0  0  0  0  0
  -28.1470  -18.8110   21.3110 C   0  0  0  0  0  2  0  0  0  0  0  0
  -30.2640  -18.6040   19.3100 C   0  0  0  0  0  2  0  0  0  0  0  0
  -29.0000  -17.4320   21.0640 C   0  0  0  0  0  2  0  0  0  0  0  0
  -29.6390  -17.0560   19.6480 C   0  0  1  0  0  0  0  0  0  0  0  0
  -28.4740  -16.9690   18.6350 C   0  0  0  0  0  1  0  0  0  0  0  0
  -29.6780  -21.7670   19.0050 S   0  0  0  0  0  0  0  0  0  0  0  0
  -30.5250  -15.5020   19.5070 C   0  0  0  0  0  0  0  0  0  0  0  0
  -30.5520  -13.0340   18.6620 C   0  0  0  0  0  2  0  0  0  0  0  0
  -29.4910  -12.7120   17.5750 C   0  0  0  0  0  2  0  0  0  0  0  0
  -28.1310  -12.3780   18.2130 C   0  0  0  0  0  2  0  0  0  0  0  0
  -27.7590  -13.3870   19.3210 C   0  0  0  0  0  3  0  0  0  0  0  0
  -28.9200  -13.6110   20.3060 C   0  0  0  0  0  2  0  0  0  0  0  0
  -30.0510  -14.1550   19.5430 N   0  0  0  0  0  0  0  0  0  0  0  0
  -31.7150  -15.5270   19.1540 O   0  0  0  0  0  0  0  0  0  0  0  0
  -25.5720  -13.9180   20.5230 C   0  0  0  0  0  0  0  0  0  0  0  0
  -24.5470  -13.1320   20.9660 C   0  0  0  0  0  0  0  0  0  0  0  0
  -24.9460  -11.7860   20.7060 C   0  0  0  0  0  0  0  0  0  0  0  0
  -26.5220  -13.0510   20.0080 N   0  0  0  0  0  0  0  0  0  0  0  0
  -26.1690  -11.7530   20.1890 N   0  0  0  0  0  0  0  0  0  0  0  0
  -24.2040  -10.5310   20.8660 C   0  0  0  0  0  0  0  0  0  0  0  0
  -24.6650   -9.5010   21.7140 C   0  0  0  0  0  3  0  0  0  0  0  0
  -23.9180   -8.3130   21.8670 C   0  0  0  0  0  3  0  0  0  0  0  0
  -22.6970   -8.1480   21.1690 C   0  0  0  0  0  0  0  0  0  0  0  0
  -22.2570   -9.1680   20.3080 C   0  0  0  0  0  3  0  0  0  0  0  0
  -23.0020  -10.3470   20.1530 C   0  0  0  0  0  3  0  0  0  0  0  0
  -21.9210   -7.0160   21.2300 O   0  0  0  0  0  0  0  0  0  0  0  0
  -21.8130   -6.2780   22.3810 C   0  0  0  0  0  0  0  0  0  0  0  0
  -21.3410   -6.8440   23.5860 C   0  0  0  0  0  3  0  0  0  0  0  0
  -21.1820   -6.0360   24.7300 C   0  0  0  0  0  3  0  0  0  0  0  0
  -21.4830   -4.6630   24.6710 C   0  0  0  0  0  0  0  0  0  0  0  0
  -21.9470   -4.0960   23.4690 C   0  0  0  0  0  3  0  0  0  0  0  0
  -22.1080   -4.9010   22.3270 C   0  0  0  0  0  0  0  0  0  0  0  0
  -22.5340   -4.3440   21.1680 F   0  0  0  0  0  0  0  0  0  0  0  0
  -21.3220   -3.8850   25.7670 F   0  0  0  0  0  0  0  0  0  0  0  0
  -23.2350  -13.6180   21.5050 C   0  0  0  0  0  0  0  0  0  0  0  0
  -22.6280  -12.8550   22.4070 N   0  0  0  0  0  0  0  0  0  0  0  0
  -22.7680  -14.7050   21.1710 O   0  0  0  0  0  0  0  0  0  0  0  0
  -23.0270  -11.9760   22.6970 H   0  0  0  0  0  0  0  0  0  0  0  0
  -21.7590  -13.1620   22.8180 H   0  0  0  0  0  0  0  0  0  0  0  0
  -25.7580  -15.2930   20.4910 N   0  0  0  0  0  0  0  0  0  0  0  0
  -25.0470  -15.9590   20.7760 H   0  0  0  0  0  0  0  0  0  0  0  0
  -26.5780  -15.7290   20.0930 H   0  0  0  0  0  0  0  0  0  0  0  0
  -27.7660  -24.2990   19.7860 C   0  0  0  0  0  2  0  0  0  0  0  0
  -28.1580  -25.8480   20.1940 O   0  0  0  0  0  0  0  0  0  0  0  0
  -24.6950  -31.8120   23.2370 C   0  0  0  0  0  0  0  0  0  0  0  0
  -27.2160  -27.0060   20.0950 C   0  0  0  0  0  0  0  0  0  0  0  0
  -23.5080  -30.4790   21.5440 C   0  0  0  0  0  3  0  0  0  0  0  0
  -24.9570  -28.9330   20.0610 C   0  0  0  0  0  0  0  0  0  0  0  0
  -26.0770  -30.6800   21.4180 C   0  0  0  0  0  2  0  0  0  0  0  0
  -26.1400  -29.2940   20.7180 C   0  0  0  0  0  0  0  0  0  0  0  0
  -27.2680  -28.3520   20.7110 C   0  0  0  0  0  3  0  0  0  0  0  0
  -26.0110  -26.8130   19.3790 C   0  0  0  0  0  3  0  0  0  0  0  0
  -24.9230  -27.7160   19.3640 C   0  0  0  0  0  3  0  0  0  0  0  0
  -23.7430  -29.8570   20.1390 C   0  0  0  0  0  2  0  0  0  0  0  0
  -24.7830  -31.0160   22.1210 N   0  0  0  0  0  0  0  0  0  0  0  0
  -23.6030  -32.0830   23.7610 O   0  0  0  0  0  0  0  0  0  0  0  0
  -22.8130  -29.4450   22.4690 C   0  0  0  0  0  0  0  0  0  0  0  0
  -21.4880  -29.2600   22.3150 N   0  0  0  0  0  0  0  0  0  0  0  0
  -23.4720  -28.8070   23.2950 O   0  0  0  0  0  0  0  0  0  0  0  0
  -21.0110  -29.8330   21.6360 H   0  0  0  0  0  0  0  0  0  0  0  0
  -18.1220  -27.9660   22.7120 C   0  0  0  0  0  0  0  0  0  0  0  0
  -20.6660  -28.2900   23.0450 C   0  0  0  0  0  3  0  0  0  0  0  0
  -20.8150  -26.8700   22.4490 C   0  0  0  0  0  2  0  0  0  0  0  0
  -19.7490  -26.5410   21.4010 C   0  0  0  0  0  2  0  0  0  0  0  0
  -18.3470  -26.6350   22.0110 C   0  0  0  0  0  2  0  0  0  0  0  0
  -19.2080  -28.7510   23.1830 C   0  0  0  0  0  0  0  0  0  0  0  0
  -18.9420  -29.9910   23.8010 C   0  0  0  0  0  3  0  0  0  0  0  0
  -17.6200  -30.4530   23.9510 C   0  0  0  0  0  3  0  0  0  0  0  0
  -16.5470  -29.6670   23.4950 C   0  0  0  0  0  3  0  0  0  0  0  0
  -16.7970  -28.4260   22.8820 C   0  0  0  0  0  3  0  0  0  0  0  0
  -25.9630  -32.4350   23.8970 C   0  0  0  0  0  3  0  0  0  0  0  0
  -25.6460  -33.8270   24.2660 N   0  0  0  0  0  0  0  0  0  0  0  0
  -25.9550  -34.9070   23.5370 C   0  0  0  0  0  0  0  0  0  0  0  0
  -26.6040  -34.8390   22.4900 O   0  0  0  0  0  0  0  0  0  0  0  0
  -25.0850  -33.9570   25.0940 H   0  0  0  0  0  0  0  0  0  0  0  0
  -24.2080  -36.7050   23.2830 C   0  0  0  0  0  1  0  0  0  0  0  0
  -25.4710  -36.2820   24.0510 C   0  0  0  0  0  3  0  0  0  0  0  0
  -27.6190  -37.1580   24.8580 C   0  0  0  0  0  1  0  0  0  0  0  0
  -26.4930  -37.3460   23.9480 N   0  0  0  0  0  0  0  0  0  0  0  0
  -26.0820  -38.2560   24.1410 H   0  0  0  0  0  0  0  0  0  0  0  0
  -26.4550  -31.6390   25.1690 C   0  0  1  0  0  0  0  0  0  0  0  0
  -25.3420  -31.3740   26.2110 C   0  0  0  0  0  1  0  0  0  0  0  0
  -27.0520  -30.2730   24.7640 C   0  0  0  0  0  1  0  0  0  0  0  0
  -27.5890  -32.4250   25.8690 C   0  0  0  0  0  1  0  0  0  0  0  0
  2  1  1  0
  2  5  1  0
  3  2  2  0
  4  1  2  0
  6  8  1  0
  6  3  1  0
  7  5  1  0
  8  9  1  6
  8  7  1  0
 10  3  1  0
 10  4  1  0
 11 17  1  0
 11  8  1  0
 12 17  1  0
 13 14  1  0
 13 12  1  0
 15 14  1  0
 15 22  1  0
 15 16  1  0
 17 16  1  0
 18 11  2  0
 19 20  2  0
 20 39  1  0
 21 24  1  0
 21 20  1  0
 22 23  1  0
 22 19  1  0
 23 21  2  0
 24 25  1  0
 25 26  2  0
 27 30  1  0
 27 26  1  0
 28 27  2  0
 29 28  1  0
 29 24  2  0
 30 31  1  0
 31 32  1  0
 32 33  2  0
 34 33  1  0
 34 38  1  0
 35 34  2  0
 36 31  2  0
 36 35  1  0
 37 36  1  0
 39 40  1  0
 40 42  1  0
 40 43  1  0
 41 39  2  0
 44 19  1  0
 44 45  1  0
 46 44  1  0
 47  4  1  0
 47 48  1  0
 49 60  2  0
 50 48  1  0
 50 55  1  0
 51 59  1  0
 51 61  1  0
 52 58  1  0
 52 54  1  0
 53 59  1  0
 54 53  1  0
 55 54  2  0
 56 50  2  0
 57 56  1  0
 57 52  2  0
 58 51  1  0
 59 49  1  0
 61 63  2  0
 62 61  1  0
 64 62  1  0
 65 74  2  0
 65 70  1  0
 66 62  1  0
 66 70  1  0
 67 66  1  0
 68 69  1  0
 68 67  1  0
 69 65  1  0
 70 71  2  0
 71 72  1  0
 73 72  2  0
 74 73  1  0
 75 49  1  0
 75 76  1  0
 75 85  1  0
 76 79  1  0
 77 81  1  0
 77 76  1  0
 78 77  2  0
 81 80  1  0
 83 81  1  0
 83 84  1  0
 83 82  1  0
 85 88  1  1
 85 86  1  0
 87 85  1  0
M  ISO  4   8 100  11 100  47 101  48 101
M  END
>  <TORSDO>  (64) 
F 17

>  <SCORE>  (64) 
-13.639

>  <name>  (64) 
63

>  <ligand_id>  (64) 
63

>  <original_smiles>  (64) 
[H]c1c([H])c([H])c2c(c1[H])C([H])([H])C([H])([H])C([H])([H])C2([H])N([H])C(=O)C1([H])N(C(=O)C([H])(N([H])C(=O)C([H])(N([H])C([H])([H])[H])C([H])([H])[H])C(C([H])([H])[H])(C([H])([H])[H])C([H])([H])[H])C([H])([H])c2c([H])c(OC([H])([H])c3sc4c(c3[H])C([H])([H])C([H])([H])C(C(=O)N3C([H])([H])C([H])([H])C([H])([H])C([H])(n5nc(-c6c([H])c([H])c(Oc7c([H])c([H])c(F)c([H])c7F)c([H])c6[H])c(C(=O)N([H])[H])c5N([H])[H])C3([H])[H])(C([H])([H])[H])C4([H])[H])c([H])c([H])c2C1([H])[H]

>  <smiles>  (64) 
[H]c1c([H])c([H])c2c(c1[H])C([H])([H])C([H])([H])C([H])([H])C2([H])N([H])C(=O)C1([H])N(C(=O)C([H])(N([H])C(=O)C([H])(N([H])C([H])([H])[H])C([H])([H])[H])C(C([H])([H])[H])(C([H])([H])[H])C([H])([H])[H])C([H])([H])c2c([H])c(OC([H])([H])c3sc4c(c3[H])C([H])([H])C([H])([H])C(C(=O)N3C([H])([H])C([H])([H])C([H])([H])C([H])(n5nc(-c6c([H])c([H])c(Oc7c([H])c([H])c(F)c([H])c7F)c([H])c6[H])c(C(=O)N([H])[H])c5N([H])[H])C3([H])[H])(C([H])([H])[H])C4([H])[H])c([H])c([H])c2C1([H])[H]

$$$$
64:0:0
     RDKit          3D

 91 99  0  0  1  0  0  0  0  0999 V2000
  -28.3940  -23.5930   17.7450 C   0  0  0  0  0  3  0  0  0  0  0  0
  -28.8040  -22.5020   18.5350 C   0  0  0  0  0  3  0  0  0  0  0  0
  -28.2300  -24.8820   18.2970 C   0  0  0  0  0  3  0  0  0  0  0  0
  -28.8460  -23.9830   20.4630 C   0  0  0  0  0  3  0  0  0  0  0  0
  -29.0340  -22.6470   19.9170 C   0  0  0  0  0  0  0  0  0  0  0  0
  -28.4430  -25.1330   19.6710 C   0  0  0  0  0  0  0  0  0  0  0  0
  -28.3840  -26.4810   20.1440 O   0  0  0  0  0  0  0  0  0  0  0  0
  -24.6310  -31.8790   23.1930 C   0  0  0  0  0  0  0  0  0  0  0  0
  -27.2410  -27.3130   20.1040 C   0  0  0  0  0  0  0  0  0  0  0  0
  -23.4200  -30.4780   21.5710 C   0  0  0  0  0  3  0  0  0  0  0  0
  -24.8570  -28.9250   20.1330 C   0  0  0  0  0  0  0  0  0  0  0  0
  -25.9570  -30.8000   21.3560 C   0  0  0  0  0  2  0  0  0  0  0  0
  -26.0330  -29.4180   20.7080 C   0  0  0  0  0  0  0  0  0  0  0  0
  -27.2230  -28.6240   20.6880 C   0  0  0  0  0  3  0  0  0  0  0  0
  -26.0310  -26.8690   19.5260 C   0  0  0  0  0  3  0  0  0  0  0  0
  -24.8590  -27.6510   19.5400 C   0  0  0  0  0  3  0  0  0  0  0  0
  -23.6190  -29.8020   20.1890 C   0  0  0  0  0  2  0  0  0  0  0  0
  -24.6900  -31.0700   22.0970 N   0  0  0  0  0  0  0  0  0  0  0  0
  -23.5500  -32.1500   23.7390 O   0  0  0  0  0  0  0  0  0  0  0  0
  -22.7650  -29.4590   22.5370 C   0  0  0  0  0  0  0  0  0  0  0  0
  -21.4380  -29.2790   22.4220 N   0  0  0  0  0  0  0  0  0  0  0  0
  -23.4530  -28.8340   23.3470 O   0  0  0  0  0  0  0  0  0  0  0  0
  -20.9370  -29.8350   21.7400 H   0  0  0  0  0  0  0  0  0  0  0  0
  -18.0720  -28.0750   22.9580 C   0  0  0  0  0  0  0  0  0  0  0  0
  -20.6310  -28.3410   23.2040 C   0  0  0  0  0  3  0  0  0  0  0  0
  -20.7330  -26.9090   22.6300 C   0  0  0  0  0  2  0  0  0  0  0  0
  -19.6230  -26.5840   21.6260 C   0  0  0  0  0  2  0  0  0  0  0  0
  -18.2450  -26.7270   22.2810 C   0  0  0  0  0  2  0  0  0  0  0  0
  -19.1910  -28.8410   23.3770 C   0  0  0  0  0  0  0  0  0  0  0  0
  -18.9710  -30.1030   23.9700 C   0  0  0  0  0  3  0  0  0  0  0  0
  -17.6650  -30.6000   24.1450 C   0  0  0  0  0  3  0  0  0  0  0  0
  -16.5600  -29.8300   23.7420 C   0  0  0  0  0  3  0  0  0  0  0  0
  -16.7650  -28.5690   23.1540 C   0  0  0  0  0  3  0  0  0  0  0  0
  -25.9150  -32.5190   23.8060 C   0  0  0  0  0  3  0  0  0  0  0  0
  -26.4460  -31.7410   25.0720 C   0  0  1  0  0  0  0  0  0  0  0  0
  -25.3680  -31.4890   26.1520 C   0  0  0  0  0  1  0  0  0  0  0  0
  -27.0320  -30.3710   24.6630 C   0  0  0  0  0  1  0  0  0  0  0  0
  -27.6050  -32.5340   25.7230 C   0  0  0  0  0  1  0  0  0  0  0  0
  -25.5920  -33.9110   24.1530 N   0  0  0  0  0  0  0  0  0  0  0  0
  -25.9180  -34.9760   23.4090 C   0  0  0  0  0  0  0  0  0  0  0  0
  -26.5850  -34.8870   22.3750 O   0  0  0  0  0  0  0  0  0  0  0  0
  -25.0000  -34.0500   24.9580 H   0  0  0  0  0  0  0  0  0  0  0  0
  -24.1870  -36.7700   23.0800 C   0  0  0  0  0  1  0  0  0  0  0  0
  -25.4300  -36.3600   23.8850 C   0  0  0  0  0  3  0  0  0  0  0  0
  -27.5660  -37.2410   24.7150 C   0  0  0  0  0  1  0  0  0  0  0  0
  -26.4610  -37.4140   23.7780 N   0  0  0  0  0  0  0  0  0  0  0  0
  -26.0570  -38.3350   23.9290 H   0  0  0  0  0  0  0  0  0  0  0  0
  -29.6160  -21.4120   20.7390 C   0  0  0  0  0  2  0  0  0  0  0  0
  -29.1370  -19.8940   20.5360 C   0  0  0  0  0  0  0  0  0  0  0  0
  -30.0250  -18.8390   20.6760 N   0  0  0  0  0  0  0  0  0  0  0  0
  -27.9380  -19.6740   20.3530 O   0  0  0  0  0  0  0  0  0  0  0  0
  -30.9930  -19.1310   20.6900 H   0  0  0  0  0  0  0  0  0  0  0  0
  -29.8330  -17.3890   21.1330 C   0  0  0  0  0  2  0  0  0  0  0  0
  -30.5560  -16.5840   18.7380 C   0  0  0  0  0  1  0  0  0  0  0  0
  -29.9850  -16.1360   20.1110 C   0  0  0  0  0  3  0  0  0  0  0  0
  -30.7570  -14.7680   20.4900 C   0  0  0  0  0  0  0  0  0  0  0  0
  -30.5780  -12.4520   19.5880 C   0  0  0  0  0  2  0  0  0  0  0  0
  -29.6910  -12.4890   18.3190 C   0  0  0  0  0  2  0  0  0  0  0  0
  -28.2080  -12.3150   18.7070 C   0  0  0  0  0  2  0  0  0  0  0  0
  -27.7800  -13.2710   19.8490 C   0  0  0  0  0  3  0  0  0  0  0  0
  -28.7930  -13.2630   21.0140 C   0  0  0  0  0  2  0  0  0  0  0  0
  -30.1240  -13.5470   20.4750 N   0  0  0  0  0  0  0  0  0  0  0  0
  -31.9880  -14.7980   20.3940 O   0  0  0  0  0  0  0  0  0  0  0  0
  -25.3790  -13.9080   20.5000 C   0  0  0  0  0  0  0  0  0  0  0  0
  -24.2940  -13.1510   20.8420 C   0  0  0  0  0  0  0  0  0  0  0  0
  -24.7500  -11.7960   20.8610 C   0  0  0  0  0  0  0  0  0  0  0  0
  -26.4220  -13.0160   20.3100 N   0  0  0  0  0  0  0  0  0  0  0  0
  -26.0500  -11.7470   20.6050 N   0  0  0  0  0  0  0  0  0  0  0  0
  -24.0110  -10.5420   21.0500 C   0  0  0  0  0  0  0  0  0  0  0  0
  -24.4190   -9.5790   22.0010 C   0  0  0  0  0  3  0  0  0  0  0  0
  -23.6830   -8.3880   22.1770 C   0  0  0  0  0  3  0  0  0  0  0  0
  -22.5260   -8.1480   21.3980 C   0  0  0  0  0  0  0  0  0  0  0  0
  -22.1360   -9.0970   20.4360 C   0  0  0  0  0  3  0  0  0  0  0  0
  -22.8730  -10.2810   20.2590 C   0  0  0  0  0  3  0  0  0  0  0  0
  -21.7670   -7.0050   21.4790 O   0  0  0  0  0  0  0  0  0  0  0  0
  -21.7030   -6.2670   22.6320 C   0  0  0  0  0  0  0  0  0  0  0  0
  -21.2840   -6.8320   23.8550 C   0  0  0  0  0  3  0  0  0  0  0  0
  -21.1580   -6.0200   25.0000 C   0  0  0  0  0  3  0  0  0  0  0  0
  -21.4490   -4.6440   24.9250 C   0  0  0  0  0  0  0  0  0  0  0  0
  -21.8670   -4.0800   23.7060 C   0  0  0  0  0  3  0  0  0  0  0  0
  -21.9890   -4.8890   22.5630 C   0  0  0  0  0  0  0  0  0  0  0  0
  -22.3680   -4.3350   21.3850 F   0  0  0  0  0  0  0  0  0  0  0  0
  -21.3280   -3.8620   26.0230 F   0  0  0  0  0  0  0  0  0  0  0  0
  -22.8870  -13.6350   21.0460 C   0  0  0  0  0  0  0  0  0  0  0  0
  -22.1210  -12.9640   21.8960 N   0  0  0  0  0  0  0  0  0  0  0  0
  -22.4730  -14.6490   20.4810 O   0  0  0  0  0  0  0  0  0  0  0  0
  -22.4730  -12.1410   22.3630 H   0  0  0  0  0  0  0  0  0  0  0  0
  -21.1770  -13.2760   22.0880 H   0  0  0  0  0  0  0  0  0  0  0  0
  -25.5610  -15.2760   20.3090 N   0  0  0  0  0  0  0  0  0  0  0  0
  -24.7920  -15.9320   20.3950 H   0  0  0  0  0  0  0  0  0  0  0  0
  -26.4280  -15.7060   20.0150 H   0  0  0  0  0  0  0  0  0  0  0  0
  1  3  2  0
  1  2  1  0
  2  5  2  0
  3  6  1  0
  5  4  1  0
  5 48  1  0
  6  7  1  0
  6  4  2  0
  8 19  2  0
  9  7  1  0
  9 14  1  0
 10 18  1  0
 10 20  1  0
 11 17  1  0
 11 13  1  0
 12 18  1  0
 13 12  1  0
 14 13  2  0
 15 16  1  0
 15  9  2  0
 16 11  2  0
 17 10  1  0
 18  8  1  0
 20 22  2  0
 21 20  1  0
 23 21  1  0
 24 33  2  0
 24 29  1  0
 25 21  1  0
 25 29  1  0
 26 25  1  0
 27 28  1  0
 27 26  1  0
 28 24  1  0
 29 30  2  0
 30 31  1  0
 32 31  2  0
 33 32  1  0
 34  8  1  0
 34 39  1  0
 34 35  1  0
 35 38  1  1
 35 36  1  0
 37 35  1  0
 39 42  1  0
 40 44  1  0
 40 39  1  0
 41 40  2  0
 44 43  1  0
 46 44  1  0
 46 47  1  0
 46 45  1  0
 49 50  1  0
 49 48  1  0
 50 52  1  0
 50 53  1  0
 51 49  2  0
 55 54  1  0
 55 56  1  0
 55 53  1  0
 57 62  1  0
 58 59  1  0
 58 57  1  0
 60 59  1  0
 60 67  1  0
 60 61  1  0
 62 56  1  0
 62 61  1  0
 63 56  2  0
 64 65  2  0
 65 66  1  0
 65 84  1  0
 66 69  1  0
 67 64  1  0
 67 68  1  0
 68 66  2  0
 69 70  1  0
 70 71  2  0
 72 75  1  0
 72 71  1  0
 73 72  2  0
 74 73  1  0
 74 69  2  0
 75 76  1  0
 76 77  1  0
 77 78  2  0
 79 78  1  0
 79 83  1  0
 80 79  2  0
 81 76  2  0
 81 80  1  0
 82 81  1  0
 84 85  1  0
 85 88  1  0
 85 87  1  0
 86 84  2  0
 89 90  1  0
 89 64  1  0
 91 89  1  0
M  ISO  4   6 101   7 101  55 100  56 100
M  END
>  <TORSDO>  (65) 
F 20

>  <SCORE>  (65) 
-13.763

>  <name>  (65) 
64

>  <ligand_id>  (65) 
64

>  <original_smiles>  (65) 
[H]c1c([H])c(Oc2c([H])c([H])c3c(c2[H])C([H])([H])N(C(=O)C([H])(N([H])C(=O)C([H])(N([H])C([H])([H])[H])C([H])([H])[H])C(C([H])([H])[H])(C([H])([H])[H])C([H])([H])[H])C([H])(C(=O)N([H])C2([H])c4c([H])c([H])c([H])c([H])c4C([H])([H])C([H])([H])C2([H])[H])C3([H])[H])c([H])c(C([H])([H])C(=O)N([H])C([H])([H])C([H])(C(=O)N2C([H])([H])C([H])([H])C([H])([H])C([H])(n3nc(-c4c([H])c([H])c(Oc5c([H])c([H])c(F)c([H])c5F)c([H])c4[H])c(C(=O)N([H])[H])c3N([H])[H])C2([H])[H])C([H])([H])[H])c1[H]

>  <smiles>  (65) 
[H]c1c([H])c(Oc2c([H])c([H])c3c(c2[H])C([H])([H])N(C(=O)C([H])(N([H])C(=O)C([H])(N([H])C([H])([H])[H])C([H])([H])[H])C(C([H])([H])[H])(C([H])([H])[H])C([H])([H])[H])C([H])(C(=O)N([H])C2([H])c4c([H])c([H])c([H])c([H])c4C([H])([H])C([H])([H])C2([H])[H])C3([H])[H])c([H])c(C([H])([H])C(=O)N([H])C([H])([H])C([H])(C(=O)N2C([H])([H])C([H])([H])C([H])([H])C([H])(n3nc(-c4c([H])c([H])c(Oc5c([H])c([H])c(F)c([H])c5F)c([H])c4[H])c(C(=O)N([H])[H])c3N([H])[H])C2([H])[H])C([H])([H])[H])c1[H]

$$$$
65:0:0
     RDKit          3D

 89 97  0  0  1  0  0  0  0  0999 V2000
  -29.1150  -22.8440   21.3940 C   0  0  0  0  0  3  0  0  0  0  0  0
  -28.7670  -24.2460   21.4000 C   0  0  0  0  0  3  0  0  0  0  0  0
  -28.2980  -24.1440   19.0780 C   0  0  0  0  0  3  0  0  0  0  0  0
  -29.1050  -22.0240   20.2210 C   0  0  0  0  0  0  0  0  0  0  0  0
  -28.3770  -24.9800   20.2360 C   0  0  0  0  0  0  0  0  0  0  0  0
  -28.6410  -22.7380   19.0660 C   0  0  0  0  0  0  0  0  0  0  0  0
  -28.5830  -22.0920   17.8650 O   0  0  0  0  0  0  0  0  0  0  0  0
  -28.7960  -21.1680   17.9290 H   0  0  0  0  0  0  0  0  0  0  0  0
  -28.3330  -26.4230   20.1970 O   0  0  0  0  0  0  0  0  0  0  0  0
  -24.6180  -31.9010   23.2520 C   0  0  0  0  0  0  0  0  0  0  0  0
  -27.1940  -27.2670   20.2010 C   0  0  0  0  0  0  0  0  0  0  0  0
  -23.4020  -30.5030   21.6170 C   0  0  0  0  0  3  0  0  0  0  0  0
  -24.8400  -28.9290   20.1900 C   0  0  0  0  0  0  0  0  0  0  0  0
  -25.9440  -30.7970   21.4240 C   0  0  0  0  0  2  0  0  0  0  0  0
  -26.0140  -29.4070   20.7840 C   0  0  0  0  0  0  0  0  0  0  0  0
  -27.1890  -28.5880   20.7760 C   0  0  0  0  0  3  0  0  0  0  0  0
  -25.9960  -26.8540   19.5810 C   0  0  0  0  0  3  0  0  0  0  0  0
  -24.8370  -27.6620   19.5780 C   0  0  0  0  0  3  0  0  0  0  0  0
  -23.6100  -29.8170   20.2390 C   0  0  0  0  0  2  0  0  0  0  0  0
  -24.6740  -31.0870   22.1550 N   0  0  0  0  0  0  0  0  0  0  0  0
  -23.5390  -32.1830   23.7920 O   0  0  0  0  0  0  0  0  0  0  0  0
  -22.7350  -29.4970   22.5860 C   0  0  0  0  0  0  0  0  0  0  0  0
  -21.4090  -29.3200   22.4620 N   0  0  0  0  0  0  0  0  0  0  0  0
  -23.4120  -28.8760   23.4100 O   0  0  0  0  0  0  0  0  0  0  0  0
  -20.9200  -29.8720   21.7700 H   0  0  0  0  0  0  0  0  0  0  0  0
  -18.0350  -28.1070   22.9620 C   0  0  0  0  0  0  0  0  0  0  0  0
  -20.5910  -28.3840   23.2380 C   0  0  0  0  0  3  0  0  0  0  0  0
  -20.7030  -26.9490   22.6750 C   0  0  0  0  0  2  0  0  0  0  0  0
  -19.6070  -26.6120   21.6590 C   0  0  0  0  0  2  0  0  0  0  0  0
  -18.2220  -26.7540   22.2970 C   0  0  0  0  0  2  0  0  0  0  0  0
  -19.1470  -28.8790   23.3900 C   0  0  0  0  0  0  0  0  0  0  0  0
  -18.9200  -30.1430   23.9750 C   0  0  0  0  0  3  0  0  0  0  0  0
  -17.6110  -30.6370   24.1350 C   0  0  0  0  0  3  0  0  0  0  0  0
  -16.5130  -29.8630   23.7240 C   0  0  0  0  0  3  0  0  0  0  0  0
  -16.7240  -28.6010   23.1430 C   0  0  0  0  0  3  0  0  0  0  0  0
  -25.9050  -32.5320   23.8680 C   0  0  0  0  0  3  0  0  0  0  0  0
  -25.5980  -33.9310   24.2010 N   0  0  0  0  0  0  0  0  0  0  0  0
  -25.9210  -34.9860   23.4400 C   0  0  0  0  0  0  0  0  0  0  0  0
  -26.5750  -34.8820   22.3990 O   0  0  0  0  0  0  0  0  0  0  0  0
  -25.0120  -34.0850   25.0080 H   0  0  0  0  0  0  0  0  0  0  0  0
  -24.1880  -36.7840   23.1190 C   0  0  0  0  0  1  0  0  0  0  0  0
  -25.4430  -36.3750   23.9070 C   0  0  0  0  0  3  0  0  0  0  0  0
  -27.5920  -37.2630   24.6990 C   0  0  0  0  0  1  0  0  0  0  0  0
  -26.4750  -37.4280   23.7740 N   0  0  0  0  0  0  0  0  0  0  0  0
  -26.0700  -38.3490   23.9260 H   0  0  0  0  0  0  0  0  0  0  0  0
  -26.4240  -31.7610   25.1440 C   0  0  1  0  0  0  0  0  0  0  0  0
  -25.3360  -31.5290   26.2180 C   0  0  0  0  0  1  0  0  0  0  0  0
  -27.0010  -30.3810   24.7560 C   0  0  0  0  0  1  0  0  0  0  0  0
  -27.5810  -32.5520   25.7990 C   0  0  0  0  0  1  0  0  0  0  0  0
  -29.8460  -20.5780   20.1480 C   0  0  0  0  0  3  0  0  0  0  0  0
  -29.2750  -19.0980   20.5680 C   0  0  0  0  0  3  0  0  0  0  0  0
  -30.1810  -17.7410   20.2960 C   0  0  0  0  0  3  0  0  0  0  0  0
  -29.7250  -16.2210   20.7400 C   0  0  0  0  0  3  0  0  0  0  0  0
  -30.5470  -14.8680   20.3490 C   0  0  0  0  0  0  0  0  0  0  0  0
  -30.3960  -12.5710   19.3240 C   0  0  0  0  0  2  0  0  0  0  0  0
  -29.4580  -12.6440   18.0960 C   0  0  0  0  0  2  0  0  0  0  0  0
  -27.9870  -12.4550   18.5180 C   0  0  0  0  0  2  0  0  0  0  0  0
  -27.6070  -13.3250   19.7450 C   0  0  0  0  0  3  0  0  0  0  0  0
  -28.6650  -13.2440   20.8650 C   0  0  0  0  0  2  0  0  0  0  0  0
  -29.9600  -13.6160   20.2850 N   0  0  0  0  0  0  0  0  0  0  0  0
  -31.7200  -14.9800   19.9790 O   0  0  0  0  0  0  0  0  0  0  0  0
  -25.2200  -13.9020   20.4790 C   0  0  0  0  0  0  0  0  0  0  0  0
  -24.1580  -13.1240   20.8510 C   0  0  0  0  0  0  0  0  0  0  0  0
  -24.6280  -11.7750   20.8210 C   0  0  0  0  0  0  0  0  0  0  0  0
  -26.2670  -13.0270   20.2390 N   0  0  0  0  0  0  0  0  0  0  0  0
  -25.9180  -11.7420   20.5090 N   0  0  0  0  0  0  0  0  0  0  0  0
  -23.9070  -10.5100   21.0130 C   0  0  0  0  0  0  0  0  0  0  0  0
  -24.3360   -9.5490   21.9540 C   0  0  0  0  0  3  0  0  0  0  0  0
  -23.6130   -8.3500   22.1330 C   0  0  0  0  0  3  0  0  0  0  0  0
  -22.4460   -8.1030   21.3730 C   0  0  0  0  0  0  0  0  0  0  0  0
  -22.0350   -9.0540   20.4200 C   0  0  0  0  0  3  0  0  0  0  0  0
  -22.7580  -10.2440   20.2390 C   0  0  0  0  0  3  0  0  0  0  0  0
  -21.6950   -6.9560   21.4600 O   0  0  0  0  0  0  0  0  0  0  0  0
  -21.6350   -6.2230   22.6190 C   0  0  0  0  0  0  0  0  0  0  0  0
  -21.1790   -6.7840   23.8310 C   0  0  0  0  0  3  0  0  0  0  0  0
  -21.0670   -5.9770   24.9810 C   0  0  0  0  0  3  0  0  0  0  0  0
  -21.3980   -4.6110   24.9190 C   0  0  0  0  0  0  0  0  0  0  0  0
  -21.8460   -4.0480   23.7110 C   0  0  0  0  0  3  0  0  0  0  0  0
  -21.9610   -4.8530   22.5640 C   0  0  0  0  0  0  0  0  0  0  0  0
  -22.3730   -4.3030   21.3950 F   0  0  0  0  0  0  0  0  0  0  0  0
  -21.2830   -3.8330   26.0210 F   0  0  0  0  0  0  0  0  0  0  0  0
  -22.7590  -13.5950   21.1230 C   0  0  0  0  0  0  0  0  0  0  0  0
  -22.0360  -12.8950   21.9890 N   0  0  0  0  0  0  0  0  0  0  0  0
  -22.3160  -14.6180   20.6010 O   0  0  0  0  0  0  0  0  0  0  0  0
  -22.4070  -12.0660   22.4300 H   0  0  0  0  0  0  0  0  0  0  0  0
  -21.0960  -13.1890   22.2140 H   0  0  0  0  0  0  0  0  0  0  0  0
  -25.3810  -15.2740   20.3020 N   0  0  0  0  0  0  0  0  0  0  0  0
  -24.6150  -15.9310   20.4140 H   0  0  0  0  0  0  0  0  0  0  0  0
  -26.2360  -15.7140   19.9840 H   0  0  0  0  0  0  0  0  0  0  0  0
  1  2  1  0
  3  5  1  0
  4  1  2  0
  5  2  2  0
  6  3  2  0
  6  4  1  0
  7  8  1  0
  7  6  1  0
  9 11  1  0
  9  5  1  0
 10 21  2  0
 11 16  1  0
 12 20  1  0
 12 22  1  0
 13 19  1  0
 13 15  1  0
 14 20  1  0
 15 14  1  0
 16 15  2  0
 17 11  2  0
 18 17  1  0
 18 13  2  0
 19 12  1  0
 20 10  1  0
 22 24  2  0
 23 22  1  0
 25 23  1  0
 26 35  2  0
 26 31  1  0
 27 23  1  0
 27 31  1  0
 28 27  1  0
 29 30  1  0
 29 28  1  0
 30 26  1  0
 31 32  2  0
 32 33  1  0
 34 33  2  0
 35 34  1  0
 36 10  1  0
 36 37  1  0
 36 46  1  0
 37 40  1  0
 38 42  1  0
 38 37  1  0
 39 38  2  0
 42 41  1  0
 44 42  1  0
 44 45  1  0
 44 43  1  0
 46 49  1  1
 46 47  1  0
 48 46  1  0
 50  4  1  0
 50 51  2  0
 52 51  1  0
 52 53  2  0
 54 53  1  0
 55 60  1  0
 56 57  1  0
 56 55  1  0
 58 57  1  0
 58 65  1  0
 58 59  1  0
 60 54  1  0
 60 59  1  0
 61 54  2  0
 62 63  2  0
 63 82  1  0
 64 63  1  0
 64 67  1  0
 65 62  1  0
 65 66  1  0
 66 64  2  0
 67 68  1  0
 68 69  2  0
 70 73  1  0
 70 69  1  0
 71 70  2  0
 72 71  1  0
 72 67  2  0
 73 74  1  0
 74 75  1  0
 75 76  2  0
 77 76  1  0
 77 81  1  0
 78 77  2  0
 79 74  2  0
 79 78  1  0
 80 79  1  0
 82 83  1  0
 83 86  1  0
 83 85  1  0
 84 82  2  0
 87 88  1  0
 87 62  1  0
 89 87  1  0
M  ISO  4   5 101   9 101  53 100  54 100
M  END
>  <TORSDO>  (66) 
F 21

>  <SCORE>  (66) 
-13.567

>  <name>  (66) 
65

>  <ligand_id>  (66) 
65

>  <original_smiles>  (66) 
[H]Oc1c([H])c(Oc2c([H])c([H])c3c(c2[H])C([H])([H])N(C(=O)C([H])(N([H])C(=O)C([H])(N([H])C([H])([H])[H])C([H])([H])[H])C(C([H])([H])[H])(C([H])([H])[H])C([H])([H])[H])C([H])(C(=O)N([H])C2([H])c4c([H])c([H])c([H])c([H])c4C([H])([H])C([H])([H])C2([H])[H])C3([H])[H])c([H])c([H])c1C([H])([H])C([H])([H])C([H])([H])C([H])([H])C(=O)N1C([H])([H])C([H])([H])C([H])([H])C([H])(n2nc(-c3c([H])c([H])c(Oc4c([H])c([H])c(F)c([H])c4F)c([H])c3[H])c(C(=O)N([H])[H])c2N([H])[H])C1([H])[H]

>  <smiles>  (66) 
[H]Oc1c([H])c(Oc2c([H])c([H])c3c(c2[H])C([H])([H])N(C(=O)C([H])(N([H])C(=O)C([H])(N([H])C([H])([H])[H])C([H])([H])[H])C(C([H])([H])[H])(C([H])([H])[H])C([H])([H])[H])C([H])(C(=O)N([H])C2([H])c4c([H])c([H])c([H])c([H])c4C([H])([H])C([H])([H])C2([H])[H])C3([H])[H])c([H])c([H])c1C([H])([H])C([H])([H])C([H])([H])C([H])([H])C(=O)N1C([H])([H])C([H])([H])C([H])([H])C([H])(n2nc(-c3c([H])c([H])c(Oc4c([H])c([H])c(F)c([H])c4F)c([H])c3[H])c(C(=O)N([H])[H])c2N([H])[H])C1([H])[H]

$$$$
66:0:0
     RDKit          3D

 93101  0  0  1  0  0  0  0  0999 V2000
  -27.6900  -22.2410   21.4040 C   0  0  0  0  0  2  0  0  0  0  0  0
  -26.1590  -24.0730   21.9750 C   0  0  0  0  0  1  0  0  0  0  0  0
  -27.5670  -23.6930   21.6920 N   0  0  2  0  0  4  0  0  0  0  0  0
  -28.0810  -23.8500   22.5490 H   0  0  0  0  0  0  0  0  0  0  0  0
  -28.1770  -24.5450   20.6300 C   0  0  0  0  0  2  0  0  0  0  0  0
  -28.5850  -25.9460   21.1320 C   0  0  0  0  0  2  0  0  0  0  0  0
  -28.4830  -26.9070   20.0810 O   0  0  0  0  0  0  0  0  0  0  0  0
  -24.5910  -31.9390   23.2500 C   0  0  0  0  0  0  0  0  0  0  0  0
  -27.3080  -27.6120   20.1010 C   0  0  0  0  0  0  0  0  0  0  0  0
  -23.4110  -30.5580   21.5690 C   0  0  0  0  0  3  0  0  0  0  0  0
  -24.8920  -29.0620   20.1310 C   0  0  0  0  0  0  0  0  0  0  0  0
  -25.9300  -30.9510   21.3990 C   0  0  0  0  0  2  0  0  0  0  0  0
  -26.0360  -29.5940   20.7390 C   0  0  0  0  0  0  0  0  0  0  0  0
  -27.2470  -28.8730   20.7280 C   0  0  0  0  0  3  0  0  0  0  0  0
  -26.1530  -27.0870   19.4840 C   0  0  0  0  0  3  0  0  0  0  0  0
  -24.9440  -27.8050   19.5030 C   0  0  0  0  0  3  0  0  0  0  0  0
  -23.6370  -29.9030   20.1800 C   0  0  0  0  0  2  0  0  0  0  0  0
  -24.6620  -31.1620   22.1320 N   0  0  0  0  0  0  0  0  0  0  0  0
  -23.5030  -32.1900   23.7860 O   0  0  0  0  0  0  0  0  0  0  0  0
  -22.7630  -29.5110   22.5040 C   0  0  0  0  0  0  0  0  0  0  0  0
  -21.4470  -29.3030   22.3450 N   0  0  0  0  0  0  0  0  0  0  0  0
  -23.4420  -28.8910   23.3260 O   0  0  0  0  0  0  0  0  0  0  0  0
  -20.9600  -29.8610   21.6580 H   0  0  0  0  0  0  0  0  0  0  0  0
  -18.0920  -28.0170   22.7280 C   0  0  0  0  0  0  0  0  0  0  0  0
  -20.6320  -28.3410   23.0850 C   0  0  0  0  0  3  0  0  0  0  0  0
  -20.7920  -26.9150   22.5070 C   0  0  0  0  0  2  0  0  0  0  0  0
  -19.7320  -26.5680   21.4550 C   0  0  0  0  0  2  0  0  0  0  0  0
  -18.3280  -26.6750   22.0550 C   0  0  0  0  0  2  0  0  0  0  0  0
  -19.1760  -28.8060   23.1970 C   0  0  0  0  0  0  0  0  0  0  0  0
  -18.9040  -30.0630   23.7820 C   0  0  0  0  0  3  0  0  0  0  0  0
  -17.5820  -30.5300   23.9040 C   0  0  0  0  0  3  0  0  0  0  0  0
  -16.5130  -29.7380   23.4520 C   0  0  0  0  0  3  0  0  0  0  0  0
  -16.7690  -28.4830   22.8690 C   0  0  0  0  0  3  0  0  0  0  0  0
  -25.8680  -32.5670   23.8920 C   0  0  0  0  0  3  0  0  0  0  0  0
  -25.5550  -33.9640   24.2240 N   0  0  0  0  0  0  0  0  0  0  0  0
  -25.9020  -35.0170   23.4730 C   0  0  0  0  0  0  0  0  0  0  0  0
  -26.5920  -34.9170   22.4540 O   0  0  0  0  0  0  0  0  0  0  0  0
  -24.9470  -34.1170   25.0150 H   0  0  0  0  0  0  0  0  0  0  0  0
  -24.1810  -36.8100   23.0900 C   0  0  0  0  0  1  0  0  0  0  0  0
  -25.4060  -36.4040   23.9250 C   0  0  0  0  0  3  0  0  0  0  0  0
  -27.5250  -37.2840   24.7990 C   0  0  0  0  0  1  0  0  0  0  0  0
  -26.4400  -37.4570   23.8370 N   0  0  0  0  0  0  0  0  0  0  0  0
  -26.0320  -38.3760   23.9820 H   0  0  0  0  0  0  0  0  0  0  0  0
  -26.3700  -31.7880   25.1690 C   0  0  1  0  0  0  0  0  0  0  0  0
  -25.2640  -31.5400   26.2220 C   0  0  0  0  0  1  0  0  0  0  0  0
  -26.9580  -30.4130   24.7720 C   0  0  0  0  0  1  0  0  0  0  0  0
  -27.5110  -32.5780   25.8530 C   0  0  0  0  0  1  0  0  0  0  0  0
  -29.1260  -21.7200   21.5950 C   0  0  0  0  0  2  0  0  0  0  0  0
  -29.3140  -20.2990   21.0410 C   0  0  0  0  0  2  0  0  0  0  0  0
  -31.2120  -19.1430   19.7610 C   0  0  0  0  0  2  0  0  0  0  0  0
  -31.1090  -18.9170   22.2860 C   0  0  0  0  0  2  0  0  0  0  0  0
  -30.6100  -17.7390   19.6200 C   0  0  0  0  0  2  0  0  0  0  0  0
  -30.5650  -17.4830   22.1280 C   0  0  0  0  0  2  0  0  0  0  0  0
  -30.7880  -19.8250   21.0770 C   0  0  0  0  0  3  0  0  0  0  0  0
  -31.0360  -16.8490   20.8070 C   0  0  0  0  0  3  0  0  0  0  0  0
  -31.0830  -14.5080   19.9640 C   0  0  0  0  0  0  0  0  0  0  0  0
  -30.7280  -12.2880   18.9630 C   0  0  0  0  0  2  0  0  0  0  0  0
  -29.7580  -12.3970   17.7720 C   0  0  0  0  0  2  0  0  0  0  0  0
  -28.2950  -12.2950   18.2490 C   0  0  0  0  0  2  0  0  0  0  0  0
  -27.9880  -13.2440   19.4380 C   0  0  0  0  0  3  0  0  0  0  0  0
  -29.0650  -13.1060   20.5370 C   0  0  0  0  0  2  0  0  0  0  0  0
  -30.3840  -13.3460   19.9230 N   0  0  0  0  0  0  0  0  0  0  0  0
  -32.1400  -14.6860   19.3530 O   0  0  0  0  0  0  0  0  0  0  0  0
  -30.5140  -15.4920   20.6750 N   0  0  0  0  0  0  0  0  0  0  0  0
  -29.6470  -15.2720   21.1420 H   0  0  0  0  0  0  0  0  0  0  0  0
  -25.6380  -13.9320   20.2380 C   0  0  0  0  0  0  0  0  0  0  0  0
  -24.5610  -13.1940   20.6490 C   0  0  0  0  0  0  0  0  0  0  0  0
  -24.9760  -11.8280   20.6000 C   0  0  0  0  0  0  0  0  0  0  0  0
  -26.6440  -13.0170   19.9670 N   0  0  0  0  0  0  0  0  0  0  0  0
  -26.2500  -11.7470   20.2390 N   0  0  0  0  0  0  0  0  0  0  0  0
  -24.2180  -10.5890   20.8200 C   0  0  0  0  0  0  0  0  0  0  0  0
  -24.6240   -9.6370   21.7800 C   0  0  0  0  0  3  0  0  0  0  0  0
  -23.8710   -8.4610   21.9850 C   0  0  0  0  0  3  0  0  0  0  0  0
  -22.6970   -8.2300   21.2300 C   0  0  0  0  0  0  0  0  0  0  0  0
  -22.3090   -9.1710   20.2600 C   0  0  0  0  0  3  0  0  0  0  0  0
  -23.0630  -10.3370   20.0530 C   0  0  0  0  0  3  0  0  0  0  0  0
  -21.9160   -7.1050   21.3430 O   0  0  0  0  0  0  0  0  0  0  0  0
  -21.7950   -6.4300   22.5310 C   0  0  0  0  0  0  0  0  0  0  0  0
  -21.3180   -7.0600   23.7010 C   0  0  0  0  0  3  0  0  0  0  0  0
  -21.1430   -6.3110   24.8820 C   0  0  0  0  0  3  0  0  0  0  0  0
  -21.4340   -4.9340   24.8930 C   0  0  0  0  0  0  0  0  0  0  0  0
  -21.9020   -4.3040   23.7270 C   0  0  0  0  0  3  0  0  0  0  0  0
  -22.0790   -5.0490   22.5490 C   0  0  0  0  0  0  0  0  0  0  0  0
  -22.5110   -4.4320   21.4230 F   0  0  0  0  0  0  0  0  0  0  0  0
  -21.2570   -4.2130   26.0260 F   0  0  0  0  0  0  0  0  0  0  0  0
  -23.1920  -13.7150   20.9800 C   0  0  0  0  0  0  0  0  0  0  0  0
  -22.4810  -13.0470   21.8820 N   0  0  0  0  0  0  0  0  0  0  0  0
  -22.7620  -14.7500   20.4720 O   0  0  0  0  0  0  0  0  0  0  0  0
  -22.8400  -12.2090   22.3160 H   0  0  0  0  0  0  0  0  0  0  0  0
  -21.5640  -13.3800   22.1440 H   0  0  0  0  0  0  0  0  0  0  0  0
  -25.8420  -15.2960   20.0540 N   0  0  0  0  0  0  0  0  0  0  0  0
  -25.1060  -15.9790   20.1940 H   0  0  0  0  0  0  0  0  0  0  0  0
  -26.6970  -15.7040   19.6990 H   0  0  0  0  0  0  0  0  0  0  0  0
  1 48  1  0
  1  3  1  0
  3  2  1  0
  3  4  1  1
  5  6  1  0
  5  3  1  0
  7  9  1  0
  7  6  1  0
  8 19  2  0
  9 14  1  0
 10 18  1  0
 10 20  1  0
 11 17  1  0
 11 13  1  0
 12 18  1  0
 13 12  1  0
 14 13  2  0
 15 16  1  0
 15  9  2  0
 16 11  2  0
 17 10  1  0
 18  8  1  0
 20 22  2  0
 21 20  1  0
 23 21  1  0
 24 33  2  0
 24 29  1  0
 25 21  1  0
 25 29  1  0
 26 25  1  0
 27 28  1  0
 27 26  1  0
 28 24  1  0
 29 30  2  0
 30 31  1  0
 32 31  2  0
 33 32  1  0
 34  8  1  0
 34 35  1  0
 34 44  1  0
 35 38  1  0
 36 40  1  0
 36 35  1  0
 37 36  2  0
 40 39  1  0
 42 40  1  0
 42 43  1  0
 42 41  1  0
 44 47  1  1
 44 45  1  0
 46 44  1  0
 49 48  1  0
 50 54  1  0
 52 50  1  0
 52 55  1  0
 53 51  1  0
 54 49  1  0
 54 51  1  0
 55 64  1  0
 55 53  1  0
 56 64  1  0
 57 62  1  0
 58 59  1  0
 58 57  1  0
 60 59  1  0
 60 69  1  0
 60 61  1  0
 62 56  1  0
 62 61  1  0
 63 56  2  0
 64 65  1  0
 66 67  2  0
 67 86  1  0
 68 67  1  0
 68 71  1  0
 69 66  1  0
 69 70  1  0
 70 68  2  0
 71 72  1  0
 72 73  2  0
 74 77  1  0
 74 73  1  0
 75 74  2  0
 76 75  1  0
 76 71  2  0
 77 78  1  0
 78 83  2  0
 78 79  1  0
 79 80  2  0
 80 81  1  0
 81 85  1  0
 82 81  2  0
 83 82  1  0
 84 83  1  0
 86 87  1  0
 87 90  1  0
 87 89  1  0
 88 86  2  0
 91 92  1  0
 91 66  1  0
 93 91  1  0
M  ISO  4   6 101   7 101  56 100  64 100
M  END
>  <TORSDO>  (67) 
F 22

>  <SCORE>  (67) 
-13.123

>  <name>  (67) 
66

>  <ligand_id>  (67) 
66

>  <original_smiles>  (67) 
[H]c1c([H])c([H])c2c(c1[H])C([H])([H])C([H])([H])C([H])([H])C2([H])N([H])C(=O)C1([H])N(C(=O)C([H])(N([H])C(=O)C([H])(N([H])C([H])([H])[H])C([H])([H])[H])C(C([H])([H])[H])(C([H])([H])[H])C([H])([H])[H])C([H])([H])c2c([H])c(OC([H])([H])C([H])([H])[N+]([H])(C([H])([H])[H])C([H])([H])C([H])([H])C([H])([H])C3([H])C([H])([H])C([H])([H])C([H])(N([H])C(=O)N4C([H])([H])C([H])([H])C([H])([H])C([H])(n5nc(-c6c([H])c([H])c(Oc7c([H])c([H])c(F)c([H])c7F)c([H])c6[H])c(C(=O)N([H])[H])c5N([H])[H])C4([H])[H])C([H])([H])C3([H])[H])c([H])c([H])c2C1([H])[H]

>  <smiles>  (67) 
[H]c1c([H])c([H])c2c(c1[H])C([H])([H])C([H])([H])C([H])([H])C2([H])N([H])C(=O)C1([H])N(C(=O)C([H])(N([H])C(=O)C([H])(N([H])C([H])([H])[H])C([H])([H])[H])C(C([H])([H])[H])(C([H])([H])[H])C([H])([H])[H])C([H])([H])c2c([H])c(OC([H])([H])C([H])([H])[N+]([H])(C([H])([H])[H])C([H])([H])C([H])([H])C([H])([H])C3([H])C([H])([H])C([H])([H])C([H])(N([H])C(=O)N4C([H])([H])C([H])([H])C([H])([H])C([H])(n5nc(-c6c([H])c([H])c(Oc7c([H])c([H])c(F)c([H])c7F)c([H])c6[H])c(C(=O)N([H])[H])c5N([H])[H])C4([H])[H])C([H])([H])C3([H])[H])c([H])c([H])c2C1([H])[H]

$$$$
67:0:0
     RDKit          3D

 91100  0  0  1  0  0  0  0  0999 V2000
  -28.8040  -22.3730   20.6360 C   0  0  0  0  0  3  0  0  0  0  0  0
  -26.9840  -21.8880   18.7950 C   0  0  0  0  0  0  0  0  0  0  0  0
  -27.6820  -20.7490   19.2950 C   0  0  0  0  0  0  0  0  0  0  0  0
  -28.7250  -20.7730   20.2500 C   0  0  0  0  0  0  0  0  0  0  0  0
  -28.0170  -23.7460   20.1790 C   0  0  0  0  0  0  0  0  0  0  0  0
  -27.1490  -23.2750   19.1500 C   0  0  0  0  0  0  0  0  0  0  0  0
  -26.0390  -21.4170   17.7650 C   0  0  0  0  0  0  0  0  0  0  0  0
  -27.2250  -19.4720   18.6260 C   0  0  0  0  0  3  0  0  0  0  0  0
  -26.1220  -19.8990   17.6450 C   0  0  0  0  0  3  0  0  0  0  0  0
  -25.2630  -22.0880   17.0780 O   0  0  0  0  0  0  0  0  0  0  0  0
  -26.4880  -24.1920   18.4080 F   0  0  0  0  0  0  0  0  0  0  0  0
  -28.0600  -25.3940   20.4030 O   0  0  0  0  0  0  0  0  0  0  0  0
  -24.6940  -31.9280   23.2600 C   0  0  0  0  0  0  0  0  0  0  0  0
  -27.1110  -26.6700   20.3250 C   0  0  0  0  0  0  0  0  0  0  0  0
  -23.4750  -30.5230   21.6600 C   0  0  0  0  0  3  0  0  0  0  0  0
  -24.8830  -28.8180   20.2650 C   0  0  0  0  0  0  0  0  0  0  0  0
  -26.0610  -30.5910   21.5250 C   0  0  0  0  0  2  0  0  0  0  0  0
  -26.0950  -29.1380   20.8870 C   0  0  0  0  0  0  0  0  0  0  0  0
  -27.1850  -28.0980   20.8820 C   0  0  0  0  0  3  0  0  0  0  0  0
  -25.8480  -26.5890   19.6720 C   0  0  0  0  0  3  0  0  0  0  0  0
  -24.8040  -27.5670   19.6350 C   0  0  0  0  0  3  0  0  0  0  0  0
  -23.6970  -29.7990   20.3000 C   0  0  0  0  0  2  0  0  0  0  0  0
  -24.7710  -31.0490   22.1990 N   0  0  0  0  0  0  0  0  0  0  0  0
  -23.6070  -32.2560   23.7690 O   0  0  0  0  0  0  0  0  0  0  0  0
  -22.7430  -29.5780   22.6530 C   0  0  0  0  0  0  0  0  0  0  0  0
  -21.4120  -29.4100   22.5110 N   0  0  0  0  0  0  0  0  0  0  0  0
  -23.3850  -28.9920   23.5270 O   0  0  0  0  0  0  0  0  0  0  0  0
  -20.9400  -29.9310   21.7860 H   0  0  0  0  0  0  0  0  0  0  0  0
  -18.0390  -28.1270   22.9670 C   0  0  0  0  0  0  0  0  0  0  0  0
  -20.5790  -28.4940   23.3030 C   0  0  0  0  0  3  0  0  0  0  0  0
  -20.7430  -27.0340   22.8170 C   0  0  0  0  0  2  0  0  0  0  0  0
  -19.6910  -26.6220   21.7820 C   0  0  0  0  0  2  0  0  0  0  0  0
  -18.2830  -26.7540   22.3660 C   0  0  0  0  0  2  0  0  0  0  0  0
  -19.1170  -28.9510   23.3910 C   0  0  0  0  0  0  0  0  0  0  0  0
  -18.8310  -30.2300   23.9170 C   0  0  0  0  0  3  0  0  0  0  0  0
  -17.5040  -30.6880   24.0180 C   0  0  0  0  0  3  0  0  0  0  0  0
  -16.4420  -29.8650   23.6060 C   0  0  0  0  0  3  0  0  0  0  0  0
  -16.7100  -28.5860   23.0860 C   0  0  0  0  0  3  0  0  0  0  0  0
  -25.9660  -32.5750   23.8860 C   0  0  0  0  0  3  0  0  0  0  0  0
  -25.6590  -33.9820   24.2130 N   0  0  0  0  0  0  0  0  0  0  0  0
  -25.9690  -35.0400   23.4520 C   0  0  0  0  0  0  0  0  0  0  0  0
  -26.6000  -34.9340   22.3970 O   0  0  0  0  0  0  0  0  0  0  0  0
  -25.0930  -34.1370   25.0340 H   0  0  0  0  0  0  0  0  0  0  0  0
  -24.2260  -36.8440   23.2010 C   0  0  0  0  0  1  0  0  0  0  0  0
  -25.5140  -36.4360   23.9330 C   0  0  0  0  0  3  0  0  0  0  0  0
  -27.6950  -37.3350   24.6260 C   0  0  0  0  0  1  0  0  0  0  0  0
  -26.5390  -37.4890   23.7480 N   0  0  0  0  0  0  0  0  0  0  0  0
  -26.1410  -38.4100   23.9050 H   0  0  0  0  0  0  0  0  0  0  0  0
  -26.4640  -31.8250   25.1850 C   0  0  1  0  0  0  0  0  0  0  0  0
  -25.3620  -31.6280   26.2530 C   0  0  0  0  0  1  0  0  0  0  0  0
  -27.0310  -30.4310   24.8390 C   0  0  0  0  0  1  0  0  0  0  0  0
  -27.6230  -32.6180   25.8340 C   0  0  0  0  0  1  0  0  0  0  0  0
  -29.6160  -19.1030   20.5790 C   0  0  0  0  0  2  0  0  0  0  0  0
  -30.2740  -15.8860   20.3980 C   0  0  0  0  0  0  0  0  0  0  0  0
  -30.4780  -13.3020   19.6160 C   0  0  0  0  0  2  0  0  0  0  0  0
  -29.6370  -12.7790   18.4140 C   0  0  0  0  0  2  0  0  0  0  0  0
  -28.2270  -12.3680   18.8580 C   0  0  0  0  0  2  0  0  0  0  0  0
  -27.6510  -13.3840   19.8680 C   0  0  0  0  0  3  0  0  0  0  0  0
  -28.6430  -13.8060   20.9790 C   0  0  0  0  0  2  0  0  0  0  0  0
  -29.7830  -14.4910   20.3110 N   0  0  0  0  0  0  0  0  0  0  0  0
  -31.5190  -15.8080   20.3200 O   0  0  0  0  0  0  0  0  0  0  0  0
  -29.5030  -17.2830   20.3940 N   0  0  0  0  0  0  0  0  0  0  0  0
  -28.5230  -17.0520   20.3330 H   0  0  0  0  0  0  0  0  0  0  0  0
  -25.2750  -13.8540   20.6190 C   0  0  0  0  0  0  0  0  0  0  0  0
  -24.2270  -13.0500   20.9630 C   0  0  0  0  0  0  0  0  0  0  0  0
  -24.7230  -11.7100   20.9230 C   0  0  0  0  0  0  0  0  0  0  0  0
  -26.3390  -13.0070   20.3770 N   0  0  0  0  0  0  0  0  0  0  0  0
  -26.0210  -11.7090   20.6280 N   0  0  0  0  0  0  0  0  0  0  0  0
  -24.0140  -10.4330   21.0870 C   0  0  0  0  0  0  0  0  0  0  0  0
  -24.4390   -9.4650   22.0250 C   0  0  0  0  0  3  0  0  0  0  0  0
  -23.7250   -8.2580   22.1810 C   0  0  0  0  0  3  0  0  0  0  0  0
  -22.5710   -8.0080   21.4010 C   0  0  0  0  0  0  0  0  0  0  0  0
  -22.1660   -8.9650   20.4530 C   0  0  0  0  0  3  0  0  0  0  0  0
  -22.8810  -10.1640   20.2950 C   0  0  0  0  0  3  0  0  0  0  0  0
  -21.8300   -6.8520   21.4660 O   0  0  0  0  0  0  0  0  0  0  0  0
  -21.7550   -6.1090   22.6170 C   0  0  0  0  0  0  0  0  0  0  0  0
  -21.2620   -6.6530   23.8230 C   0  0  0  0  0  3  0  0  0  0  0  0
  -21.1360   -5.8350   24.9640 C   0  0  0  0  0  3  0  0  0  0  0  0
  -21.4930   -4.4750   24.8990 C   0  0  0  0  0  0  0  0  0  0  0  0
  -21.9780   -3.9310   23.6970 C   0  0  0  0  0  3  0  0  0  0  0  0
  -22.1050   -4.7450   22.5590 C   0  0  0  0  0  0  0  0  0  0  0  0
  -22.5530   -4.2100   21.3970 F   0  0  0  0  0  0  0  0  0  0  0  0
  -21.3640   -3.6870   25.9920 F   0  0  0  0  0  0  0  0  0  0  0  0
  -22.8160  -13.4990   21.2100 C   0  0  0  0  0  0  0  0  0  0  0  0
  -22.0880  -12.7890   22.0630 N   0  0  0  0  0  0  0  0  0  0  0  0
  -22.3690  -14.5170   20.6820 O   0  0  0  0  0  0  0  0  0  0  0  0
  -22.4640  -11.9670   22.5120 H   0  0  0  0  0  0  0  0  0  0  0  0
  -21.1420  -13.0730   22.2740 H   0  0  0  0  0  0  0  0  0  0  0  0
  -25.4080  -15.2290   20.4560 N   0  0  0  0  0  0  0  0  0  0  0  0
  -24.6230  -15.8630   20.5560 H   0  0  0  0  0  0  0  0  0  0  0  0
  -26.2470  -15.6860   20.1220 H   0  0  0  0  0  0  0  0  0  0  0  0
  2  6  2  0
  2  3  1  0
  3  4  2  0
  4 53  1  0
  4  1  1  0
  5 12  1  0
  5  1  2  0
  6  5  1  0
  7  2  1  0
  8  3  1  0
  9  7  1  0
  9  8  2  0
 10  7  2  0
 11  6  1  0
 13 24  2  0
 14 12  1  0
 14 19  1  0
 15 23  1  0
 15 25  1  0
 16 22  1  0
 16 18  1  0
 17 23  1  0
 18 17  1  0
 19 18  2  0
 20 14  2  0
 21 20  1  0
 21 16  2  0
 22 15  1  0
 23 13  1  0
 25 27  2  0
 26 25  1  0
 28 26  1  0
 29 38  2  0
 29 34  1  0
 30 26  1  0
 30 34  1  0
 31 30  1  0
 32 33  1  0
 32 31  1  0
 33 29  1  0
 34 35  2  0
 35 36  1  0
 37 36  2  0
 38 37  1  0
 39 13  1  0
 39 40  1  0
 39 49  1  0
 40 43  1  0
 41 45  1  0
 41 40  1  0
 42 41  2  0
 45 44  1  0
 47 48  1  0
 47 45  1  0
 47 46  1  0
 49 52  1  1
 49 50  1  0
 51 49  1  0
 55 60  1  0
 56 57  1  0
 56 55  1  0
 58 57  1  0
 58 67  1  0
 58 59  1  0
 60 54  1  0
 60 59  1  0
 61 54  2  0
 62 54  1  0
 62 53  1  0
 63 62  1  0
 64 65  2  0
 65 84  1  0
 66 65  1  0
 66 69  1  0
 67 64  1  0
 67 68  1  0
 68 66  2  0
 69 70  1  0
 70 71  2  0
 72 75  1  0
 72 71  1  0
 73 72  2  0
 74 73  1  0
 74 69  2  0
 75 76  1  0
 76 77  1  0
 77 78  2  0
 79 78  1  0
 79 83  1  0
 80 79  2  0
 81 76  2  0
 81 80  1  0
 82 81  1  0
 84 85  1  0
 85 88  1  0
 85 87  1  0
 86 84  2  0
 89 90  1  0
 89 64  1  0
 91 89  1  0
M  ISO  4   5 101  12 101  54 100  62 100
M  END
>  <TORSDO>  (68) 
F 17

>  <SCORE>  (68) 
-16.660

>  <name>  (68) 
67

>  <ligand_id>  (68) 
67

>  <original_smiles>  (68) 
[H]c1c([H])c([H])c2c(c1[H])C([H])([H])C([H])([H])C([H])([H])C2([H])N([H])C(=O)C1([H])N(C(=O)C([H])(N([H])C(=O)C([H])(N([H])C([H])([H])[H])C([H])([H])[H])C(C([H])([H])[H])(C([H])([H])[H])C([H])([H])[H])C([H])([H])c2c([H])c(Oc3c([H])c(C([H])([H])N([H])C(=O)N4C([H])([H])C([H])([H])C([H])([H])C([H])(n5nc(-c6c([H])c([H])c(Oc7c([H])c([H])c(F)c([H])c7F)c([H])c6[H])c(C(=O)N([H])[H])c5N([H])[H])C4([H])[H])c4c(c3F)C(=O)C([H])([H])C4([H])[H])c([H])c([H])c2C1([H])[H]

>  <smiles>  (68) 
[H]c1c([H])c([H])c2c(c1[H])C([H])([H])C([H])([H])C([H])([H])C2([H])N([H])C(=O)C1([H])N(C(=O)C([H])(N([H])C(=O)C([H])(N([H])C([H])([H])[H])C([H])([H])[H])C(C([H])([H])[H])(C([H])([H])[H])C([H])([H])[H])C([H])([H])c2c([H])c(Oc3c([H])c(C([H])([H])N([H])C(=O)N4C([H])([H])C([H])([H])C([H])([H])C([H])(n5nc(-c6c([H])c([H])c(Oc7c([H])c([H])c(F)c([H])c7F)c([H])c6[H])c(C(=O)N([H])[H])c5N([H])[H])C4([H])[H])c4c(c3F)C(=O)C([H])([H])C4([H])[H])c([H])c([H])c2C1([H])[H]

$$$$
68:0:0
     RDKit          3D

 89 97  0  0  1  0  0  0  0  0999 V2000
  -27.7650  -22.8620   17.1770 C   0  0  0  0  0  3  0  0  0  0  0  0
  -27.8390  -24.2400   17.0840 C   0  0  0  0  0  3  0  0  0  0  0  0
  -28.0710  -22.2380   18.3860 C   0  0  0  0  0  3  0  0  0  0  0  0
  -28.0820  -24.9910   18.2340 C   0  0  0  0  0  3  0  0  0  0  0  0
  -28.4390  -22.8820   19.6060 C   0  0  0  0  0  0  0  0  0  0  0  0
  -28.2340  -24.4890   19.5590 C   0  0  0  0  0  0  0  0  0  0  0  0
  -29.0300  -21.6300   20.5690 C   0  0  0  0  0  0  0  0  0  0  0  0
  -29.1070  -20.1690   20.2100 N   0  0  0  0  0  0  0  0  0  0  0  0
  -29.4960  -21.9640   21.6600 O   0  0  0  0  0  0  0  0  0  0  0  0
  -28.6190  -20.0280   19.3370 H   0  0  0  0  0  0  0  0  0  0  0  0
  -29.8750  -18.7260   20.6600 C   0  0  0  0  0  2  0  0  0  0  0  0
  -29.5050  -16.9470   20.4460 C   0  0  0  0  0  2  0  0  0  0  0  0
  -30.4030  -15.4090   20.4420 C   0  0  0  0  0  0  0  0  0  0  0  0
  -30.4860  -12.9370   19.6070 C   0  0  0  0  0  2  0  0  0  0  0  0
  -29.6070  -12.7210   18.3450 C   0  0  0  0  0  2  0  0  0  0  0  0
  -28.1480  -12.4200   18.7320 C   0  0  0  0  0  2  0  0  0  0  0  0
  -27.6440  -13.3730   19.8420 C   0  0  0  0  0  3  0  0  0  0  0  0
  -28.6530  -13.5400   20.9960 C   0  0  0  0  0  2  0  0  0  0  0  0
  -29.9030  -14.0680   20.4200 N   0  0  0  0  0  0  0  0  0  0  0  0
  -31.6300  -15.4250   20.2580 O   0  0  0  0  0  0  0  0  0  0  0  0
  -25.2420  -13.8910   20.5270 C   0  0  0  0  0  0  0  0  0  0  0  0
  -24.1840  -13.0990   20.8710 C   0  0  0  0  0  0  0  0  0  0  0  0
  -24.6750  -11.7560   20.8670 C   0  0  0  0  0  0  0  0  0  0  0  0
  -26.3060  -13.0330   20.3160 N   0  0  0  0  0  0  0  0  0  0  0  0
  -25.9760  -11.7430   20.5890 N   0  0  0  0  0  0  0  0  0  0  0  0
  -23.9640  -10.4830   21.0480 C   0  0  0  0  0  0  0  0  0  0  0  0
  -24.3740   -9.5350   22.0120 C   0  0  0  0  0  3  0  0  0  0  0  0
  -23.6590   -8.3290   22.1790 C   0  0  0  0  0  3  0  0  0  0  0  0
  -22.5220   -8.0610   21.3820 C   0  0  0  0  0  0  0  0  0  0  0  0
  -22.1310   -8.9970   20.4080 C   0  0  0  0  0  3  0  0  0  0  0  0
  -22.8460  -10.1950   20.2390 C   0  0  0  0  0  3  0  0  0  0  0  0
  -21.7810   -6.9060   21.4560 O   0  0  0  0  0  0  0  0  0  0  0  0
  -21.6880   -6.1840   22.6200 C   0  0  0  0  0  0  0  0  0  0  0  0
  -21.1750   -6.7490   23.8080 C   0  0  0  0  0  3  0  0  0  0  0  0
  -21.0320   -5.9520   24.9620 C   0  0  0  0  0  3  0  0  0  0  0  0
  -21.3920   -4.5920   24.9290 C   0  0  0  0  0  0  0  0  0  0  0  0
  -21.8980   -4.0260   23.7460 C   0  0  0  0  0  3  0  0  0  0  0  0
  -22.0430   -4.8190   22.5940 C   0  0  0  0  0  0  0  0  0  0  0  0
  -22.5100   -4.2630   21.4500 F   0  0  0  0  0  0  0  0  0  0  0  0
  -21.2480   -3.8250   26.0350 F   0  0  0  0  0  0  0  0  0  0  0  0
  -22.7700  -13.5520   21.0920 C   0  0  0  0  0  0  0  0  0  0  0  0
  -22.0240  -12.8500   21.9370 N   0  0  0  0  0  0  0  0  0  0  0  0
  -22.3340  -14.5680   20.5520 O   0  0  0  0  0  0  0  0  0  0  0  0
  -22.3890  -12.0300   22.3990 H   0  0  0  0  0  0  0  0  0  0  0  0
  -21.0730  -13.1360   22.1250 H   0  0  0  0  0  0  0  0  0  0  0  0
  -25.3900  -15.2640   20.3440 N   0  0  0  0  0  0  0  0  0  0  0  0
  -24.6170  -15.9140   20.4360 H   0  0  0  0  0  0  0  0  0  0  0  0
  -26.2480  -15.7090   20.0470 H   0  0  0  0  0  0  0  0  0  0  0  0
  -28.1930  -25.8090   20.3590 O   0  0  0  0  0  0  0  0  0  0  0  0
  -24.6460  -31.9010   23.2460 C   0  0  0  0  0  0  0  0  0  0  0  0
  -27.2150  -26.9640   20.2640 C   0  0  0  0  0  0  0  0  0  0  0  0
  -23.4580  -30.4890   21.6210 C   0  0  0  0  0  3  0  0  0  0  0  0
  -24.9130  -28.8740   20.2160 C   0  0  0  0  0  0  0  0  0  0  0  0
  -26.0300  -30.6910   21.4780 C   0  0  0  0  0  2  0  0  0  0  0  0
  -26.1050  -29.2720   20.8320 C   0  0  0  0  0  0  0  0  0  0  0  0
  -27.2460  -28.3390   20.8370 C   0  0  0  0  0  3  0  0  0  0  0  0
  -25.9720  -26.7270   19.6270 C   0  0  0  0  0  3  0  0  0  0  0  0
  -24.8730  -27.6200   19.5930 C   0  0  0  0  0  3  0  0  0  0  0  0
  -23.6940  -29.7970   20.2510 C   0  0  0  0  0  2  0  0  0  0  0  0
  -24.7340  -31.0550   22.1680 N   0  0  0  0  0  0  0  0  0  0  0  0
  -23.5540  -32.1950   23.7610 O   0  0  0  0  0  0  0  0  0  0  0  0
  -22.7590  -29.5030   22.5930 C   0  0  0  0  0  0  0  0  0  0  0  0
  -21.4300  -29.3330   22.4630 N   0  0  0  0  0  0  0  0  0  0  0  0
  -23.4210  -28.8920   23.4360 O   0  0  0  0  0  0  0  0  0  0  0  0
  -20.9470  -29.8760   21.7610 H   0  0  0  0  0  0  0  0  0  0  0  0
  -18.0500  -28.0980   22.9580 C   0  0  0  0  0  0  0  0  0  0  0  0
  -20.6060  -28.3990   23.2400 C   0  0  0  0  0  3  0  0  0  0  0  0
  -20.7280  -26.9590   22.6900 C   0  0  0  0  0  2  0  0  0  0  0  0
  -19.6400  -26.6080   21.6700 C   0  0  0  0  0  2  0  0  0  0  0  0
  -18.2500  -26.7420   22.2990 C   0  0  0  0  0  2  0  0  0  0  0  0
  -19.1560  -28.8820   23.3850 C   0  0  0  0  0  0  0  0  0  0  0  0
  -18.9120  -30.1470   23.9630 C   0  0  0  0  0  3  0  0  0  0  0  0
  -17.6000  -30.6300   24.1160 C   0  0  0  0  0  3  0  0  0  0  0  0
  -16.5090  -29.8430   23.7030 C   0  0  0  0  0  3  0  0  0  0  0  0
  -16.7350  -28.5790   23.1310 C   0  0  0  0  0  3  0  0  0  0  0  0
  -25.9120  -32.5550   23.8770 C   0  0  0  0  0  3  0  0  0  0  0  0
  -26.4070  -31.8100   25.1800 C   0  0  1  0  0  0  0  0  0  0  0  0
  -25.2980  -31.6000   26.2370 C   0  0  0  0  0  1  0  0  0  0  0  0
  -26.9890  -30.4200   24.8340 C   0  0  0  0  0  1  0  0  0  0  0  0
  -27.5500  -32.6150   25.8410 C   0  0  0  0  0  1  0  0  0  0  0  0
  -25.5950  -33.9600   24.1890 N   0  0  0  0  0  0  0  0  0  0  0  0
  -25.9460  -35.0130   23.4380 C   0  0  0  0  0  0  0  0  0  0  0  0
  -26.6360  -34.9030   22.4220 O   0  0  0  0  0  0  0  0  0  0  0  0
  -24.9870  -34.1190   24.9790 H   0  0  0  0  0  0  0  0  0  0  0  0
  -24.2510  -36.8320   23.0350 C   0  0  0  0  0  1  0  0  0  0  0  0
  -25.4630  -36.4090   23.8830 C   0  0  0  0  0  3  0  0  0  0  0  0
  -27.5780  -37.2750   24.7830 C   0  0  0  0  0  1  0  0  0  0  0  0
  -26.5100  -37.4520   23.8030 N   0  0  0  0  0  0  0  0  0  0  0  0
  -26.1090  -38.3770   23.9340 H   0  0  0  0  0  0  0  0  0  0  0  0
  1  3  1  0
  2  1  2  0
  2  4  1  0
  3  5  2  0
  4  6  2  0
  5  7  1  0
  6  5  1  0
  6 49  1  0
  7  9  2  0
  8  7  1  0
  8 11  1  0
 10  8  1  0
 12 11  1  0
 13 12  1  0
 14 19  1  0
 15 16  1  0
 15 14  1  0
 17 16  1  0
 17 24  1  0
 17 18  1  0
 19 13  1  0
 19 18  1  0
 20 13  2  0
 21 22  2  0
 22 41  1  0
 23 22  1  0
 23 26  1  0
 24 21  1  0
 24 25  1  0
 25 23  2  0
 26 27  1  0
 27 28  2  0
 29 32  1  0
 29 28  1  0
 30 29  2  0
 31 30  1  0
 31 26  2  0
 32 33  1  0
 33 34  1  0
 34 35  2  0
 36 35  1  0
 36 40  1  0
 37 36  2  0
 38 33  2  0
 38 37  1  0
 39 38  1  0
 41 42  1  0
 42 45  1  0
 42 44  1  0
 43 41  2  0
 46 47  1  0
 46 21  1  0
 48 46  1  0
 50 61  2  0
 51 49  1  0
 51 56  1  0
 52 60  1  0
 52 62  1  0
 53 59  1  0
 53 55  1  0
 54 60  1  0
 55 56  2  0
 55 54  1  0
 57 51  2  0
 58 57  1  0
 58 53  2  0
 59 52  1  0
 60 50  1  0
 62 64  2  0
 63 62  1  0
 65 63  1  0
 66 75  2  0
 66 71  1  0
 67 63  1  0
 67 71  1  0
 68 67  1  0
 69 70  1  0
 69 68  1  0
 70 66  1  0
 71 72  2  0
 72 73  1  0
 74 73  2  0
 75 74  1  0
 76 50  1  0
 76 81  1  0
 76 77  1  0
 77 80  1  1
 77 78  1  0
 79 77  1  0
 81 84  1  0
 82 86  1  0
 82 81  1  0
 83 82  2  0
 86 85  1  0
 88 86  1  0
 88 89  1  0
 88 87  1  0
M  ISO  4   6 101  12 100  13 100  49 101
M  END
>  <TORSDO>  (69) 
F 19

>  <SCORE>  (69) 
-14.784

>  <name>  (69) 
68

>  <ligand_id>  (69) 
68

>  <original_smiles>  (69) 
[H]c1c([H])c([H])c(C(=O)N([H])C([H])([H])C([H])([H])C(=O)N2C([H])([H])C([H])([H])C([H])([H])C([H])(n3nc(-c4c([H])c([H])c(Oc5c([H])c([H])c(F)c([H])c5F)c([H])c4[H])c(C(=O)N([H])[H])c3N([H])[H])C2([H])[H])c(Oc2c([H])c([H])c3c(c2[H])C([H])([H])N(C(=O)C([H])(N([H])C(=O)C([H])(N([H])C([H])([H])[H])C([H])([H])[H])C(C([H])([H])[H])(C([H])([H])[H])C([H])([H])[H])C([H])(C(=O)N([H])C2([H])c4c([H])c([H])c([H])c([H])c4C([H])([H])C([H])([H])C2([H])[H])C3([H])[H])c1[H]

>  <smiles>  (69) 
[H]c1c([H])c([H])c(C(=O)N([H])C([H])([H])C([H])([H])C(=O)N2C([H])([H])C([H])([H])C([H])([H])C([H])(n3nc(-c4c([H])c([H])c(Oc5c([H])c([H])c(F)c([H])c5F)c([H])c4[H])c(C(=O)N([H])[H])c3N([H])[H])C2([H])[H])c(Oc2c([H])c([H])c3c(c2[H])C([H])([H])N(C(=O)C([H])(N([H])C(=O)C([H])(N([H])C([H])([H])[H])C([H])([H])[H])C(C([H])([H])[H])(C([H])([H])[H])C([H])([H])[H])C([H])(C(=O)N([H])C2([H])c4c([H])c([H])c([H])c([H])c4C([H])([H])C([H])([H])C2([H])[H])C3([H])[H])c1[H]

$$$$
69:0:0
     RDKit          3D

 90 99  0  0  1  0  0  0  0  0999 V2000
  -29.1210  -18.1360   20.2840 C   0  0  0  0  0  3  0  0  0  0  0  0
  -29.9200  -20.2960   18.6440 C   0  0  0  0  0  0  0  0  0  0  0  0
  -30.1030  -17.5490   19.3630 C   0  0  0  0  0  0  0  0  0  0  0  0
  -28.9630  -20.7490   19.6050 C   0  0  0  0  0  0  0  0  0  0  0  0
  -28.6150  -19.5520   20.4040 C   0  0  0  0  0  0  0  0  0  0  0  0
  -30.4550  -18.8170   18.5550 C   0  0  0  0  0  0  0  0  0  0  0  0
  -30.3360  -21.6080   17.8510 C   0  0  0  0  0  0  0  0  0  0  0  0
  -28.3700  -22.4040   19.7710 C   0  0  0  0  0  2  0  0  0  0  0  0
  -29.4510  -23.0060   17.6840 C   0  0  0  0  0  2  0  0  0  0  0  0
  -28.8100  -23.8940   18.9020 C   0  0  0  0  0  3  0  0  0  0  0  0
  -27.6180  -19.8110   21.5190 C   0  0  0  0  0  1  0  0  0  0  0  0
  -31.4910  -18.5610   17.4720 C   0  0  0  0  0  1  0  0  0  0  0  0
  -31.4210  -21.6190   17.2650 O   0  0  0  0  0  0  0  0  0  0  0  0
  -30.7930  -15.8910   19.3540 C   0  0  0  0  0  0  0  0  0  0  0  0
  -30.8970  -13.2720   18.8040 C   0  0  0  0  0  2  0  0  0  0  0  0
  -29.9490  -12.7660   17.6780 C   0  0  0  0  0  2  0  0  0  0  0  0
  -28.5630  -12.4240   18.2420 C   0  0  0  0  0  2  0  0  0  0  0  0
  -28.0970  -13.4950   19.2560 C   0  0  0  0  0  3  0  0  0  0  0  0
  -29.1820  -13.9290   20.2670 C   0  0  0  0  0  2  0  0  0  0  0  0
  -30.3050  -14.5110   19.4990 N   0  0  0  0  0  0  0  0  0  0  0  0
  -31.9960  -15.7840   19.0410 O   0  0  0  0  0  0  0  0  0  0  0  0
  -25.8600  -14.0500   20.3130 C   0  0  0  0  0  0  0  0  0  0  0  0
  -24.8190  -13.2840   20.7500 C   0  0  0  0  0  0  0  0  0  0  0  0
  -25.2300  -11.9240   20.5890 C   0  0  0  0  0  0  0  0  0  0  0  0
  -26.8350  -13.1640   19.8980 N   0  0  0  0  0  0  0  0  0  0  0  0
  -26.4780  -11.8710   20.1290 N   0  0  0  0  0  0  0  0  0  0  0  0
  -24.4780  -10.6760   20.7880 C   0  0  0  0  0  0  0  0  0  0  0  0
  -24.9160   -9.6830   21.6920 C   0  0  0  0  0  3  0  0  0  0  0  0
  -24.1600   -8.5050   21.8830 C   0  0  0  0  0  3  0  0  0  0  0  0
  -22.9540   -8.3120   21.1700 C   0  0  0  0  0  0  0  0  0  0  0  0
  -22.5340   -9.2930   20.2550 C   0  0  0  0  0  3  0  0  0  0  0  0
  -23.2890  -10.4620   20.0620 C   0  0  0  0  0  3  0  0  0  0  0  0
  -22.1700   -7.1870   21.2700 O   0  0  0  0  0  0  0  0  0  0  0  0
  -22.0480   -6.4980   22.4500 C   0  0  0  0  0  0  0  0  0  0  0  0
  -21.5140   -7.0960   23.6110 C   0  0  0  0  0  3  0  0  0  0  0  0
  -21.3420   -6.3310   24.7830 C   0  0  0  0  0  3  0  0  0  0  0  0
  -21.6930   -4.9680   24.7920 C   0  0  0  0  0  0  0  0  0  0  0  0
  -22.2200   -4.3690   23.6350 C   0  0  0  0  0  3  0  0  0  0  0  0
  -22.3940   -5.1310   22.4660 C   0  0  0  0  0  0  0  0  0  0  0  0
  -22.8820   -4.5420   21.3480 F   0  0  0  0  0  0  0  0  0  0  0  0
  -21.5210   -4.2310   25.9140 F   0  0  0  0  0  0  0  0  0  0  0  0
  -23.4780  -13.7910   21.1940 C   0  0  0  0  0  0  0  0  0  0  0  0
  -22.8270  -13.0810   22.1080 N   0  0  0  0  0  0  0  0  0  0  0  0
  -23.0240  -14.8510   20.7670 O   0  0  0  0  0  0  0  0  0  0  0  0
  -23.2120  -12.2240   22.4770 H   0  0  0  0  0  0  0  0  0  0  0  0
  -21.9310  -13.4020   22.4460 H   0  0  0  0  0  0  0  0  0  0  0  0
  -26.0520  -15.4240   20.2020 N   0  0  0  0  0  0  0  0  0  0  0  0
  -25.3220  -16.0880   20.4430 H   0  0  0  0  0  0  0  0  0  0  0  0
  -26.8760  -15.8650   19.8180 H   0  0  0  0  0  0  0  0  0  0  0  0
  -28.5470  -25.6760   18.9100 O   0  0  0  0  0  0  0  0  0  0  0  0
  -25.0000  -31.5050   22.6340 C   0  0  0  0  0  0  0  0  0  0  0  0
  -27.5020  -26.8350   18.9900 C   0  0  0  0  0  0  0  0  0  0  0  0
  -23.7720  -30.2690   20.8980 C   0  0  0  0  0  3  0  0  0  0  0  0
  -25.1900  -28.8190   19.2490 C   0  0  0  0  0  0  0  0  0  0  0  0
  -26.3390  -30.4840   20.6890 C   0  0  0  0  0  2  0  0  0  0  0  0
  -26.4020  -29.1320   19.8730 C   0  0  0  0  0  0  0  0  0  0  0  0
  -27.5350  -28.1720   19.7120 C   0  0  0  0  0  3  0  0  0  0  0  0
  -26.2480  -26.7400   18.3330 C   0  0  0  0  0  3  0  0  0  0  0  0
  -25.1530  -27.6560   18.4550 C   0  0  0  0  0  3  0  0  0  0  0  0
  -23.9670  -29.7320   19.4480 C   0  0  0  0  0  2  0  0  0  0  0  0
  -25.0630  -30.7830   21.4610 N   0  0  0  0  0  0  0  0  0  0  0  0
  -23.9240  -31.7180   23.2180 O   0  0  0  0  0  0  0  0  0  0  0  0
  -23.1180  -29.1730   21.7840 C   0  0  0  0  0  0  0  0  0  0  0  0
  -21.7800  -29.0370   21.7380 N   0  0  0  0  0  0  0  0  0  0  0  0
  -23.8270  -28.4480   22.4860 O   0  0  0  0  0  0  0  0  0  0  0  0
  -21.2570  -29.6760   21.1550 H   0  0  0  0  0  0  0  0  0  0  0  0
  -18.4180  -27.8450   22.4430 C   0  0  0  0  0  0  0  0  0  0  0  0
  -21.0020  -28.0050   22.4360 C   0  0  0  0  0  3  0  0  0  0  0  0
  -20.9720  -26.6880   21.6250 C   0  0  0  0  0  2  0  0  0  0  0  0
  -19.7500  -26.5700   20.7100 C   0  0  0  0  0  2  0  0  0  0  0  0
  -18.4580  -26.6310   21.5300 C   0  0  0  0  0  2  0  0  0  0  0  0
  -19.6090  -28.4990   22.8550 C   0  0  0  0  0  0  0  0  0  0  0  0
  -19.5110  -29.6390   23.6830 C   0  0  0  0  0  3  0  0  0  0  0  0
  -18.2550  -30.1250   24.0950 C   0  0  0  0  0  3  0  0  0  0  0  0
  -17.0800  -29.4660   23.6930 C   0  0  0  0  0  3  0  0  0  0  0  0
  -17.1640  -28.3260   22.8740 C   0  0  0  0  0  3  0  0  0  0  0  0
  -26.2760  -32.1130   23.2940 C   0  0  0  0  0  3  0  0  0  0  0  0
  -25.9100  -33.4100   23.8990 N   0  0  0  0  0  0  0  0  0  0  0  0
  -26.1440  -34.6110   23.3560 C   0  0  0  0  0  0  0  0  0  0  0  0
  -26.7490  -34.7500   22.2900 O   0  0  0  0  0  0  0  0  0  0  0  0
  -25.3600  -33.3690   24.7450 H   0  0  0  0  0  0  0  0  0  0  0  0
  -24.3260  -36.3540   23.4740 C   0  0  0  0  0  1  0  0  0  0  0  0
  -25.6340  -35.8580   24.1120 C   0  0  0  0  0  3  0  0  0  0  0  0
  -27.7710  -36.6910   24.9940 C   0  0  0  0  0  1  0  0  0  0  0  0
  -26.6120  -36.9690   24.1510 N   0  0  0  0  0  0  0  0  0  0  0  0
  -26.1740  -37.8220   24.4880 H   0  0  0  0  0  0  0  0  0  0  0  0
  -26.9110  -31.1720   24.3940 C   0  0  1  0  0  0  0  0  0  0  0  0
  -25.9190  -30.7550   25.5060 C   0  0  0  0  0  1  0  0  0  0  0  0
  -27.4720  -29.8790   23.7620 C   0  0  0  0  0  1  0  0  0  0  0  0
  -28.1080  -31.8870   25.0670 C   0  0  0  0  0  1  0  0  0  0  0  0
  1  5  1  0
  2  4  1  0
  3  1  2  0
  4  8  1  0
  4  5  2  0
  5 11  1  0
  6  2  2  0
  6  3  1  0
  7  2  1  0
  9  7  1  0
  9 10  1  0
 10 50  1  0
 10  8  1  0
 12  6  1  0
 13  7  2  0
 14  3  1  0
 14 20  1  0
 15 20  1  0
 16 17  1  0
 16 15  1  0
 18 17  1  0
 18 25  1  0
 18 19  1  0
 20 19  1  0
 21 14  2  0
 22 23  2  0
 23 42  1  0
 24 23  1  0
 24 27  1  0
 25 26  1  0
 25 22  1  0
 26 24  2  0
 27 28  1  0
 28 29  2  0
 30 33  1  0
 30 29  1  0
 31 30  2  0
 32 31  1  0
 32 27  2  0
 33 34  1  0
 34 39  2  0
 34 35  1  0
 35 36  2  0
 36 37  1  0
 37 41  1  0
 38 37  2  0
 39 38  1  0
 40 39  1  0
 42 43  1  0
 43 46  1  0
 43 45  1  0
 44 42  2  0
 47 22  1  0
 47 48  1  0
 49 47  1  0
 50 52  1  0
 51 62  2  0
 52 57  1  0
 53 61  1  0
 53 63  1  0
 54 60  1  0
 54 56  1  0
 55 61  1  0
 56 55  1  0
 57 56  2  0
 58 59  1  0
 58 52  2  0
 59 54  2  0
 60 53  1  0
 61 51  1  0
 63 65  2  0
 64 63  1  0
 66 64  1  0
 67 72  2  0
 67 76  1  0
 68 64  1  0
 68 72  1  0
 69 68  1  0
 70 71  1  0
 70 69  1  0
 71 67  1  0
 72 73  1  0
 73 74  2  0
 75 74  1  0
 76 75  2  0
 77 51  1  0
 77 78  1  0
 77 87  1  0
 78 81  1  0
 79 78  1  0
 79 83  1  0
 80 79  2  0
 83 82  1  0
 83 85  1  0
 85 86  1  0
 85 84  1  0
 87 90  1  1
 87 88  1  0
 89 87  1  0
M  ISO  4   3 100  10 101  14 100  50 101
M  END
>  <TORSDO>  (70) 
F 16

>  <SCORE>  (70) 
-11.225

>  <name>  (70) 
69

>  <ligand_id>  (70) 
69

>  <original_smiles>  (70) 
[H]c1c([H])c([H])c2c(c1[H])C([H])([H])C([H])([H])C([H])([H])C2([H])N([H])C(=O)C1([H])N(C(=O)C([H])(N([H])C(=O)C([H])(N([H])C([H])([H])[H])C([H])([H])[H])C(C([H])([H])[H])(C([H])([H])[H])C([H])([H])[H])C([H])([H])c2c([H])c(OC3([H])C([H])([H])C(=O)c4c(C([H])([H])[H])c(C(=O)N5C([H])([H])C([H])([H])C([H])([H])C([H])(n6nc(-c7c([H])c([H])c(Oc8c([H])c([H])c(F)c([H])c8F)c([H])c7[H])c(C(=O)N([H])[H])c6N([H])[H])C5([H])[H])c([H])c(C([H])([H])[H])c4C3([H])[H])c([H])c([H])c2C1([H])[H]

>  <smiles>  (70) 
[H]c1c([H])c([H])c2c(c1[H])C([H])([H])C([H])([H])C([H])([H])C2([H])N([H])C(=O)C1([H])N(C(=O)C([H])(N([H])C(=O)C([H])(N([H])C([H])([H])[H])C([H])([H])[H])C(C([H])([H])[H])(C([H])([H])[H])C([H])([H])[H])C([H])([H])c2c([H])c(OC3([H])C([H])([H])C(=O)c4c(C([H])([H])[H])c(C(=O)N5C([H])([H])C([H])([H])C([H])([H])C([H])(n6nc(-c7c([H])c([H])c(Oc8c([H])c([H])c(F)c([H])c8F)c([H])c7[H])c(C(=O)N([H])[H])c6N([H])[H])C5([H])[H])c([H])c(C([H])([H])[H])c4C3([H])[H])c([H])c([H])c2C1([H])[H]

$$$$
70:0:0
     RDKit          3D

 91 99  0  0  1  0  0  0  0  0999 V2000
  -28.3510  -21.3060   21.0110 C   0  0  0  0  0  3  0  0  0  0  0  0
  -28.9340  -23.0340   19.0390 C   0  0  0  0  0  3  0  0  0  0  0  0
  -29.0570  -20.4290   20.0120 C   0  0  0  0  0  0  0  0  0  0  0  0
  -29.2970  -21.5360   19.0180 C   0  0  0  0  0  0  0  0  0  0  0  0
  -27.9980  -22.8200   21.0210 C   0  0  0  0  0  0  0  0  0  0  0  0
  -28.2310  -23.9220   20.0160 C   0  0  0  0  0  0  0  0  0  0  0  0
  -30.0750  -21.1190   17.7810 C   0  0  0  0  0  1  0  0  0  0  0  0
  -30.2330  -15.8530   20.1030 C   0  0  0  0  0  0  0  0  0  0  0  0
  -30.3610  -13.2770   19.3320 C   0  0  0  0  0  2  0  0  0  0  0  0
  -29.4720  -12.8060   18.1440 C   0  0  0  0  0  2  0  0  0  0  0  0
  -28.0650  -12.4270   18.6270 C   0  0  0  0  0  2  0  0  0  0  0  0
  -27.5430  -13.4430   19.6670 C   0  0  0  0  0  3  0  0  0  0  0  0
  -28.5770  -13.8220   20.7550 C   0  0  0  0  0  2  0  0  0  0  0  0
  -29.7200  -14.4700   20.0640 N   0  0  0  0  0  0  0  0  0  0  0  0
  -31.4660  -15.7580   19.9300 O   0  0  0  0  0  0  0  0  0  0  0  0
  -29.7950  -18.7760   20.0470 C   0  0  0  0  0  0  0  0  0  0  0  0
  -29.4800  -17.2420   20.1500 N   0  0  0  0  0  0  0  0  0  0  0  0
  -31.0110  -18.9360   19.9120 O   0  0  0  0  0  0  0  0  0  0  0  0
  -28.4870  -17.1050   20.2490 H   0  0  0  0  0  0  0  0  0  0  0  0
  -25.2000  -13.9480   20.4940 C   0  0  0  0  0  0  0  0  0  0  0  0
  -24.1520  -13.1570   20.8690 C   0  0  0  0  0  0  0  0  0  0  0  0
  -24.6280  -11.8110   20.8040 C   0  0  0  0  0  0  0  0  0  0  0  0
  -26.2430  -13.0860   20.2110 N   0  0  0  0  0  0  0  0  0  0  0  0
  -25.9140  -11.7910   20.4660 N   0  0  0  0  0  0  0  0  0  0  0  0
  -23.9070  -10.5420   20.9850 C   0  0  0  0  0  0  0  0  0  0  0  0
  -24.3230   -9.5830   21.9350 C   0  0  0  0  0  3  0  0  0  0  0  0
  -23.5970   -8.3840   22.1060 C   0  0  0  0  0  3  0  0  0  0  0  0
  -22.4420   -8.1350   21.3280 C   0  0  0  0  0  0  0  0  0  0  0  0
  -22.0450   -9.0820   20.3680 C   0  0  0  0  0  3  0  0  0  0  0  0
  -22.7710  -10.2730   20.1950 C   0  0  0  0  0  3  0  0  0  0  0  0
  -21.6900   -6.9870   21.4080 O   0  0  0  0  0  0  0  0  0  0  0  0
  -21.5730   -6.2830   22.5810 C   0  0  0  0  0  0  0  0  0  0  0  0
  -21.0050   -6.8550   23.7390 C   0  0  0  0  0  3  0  0  0  0  0  0
  -20.8400   -6.0750   24.9010 C   0  0  0  0  0  3  0  0  0  0  0  0
  -21.2330   -4.7240   24.9040 C   0  0  0  0  0  0  0  0  0  0  0  0
  -21.7950   -4.1510   23.7490 C   0  0  0  0  0  3  0  0  0  0  0  0
  -21.9610   -4.9280   22.5900 C   0  0  0  0  0  0  0  0  0  0  0  0
  -22.4830   -4.3650   21.4740 F   0  0  0  0  0  0  0  0  0  0  0  0
  -21.0690   -3.9720   26.0180 F   0  0  0  0  0  0  0  0  0  0  0  0
  -22.7580  -13.6240   21.1650 C   0  0  0  0  0  0  0  0  0  0  0  0
  -22.0480  -12.9180   22.0370 N   0  0  0  0  0  0  0  0  0  0  0  0
  -22.3100  -14.6530   20.6600 O   0  0  0  0  0  0  0  0  0  0  0  0
  -22.4270  -12.0870   22.4660 H   0  0  0  0  0  0  0  0  0  0  0  0
  -21.1140  -13.2130   22.2790 H   0  0  0  0  0  0  0  0  0  0  0  0
  -25.3500  -15.3230   20.3340 N   0  0  0  0  0  0  0  0  0  0  0  0
  -24.5760  -15.9660   20.4620 H   0  0  0  0  0  0  0  0  0  0  0  0
  -26.1770  -15.7670   19.9580 H   0  0  0  0  0  0  0  0  0  0  0  0
  -27.3920  -23.2650   22.1940 N   0  0  0  0  0  0  0  0  0  0  0  0
  -26.9000  -22.5920   22.7710 H   0  0  0  0  0  0  0  0  0  0  0  0
  -26.9360  -24.1720   22.1660 H   0  0  0  0  0  0  0  0  0  0  0  0
  -28.1330  -25.5650   20.0490 O   0  0  0  0  0  0  0  0  0  0  0  0
  -24.6040  -31.8420   23.1220 C   0  0  0  0  0  0  0  0  0  0  0  0
  -27.1200  -26.7650   20.0520 C   0  0  0  0  0  0  0  0  0  0  0  0
  -23.4120  -30.4680   21.4690 C   0  0  0  0  0  3  0  0  0  0  0  0
  -24.8540  -28.8290   20.0300 C   0  0  0  0  0  0  0  0  0  0  0  0
  -25.9910  -30.5970   21.3460 C   0  0  0  0  0  2  0  0  0  0  0  0
  -26.0500  -29.1670   20.6720 C   0  0  0  0  0  0  0  0  0  0  0  0
  -27.1610  -28.1640   20.6520 C   0  0  0  0  0  3  0  0  0  0  0  0
  -25.8900  -26.6520   19.3500 C   0  0  0  0  0  3  0  0  0  0  0  0
  -24.8150  -27.5980   19.3470 C   0  0  0  0  0  3  0  0  0  0  0  0
  -23.6490  -29.7860   20.0890 C   0  0  0  0  0  2  0  0  0  0  0  0
  -24.6940  -31.0030   22.0320 N   0  0  0  0  0  0  0  0  0  0  0  0
  -23.5120  -32.1350   23.6400 O   0  0  0  0  0  0  0  0  0  0  0  0
  -22.6960  -29.4790   22.4310 C   0  0  0  0  0  0  0  0  0  0  0  0
  -21.3620  -29.3350   22.3140 N   0  0  0  0  0  0  0  0  0  0  0  0
  -23.3540  -28.8400   23.2540 O   0  0  0  0  0  0  0  0  0  0  0  0
  -20.8800  -29.9010   21.6300 H   0  0  0  0  0  0  0  0  0  0  0  0
  -17.9680  -28.1540   22.8660 C   0  0  0  0  0  0  0  0  0  0  0  0
  -20.5370  -28.3870   23.0760 C   0  0  0  0  0  3  0  0  0  0  0  0
  -20.6070  -26.9710   22.4610 C   0  0  0  0  0  2  0  0  0  0  0  0
  -19.4800  -26.6910   21.4620 C   0  0  0  0  0  2  0  0  0  0  0  0
  -18.1150  -26.8280   22.1400 C   0  0  0  0  0  2  0  0  0  0  0  0
  -19.1040  -28.8950   23.2910 C   0  0  0  0  0  0  0  0  0  0  0  0
  -18.9080  -30.1340   23.9370 C   0  0  0  0  0  3  0  0  0  0  0  0
  -17.6110  -30.6350   24.1570 C   0  0  0  0  0  3  0  0  0  0  0  0
  -16.4910  -29.8950   23.7430 C   0  0  0  0  0  3  0  0  0  0  0  0
  -16.6700  -28.6550   23.1040 C   0  0  0  0  0  3  0  0  0  0  0  0
  -25.8670  -32.4860   23.7710 C   0  0  0  0  0  3  0  0  0  0  0  0
  -25.5440  -33.8820   24.1280 N   0  0  0  0  0  0  0  0  0  0  0  0
  -25.8620  -34.9610   23.4020 C   0  0  0  0  0  0  0  0  0  0  0  0
  -26.5160  -34.8880   22.3580 O   0  0  0  0  0  0  0  0  0  0  0  0
  -24.9570  -34.0120   24.9390 H   0  0  0  0  0  0  0  0  0  0  0  0
  -24.1310  -36.7740   23.1320 C   0  0  0  0  0  1  0  0  0  0  0  0
  -25.3860  -36.3410   23.9070 C   0  0  0  0  0  3  0  0  0  0  0  0
  -27.5270  -37.2190   24.7340 C   0  0  0  0  0  1  0  0  0  0  0  0
  -26.4160  -37.3980   23.8030 N   0  0  0  0  0  0  0  0  0  0  0  0
  -26.0100  -38.3160   23.9670 H   0  0  0  0  0  0  0  0  0  0  0  0
  -26.3660  -31.7110   25.0540 C   0  0  1  0  0  0  0  0  0  0  0  0
  -25.2600  -31.4730   26.1090 C   0  0  0  0  0  1  0  0  0  0  0  0
  -26.9540  -30.3320   24.6780 C   0  0  0  0  0  1  0  0  0  0  0  0
  -27.5110  -32.5020   25.7320 C   0  0  0  0  0  1  0  0  0  0  0  0
  1  5  1  0
  2  6  1  0
  3 16  1  0
  3  1  2  0
  4  2  2  0
  4  3  1  0
  5 48  1  0
  6 51  1  0
  6  5  2  0
  7  4  1  0
  8 17  1  0
  9 14  1  0
 10 11  1  0
 10  9  1  0
 12 11  1  0
 12 23  1  0
 12 13  1  0
 14  8  1  0
 14 13  1  0
 15  8  2  0
 16 17  1  0
 17 19  1  0
 18 16  2  0
 20 21  2  0
 21 40  1  0
 22 21  1  0
 22 25  1  0
 23 24  1  0
 23 20  1  0
 24 22  2  0
 25 26  1  0
 26 27  2  0
 28 31  1  0
 28 27  1  0
 29 28  2  0
 30 29  1  0
 30 25  2  0
 31 32  1  0
 32 37  2  0
 32 33  1  0
 33 34  2  0
 34 35  1  0
 35 39  1  0
 36 35  2  0
 37 36  1  0
 38 37  1  0
 40 41  1  0
 41 44  1  0
 41 43  1  0
 42 40  2  0
 45 46  1  0
 45 20  1  0
 47 45  1  0
 48 49  1  0
 50 48  1  0
 51 53  1  0
 52 63  2  0
 53 58  1  0
 54 62  1  0
 54 64  1  0
 55 61  1  0
 55 57  1  0
 56 62  1  0
 57 56  1  0
 58 57  2  0
 59 53  2  0
 60 59  1  0
 60 55  2  0
 61 54  1  0
 62 52  1  0
 64 66  2  0
 65 64  1  0
 67 65  1  0
 68 77  2  0
 68 73  1  0
 69 65  1  0
 69 73  1  0
 70 69  1  0
 71 72  1  0
 71 70  1  0
 72 68  1  0
 73 74  2  0
 74 75  1  0
 76 75  2  0
 77 76  1  0
 78 52  1  0
 78 79  1  0
 78 88  1  0
 79 82  1  0
 80 84  1  0
 80 79  1  0
 81 80  2  0
 84 83  1  0
 86 84  1  0
 86 87  1  0
 86 85  1  0
 88 91  1  1
 88 89  1  0
 90 88  1  0
M  ISO  4   6 101   8 100  17 100  51 101
M  END
>  <TORSDO>  (71) 
F 17

>  <SCORE>  (71) 
-15.739

>  <name>  (71) 
70

>  <ligand_id>  (71) 
70

>  <original_smiles>  (71) 
[H]c1c([H])c([H])c2c(c1[H])C([H])([H])C([H])([H])C([H])([H])C2([H])N([H])C(=O)C1([H])N(C(=O)C([H])(N([H])C(=O)C([H])(N([H])C([H])([H])[H])C([H])([H])[H])C(C([H])([H])[H])(C([H])([H])[H])C([H])([H])[H])C([H])([H])c2c([H])c(Oc3c([H])c(C([H])([H])[H])c(C(=O)N([H])C(=O)N4C([H])([H])C([H])([H])C([H])([H])C([H])(n5nc(-c6c([H])c([H])c(Oc7c([H])c([H])c(F)c([H])c7F)c([H])c6[H])c(C(=O)N([H])[H])c5N([H])[H])C4([H])[H])c([H])c3N([H])[H])c([H])c([H])c2C1([H])[H]

>  <smiles>  (71) 
[H]c1c([H])c([H])c2c(c1[H])C([H])([H])C([H])([H])C([H])([H])C2([H])N([H])C(=O)C1([H])N(C(=O)C([H])(N([H])C(=O)C([H])(N([H])C([H])([H])[H])C([H])([H])[H])C(C([H])([H])[H])(C([H])([H])[H])C([H])([H])[H])C([H])([H])c2c([H])c(Oc3c([H])c(C([H])([H])[H])c(C(=O)N([H])C(=O)N4C([H])([H])C([H])([H])C([H])([H])C([H])(n5nc(-c6c([H])c([H])c(Oc7c([H])c([H])c(F)c([H])c7F)c([H])c6[H])c(C(=O)N([H])[H])c5N([H])[H])C4([H])[H])c([H])c3N([H])[H])c([H])c([H])c2C1([H])[H]

$$$$
71:0:0
     RDKit          3D

 93101  0  0  1  0  0  0  0  0999 V2000
  -29.3060  -22.2200   21.2980 C   0  0  0  0  0  3  0  0  0  0  0  0
  -28.9580  -23.6580   21.3550 C   0  0  0  0  0  3  0  0  0  0  0  0
  -28.8060  -22.2150   19.0400 C   0  0  0  0  0  3  0  0  0  0  0  0
  -29.2560  -21.3560   20.1260 C   0  0  0  0  0  0  0  0  0  0  0  0
  -28.5570  -24.5130   20.2470 C   0  0  0  0  0  0  0  0  0  0  0  0
  -28.5110  -23.6610   19.0760 C   0  0  0  0  0  0  0  0  0  0  0  0
  -28.2420  -24.2610   17.8900 F   0  0  0  0  0  0  0  0  0  0  0  0
  -28.5100  -26.0250   20.2690 O   0  0  0  0  0  0  0  0  0  0  0  0
  -24.6370  -31.7400   23.0710 C   0  0  0  0  0  0  0  0  0  0  0  0
  -27.4140  -26.9910   20.1860 C   0  0  0  0  0  0  0  0  0  0  0  0
  -23.5190  -30.2940   21.4160 C   0  0  0  0  0  3  0  0  0  0  0  0
  -25.0480  -28.7270   20.0400 C   0  0  0  0  0  0  0  0  0  0  0  0
  -26.0650  -30.6130   21.3070 C   0  0  0  0  0  2  0  0  0  0  0  0
  -26.1970  -29.2010   20.6830 C   0  0  0  0  0  0  0  0  0  0  0  0
  -27.3770  -28.3520   20.7350 C   0  0  0  0  0  3  0  0  0  0  0  0
  -26.2420  -26.6400   19.4860 C   0  0  0  0  0  3  0  0  0  0  0  0
  -25.0910  -27.4650   19.4190 C   0  0  0  0  0  3  0  0  0  0  0  0
  -23.7960  -29.6040   20.0500 C   0  0  0  0  0  2  0  0  0  0  0  0
  -24.7590  -30.9050   21.9920 N   0  0  0  0  0  0  0  0  0  0  0  0
  -23.5330  -32.0000   23.5690 O   0  0  0  0  0  0  0  0  0  0  0  0
  -22.8410  -29.2830   22.3750 C   0  0  0  0  0  0  0  0  0  0  0  0
  -21.5140  -29.1020   22.2430 N   0  0  0  0  0  0  0  0  0  0  0  0
  -23.5100  -28.6650   23.2050 O   0  0  0  0  0  0  0  0  0  0  0  0
  -21.0240  -29.6630   21.5600 H   0  0  0  0  0  0  0  0  0  0  0  0
  -18.1450  -27.8650   22.7400 C   0  0  0  0  0  0  0  0  0  0  0  0
  -20.7010  -28.1470   23.0030 C   0  0  0  0  0  3  0  0  0  0  0  0
  -20.8110  -26.7230   22.4120 C   0  0  0  0  0  2  0  0  0  0  0  0
  -19.7110  -26.4020   21.3960 C   0  0  0  0  0  2  0  0  0  0  0  0
  -18.3300  -26.5260   22.0460 C   0  0  0  0  0  2  0  0  0  0  0  0
  -19.2570  -28.6340   23.1750 C   0  0  0  0  0  0  0  0  0  0  0  0
  -19.0260  -29.8860   23.7830 C   0  0  0  0  0  3  0  0  0  0  0  0
  -17.7170  -30.3720   23.9570 C   0  0  0  0  0  3  0  0  0  0  0  0
  -16.6200  -29.6010   23.5360 C   0  0  0  0  0  3  0  0  0  0  0  0
  -16.8340  -28.3480   22.9350 C   0  0  0  0  0  3  0  0  0  0  0  0
  -25.8790  -32.4210   23.7220 C   0  0  0  0  0  3  0  0  0  0  0  0
  -25.5070  -33.8020   24.0720 N   0  0  0  0  0  0  0  0  0  0  0  0
  -25.8310  -34.8880   23.3570 C   0  0  0  0  0  0  0  0  0  0  0  0
  -26.5440  -34.8350   22.3500 O   0  0  0  0  0  0  0  0  0  0  0  0
  -24.8840  -33.9130   24.8590 H   0  0  0  0  0  0  0  0  0  0  0  0
  -24.0620  -36.6400   22.9840 C   0  0  0  0  0  1  0  0  0  0  0  0
  -25.2820  -36.2490   23.8340 C   0  0  0  0  0  3  0  0  0  0  0  0
  -27.3530  -37.1750   24.7730 C   0  0  0  0  0  1  0  0  0  0  0  0
  -26.2840  -37.3370   23.7920 N   0  0  0  0  0  0  0  0  0  0  0  0
  -25.8420  -38.2380   23.9560 H   0  0  0  0  0  0  0  0  0  0  0  0
  -26.4010  -31.6570   25.0000 C   0  0  1  0  0  0  0  0  0  0  0  0
  -25.2980  -31.3610   26.0440 C   0  0  0  0  0  1  0  0  0  0  0  0
  -27.0510  -30.3100   24.6050 C   0  0  0  0  0  1  0  0  0  0  0  0
  -27.5010  -32.4900   25.6990 C   0  0  0  0  0  1  0  0  0  0  0  0
  -29.9290  -19.7900   19.8620 C   0  0  0  0  0  2  0  0  0  0  0  0
  -29.9760  -18.2050   20.6240 C   0  0  2  0  0  0  0  0  0  0  0  0
  -28.6300  -18.0070   21.2090 N   0  0  0  0  0  4  0  0  0  0  0  0
  -27.9380  -18.0410   20.4800 H   0  0  0  0  0  0  0  0  0  0  0  0
  -28.4090  -18.7310   21.8720 H   0  0  0  0  0  0  0  0  0  0  0  0
  -28.5480  -17.1240   21.6850 H   0  0  0  0  0  0  0  0  0  0  0  0
  -30.8930  -19.3000   22.8270 C   0  0  0  0  0  1  0  0  0  0  0  0
  -31.0390  -18.2020   21.7610 C   0  0  0  0  0  2  0  0  0  0  0  0
  -30.2730  -16.7360   19.7110 C   0  0  0  0  0  2  0  0  0  0  0  0
  -30.9100  -15.1540   19.9550 C   0  0  0  0  0  0  0  0  0  0  0  0
  -30.6680  -12.7990   18.9670 C   0  0  0  0  0  2  0  0  0  0  0  0
  -29.6810  -12.7860   17.7730 C   0  0  0  0  0  2  0  0  0  0  0  0
  -28.2440  -12.5600   18.2710 C   0  0  0  0  0  2  0  0  0  0  0  0
  -27.9020  -13.4770   19.4660 C   0  0  0  0  0  3  0  0  0  0  0  0
  -29.0120  -13.5090   20.5350 C   0  0  0  0  0  2  0  0  0  0  0  0
  -30.2540  -13.9110   19.8780 N   0  0  0  0  0  0  0  0  0  0  0  0
  -32.1330  -15.0550   19.7920 O   0  0  0  0  0  0  0  0  0  0  0  0
  -25.5950  -14.0670   20.3610 C   0  0  0  0  0  0  0  0  0  0  0  0
  -24.5310  -13.3030   20.7630 C   0  0  0  0  0  0  0  0  0  0  0  0
  -24.9670  -11.9480   20.6860 C   0  0  0  0  0  0  0  0  0  0  0  0
  -26.6000  -13.1750   20.0450 N   0  0  0  0  0  0  0  0  0  0  0  0
  -26.2430  -11.8910   20.3150 N   0  0  0  0  0  0  0  0  0  0  0  0
  -24.2220  -10.6930   20.8830 C   0  0  0  0  0  0  0  0  0  0  0  0
  -24.6190   -9.7360   21.8430 C   0  0  0  0  0  3  0  0  0  0  0  0
  -23.8710   -8.5520   22.0260 C   0  0  0  0  0  3  0  0  0  0  0  0
  -22.7110   -8.3190   21.2510 C   0  0  0  0  0  0  0  0  0  0  0  0
  -22.3330   -9.2640   20.2810 C   0  0  0  0  0  3  0  0  0  0  0  0
  -23.0830  -10.4380   20.0950 C   0  0  0  0  0  3  0  0  0  0  0  0
  -21.9310   -7.1910   21.3490 O   0  0  0  0  0  0  0  0  0  0  0  0
  -21.7860   -6.5190   22.5360 C   0  0  0  0  0  0  0  0  0  0  0  0
  -21.2750   -7.1490   23.6910 C   0  0  0  0  0  3  0  0  0  0  0  0
  -21.0750   -6.4030   24.8700 C   0  0  0  0  0  3  0  0  0  0  0  0
  -21.3790   -5.0290   24.8950 C   0  0  0  0  0  0  0  0  0  0  0  0
  -21.8810   -4.3990   23.7440 C   0  0  0  0  0  3  0  0  0  0  0  0
  -22.0840   -5.1420   22.5680 C   0  0  0  0  0  0  0  0  0  0  0  0
  -22.5500   -4.5230   21.4570 F   0  0  0  0  0  0  0  0  0  0  0  0
  -21.1760   -4.3120   26.0260 F   0  0  0  0  0  0  0  0  0  0  0  0
  -23.1550  -13.8060   21.0780 C   0  0  0  0  0  0  0  0  0  0  0  0
  -22.4480  -13.1370   21.9820 N   0  0  0  0  0  0  0  0  0  0  0  0
  -22.7180  -14.8280   20.5510 O   0  0  0  0  0  0  0  0  0  0  0  0
  -22.8120  -12.3080   22.4250 H   0  0  0  0  0  0  0  0  0  0  0  0
  -21.5250  -13.4650   22.2280 H   0  0  0  0  0  0  0  0  0  0  0  0
  -25.7850  -15.4330   20.1870 N   0  0  0  0  0  0  0  0  0  0  0  0
  -24.9410  -15.9970   20.1670 H   0  0  0  0  0  0  0  0  0  0  0  0
  -26.4060  -15.6630   19.4250 H   0  0  0  0  0  0  0  0  0  0  0  0
  1  2  1  0
  3  6  2  0
  3  4  1  0
  4  1  2  0
  5  8  1  0
  5  2  2  0
  6  5  1  0
  7  6  1  0
  9 20  2  0
 10  8  1  0
 10 15  1  0
 11 19  1  0
 11 21  1  0
 12 18  1  0
 12 14  1  0
 13 19  1  0
 14 15  2  0
 14 13  1  0
 16 10  2  0
 17 16  1  0
 17 12  2  0
 18 11  1  0
 19  9  1  0
 21 23  2  0
 22 21  1  0
 24 22  1  0
 25 34  2  0
 25 30  1  0
 26 22  1  0
 26 30  1  0
 27 26  1  0
 28 29  1  0
 28 27  1  0
 29 25  1  0
 30 31  2  0
 31 32  1  0
 33 32  2  0
 34 33  1  0
 35  9  1  0
 35 36  1  0
 35 45  1  0
 36 39  1  0
 37 41  1  0
 37 36  1  0
 38 37  2  0
 41 40  1  0
 43 41  1  0
 43 44  1  0
 43 42  1  0
 45 48  1  1
 45 46  1  0
 47 45  1  0
 49  4  1  0
 50 49  1  6
 50 57  1  0
 50 51  1  0
 50 56  1  0
 51 54  1  0
 51 53  1  0
 52 51  1  0
 56 55  1  0
 57 58  1  0
 59 64  1  0
 60 61  1  0
 60 59  1  0
 62 61  1  0
 62 69  1  0
 62 63  1  0
 64 58  1  0
 64 63  1  0
 65 58  2  0
 66 67  2  0
 67 86  1  0
 68 67  1  0
 68 71  1  0
 69 70  1  0
 69 66  1  0
 70 68  2  0
 71 72  1  0
 72 73  2  0
 74 77  1  0
 74 73  1  0
 75 74  2  0
 76 75  1  0
 76 71  2  0
 77 78  1  0
 78 83  2  0
 78 79  1  0
 79 80  2  0
 80 81  1  0
 81 85  1  0
 82 81  2  0
 83 82  1  0
 84 83  1  0
 86 87  1  0
 87 90  1  0
 87 89  1  0
 88 86  2  0
 91 66  1  0
 92 91  1  0
 93 91  1  0
M  ISO  4   5 101   8 101  57 100  58 100
M  END
>  <TORSDO>  (72) 
F 21

>  <SCORE>  (72) 
-14.649

>  <name>  (72) 
71

>  <ligand_id>  (72) 
71

>  <original_smiles>  (72) 
[H]c1c([H])c([H])c2c(c1[H])C([H])([H])C([H])([H])C([H])([H])C2([H])N([H])C(=O)C1([H])N(C(=O)C([H])(N([H])C(=O)C([H])(N([H])C([H])([H])[H])C([H])([H])[H])C(C([H])([H])[H])(C([H])([H])[H])C([H])([H])[H])C([H])([H])c2c([H])c(Oc3c([H])c([H])c(C([H])([H])C(C([H])([H])C(=O)N4C([H])([H])C([H])([H])C([H])([H])C([H])(n5nc(-c6c([H])c([H])c(Oc7c([H])c([H])c(F)c([H])c7F)c([H])c6[H])c(C(=O)N([H])[H])c5N([H])[H])C4([H])[H])(C([H])([H])C([H])([H])[H])[N+]([H])([H])[H])c([H])c3F)c([H])c([H])c2C1([H])[H]

>  <smiles>  (72) 
[H]c1c([H])c([H])c2c(c1[H])C([H])([H])C([H])([H])C([H])([H])C2([H])N([H])C(=O)C1([H])N(C(=O)C([H])(N([H])C(=O)C([H])(N([H])C([H])([H])[H])C([H])([H])[H])C(C([H])([H])[H])(C([H])([H])[H])C([H])([H])[H])C([H])([H])c2c([H])c(Oc3c([H])c([H])c(C([H])([H])C(C([H])([H])C(=O)N4C([H])([H])C([H])([H])C([H])([H])C([H])(n5nc(-c6c([H])c([H])c(Oc7c([H])c([H])c(F)c([H])c7F)c([H])c6[H])c(C(=O)N([H])[H])c5N([H])[H])C4([H])[H])(C([H])([H])C([H])([H])[H])[N+]([H])([H])[H])c([H])c3F)c([H])c([H])c2C1([H])[H]

$$$$
72:0:0
     RDKit          3D

 90 98  0  0  1  0  0  0  0  0999 V2000
  -27.0310  -22.7810   21.2100 C   0  0  0  0  0  3  0  0  0  0  0  0
  -29.3680  -23.4650   20.0370 C   0  0  0  0  0  3  0  0  0  0  0  0
  -27.8540  -21.7180   20.7630 C   0  0  0  0  0  0  0  0  0  0  0  0
  -27.3270  -24.1650   21.1220 C   0  0  0  0  0  0  0  0  0  0  0  0
  -29.1420  -21.9420   20.2030 C   0  0  0  0  0  0  0  0  0  0  0  0
  -28.4700  -24.6640   20.4280 C   0  0  0  0  0  0  0  0  0  0  0  0
  -27.3130  -20.3090   20.9720 C   0  0  0  0  0  1  0  0  0  0  0  0
  -26.3670  -25.0700   21.8850 C   0  0  0  0  0  1  0  0  0  0  0  0
  -28.6500  -26.1900   20.3180 O   0  0  0  0  0  0  0  0  0  0  0  0
  -24.8250  -31.9620   23.3050 C   0  0  0  0  0  0  0  0  0  0  0  0
  -27.6300  -27.2750   20.2480 C   0  0  0  0  0  0  0  0  0  0  0  0
  -23.7310  -30.5790   21.5880 C   0  0  0  0  0  3  0  0  0  0  0  0
  -25.2780  -29.0710   20.1640 C   0  0  0  0  0  0  0  0  0  0  0  0
  -26.2890  -30.8790   21.5370 C   0  0  0  0  0  2  0  0  0  0  0  0
  -26.4260  -29.4920   20.8490 C   0  0  0  0  0  0  0  0  0  0  0  0
  -27.5940  -28.6100   20.8780 C   0  0  0  0  0  3  0  0  0  0  0  0
  -26.4680  -27.0210   19.4820 C   0  0  0  0  0  3  0  0  0  0  0  0
  -25.3220  -27.8560   19.4630 C   0  0  0  0  0  3  0  0  0  0  0  0
  -24.0260  -29.9460   20.2000 C   0  0  0  0  0  2  0  0  0  0  0  0
  -24.9670  -31.1660   22.1990 N   0  0  0  0  0  0  0  0  0  0  0  0
  -23.7110  -32.2030   23.7980 O   0  0  0  0  0  0  0  0  0  0  0  0
  -23.0400  -29.5330   22.5000 C   0  0  0  0  0  0  0  0  0  0  0  0
  -21.7160  -29.3450   22.3420 N   0  0  0  0  0  0  0  0  0  0  0  0
  -23.7010  -28.8900   23.3200 O   0  0  0  0  0  0  0  0  0  0  0  0
  -21.2340  -29.9150   21.6600 H   0  0  0  0  0  0  0  0  0  0  0  0
  -18.3510  -28.0440   22.7290 C   0  0  0  0  0  0  0  0  0  0  0  0
  -20.8980  -28.3640   23.0620 C   0  0  0  0  0  3  0  0  0  0  0  0
  -21.0470  -26.9540   22.4430 C   0  0  0  0  0  2  0  0  0  0  0  0
  -19.9780  -26.6390   21.3930 C   0  0  0  0  0  2  0  0  0  0  0  0
  -18.5790  -26.7250   22.0090 C   0  0  0  0  0  2  0  0  0  0  0  0
  -19.4410  -28.8200   23.2100 C   0  0  0  0  0  0  0  0  0  0  0  0
  -19.1730  -30.0520   23.8460 C   0  0  0  0  0  3  0  0  0  0  0  0
  -17.8510  -30.5100   24.0030 C   0  0  0  0  0  3  0  0  0  0  0  0
  -16.7770  -29.7320   23.5360 C   0  0  0  0  0  3  0  0  0  0  0  0
  -17.0290  -28.5000   22.9070 C   0  0  0  0  0  3  0  0  0  0  0  0
  -26.0560  -32.6240   23.9970 C   0  0  0  0  0  3  0  0  0  0  0  0
  -26.5250  -31.8560   25.2940 C   0  0  1  0  0  0  0  0  0  0  0  0
  -25.3820  -31.5710   26.2970 C   0  0  0  0  0  1  0  0  0  0  0  0
  -27.1730  -30.5010   24.9300 C   0  0  0  0  0  1  0  0  0  0  0  0
  -27.6100  -32.6790   26.0270 C   0  0  0  0  0  1  0  0  0  0  0  0
  -25.6930  -34.0130   24.3330 N   0  0  0  0  0  0  0  0  0  0  0  0
  -26.0540  -35.0930   23.6280 C   0  0  0  0  0  0  0  0  0  0  0  0
  -26.7890  -35.0260   22.6390 O   0  0  0  0  0  0  0  0  0  0  0  0
  -25.0450  -34.1360   25.0970 H   0  0  0  0  0  0  0  0  0  0  0  0
  -24.3280  -36.8770   23.2090 C   0  0  0  0  0  1  0  0  0  0  0  0
  -25.5170  -36.4630   24.0890 C   0  0  0  0  0  3  0  0  0  0  0  0
  -27.5770  -37.3550   25.0890 C   0  0  0  0  0  1  0  0  0  0  0  0
  -26.5400  -37.5320   24.0760 N   0  0  0  0  0  0  0  0  0  0  0  0
  -26.1110  -38.4430   24.2180 H   0  0  0  0  0  0  0  0  0  0  0  0
  -30.1490  -20.5230   19.9720 C   0  0  0  0  0  2  0  0  0  0  0  0
  -30.1690  -18.7570   19.5520 C   0  0  0  0  0  2  0  0  0  0  0  0
  -31.8260  -17.7210   21.2310 C   0  0  0  0  0  1  0  0  0  0  0  0
  -29.4690  -17.0290   21.4010 C   0  0  0  0  0  1  0  0  0  0  0  0
  -30.6160  -17.2430   20.3990 C   0  0  1  0  0  0  0  0  0  0  0  0
  -31.1430  -15.6410   19.8450 C   0  0  0  0  0  0  0  0  0  0  0  0
  -31.0380  -13.1840   18.9900 C   0  0  0  0  0  2  0  0  0  0  0  0
  -30.0730  -13.0130   17.7870 C   0  0  0  0  0  2  0  0  0  0  0  0
  -28.6330  -12.7710   18.2710 C   0  0  0  0  0  2  0  0  0  0  0  0
  -28.2480  -13.7330   19.4200 C   0  0  0  0  0  3  0  0  0  0  0  0
  -29.3380  -13.8220   20.5080 C   0  0  0  0  0  2  0  0  0  0  0  0
  -30.5630  -14.3320   19.8600 N   0  0  0  0  0  0  0  0  0  0  0  0
  -32.2930  -15.5900   19.3830 O   0  0  0  0  0  0  0  0  0  0  0  0
  -25.9250  -14.3330   20.2900 C   0  0  0  0  0  0  0  0  0  0  0  0
  -24.8610  -13.5740   20.6900 C   0  0  0  0  0  0  0  0  0  0  0  0
  -25.2890  -12.2140   20.6000 C   0  0  0  0  0  0  0  0  0  0  0  0
  -26.9320  -13.4380   19.9750 N   0  0  0  0  0  0  0  0  0  0  0  0
  -26.5640  -12.1540   20.2270 N   0  0  0  0  0  0  0  0  0  0  0  0
  -24.5360  -10.9670   20.7890 C   0  0  0  0  0  0  0  0  0  0  0  0
  -24.8910  -10.0310   21.7860 C   0  0  0  0  0  3  0  0  0  0  0  0
  -24.1360   -8.8510   21.9630 C   0  0  0  0  0  3  0  0  0  0  0  0
  -23.0120   -8.5980   21.1410 C   0  0  0  0  0  0  0  0  0  0  0  0
  -22.6760   -9.5210   20.1360 C   0  0  0  0  0  3  0  0  0  0  0  0
  -23.4320  -10.6920   19.9570 C   0  0  0  0  0  3  0  0  0  0  0  0
  -22.2360   -7.4660   21.2230 O   0  0  0  0  0  0  0  0  0  0  0  0
  -21.9750   -6.8590   22.4250 C   0  0  0  0  0  0  0  0  0  0  0  0
  -21.3490   -7.5460   23.4870 C   0  0  0  0  0  3  0  0  0  0  0  0
  -21.0360   -6.8630   24.6790 C   0  0  0  0  0  3  0  0  0  0  0  0
  -21.3390   -5.4950   24.8080 C   0  0  0  0  0  0  0  0  0  0  0  0
  -21.9580   -4.8080   23.7510 C   0  0  0  0  0  3  0  0  0  0  0  0
  -22.2710   -5.4880   22.5600 C   0  0  0  0  0  0  0  0  0  0  0  0
  -22.8480   -4.8150   21.5350 F   0  0  0  0  0  0  0  0  0  0  0  0
  -21.0320   -4.8370   25.9520 F   0  0  0  0  0  0  0  0  0  0  0  0
  -23.4920  -14.0810   21.0370 C   0  0  0  0  0  0  0  0  0  0  0  0
  -22.7960  -13.3970   21.9370 N   0  0  0  0  0  0  0  0  0  0  0  0
  -23.0530  -15.1200   20.5460 O   0  0  0  0  0  0  0  0  0  0  0  0
  -23.1670  -12.5570   22.3560 H   0  0  0  0  0  0  0  0  0  0  0  0
  -21.8780  -13.7180   22.2120 H   0  0  0  0  0  0  0  0  0  0  0  0
  -26.1120  -15.7030   20.1380 N   0  0  0  0  0  0  0  0  0  0  0  0
  -25.3660  -16.3690   20.3030 H   0  0  0  0  0  0  0  0  0  0  0  0
  -26.9500  -16.1300   19.7660 H   0  0  0  0  0  0  0  0  0  0  0  0
  2  5  2  0
  2  6  1  0
  3  7  1  0
  3  1  2  0
  4  1  1  0
  4  8  1  0
  5  3  1  0
  6  4  2  0
  9  6  1  0
 10 21  2  0
 11  9  1  0
 11 16  1  0
 12 20  1  0
 12 22  1  0
 13 19  1  0
 13 15  1  0
 14 20  1  0
 15 16  2  0
 15 14  1  0
 17 11  2  0
 18 17  1  0
 18 13  2  0
 19 12  1  0
 20 10  1  0
 22 24  2  0
 23 22  1  0
 25 23  1  0
 26 35  2  0
 26 31  1  0
 27 23  1  0
 27 31  1  0
 28 27  1  0
 29 30  1  0
 29 28  1  0
 30 26  1  0
 31 32  2  0
 32 33  1  0
 34 33  2  0
 35 34  1  0
 36 10  1  0
 36 41  1  0
 36 37  1  0
 37 40  1  1
 37 38  1  0
 39 37  1  0
 41 44  1  0
 42 46  1  0
 42 41  1  0
 43 42  2  0
 46 45  1  0
 48 46  1  0
 48 49  1  0
 48 47  1  0
 50  5  1  0
 51 50  1  0
 51 54  1  0
 54 52  1  1
 54 53  1  0
 55 61  1  0
 55 54  1  0
 56 61  1  0
 57 58  1  0
 57 56  1  0
 59 58  1  0
 59 66  1  0
 59 60  1  0
 61 60  1  0
 62 55  2  0
 63 64  2  0
 64 83  1  0
 65 64  1  0
 65 68  1  0
 66 67  1  0
 66 63  1  0
 67 65  2  0
 68 69  1  0
 69 70  2  0
 71 74  1  0
 71 70  1  0
 72 71  2  0
 73 72  1  0
 73 68  2  0
 74 75  1  0
 75 80  2  0
 75 76  1  0
 76 77  2  0
 77 78  1  0
 78 82  1  0
 79 78  2  0
 80 79  1  0
 81 80  1  0
 83 84  1  0
 84 87  1  0
 84 86  1  0
 85 83  2  0
 88 63  1  0
 88 89  1  0
 90 88  1  0
M  ISO  4   6 101   9 101  54 100  55 100
M  END
>  <TORSDO>  (73) 
F 19

>  <SCORE>  (73) 
-13.380

>  <name>  (73) 
72

>  <ligand_id>  (73) 
72

>  <original_smiles>  (73) 
[H]c1c([H])c([H])c2c(c1[H])C([H])([H])C([H])([H])C([H])([H])C2([H])N([H])C(=O)C1([H])N(C(=O)C([H])(N([H])C(=O)C([H])(N([H])C([H])([H])[H])C([H])([H])[H])C(C([H])([H])[H])(C([H])([H])[H])C([H])([H])[H])C([H])([H])c2c([H])c(Oc3c([H])c(C([H])([H])C([H])([H])C(C(=O)N4C([H])([H])C([H])([H])C([H])([H])C([H])(n5nc(-c6c([H])c([H])c(Oc7c([H])c([H])c(F)c([H])c7F)c([H])c6[H])c(C(=O)N([H])[H])c5N([H])[H])C4([H])[H])(C([H])([H])[H])C([H])([H])[H])c(C([H])([H])[H])c([H])c3C([H])([H])[H])c([H])c([H])c2C1([H])[H]

>  <smiles>  (73) 
[H]c1c([H])c([H])c2c(c1[H])C([H])([H])C([H])([H])C([H])([H])C2([H])N([H])C(=O)C1([H])N(C(=O)C([H])(N([H])C(=O)C([H])(N([H])C([H])([H])[H])C([H])([H])[H])C(C([H])([H])[H])(C([H])([H])[H])C([H])([H])[H])C([H])([H])c2c([H])c(Oc3c([H])c(C([H])([H])C([H])([H])C(C(=O)N4C([H])([H])C([H])([H])C([H])([H])C([H])(n5nc(-c6c([H])c([H])c(Oc7c([H])c([H])c(F)c([H])c7F)c([H])c6[H])c(C(=O)N([H])[H])c5N([H])[H])C4([H])[H])(C([H])([H])[H])C([H])([H])[H])c(C([H])([H])[H])c([H])c3C([H])([H])[H])c([H])c([H])c2C1([H])[H]

$$$$
73:0:0
     RDKit          3D

 87 95  0  0  1  0  0  0  0  0999 V2000
  -29.4740  -22.1600   21.1080 C   0  0  0  0  0  3  0  0  0  0  0  0
  -27.8560  -21.9170   19.5100 C   0  0  0  0  0  3  0  0  0  0  0  0
  -29.2510  -23.6350   21.0830 C   0  0  0  0  0  3  0  0  0  0  0  0
  -27.6350  -23.3940   19.4860 C   0  0  0  0  0  3  0  0  0  0  0  0
  -28.8000  -21.1360   20.3190 C   0  0  0  0  0  0  0  0  0  0  0  0
  -28.2970  -24.4160   20.2930 C   0  0  0  0  0  0  0  0  0  0  0  0
  -28.2430  -25.9560   20.2560 O   0  0  0  0  0  0  0  0  0  0  0  0
  -24.6400  -31.8890   23.2270 C   0  0  0  0  0  0  0  0  0  0  0  0
  -27.1750  -26.9920   20.2410 C   0  0  0  0  0  0  0  0  0  0  0  0
  -23.4360  -30.4830   21.6010 C   0  0  0  0  0  3  0  0  0  0  0  0
  -24.8740  -28.8620   20.1880 C   0  0  0  0  0  0  0  0  0  0  0  0
  -26.0000  -30.6900   21.4460 C   0  0  0  0  0  2  0  0  0  0  0  0
  -26.0620  -29.2730   20.8040 C   0  0  0  0  0  0  0  0  0  0  0  0
  -27.2040  -28.3580   20.8060 C   0  0  0  0  0  3  0  0  0  0  0  0
  -25.9590  -26.7240   19.5760 C   0  0  0  0  0  3  0  0  0  0  0  0
  -24.8450  -27.6070   19.5550 C   0  0  0  0  0  3  0  0  0  0  0  0
  -23.6590  -29.7880   20.2290 C   0  0  0  0  0  2  0  0  0  0  0  0
  -24.7140  -31.0490   22.1440 N   0  0  0  0  0  0  0  0  0  0  0  0
  -23.5540  -32.1850   23.7500 O   0  0  0  0  0  0  0  0  0  0  0  0
  -22.7440  -29.4960   22.5770 C   0  0  0  0  0  0  0  0  0  0  0  0
  -21.4140  -29.3340   22.4570 N   0  0  0  0  0  0  0  0  0  0  0  0
  -23.4120  -28.8760   23.4080 O   0  0  0  0  0  0  0  0  0  0  0  0
  -20.9280  -29.8850   21.7630 H   0  0  0  0  0  0  0  0  0  0  0  0
  -18.0320  -28.1300   22.9780 C   0  0  0  0  0  0  0  0  0  0  0  0
  -20.5910  -28.4040   23.2400 C   0  0  0  0  0  3  0  0  0  0  0  0
  -20.6970  -26.9660   22.6810 C   0  0  0  0  0  2  0  0  0  0  0  0
  -19.5960  -26.6290   21.6700 C   0  0  0  0  0  2  0  0  0  0  0  0
  -18.2130  -26.7750   22.3120 C   0  0  0  0  0  2  0  0  0  0  0  0
  -19.1480  -28.9020   23.3980 C   0  0  0  0  0  0  0  0  0  0  0  0
  -18.9220  -30.1660   23.9830 C   0  0  0  0  0  3  0  0  0  0  0  0
  -17.6140  -30.6600   24.1500 C   0  0  0  0  0  3  0  0  0  0  0  0
  -16.5140  -29.8860   23.7420 C   0  0  0  0  0  3  0  0  0  0  0  0
  -16.7230  -28.6220   23.1630 C   0  0  0  0  0  3  0  0  0  0  0  0
  -25.9160  -32.5320   23.8490 C   0  0  0  0  0  3  0  0  0  0  0  0
  -25.5970  -33.9290   24.1960 N   0  0  0  0  0  0  0  0  0  0  0  0
  -25.8990  -34.9950   23.4440 C   0  0  0  0  0  0  0  0  0  0  0  0
  -26.5390  -34.9090   22.3930 O   0  0  0  0  0  0  0  0  0  0  0  0
  -25.0260  -34.0680   25.0160 H   0  0  0  0  0  0  0  0  0  0  0  0
  -24.1380  -36.7770   23.1820 C   0  0  0  0  0  1  0  0  0  0  0  0
  -25.4180  -36.3770   23.9330 C   0  0  0  0  0  3  0  0  0  0  0  0
  -27.5760  -37.2870   24.6760 C   0  0  0  0  0  1  0  0  0  0  0  0
  -26.4330  -37.4440   23.7800 N   0  0  0  0  0  0  0  0  0  0  0  0
  -26.0220  -38.3580   23.9490 H   0  0  0  0  0  0  0  0  0  0  0  0
  -26.4390  -31.7630   25.1260 C   0  0  1  0  0  0  0  0  0  0  0  0
  -25.3490  -31.5250   26.1990 C   0  0  0  0  0  1  0  0  0  0  0  0
  -27.0230  -30.3850   24.7410 C   0  0  0  0  0  1  0  0  0  0  0  0
  -27.5900  -32.5600   25.7840 C   0  0  0  0  0  1  0  0  0  0  0  0
  -28.7980  -19.3890   20.5230 C   0  0  0  0  0  2  0  0  0  0  0  0
  -29.7860  -17.9460   20.1980 C   0  0  0  0  0  0  0  0  0  0  0  0
  -31.0880  -18.3580   19.5440 C   0  0  0  0  0  1  0  0  0  0  0  0
  -29.5500  -16.5720   20.4380 N   0  0  0  0  0  0  0  0  0  0  0  0
  -30.3930  -15.2980   20.1930 C   0  0  0  0  0  0  0  0  0  0  0  0
  -30.3810  -12.8520   19.3230 C   0  0  0  0  0  2  0  0  0  0  0  0
  -29.4500  -12.6870   18.0950 C   0  0  0  0  0  2  0  0  0  0  0  0
  -28.0020  -12.4120   18.5380 C   0  0  0  0  0  2  0  0  0  0  0  0
  -27.5630  -13.3540   19.6850 C   0  0  0  0  0  3  0  0  0  0  0  0
  -28.6200  -13.4810   20.7990 C   0  0  0  0  0  2  0  0  0  0  0  0
  -29.8590  -13.9790   20.1800 N   0  0  0  0  0  0  0  0  0  0  0  0
  -31.5910  -15.3030   19.8820 O   0  0  0  0  0  0  0  0  0  0  0  0
  -25.1970  -13.8870   20.4740 C   0  0  0  0  0  0  0  0  0  0  0  0
  -24.1480  -13.0980   20.8550 C   0  0  0  0  0  0  0  0  0  0  0  0
  -24.6280  -11.7530   20.8160 C   0  0  0  0  0  0  0  0  0  0  0  0
  -26.2450  -13.0220   20.2110 N   0  0  0  0  0  0  0  0  0  0  0  0
  -25.9150  -11.7320   20.4850 N   0  0  0  0  0  0  0  0  0  0  0  0
  -23.9150  -10.4830   21.0140 C   0  0  0  0  0  0  0  0  0  0  0  0
  -24.3630   -9.5190   21.9440 C   0  0  0  0  0  3  0  0  0  0  0  0
  -23.6450   -8.3170   22.1310 C   0  0  0  0  0  3  0  0  0  0  0  0
  -22.4670   -8.0690   21.3870 C   0  0  0  0  0  0  0  0  0  0  0  0
  -22.0380   -9.0220   20.4470 C   0  0  0  0  0  3  0  0  0  0  0  0
  -22.7560  -10.2150   20.2580 C   0  0  0  0  0  3  0  0  0  0  0  0
  -21.7220   -6.9190   21.4840 O   0  0  0  0  0  0  0  0  0  0  0  0
  -21.6850   -6.1800   22.6380 C   0  0  0  0  0  0  0  0  0  0  0  0
  -21.2600   -6.7330   23.8650 C   0  0  0  0  0  3  0  0  0  0  0  0
  -21.1700   -5.9190   25.0120 C   0  0  0  0  0  3  0  0  0  0  0  0
  -21.4970   -4.5520   24.9330 C   0  0  0  0  0  0  0  0  0  0  0  0
  -21.9160   -3.9980   23.7100 C   0  0  0  0  0  3  0  0  0  0  0  0
  -22.0060   -4.8090   22.5660 C   0  0  0  0  0  0  0  0  0  0  0  0
  -22.3900   -4.2650   21.3860 F   0  0  0  0  0  0  0  0  0  0  0  0
  -21.4050   -3.7670   26.0320 F   0  0  0  0  0  0  0  0  0  0  0  0
  -22.7500  -13.5610   21.1410 C   0  0  0  0  0  0  0  0  0  0  0  0
  -22.0400  -12.8620   22.0190 N   0  0  0  0  0  0  0  0  0  0  0  0
  -22.2970  -14.5810   20.6220 O   0  0  0  0  0  0  0  0  0  0  0  0
  -22.4200  -12.0390   22.4610 H   0  0  0  0  0  0  0  0  0  0  0  0
  -21.1010  -13.1560   22.2530 H   0  0  0  0  0  0  0  0  0  0  0  0
  -25.3480  -15.2600   20.3020 N   0  0  0  0  0  0  0  0  0  0  0  0
  -24.5900  -15.9180   20.4460 H   0  0  0  0  0  0  0  0  0  0  0  0
  -26.2140  -15.7040   20.0180 H   0  0  0  0  0  0  0  0  0  0  0  0
  2  5  1  0
  3  1  1  0
  4  2  2  0
  4  6  1  0
  5 48  1  0
  5  1  2  0
  6  3  2  0
  7  6  1  0
  8 19  2  0
  9  7  1  0
  9 14  1  0
 10 18  1  0
 10 20  1  0
 11 17  1  0
 11 13  1  0
 12 18  1  0
 13 14  2  0
 13 12  1  0
 15  9  2  0
 16 15  1  0
 16 11  2  0
 17 10  1  0
 18  8  1  0
 20 22  2  0
 21 20  1  0
 23 21  1  0
 24 33  2  0
 24 29  1  0
 25 21  1  0
 25 29  1  0
 26 25  1  0
 27 28  1  0
 27 26  1  0
 28 24  1  0
 29 30  2  0
 30 31  1  0
 32 31  2  0
 33 32  1  0
 34  8  1  0
 34 35  1  0
 34 44  1  0
 35 38  1  0
 36 40  1  0
 36 35  1  0
 37 36  2  0
 40 39  1  0
 42 40  1  0
 42 43  1  0
 42 41  1  0
 44 47  1  1
 44 45  1  0
 46 44  1  0
 49 51  2  0
 49 48  1  0
 50 49  1  0
 52 51  1  0
 53 58  1  0
 54 55  1  0
 54 53  1  0
 56 55  1  0
 56 63  1  0
 56 57  1  0
 58 52  1  0
 58 57  1  0
 59 52  2  0
 60 61  2  0
 61 80  1  0
 62 61  1  0
 62 65  1  0
 63 60  1  0
 63 64  1  0
 64 62  2  0
 65 66  1  0
 66 67  2  0
 68 71  1  0
 68 67  1  0
 69 68  2  0
 70 69  1  0
 70 65  2  0
 71 72  1  0
 72 73  1  0
 73 74  2  0
 75 74  1  0
 75 79  1  0
 76 75  2  0
 77 72  2  0
 77 76  1  0
 78 77  1  0
 80 81  1  0
 81 84  1  0
 81 83  1  0
 82 80  2  0
 85 86  1  0
 85 60  1  0
 87 85  1  0
M  ISO  4   6 101   7 101  51 100  52 100
M  END
>  <TORSDO>  (74) 
F 18

>  <SCORE>  (74) 
-15.430

>  <name>  (74) 
73

>  <ligand_id>  (74) 
73

>  <original_smiles>  (74) 
[H]c1c([H])c([H])c2c(c1[H])C([H])([H])C([H])([H])C([H])([H])C2([H])N([H])C(=O)C1([H])N(C(=O)C([H])(N([H])C(=O)C([H])(N([H])C([H])([H])[H])C([H])([H])[H])C(C([H])([H])[H])(C([H])([H])[H])C([H])([H])[H])C([H])([H])c2c([H])c(Oc3c([H])c([H])c(C([H])([H])C(=NC(=O)N4C([H])([H])C([H])([H])C([H])([H])C([H])(n5nc(-c6c([H])c([H])c(Oc7c([H])c([H])c(F)c([H])c7F)c([H])c6[H])c(C(=O)N([H])[H])c5N([H])[H])C4([H])[H])C([H])([H])[H])c([H])c3[H])c([H])c([H])c2C1([H])[H]

>  <smiles>  (74) 
[H]c1c([H])c([H])c2c(c1[H])C([H])([H])C([H])([H])C([H])([H])C2([H])N([H])C(=O)C1([H])N(C(=O)C([H])(N([H])C(=O)C([H])(N([H])C([H])([H])[H])C([H])([H])[H])C(C([H])([H])[H])(C([H])([H])[H])C([H])([H])[H])C([H])([H])c2c([H])c(Oc3c([H])c([H])c(C([H])([H])C(=NC(=O)N4C([H])([H])C([H])([H])C([H])([H])C([H])(n5nc(-c6c([H])c([H])c(Oc7c([H])c([H])c(F)c([H])c7F)c([H])c6[H])c(C(=O)N([H])[H])c5N([H])[H])C4([H])[H])C([H])([H])[H])c([H])c3[H])c([H])c([H])c2C1([H])[H]

$$$$
74:0:0
     RDKit          3D

 94 94  0  0  1  0  0  0  0  0999 V2000
  -21.9460  -28.5090   22.9570 C   0  0  0  0  0  3  0  0  0  0  0  0
  -22.5790  -30.3000   23.0630 C   0  0  0  0  0  2  0  0  0  0  0  0
  -24.8250  -31.8410   21.8640 C   0  0  0  0  0  3  0  0  0  0  0  0
  -22.4160  -27.5310   21.4780 C   0  0  0  0  0  3  0  0  0  0  0  0
  -26.2540  -31.5260   21.7670 C   0  0  0  0  0  3  0  0  0  0  0  0
  -23.7860  -30.8760   21.7970 C   0  0  0  0  0  3  0  0  0  0  0  0
  -24.5120  -29.8730   20.6720 C   0  0  0  0  0  2  0  0  0  0  0  0
  -23.6300  -27.9860   20.2620 C   0  0  0  0  0  1  0  0  0  0  0  0
  -26.4080  -29.7540   20.3160 C   0  0  0  0  0  2  0  0  0  0  0  0
  -26.9860  -30.2660   21.6310 C   0  0  0  0  0  3  0  0  0  0  0  0
  -25.8560  -26.7320   19.2290 C   0  0  0  0  0 15  0  0  0  0  0  0
  -27.8070  -28.2490   19.4710 C   0  0  0  0  0 15  0  0  0  0  0  0
  -28.5500  -26.3260   18.4140 C   0  0  0  0  0  1  0  0  0  0  0  0
  -31.2530  -24.7150   17.4250 C   0  0  0  0  0  1  0  0  0  0  0  0
  -34.5580  -23.4900   16.5940 C   0  0  0  0  0  2  0  0  0  0  0  0
  -36.1890  -23.8520   16.0970 C   0  0  0  0  0  2  0  0  0  0  0  0
  -36.3760  -24.4130   14.6950 C   0  0  0  0  0  2  0  0  0  0  0  0
  -34.9590  -24.9300   14.5550 C   0  0  0  0  0  3  0  0  0  0  0  0
  -33.6040  -24.0680   14.9400 C   0  0  0  0  0  2  0  0  0  0  0  0
  -32.9150  -24.3150   16.4400 N   0  0  0  0  0  2  0  0  0  0  0  0
  -31.9600  -23.5900   17.8440 O   0  0  0  0  0  1  0  0  0  0  0  0
  -34.2130  -27.0240   13.7670 C   0  0  0  0  0  0  0  0  0  0  0  0
  -34.0150  -27.5950   12.5760 C   0  0  0  0  0  0  0  0  0  0  0  0
  -34.4920  -26.6730   11.5920 C   0  0  0  0  0  0  0  0  0  0  0  0
  -34.6910  -25.7820   13.4820 N   0  0  0  0  0  0  0  0  0  0  0  0
  -34.8660  -25.5210   12.1590 N   0  0  0  0  0  0  0  0  0  0  0  0
  -34.6580  -26.8960   10.1580 C   0  0  0  0  0  0  0  0  0  0  0  0
  -33.8610  -26.2420    9.1960 C   0  0  0  0  0  3  0  0  0  0  0  0
  -34.0150  -26.5420    7.8250 C   0  0  0  0  0  3  0  0  0  0  0  0
  -34.9680  -27.5040    7.4110 C   0  0  0  0  0  0  0  0  0  0  0  0
  -35.7750  -28.1330    8.3750 C   0  0  0  0  0  3  0  0  0  0  0  0
  -35.6260  -27.8280    9.7350 C   0  0  0  0  0  3  0  0  0  0  0  0
  -35.2050  -27.8450    6.1030 O   0  0  0  0  0  0  0  0  0  0  0  0
  -34.1980  -27.8580    5.1720 C   0  0  0  0  0  0  0  0  0  0  0  0
  -33.1530  -28.8050    5.2200 C   0  0  0  0  0  3  0  0  0  0  0  0
  -32.1780  -28.8270    4.2020 C   0  0  0  0  0  3  0  0  0  0  0  0
  -32.2520  -27.9110    3.1350 C   0  0  0  0  0  0  0  0  0  0  0  0
  -33.2960  -26.9710    3.0850 C   0  0  0  0  0  3  0  0  0  0  0  0
  -34.2680  -26.9480    4.1000 C   0  0  0  0  0  0  0  0  0  0  0  0
  -35.2860  -26.0540    4.0380 F   0  0  0  0  0  0  0  0  0  0  0  0
  -31.3210  -27.9360    2.1550 F   0  0  0  0  0  0  0  0  0  0  0  0
  -33.5020  -28.9810   12.4370 C   0  0  0  0  0  0  0  0  0  0  0  0
  -32.6220  -29.2060   11.4780 N   0  0  0  0  0  0  0  0  0  0  0  0
  -33.8200  -29.8530   13.2480 O   0  0  0  0  0  0  0  0  0  0  0  0
  -32.3420  -28.4730   10.8420 H   0  0  0  0  0  0  0  0  0  0  0  0
  -32.2200  -30.1260   11.3720 H   0  0  0  0  0  0  0  0  0  0  0  0
  -34.0290  -27.4830   15.0750 N   0  0  0  0  0  0  0  0  0  0  0  0
  -33.7810  -28.4480   15.2670 H   0  0  0  0  0  0  0  0  0  0  0  0
  -34.2580  -26.9370   15.8950 H   0  0  0  0  0  0  0  0  0  0  0  0
  -28.3650  -26.7090   17.0100 N   0  0  0  0  0  4  0  0  0  0  0  0
  -27.7000  -26.4140   16.3190 H   0  0  0  0  0  0  0  0  0  0  0  0
  -28.5790  -25.7350   16.9000 H   0  0  0  0  0  0  0  0  0  0  0  0
  -27.5350  -27.1320   17.3750 H   0  0  0  0  0  0  0  0  0  0  0  0
  -28.0270  -29.6010   22.6540 O   0  0  0  0  0  0  0  0  0  0  0  0
  -24.5570  -28.1860   28.2260 C   0  0  0  0  0  0  0  0  0  0  0  0
  -28.4190  -30.0610   23.9410 C   0  0  0  0  0  3  0  0  0  0  0  0
  -24.4200  -29.3110   26.1030 C   0  0  0  0  0  3  0  0  0  0  0  0
  -26.2630  -30.8100   25.3000 C   0  0  0  0  0  3  0  0  0  0  0  0
  -26.5520  -29.4780   27.3510 C   0  0  0  0  0  2  0  0  0  0  0  0
  -27.0910  -29.9440   25.9890 C   0  0  0  0  0  0  0  0  0  0  0  0
  -28.1980  -29.4580   25.2410 C   0  0  0  0  0  3  0  0  0  0  0  0
  -28.1030  -31.3740   23.8290 C   0  0  0  0  0  2  0  0  0  0  0  0
  -26.8640  -31.6770   24.3910 C   0  0  0  0  0  2  0  0  0  0  0  0
  -24.8020  -30.7460   25.6280 C   0  0  0  0  0  2  0  0  0  0  0  0
  -25.1260  -29.0480   27.3410 N   0  0  0  0  0  0  0  0  0  0  0  0
  -23.3730  -27.8190   28.1330 O   0  0  0  0  0  0  0  0  0  0  0  0
  -24.9270  -28.0570   25.2950 C   0  0  0  0  0  0  0  0  0  0  0  0
  -24.2080  -27.4610   24.3420 N   0  0  0  0  0  0  0  0  0  0  0  0
  -25.7970  -27.3320   25.7210 O   0  0  0  0  0  0  0  0  0  0  0  0
  -23.5030  -28.0600   23.9340 H   0  0  0  0  0  0  0  0  0  0  0  0
  -21.4350  -24.6250   21.1010 C   0  0  0  0  0  0  0  0  0  0  0  0
  -23.8860  -25.8990   24.1740 C   0  0  0  0  0  2  0  0  0  0  0  0
  -25.4890  -24.9080   23.8860 C   0  0  0  0  0  1  0  0  0  0  0  0
  -24.9370  -23.5430   21.2490 C   0  0  0  0  0 15  0  0  0  0  0  0
  -22.9500  -23.8840   20.5690 C   0  0  0  0  0  1  0  0  0  0  0  0
  -21.6010  -25.0740   22.4260 C   0  0  0  0  0  3  0  0  0  0  0  0
  -20.0470  -25.6510   22.7630 C   0  0  0  0  0  3  0  0  0  0  0  0
  -18.7870  -25.9480   22.1310 C   0  0  0  0  0  3  0  0  0  0  0  0
  -18.7760  -25.4480   20.8560 C   0  0  0  0  0  3  0  0  0  0  0  0
  -20.0360  -24.8050   20.4180 C   0  0  0  0  0  3  0  0  0  0  0  0
  -25.4200  -27.6000   29.3560 C   0  0  0  0  0  3  0  0  0  0  0  0
  -25.8980  -26.1210   29.0870 C   0  0  1  0  0  0  0  0  0  0  0  0
  -24.7550  -25.0810   29.0460 C   0  0  0  0  0  1  0  0  0  0  0  0
  -26.6920  -25.9990   27.7640 C   0  0  0  0  0  1  0  0  0  0  0  0
  -26.8760  -25.7120   30.2080 C   0  0  0  0  0  1  0  0  0  0  0  0
  -24.5980  -27.6730   30.5630 N   0  0  0  0  0  0  0  0  0  0  0  0
  -24.6450  -28.6830   31.4330 C   0  0  0  0  0  0  0  0  0  0  0  0
  -25.4570  -29.6070   31.3390 O   0  0  0  0  0  0  0  0  0  0  0  0
  -23.8850  -26.9680   30.6800 H   0  0  0  0  0  0  0  0  0  0  0  0
  -22.4380  -29.5500   32.2640 C   0  0  0  0  0  1  0  0  0  0  0  0
  -23.6420  -28.6540   32.5970 C   0  0  0  0  0  3  0  0  0  0  0  0
  -25.2700  -28.1460   34.3600 C   0  0  0  0  0  1  0  0  0  0  0  0
  -24.2370  -29.0650   33.8860 N   0  0  0  0  0  0  0  0  0  0  0  0
  -23.5230  -29.1350   34.6060 H   0  0  0  0  0  0  0  0  0  0  0  0
  1  2  1  0
  4  1  2  0
  5  3  2  0
  6  3  1  0
  6  2  1  0
  7  6  1  0
  8  4  1  0
  9  7  1  0
  9 10  1  0
 10  5  1  0
 10 54  1  0
 14 21  1  0
 16 15  1  0
 17 16  1  0
 18 25  1  0
 18 17  1  0
 18 19  1  0
 19 20  1  0
 20 15  1  0
 22 47  1  0
 23 22  2  0
 24 26  2  0
 24 23  1  0
 25 22  1  0
 26 25  1  0
 27 24  1  0
 28 27  2  0
 29 28  1  0
 30 29  2  0
 30 31  1  0
 31 32  2  0
 32 27  1  0
 33 30  1  0
 34 35  1  0
 34 33  1  0
 36 35  2  0
 37 36  1  0
 38 37  2  0
 38 39  1  0
 39 34  2  0
 40 39  1  0
 41 37  1  0
 42 23  1  0
 42 44  2  0
 43 42  1  0
 45 43  1  0
 46 43  1  0
 47 48  1  0
 47 49  1  0
 50 53  1  0
 50 13  1  0
 51 50  1  0
 52 50  1  0
 56 54  1  0
 56 61  1  0
 57 67  1  0
 57 65  1  0
 58 63  1  0
 58 64  1  0
 58 60  1  0
 60 59  1  0
 61 60  2  0
 62 56  1  0
 62 63  1  0
 64 57  1  0
 65 59  1  0
 65 55  1  0
 66 55  2  0
 67 69  2  0
 68 67  1  0
 70 68  1  0
 71 76  1  0
 72 68  1  0
 73 72  1  0
 75 71  1  0
 76 77  2  0
 78 77  1  0
 79 78  2  0
 80 79  1  0
 80 71  2  0
 81 55  1  0
 81 86  1  0
 82 81  1  0
 82 85  1  1
 83 82  1  0
 84 82  1  0
 86 89  1  0
 86 87  1  0
 87 91  1  0
 88 87  2  0
 91 90  1  0
 91 93  1  0
 93 92  1  0
 93 94  1  0
M  ISO  4  10 101  13 100  14 100  54 101
M  END
>  <TORSDO>  (75) 
F 17

>  <SCORE>  (75) 
-2.859

>  <name>  (75) 
74

>  <ligand_id>  (75) 
74

>  <original_smiles>  (75) 
[H]c1c([H])c([H])c2c(c1[H])C([H])([H])C([H])([H])C([H])([H])C2([H])N([H])C(=O)C1([H])N(C(=O)C([H])(N([H])C(=O)C([H])(N([H])C([H])([H])[H])C([H])([H])[H])C(C([H])([H])[H])(C([H])([H])[H])C([H])([H])[H])C([H])([H])c2c([H])c(Oc3c([H])c([H])c4c([H])c([H])c([H])c5c4c3C([H])([H])C(C(=O)N3C([H])([H])C([H])([H])C([H])([H])C([H])(n4nc(-c6c([H])c([H])c(Oc7c([H])c([H])c(F)c([H])c7F)c([H])c6[H])c(C(=O)N([H])[H])c4N([H])[H])C3([H])[H])([N+]([H])([H])[H])C5([H])[H])c([H])c([H])c2C1([H])[H]

>  <smiles>  (75) 
[H]c1c([H])c([H])c2c(c1[H])C([H])([H])C([H])([H])C([H])([H])C2([H])N([H])C(=O)C1([H])N(C(=O)C([H])(N([H])C(=O)C([H])(N([H])C([H])([H])[H])C([H])([H])[H])C(C([H])([H])[H])(C([H])([H])[H])C([H])([H])[H])C([H])([H])c2c([H])c(Oc3c([H])c([H])c4c([H])c([H])c([H])c5c4c3C([H])([H])C(C(=O)N3C([H])([H])C([H])([H])C([H])([H])C([H])(n4nc(-c6c([H])c([H])c(Oc7c([H])c([H])c(F)c([H])c7F)c([H])c6[H])c(C(=O)N([H])[H])c4N([H])[H])C3([H])[H])([N+]([H])([H])[H])C5([H])[H])c([H])c([H])c2C1([H])[H]

$$$$
75:0:0
     RDKit          3D

 93102  0  0  1  0  0  0  0  0999 V2000
  -28.6400  -24.2280   19.7320 C   0  0  0  0  0  3  0  0  0  0  0  0
  -27.2120  -22.6110   20.8670 C   0  0  0  0  0  3  0  0  0  0  0  0
  -26.7220  -25.0190   20.9830 C   0  0  0  0  0  3  0  0  0  0  0  0
  -28.3690  -22.8410   20.0890 C   0  0  0  0  0  0  0  0  0  0  0  0
  -27.8160  -25.3460   20.1560 C   0  0  0  0  0  0  0  0  0  0  0  0
  -26.3970  -23.6840   21.3010 C   0  0  0  0  0  0  0  0  0  0  0  0
  -24.0930  -23.2620   21.2310 C   0  0  0  0  0  1  0  0  0  0  0  0
  -25.2550  -23.4650   22.0270 O   0  0  0  0  0  0  0  0  0  0  0  0
  -28.0270  -26.7170   19.8220 O   0  0  0  0  0  0  0  0  0  0  0  0
  -24.6220  -31.9950   23.4680 C   0  0  0  0  0  0  0  0  0  0  0  0
  -26.9740  -27.6500   19.9160 C   0  0  0  0  0  0  0  0  0  0  0  0
  -23.3320  -30.8310   21.7140 C   0  0  0  0  0  3  0  0  0  0  0  0
  -24.6880  -29.3660   20.1140 C   0  0  0  0  0  0  0  0  0  0  0  0
  -25.8800  -31.0460   21.5190 C   0  0  0  0  0  2  0  0  0  0  0  0
  -25.8860  -29.7360   20.7370 C   0  0  0  0  0  0  0  0  0  0  0  0
  -27.0350  -28.8890   20.6330 C   0  0  0  0  0  3  0  0  0  0  0  0
  -25.7560  -27.3390   19.2750 C   0  0  0  0  0  3  0  0  0  0  0  0
  -24.6250  -28.1730   19.3740 C   0  0  0  0  0  3  0  0  0  0  0  0
  -23.4930  -30.2860   20.2700 C   0  0  0  0  0  2  0  0  0  0  0  0
  -24.6310  -31.3030   22.2920 N   0  0  0  0  0  0  0  0  0  0  0  0
  -23.5610  -32.2650   24.0500 O   0  0  0  0  0  0  0  0  0  0  0  0
  -22.6340  -29.7530   22.5780 C   0  0  0  0  0  0  0  0  0  0  0  0
  -21.3090  -29.6060   22.4040 N   0  0  0  0  0  0  0  0  0  0  0  0
  -23.2850  -29.0590   23.3600 O   0  0  0  0  0  0  0  0  0  0  0  0
  -20.8470  -30.2070   21.7380 H   0  0  0  0  0  0  0  0  0  0  0  0
  -17.8970  -28.4740   22.8020 C   0  0  0  0  0  0  0  0  0  0  0  0
  -20.4630  -28.6260   23.0850 C   0  0  0  0  0  3  0  0  0  0  0  0
  -20.5200  -27.2530   22.3780 C   0  0  0  0  0  2  0  0  0  0  0  0
  -19.4080  -27.0620   21.3420 C   0  0  0  0  0  2  0  0  0  0  0  0
  -18.0310  -27.1890   22.0020 C   0  0  0  0  0  2  0  0  0  0  0  0
  -19.0410  -29.1550   23.2960 C   0  0  0  0  0  0  0  0  0  0  0  0
  -18.8640  -30.3610   24.0090 C   0  0  0  0  0  3  0  0  0  0  0  0
  -17.5770  -30.8820   24.2320 C   0  0  0  0  0  3  0  0  0  0  0  0
  -16.4470  -30.1970   23.7540 C   0  0  0  0  0  3  0  0  0  0  0  0
  -16.6090  -28.9940   23.0430 C   0  0  0  0  0  3  0  0  0  0  0  0
  -25.9410  -32.5010   24.1270 C   0  0  0  0  0  3  0  0  0  0  0  0
  -26.3950  -31.6280   25.3620 C   0  0  1  0  0  0  0  0  0  0  0  0
  -25.2800  -31.4080   26.4100 C   0  0  0  0  0  1  0  0  0  0  0  0
  -26.8840  -30.2360   24.9000 C   0  0  0  0  0  1  0  0  0  0  0  0
  -27.5880  -32.3050   26.0760 C   0  0  0  0  0  1  0  0  0  0  0  0
  -25.7290  -33.8980   24.5330 N   0  0  0  0  0  0  0  0  0  0  0  0
  -26.0900  -34.9670   23.8100 C   0  0  0  0  0  0  0  0  0  0  0  0
  -26.7110  -34.8720   22.7480 O   0  0  0  0  0  0  0  0  0  0  0  0
  -25.1760  -34.0470   25.3640 H   0  0  0  0  0  0  0  0  0  0  0  0
  -24.4400  -36.8590   23.6390 C   0  0  0  0  0  1  0  0  0  0  0  0
  -25.7060  -36.3560   24.3520 C   0  0  0  0  0  3  0  0  0  0  0  0
  -27.9240  -37.1080   25.0930 C   0  0  0  0  0  1  0  0  0  0  0  0
  -26.7840  -37.3620   24.2160 N   0  0  0  0  0  0  0  0  0  0  0  0
  -26.4320  -38.2950   24.4160 H   0  0  0  0  0  0  0  0  0  0  0  0
  -29.1880  -21.5870   19.5520 C   0  0  0  0  0  2  0  0  0  0  0  0
  -31.1340  -19.9780   20.4320 C   0  0  0  0  0  2  0  0  0  0  0  0
  -31.3510  -18.4310   20.4230 C   0  0  0  0  0  2  0  0  0  0  0  0
  -29.0270  -18.8500   20.2550 C   0  0  0  0  0  2  0  0  0  0  0  0
  -29.6160  -20.3170   20.4820 C   0  0  0  0  0  3  0  0  0  0  0  0
  -30.0370  -17.7840   20.8780 C   0  0  0  0  0  3  0  0  0  0  0  0
  -30.6950  -15.2040   20.4420 C   0  0  0  0  0  0  0  0  0  0  0  0
  -30.6260  -12.9020   19.4600 C   0  0  0  0  0  2  0  0  0  0  0  0
  -29.7050  -12.9090   18.2190 C   0  0  0  0  0  2  0  0  0  0  0  0
  -28.2380  -12.6720   18.6290 C   0  0  0  0  0  2  0  0  0  0  0  0
  -27.8010  -13.5740   19.8120 C   0  0  0  0  0  3  0  0  0  0  0  0
  -28.8420  -13.5470   20.9540 C   0  0  0  0  0  2  0  0  0  0  0  0
  -30.1300  -13.9490   20.3780 N   0  0  0  0  0  0  0  0  0  0  0  0
  -31.8870  -15.3600   20.1660 O   0  0  0  0  0  0  0  0  0  0  0  0
  -29.8390  -16.2810   20.6290 N   0  0  0  0  0  0  0  0  0  0  0  0
  -28.8820  -15.9820   20.7410 H   0  0  0  0  0  0  0  0  0  0  0  0
  -25.3910  -14.0930   20.5220 C   0  0  0  0  0  0  0  0  0  0  0  0
  -24.3430  -13.2860   20.8660 C   0  0  0  0  0  0  0  0  0  0  0  0
  -24.8420  -11.9470   20.8190 C   0  0  0  0  0  0  0  0  0  0  0  0
  -26.4610  -13.2450   20.2840 N   0  0  0  0  0  0  0  0  0  0  0  0
  -26.1370  -11.9490   20.5260 N   0  0  0  0  0  0  0  0  0  0  0  0
  -24.1460  -10.6620   20.9760 C   0  0  0  0  0  0  0  0  0  0  0  0
  -24.5650   -9.7060   21.9280 C   0  0  0  0  0  3  0  0  0  0  0  0
  -23.8690   -8.4870   22.0740 C   0  0  0  0  0  3  0  0  0  0  0  0
  -22.7390   -8.2140   21.2670 C   0  0  0  0  0  0  0  0  0  0  0  0
  -22.3390   -9.1590   20.3040 C   0  0  0  0  0  3  0  0  0  0  0  0
  -23.0380  -10.3700   20.1570 C   0  0  0  0  0  3  0  0  0  0  0  0
  -22.0170   -7.0460   21.3210 O   0  0  0  0  0  0  0  0  0  0  0  0
  -21.9080   -6.3210   22.4800 C   0  0  0  0  0  0  0  0  0  0  0  0
  -21.3340   -6.8670   23.6490 C   0  0  0  0  0  3  0  0  0  0  0  0
  -21.1770   -6.0650   24.7980 C   0  0  0  0  0  3  0  0  0  0  0  0
  -21.5840   -4.7170   24.7770 C   0  0  0  0  0  0  0  0  0  0  0  0
  -22.1510   -4.1700   23.6120 C   0  0  0  0  0  3  0  0  0  0  0  0
  -22.3090   -4.9690   22.4660 C   0  0  0  0  0  0  0  0  0  0  0  0
  -22.8360   -4.4320   21.3400 F   0  0  0  0  0  0  0  0  0  0  0  0
  -21.4260   -3.9440   25.8760 F   0  0  0  0  0  0  0  0  0  0  0  0
  -22.9290  -13.7190   21.1250 C   0  0  0  0  0  0  0  0  0  0  0  0
  -22.2090  -12.9880   21.9700 N   0  0  0  0  0  0  0  0  0  0  0  0
  -22.4680  -14.7410   20.6180 O   0  0  0  0  0  0  0  0  0  0  0  0
  -22.5960  -12.1610   22.4000 H   0  0  0  0  0  0  0  0  0  0  0  0
  -21.2600  -13.2580   22.1890 H   0  0  0  0  0  0  0  0  0  0  0  0
  -25.5220  -15.4710   20.3660 N   0  0  0  0  0  0  0  0  0  0  0  0
  -24.7330  -16.1000   20.4720 H   0  0  0  0  0  0  0  0  0  0  0  0
  -26.3540  -15.9390   20.0330 H   0  0  0  0  0  0  0  0  0  0  0  0
  1  4  2  0
  1  5  1  0
  2  6  2  0
  3  6  1  0
  4  2  1  0
  5  3  2  0
  6  8  1  0
  7  8  1  0
  9 11  1  0
  9  5  1  0
 10 21  2  0
 11 16  1  0
 12 20  1  0
 12 22  1  0
 13 19  1  0
 13 15  1  0
 14 20  1  0
 15 14  1  0
 16 15  2  0
 17 18  1  0
 17 11  2  0
 18 13  2  0
 19 12  1  0
 20 10  1  0
 22 24  2  0
 23 22  1  0
 25 23  1  0
 26 35  2  0
 26 31  1  0
 27 23  1  0
 27 31  1  0
 28 27  1  0
 29 30  1  0
 29 28  1  0
 30 26  1  0
 31 32  2  0
 32 33  1  0
 34 33  2  0
 35 34  1  0
 36 10  1  0
 36 41  1  0
 36 37  1  0
 37 40  1  1
 37 38  1  0
 39 37  1  0
 41 44  1  0
 42 46  1  0
 42 41  1  0
 43 42  2  0
 46 45  1  0
 48 46  1  0
 48 49  1  0
 48 47  1  0
 50  4  1  0
 51 54  1  0
 52 51  1  0
 52 55  1  0
 53 54  1  0
 53 55  1  0
 54 50  1  0
 55 64  1  0
 56 64  1  0
 57 62  1  0
 58 59  1  0
 58 57  1  0
 60 59  1  0
 60 69  1  0
 60 61  1  0
 62 56  1  0
 62 61  1  0
 63 56  2  0
 64 65  1  0
 66 67  2  0
 67 86  1  0
 68 67  1  0
 68 71  1  0
 69 66  1  0
 69 70  1  0
 70 68  2  0
 71 72  1  0
 72 73  2  0
 74 77  1  0
 74 73  1  0
 75 74  2  0
 76 75  1  0
 76 71  2  0
 77 78  1  0
 78 79  1  0
 79 80  2  0
 81 80  1  0
 81 85  1  0
 82 81  2  0
 83 78  2  0
 83 82  1  0
 84 83  1  0
 86 87  1  0
 87 90  1  0
 87 89  1  0
 88 86  2  0
 91 92  1  0
 91 66  1  0
 93 91  1  0
M  ISO  4   5 101   9 101  56 100  64 100
M  END
>  <TORSDO>  (76) 
F 19

>  <SCORE>  (76) 
-13.610

>  <name>  (76) 
75

>  <ligand_id>  (76) 
75

>  <original_smiles>  (76) 
[H]c1c([H])c([H])c2c(c1[H])C([H])([H])C([H])([H])C([H])([H])C2([H])N([H])C(=O)C1([H])N(C(=O)C([H])(N([H])C(=O)C([H])(N([H])C([H])([H])[H])C([H])([H])[H])C(C([H])([H])[H])(C([H])([H])[H])C([H])([H])[H])C([H])([H])c2c([H])c(Oc3c([H])c(OC([H])([H])[H])c([H])c(C([H])([H])C4([H])C([H])([H])C([H])([H])C([H])(N([H])C(=O)N5C([H])([H])C([H])([H])C([H])([H])C([H])(n6nc(-c7c([H])c([H])c(Oc8c([H])c([H])c(F)c([H])c8F)c([H])c7[H])c(C(=O)N([H])[H])c6N([H])[H])C5([H])[H])C4([H])[H])c3[H])c([H])c([H])c2C1([H])[H]

>  <smiles>  (76) 
[H]c1c([H])c([H])c2c(c1[H])C([H])([H])C([H])([H])C([H])([H])C2([H])N([H])C(=O)C1([H])N(C(=O)C([H])(N([H])C(=O)C([H])(N([H])C([H])([H])[H])C([H])([H])[H])C(C([H])([H])[H])(C([H])([H])[H])C([H])([H])[H])C([H])([H])c2c([H])c(Oc3c([H])c(OC([H])([H])[H])c([H])c(C([H])([H])C4([H])C([H])([H])C([H])([H])C([H])(N([H])C(=O)N5C([H])([H])C([H])([H])C([H])([H])C([H])(n6nc(-c7c([H])c([H])c(Oc8c([H])c([H])c(F)c([H])c8F)c([H])c7[H])c(C(=O)N([H])[H])c6N([H])[H])C5([H])[H])C4([H])[H])c3[H])c([H])c([H])c2C1([H])[H]

$$$$
76:0:0
     RDKit          3D

 90 98  0  0  1  0  0  0  0  0999 V2000
  -28.0140  -21.2480   19.4260 C   0  0  0  0  0  3  0  0  0  0  0  0
  -29.1400  -22.9280   21.1430 C   0  0  0  0  0  3  0  0  0  0  0  0
  -28.8760  -20.3240   20.2400 C   0  0  0  0  0  0  0  0  0  0  0  0
  -27.7600  -22.7680   19.4320 C   0  0  0  0  0  0  0  0  0  0  0  0
  -28.2670  -23.8540   20.3290 C   0  0  0  0  0  0  0  0  0  0  0  0
  -29.4060  -21.4000   21.1400 C   0  0  0  0  0  0  0  0  0  0  0  0
  -30.2260  -20.9680   22.1280 F   0  0  0  0  0  0  0  0  0  0  0  0
  -30.1650  -15.7570   20.1530 C   0  0  0  0  0  0  0  0  0  0  0  0
  -30.3270  -13.2040   19.3080 C   0  0  0  0  0  2  0  0  0  0  0  0
  -29.4030  -12.7820   18.1250 C   0  0  0  0  0  2  0  0  0  0  0  0
  -27.9990  -12.3990   18.6170 C   0  0  0  0  0  2  0  0  0  0  0  0
  -27.5060  -13.3840   19.7010 C   0  0  0  0  0  3  0  0  0  0  0  0
  -28.5650  -13.6970   20.7840 C   0  0  0  0  0  2  0  0  0  0  0  0
  -29.7060  -14.3600   20.1030 N   0  0  0  0  0  0  0  0  0  0  0  0
  -31.3920  -15.7520   19.9330 O   0  0  0  0  0  0  0  0  0  0  0  0
  -28.7470  -18.5300   20.2850 C   0  0  0  0  0  0  0  0  0  0  0  0
  -29.2540  -17.0270   20.2630 N   0  0  0  0  0  0  0  0  0  0  0  0
  -27.5260  -18.3760   20.3570 O   0  0  0  0  0  0  0  0  0  0  0  0
  -28.3590  -16.5840   20.3820 H   0  0  0  0  0  0  0  0  0  0  0  0
  -25.1670  -13.8830   20.5550 C   0  0  0  0  0  0  0  0  0  0  0  0
  -24.1250  -13.0880   20.9400 C   0  0  0  0  0  0  0  0  0  0  0  0
  -24.6010  -11.7430   20.8620 C   0  0  0  0  0  0  0  0  0  0  0  0
  -26.2080  -13.0250   20.2560 N   0  0  0  0  0  0  0  0  0  0  0  0
  -25.8840  -11.7280   20.5070 N   0  0  0  0  0  0  0  0  0  0  0  0
  -23.8870  -10.4720   21.0450 C   0  0  0  0  0  0  0  0  0  0  0  0
  -24.3350   -9.4950   21.9620 C   0  0  0  0  0  3  0  0  0  0  0  0
  -23.6150   -8.2940   22.1370 C   0  0  0  0  0  3  0  0  0  0  0  0
  -22.4320   -8.0600   21.3960 C   0  0  0  0  0  0  0  0  0  0  0  0
  -22.0030   -9.0250   20.4690 C   0  0  0  0  0  3  0  0  0  0  0  0
  -22.7230  -10.2180   20.2930 C   0  0  0  0  0  3  0  0  0  0  0  0
  -21.6830   -6.9110   21.4820 O   0  0  0  0  0  0  0  0  0  0  0  0
  -21.6330   -6.1680   22.6350 C   0  0  0  0  0  0  0  0  0  0  0  0
  -21.1590   -6.7080   23.8510 C   0  0  0  0  0  3  0  0  0  0  0  0
  -21.0590   -5.8910   24.9940 C   0  0  0  0  0  3  0  0  0  0  0  0
  -21.4230   -4.5330   24.9230 C   0  0  0  0  0  0  0  0  0  0  0  0
  -21.8910   -3.9910   23.7120 C   0  0  0  0  0  3  0  0  0  0  0  0
  -21.9910   -4.8070   22.5700 C   0  0  0  0  0  0  0  0  0  0  0  0
  -22.4220   -4.2750   21.4010 F   0  0  0  0  0  0  0  0  0  0  0  0
  -21.3210   -3.7440   26.0170 F   0  0  0  0  0  0  0  0  0  0  0  0
  -22.7330  -13.5500   21.2580 C   0  0  0  0  0  0  0  0  0  0  0  0
  -22.0400  -12.8410   22.1410 N   0  0  0  0  0  0  0  0  0  0  0  0
  -22.2720  -14.5760   20.7580 O   0  0  0  0  0  0  0  0  0  0  0  0
  -22.4270  -12.0120   22.5650 H   0  0  0  0  0  0  0  0  0  0  0  0
  -21.1070  -13.1330   22.3960 H   0  0  0  0  0  0  0  0  0  0  0  0
  -25.3070  -15.2590   20.3990 N   0  0  0  0  0  0  0  0  0  0  0  0
  -24.5310  -15.8950   20.5480 H   0  0  0  0  0  0  0  0  0  0  0  0
  -26.1180  -15.7190   20.0090 H   0  0  0  0  0  0  0  0  0  0  0  0
  -26.9400  -23.2050   18.4360 O   0  0  0  0  0  0  0  0  0  0  0  0
  -26.9250  -24.1550   18.3920 H   0  0  0  0  0  0  0  0  0  0  0  0
  -28.1700  -25.4980   20.3380 O   0  0  0  0  0  0  0  0  0  0  0  0
  -24.6040  -31.8520   23.2130 C   0  0  0  0  0  0  0  0  0  0  0  0
  -27.1580  -26.6990   20.3020 C   0  0  0  0  0  0  0  0  0  0  0  0
  -23.4380  -30.4480   21.5670 C   0  0  0  0  0  3  0  0  0  0  0  0
  -24.8990  -28.7720   20.1940 C   0  0  0  0  0  0  0  0  0  0  0  0
  -26.0200  -30.5640   21.4910 C   0  0  0  0  0  2  0  0  0  0  0  0
  -26.0850  -29.1190   20.8490 C   0  0  0  0  0  0  0  0  0  0  0  0
  -27.1940  -28.1120   20.8690 C   0  0  0  0  0  3  0  0  0  0  0  0
  -25.9360  -26.5760   19.5870 C   0  0  0  0  0  3  0  0  0  0  0  0
  -24.8650  -27.5270   19.5410 C   0  0  0  0  0  3  0  0  0  0  0  0
  -23.6980  -29.7360   20.2070 C   0  0  0  0  0  2  0  0  0  0  0  0
  -24.7110  -30.9900   22.1430 N   0  0  0  0  0  0  0  0  0  0  0  0
  -23.5040  -32.1620   23.7030 O   0  0  0  0  0  0  0  0  0  0  0  0
  -22.6970  -29.4850   22.5350 C   0  0  0  0  0  0  0  0  0  0  0  0
  -21.3630  -29.3510   22.4000 N   0  0  0  0  0  0  0  0  0  0  0  0
  -23.3370  -28.8530   23.3800 O   0  0  0  0  0  0  0  0  0  0  0  0
  -20.8980  -29.9100   21.7000 H   0  0  0  0  0  0  0  0  0  0  0  0
  -17.9510  -28.2040   22.9110 C   0  0  0  0  0  0  0  0  0  0  0  0
  -20.5180  -28.4270   23.1680 C   0  0  0  0  0  3  0  0  0  0  0  0
  -20.5900  -26.9950   22.5840 C   0  0  0  0  0  2  0  0  0  0  0  0
  -19.4800  -26.7010   21.5690 C   0  0  0  0  0  2  0  0  0  0  0  0
  -18.1030  -26.8610   22.2180 C   0  0  0  0  0  2  0  0  0  0  0  0
  -19.0840  -28.9460   23.3420 C   0  0  0  0  0  0  0  0  0  0  0  0
  -18.8840  -30.2010   23.9580 C   0  0  0  0  0  3  0  0  0  0  0  0
  -17.5860  -30.7150   24.1420 C   0  0  0  0  0  3  0  0  0  0  0  0
  -16.4690  -29.9720   23.7220 C   0  0  0  0  0  3  0  0  0  0  0  0
  -16.6530  -28.7180   23.1130 C   0  0  0  0  0  3  0  0  0  0  0  0
  -25.8580  -32.5040   23.8720 C   0  0  0  0  0  3  0  0  0  0  0  0
  -25.5390  -33.9120   24.1800 N   0  0  0  0  0  0  0  0  0  0  0  0
  -25.8900  -34.9670   23.4320 C   0  0  0  0  0  0  0  0  0  0  0  0
  -26.5730  -34.8560   22.4110 O   0  0  0  0  0  0  0  0  0  0  0  0
  -24.9310  -34.0720   24.9710 H   0  0  0  0  0  0  0  0  0  0  0  0
  -24.1820  -36.7840   23.0680 C   0  0  0  0  0  1  0  0  0  0  0  0
  -25.4150  -36.3660   23.8840 C   0  0  0  0  0  3  0  0  0  0  0  0
  -27.5490  -37.2460   24.7270 C   0  0  0  0  0  1  0  0  0  0  0  0
  -26.4580  -37.4110   23.7710 N   0  0  0  0  0  0  0  0  0  0  0  0
  -26.0560  -38.3350   23.9020 H   0  0  0  0  0  0  0  0  0  0  0  0
  -26.3170  -31.7620   25.1900 C   0  0  1  0  0  0  0  0  0  0  0  0
  -25.1830  -31.5620   26.2230 C   0  0  0  0  0  1  0  0  0  0  0  0
  -26.9030  -30.3700   24.8690 C   0  0  0  0  0  1  0  0  0  0  0  0
  -27.4500  -32.5650   25.8740 C   0  0  0  0  0  1  0  0  0  0  0  0
  1  4  2  0
  1  3  1  0
  3 16  1  0
  3  6  2  0
  4  5  1  0
  5 50  1  0
  5  2  2  0
  6  2  1  0
  6  7  1  0
  8 17  1  0
  9 14  1  0
 10 11  1  0
 10  9  1  0
 12 11  1  0
 12 23  1  0
 12 13  1  0
 14  8  1  0
 14 13  1  0
 15  8  2  0
 16 18  2  0
 17 16  1  0
 17 19  1  0
 20 21  2  0
 21 40  1  0
 22 21  1  0
 22 25  1  0
 23 24  1  0
 23 20  1  0
 24 22  2  0
 25 26  1  0
 26 27  2  0
 28 31  1  0
 28 27  1  0
 29 28  2  0
 30 29  1  0
 30 25  2  0
 31 32  1  0
 32 33  1  0
 33 34  2  0
 35 34  1  0
 35 39  1  0
 36 35  2  0
 37 32  2  0
 37 36  1  0
 38 37  1  0
 40 41  1  0
 41 44  1  0
 41 43  1  0
 42 40  2  0
 45 46  1  0
 45 20  1  0
 47 45  1  0
 48  4  1  0
 49 48  1  0
 51 62  2  0
 52 50  1  0
 52 57  1  0
 53 61  1  0
 53 63  1  0
 54 60  1  0
 54 56  1  0
 55 61  1  0
 56 57  2  0
 56 55  1  0
 58 52  2  0
 59 58  1  0
 59 54  2  0
 60 53  1  0
 61 51  1  0
 63 65  2  0
 64 63  1  0
 66 64  1  0
 67 76  2  0
 67 72  1  0
 68 64  1  0
 68 72  1  0
 69 68  1  0
 70 71  1  0
 70 69  1  0
 71 67  1  0
 72 73  2  0
 73 74  1  0
 75 74  2  0
 76 75  1  0
 77 51  1  0
 77 78  1  0
 77 87  1  0
 78 81  1  0
 79 83  1  0
 79 78  1  0
 80 79  2  0
 83 82  1  0
 85 83  1  0
 85 86  1  0
 85 84  1  0
 87 90  1  1
 87 88  1  0
 89 87  1  0
M  ISO  4   5 101   8 100  17 100  50 101
M  END
>  <TORSDO>  (77) 
F 17

>  <SCORE>  (77) 
-15.917

>  <name>  (77) 
76

>  <ligand_id>  (77) 
76

>  <original_smiles>  (77) 
[H]Oc1c([H])c(C(=O)N([H])C(=O)N2C([H])([H])C([H])([H])C([H])([H])C([H])(n3nc(-c4c([H])c([H])c(Oc5c([H])c([H])c(F)c([H])c5F)c([H])c4[H])c(C(=O)N([H])[H])c3N([H])[H])C2([H])[H])c(F)c([H])c1Oc1c([H])c([H])c2c(c1[H])C([H])([H])N(C(=O)C([H])(N([H])C(=O)C([H])(N([H])C([H])([H])[H])C([H])([H])[H])C(C([H])([H])[H])(C([H])([H])[H])C([H])([H])[H])C([H])(C(=O)N([H])C1([H])c3c([H])c([H])c([H])c([H])c3C([H])([H])C([H])([H])C1([H])[H])C2([H])[H]

>  <smiles>  (77) 
[H]Oc1c([H])c(C(=O)N([H])C(=O)N2C([H])([H])C([H])([H])C([H])([H])C([H])(n3nc(-c4c([H])c([H])c(Oc5c([H])c([H])c(F)c([H])c5F)c([H])c4[H])c(C(=O)N([H])[H])c3N([H])[H])C2([H])[H])c(F)c([H])c1Oc1c([H])c([H])c2c(c1[H])C([H])([H])N(C(=O)C([H])(N([H])C(=O)C([H])(N([H])C([H])([H])[H])C([H])([H])[H])C(C([H])([H])[H])(C([H])([H])[H])C([H])([H])[H])C([H])(C(=O)N([H])C1([H])c3c([H])c([H])c([H])c([H])c3C([H])([H])C([H])([H])C1([H])[H])C2([H])[H]

$$$$
77:0:0
     RDKit          3D

 89 97  0  0  1  0  0  0  0  0999 V2000
  -26.6130  -23.0580   21.5710 C   0  0  0  0  0  3  0  0  0  0  0  0
  -27.4300  -21.9690   21.1870 C   0  0  0  0  0  3  0  0  0  0  0  0
  -26.9040  -24.4010   21.2310 C   0  0  0  0  0  3  0  0  0  0  0  0
  -28.8680  -23.5890   20.0870 C   0  0  0  0  0  3  0  0  0  0  0  0
  -28.6080  -22.1540   20.4380 C   0  0  0  0  0  0  0  0  0  0  0  0
  -28.0280  -24.7720   20.4540 C   0  0  0  0  0  0  0  0  0  0  0  0
  -28.2380  -26.2140   20.1790 O   0  0  0  0  0  0  0  0  0  0  0  0
  -24.6430  -31.9250   23.2340 C   0  0  0  0  0  0  0  0  0  0  0  0
  -27.1980  -27.2210   20.1590 C   0  0  0  0  0  0  0  0  0  0  0  0
  -23.4340  -30.5430   21.5900 C   0  0  0  0  0  3  0  0  0  0  0  0
  -24.8760  -28.9790   20.1420 C   0  0  0  0  0  0  0  0  0  0  0  0
  -25.9880  -30.8030   21.4180 C   0  0  0  0  0  2  0  0  0  0  0  0
  -26.0570  -29.4140   20.7590 C   0  0  0  0  0  0  0  0  0  0  0  0
  -27.2170  -28.5480   20.7560 C   0  0  0  0  0  3  0  0  0  0  0  0
  -26.0000  -26.9040   19.4830 C   0  0  0  0  0  3  0  0  0  0  0  0
  -24.8600  -27.7370   19.4900 C   0  0  0  0  0  3  0  0  0  0  0  0
  -23.6490  -29.8770   20.2050 C   0  0  0  0  0  2  0  0  0  0  0  0
  -24.7090  -31.1130   22.1350 N   0  0  0  0  0  0  0  0  0  0  0  0
  -23.5610  -32.2060   23.7700 O   0  0  0  0  0  0  0  0  0  0  0  0
  -22.7610  -29.5290   22.5480 C   0  0  0  0  0  0  0  0  0  0  0  0
  -21.4330  -29.3540   22.4230 N   0  0  0  0  0  0  0  0  0  0  0  0
  -23.4350  -28.9000   23.3680 O   0  0  0  0  0  0  0  0  0  0  0  0
  -20.9440  -29.9130   21.7370 H   0  0  0  0  0  0  0  0  0  0  0  0
  -18.0580  -28.1280   22.9140 C   0  0  0  0  0  0  0  0  0  0  0  0
  -20.6150  -28.4110   23.1910 C   0  0  0  0  0  3  0  0  0  0  0  0
  -20.7300  -26.9800   22.6190 C   0  0  0  0  0  2  0  0  0  0  0  0
  -19.6350  -26.6480   21.5990 C   0  0  0  0  0  2  0  0  0  0  0  0
  -18.2490  -26.7800   22.2370 C   0  0  0  0  0  2  0  0  0  0  0  0
  -19.1690  -28.9010   23.3470 C   0  0  0  0  0  0  0  0  0  0  0  0
  -18.9360  -30.1590   23.9410 C   0  0  0  0  0  3  0  0  0  0  0  0
  -17.6250  -30.6470   24.1050 C   0  0  0  0  0  3  0  0  0  0  0  0
  -16.5290  -29.8730   23.6870 C   0  0  0  0  0  3  0  0  0  0  0  0
  -16.7470  -28.6150   23.0970 C   0  0  0  0  0  3  0  0  0  0  0  0
  -25.9250  -32.5560   23.8590 C   0  0  0  0  0  3  0  0  0  0  0  0
  -26.4440  -31.7760   25.1290 C   0  0  1  0  0  0  0  0  0  0  0  0
  -25.3540  -31.5360   26.2000 C   0  0  0  0  0  1  0  0  0  0  0  0
  -27.0210  -30.3980   24.7320 C   0  0  0  0  0  1  0  0  0  0  0  0
  -27.5990  -32.5630   25.7910 C   0  0  0  0  0  1  0  0  0  0  0  0
  -25.6140  -33.9510   24.2060 N   0  0  0  0  0  0  0  0  0  0  0  0
  -25.9300  -35.0160   23.4570 C   0  0  0  0  0  0  0  0  0  0  0  0
  -26.5810  -34.9260   22.4120 O   0  0  0  0  0  0  0  0  0  0  0  0
  -25.0330  -34.0950   25.0200 H   0  0  0  0  0  0  0  0  0  0  0  0
  -24.1840  -36.8060   23.1700 C   0  0  0  0  0  1  0  0  0  0  0  0
  -25.4510  -36.3990   23.9400 C   0  0  0  0  0  3  0  0  0  0  0  0
  -27.6050  -37.2890   24.7140 C   0  0  0  0  0  1  0  0  0  0  0  0
  -26.4750  -37.4590   23.8060 N   0  0  0  0  0  0  0  0  0  0  0  0
  -26.0680  -38.3760   23.9720 H   0  0  0  0  0  0  0  0  0  0  0  0
  -29.5240  -20.8060   20.1150 C   0  0  0  0  0  3  0  0  0  0  0  0
  -29.1250  -19.1650   20.3730 C   0  0  0  0  0  3  0  0  0  0  0  0
  -31.3700  -18.1080   21.1540 C   0  0  0  0  0  1  0  0  0  0  0  0
  -30.1840  -17.8380   20.2110 C   0  0  0  0  0  3  0  0  0  0  0  0
  -30.5350  -15.0800   20.1220 C   0  0  0  0  0  0  0  0  0  0  0  0
  -30.3790  -12.7340   19.1630 C   0  0  0  0  0  2  0  0  0  0  0  0
  -29.4180  -12.6940   17.9530 C   0  0  0  0  0  2  0  0  0  0  0  0
  -27.9690  -12.4720   18.4200 C   0  0  0  0  0  2  0  0  0  0  0  0
  -27.5890  -13.3840   19.6170 C   0  0  0  0  0  3  0  0  0  0  0  0
  -28.6720  -13.4010   20.7160 C   0  0  0  0  0  2  0  0  0  0  0  0
  -29.9230  -13.8250   20.0760 N   0  0  0  0  0  0  0  0  0  0  0  0
  -31.7250  -15.1200   19.7890 O   0  0  0  0  0  0  0  0  0  0  0  0
  -29.7990  -16.2920   20.3360 N   0  0  0  0  0  0  0  0  0  0  0  0
  -28.8290  -16.1270   20.5630 H   0  0  0  0  0  0  0  0  0  0  0  0
  -25.2240  -13.9380   20.4160 C   0  0  0  0  0  0  0  0  0  0  0  0
  -24.1750  -13.1530   20.8080 C   0  0  0  0  0  0  0  0  0  0  0  0
  -24.6490  -11.8060   20.7610 C   0  0  0  0  0  0  0  0  0  0  0  0
  -26.2680  -13.0700   20.1470 N   0  0  0  0  0  0  0  0  0  0  0  0
  -25.9340  -11.7810   20.4210 N   0  0  0  0  0  0  0  0  0  0  0  0
  -23.9360  -10.5380   20.9620 C   0  0  0  0  0  0  0  0  0  0  0  0
  -24.3840   -9.5770   21.8960 C   0  0  0  0  0  3  0  0  0  0  0  0
  -23.6680   -8.3760   22.0850 C   0  0  0  0  0  3  0  0  0  0  0  0
  -22.4910   -8.1240   21.3400 C   0  0  0  0  0  0  0  0  0  0  0  0
  -22.0620   -9.0740   20.3960 C   0  0  0  0  0  3  0  0  0  0  0  0
  -22.7780  -10.2670   20.2050 C   0  0  0  0  0  3  0  0  0  0  0  0
  -21.7450   -6.9740   21.4400 O   0  0  0  0  0  0  0  0  0  0  0  0
  -21.6960   -6.2470   22.6020 C   0  0  0  0  0  0  0  0  0  0  0  0
  -21.2610   -6.8160   23.8190 C   0  0  0  0  0  3  0  0  0  0  0  0
  -21.1590   -6.0150   24.9740 C   0  0  0  0  0  3  0  0  0  0  0  0
  -21.4810   -4.6460   24.9120 C   0  0  0  0  0  0  0  0  0  0  0  0
  -21.9080   -4.0770   23.7000 C   0  0  0  0  0  3  0  0  0  0  0  0
  -22.0120   -4.8750   22.5480 C   0  0  0  0  0  0  0  0  0  0  0  0
  -22.4040   -4.3160   21.3770 F   0  0  0  0  0  0  0  0  0  0  0  0
  -21.3750   -3.8740   26.0200 F   0  0  0  0  0  0  0  0  0  0  0  0
  -22.7810  -13.6190   21.1100 C   0  0  0  0  0  0  0  0  0  0  0  0
  -22.0790  -12.9180   21.9940 N   0  0  0  0  0  0  0  0  0  0  0  0
  -22.3240  -14.6410   20.6000 O   0  0  0  0  0  0  0  0  0  0  0  0
  -22.4630  -12.0920   22.4290 H   0  0  0  0  0  0  0  0  0  0  0  0
  -21.1440  -13.2120   22.2400 H   0  0  0  0  0  0  0  0  0  0  0  0
  -25.3700  -15.3110   20.2380 N   0  0  0  0  0  0  0  0  0  0  0  0
  -24.5980  -15.9550   20.3660 H   0  0  0  0  0  0  0  0  0  0  0  0
  -26.1960  -15.7560   19.8600 H   0  0  0  0  0  0  0  0  0  0  0  0
  2  1  2  0
  3  1  1  0
  4  5  2  0
  4  6  1  0
  5  2  1  0
  6  3  2  0
  7  6  1  0
  8 19  2  0
  9  7  1  0
  9 14  1  0
 10 18  1  0
 10 20  1  0
 11 17  1  0
 11 13  1  0
 12 18  1  0
 13 12  1  0
 14 13  2  0
 15 16  1  0
 15  9  2  0
 16 11  2  0
 17 10  1  0
 18  8  1  0
 20 22  2  0
 21 20  1  0
 23 21  1  0
 24 33  2  0
 24 29  1  0
 25 21  1  0
 25 29  1  0
 26 25  1  0
 27 28  1  0
 27 26  1  0
 28 24  1  0
 29 30  2  0
 30 31  1  0
 32 31  2  0
 33 32  1  0
 34  8  1  0
 34 39  1  0
 34 35  1  0
 35 38  1  1
 35 36  1  0
 37 35  1  0
 39 42  1  0
 40 44  1  0
 40 39  1  0
 41 40  2  0
 44 43  1  0
 46 44  1  0
 46 47  1  0
 46 45  1  0
 48 49  2  0
 48  5  1  0
 51 60  1  0
 51 49  1  0
 51 50  1  0
 52 60  1  0
 53 58  1  0
 54 55  1  0
 54 53  1  0
 56 55  1  0
 56 65  1  0
 56 57  1  0
 58 52  1  0
 58 57  1  0
 59 52  2  0
 60 61  1  0
 62 63  2  0
 63 82  1  0
 64 63  1  0
 64 67  1  0
 65 62  1  0
 65 66  1  0
 66 64  2  0
 67 68  1  0
 68 69  2  0
 70 73  1  0
 70 69  1  0
 71 70  2  0
 72 71  1  0
 72 67  2  0
 73 74  1  0
 74 75  1  0
 75 76  2  0
 77 76  1  0
 77 81  1  0
 78 77  2  0
 79 74  2  0
 79 78  1  0
 80 79  1  0
 82 83  1  0
 83 86  1  0
 83 85  1  0
 84 82  2  0
 87 88  1  0
 87 62  1  0
 89 87  1  0
M  ISO  4   6 101   7 101  52 100  60 100
M  END
>  <TORSDO>  (78) 
F 19

>  <SCORE>  (78) 
-15.192

>  <name>  (78) 
77

>  <ligand_id>  (78) 
77

>  <original_smiles>  (78) 
[H]c1c([H])c([H])c2c(c1[H])C([H])([H])C([H])([H])C([H])([H])C2([H])N([H])C(=O)C1([H])N(C(=O)C([H])(N([H])C(=O)C([H])(N([H])C([H])([H])[H])C([H])([H])[H])C(C([H])([H])[H])(C([H])([H])[H])C([H])([H])[H])C([H])([H])c2c([H])c(Oc3c([H])c([H])c([H])c(C([H])([H])C([H])([H])C([H])(N([H])C(=O)N4C([H])([H])C([H])([H])C([H])([H])C([H])(n5nc(-c6c([H])c([H])c(Oc7c([H])c([H])c(F)c([H])c7F)c([H])c6[H])c(C(=O)N([H])[H])c5N([H])[H])C4([H])[H])C([H])([H])[H])c3[H])c([H])c([H])c2C1([H])[H]

>  <smiles>  (78) 
[H]c1c([H])c([H])c2c(c1[H])C([H])([H])C([H])([H])C([H])([H])C2([H])N([H])C(=O)C1([H])N(C(=O)C([H])(N([H])C(=O)C([H])(N([H])C([H])([H])[H])C([H])([H])[H])C(C([H])([H])[H])(C([H])([H])[H])C([H])([H])[H])C([H])([H])c2c([H])c(Oc3c([H])c([H])c([H])c(C([H])([H])C([H])([H])C([H])(N([H])C(=O)N4C([H])([H])C([H])([H])C([H])([H])C([H])(n5nc(-c6c([H])c([H])c(Oc7c([H])c([H])c(F)c([H])c7F)c([H])c6[H])c(C(=O)N([H])[H])c5N([H])[H])C4([H])[H])C([H])([H])[H])c3[H])c([H])c([H])c2C1([H])[H]

$$$$
78:0:0
     RDKit          3D

 97103  0  0  1  0  0  0  0  0999 V2000
  -29.8500  -14.6160   21.7050 C   0  0  0  0  0  1  0  0  0  0  0  0
  -28.7450  -16.0060   20.7030 C   0  0  0  0  0  2  0  0  0  0  0  0
  -28.5940  -15.9610   18.9510 C   0  0  0  0  0  2  0  0  0  0  0  0
  -30.7720  -13.3350   20.7700 C   0  0  0  0  0  2  0  0  0  0  0  0
  -28.3660  -17.4840   21.3030 C   0  0  0  0  0  2  0  0  0  0  0  0
  -28.1280  -17.1780   18.1920 C   0  0  0  0  0  2  0  0  0  0  0  0
  -27.4210  -18.3360   18.9830 C   0  0  0  0  0  2  0  0  0  0  0  0
  -27.9170  -18.8240   20.3940 C   0  0  0  0  0  3  0  0  0  0  0  0
  -29.9710  -14.0510   17.7090 S   0  0  0  0  0  1  0  0  0  0  0  0
  -28.6520  -20.3390   20.3520 C   0  0  0  0  0  0  0  0  0  0  0  0
  -28.0300  -21.6270   20.4380 N   0  0  0  0  0  0  0  0  0  0  0  0
  -29.8650  -20.3200   20.1720 O   0  0  0  0  0  0  0  0  0  0  0  0
  -27.0350  -21.5720   20.6080 H   0  0  0  0  0  0  0  0  0  0  0  0
  -28.5580  -23.1140   20.1270 C   0  0  0  0  0  3  0  0  0  0  0  0
  -27.8360  -24.5880   20.5830 C   0  0  0  0  0  3  0  0  0  0  0  0
  -28.1810  -26.0700   20.1450 O   0  0  0  0  0  0  0  0  0  0  0  0
  -24.7700  -31.8700   23.2330 C   0  0  0  0  0  0  0  0  0  0  0  0
  -27.1890  -27.1220   20.1260 C   0  0  0  0  0  0  0  0  0  0  0  0
  -23.5170  -30.5070   21.6060 C   0  0  0  0  0  3  0  0  0  0  0  0
  -24.9140  -28.9340   20.1370 C   0  0  0  0  0  0  0  0  0  0  0  0
  -26.0700  -30.7370   21.3930 C   0  0  0  0  0  2  0  0  0  0  0  0
  -26.1140  -29.3470   20.7290 C   0  0  0  0  0  0  0  0  0  0  0  0
  -27.2590  -28.4600   20.7030 C   0  0  0  0  0  3  0  0  0  0  0  0
  -25.9720  -26.8320   19.4770 C   0  0  0  0  0  3  0  0  0  0  0  0
  -24.8610  -27.6960   19.4880 C   0  0  0  0  0  3  0  0  0  0  0  0
  -23.7030  -29.8500   20.2150 C   0  0  0  0  0  2  0  0  0  0  0  0
  -24.8080  -31.0590   22.1320 N   0  0  0  0  0  0  0  0  0  0  0  0
  -23.7040  -32.1610   23.7900 O   0  0  0  0  0  0  0  0  0  0  0  0
  -22.8440  -29.4980   22.5680 C   0  0  0  0  0  0  0  0  0  0  0  0
  -21.5290  -29.2760   22.4050 N   0  0  0  0  0  0  0  0  0  0  0  0
  -23.5100  -28.9190   23.4300 O   0  0  0  0  0  0  0  0  0  0  0  0
  -21.0430  -29.7950   21.6880 H   0  0  0  0  0  0  0  0  0  0  0  0
  -18.1950  -27.9180   22.7730 C   0  0  0  0  0  0  0  0  0  0  0  0
  -20.7170  -28.3280   23.1720 C   0  0  0  0  0  3  0  0  0  0  0  0
  -20.9290  -26.8820   22.6660 C   0  0  0  0  0  2  0  0  0  0  0  0
  -19.9050  -26.4580   21.6090 C   0  0  0  0  0  2  0  0  0  0  0  0
  -18.4820  -26.5540   22.1660 C   0  0  0  0  0  2  0  0  0  0  0  0
  -19.2460  -28.7560   23.2310 C   0  0  0  0  0  0  0  0  0  0  0  0
  -18.9270  -30.0290   23.7530 C   0  0  0  0  0  3  0  0  0  0  0  0
  -17.5900  -30.4600   23.8320 C   0  0  0  0  0  3  0  0  0  0  0  0
  -16.5520  -29.6180   23.3980 C   0  0  0  0  0  3  0  0  0  0  0  0
  -16.8550  -28.3510   22.8680 C   0  0  0  0  0  3  0  0  0  0  0  0
  -26.0710  -32.4840   23.8370 C   0  0  0  0  0  3  0  0  0  0  0  0
  -25.7700  -33.8650   24.2430 N   0  0  0  0  0  0  0  0  0  0  0  0
  -26.0630  -34.9530   23.5220 C   0  0  0  0  0  0  0  0  0  0  0  0
  -26.6820  -34.9060   22.4560 O   0  0  0  0  0  0  0  0  0  0  0  0
  -25.2200  -33.9810   25.0820 H   0  0  0  0  0  0  0  0  0  0  0  0
  -24.3080  -36.7500   23.3620 C   0  0  0  0  0  1  0  0  0  0  0  0
  -25.5960  -36.3140   24.0770 C   0  0  0  0  0  3  0  0  0  0  0  0
  -27.7640  -37.1850   24.8390 C   0  0  0  0  0  1  0  0  0  0  0  0
  -26.6130  -37.3810   23.9610 N   0  0  0  0  0  0  0  0  0  0  0  0
  -26.2040  -38.2870   24.1730 H   0  0  0  0  0  0  0  0  0  0  0  0
  -26.6310  -31.6640   25.0620 C   0  0  1  0  0  0  0  0  0  0  0  0
  -25.5720  -31.3750   26.1520 C   0  0  0  0  0  1  0  0  0  0  0  0
  -27.2190  -30.3130   24.5960 C   0  0  0  0  0  1  0  0  0  0  0  0
  -27.7910  -32.4390   25.7350 C   0  0  0  0  0  1  0  0  0  0  0  0
  -32.1000  -12.8570   21.2610 C   0  0  0  0  0  2  0  0  0  0  0  0
  -33.0660  -14.0500   21.6040 C   0  0  0  0  0  2  0  0  0  0  0  0
  -33.7610  -14.8930   20.4820 C   0  0  0  0  0  2  0  0  0  0  0  0
  -32.9050  -15.7930   19.5350 C   0  0  0  0  0  2  0  0  0  0  0  0
  -32.5200  -15.2430   18.1200 C   0  0  0  0  0  2  0  0  0  0  0  0
  -32.2450  -13.6760   18.0560 C   0  0  0  0  0  2  0  0  0  0  0  0
  -30.6130  -10.5460   18.7970 C   0  0  0  0  0  2  0  0  0  0  0  0
  -29.7090   -9.8470   17.7310 C   0  0  0  0  0  2  0  0  0  0  0  0
  -28.2990  -10.0320   18.1890 C   0  0  0  0  0  2  0  0  0  0  0  0
  -28.0590  -11.4480   18.7390 C   0  0  0  0  0  3  0  0  0  0  0  0
  -29.2250  -12.0560   19.4960 C   0  0  0  0  0  2  0  0  0  0  0  0
  -30.5110  -12.1620   18.6220 N   0  0  0  0  0  0  0  0  0  0  0  0
  -33.4120  -13.3000   17.8260 O   0  0  0  0  0  1  0  0  0  0  0  0
  -26.2850  -12.6060   20.0940 C   0  0  0  0  0  0  0  0  0  0  0  0
  -25.1540  -12.1460   20.7030 C   0  0  0  0  0  0  0  0  0  0  0  0
  -25.1960  -10.7210   20.5960 C   0  0  0  0  0  0  0  0  0  0  0  0
  -26.9050  -11.4860   19.5980 N   0  0  0  0  0  0  0  0  0  0  0  0
  -26.3140  -10.3360   20.0070 N   0  0  0  0  0  0  0  0  0  0  0  0
  -24.2010   -9.6980   20.9360 C   0  0  0  0  0  0  0  0  0  0  0  0
  -24.5010   -8.6350   21.8150 C   0  0  0  0  0  3  0  0  0  0  0  0
  -23.5190   -7.6670   22.1270 C   0  0  0  0  0  3  0  0  0  0  0  0
  -22.2220   -7.7670   21.5610 C   0  0  0  0  0  0  0  0  0  0  0  0
  -21.9380   -8.8170   20.6690 C   0  0  0  0  0  3  0  0  0  0  0  0
  -22.9210   -9.7710   20.3590 C   0  0  0  0  0  3  0  0  0  0  0  0
  -21.2110   -6.8720   21.8030 O   0  0  0  0  0  0  0  0  0  0  0  0
  -21.1380   -6.1710   22.9820 C   0  0  0  0  0  0  0  0  0  0  0  0
  -21.0210   -6.8120   24.2360 C   0  0  0  0  0  3  0  0  0  0  0  0
  -20.8840   -6.0430   25.4080 C   0  0  0  0  0  3  0  0  0  0  0  0
  -20.8550   -4.6370   25.3300 C   0  0  0  0  0  0  0  0  0  0  0  0
  -20.9620   -3.9980   24.0830 C   0  0  0  0  0  3  0  0  0  0  0  0
  -21.1040   -4.7630   22.9130 C   0  0  0  0  0  0  0  0  0  0  0  0
  -21.1850   -4.1430   21.7110 F   0  0  0  0  0  0  0  0  0  0  0  0
  -20.7120   -3.9020   26.4540 F   0  0  0  0  0  0  0  0  0  0  0  0
  -24.0390  -12.9920   21.2350 C   0  0  0  0  0  0  0  0  0  0  0  0
  -23.3160  -12.4940   22.2340 N   0  0  0  0  0  0  0  0  0  0  0  0
  -23.8280  -14.1170   20.7900 O   0  0  0  0  0  0  0  0  0  0  0  0
  -23.4900  -11.5720   22.6000 H   0  0  0  0  0  0  0  0  0  0  0  0
  -22.5520  -13.0340   22.6220 H   0  0  0  0  0  0  0  0  0  0  0  0
  -26.8260  -13.8730   19.8680 N   0  0  0  0  0  0  0  0  0  0  0  0
  -26.3740  -14.7240   20.1730 H   0  0  0  0  0  0  0  0  0  0  0  0
  -27.7050  -14.0130   19.3860 H   0  0  0  0  0  0  0  0  0  0  0  0
  2  5  1  0
  3  2  1  0
  4 57  1  0
  4  1  1  0
  6  3  1  0
  6  7  1  0
  7  8  1  0
  8  5  1  0
  9 68  1  0
 10  8  1  0
 10 11  1  0
 11 13  1  0
 12 10  2  0
 14 11  1  0
 14 15  2  0
 16 15  1  0
 17 28  2  0
 18 16  1  0
 18 23  1  0
 19 27  1  0
 19 29  1  0
 20 26  1  0
 20 22  1  0
 21 27  1  0
 22 21  1  0
 23 22  2  0
 24 25  1  0
 24 18  2  0
 25 20  2  0
 26 19  1  0
 27 17  1  0
 29 31  2  0
 30 29  1  0
 32 30  1  0
 33 42  2  0
 33 38  1  0
 34 30  1  0
 34 38  1  0
 35 34  1  0
 36 37  1  0
 36 35  1  0
 37 33  1  0
 38 39  2  0
 39 40  1  0
 41 40  2  0
 42 41  1  0
 43 17  1  0
 43 44  1  0
 43 53  1  0
 44 47  1  0
 45 49  1  0
 45 44  1  0
 46 45  2  0
 49 48  1  0
 51 49  1  0
 51 52  1  0
 51 50  1  0
 53 56  1  1
 53 54  1  0
 55 53  1  0
 57 58  1  0
 59 58  1  0
 60 59  1  0
 61 60  1  0
 62 61  1  0
 64 65  1  0
 64 63  1  0
 66 65  1  0
 66 67  1  0
 66 73  1  0
 68 63  1  0
 68 67  1  0
 69 62  1  0
 70 71  2  0
 71 90  1  0
 72 71  1  0
 72 75  1  0
 73 74  1  0
 73 70  1  0
 74 72  2  0
 75 76  1  0
 76 77  2  0
 78 81  1  0
 78 77  1  0
 79 78  2  0
 80 79  1  0
 80 75  2  0
 81 82  1  0
 82 83  1  0
 83 84  2  0
 85 84  1  0
 85 89  1  0
 86 85  2  0
 87 82  2  0
 87 86  1  0
 88 87  1  0
 90 91  1  0
 91 93  1  0
 91 94  1  0
 92 90  2  0
 95 70  1  0
 95 96  1  0
 97 95  1  0
M  ISO  4  15 101  16 101  61 100  62 100
M  END
>  <TORSDO>  (79) 
F 24

>  <SCORE>  (79) 
-4.700

>  <name>  (79) 
78

>  <ligand_id>  (79) 
78

>  <original_smiles>  (79) 
[H]c1c([H])c([H])c2c(c1[H])C([H])([H])C([H])([H])C([H])([H])C2([H])N([H])C(=O)C1([H])N(C(=O)C([H])(N([H])C(=O)C([H])(N([H])C([H])([H])[H])C([H])([H])[H])C(C([H])([H])[H])(C([H])([H])[H])C([H])([H])[H])C([H])([H])c2c([H])c(OC([H])([H])C([H])([H])N([H])C(=O)C3([H])C([H])([H])c4c(sc(C([H])([H])C([H])([H])C([H])([H])C([H])([H])C([H])([H])C(=O)N5C([H])([H])C([H])([H])C([H])([H])C([H])(n6nc(-c7c([H])c([H])c(Oc8c([H])c([H])c(F)c([H])c8F)c([H])c7[H])c(C(=O)N([H])[H])c6N([H])[H])C5([H])[H])c4[H])C([H])([H])C3([H])[H])c([H])c([H])c2C1([H])[H]

>  <smiles>  (79) 
[H]c1c([H])c([H])c2c(c1[H])C([H])([H])C([H])([H])C([H])([H])C2([H])N([H])C(=O)C1([H])N(C(=O)C([H])(N([H])C(=O)C([H])(N([H])C([H])([H])[H])C([H])([H])[H])C(C([H])([H])[H])(C([H])([H])[H])C([H])([H])[H])C([H])([H])c2c([H])c(OC([H])([H])C([H])([H])N([H])C(=O)C3([H])C([H])([H])c4c(sc(C([H])([H])C([H])([H])C([H])([H])C([H])([H])C([H])([H])C(=O)N5C([H])([H])C([H])([H])C([H])([H])C([H])(n6nc(-c7c([H])c([H])c(Oc8c([H])c([H])c(F)c([H])c8F)c([H])c7[H])c(C(=O)N([H])[H])c6N([H])[H])C5([H])[H])c4[H])C([H])([H])C3([H])[H])c([H])c([H])c2C1([H])[H]

$$$$
79:0:0
     RDKit          3D

 94103  0  0  1  0  0  0  0  0999 V2000
  -31.7270  -19.2430   19.1810 C   0  0  0  0  0  3  0  0  0  0  0  0
  -31.3510  -18.0620   19.8610 C   0  0  0  0  0  3  0  0  0  0  0  0
  -30.3570  -19.3880   21.6630 C   0  0  0  0  0  3  0  0  0  0  0  0
  -31.4310  -20.4830   19.7740 C   0  0  0  0  0  0  0  0  0  0  0  0
  -30.7140  -20.5630   20.9620 C   0  0  0  0  0  0  0  0  0  0  0  0
  -30.7110  -18.1190   21.1250 C   0  0  0  0  0  0  0  0  0  0  0  0
  -31.9450  -21.8360   19.3520 C   0  0  0  0  0  2  0  0  0  0  0  0
  -31.7510  -22.6850   20.6310 C   0  0  0  0  0  2  0  0  0  0  0  0
  -30.6260  -22.0050   21.4470 C   0  0  0  0  0  3  0  0  0  0  0  0
  -28.1180  -21.8320   21.9130 C   0  0  0  0  0  1  0  0  0  0  0  0
  -29.2360  -22.7130   21.3230 C   0  0  0  0  0  3  0  0  0  0  0  0
  -28.8170  -23.2230   19.9060 C   0  0  0  0  0  2  0  0  0  0  0  0
  -29.1280  -24.6980   19.5150 C   0  0  0  0  0  2  0  0  0  0  0  0
  -28.5480  -25.7690   20.4630 C   0  0  0  0  0  2  0  0  0  0  0  0
  -28.6130  -27.0890   19.8960 O   0  0  0  0  0  0  0  0  0  0  0  0
  -24.6770  -31.9700   23.2520 C   0  0  0  0  0  0  0  0  0  0  0  0
  -27.4290  -27.7910   19.9270 C   0  0  0  0  0  0  0  0  0  0  0  0
  -23.5000  -30.6170   21.5460 C   0  0  0  0  0  3  0  0  0  0  0  0
  -24.9890  -29.2080   20.0280 C   0  0  0  0  0  0  0  0  0  0  0  0
  -26.0100  -31.0730   21.3440 C   0  0  0  0  0  2  0  0  0  0  0  0
  -26.1340  -29.7410   20.6350 C   0  0  0  0  0  0  0  0  0  0  0  0
  -27.3590  -29.0410   20.5800 C   0  0  0  0  0  3  0  0  0  0  0  0
  -26.2730  -27.2720   19.3050 C   0  0  0  0  0  3  0  0  0  0  0  0
  -25.0530  -27.9730   19.3580 C   0  0  0  0  0  3  0  0  0  0  0  0
  -23.7170  -30.0190   20.1310 C   0  0  0  0  0  2  0  0  0  0  0  0
  -24.7480  -31.2320   22.1070 N   0  0  0  0  0  0  0  0  0  0  0  0
  -23.5930  -32.1750   23.8170 O   0  0  0  0  0  0  0  0  0  0  0  0
  -22.8940  -29.5260   22.4570 C   0  0  0  0  0  0  0  0  0  0  0  0
  -21.5740  -29.3100   22.3370 N   0  0  0  0  0  0  0  0  0  0  0  0
  -23.6070  -28.8780   23.2280 O   0  0  0  0  0  0  0  0  0  0  0  0
  -21.0580  -29.8900   21.6900 H   0  0  0  0  0  0  0  0  0  0  0  0
  -18.2430  -27.9960   22.8080 C   0  0  0  0  0  0  0  0  0  0  0  0
  -20.7960  -28.3070   23.0630 C   0  0  0  0  0  3  0  0  0  0  0  0
  -20.9290  -26.9140   22.4030 C   0  0  0  0  0  2  0  0  0  0  0  0
  -19.8210  -26.6200   21.3870 C   0  0  0  0  0  2  0  0  0  0  0  0
  -18.4450  -26.6920   22.0550 C   0  0  0  0  0  2  0  0  0  0  0  0
  -19.3460  -28.7620   23.2670 C   0  0  0  0  0  0  0  0  0  0  0  0
  -19.1010  -29.9840   23.9290 C   0  0  0  0  0  3  0  0  0  0  0  0
  -17.7850  -30.4400   24.1400 C   0  0  0  0  0  3  0  0  0  0  0  0
  -16.6960  -29.6680   23.6970 C   0  0  0  0  0  3  0  0  0  0  0  0
  -16.9260  -28.4490   23.0360 C   0  0  0  0  0  3  0  0  0  0  0  0
  -25.9490  -32.6080   23.8930 C   0  0  0  0  0  3  0  0  0  0  0  0
  -25.6120  -33.9910   24.2580 N   0  0  0  0  0  0  0  0  0  0  0  0
  -25.9370  -35.0690   23.5330 C   0  0  0  0  0  0  0  0  0  0  0  0
  -26.6220  -35.0040   22.5070 O   0  0  0  0  0  0  0  0  0  0  0  0
  -25.0080  -34.1140   25.0560 H   0  0  0  0  0  0  0  0  0  0  0  0
  -24.1870  -36.8440   23.1970 C   0  0  0  0  0  1  0  0  0  0  0  0
  -25.4200  -36.4350   24.0190 C   0  0  0  0  0  3  0  0  0  0  0  0
  -27.5260  -37.3270   24.9140 C   0  0  0  0  0  1  0  0  0  0  0  0
  -26.4370  -37.5070   23.9570 N   0  0  0  0  0  0  0  0  0  0  0  0
  -26.0150  -38.4150   24.1220 H   0  0  0  0  0  0  0  0  0  0  0  0
  -26.4800  -31.8120   25.1470 C   0  0  1  0  0  0  0  0  0  0  0  0
  -25.3920  -31.5220   26.2080 C   0  0  0  0  0  1  0  0  0  0  0  0
  -27.0910  -30.4580   24.7140 C   0  0  0  0  0  1  0  0  0  0  0  0
  -27.6150  -32.6080   25.8350 C   0  0  0  0  0  1  0  0  0  0  0  0
  -30.5490  -16.8600   21.9910 C   0  0  0  0  0  2  0  0  0  0  0  0
  -30.6840  -14.6890   20.7010 C   0  0  0  0  0  0  0  0  0  0  0  0
  -30.4600  -12.5130   19.5500 C   0  0  0  0  0  2  0  0  0  0  0  0
  -29.5550  -12.6440   18.3100 C   0  0  0  0  0  2  0  0  0  0  0  0
  -28.0710  -12.4810   18.6890 C   0  0  0  0  0  2  0  0  0  0  0  0
  -27.6650  -13.3540   19.9060 C   0  0  0  0  0  3  0  0  0  0  0  0
  -28.6800  -13.1920   21.0590 C   0  0  0  0  0  2  0  0  0  0  0  0
  -30.0180  -13.5150   20.5320 N   0  0  0  0  0  0  0  0  0  0  0  0
  -31.8090  -14.8910   20.2380 O   0  0  0  0  0  0  0  0  0  0  0  0
  -30.0110  -15.6430   21.3690 N   0  0  0  0  0  0  0  0  0  0  0  0
  -29.0770  -15.3910   21.6510 H   0  0  0  0  0  0  0  0  0  0  0  0
  -25.2370  -13.9400   20.5260 C   0  0  0  0  0  0  0  0  0  0  0  0
  -24.1670  -13.1580   20.8710 C   0  0  0  0  0  0  0  0  0  0  0  0
  -24.6450  -11.8120   20.8740 C   0  0  0  0  0  0  0  0  0  0  0  0
  -26.3000  -13.0690   20.3430 N   0  0  0  0  0  0  0  0  0  0  0  0
  -25.9460  -11.7840   20.6080 N   0  0  0  0  0  0  0  0  0  0  0  0
  -23.9290  -10.5430   21.0580 C   0  0  0  0  0  0  0  0  0  0  0  0
  -24.3490   -9.5910   22.0120 C   0  0  0  0  0  3  0  0  0  0  0  0
  -23.6340   -8.3860   22.1840 C   0  0  0  0  0  3  0  0  0  0  0  0
  -22.4860   -8.1250   21.3990 C   0  0  0  0  0  0  0  0  0  0  0  0
  -22.0860   -9.0660   20.4340 C   0  0  0  0  0  3  0  0  0  0  0  0
  -22.8010  -10.2620   20.2610 C   0  0  0  0  0  3  0  0  0  0  0  0
  -21.7430   -6.9710   21.4780 O   0  0  0  0  0  0  0  0  0  0  0  0
  -21.6800   -6.2330   22.6330 C   0  0  0  0  0  0  0  0  0  0  0  0
  -21.2230   -6.7900   23.8480 C   0  0  0  0  0  3  0  0  0  0  0  0
  -21.1070   -5.9780   24.9940 C   0  0  0  0  0  3  0  0  0  0  0  0
  -21.4380   -4.6110   24.9260 C   0  0  0  0  0  0  0  0  0  0  0  0
  -21.8870   -4.0540   23.7150 C   0  0  0  0  0  3  0  0  0  0  0  0
  -22.0040   -4.8630   22.5720 C   0  0  0  0  0  0  0  0  0  0  0  0
  -22.4170   -4.3170   21.4030 F   0  0  0  0  0  0  0  0  0  0  0  0
  -21.3190   -3.8290   26.0240 F   0  0  0  0  0  0  0  0  0  0  0  0
  -22.7560  -13.6200   21.0900 C   0  0  0  0  0  0  0  0  0  0  0  0
  -22.0100  -12.9320   21.9480 N   0  0  0  0  0  0  0  0  0  0  0  0
  -22.3180  -14.6270   20.5340 O   0  0  0  0  0  0  0  0  0  0  0  0
  -22.3740  -12.1190   22.4220 H   0  0  0  0  0  0  0  0  0  0  0  0
  -21.0600  -13.2220   22.1330 H   0  0  0  0  0  0  0  0  0  0  0  0
  -25.3910  -15.3100   20.3330 N   0  0  0  0  0  0  0  0  0  0  0  0
  -24.6170  -15.9610   20.4080 H   0  0  0  0  0  0  0  0  0  0  0  0
  -26.2490  -15.7520   20.0280 H   0  0  0  0  0  0  0  0  0  0  0  0
  1  4  2  0
  1  2  1  0
  2  6  2  0
  4  5  1  0
  5  9  1  0
  5  3  2  0
  6  3  1  0
  6 56  1  0
  7  4  1  0
  7  8  1  0
  8  9  1  0
  9 11  1  0
 11 10  1  0
 12 11  1  0
 13 12  1  0
 13 14  1  0
 15 17  1  0
 15 14  1  0
 16 27  2  0
 17 22  1  0
 18 26  1  0
 18 28  1  0
 19 25  1  0
 19 21  1  0
 20 26  1  0
 21 20  1  0
 22 21  2  0
 23 24  1  0
 23 17  2  0
 24 19  2  0
 25 18  1  0
 26 16  1  0
 28 30  2  0
 29 28  1  0
 31 29  1  0
 32 41  2  0
 32 37  1  0
 33 29  1  0
 33 37  1  0
 34 33  1  0
 35 36  1  0
 35 34  1  0
 36 32  1  0
 37 38  2  0
 38 39  1  0
 40 39  2  0
 41 40  1  0
 42 16  1  0
 42 43  1  0
 42 52  1  0
 43 46  1  0
 44 48  1  0
 44 43  1  0
 45 44  2  0
 48 47  1  0
 50 48  1  0
 50 51  1  0
 50 49  1  0
 52 55  1  1
 52 53  1  0
 54 52  1  0
 57 65  1  0
 58 63  1  0
 59 60  1  0
 59 58  1  0
 61 60  1  0
 61 70  1  0
 61 62  1  0
 63 57  1  0
 63 62  1  0
 64 57  2  0
 65 66  1  0
 65 56  1  0
 67 68  2  0
 68 69  1  0
 68 87  1  0
 69 72  1  0
 70 67  1  0
 70 71  1  0
 71 69  2  0
 72 73  1  0
 73 74  2  0
 75 78  1  0
 75 74  1  0
 76 75  2  0
 77 76  1  0
 77 72  2  0
 78 79  1  0
 79 80  1  0
 80 81  2  0
 82 81  1  0
 82 86  1  0
 83 82  2  0
 84 79  2  0
 84 83  1  0
 85 84  1  0
 87 88  1  0
 88 91  1  0
 88 90  1  0
 89 87  2  0
 92 93  1  0
 92 67  1  0
 94 92  1  0
M  ISO  4  14 101  15 101  57 100  65 100
M  END
>  <TORSDO>  (80) 
F 21

>  <SCORE>  (80) 
-13.327

>  <name>  (80) 
79

>  <ligand_id>  (80) 
79

>  <original_smiles>  (80) 
[H]c1c([H])c([H])c2c(c1[H])C([H])([H])C([H])([H])C([H])([H])C2([H])N([H])C(=O)C1([H])N(C(=O)C([H])(N([H])C(=O)C([H])(N([H])C([H])([H])[H])C([H])([H])[H])C(C([H])([H])[H])(C([H])([H])[H])C([H])([H])[H])C([H])([H])c2c([H])c(OC([H])([H])C([H])([H])C([H])([H])C([H])(C([H])([H])[H])C3([H])c4c([H])c(C([H])([H])N([H])C(=O)N5C([H])([H])C([H])([H])C([H])([H])C([H])(n6nc(-c7c([H])c([H])c(Oc8c([H])c([H])c(F)c([H])c8F)c([H])c7[H])c(C(=O)N([H])[H])c6N([H])[H])C5([H])[H])c([H])c([H])c4C([H])([H])C3([H])[H])c([H])c([H])c2C1([H])[H]

>  <smiles>  (80) 
[H]c1c([H])c([H])c2c(c1[H])C([H])([H])C([H])([H])C([H])([H])C2([H])N([H])C(=O)C1([H])N(C(=O)C([H])(N([H])C(=O)C([H])(N([H])C([H])([H])[H])C([H])([H])[H])C(C([H])([H])[H])(C([H])([H])[H])C([H])([H])[H])C([H])([H])c2c([H])c(OC([H])([H])C([H])([H])C([H])([H])C([H])(C([H])([H])[H])C3([H])c4c([H])c(C([H])([H])N([H])C(=O)N5C([H])([H])C([H])([H])C([H])([H])C([H])(n6nc(-c7c([H])c([H])c(Oc8c([H])c([H])c(F)c([H])c8F)c([H])c7[H])c(C(=O)N([H])[H])c6N([H])[H])C5([H])[H])c([H])c([H])c4C([H])([H])C3([H])[H])c([H])c([H])c2C1([H])[H]

$$$$
80:0:0
     RDKit          3D

 86 92  0  0  1  0  0  0  0  0999 V2000
  -28.2830  -19.7490   19.5540 C   0  0  0  0  0  3  0  0  0  0  0  0
  -29.2990  -18.7040   20.2280 C   0  0  0  0  0  3  0  0  0  0  0  0
  -27.8990  -21.3730   19.5410 C   0  0  0  0  0  0  0  0  0  0  0  0
  -29.7970  -20.0820   20.8750 C   0  0  0  0  0  0  0  0  0  0  0  0
  -29.4190  -21.7160   20.8720 C   0  0  0  0  0  0  0  0  0  0  0  0
  -28.3680  -22.7470   20.2310 C   0  0  0  0  0  3  0  0  0  0  0  0
  -26.7950  -21.6510   18.5360 C   0  0  0  0  0  1  0  0  0  0  0  0
  -30.9920  -19.7540   21.7650 C   0  0  0  0  0  1  0  0  0  0  0  0
  -30.3640  -22.5420   21.7370 C   0  0  0  0  0  1  0  0  0  0  0  0
  -29.9300  -16.7260   20.1680 C   0  0  0  0  0  2  0  0  0  0  0  0
  -30.3400  -13.9330   19.4590 C   0  0  0  0  0  2  0  0  0  0  0  0
  -29.6100  -13.0690   18.3430 C   0  0  0  0  0  2  0  0  0  0  0  0
  -28.2800  -12.4850   18.8220 C   0  0  0  0  0  2  0  0  0  0  0  0
  -27.6000  -13.5240   19.7210 C   0  0  0  0  0  3  0  0  0  0  0  0
  -28.5200  -14.2530   20.7700 C   0  0  0  0  0  2  0  0  0  0  0  0
  -29.5350  -15.1790   20.0870 N   0  0  0  0  0  0  0  0  0  0  0  0
  -31.1770  -16.4690   20.1190 O   0  0  0  0  0  1  0  0  0  0  0  0
  -25.2290  -13.9100   20.4680 C   0  0  0  0  0  0  0  0  0  0  0  0
  -24.1940  -13.0940   20.8160 C   0  0  0  0  0  0  0  0  0  0  0  0
  -24.7070  -11.7610   20.7950 C   0  0  0  0  0  0  0  0  0  0  0  0
  -26.3110  -13.0860   20.2500 N   0  0  0  0  0  0  0  0  0  0  0  0
  -26.0120  -11.7770   20.5010 N   0  0  0  0  0  0  0  0  0  0  0  0
  -24.0020  -10.4810   20.9780 C   0  0  0  0  0  0  0  0  0  0  0  0
  -24.4140   -9.5330   21.9420 C   0  0  0  0  0  3  0  0  0  0  0  0
  -23.6960   -8.3310   22.1220 C   0  0  0  0  0  3  0  0  0  0  0  0
  -22.5480   -8.0640   21.3390 C   0  0  0  0  0  0  0  0  0  0  0  0
  -22.1520   -8.9990   20.3660 C   0  0  0  0  0  3  0  0  0  0  0  0
  -22.8730  -10.1920   20.1840 C   0  0  0  0  0  3  0  0  0  0  0  0
  -21.8050   -6.9090   21.4250 O   0  0  0  0  0  0  0  0  0  0  0  0
  -21.7160   -6.1930   22.5920 C   0  0  0  0  0  0  0  0  0  0  0  0
  -21.2050   -6.7630   23.7780 C   0  0  0  0  0  3  0  0  0  0  0  0
  -21.0620   -5.9720   24.9360 C   0  0  0  0  0  3  0  0  0  0  0  0
  -21.4250   -4.6110   24.9090 C   0  0  0  0  0  0  0  0  0  0  0  0
  -21.9310   -4.0400   23.7270 C   0  0  0  0  0  3  0  0  0  0  0  0
  -22.0730   -4.8290   22.5720 C   0  0  0  0  0  0  0  0  0  0  0  0
  -22.5400   -4.2680   21.4300 F   0  0  0  0  0  0  0  0  0  0  0  0
  -21.2830   -3.8500   26.0180 F   0  0  0  0  0  0  0  0  0  0  0  0
  -22.7790  -13.5350   21.0480 C   0  0  0  0  0  0  0  0  0  0  0  0
  -22.0570  -12.8400   21.9160 N   0  0  0  0  0  0  0  0  0  0  0  0
  -22.3270  -14.5390   20.4990 O   0  0  0  0  0  0  0  0  0  0  0  0
  -22.4410  -12.0310   22.3840 H   0  0  0  0  0  0  0  0  0  0  0  0
  -21.1080  -13.1170   22.1180 H   0  0  0  0  0  0  0  0  0  0  0  0
  -25.3350  -15.2850   20.2770 N   0  0  0  0  0  0  0  0  0  0  0  0
  -24.5340  -15.8990   20.3750 H   0  0  0  0  0  0  0  0  0  0  0  0
  -26.1640  -15.7640   19.9500 H   0  0  0  0  0  0  0  0  0  0  0  0
  -28.1530  -24.6130   20.2260 O   0  0  0  0  0  1  0  0  0  0  0  0
  -24.6800  -31.7770   23.0800 C   0  0  0  0  0  0  0  0  0  0  0  0
  -27.2130  -26.1010   20.2230 C   0  0  0  0  0  0  0  0  0  0  0  0
  -23.5340  -30.3410   21.4590 C   0  0  0  0  0  3  0  0  0  0  0  0
  -24.9970  -28.5440   20.1190 C   0  0  0  0  0  0  0  0  0  0  0  0
  -26.1350  -30.2930   21.4360 C   0  0  0  0  0  2  0  0  0  0  0  0
  -26.1970  -28.7810   20.7970 C   0  0  0  0  0  0  0  0  0  0  0  0
  -27.2500  -27.6140   20.7970 C   0  0  0  0  0  3  0  0  0  0  0  0
  -25.9760  -26.2510   19.4740 C   0  0  0  0  0  3  0  0  0  0  0  0
  -24.9660  -27.3080   19.4320 C   0  0  0  0  0  3  0  0  0  0  0  0
  -23.8180  -29.5750   20.1220 C   0  0  0  0  0  2  0  0  0  0  0  0
  -24.8160  -30.8540   22.0430 N   0  0  0  0  0  0  0  0  0  0  0  0
  -23.5690  -32.1080   23.5410 O   0  0  0  0  0  0  0  0  0  0  0  0
  -22.7480  -29.4340   22.4520 C   0  0  0  0  0  0  0  0  0  0  0  0
  -21.4080  -29.3300   22.3320 N   0  0  0  0  0  0  0  0  0  0  0  0
  -23.3690  -28.8130   23.3150 O   0  0  0  0  0  0  0  0  0  0  0  0
  -20.9460  -29.8800   21.6200 H   0  0  0  0  0  0  0  0  0  0  0  0
  -17.9880  -28.1830   22.8980 C   0  0  0  0  0  0  0  0  0  0  0  0
  -20.5600  -28.4110   23.1110 C   0  0  0  0  0  3  0  0  0  0  0  0
  -20.6210  -26.9790   22.5280 C   0  0  0  0  0  2  0  0  0  0  0  0
  -19.4980  -26.6850   21.5290 C   0  0  0  0  0  2  0  0  0  0  0  0
  -18.1310  -26.8410   22.1990 C   0  0  0  0  0  2  0  0  0  0  0  0
  -19.1260  -28.9270   23.3110 C   0  0  0  0  0  0  0  0  0  0  0  0
  -18.9310  -30.1770   23.9380 C   0  0  0  0  0  3  0  0  0  0  0  0
  -17.6340  -30.6850   24.1470 C   0  0  0  0  0  3  0  0  0  0  0  0
  -16.5130  -29.9410   23.7420 C   0  0  0  0  0  3  0  0  0  0  0  0
  -16.6900  -28.6910   23.1250 C   0  0  0  0  0  3  0  0  0  0  0  0
  -25.9030  -32.4750   23.7540 C   0  0  0  0  0  3  0  0  0  0  0  0
  -25.5440  -33.8770   24.0870 N   0  0  0  0  0  0  0  0  0  0  0  0
  -25.8810  -34.9640   23.3770 C   0  0  0  0  0  0  0  0  0  0  0  0
  -26.5650  -34.8930   22.3540 O   0  0  0  0  0  0  0  0  0  0  0  0
  -24.9280  -34.0020   24.8760 H   0  0  0  0  0  0  0  0  0  0  0  0
  -24.1460  -36.7750   23.0750 C   0  0  0  0  0  1  0  0  0  0  0  0
  -25.3900  -36.3460   23.8700 C   0  0  0  0  0  3  0  0  0  0  0  0
  -27.5160  -37.2430   24.7220 C   0  0  0  0  0  1  0  0  0  0  0  0
  -26.4160  -37.4110   23.7770 N   0  0  0  0  0  0  0  0  0  0  0  0
  -26.0010  -38.3270   23.9300 H   0  0  0  0  0  0  0  0  0  0  0  0
  -26.3770  -31.7430   25.0730 C   0  0  1  0  0  0  0  0  0  0  0  0
  -25.2510  -31.5260   26.1130 C   0  0  0  0  0  1  0  0  0  0  0  0
  -26.9810  -30.3600   24.7560 C   0  0  0  0  0  1  0  0  0  0  0  0
  -27.5030  -32.5610   25.7500 C   0  0  0  0  0  1  0  0  0  0  0  0
  1  2  1  0
  2  4  2  0
  3  1  2  0
  3  6  1  0
  4  8  1  0
  5  4  1  0
  5  9  1  0
  6  5  2  0
  7  3  1  0
 11 16  1  0
 12 13  1  0
 12 11  1  0
 14 13  1  0
 14 21  1  0
 14 15  1  0
 16 10  1  0
 16 15  1  0
 17 10  1  0
 18 19  2  0
 19 38  1  0
 20 19  1  0
 20 23  1  0
 21 18  1  0
 21 22  1  0
 22 20  2  0
 23 24  1  0
 24 25  2  0
 26 29  1  0
 26 25  1  0
 27 26  2  0
 28 27  1  0
 28 23  2  0
 29 30  1  0
 30 31  1  0
 31 32  2  0
 33 32  1  0
 33 37  1  0
 34 33  2  0
 35 30  2  0
 35 34  1  0
 36 35  1  0
 38 39  1  0
 39 42  1  0
 39 41  1  0
 40 38  2  0
 43 44  1  0
 43 18  1  0
 45 43  1  0
 47 58  2  0
 48 46  1  0
 48 53  1  0
 49 57  1  0
 49 59  1  0
 50 56  1  0
 50 52  1  0
 51 57  1  0
 52 51  1  0
 53 52  2  0
 54 48  2  0
 55 54  1  0
 55 50  2  0
 56 49  1  0
 57 47  1  0
 59 61  2  0
 60 59  1  0
 62 60  1  0
 63 72  2  0
 63 68  1  0
 64 60  1  0
 64 68  1  0
 65 64  1  0
 66 67  1  0
 66 65  1  0
 67 63  1  0
 68 69  2  0
 69 70  1  0
 71 70  2  0
 72 71  1  0
 73 47  1  0
 73 74  1  0
 73 83  1  0
 74 77  1  0
 75 79  1  0
 75 74  1  0
 76 75  2  0
 79 78  1  0
 81 79  1  0
 81 82  1  0
 81 80  1  0
 83 86  1  1
 83 84  1  0
 85 83  1  0
M  ISO  4   2 100   6 101  10 100  46 101
M  END
>  <TORSDO>  (81) 
F 16

>  <SCORE>  (81) 
-16.836

>  <name>  (81) 
80

>  <ligand_id>  (81) 
80

>  <original_smiles>  (81) 
[H]c1c([H])c([H])c2c(c1[H])C([H])([H])C([H])([H])C([H])([H])C2([H])N([H])C(=O)C1([H])N(C(=O)C([H])(N([H])C(=O)C([H])(N([H])C([H])([H])[H])C([H])([H])[H])C(C([H])([H])[H])(C([H])([H])[H])C([H])([H])[H])C([H])([H])c2c([H])c(Oc3c(C([H])([H])[H])c([H])c(C(=O)N4C([H])([H])C([H])([H])C([H])([H])C([H])(n5nc(-c6c([H])c([H])c(Oc7c([H])c([H])c(F)c([H])c7F)c([H])c6[H])c(C(=O)N([H])[H])c5N([H])[H])C4([H])[H])c(C([H])([H])[H])c3C([H])([H])[H])c([H])c([H])c2C1([H])[H]

>  <smiles>  (81) 
[H]c1c([H])c([H])c2c(c1[H])C([H])([H])C([H])([H])C([H])([H])C2([H])N([H])C(=O)C1([H])N(C(=O)C([H])(N([H])C(=O)C([H])(N([H])C([H])([H])[H])C([H])([H])[H])C(C([H])([H])[H])(C([H])([H])[H])C([H])([H])[H])C([H])([H])c2c([H])c(Oc3c(C([H])([H])[H])c([H])c(C(=O)N4C([H])([H])C([H])([H])C([H])([H])C([H])(n5nc(-c6c([H])c([H])c(Oc7c([H])c([H])c(F)c([H])c7F)c([H])c6[H])c(C(=O)N([H])[H])c5N([H])[H])C4([H])[H])c(C([H])([H])[H])c3C([H])([H])[H])c([H])c([H])c2C1([H])[H]

$$$$
81:0:0
     RDKit          3D

 88 97  0  0  1  0  0  0  0  0999 V2000
  -29.1750  -20.4390   20.3030 C   0  0  0  0  0  0  0  0  0  0  0  0
  -29.9360  -19.0170   20.6640 C   0  0  0  0  0  0  0  0  0  0  0  0
  -29.5750  -17.6180   20.1760 C   0  0  0  0  0  0  0  0  0  0  0  0
  -28.0960  -20.0700   19.5690 C   0  0  0  0  0  0  0  0  0  0  0  0
  -29.2610  -22.2380   20.5460 C   0  0  0  0  0  3  0  0  0  0  0  0
  -27.0840  -21.1830   19.0590 C   0  0  0  0  0  3  0  0  0  0  0  0
  -26.9660  -22.7480   19.6340 C   0  0  0  0  0  3  0  0  0  0  0  0
  -28.2350  -23.6940   19.9450 C   0  0  0  0  0  0  0  0  0  0  0  0
  -28.0870  -18.2060   19.2620 S   0  0  0  0  0  0  0  0  0  0  0  0
  -30.2440  -15.8770   20.1340 C   0  0  0  0  0  0  0  0  0  0  0  0
  -30.3930  -13.2770   19.4090 C   0  0  0  0  0  2  0  0  0  0  0  0
  -29.5330  -12.8300   18.1890 C   0  0  0  0  0  2  0  0  0  0  0  0
  -28.1060  -12.4540   18.6210 C   0  0  0  0  0  2  0  0  0  0  0  0
  -27.5730  -13.4640   19.6610 C   0  0  0  0  0  3  0  0  0  0  0  0
  -28.5780  -13.8390   20.7720 C   0  0  0  0  0  2  0  0  0  0  0  0
  -29.7480  -14.4830   20.1290 N   0  0  0  0  0  0  0  0  0  0  0  0
  -31.4810  -15.7490   19.9920 O   0  0  0  0  0  0  0  0  0  0  0  0
  -25.2310  -13.9760   20.4790 C   0  0  0  0  0  0  0  0  0  0  0  0
  -24.1760  -13.1880   20.8490 C   0  0  0  0  0  0  0  0  0  0  0  0
  -24.6530  -11.8400   20.7990 C   0  0  0  0  0  0  0  0  0  0  0  0
  -26.2700  -13.1070   20.2030 N   0  0  0  0  0  0  0  0  0  0  0  0
  -25.9430  -11.8160   20.4660 N   0  0  0  0  0  0  0  0  0  0  0  0
  -23.9340  -10.5740   20.9890 C   0  0  0  0  0  0  0  0  0  0  0  0
  -24.3480   -9.6220   21.9450 C   0  0  0  0  0  3  0  0  0  0  0  0
  -23.6280   -8.4210   22.1210 C   0  0  0  0  0  3  0  0  0  0  0  0
  -22.4790   -8.1620   21.3370 C   0  0  0  0  0  0  0  0  0  0  0  0
  -22.0850   -9.1010   20.3700 C   0  0  0  0  0  3  0  0  0  0  0  0
  -22.8040  -10.2940   20.1940 C   0  0  0  0  0  3  0  0  0  0  0  0
  -21.7300   -7.0140   21.4180 O   0  0  0  0  0  0  0  0  0  0  0  0
  -21.6170   -6.3080   22.5900 C   0  0  0  0  0  0  0  0  0  0  0  0
  -21.0570   -6.8790   23.7520 C   0  0  0  0  0  3  0  0  0  0  0  0
  -20.9010   -6.0960   24.9140 C   0  0  0  0  0  3  0  0  0  0  0  0
  -21.2900   -4.7450   24.9110 C   0  0  0  0  0  0  0  0  0  0  0  0
  -21.8440   -4.1720   23.7520 C   0  0  0  0  0  3  0  0  0  0  0  0
  -22.0050   -4.9530   22.5930 C   0  0  0  0  0  0  0  0  0  0  0  0
  -22.5170   -4.3920   21.4730 F   0  0  0  0  0  0  0  0  0  0  0  0
  -21.1300   -3.9920   26.0240 F   0  0  0  0  0  0  0  0  0  0  0  0
  -22.7810  -13.6590   21.1200 C   0  0  0  0  0  0  0  0  0  0  0  0
  -22.0580  -12.9620   21.9960 N   0  0  0  0  0  0  0  0  0  0  0  0
  -22.3350  -14.6730   20.5930 O   0  0  0  0  0  0  0  0  0  0  0  0
  -22.4350  -12.1480   22.4580 H   0  0  0  0  0  0  0  0  0  0  0  0
  -21.1170  -13.2570   22.2090 H   0  0  0  0  0  0  0  0  0  0  0  0
  -25.3970  -15.3480   20.3140 N   0  0  0  0  0  0  0  0  0  0  0  0
  -24.6430  -16.0120   20.4490 H   0  0  0  0  0  0  0  0  0  0  0  0
  -26.2630  -15.7810   20.0170 H   0  0  0  0  0  0  0  0  0  0  0  0
  -31.1210  -18.0800   22.7940 C   0  0  0  0  0  1  0  0  0  0  0  0
  -31.1430  -19.0650   21.5880 C   0  0  0  0  0  2  0  0  0  0  0  0
  -28.1370  -25.4930   20.2660 O   0  0  0  0  0  0  0  0  0  0  0  0
  -24.6000  -31.8600   23.2170 C   0  0  0  0  0  0  0  0  0  0  0  0
  -27.1650  -26.7430   20.1700 C   0  0  0  0  0  0  0  0  0  0  0  0
  -23.4330  -30.4730   21.5600 C   0  0  0  0  0  3  0  0  0  0  0  0
  -24.8950  -28.8320   20.1310 C   0  0  0  0  0  0  0  0  0  0  0  0
  -26.0170  -30.6010   21.4630 C   0  0  0  0  0  2  0  0  0  0  0  0
  -26.0880  -29.1690   20.7810 C   0  0  0  0  0  0  0  0  0  0  0  0
  -27.2010  -28.1550   20.7610 C   0  0  0  0  0  3  0  0  0  0  0  0
  -25.9390  -26.6520   19.4520 C   0  0  0  0  0  3  0  0  0  0  0  0
  -24.8680  -27.6050   19.4400 C   0  0  0  0  0  3  0  0  0  0  0  0
  -23.6810  -29.7830   20.1850 C   0  0  0  0  0  2  0  0  0  0  0  0
  -24.7090  -31.0140   22.1320 N   0  0  0  0  0  0  0  0  0  0  0  0
  -23.4980  -32.1520   23.7140 O   0  0  0  0  0  0  0  0  0  0  0  0
  -22.7070  -29.4890   22.5190 C   0  0  0  0  0  0  0  0  0  0  0  0
  -21.3780  -29.3220   22.3710 N   0  0  0  0  0  0  0  0  0  0  0  0
  -23.3560  -28.8700   23.3660 O   0  0  0  0  0  0  0  0  0  0  0  0
  -20.9040  -29.8760   21.6700 H   0  0  0  0  0  0  0  0  0  0  0  0
  -17.9940  -28.0800   22.8420 C   0  0  0  0  0  0  0  0  0  0  0  0
  -20.5490  -28.3740   23.1250 C   0  0  0  0  0  3  0  0  0  0  0  0
  -20.6670  -26.9470   22.5390 C   0  0  0  0  0  2  0  0  0  0  0  0
  -19.5770  -26.6250   21.5110 C   0  0  0  0  0  2  0  0  0  0  0  0
  -18.1890  -26.7440   22.1450 C   0  0  0  0  0  2  0  0  0  0  0  0
  -19.1000  -28.8550   23.2860 C   0  0  0  0  0  0  0  0  0  0  0  0
  -18.8570  -30.1030   23.8990 C   0  0  0  0  0  3  0  0  0  0  0  0
  -17.5410  -30.5770   24.0710 C   0  0  0  0  0  3  0  0  0  0  0  0
  -16.4520  -29.8010   23.6380 C   0  0  0  0  0  3  0  0  0  0  0  0
  -16.6790  -28.5550   23.0300 C   0  0  0  0  0  3  0  0  0  0  0  0
  -25.8470  -32.5140   23.8810 C   0  0  0  0  0  3  0  0  0  0  0  0
  -25.5260  -33.9250   24.1800 N   0  0  0  0  0  0  0  0  0  0  0  0
  -25.8660  -34.9770   23.4220 C   0  0  0  0  0  0  0  0  0  0  0  0
  -26.5410  -34.8630   22.3970 O   0  0  0  0  0  0  0  0  0  0  0  0
  -24.9250  -34.0860   24.9730 H   0  0  0  0  0  0  0  0  0  0  0  0
  -24.1400  -36.7800   23.0650 C   0  0  0  0  0  1  0  0  0  0  0  0
  -25.3850  -36.3770   23.8690 C   0  0  0  0  0  3  0  0  0  0  0  0
  -27.5350  -37.2680   24.6650 C   0  0  0  0  0  1  0  0  0  0  0  0
  -26.4150  -37.4330   23.7420 N   0  0  0  0  0  0  0  0  0  0  0  0
  -26.0070  -38.3500   23.9060 H   0  0  0  0  0  0  0  0  0  0  0  0
  -26.2940  -31.7830   25.2070 C   0  0  1  0  0  0  0  0  0  0  0  0
  -25.1530  -31.5920   26.2370 C   0  0  0  0  0  1  0  0  0  0  0  0
  -26.8790  -30.3880   24.9000 C   0  0  0  0  0  1  0  0  0  0  0  0
  -27.4230  -32.5850   25.8920 C   0  0  0  0  0  1  0  0  0  0  0  0
  1  5  1  0
  1  2  1  0
  2 47  1  0
  3  2  2  0
  4  1  2  0
  6  4  1  0
  6  7  2  0
  7  8  1  0
  8 48  1  0
  8  5  2  0
  9  4  1  0
  9  3  1  0
 10  3  1  0
 11 16  1  0
 12 13  1  0
 12 11  1  0
 14 13  1  0
 14 21  1  0
 14 15  1  0
 16 10  1  0
 16 15  1  0
 17 10  2  0
 18 19  2  0
 19 38  1  0
 20 19  1  0
 20 23  1  0
 21 22  1  0
 21 18  1  0
 22 20  2  0
 23 24  1  0
 24 25  2  0
 26 29  1  0
 26 25  1  0
 27 26  2  0
 28 27  1  0
 28 23  2  0
 29 30  1  0
 30 35  2  0
 30 31  1  0
 31 32  2  0
 33 32  1  0
 33 37  1  0
 34 33  2  0
 35 34  1  0
 36 35  1  0
 38 39  1  0
 39 42  1  0
 39 41  1  0
 40 38  2  0
 43 44  1  0
 43 18  1  0
 45 43  1  0
 47 46  1  0
 49 60  2  0
 50 48  1  0
 50 55  1  0
 51 59  1  0
 51 61  1  0
 52 58  1  0
 52 54  1  0
 53 59  1  0
 54 53  1  0
 55 54  2  0
 56 50  2  0
 57 56  1  0
 57 52  2  0
 58 51  1  0
 59 49  1  0
 61 63  2  0
 62 61  1  0
 64 62  1  0
 65 74  2  0
 65 70  1  0
 66 62  1  0
 66 70  1  0
 67 66  1  0
 68 69  1  0
 68 67  1  0
 69 65  1  0
 70 71  2  0
 71 72  1  0
 73 72  2  0
 74 73  1  0
 75 49  1  0
 75 76  1  0
 75 85  1  0
 76 79  1  0
 77 81  1  0
 77 76  1  0
 78 77  2  0
 81 80  1  0
 83 81  1  0
 83 84  1  0
 83 82  1  0
 85 88  1  1
 85 86  1  0
 87 85  1  0
M  ISO  4   3 100   8 101  10 100  48 101
M  END
>  <TORSDO>  (82) 
F 17

>  <SCORE>  (82) 
-15.984

>  <name>  (82) 
81

>  <ligand_id>  (82) 
81

>  <original_smiles>  (82) 
[H]c1c([H])c([H])c2c(c1[H])C([H])([H])C([H])([H])C([H])([H])C2([H])N([H])C(=O)C1([H])N(C(=O)C([H])(N([H])C(=O)C([H])(N([H])C([H])([H])[H])C([H])([H])[H])C(C([H])([H])[H])(C([H])([H])[H])C([H])([H])[H])C([H])([H])c2c([H])c(OC3([H])C([H])([H])c4c(sc(C(=O)N5C([H])([H])C([H])([H])C([H])([H])C([H])(n6nc(-c7c([H])c([H])c(Oc8c([H])c([H])c(F)c([H])c8F)c([H])c7[H])c(C(=O)N([H])[H])c6N([H])[H])C5([H])[H])c4C([H])([H])C([H])([H])[H])C([H])([H])C3([H])[H])c([H])c([H])c2C1([H])[H]

>  <smiles>  (82) 
[H]c1c([H])c([H])c2c(c1[H])C([H])([H])C([H])([H])C([H])([H])C2([H])N([H])C(=O)C1([H])N(C(=O)C([H])(N([H])C(=O)C([H])(N([H])C([H])([H])[H])C([H])([H])[H])C(C([H])([H])[H])(C([H])([H])[H])C([H])([H])[H])C([H])([H])c2c([H])c(OC3([H])C([H])([H])c4c(sc(C(=O)N5C([H])([H])C([H])([H])C([H])([H])C([H])(n6nc(-c7c([H])c([H])c(Oc8c([H])c([H])c(F)c([H])c8F)c([H])c7[H])c(C(=O)N([H])[H])c6N([H])[H])C5([H])[H])c4C([H])([H])C([H])([H])[H])C([H])([H])C3([H])[H])c([H])c([H])c2C1([H])[H]

$$$$
82:0:0
     RDKit          3D

 93102  0  0  1  0  0  0  0  0999 V2000
  -30.4420  -17.5370   20.6910 C   0  0  0  0  0  3  0  0  0  0  0  0
  -29.9370  -16.2760   20.3250 C   0  0  0  0  0  2  0  0  0  0  0  0
  -31.5230  -18.5680   22.7920 C   0  0  0  0  0  2  0  0  0  0  0  0
  -30.6400  -19.8340   22.6170 C   0  0  0  0  0  2  0  0  0  0  0  0
  -28.5840  -19.6950   20.1390 C   0  0  0  0  0  2  0  0  0  0  0  0
  -30.0040  -19.0300   20.2120 C   0  0  0  0  0  3  0  0  0  0  0  0
  -31.7140  -17.6630   21.5400 C   0  0  0  0  0  3  0  0  0  0  0  0
  -30.3700  -20.2240   21.1630 C   0  0  0  0  0  3  0  0  0  0  0  0
  -29.0640  -21.0540   20.8270 C   0  0  0  0  0  3  0  0  0  0  0  0
  -30.6930  -14.9400   20.2380 C   0  0  0  0  0  0  0  0  0  0  0  0
  -30.4000  -12.7460   19.0360 C   0  0  0  0  0  2  0  0  0  0  0  0
  -29.4000  -12.8980   17.8670 C   0  0  0  0  0  2  0  0  0  0  0  0
  -27.9570  -12.6870   18.3570 C   0  0  0  0  0  2  0  0  0  0  0  0
  -27.6510  -13.4730   19.6600 C   0  0  0  0  0  3  0  0  0  0  0  0
  -28.7670  -13.3360   20.7120 C   0  0  0  0  0  2  0  0  0  0  0  0
  -30.0230  -13.7390   20.0780 N   0  0  0  0  0  0  0  0  0  0  0  0
  -31.8980  -14.9460   19.9700 O   0  0  0  0  0  0  0  0  0  0  0  0
  -25.2990  -13.9980   20.5200 C   0  0  0  0  0  0  0  0  0  0  0  0
  -24.2630  -13.1970   20.9120 C   0  0  0  0  0  0  0  0  0  0  0  0
  -24.7440  -11.8540   20.8230 C   0  0  0  0  0  0  0  0  0  0  0  0
  -26.3410  -13.1430   20.2070 N   0  0  0  0  0  0  0  0  0  0  0  0
  -26.0200  -11.8470   20.4570 N   0  0  0  0  0  0  0  0  0  0  0  0
  -24.0420  -10.5780   21.0090 C   0  0  0  0  0  0  0  0  0  0  0  0
  -24.4960   -9.6120   21.9350 C   0  0  0  0  0  3  0  0  0  0  0  0
  -23.7920   -8.4010   22.1090 C   0  0  0  0  0  3  0  0  0  0  0  0
  -22.6200   -8.1450   21.3590 C   0  0  0  0  0  0  0  0  0  0  0  0
  -22.1870   -9.1010   20.4220 C   0  0  0  0  0  3  0  0  0  0  0  0
  -22.8910  -10.3030   20.2450 C   0  0  0  0  0  3  0  0  0  0  0  0
  -21.8830   -6.9880   21.4430 O   0  0  0  0  0  0  0  0  0  0  0  0
  -21.8280   -6.2550   22.6010 C   0  0  0  0  0  0  0  0  0  0  0  0
  -21.3390   -6.7990   23.8080 C   0  0  0  0  0  3  0  0  0  0  0  0
  -21.2320   -5.9870   24.9550 C   0  0  0  0  0  3  0  0  0  0  0  0
  -21.6090   -4.6320   24.8990 C   0  0  0  0  0  0  0  0  0  0  0  0
  -22.0910   -4.0860   23.6960 C   0  0  0  0  0  3  0  0  0  0  0  0
  -22.1980   -4.8960   22.5500 C   0  0  0  0  0  0  0  0  0  0  0  0
  -22.6420   -4.3550   21.3890 F   0  0  0  0  0  0  0  0  0  0  0  0
  -21.5000   -3.8520   26.0000 F   0  0  0  0  0  0  0  0  0  0  0  0
  -22.8710  -13.6450   21.2540 C   0  0  0  0  0  0  0  0  0  0  0  0
  -22.1950  -12.9180   22.1360 N   0  0  0  0  0  0  0  0  0  0  0  0
  -22.3960  -14.6730   20.7770 O   0  0  0  0  0  0  0  0  0  0  0  0
  -22.5960  -12.0870   22.5440 H   0  0  0  0  0  0  0  0  0  0  0  0
  -21.2610  -13.1920   22.4090 H   0  0  0  0  0  0  0  0  0  0  0  0
  -25.4410  -15.3760   20.3770 N   0  0  0  0  0  0  0  0  0  0  0  0
  -24.6860  -16.0270   20.5700 H   0  0  0  0  0  0  0  0  0  0  0  0
  -26.2870  -15.8340   20.0640 H   0  0  0  0  0  0  0  0  0  0  0  0
  -29.2780  -22.3960   20.0540 N   0  0  0  0  0  4  0  0  0  0  0  0
  -29.5920  -22.1680   19.1240 H   0  0  0  0  0  0  0  0  0  0  0  0
  -30.0770  -22.8260   20.4930 H   0  0  0  0  0  0  0  0  0  0  0  0
  -28.2320  -23.5500   19.9240 C   0  0  0  0  0  2  0  0  0  0  0  0
  -28.5230  -25.0340   20.5770 C   0  0  0  0  0  2  0  0  0  0  0  0
  -28.4780  -26.3990   19.8980 O   0  0  0  0  0  0  0  0  0  0  0  0
  -24.6820  -31.7380   23.1480 C   0  0  0  0  0  0  0  0  0  0  0  0
  -27.3550  -27.2600   19.9620 C   0  0  0  0  0  0  0  0  0  0  0  0
  -23.5030  -30.3720   21.4640 C   0  0  0  0  0  3  0  0  0  0  0  0
  -24.9770  -28.8830   19.9890 C   0  0  0  0  0  0  0  0  0  0  0  0
  -26.0400  -30.7270   21.2870 C   0  0  0  0  0  2  0  0  0  0  0  0
  -26.1420  -29.3610   20.6020 C   0  0  0  0  0  0  0  0  0  0  0  0
  -27.3370  -28.5670   20.5690 C   0  0  0  0  0  3  0  0  0  0  0  0
  -26.1630  -26.8450   19.3340 C   0  0  0  0  0  3  0  0  0  0  0  0
  -24.9940  -27.6340   19.3440 C   0  0  0  0  0  3  0  0  0  0  0  0
  -23.7270  -29.7420   20.0660 C   0  0  0  0  0  2  0  0  0  0  0  0
  -24.7610  -30.9650   22.0220 N   0  0  0  0  0  0  0  0  0  0  0  0
  -23.5950  -31.9800   23.6940 O   0  0  0  0  0  0  0  0  0  0  0  0
  -22.8610  -29.3160   22.3960 C   0  0  0  0  0  0  0  0  0  0  0  0
  -21.5390  -29.1060   22.2590 N   0  0  0  0  0  0  0  0  0  0  0  0
  -23.5510  -28.6840   23.2010 O   0  0  0  0  0  0  0  0  0  0  0  0
  -21.0400  -29.6640   21.5790 H   0  0  0  0  0  0  0  0  0  0  0  0
  -18.2000  -27.7840   22.7050 C   0  0  0  0  0  0  0  0  0  0  0  0
  -20.7450  -28.1280   23.0030 C   0  0  0  0  0  3  0  0  0  0  0  0
  -20.9020  -26.7140   22.3980 C   0  0  0  0  0  2  0  0  0  0  0  0
  -19.8220  -26.3760   21.3680 C   0  0  0  0  0  2  0  0  0  0  0  0
  -18.4280  -26.4580   21.9980 C   0  0  0  0  0  2  0  0  0  0  0  0
  -19.2870  -28.5770   23.1600 C   0  0  0  0  0  0  0  0  0  0  0  0
  -19.0190  -29.8170   23.7800 C   0  0  0  0  0  3  0  0  0  0  0  0
  -17.6950  -30.2660   23.9470 C   0  0  0  0  0  3  0  0  0  0  0  0
  -16.6230  -29.4730   23.5050 C   0  0  0  0  0  3  0  0  0  0  0  0
  -16.8750  -28.2340   22.8900 C   0  0  0  0  0  3  0  0  0  0  0  0
  -25.9510  -32.3810   23.7880 C   0  0  0  0  0  3  0  0  0  0  0  0
  -26.4790  -31.5930   25.0510 C   0  0  1  0  0  0  0  0  0  0  0  0
  -25.3900  -31.3120   26.1130 C   0  0  0  0  0  1  0  0  0  0  0  0
  -27.0850  -30.2310   24.6380 C   0  0  0  0  0  1  0  0  0  0  0  0
  -27.6160  -32.3930   25.7310 C   0  0  0  0  0  1  0  0  0  0  0  0
  -25.6110  -33.7670   24.1490 N   0  0  0  0  0  0  0  0  0  0  0  0
  -25.9370  -34.8470   23.4250 C   0  0  0  0  0  0  0  0  0  0  0  0
  -26.6250  -34.7810   22.4030 O   0  0  0  0  0  0  0  0  0  0  0  0
  -25.0020  -33.8880   24.9440 H   0  0  0  0  0  0  0  0  0  0  0  0
  -24.1810  -36.6250   23.1110 C   0  0  0  0  0  1  0  0  0  0  0  0
  -25.4240  -36.2160   23.9160 C   0  0  0  0  0  3  0  0  0  0  0  0
  -27.5340  -37.1190   24.7890 C   0  0  0  0  0  1  0  0  0  0  0  0
  -26.4380  -37.2890   23.8390 N   0  0  0  0  0  0  0  0  0  0  0  0
  -26.0120  -38.1960   24.0060 H   0  0  0  0  0  0  0  0  0  0  0  0
  -32.7730  -18.2090   20.7700 O   0  0  0  0  0  0  0  0  0  0  0  0
  -32.6270  -19.1470   20.7150 H   0  0  0  0  0  0  0  0  0  0  0  0
  1  2  1  0
  1  7  1  0
  4  3  1  0
  5  9  1  0
  6  5  1  0
  6  1  1  0
  6  8  1  0
  7 92  1  0
  7  3  1  0
  8  4  1  0
  9 46  1  0
  9  8  1  0
 10  2  1  0
 11 16  1  0
 12 13  1  0
 12 11  1  0
 14 13  1  0
 14 21  1  0
 14 15  1  0
 16 10  1  0
 16 15  1  0
 17 10  2  0
 18 19  2  0
 19 38  1  0
 20 19  1  0
 20 23  1  0
 21 22  1  0
 21 18  1  0
 22 20  2  0
 23 24  1  0
 24 25  2  0
 26 29  1  0
 26 25  1  0
 27 26  2  0
 28 27  1  0
 28 23  2  0
 29 30  1  0
 30 31  1  0
 31 32  2  0
 33 32  1  0
 33 37  1  0
 34 33  2  0
 35 30  2  0
 35 34  1  0
 36 35  1  0
 38 39  1  0
 39 42  1  0
 39 41  1  0
 40 38  2  0
 43 18  1  0
 43 44  1  0
 45 43  1  0
 46 48  1  0
 47 46  1  0
 49 46  1  0
 49 50  1  0
 51 53  1  0
 51 50  1  0
 52 63  2  0
 53 58  1  0
 54 62  1  0
 54 64  1  0
 55 61  1  0
 55 57  1  0
 56 62  1  0
 57 56  1  0
 58 57  2  0
 59 60  1  0
 59 53  2  0
 60 55  2  0
 61 54  1  0
 62 52  1  0
 64 66  2  0
 65 64  1  0
 67 65  1  0
 68 77  2  0
 68 73  1  0
 69 65  1  0
 69 73  1  0
 70 69  1  0
 71 72  1  0
 71 70  1  0
 72 68  1  0
 73 74  2  0
 74 75  1  0
 76 75  2  0
 77 76  1  0
 78 52  1  0
 78 83  1  0
 78 79  1  0
 79 82  1  1
 79 80  1  0
 81 79  1  0
 83 86  1  0
 84 88  1  0
 84 83  1  0
 85 84  2  0
 88 87  1  0
 90 88  1  0
 90 91  1  0
 90 89  1  0
 93 92  1  0
M  ISO  4   2 100  10 100  50 101  51 101
M  END
>  <TORSDO>  (83) 
F 20

>  <SCORE>  (83) 
-13.470

>  <name>  (83) 
82

>  <ligand_id>  (83) 
82

>  <original_smiles>  (83) 
[H]OC1([H])C(=C([H])C(=O)N2C([H])([H])C([H])([H])C([H])([H])C([H])(n3nc(-c4c([H])c([H])c(Oc5c([H])c([H])c(F)c([H])c5F)c([H])c4[H])c(C(=O)N([H])[H])c3N([H])[H])C2([H])[H])C2([H])C([H])([H])C([H])([N+]([H])([H])C([H])([H])C([H])([H])Oc3c([H])c([H])c4c(c3[H])C([H])([H])N(C(=O)C([H])(N([H])C(=O)C([H])(N([H])C([H])([H])[H])C([H])([H])[H])C(C([H])([H])[H])(C([H])([H])[H])C([H])([H])[H])C([H])(C(=O)N([H])C3([H])c5c([H])c([H])c([H])c([H])c5C([H])([H])C([H])([H])C3([H])[H])C4([H])[H])C2([H])C([H])([H])C1([H])[H]

>  <smiles>  (83) 
[H]OC1([H])C(=C([H])C(=O)N2C([H])([H])C([H])([H])C([H])([H])C([H])(n3nc(-c4c([H])c([H])c(Oc5c([H])c([H])c(F)c([H])c5F)c([H])c4[H])c(C(=O)N([H])[H])c3N([H])[H])C2([H])[H])C2([H])C([H])([H])C([H])([N+]([H])([H])C([H])([H])C([H])([H])Oc3c([H])c([H])c4c(c3[H])C([H])([H])N(C(=O)C([H])(N([H])C(=O)C([H])(N([H])C([H])([H])[H])C([H])([H])[H])C(C([H])([H])[H])(C([H])([H])[H])C([H])([H])[H])C([H])(C(=O)N([H])C3([H])c5c([H])c([H])c([H])c([H])c5C([H])([H])C([H])([H])C3([H])[H])C4([H])[H])C2([H])C([H])([H])C1([H])[H]

$$$$
83:0:0
     RDKit          3D

 88 95  0  0  1  0  0  0  0  0999 V2000
  -27.9000  -19.4000   18.3810 C   0  0  0  0  0  3  0  0  0  0  0  0
  -28.5290  -18.1820   18.8380 C   0  0  0  0  0  3  0  0  0  0  0  0
  -28.0140  -20.7520   18.8740 C   0  0  0  0  0  3  0  0  0  0  0  0
  -29.4610  -18.0360   19.9030 C   0  0  0  0  0  0  0  0  0  0  0  0
  -28.7940  -21.1870   19.9770 C   0  0  0  0  0  3  0  0  0  0  0  0
  -29.5130  -19.6810   20.4260 C   0  0  0  0  0  0  0  0  0  0  0  0
  -30.4300  -19.8230   21.6340 C   0  0  0  0  0  2  0  0  0  0  0  0
  -30.7600  -21.2710   22.0580 C   0  0  0  0  0  2  0  0  0  0  0  0
  -29.5690  -22.0650   22.6470 C   0  0  0  0  0  2  0  0  0  0  0  0
  -29.2080  -23.3430   21.8620 C   0  0  0  0  0  2  0  0  0  0  0  0
  -28.4480  -23.1410   20.5350 C   0  0  0  0  0  1  0  0  0  0  0  0
  -30.2150  -16.2590   20.0410 C   0  0  0  0  0  0  0  0  0  0  0  0
  -30.4750  -13.5840   19.2500 C   0  0  0  0  0  2  0  0  0  0  0  0
  -29.6210  -12.9180   18.1110 C   0  0  0  0  0  2  0  0  0  0  0  0
  -28.2630  -12.4300   18.6280 C   0  0  0  0  0  2  0  0  0  0  0  0
  -27.6860  -13.4560   19.6200 C   0  0  0  0  0  3  0  0  0  0  0  0
  -28.7010  -14.0020   20.6650 C   0  0  0  0  0  2  0  0  0  0  0  0
  -29.7660  -14.7950   19.9560 N   0  0  0  0  0  0  0  0  0  0  0  0
  -31.4620  -16.0940   19.9730 O   0  0  0  0  0  0  0  0  0  0  0  0
  -25.3650  -13.9060   20.5070 C   0  0  0  0  0  0  0  0  0  0  0  0
  -24.3280  -13.1050   20.8870 C   0  0  0  0  0  0  0  0  0  0  0  0
  -24.8090  -11.7610   20.7990 C   0  0  0  0  0  0  0  0  0  0  0  0
  -26.4080  -13.0580   20.1970 N   0  0  0  0  0  0  0  0  0  0  0  0
  -26.0920  -11.7540   20.4360 N   0  0  0  0  0  0  0  0  0  0  0  0
  -24.0920  -10.4890   20.9810 C   0  0  0  0  0  0  0  0  0  0  0  0
  -24.5200   -9.5210   21.9180 C   0  0  0  0  0  3  0  0  0  0  0  0
  -23.7960   -8.3230   22.0930 C   0  0  0  0  0  3  0  0  0  0  0  0
  -22.6270   -8.0790   21.3320 C   0  0  0  0  0  0  0  0  0  0  0  0
  -22.2160   -9.0350   20.3850 C   0  0  0  0  0  3  0  0  0  0  0  0
  -22.9420  -10.2260   20.2090 C   0  0  0  0  0  3  0  0  0  0  0  0
  -21.8760   -6.9310   21.4130 O   0  0  0  0  0  0  0  0  0  0  0  0
  -21.7720   -6.2200   22.5830 C   0  0  0  0  0  0  0  0  0  0  0  0
  -21.2750   -6.8060   23.7680 C   0  0  0  0  0  3  0  0  0  0  0  0
  -21.1180   -6.0220   24.9280 C   0  0  0  0  0  3  0  0  0  0  0  0
  -21.4490   -4.6540   24.9050 C   0  0  0  0  0  0  0  0  0  0  0  0
  -21.9400   -4.0680   23.7250 C   0  0  0  0  0  3  0  0  0  0  0  0
  -22.0980   -4.8490   22.5670 C   0  0  0  0  0  0  0  0  0  0  0  0
  -22.5500   -4.2740   21.4260 F   0  0  0  0  0  0  0  0  0  0  0  0
  -21.2920   -3.8980   26.0170 F   0  0  0  0  0  0  0  0  0  0  0  0
  -22.9370  -13.5640   21.2100 C   0  0  0  0  0  0  0  0  0  0  0  0
  -22.2460  -12.8510   22.0920 N   0  0  0  0  0  0  0  0  0  0  0  0
  -22.4760  -14.5940   20.7200 O   0  0  0  0  0  0  0  0  0  0  0  0
  -22.6350  -12.0190   22.5100 H   0  0  0  0  0  0  0  0  0  0  0  0
  -21.3150  -13.1420   22.3530 H   0  0  0  0  0  0  0  0  0  0  0  0
  -25.5020  -15.2840   20.3610 N   0  0  0  0  0  0  0  0  0  0  0  0
  -24.7330  -15.9210   20.5330 H   0  0  0  0  0  0  0  0  0  0  0  0
  -26.3360  -15.7510   20.0280 H   0  0  0  0  0  0  0  0  0  0  0  0
  -28.3290  -25.0340   20.0720 O   0  0  0  0  0  1  0  0  0  0  0  0
  -24.8110  -31.7870   23.0620 C   0  0  0  0  0  0  0  0  0  0  0  0
  -27.3780  -26.3960   20.1670 C   0  0  0  0  0  0  0  0  0  0  0  0
  -23.6570  -30.3580   21.4370 C   0  0  0  0  0  3  0  0  0  0  0  0
  -25.1260  -28.6400   20.0740 C   0  0  0  0  0  0  0  0  0  0  0  0
  -26.2520  -30.4200   21.3650 C   0  0  0  0  0  2  0  0  0  0  0  0
  -26.3270  -28.9420   20.7270 C   0  0  0  0  0  0  0  0  0  0  0  0
  -27.4230  -27.8640   20.7230 C   0  0  0  0  0  3  0  0  0  0  0  0
  -26.1330  -26.4030   19.4540 C   0  0  0  0  0  3  0  0  0  0  0  0
  -25.0890  -27.3990   19.4110 C   0  0  0  0  0  3  0  0  0  0  0  0
  -23.9270  -29.6250   20.0870 C   0  0  0  0  0  2  0  0  0  0  0  0
  -24.9340  -30.8980   22.0060 N   0  0  0  0  0  0  0  0  0  0  0  0
  -23.7060  -32.0960   23.5460 O   0  0  0  0  0  0  0  0  0  0  0  0
  -22.9120  -29.4120   22.4220 C   0  0  0  0  0  0  0  0  0  0  0  0
  -21.5740  -29.2830   22.3100 N   0  0  0  0  0  0  0  0  0  0  0  0
  -23.5580  -28.7870   23.2650 O   0  0  0  0  0  0  0  0  0  0  0  0
  -21.0970  -29.8370   21.6120 H   0  0  0  0  0  0  0  0  0  0  0  0
  -18.1730  -28.1120   22.8890 C   0  0  0  0  0  0  0  0  0  0  0  0
  -20.7450  -28.3510   23.0890 C   0  0  0  0  0  3  0  0  0  0  0  0
  -20.8130  -26.9230   22.4990 C   0  0  0  0  0  2  0  0  0  0  0  0
  -19.6850  -26.6280   21.5040 C   0  0  0  0  0  2  0  0  0  0  0  0
  -18.3200  -26.7740   22.1810 C   0  0  0  0  0  2  0  0  0  0  0  0
  -19.3090  -28.8600   23.2990 C   0  0  0  0  0  0  0  0  0  0  0  0
  -19.1120  -30.1070   23.9290 C   0  0  0  0  0  3  0  0  0  0  0  0
  -17.8150  -30.6090   24.1460 C   0  0  0  0  0  3  0  0  0  0  0  0
  -16.6950  -29.8600   23.7460 C   0  0  0  0  0  3  0  0  0  0  0  0
  -16.8760  -28.6120   23.1230 C   0  0  0  0  0  3  0  0  0  0  0  0
  -26.0490  -32.4740   23.7170 C   0  0  0  0  0  3  0  0  0  0  0  0
  -25.6800  -33.8580   24.0930 N   0  0  0  0  0  0  0  0  0  0  0  0
  -25.9650  -34.9600   23.3860 C   0  0  0  0  0  0  0  0  0  0  0  0
  -26.6140  -34.9230   22.3390 O   0  0  0  0  0  0  0  0  0  0  0  0
  -25.0940  -33.9560   24.9080 H   0  0  0  0  0  0  0  0  0  0  0  0
  -24.1690  -36.7220   23.1840 C   0  0  0  0  0  1  0  0  0  0  0  0
  -25.4580  -36.3200   23.9200 C   0  0  0  0  0  3  0  0  0  0  0  0
  -27.5940  -37.2580   24.6940 C   0  0  0  0  0  1  0  0  0  0  0  0
  -26.4500  -37.4120   23.8000 N   0  0  0  0  0  0  0  0  0  0  0  0
  -26.0200  -38.3130   23.9890 H   0  0  0  0  0  0  0  0  0  0  0  0
  -26.5710  -31.7070   24.9960 C   0  0  1  0  0  0  0  0  0  0  0  0
  -25.4750  -31.4430   26.0560 C   0  0  0  0  0  1  0  0  0  0  0  0
  -27.1850  -30.3420   24.6190 C   0  0  0  0  0  1  0  0  0  0  0  0
  -27.7010  -32.5210   25.6700 C   0  0  0  0  0  1  0  0  0  0  0  0
  1  2  2  0
  1  3  1  0
  2  4  1  0
  3  5  2  0
  4 12  1  0
  4  6  2  0
  5  6  1  0
  6  7  1  0
  7  8  1  0
  8  9  1  0
 10  9  1  0
 11 10  1  0
 13 18  1  0
 14 15  1  0
 14 13  1  0
 16 15  1  0
 16 23  1  0
 16 17  1  0
 18 12  1  0
 18 17  1  0
 19 12  2  0
 20 21  2  0
 21 40  1  0
 22 21  1  0
 22 25  1  0
 23 24  1  0
 23 20  1  0
 24 22  2  0
 25 26  1  0
 26 27  2  0
 28 31  1  0
 28 27  1  0
 29 28  2  0
 30 29  1  0
 30 25  2  0
 31 32  1  0
 32 33  1  0
 33 34  2  0
 35 34  1  0
 35 39  1  0
 36 35  2  0
 37 32  2  0
 37 36  1  0
 38 37  1  0
 40 41  1  0
 41 44  1  0
 41 43  1  0
 42 40  2  0
 45 20  1  0
 45 46  1  0
 47 45  1  0
 48 50  1  0
 49 60  2  0
 50 55  1  0
 51 59  1  0
 51 61  1  0
 52 58  1  0
 52 54  1  0
 53 59  1  0
 54 53  1  0
 55 54  2  0
 56 50  2  0
 57 56  1  0
 57 52  2  0
 58 51  1  0
 59 49  1  0
 61 63  2  0
 62 61  1  0
 64 62  1  0
 65 74  2  0
 65 70  1  0
 66 62  1  0
 66 70  1  0
 67 66  1  0
 68 69  1  0
 68 67  1  0
 69 65  1  0
 70 71  2  0
 71 72  1  0
 73 72  2  0
 74 73  1  0
 75 49  1  0
 75 76  1  0
 75 85  1  0
 76 79  1  0
 77 81  1  0
 77 76  1  0
 78 77  2  0
 81 80  1  0
 83 81  1  0
 83 84  1  0
 83 82  1  0
 85 88  1  1
 85 86  1  0
 87 85  1  0
M  ISO  4   4 100  11 101  12 100  48 101
M  END
>  <TORSDO>  (84) 
F 16

>  <SCORE>  (84) 
-17.130

>  <name>  (84) 
83

>  <ligand_id>  (84) 
83

>  <original_smiles>  (84) 
[H]c1c([H])c([H])c2c(c1[H])C([H])([H])C([H])([H])C([H])([H])C2([H])N([H])C(=O)C1([H])N(C(=O)C([H])(N([H])C(=O)C([H])(N([H])C([H])([H])[H])C([H])([H])[H])C(C([H])([H])[H])(C([H])([H])[H])C([H])([H])[H])C([H])([H])c2c([H])c(OC3([H])c4c([H])c([H])c([H])c(C(=O)N5C([H])([H])C([H])([H])C([H])([H])C([H])(n6nc(-c7c([H])c([H])c(Oc8c([H])c([H])c(F)c([H])c8F)c([H])c7[H])c(C(=O)N([H])[H])c6N([H])[H])C5([H])[H])c4C([H])([H])C([H])([H])C([H])([H])C3([H])[H])c([H])c([H])c2C1([H])[H]

>  <smiles>  (84) 
[H]c1c([H])c([H])c2c(c1[H])C([H])([H])C([H])([H])C([H])([H])C2([H])N([H])C(=O)C1([H])N(C(=O)C([H])(N([H])C(=O)C([H])(N([H])C([H])([H])[H])C([H])([H])[H])C(C([H])([H])[H])(C([H])([H])[H])C([H])([H])[H])C([H])([H])c2c([H])c(OC3([H])c4c([H])c([H])c([H])c(C(=O)N5C([H])([H])C([H])([H])C([H])([H])C([H])(n6nc(-c7c([H])c([H])c(Oc8c([H])c([H])c(F)c([H])c8F)c([H])c7[H])c(C(=O)N([H])[H])c6N([H])[H])C5([H])[H])c4C([H])([H])C([H])([H])C([H])([H])C3([H])[H])c([H])c([H])c2C1([H])[H]

$$$$
84:0:0
     RDKit          3D

 91100  0  0  1  0  0  0  0  0999 V2000
  -29.4920  -20.8040   19.1110 C   0  0  0  0  0  0  0  0  0  0  0  0
  -28.8990  -21.3100   20.3000 C   0  0  0  0  0  0  0  0  0  0  0  0
  -29.6520  -21.9740   18.2300 C   0  0  0  0  0  0  0  0  0  0  0  0
  -28.4830  -22.8110   20.5310 C   0  0  0  0  0  0  0  0  0  0  0  0
  -29.2060  -23.4100   18.4390 C   0  0  0  0  0  0  0  0  0  0  0  0
  -28.5630  -24.0500   19.6060 C   0  0  0  0  0  0  0  0  0  0  0  0
  -28.7760  -20.0230   21.2710 C   0  0  0  0  0  2  0  0  0  0  0  0
  -29.9810  -19.1290   18.8360 C   0  0  0  0  0  2  0  0  0  0  0  0
  -29.6220  -18.5590   21.1000 C   0  0  0  0  0  2  0  0  0  0  0  0
  -29.7000  -17.6270   19.7480 C   0  0  1  0  0  0  0  0  0  0  0  0
  -30.4570  -21.6690   16.9670 C   0  0  0  0  0  1  0  0  0  0  0  0
  -27.9180  -23.0950   21.9100 C   0  0  0  0  0  1  0  0  0  0  0  0
  -29.4870  -24.3820   17.2990 C   0  0  0  0  0  1  0  0  0  0  0  0
  -28.2560  -17.2560   19.4090 C   0  0  0  0  0  1  0  0  0  0  0  0
  -30.5340  -15.9090   19.6770 C   0  0  0  0  0  0  0  0  0  0  0  0
  -30.6460  -13.3240   18.9350 C   0  0  0  0  0  2  0  0  0  0  0  0
  -29.6810  -12.8900   17.7900 C   0  0  0  0  0  2  0  0  0  0  0  0
  -28.2940  -12.5170   18.3340 C   0  0  0  0  0  2  0  0  0  0  0  0
  -27.8360  -13.5210   19.4170 C   0  0  0  0  0  3  0  0  0  0  0  0
  -28.9360  -13.8800   20.4440 C   0  0  0  0  0  2  0  0  0  0  0  0
  -30.0630  -14.5130   19.7120 N   0  0  0  0  0  0  0  0  0  0  0  0
  -31.7510  -15.8390   19.4130 O   0  0  0  0  0  0  0  0  0  0  0  0
  -25.5570  -14.0200   20.4250 C   0  0  0  0  0  0  0  0  0  0  0  0
  -24.5330  -13.2310   20.8570 C   0  0  0  0  0  0  0  0  0  0  0  0
  -24.9840  -11.8830   20.7160 C   0  0  0  0  0  0  0  0  0  0  0  0
  -26.5690  -13.1600   20.0420 N   0  0  0  0  0  0  0  0  0  0  0  0
  -26.2430  -11.8610   20.2840 N   0  0  0  0  0  0  0  0  0  0  0  0
  -24.2610  -10.6190   20.9110 C   0  0  0  0  0  0  0  0  0  0  0  0
  -24.7000   -9.6510   21.8400 C   0  0  0  0  0  3  0  0  0  0  0  0
  -23.9710   -8.4560   22.0260 C   0  0  0  0  0  3  0  0  0  0  0  0
  -22.7900   -8.2220   21.2820 C   0  0  0  0  0  0  0  0  0  0  0  0
  -22.3700   -9.1780   20.3410 C   0  0  0  0  0  3  0  0  0  0  0  0
  -23.1000  -10.3650   20.1530 C   0  0  0  0  0  3  0  0  0  0  0  0
  -22.0290   -7.0810   21.3810 O   0  0  0  0  0  0  0  0  0  0  0  0
  -21.8990   -6.4010   22.5660 C   0  0  0  0  0  0  0  0  0  0  0  0
  -21.3250   -6.9980   23.7100 C   0  0  0  0  0  3  0  0  0  0  0  0
  -21.1490   -6.2410   24.8850 C   0  0  0  0  0  3  0  0  0  0  0  0
  -21.5340   -4.8880   24.9180 C   0  0  0  0  0  0  0  0  0  0  0  0
  -22.1030   -4.2900   23.7790 C   0  0  0  0  0  3  0  0  0  0  0  0
  -22.2810   -5.0440   22.6060 C   0  0  0  0  0  0  0  0  0  0  0  0
  -22.8100   -4.4580   21.5050 F   0  0  0  0  0  0  0  0  0  0  0  0
  -21.3570   -4.1590   26.0450 F   0  0  0  0  0  0  0  0  0  0  0  0
  -23.1710  -13.7030   21.2670 C   0  0  0  0  0  0  0  0  0  0  0  0
  -22.5200  -12.9830   22.1730 N   0  0  0  0  0  0  0  0  0  0  0  0
  -22.6980  -14.7490   20.8200 O   0  0  0  0  0  0  0  0  0  0  0  0
  -22.9260  -12.1450   22.5650 H   0  0  0  0  0  0  0  0  0  0  0  0
  -21.6050  -13.2730   22.4860 H   0  0  0  0  0  0  0  0  0  0  0  0
  -25.6920  -15.3990   20.2950 N   0  0  0  0  0  0  0  0  0  0  0  0
  -24.9330  -16.0330   20.5190 H   0  0  0  0  0  0  0  0  0  0  0  0
  -26.4890  -15.8640   19.8870 H   0  0  0  0  0  0  0  0  0  0  0  0
  -28.4250  -25.6750   19.7900 O   0  0  0  0  0  0  0  0  0  0  0  0
  -24.8800  -31.8000   23.0650 C   0  0  0  0  0  0  0  0  0  0  0  0
  -27.4010  -26.8610   19.7920 C   0  0  0  0  0  0  0  0  0  0  0  0
  -23.6730  -30.4640   21.3900 C   0  0  0  0  0  3  0  0  0  0  0  0
  -25.1090  -28.8900   19.8740 C   0  0  0  0  0  0  0  0  0  0  0  0
  -26.2480  -30.6290   21.2300 C   0  0  0  0  0  2  0  0  0  0  0  0
  -26.3110  -29.2230   20.5080 C   0  0  0  0  0  0  0  0  0  0  0  0
  -27.4330  -28.2370   20.4390 C   0  0  0  0  0  3  0  0  0  0  0  0
  -26.1630  -26.7490   19.1080 C   0  0  0  0  0  3  0  0  0  0  0  0
  -25.0740  -27.6790   19.1540 C   0  0  0  0  0  3  0  0  0  0  0  0
  -23.8920  -29.8280   19.9860 C   0  0  0  0  0  2  0  0  0  0  0  0
  -24.9590  -30.9980   21.9490 N   0  0  0  0  0  0  0  0  0  0  0  0
  -23.7940  -32.0690   23.6080 O   0  0  0  0  0  0  0  0  0  0  0  0
  -22.9830  -29.4410   22.3310 C   0  0  0  0  0  0  0  0  0  0  0  0
  -21.6500  -29.2820   22.2240 N   0  0  0  0  0  0  0  0  0  0  0  0
  -23.6590  -28.7890   23.1300 O   0  0  0  0  0  0  0  0  0  0  0  0
  -21.1530  -29.8550   21.5570 H   0  0  0  0  0  0  0  0  0  0  0  0
  -18.2800  -28.0410   22.7730 C   0  0  0  0  0  0  0  0  0  0  0  0
  -20.8470  -28.3020   22.9690 C   0  0  0  0  0  3  0  0  0  0  0  0
  -20.9310  -26.9040   22.3160 C   0  0  0  0  0  2  0  0  0  0  0  0
  -19.7970  -26.6350   21.3190 C   0  0  0  0  0  2  0  0  0  0  0  0
  -18.4370  -26.7360   22.0130 C   0  0  0  0  0  2  0  0  0  0  0  0
  -19.4090  -28.7840   23.2080 C   0  0  0  0  0  0  0  0  0  0  0  0
  -19.2010  -30.0050   23.8880 C   0  0  0  0  0  3  0  0  0  0  0  0
  -17.8990  -30.4810   24.1330 C   0  0  0  0  0  3  0  0  0  0  0  0
  -16.7860  -29.7360   23.7100 C   0  0  0  0  0  3  0  0  0  0  0  0
  -16.9780  -28.5160   23.0370 C   0  0  0  0  0  3  0  0  0  0  0  0
  -26.1490  -32.4320   23.7130 C   0  0  0  0  0  3  0  0  0  0  0  0
  -25.8300  -33.8250   24.0880 N   0  0  0  0  0  0  0  0  0  0  0  0
  -26.1340  -34.9100   23.3620 C   0  0  0  0  0  0  0  0  0  0  0  0
  -26.7670  -34.8440   22.3060 O   0  0  0  0  0  0  0  0  0  0  0  0
  -25.2640  -33.9480   24.9140 H   0  0  0  0  0  0  0  0  0  0  0  0
  -24.3750  -36.7040   23.1630 C   0  0  0  0  0  1  0  0  0  0  0  0
  -25.6650  -36.2830   23.8880 C   0  0  0  0  0  3  0  0  0  0  0  0
  -27.8270  -37.1830   24.6320 C   0  0  0  0  0  1  0  0  0  0  0  0
  -26.6800  -37.3510   23.7430 N   0  0  0  0  0  0  0  0  0  0  0  0
  -26.2700  -38.2640   23.9240 H   0  0  0  0  0  0  0  0  0  0  0  0
  -26.6560  -31.6400   24.9820 C   0  0  1  0  0  0  0  0  0  0  0  0
  -25.5570  -31.3910   26.0410 C   0  0  0  0  0  1  0  0  0  0  0  0
  -27.2360  -30.2640   24.5860 C   0  0  0  0  0  1  0  0  0  0  0  0
  -27.8050  -32.4190   25.6630 C   0  0  0  0  0  1  0  0  0  0  0  0
  1  2  1  0
  2  4  2  0
  2  7  1  0
  3  5  1  0
  3  1  2  0
  4 12  1  0
  5  6  2  0
  6 51  1  0
  6  4  1  0
  8  1  1  0
  8 10  1  0
  9  7  1  0
 10 14  1  6
 10  9  1  0
 11  3  1  0
 13  5  1  0
 15 21  1  0
 15 10  1  0
 16 21  1  0
 17 18  1  0
 17 16  1  0
 19 18  1  0
 19 26  1  0
 19 20  1  0
 21 20  1  0
 22 15  2  0
 23 24  2  0
 24 43  1  0
 25 24  1  0
 25 28  1  0
 26 27  1  0
 26 23  1  0
 27 25  2  0
 28 29  1  0
 29 30  2  0
 31 34  1  0
 31 30  1  0
 32 31  2  0
 33 32  1  0
 33 28  2  0
 34 35  1  0
 35 40  2  0
 35 36  1  0
 36 37  2  0
 37 38  1  0
 38 42  1  0
 39 38  2  0
 40 39  1  0
 41 40  1  0
 43 44  1  0
 44 47  1  0
 44 46  1  0
 45 43  2  0
 48 23  1  0
 48 49  1  0
 50 48  1  0
 51 53  1  0
 52 63  2  0
 53 58  1  0
 54 62  1  0
 54 64  1  0
 55 61  1  0
 55 57  1  0
 56 62  1  0
 57 56  1  0
 58 57  2  0
 59 60  1  0
 59 53  2  0
 60 55  2  0
 61 54  1  0
 62 52  1  0
 64 66  2  0
 65 64  1  0
 67 65  1  0
 68 77  2  0
 68 73  1  0
 69 65  1  0
 69 73  1  0
 70 69  1  0
 71 72  1  0
 71 70  1  0
 72 68  1  0
 73 74  2  0
 74 75  1  0
 76 75  2  0
 77 76  1  0
 78 52  1  0
 78 79  1  0
 78 88  1  0
 79 82  1  0
 80 84  1  0
 80 79  1  0
 81 80  2  0
 84 83  1  0
 86 84  1  0
 86 87  1  0
 86 85  1  0
 88 91  1  1
 88 89  1  0
 90 88  1  0
M  ISO  4   6 101  10 100  15 100  51 101
M  END
>  <TORSDO>  (85) 
F 16

>  <SCORE>  (85) 
-14.775

>  <name>  (85) 
84

>  <ligand_id>  (85) 
84

>  <original_smiles>  (85) 
[H]c1c([H])c([H])c2c(c1[H])C([H])([H])C([H])([H])C([H])([H])C2([H])N([H])C(=O)C1([H])N(C(=O)C([H])(N([H])C(=O)C([H])(N([H])C([H])([H])[H])C([H])([H])[H])C(C([H])([H])[H])(C([H])([H])[H])C([H])([H])[H])C([H])([H])c2c([H])c(Oc3c(C([H])([H])[H])c(C([H])([H])[H])c4c(c3C([H])([H])[H])C([H])([H])C([H])([H])C(C(=O)N3C([H])([H])C([H])([H])C([H])([H])C([H])(n5nc(-c6c([H])c([H])c(Oc7c([H])c([H])c(F)c([H])c7F)c([H])c6[H])c(C(=O)N([H])[H])c5N([H])[H])C3([H])[H])(C([H])([H])[H])C4([H])[H])c([H])c([H])c2C1([H])[H]

>  <smiles>  (85) 
[H]c1c([H])c([H])c2c(c1[H])C([H])([H])C([H])([H])C([H])([H])C2([H])N([H])C(=O)C1([H])N(C(=O)C([H])(N([H])C(=O)C([H])(N([H])C([H])([H])[H])C([H])([H])[H])C(C([H])([H])[H])(C([H])([H])[H])C([H])([H])[H])C([H])([H])c2c([H])c(Oc3c(C([H])([H])[H])c(C([H])([H])[H])c4c(c3C([H])([H])[H])C([H])([H])C([H])([H])C(C(=O)N3C([H])([H])C([H])([H])C([H])([H])C([H])(n5nc(-c6c([H])c([H])c(Oc7c([H])c([H])c(F)c([H])c7F)c([H])c6[H])c(C(=O)N([H])[H])c5N([H])[H])C3([H])[H])(C([H])([H])[H])C4([H])[H])c([H])c([H])c2C1([H])[H]

$$$$
85:0:0
     RDKit          3D

 94103  0  0  1  0  0  0  0  0999 V2000
  -31.4710  -24.5970   17.2300 C   0  0  0  0  0  2  0  0  0  0  0  0
  -30.5010  -25.7710   17.0820 C   0  0  0  0  0  2  0  0  0  0  0  0
  -30.8400  -23.3520   17.8750 C   0  0  0  0  0  2  0  0  0  0  0  0
  -30.1040  -26.4120   18.4220 C   0  0  0  0  0  2  0  0  0  0  0  0
  -29.1060  -24.2920   19.6440 C   0  0  0  0  0  2  0  0  0  0  0  0
  -30.4590  -23.5480   19.3550 C   0  0  0  0  0  3  0  0  0  0  0  0
  -28.8780  -25.7510   19.0920 C   0  0  0  0  0  3  0  0  0  0  0  0
  -31.5790  -22.2510   21.2040 C   0  0  0  0  0  3  0  0  0  0  0  0
  -30.0600  -20.9800   19.7810 C   0  0  0  0  0  3  0  0  0  0  0  0
  -31.2720  -19.8630   21.5790 C   0  0  0  0  0  3  0  0  0  0  0  0
  -30.6590  -22.2280   20.1360 C   0  0  0  0  0  0  0  0  0  0  0  0
  -31.8840  -21.0840   21.9200 C   0  0  0  0  0  0  0  0  0  0  0  0
  -30.3800  -19.7780   20.4900 C   0  0  0  0  0  0  0  0  0  0  0  0
  -32.9000  -21.1410   23.0420 C   0  0  0  0  0  1  0  0  0  0  0  0
  -29.7290  -18.4150   20.1540 C   0  0  0  0  0  2  0  0  0  0  0  0
  -30.6320  -17.1290   20.2170 C   0  0  0  0  0  2  0  0  0  0  0  0
  -29.8400  -15.7920   20.4510 C   0  0  0  0  0  2  0  0  0  0  0  0
  -30.6310  -14.4600   20.2840 C   0  0  0  0  0  0  0  0  0  0  0  0
  -30.3270  -12.2310   19.2820 C   0  0  0  0  0  2  0  0  0  0  0  0
  -29.3830  -12.4070   18.0730 C   0  0  0  0  0  2  0  0  0  0  0  0
  -27.9140  -12.2660   18.5130 C   0  0  0  0  0  2  0  0  0  0  0  0
  -27.5750  -13.1440   19.7480 C   0  0  0  0  0  3  0  0  0  0  0  0
  -28.6470  -13.0130   20.8540 C   0  0  0  0  0  2  0  0  0  0  0  0
  -29.9710  -13.2660   20.2670 N   0  0  0  0  0  0  0  0  0  0  0  0
  -31.8130  -14.5480   19.9500 O   0  0  0  0  0  0  0  0  0  0  0  0
  -25.1890  -13.7600   20.4780 C   0  0  0  0  0  0  0  0  0  0  0  0
  -24.1200  -12.9940   20.8560 C   0  0  0  0  0  0  0  0  0  0  0  0
  -24.5780  -11.6400   20.8320 C   0  0  0  0  0  0  0  0  0  0  0  0
  -26.2300  -12.8740   20.2480 N   0  0  0  0  0  0  0  0  0  0  0  0
  -25.8680  -11.5960   20.5220 N   0  0  0  0  0  0  0  0  0  0  0  0
  -23.8480  -10.3820   21.0330 C   0  0  0  0  0  0  0  0  0  0  0  0
  -24.2960   -9.4100   21.9540 C   0  0  0  0  0  3  0  0  0  0  0  0
  -23.5700   -8.2150   22.1460 C   0  0  0  0  0  3  0  0  0  0  0  0
  -22.3800   -7.9830   21.4150 C   0  0  0  0  0  0  0  0  0  0  0  0
  -21.9510   -8.9440   20.4830 C   0  0  0  0  0  3  0  0  0  0  0  0
  -22.6780  -10.1300   20.2910 C   0  0  0  0  0  3  0  0  0  0  0  0
  -21.6250   -6.8400   21.5150 O   0  0  0  0  0  0  0  0  0  0  0  0
  -21.6170   -6.0790   22.6560 C   0  0  0  0  0  0  0  0  0  0  0  0
  -21.2670   -6.6210   23.9110 C   0  0  0  0  0  3  0  0  0  0  0  0
  -21.2070   -5.7880   25.0470 C   0  0  0  0  0  3  0  0  0  0  0  0
  -21.4850   -4.4140   24.9270 C   0  0  0  0  0  0  0  0  0  0  0  0
  -21.8250   -3.8690   23.6750 C   0  0  0  0  0  3  0  0  0  0  0  0
  -21.8900   -4.7010   22.5440 C   0  0  0  0  0  0  0  0  0  0  0  0
  -22.1990   -4.1680   21.3390 F   0  0  0  0  0  0  0  0  0  0  0  0
  -21.4190   -3.6110   26.0140 F   0  0  0  0  0  0  0  0  0  0  0  0
  -22.7230  -13.4750   21.1270 C   0  0  0  0  0  0  0  0  0  0  0  0
  -22.0000  -12.7880   22.0020 N   0  0  0  0  0  0  0  0  0  0  0  0
  -22.2850  -14.4950   20.5970 O   0  0  0  0  0  0  0  0  0  0  0  0
  -22.3740  -11.9660   22.4510 H   0  0  0  0  0  0  0  0  0  0  0  0
  -21.0620  -13.0880   22.2240 H   0  0  0  0  0  0  0  0  0  0  0  0
  -25.3580  -15.1300   20.2880 N   0  0  0  0  0  0  0  0  0  0  0  0
  -24.5910  -15.7850   20.3880 H   0  0  0  0  0  0  0  0  0  0  0  0
  -26.2120  -15.5680   19.9670 H   0  0  0  0  0  0  0  0  0  0  0  0
  -28.4730  -26.6650   20.1420 O   0  0  0  0  0  0  0  0  0  0  0  0
  -24.6420  -31.8340   23.2150 C   0  0  0  0  0  0  0  0  0  0  0  0
  -27.2800  -27.3770   20.0960 C   0  0  0  0  0  0  0  0  0  0  0  0
  -23.4140  -30.4260   21.5890 C   0  0  0  0  0  3  0  0  0  0  0  0
  -24.8600  -28.8710   20.1590 C   0  0  0  0  0  0  0  0  0  0  0  0
  -25.9400  -30.7840   21.3610 C   0  0  0  0  0  2  0  0  0  0  0  0
  -26.0240  -29.4080   20.7230 C   0  0  0  0  0  0  0  0  0  0  0  0
  -27.2280  -28.6620   20.6950 C   0  0  0  0  0  3  0  0  0  0  0  0
  -26.0890  -26.8530   19.5450 C   0  0  0  0  0  3  0  0  0  0  0  0
  -24.8890  -27.5900   19.5780 C   0  0  0  0  0  3  0  0  0  0  0  0
  -23.6070  -29.7180   20.2200 C   0  0  0  0  0  2  0  0  0  0  0  0
  -24.6850  -31.0270   22.1140 N   0  0  0  0  0  0  0  0  0  0  0  0
  -23.5670  -32.1170   23.7620 O   0  0  0  0  0  0  0  0  0  0  0  0
  -22.7600  -29.4240   22.5670 C   0  0  0  0  0  0  0  0  0  0  0  0
  -21.4310  -29.2540   22.4570 N   0  0  0  0  0  0  0  0  0  0  0  0
  -23.4450  -28.7940   23.3760 O   0  0  0  0  0  0  0  0  0  0  0  0
  -20.9400  -29.8210   21.7800 H   0  0  0  0  0  0  0  0  0  0  0  0
  -18.0520  -28.0820   22.9690 C   0  0  0  0  0  0  0  0  0  0  0  0
  -20.6130  -28.3210   23.2320 C   0  0  0  0  0  3  0  0  0  0  0  0
  -20.7040  -26.8880   22.6580 C   0  0  0  0  0  2  0  0  0  0  0  0
  -19.5960  -26.5700   21.6500 C   0  0  0  0  0  2  0  0  0  0  0  0
  -18.2170  -26.7270   22.2990 C   0  0  0  0  0  2  0  0  0  0  0  0
  -19.1780  -28.8350   23.3910 C   0  0  0  0  0  0  0  0  0  0  0  0
  -18.9730  -30.1060   23.9730 C   0  0  0  0  0  3  0  0  0  0  0  0
  -17.6740  -30.6190   24.1410 C   0  0  0  0  0  3  0  0  0  0  0  0
  -16.5620  -29.8570   23.7430 C   0  0  0  0  0  3  0  0  0  0  0  0
  -16.7500  -28.5920   23.1600 C   0  0  0  0  0  3  0  0  0  0  0  0
  -25.9370  -32.4610   23.8250 C   0  0  0  0  0  3  0  0  0  0  0  0
  -26.4780  -31.6710   25.0780 C   0  0  1  0  0  0  0  0  0  0  0  0
  -25.4050  -31.4160   26.1630 C   0  0  0  0  0  1  0  0  0  0  0  0
  -27.0520  -30.3010   24.6440 C   0  0  0  0  0  1  0  0  0  0  0  0
  -27.6410  -32.4560   25.7300 C   0  0  0  0  0  1  0  0  0  0  0  0
  -25.6330  -33.8540   24.1780 N   0  0  0  0  0  0  0  0  0  0  0  0
  -25.9470  -34.9170   23.4240 C   0  0  0  0  0  0  0  0  0  0  0  0
  -26.5910  -34.8280   22.3760 O   0  0  0  0  0  0  0  0  0  0  0  0
  -25.0600  -33.9970   24.9970 H   0  0  0  0  0  0  0  0  0  0  0  0
  -24.1940  -36.6970   23.1580 C   0  0  0  0  0  1  0  0  0  0  0  0
  -25.4680  -36.2970   23.9170 C   0  0  0  0  0  3  0  0  0  0  0  0
  -27.6280  -37.1830   24.6670 C   0  0  0  0  0  1  0  0  0  0  0  0
  -26.4880  -37.3580   23.7730 N   0  0  0  0  0  0  0  0  0  0  0  0
  -26.0840  -38.2740   23.9540 H   0  0  0  0  0  0  0  0  0  0  0  0
  1  3  1  0
  2  1  1  0
  2  4  1  0
  3  6  1  0
  4  7  1  0
  6  5  1  0
  6 11  1  0
  7  5  1  0
  7 54  1  0
  8 12  1  0
  9 11  1  0
  9 13  2  0
 10 12  2  0
 11  8  2  0
 12 14  1  0
 13 10  1  0
 15 16  1  0
 15 13  1  0
 16 17  1  0
 18 17  1  0
 19 24  1  0
 20 21  1  0
 20 19  1  0
 22 21  1  0
 22 29  1  0
 22 23  1  0
 24 18  1  0
 24 23  1  0
 25 18  2  0
 26 27  2  0
 27 46  1  0
 28 27  1  0
 28 31  1  0
 29 26  1  0
 29 30  1  0
 30 28  2  0
 31 32  1  0
 32 33  2  0
 34 37  1  0
 34 33  1  0
 35 34  2  0
 36 35  1  0
 36 31  2  0
 37 38  1  0
 38 39  1  0
 39 40  2  0
 41 40  1  0
 41 45  1  0
 42 41  2  0
 43 38  2  0
 43 42  1  0
 44 43  1  0
 46 47  1  0
 47 50  1  0
 47 49  1  0
 48 46  2  0
 51 52  1  0
 51 26  1  0
 53 51  1  0
 55 66  2  0
 56 54  1  0
 56 61  1  0
 57 65  1  0
 57 67  1  0
 58 64  1  0
 58 60  1  0
 59 65  1  0
 60 59  1  0
 61 60  2  0
 62 63  1  0
 62 56  2  0
 63 58  2  0
 64 57  1  0
 65 55  1  0
 67 69  2  0
 68 67  1  0
 70 68  1  0
 71 80  2  0
 71 76  1  0
 72 68  1  0
 72 76  1  0
 73 72  1  0
 74 75  1  0
 74 73  1  0
 75 71  1  0
 76 77  2  0
 77 78  1  0
 79 78  2  0
 80 79  1  0
 81 55  1  0
 81 86  1  0
 81 82  1  0
 82 85  1  1
 82 83  1  0
 84 82  1  0
 86 89  1  0
 87 91  1  0
 87 86  1  0
 88 87  2  0
 91 90  1  0
 93 91  1  0
 93 94  1  0
 93 92  1  0
M  ISO  4   7 101  17 100  18 100  54 101
M  END
>  <TORSDO>  (86) 
F 20

>  <SCORE>  (86) 
-13.625

>  <name>  (86) 
85

>  <ligand_id>  (86) 
85

>  <original_smiles>  (86) 
[H]c1c([H])c([H])c2c(c1[H])C([H])([H])C([H])([H])C([H])([H])C2([H])N([H])C(=O)C1([H])N(C(=O)C([H])(N([H])C(=O)C([H])(N([H])C([H])([H])[H])C([H])([H])[H])C(C([H])([H])[H])(C([H])([H])[H])C([H])([H])[H])C([H])([H])c2c([H])c(OC3([H])C([H])([H])C([H])([H])C([H])([H])C([H])([H])C([H])(c4c([H])c(C([H])([H])[H])c([H])c(C([H])([H])C([H])([H])C([H])([H])C(=O)N5C([H])([H])C([H])([H])C([H])([H])C([H])(n6nc(-c7c([H])c([H])c(Oc8c([H])c([H])c(F)c([H])c8F)c([H])c7[H])c(C(=O)N([H])[H])c6N([H])[H])C5([H])[H])c4[H])C3([H])[H])c([H])c([H])c2C1([H])[H]

>  <smiles>  (86) 
[H]c1c([H])c([H])c2c(c1[H])C([H])([H])C([H])([H])C([H])([H])C2([H])N([H])C(=O)C1([H])N(C(=O)C([H])(N([H])C(=O)C([H])(N([H])C([H])([H])[H])C([H])([H])[H])C(C([H])([H])[H])(C([H])([H])[H])C([H])([H])[H])C([H])([H])c2c([H])c(OC3([H])C([H])([H])C([H])([H])C([H])([H])C([H])([H])C([H])(c4c([H])c(C([H])([H])[H])c([H])c(C([H])([H])C([H])([H])C([H])([H])C(=O)N5C([H])([H])C([H])([H])C([H])([H])C([H])(n6nc(-c7c([H])c([H])c(Oc8c([H])c([H])c(F)c([H])c8F)c([H])c7[H])c(C(=O)N([H])[H])c6N([H])[H])C5([H])[H])c4[H])C3([H])[H])c([H])c([H])c2C1([H])[H]

$$$$
86:0:0
     RDKit          3D

 91 99  0  0  1  0  0  0  0  0999 V2000
  -27.7340  -22.9170   17.1710 C   0  0  0  0  0  3  0  0  0  0  0  0
  -28.0400  -22.3350   18.3990 C   0  0  0  0  0  3  0  0  0  0  0  0
  -27.9040  -24.2820   17.0100 C   0  0  0  0  0  3  0  0  0  0  0  0
  -28.4710  -23.0300   19.5640 C   0  0  0  0  0  0  0  0  0  0  0  0
  -28.2910  -24.6280   19.4630 C   0  0  0  0  0  0  0  0  0  0  0  0
  -28.1980  -25.0880   18.1090 C   0  0  0  0  0  0  0  0  0  0  0  0
  -28.3850  -26.4000   17.8220 F   0  0  0  0  0  0  0  0  0  0  0  0
  -28.7580  -21.9940   22.0040 C   0  0  0  0  0  1  0  0  0  0  0  0
  -29.1180  -21.7310   20.5370 C   0  0  0  0  0  3  0  0  0  0  0  0
  -28.9790  -20.0750   20.2320 N   0  0  0  0  0  4  0  0  0  0  0  0
  -28.0510  -19.8490   20.5500 H   0  0  0  0  0  0  0  0  0  0  0  0
  -28.9360  -20.0250   19.2280 H   0  0  0  0  0  0  0  0  0  0  0  0
  -29.9020  -18.7300   20.6260 C   0  0  0  0  0  3  0  0  0  0  0  0
  -29.5230  -16.9600   20.4820 C   0  0  0  0  0  3  0  0  0  0  0  0
  -30.4290  -15.4430   20.4310 C   0  0  0  0  0  0  0  0  0  0  0  0
  -30.4960  -12.9900   19.5560 C   0  0  0  0  0  2  0  0  0  0  0  0
  -29.6080  -12.7990   18.2970 C   0  0  0  0  0  2  0  0  0  0  0  0
  -28.1470  -12.5100   18.6870 C   0  0  0  0  0  2  0  0  0  0  0  0
  -27.6560  -13.4490   19.8140 C   0  0  0  0  0  3  0  0  0  0  0  0
  -28.6720  -13.5860   20.9670 C   0  0  0  0  0  2  0  0  0  0  0  0
  -29.9240  -14.1080   20.3930 N   0  0  0  0  0  0  0  0  0  0  0  0
  -31.6550  -15.4700   20.2390 O   0  0  0  0  0  0  0  0  0  0  0  0
  -25.2550  -13.9690   20.4960 C   0  0  0  0  0  0  0  0  0  0  0  0
  -24.1960  -13.1760   20.8400 C   0  0  0  0  0  0  0  0  0  0  0  0
  -24.6860  -11.8350   20.8320 C   0  0  0  0  0  0  0  0  0  0  0  0
  -26.3190  -13.1110   20.2870 N   0  0  0  0  0  0  0  0  0  0  0  0
  -25.9880  -11.8220   20.5600 N   0  0  0  0  0  0  0  0  0  0  0  0
  -23.9750  -10.5610   21.0110 C   0  0  0  0  0  0  0  0  0  0  0  0
  -24.3810   -9.6160   21.9780 C   0  0  0  0  0  3  0  0  0  0  0  0
  -23.6690   -8.4080   22.1440 C   0  0  0  0  0  3  0  0  0  0  0  0
  -22.5350   -8.1380   21.3430 C   0  0  0  0  0  0  0  0  0  0  0  0
  -22.1460   -9.0720   20.3670 C   0  0  0  0  0  3  0  0  0  0  0  0
  -22.8590  -10.2700   20.1990 C   0  0  0  0  0  3  0  0  0  0  0  0
  -21.7960   -6.9810   21.4180 O   0  0  0  0  0  0  0  0  0  0  0  0
  -21.6900   -6.2680   22.5850 C   0  0  0  0  0  0  0  0  0  0  0  0
  -21.1620   -6.8400   23.7630 C   0  0  0  0  0  3  0  0  0  0  0  0
  -21.0070   -6.0510   24.9190 C   0  0  0  0  0  3  0  0  0  0  0  0
  -21.3680   -4.6900   24.8990 C   0  0  0  0  0  0  0  0  0  0  0  0
  -21.8890   -4.1180   23.7250 C   0  0  0  0  0  3  0  0  0  0  0  0
  -22.0460   -4.9030   22.5700 C   0  0  0  0  0  0  0  0  0  0  0  0
  -22.5290   -4.3420   21.4350 F   0  0  0  0  0  0  0  0  0  0  0  0
  -21.2120   -3.9290   26.0080 F   0  0  0  0  0  0  0  0  0  0  0  0
  -22.7820  -13.6320   21.0580 C   0  0  0  0  0  0  0  0  0  0  0  0
  -22.0360  -12.9280   21.9020 N   0  0  0  0  0  0  0  0  0  0  0  0
  -22.3480  -14.6470   20.5170 O   0  0  0  0  0  0  0  0  0  0  0  0
  -22.4010  -12.1070   22.3620 H   0  0  0  0  0  0  0  0  0  0  0  0
  -21.0850  -13.2150   22.0910 H   0  0  0  0  0  0  0  0  0  0  0  0
  -25.3990  -15.3410   20.3160 N   0  0  0  0  0  0  0  0  0  0  0  0
  -24.6190  -15.9830   20.4040 H   0  0  0  0  0  0  0  0  0  0  0  0
  -26.2510  -15.7930   20.0060 H   0  0  0  0  0  0  0  0  0  0  0  0
  -28.2650  -25.9370   20.2610 O   0  0  0  0  0  0  0  0  0  0  0  0
  -24.6760  -31.9460   23.2040 C   0  0  0  0  0  0  0  0  0  0  0  0
  -27.2640  -27.0630   20.1890 C   0  0  0  0  0  0  0  0  0  0  0  0
  -23.4860  -30.5300   21.5830 C   0  0  0  0  0  3  0  0  0  0  0  0
  -24.9410  -28.9330   20.1620 C   0  0  0  0  0  0  0  0  0  0  0  0
  -26.0520  -30.7600   21.4200 C   0  0  0  0  0  2  0  0  0  0  0  0
  -26.1320  -29.3460   20.7700 C   0  0  0  0  0  0  0  0  0  0  0  0
  -27.2850  -28.4320   20.7650 C   0  0  0  0  0  3  0  0  0  0  0  0
  -26.0220  -26.8030   19.5570 C   0  0  0  0  0  3  0  0  0  0  0  0
  -24.9100  -27.6800   19.5360 C   0  0  0  0  0  3  0  0  0  0  0  0
  -23.7150  -29.8430   20.2090 C   0  0  0  0  0  2  0  0  0  0  0  0
  -24.7600  -31.1050   22.1220 N   0  0  0  0  0  0  0  0  0  0  0  0
  -23.5860  -32.2290   23.7290 O   0  0  0  0  0  0  0  0  0  0  0  0
  -22.8060  -29.5330   22.5580 C   0  0  0  0  0  0  0  0  0  0  0  0
  -21.4820  -29.3330   22.4240 N   0  0  0  0  0  0  0  0  0  0  0  0
  -23.4780  -28.9390   23.4060 O   0  0  0  0  0  0  0  0  0  0  0  0
  -20.9890  -29.8630   21.7190 H   0  0  0  0  0  0  0  0  0  0  0  0
  -18.1330  -28.0170   22.8980 C   0  0  0  0  0  0  0  0  0  0  0  0
  -20.6750  -28.3880   23.2060 C   0  0  0  0  0  3  0  0  0  0  0  0
  -20.8410  -26.9440   22.6780 C   0  0  0  0  0  2  0  0  0  0  0  0
  -19.7750  -26.5500   21.6520 C   0  0  0  0  0  2  0  0  0  0  0  0
  -18.3750  -26.6580   22.2630 C   0  0  0  0  0  2  0  0  0  0  0  0
  -19.2120  -28.8360   23.3280 C   0  0  0  0  0  0  0  0  0  0  0  0
  -18.9290  -30.1010   23.8850 C   0  0  0  0  0  3  0  0  0  0  0  0
  -17.6020  -30.5520   24.0150 C   0  0  0  0  0  3  0  0  0  0  0  0
  -16.5370  -29.7320   23.6000 C   0  0  0  0  0  3  0  0  0  0  0  0
  -16.8040  -28.4670   23.0490 C   0  0  0  0  0  3  0  0  0  0  0  0
  -25.9440  -32.6080   23.8230 C   0  0  0  0  0  3  0  0  0  0  0  0
  -26.4590  -31.8610   25.1160 C   0  0  1  0  0  0  0  0  0  0  0  0
  -25.3640  -31.6350   26.1850 C   0  0  0  0  0  1  0  0  0  0  0  0
  -27.0540  -30.4800   24.7590 C   0  0  0  0  0  1  0  0  0  0  0  0
  -27.6020  -32.6750   25.7680 C   0  0  0  0  0  1  0  0  0  0  0  0
  -25.6140  -34.0070   24.1450 N   0  0  0  0  0  0  0  0  0  0  0  0
  -25.9510  -35.0670   23.3980 C   0  0  0  0  0  0  0  0  0  0  0  0
  -26.6330  -34.9690   22.3760 O   0  0  0  0  0  0  0  0  0  0  0  0
  -25.0080  -34.1560   24.9390 H   0  0  0  0  0  0  0  0  0  0  0  0
  -24.2360  -36.8710   23.0170 C   0  0  0  0  0  1  0  0  0  0  0  0
  -25.4550  -36.4560   23.8550 C   0  0  0  0  0  3  0  0  0  0  0  0
  -27.5670  -37.3350   24.7500 C   0  0  0  0  0  1  0  0  0  0  0  0
  -26.4920  -37.5080   23.7760 N   0  0  0  0  0  0  0  0  0  0  0  0
  -26.0830  -38.4280   23.9150 H   0  0  0  0  0  0  0  0  0  0  0  0
  1  2  1  0
  2  4  2  0
  3  1  2  0
  3  6  1  0
  4  9  1  0
  5  4  1  0
  5 51  1  0
  6  5  2  0
  7  6  1  0
  9  8  1  0
 10  9  1  0
 10 11  1  0
 10 13  1  0
 12 10  1  0
 14 13  2  0
 15 14  1  0
 16 21  1  0
 17 18  1  0
 17 16  1  0
 19 18  1  0
 19 26  1  0
 19 20  1  0
 21 15  1  0
 21 20  1  0
 22 15  2  0
 23 24  2  0
 24 43  1  0
 25 24  1  0
 25 28  1  0
 26 23  1  0
 26 27  1  0
 27 25  2  0
 28 29  1  0
 29 30  2  0
 31 34  1  0
 31 30  1  0
 32 31  2  0
 33 32  1  0
 33 28  2  0
 34 35  1  0
 35 36  1  0
 36 37  2  0
 38 37  1  0
 38 42  1  0
 39 38  2  0
 40 35  2  0
 40 39  1  0
 41 40  1  0
 43 44  1  0
 44 47  1  0
 44 46  1  0
 45 43  2  0
 48 49  1  0
 48 23  1  0
 50 48  1  0
 52 63  2  0
 53 51  1  0
 53 58  1  0
 54 62  1  0
 54 64  1  0
 55 61  1  0
 55 57  1  0
 56 62  1  0
 57 56  1  0
 58 57  2  0
 59 53  2  0
 60 59  1  0
 60 55  2  0
 61 54  1  0
 62 52  1  0
 64 66  2  0
 65 64  1  0
 67 65  1  0
 68 77  2  0
 68 73  1  0
 69 65  1  0
 69 73  1  0
 70 69  1  0
 71 72  1  0
 71 70  1  0
 72 68  1  0
 73 74  2  0
 74 75  1  0
 76 75  2  0
 77 76  1  0
 78 52  1  0
 78 83  1  0
 78 79  1  0
 79 82  1  1
 79 80  1  0
 81 79  1  0
 83 86  1  0
 84 88  1  0
 84 83  1  0
 85 84  2  0
 88 87  1  0
 90 88  1  0
 90 91  1  0
 90 89  1  0
M  ISO  4   5 101  14 100  15 100  51 101
M  END
>  <TORSDO>  (87) 
F 20

>  <SCORE>  (87) 
-15.431

>  <name>  (87) 
86

>  <ligand_id>  (87) 
86

>  <original_smiles>  (87) 
[H]c1c([H])c([H])c2c(c1[H])C([H])([H])C([H])([H])C([H])([H])C2([H])N([H])C(=O)C1([H])N(C(=O)C([H])(N([H])C(=O)C([H])(N([H])C([H])([H])[H])C([H])([H])[H])C(C([H])([H])[H])(C([H])([H])[H])C([H])([H])[H])C([H])([H])c2c([H])c(Oc3c(F)c([H])c([H])c([H])c3C([H])(C([H])([H])[H])[N+]([H])([H])C([H])([H])C([H])([H])C(=O)N3C([H])([H])C([H])([H])C([H])([H])C([H])(n4nc(-c5c([H])c([H])c(Oc6c([H])c([H])c(F)c([H])c6F)c([H])c5[H])c(C(=O)N([H])[H])c4N([H])[H])C3([H])[H])c([H])c([H])c2C1([H])[H]

>  <smiles>  (87) 
[H]c1c([H])c([H])c2c(c1[H])C([H])([H])C([H])([H])C([H])([H])C2([H])N([H])C(=O)C1([H])N(C(=O)C([H])(N([H])C(=O)C([H])(N([H])C([H])([H])[H])C([H])([H])[H])C(C([H])([H])[H])(C([H])([H])[H])C([H])([H])[H])C([H])([H])c2c([H])c(Oc3c(F)c([H])c([H])c([H])c3C([H])(C([H])([H])[H])[N+]([H])([H])C([H])([H])C([H])([H])C(=O)N3C([H])([H])C([H])([H])C([H])([H])C([H])(n4nc(-c5c([H])c([H])c(Oc6c([H])c([H])c(F)c([H])c6F)c([H])c5[H])c(C(=O)N([H])[H])c4N([H])[H])C3([H])[H])c([H])c([H])c2C1([H])[H]

$$$$
87:0:0
     RDKit          3D

 92101  0  0  1  0  0  0  0  0999 V2000
  -26.9830  -23.9110   19.8670 C   0  0  0  0  0  3  0  0  0  0  0  0
  -28.9660  -23.0530   20.8890 C   0  0  0  0  0  3  0  0  0  0  0  0
  -26.7390  -22.5900   19.3870 C   0  0  0  0  0  0  0  0  0  0  0  0
  -27.6130  -21.4710   19.6270 C   0  0  0  0  0  0  0  0  0  0  0  0
  -28.7770  -21.5650   20.4470 C   0  0  0  0  0  0  0  0  0  0  0  0
  -28.1120  -24.3280   20.6000 C   0  0  0  0  0  0  0  0  0  0  0  0
  -25.4680  -22.4220   18.6070 C   0  0  0  0  0  0  0  0  0  0  0  0
  -27.2520  -20.0970   19.0530 C   0  0  0  0  0  2  0  0  0  0  0  0
  -25.0170  -20.9990   18.3030 C   0  0  0  0  0  2  0  0  0  0  0  0
  -26.2080  -20.1220   17.9340 C   0  0  0  0  0  2  0  0  0  0  0  0
  -24.7630  -23.3580   18.2190 O   0  0  0  0  0  0  0  0  0  0  0  0
  -28.1890  -25.8460   20.9630 O   0  0  0  0  0  0  0  0  0  0  0  0
  -24.4510  -32.0470   23.3360 C   0  0  0  0  0  0  0  0  0  0  0  0
  -27.1900  -26.9690   20.7870 C   0  0  0  0  0  0  0  0  0  0  0  0
  -23.3500  -30.5200   21.7510 C   0  0  0  0  0  3  0  0  0  0  0  0
  -24.8830  -28.8470   20.4990 C   0  0  0  0  0  0  0  0  0  0  0  0
  -25.9190  -30.7460   21.7130 C   0  0  0  0  0  2  0  0  0  0  0  0
  -26.0330  -29.2910   21.1650 C   0  0  0  0  0  0  0  0  0  0  0  0
  -27.1740  -28.3670   21.2960 C   0  0  0  0  0  3  0  0  0  0  0  0
  -26.0400  -26.7230   19.9990 C   0  0  0  0  0  3  0  0  0  0  0  0
  -24.9170  -27.5830   19.8930 C   0  0  0  0  0  3  0  0  0  0  0  0
  -23.6510  -29.7510   20.4350 C   0  0  0  0  0  2  0  0  0  0  0  0
  -24.5920  -31.1380   22.3170 N   0  0  0  0  0  0  0  0  0  0  0  0
  -23.3360  -32.3550   23.7870 O   0  0  0  0  0  0  0  0  0  0  0  0
  -22.6270  -29.5820   22.7540 C   0  0  0  0  0  0  0  0  0  0  0  0
  -21.3150  -29.3520   22.5600 N   0  0  0  0  0  0  0  0  0  0  0  0
  -23.2570  -29.0600   23.6770 O   0  0  0  0  0  0  0  0  0  0  0  0
  -20.8590  -29.8230   21.7920 H   0  0  0  0  0  0  0  0  0  0  0  0
  -17.9560  -28.0350   22.9560 C   0  0  0  0  0  0  0  0  0  0  0  0
  -20.4780  -28.4490   23.3580 C   0  0  0  0  0  3  0  0  0  0  0  0
  -20.6790  -26.9770   22.9270 C   0  0  0  0  0  2  0  0  0  0  0  0
  -19.6650  -26.5120   21.8760 C   0  0  0  0  0  2  0  0  0  0  0  0
  -18.2380  -26.6430   22.4140 C   0  0  0  0  0  2  0  0  0  0  0  0
  -19.0080  -28.8880   23.3850 C   0  0  0  0  0  0  0  0  0  0  0  0
  -18.6920  -30.1820   23.8510 C   0  0  0  0  0  3  0  0  0  0  0  0
  -17.3560  -30.6260   23.8930 C   0  0  0  0  0  3  0  0  0  0  0  0
  -16.3180  -29.7730   23.4790 C   0  0  0  0  0  3  0  0  0  0  0  0
  -16.6190  -28.4800   23.0170 C   0  0  0  0  0  3  0  0  0  0  0  0
  -25.6840  -32.7550   23.9730 C   0  0  0  0  0  3  0  0  0  0  0  0
  -25.3190  -34.1620   24.2230 N   0  0  0  0  0  0  0  0  0  0  0  0
  -25.6190  -35.1900   23.4180 C   0  0  0  0  0  0  0  0  0  0  0  0
  -26.2940  -35.0570   22.3940 O   0  0  0  0  0  0  0  0  0  0  0  0
  -24.7180  -34.3360   25.0150 H   0  0  0  0  0  0  0  0  0  0  0  0
  -23.8180  -36.9030   23.0060 C   0  0  0  0  0  1  0  0  0  0  0  0
  -25.0920  -36.5860   23.8080 C   0  0  0  0  0  3  0  0  0  0  0  0
  -27.2110  -37.5970   24.5320 C   0  0  0  0  0  1  0  0  0  0  0  0
  -26.0820  -37.6680   23.6080 N   0  0  0  0  0  0  0  0  0  0  0  0
  -25.6440  -38.5800   23.7130 H   0  0  0  0  0  0  0  0  0  0  0  0
  -26.1640  -32.0750   25.3150 C   0  0  1  0  0  0  0  0  0  0  0  0
  -25.0230  -31.8250   26.3300 C   0  0  0  0  0  1  0  0  0  0  0  0
  -26.8430  -30.7160   25.0360 C   0  0  0  0  0  1  0  0  0  0  0  0
  -27.2280  -32.9630   26.0010 C   0  0  0  0  0  1  0  0  0  0  0  0
  -29.4810  -19.9990   20.9280 C   0  0  0  0  0  2  0  0  0  0  0  0
  -29.8180  -18.3580   20.1810 C   0  0  0  0  0  2  0  0  0  0  0  0
  -30.5900  -15.4540   20.4890 C   0  0  0  0  0  0  0  0  0  0  0  0
  -30.5720  -12.9910   19.6280 C   0  0  0  0  0  2  0  0  0  0  0  0
  -29.6750  -12.7900   18.3770 C   0  0  0  0  0  2  0  0  0  0  0  0
  -28.2200  -12.5190   18.7890 C   0  0  0  0  0  2  0  0  0  0  0  0
  -27.7560  -13.4790   19.9110 C   0  0  0  0  0  3  0  0  0  0  0  0
  -28.7830  -13.6250   21.0580 C   0  0  0  0  0  2  0  0  0  0  0  0
  -30.0290  -14.1360   20.4590 N   0  0  0  0  0  0  0  0  0  0  0  0
  -31.7890  -15.4490   20.1770 O   0  0  0  0  0  0  0  0  0  0  0  0
  -29.8380  -16.7350   20.6850 N   0  0  0  0  0  0  0  0  0  0  0  0
  -28.9330  -16.5000   21.0680 H   0  0  0  0  0  0  0  0  0  0  0  0
  -25.3870  -14.0510   20.6570 C   0  0  0  0  0  0  0  0  0  0  0  0
  -24.3090  -13.2820   20.9930 C   0  0  0  0  0  0  0  0  0  0  0  0
  -24.7530  -11.9240   20.9250 C   0  0  0  0  0  0  0  0  0  0  0  0
  -26.4170  -13.1670   20.3960 N   0  0  0  0  0  0  0  0  0  0  0  0
  -26.0480  -11.8780   20.6250 N   0  0  0  0  0  0  0  0  0  0  0  0
  -24.0020  -10.6700   21.0700 C   0  0  0  0  0  0  0  0  0  0  0  0
  -24.3620   -9.6970   22.0270 C   0  0  0  0  0  3  0  0  0  0  0  0
  -23.6090   -8.5110   22.1620 C   0  0  0  0  0  3  0  0  0  0  0  0
  -22.4810   -8.2880   21.3360 C   0  0  0  0  0  0  0  0  0  0  0  0
  -22.1400   -9.2500   20.3680 C   0  0  0  0  0  3  0  0  0  0  0  0
  -22.8940  -10.4270   20.2320 C   0  0  0  0  0  3  0  0  0  0  0  0
  -21.7060   -7.1540   21.3780 O   0  0  0  0  0  0  0  0  0  0  0  0
  -21.5240   -6.4490   22.5410 C   0  0  0  0  0  0  0  0  0  0  0  0
  -20.9680   -7.0450   23.6930 C   0  0  0  0  0  3  0  0  0  0  0  0
  -20.7330   -6.2660   24.8440 C   0  0  0  0  0  3  0  0  0  0  0  0
  -21.0440   -4.8940   24.8420 C   0  0  0  0  0  0  0  0  0  0  0  0
  -21.5930   -4.2980   23.6930 C   0  0  0  0  0  3  0  0  0  0  0  0
  -21.8290   -5.0730   22.5450 C   0  0  0  0  0  0  0  0  0  0  0  0
  -22.3380   -4.4890   21.4340 F   0  0  0  0  0  0  0  0  0  0  0  0
  -20.8130   -4.1440   25.9450 F   0  0  0  0  0  0  0  0  0  0  0  0
  -22.9180  -13.7760   21.2600 C   0  0  0  0  0  0  0  0  0  0  0  0
  -22.1770  -13.0860   22.1200 N   0  0  0  0  0  0  0  0  0  0  0  0
  -22.4980  -14.8100   20.7420 O   0  0  0  0  0  0  0  0  0  0  0  0
  -22.5310  -12.2500   22.5600 H   0  0  0  0  0  0  0  0  0  0  0  0
  -21.2440  -13.4000   22.3420 H   0  0  0  0  0  0  0  0  0  0  0  0
  -25.5730  -15.4240   20.5200 N   0  0  0  0  0  0  0  0  0  0  0  0
  -24.8090  -16.0810   20.6330 H   0  0  0  0  0  0  0  0  0  0  0  0
  -26.4180  -15.8550   20.1700 H   0  0  0  0  0  0  0  0  0  0  0  0
  1  6  1  0
  3  4  1  0
  3  1  2  0
  4  5  2  0
  5  2  1  0
  5 53  1  0
  6  2  2  0
  6 12  1  0
  7  3  1  0
  8  4  1  0
  9  7  1  0
 10  9  1  0
 10  8  1  0
 11  7  2  0
 13 24  2  0
 14 12  1  0
 14 19  1  0
 15 23  1  0
 15 25  1  0
 16 18  1  0
 17 23  1  0
 18 19  2  0
 18 17  1  0
 20 14  2  0
 21 20  1  0
 21 16  2  0
 22 16  1  0
 22 15  1  0
 23 13  1  0
 25 27  2  0
 26 25  1  0
 28 26  1  0
 29 38  2  0
 29 34  1  0
 30 26  1  0
 30 34  1  0
 31 30  1  0
 32 33  1  0
 32 31  1  0
 33 29  1  0
 34 35  2  0
 35 36  1  0
 37 36  2  0
 38 37  1  0
 39 13  1  0
 39 40  1  0
 39 49  1  0
 40 43  1  0
 41 45  1  0
 41 40  1  0
 42 41  2  0
 45 44  1  0
 47 48  1  0
 47 45  1  0
 47 46  1  0
 49 52  1  1
 49 50  1  0
 51 49  1  0
 54 63  1  0
 54 53  1  0
 55 63  1  0
 56 61  1  0
 57 58  1  0
 57 56  1  0
 59 58  1  0
 59 68  1  0
 59 60  1  0
 61 55  1  0
 61 60  1  0
 62 55  2  0
 63 64  1  0
 65 66  2  0
 66 85  1  0
 67 66  1  0
 67 70  1  0
 68 69  1  0
 68 65  1  0
 69 67  2  0
 70 71  1  0
 71 72  2  0
 73 76  1  0
 73 72  1  0
 74 73  2  0
 75 74  1  0
 75 70  2  0
 76 77  1  0
 77 82  2  0
 77 78  1  0
 78 79  2  0
 80 79  1  0
 80 84  1  0
 81 80  2  0
 82 81  1  0
 83 82  1  0
 85 86  1  0
 86 89  1  0
 86 88  1  0
 87 85  2  0
 90 91  1  0
 90 65  1  0
 92 90  1  0
M  ISO  4   6 101  12 101  55 100  63 100
M  END
>  <TORSDO>  (88) 
F 18

>  <SCORE>  (88) 
-14.831

>  <name>  (88) 
87

>  <ligand_id>  (88) 
87

>  <original_smiles>  (88) 
[H]c1c([H])c([H])c2c(c1[H])C([H])([H])C([H])([H])C([H])([H])C2([H])N([H])C(=O)C1([H])N(C(=O)C([H])(N([H])C(=O)C([H])(N([H])C([H])([H])[H])C([H])([H])[H])C(C([H])([H])[H])(C([H])([H])[H])C([H])([H])[H])C([H])([H])c2c([H])c(Oc3c([H])c4c(c(C([H])([H])C([H])([H])N([H])C(=O)N5C([H])([H])C([H])([H])C([H])([H])C([H])(n6nc(-c7c([H])c([H])c(Oc8c([H])c([H])c(F)c([H])c8F)c([H])c7[H])c(C(=O)N([H])[H])c6N([H])[H])C5([H])[H])c3[H])C([H])([H])C([H])([H])C([H])([H])C4=O)c([H])c([H])c2C1([H])[H]

>  <smiles>  (88) 
[H]c1c([H])c([H])c2c(c1[H])C([H])([H])C([H])([H])C([H])([H])C2([H])N([H])C(=O)C1([H])N(C(=O)C([H])(N([H])C(=O)C([H])(N([H])C([H])([H])[H])C([H])([H])[H])C(C([H])([H])[H])(C([H])([H])[H])C([H])([H])[H])C([H])([H])c2c([H])c(Oc3c([H])c4c(c(C([H])([H])C([H])([H])N([H])C(=O)N5C([H])([H])C([H])([H])C([H])([H])C([H])(n6nc(-c7c([H])c([H])c(Oc8c([H])c([H])c(F)c([H])c8F)c([H])c7[H])c(C(=O)N([H])[H])c6N([H])[H])C5([H])[H])c3[H])C([H])([H])C([H])([H])C([H])([H])C4=O)c([H])c([H])c2C1([H])[H]

$$$$
88:0:0
     RDKit          3D

 88 96  0  0  1  0  0  0  0  0999 V2000
  -29.4230  -19.8930   20.5590 C   0  0  0  0  0  0  0  0  0  0  0  0
  -29.1680  -21.2530   20.0090 N   0  0  0  0  0  0  0  0  0  0  0  0
  -29.3020  -19.7920   21.7800 O   0  0  0  0  0  0  0  0  0  0  0  0
  -29.2470  -21.2500   19.0000 H   0  0  0  0  0  0  0  0  0  0  0  0
  -30.4150  -15.4330   20.1630 C   0  0  0  0  0  0  0  0  0  0  0  0
  -30.3810  -12.9570   19.3350 C   0  0  0  0  0  2  0  0  0  0  0  0
  -29.4540  -12.6850   18.1220 C   0  0  0  0  0  2  0  0  0  0  0  0
  -28.0180  -12.3790   18.5850 C   0  0  0  0  0  2  0  0  0  0  0  0
  -27.5460  -13.3600   19.6800 C   0  0  0  0  0  3  0  0  0  0  0  0
  -28.6090  -13.6080   20.7810 C   0  0  0  0  0  2  0  0  0  0  0  0
  -29.8280  -14.1220   20.1190 N   0  0  0  0  0  0  0  0  0  0  0  0
  -31.6520  -15.3850   20.0740 O   0  0  0  0  0  0  0  0  0  0  0  0
  -28.0350  -17.8380   18.5500 C   0  0  0  0  0  2  0  0  0  0  0  0
  -29.3650  -18.5320   18.3570 C   0  0  0  0  0  2  0  0  0  0  0  0
  -28.4540  -16.5410   19.2380 C   0  0  0  0  0  2  0  0  0  0  0  0
  -29.9170  -18.3960   19.7730 C   0  0  0  0  0  3  0  0  0  0  0  0
  -29.6720  -16.7420   20.0380 N   0  0  0  0  0  0  0  0  0  0  0  0
  -25.1840  -13.9500   20.4480 C   0  0  0  0  0  0  0  0  0  0  0  0
  -24.1200  -13.1830   20.8220 C   0  0  0  0  0  0  0  0  0  0  0  0
  -24.5860  -11.8320   20.8000 C   0  0  0  0  0  0  0  0  0  0  0  0
  -26.2250  -13.0670   20.2100 N   0  0  0  0  0  0  0  0  0  0  0  0
  -25.8760  -11.7870   20.4900 N   0  0  0  0  0  0  0  0  0  0  0  0
  -23.8570  -10.5760   20.9930 C   0  0  0  0  0  0  0  0  0  0  0  0
  -24.2810   -9.6170   21.9370 C   0  0  0  0  0  3  0  0  0  0  0  0
  -23.5510   -8.4240   22.1190 C   0  0  0  0  0  3  0  0  0  0  0  0
  -22.3830   -8.1850   21.3580 C   0  0  0  0  0  0  0  0  0  0  0  0
  -21.9780   -9.1340   20.4020 C   0  0  0  0  0  3  0  0  0  0  0  0
  -22.7090  -10.3180   20.2180 C   0  0  0  0  0  3  0  0  0  0  0  0
  -21.6240   -7.0450   21.4510 O   0  0  0  0  0  0  0  0  0  0  0  0
  -21.5610   -6.3170   22.6110 C   0  0  0  0  0  0  0  0  0  0  0  0
  -21.1110   -6.8840   23.8230 C   0  0  0  0  0  3  0  0  0  0  0  0
  -20.9960   -6.0810   24.9760 C   0  0  0  0  0  3  0  0  0  0  0  0
  -21.3220   -4.7130   24.9170 C   0  0  0  0  0  0  0  0  0  0  0  0
  -21.7660   -4.1450   23.7100 C   0  0  0  0  0  3  0  0  0  0  0  0
  -21.8830   -4.9460   22.5600 C   0  0  0  0  0  0  0  0  0  0  0  0
  -22.2910   -4.3900   21.3930 F   0  0  0  0  0  0  0  0  0  0  0  0
  -21.2030   -3.9400   26.0220 F   0  0  0  0  0  0  0  0  0  0  0  0
  -22.7250  -13.6690   21.0800 C   0  0  0  0  0  0  0  0  0  0  0  0
  -21.9880  -12.9840   21.9460 N   0  0  0  0  0  0  0  0  0  0  0  0
  -22.2970  -14.6950   20.5510 O   0  0  0  0  0  0  0  0  0  0  0  0
  -22.3470  -12.1560   22.3990 H   0  0  0  0  0  0  0  0  0  0  0  0
  -21.0520  -13.2930   22.1640 H   0  0  0  0  0  0  0  0  0  0  0  0
  -25.3270  -15.3200   20.2600 N   0  0  0  0  0  0  0  0  0  0  0  0
  -24.5480  -15.9590   20.3720 H   0  0  0  0  0  0  0  0  0  0  0  0
  -26.1610  -15.7720   19.9150 H   0  0  0  0  0  0  0  0  0  0  0  0
  -28.9490  -22.8160   20.5850 C   0  0  0  0  0  3  0  0  0  0  0  0
  -28.1640  -24.3180   19.9460 C   0  0  0  0  0  3  0  0  0  0  0  0
  -28.2370  -25.9320   20.3130 O   0  0  0  0  0  0  0  0  0  0  0  0
  -24.6210  -31.8740   23.2320 C   0  0  0  0  0  0  0  0  0  0  0  0
  -27.2060  -27.0090   20.2120 C   0  0  0  0  0  0  0  0  0  0  0  0
  -23.4310  -30.4730   21.5930 C   0  0  0  0  0  3  0  0  0  0  0  0
  -24.8870  -28.8720   20.1670 C   0  0  0  0  0  0  0  0  0  0  0  0
  -25.9950  -30.6950   21.4450 C   0  0  0  0  0  2  0  0  0  0  0  0
  -26.0720  -29.2850   20.7890 C   0  0  0  0  0  0  0  0  0  0  0  0
  -27.2210  -28.3740   20.7880 C   0  0  0  0  0  3  0  0  0  0  0  0
  -25.9910  -26.7480   19.5370 C   0  0  0  0  0  3  0  0  0  0  0  0
  -24.8720  -27.6250   19.5210 C   0  0  0  0  0  3  0  0  0  0  0  0
  -23.6620  -29.7870   20.2180 C   0  0  0  0  0  2  0  0  0  0  0  0
  -24.7040  -31.0420   22.1440 N   0  0  0  0  0  0  0  0  0  0  0  0
  -23.5310  -32.1620   23.7540 O   0  0  0  0  0  0  0  0  0  0  0  0
  -22.7390  -29.4780   22.5610 C   0  0  0  0  0  0  0  0  0  0  0  0
  -21.4100  -29.3100   22.4360 N   0  0  0  0  0  0  0  0  0  0  0  0
  -23.4060  -28.8580   23.3930 O   0  0  0  0  0  0  0  0  0  0  0  0
  -20.9240  -29.8610   21.7420 H   0  0  0  0  0  0  0  0  0  0  0  0
  -18.0330  -28.0780   22.9370 C   0  0  0  0  0  0  0  0  0  0  0  0
  -20.5900  -28.3690   23.2090 C   0  0  0  0  0  3  0  0  0  0  0  0
  -20.7060  -26.9350   22.6420 C   0  0  0  0  0  2  0  0  0  0  0  0
  -19.6110  -26.5980   21.6250 C   0  0  0  0  0  2  0  0  0  0  0  0
  -18.2250  -26.7300   22.2630 C   0  0  0  0  0  2  0  0  0  0  0  0
  -19.1430  -28.8540   23.3660 C   0  0  0  0  0  0  0  0  0  0  0  0
  -18.9060  -30.1130   23.9610 C   0  0  0  0  0  3  0  0  0  0  0  0
  -17.5960  -30.5980   24.1260 C   0  0  0  0  0  3  0  0  0  0  0  0
  -16.5010  -29.8200   23.7100 C   0  0  0  0  0  3  0  0  0  0  0  0
  -16.7200  -28.5620   23.1220 C   0  0  0  0  0  3  0  0  0  0  0  0
  -25.8910  -32.5210   23.8640 C   0  0  0  0  0  3  0  0  0  0  0  0
  -25.5720  -33.9230   24.1920 N   0  0  0  0  0  0  0  0  0  0  0  0
  -25.9020  -34.9820   23.4410 C   0  0  0  0  0  0  0  0  0  0  0  0
  -26.5700  -34.8820   22.4090 O   0  0  0  0  0  0  0  0  0  0  0  0
  -24.9750  -34.0730   24.9920 H   0  0  0  0  0  0  0  0  0  0  0  0
  -24.1720  -36.7820   23.1060 C   0  0  0  0  0  1  0  0  0  0  0  0
  -25.4200  -36.3720   23.9060 C   0  0  0  0  0  3  0  0  0  0  0  0
  -27.5570  -37.2610   24.7260 C   0  0  0  0  0  1  0  0  0  0  0  0
  -26.4510  -37.4260   23.7870 N   0  0  0  0  0  0  0  0  0  0  0  0
  -26.0450  -38.3460   23.9330 H   0  0  0  0  0  0  0  0  0  0  0  0
  -26.3920  -31.7650   25.1570 C   0  0  1  0  0  0  0  0  0  0  0  0
  -25.2880  -31.5430   26.2180 C   0  0  0  0  0  1  0  0  0  0  0  0
  -26.9760  -30.3800   24.7950 C   0  0  0  0  0  1  0  0  0  0  0  0
  -27.5390  -32.5640   25.8200 C   0  0  0  0  0  1  0  0  0  0  0  0
  1  3  2  0
  2  1  1  0
  2 46  1  0
  4  2  1  0
  6 11  1  0
  7  8  1  0
  7  6  1  0
  9  8  1  0
  9 21  1  0
  9 10  1  0
 11  5  1  0
 11 10  1  0
 12  5  2  0
 13 15  1  0
 14 13  1  0
 14 16  1  0
 15 17  1  0
 16 17  1  0
 16  1  1  0
 17  5  1  0
 18 19  2  0
 19 38  1  0
 20 19  1  0
 20 23  1  0
 21 18  1  0
 21 22  1  0
 22 20  2  0
 23 24  1  0
 24 25  2  0
 26 29  1  0
 26 25  1  0
 27 26  2  0
 28 27  1  0
 28 23  2  0
 29 30  1  0
 30 31  1  0
 31 32  2  0
 33 32  1  0
 33 37  1  0
 34 33  2  0
 35 30  2  0
 35 34  1  0
 36 35  1  0
 38 39  1  0
 39 42  1  0
 39 41  1  0
 40 38  2  0
 43 44  1  0
 43 18  1  0
 45 43  1  0
 47 48  1  0
 47 46  2  0
 49 60  2  0
 50 48  1  0
 50 55  1  0
 51 59  1  0
 51 61  1  0
 52 58  1  0
 52 54  1  0
 53 59  1  0
 54 53  1  0
 55 54  2  0
 56 50  2  0
 57 56  1  0
 57 52  2  0
 58 51  1  0
 59 49  1  0
 61 63  2  0
 62 61  1  0
 64 62  1  0
 65 74  2  0
 65 70  1  0
 66 62  1  0
 66 70  1  0
 67 66  1  0
 68 69  1  0
 68 67  1  0
 69 65  1  0
 70 71  2  0
 71 72  1  0
 73 72  2  0
 74 73  1  0
 75 49  1  0
 75 76  1  0
 75 85  1  0
 76 79  1  0
 77 81  1  0
 77 76  1  0
 78 77  2  0
 81 80  1  0
 83 81  1  0
 83 84  1  0
 83 82  1  0
 85 88  1  1
 85 86  1  0
 87 85  1  0
M  ISO  4   5 100  17 100  47 101  48 101
M  END
>  <TORSDO>  (89) 
F 18

>  <SCORE>  (89) 
-16.300

>  <name>  (89) 
88

>  <ligand_id>  (89) 
88

>  <original_smiles>  (89) 
[H]c1c([H])c([H])c2c(c1[H])C([H])([H])C([H])([H])C([H])([H])C2([H])N([H])C(=O)C1([H])N(C(=O)C([H])(N([H])C(=O)C([H])(N([H])C([H])([H])[H])C([H])([H])[H])C(C([H])([H])[H])(C([H])([H])[H])C([H])([H])[H])C([H])([H])c2c([H])c(OC([H])([H])C([H])([H])N([H])C(=O)C3([H])N(C(=O)N4C([H])([H])C([H])([H])C([H])([H])C([H])(n5nc(-c6c([H])c([H])c(Oc7c([H])c([H])c(F)c([H])c7F)c([H])c6[H])c(C(=O)N([H])[H])c5N([H])[H])C4([H])[H])C([H])([H])C([H])([H])C3([H])[H])c([H])c([H])c2C1([H])[H]

>  <smiles>  (89) 
[H]c1c([H])c([H])c2c(c1[H])C([H])([H])C([H])([H])C([H])([H])C2([H])N([H])C(=O)C1([H])N(C(=O)C([H])(N([H])C(=O)C([H])(N([H])C([H])([H])[H])C([H])([H])[H])C(C([H])([H])[H])(C([H])([H])[H])C([H])([H])[H])C([H])([H])c2c([H])c(OC([H])([H])C([H])([H])N([H])C(=O)C3([H])N(C(=O)N4C([H])([H])C([H])([H])C([H])([H])C([H])(n5nc(-c6c([H])c([H])c(Oc7c([H])c([H])c(F)c([H])c7F)c([H])c6[H])c(C(=O)N([H])[H])c5N([H])[H])C4([H])[H])C([H])([H])C([H])([H])C3([H])[H])c([H])c([H])c2C1([H])[H]

$$$$
89:0:0
     RDKit          3D

 92102  0  0  1  0  0  0  0  0999 V2000
  -29.6070  -21.6270   19.0150 C   0  0  0  0  0  3  0  0  0  0  0  0
  -29.6330  -20.1830   19.4880 C   0  0  0  0  0  0  0  0  0  0  0  0
  -29.0570  -19.9640   20.7110 C   0  0  0  0  0  0  0  0  0  0  0  0
  -29.1900  -20.9490   21.6730 C   0  0  0  0  0  0  0  0  0  0  0  0
  -29.1540  -22.8080   19.8910 C   0  0  0  0  0  0  0  0  0  0  0  0
  -29.1540  -22.3560   21.2740 C   0  0  0  0  0  0  0  0  0  0  0  0
  -30.4260  -18.7150   19.1200 C   0  0  0  0  0  2  0  0  0  0  0  0
  -28.3690  -18.5840   20.9370 C   0  0  0  0  0  2  0  0  0  0  0  0
  -30.1470  -20.2390   22.6690 C   0  0  0  0  0  2  0  0  0  0  0  0
  -29.0000  -17.2520   20.4270 C   0  0  0  0  0  2  0  0  0  0  0  0
  -31.3120  -19.3320   22.0160 C   0  0  0  0  0  2  0  0  0  0  0  0
  -31.1530  -17.7960   21.5530 C   0  0  0  0  0  2  0  0  0  0  0  0
  -30.5000  -17.3070   20.1680 C   0  0  2  0  0  0  0  0  0  0  0  0
  -29.0470  -23.3950   22.3740 C   0  0  0  0  0  1  0  0  0  0  0  0
  -31.1390  -15.6590   19.8010 C   0  0  0  0  0  0  0  0  0  0  0  0
  -31.0010  -13.2030   18.8920 C   0  0  0  0  0  2  0  0  0  0  0  0
  -29.9990  -13.0290   17.7200 C   0  0  0  0  0  2  0  0  0  0  0  0
  -28.5790  -12.7700   18.2470 C   0  0  0  0  0  2  0  0  0  0  0  0
  -28.2210  -13.7250   19.4120 C   0  0  0  0  0  3  0  0  0  0  0  0
  -29.3440  -13.8310   20.4680 C   0  0  0  0  0  2  0  0  0  0  0  0
  -30.5460  -14.3470   19.7800 N   0  0  0  0  0  0  0  0  0  0  0  0
  -32.3230  -15.5820   19.4400 O   0  0  0  0  0  0  0  0  0  0  0  0
  -25.9250  -14.3280   20.3440 C   0  0  0  0  0  0  0  0  0  0  0  0
  -24.8630  -13.5770   20.7550 C   0  0  0  0  0  0  0  0  0  0  0  0
  -25.2730  -12.2140   20.6290 C   0  0  0  0  0  0  0  0  0  0  0  0
  -26.9190  -13.4310   19.9950 N   0  0  0  0  0  0  0  0  0  0  0  0
  -26.5400  -12.1470   20.2310 N   0  0  0  0  0  0  0  0  0  0  0  0
  -24.5040  -10.9750   20.8060 C   0  0  0  0  0  0  0  0  0  0  0  0
  -24.8900   -9.9920   21.7430 C   0  0  0  0  0  3  0  0  0  0  0  0
  -24.1210   -8.8210   21.9090 C   0  0  0  0  0  3  0  0  0  0  0  0
  -22.9510   -8.6250   21.1390 C   0  0  0  0  0  0  0  0  0  0  0  0
  -22.5840   -9.5950   20.1900 C   0  0  0  0  0  3  0  0  0  0  0  0
  -23.3530  -10.7580   20.0220 C   0  0  0  0  0  3  0  0  0  0  0  0
  -22.1570   -7.5060   21.2140 O   0  0  0  0  0  0  0  0  0  0  0  0
  -21.9570   -6.8440   22.3990 C   0  0  0  0  0  0  0  0  0  0  0  0
  -21.4170   -7.4900   23.5330 C   0  0  0  0  0  3  0  0  0  0  0  0
  -21.1670   -6.7550   24.7090 C   0  0  0  0  0  3  0  0  0  0  0  0
  -21.4440   -5.3750   24.7500 C   0  0  0  0  0  0  0  0  0  0  0  0
  -21.9740   -4.7290   23.6210 C   0  0  0  0  0  3  0  0  0  0  0  0
  -22.2270   -5.4620   22.4470 C   0  0  0  0  0  0  0  0  0  0  0  0
  -22.7200   -4.8290   21.3550 F   0  0  0  0  0  0  0  0  0  0  0  0
  -21.1940   -4.6680   25.8770 F   0  0  0  0  0  0  0  0  0  0  0  0
  -23.5110  -14.0970   21.1420 C   0  0  0  0  0  0  0  0  0  0  0  0
  -22.8220  -13.4010   22.0400 N   0  0  0  0  0  0  0  0  0  0  0  0
  -23.0800  -15.1570   20.6870 O   0  0  0  0  0  0  0  0  0  0  0  0
  -23.1870  -12.5430   22.4260 H   0  0  0  0  0  0  0  0  0  0  0  0
  -21.9180  -13.7300   22.3490 H   0  0  0  0  0  0  0  0  0  0  0  0
  -26.1140  -15.6970   20.2080 N   0  0  0  0  0  0  0  0  0  0  0  0
  -25.3700  -16.3630   20.3840 H   0  0  0  0  0  0  0  0  0  0  0  0
  -26.9360  -16.1170   19.7960 H   0  0  0  0  0  0  0  0  0  0  0  0
  -28.5300  -24.4080   19.4200 C   0  0  0  0  0  2  0  0  0  0  0  0
  -28.6050  -25.9900   19.9380 O   0  0  0  0  0  0  0  0  0  0  0  0
  -24.7580  -31.7280   23.0650 C   0  0  0  0  0  0  0  0  0  0  0  0
  -27.5670  -27.0800   19.8560 C   0  0  0  0  0  0  0  0  0  0  0  0
  -23.6420  -30.3350   21.3720 C   0  0  0  0  0  3  0  0  0  0  0  0
  -25.1760  -28.8670   19.8820 C   0  0  0  0  0  0  0  0  0  0  0  0
  -26.1960  -30.6750   21.2460 C   0  0  0  0  0  2  0  0  0  0  0  0
  -26.3400  -29.2960   20.5300 C   0  0  0  0  0  0  0  0  0  0  0  0
  -27.5220  -28.4210   20.5010 C   0  0  0  0  0  3  0  0  0  0  0  0
  -26.3690  -26.8280   19.1480 C   0  0  0  0  0  3  0  0  0  0  0  0
  -25.2170  -27.6580   19.1720 C   0  0  0  0  0  3  0  0  0  0  0  0
  -23.9080  -29.7200   19.9690 C   0  0  0  0  0  2  0  0  0  0  0  0
  -24.8850  -30.9400   21.9480 N   0  0  0  0  0  0  0  0  0  0  0  0
  -23.6550  -31.9400   23.5950 O   0  0  0  0  0  0  0  0  0  0  0  0
  -23.0000  -29.2690   22.2970 C   0  0  0  0  0  0  0  0  0  0  0  0
  -21.6810  -29.0350   22.1600 N   0  0  0  0  0  0  0  0  0  0  0  0
  -23.6960  -28.6520   23.1080 O   0  0  0  0  0  0  0  0  0  0  0  0
  -21.1680  -29.5840   21.4830 H   0  0  0  0  0  0  0  0  0  0  0  0
  -18.3770  -27.5950   22.5940 C   0  0  0  0  0  0  0  0  0  0  0  0
  -20.9120  -28.0220   22.8920 C   0  0  0  0  0  3  0  0  0  0  0  0
  -21.1110  -26.6160   22.2770 C   0  0  0  0  0  2  0  0  0  0  0  0
  -20.0420  -26.2540   21.2400 C   0  0  0  0  0  2  0  0  0  0  0  0
  -18.6480  -26.2860   21.8720 C   0  0  0  0  0  2  0  0  0  0  0  0
  -19.4390  -28.4180   23.0570 C   0  0  0  0  0  0  0  0  0  0  0  0
  -19.1280  -29.6390   23.6930 C   0  0  0  0  0  3  0  0  0  0  0  0
  -17.7910  -30.0420   23.8670 C   0  0  0  0  0  3  0  0  0  0  0  0
  -16.7450  -29.2190   23.4160 C   0  0  0  0  0  3  0  0  0  0  0  0
  -17.0390  -27.9970   22.7870 C   0  0  0  0  0  3  0  0  0  0  0  0
  -25.9920  -32.4140   23.7270 C   0  0  0  0  0  3  0  0  0  0  0  0
  -25.6050  -33.7890   24.0900 N   0  0  0  0  0  0  0  0  0  0  0  0
  -25.8770  -34.8820   23.3660 C   0  0  0  0  0  0  0  0  0  0  0  0
  -26.5400  -34.8440   22.3260 O   0  0  0  0  0  0  0  0  0  0  0  0
  -25.0060  -33.8890   24.8970 H   0  0  0  0  0  0  0  0  0  0  0  0
  -24.0440  -36.5920   23.1090 C   0  0  0  0  0  1  0  0  0  0  0  0
  -25.3300  -36.2340   23.8710 C   0  0  0  0  0  3  0  0  0  0  0  0
  -27.4340  -37.2250   24.6620 C   0  0  0  0  0  1  0  0  0  0  0  0
  -26.2990  -37.3460   23.7510 N   0  0  0  0  0  0  0  0  0  0  0  0
  -25.8460  -38.2390   23.9250 H   0  0  0  0  0  0  0  0  0  0  0  0
  -26.5210  -31.6440   25.0000 C   0  0  1  0  0  0  0  0  0  0  0  0
  -25.4220  -31.3450   26.0470 C   0  0  0  0  0  1  0  0  0  0  0  0
  -27.1660  -30.2960   24.6070 C   0  0  0  0  0  1  0  0  0  0  0  0
  -27.6270  -32.4750   25.6920 C   0  0  0  0  0  1  0  0  0  0  0  0
  1  2  2  0
  1  5  1  0
  2  3  1  0
  3  8  1  0
  3  4  2  0
  4  9  1  0
  5  6  2  0
  6  4  1  0
  6 14  1  0
  7  2  1  0
  7 13  1  0
 10  8  1  0
 11  9  1  0
 12 11  1  0
 13 15  1  6
 13 10  1  0
 13 12  1  0
 16 21  1  0
 17 18  1  0
 17 16  1  0
 19 18  1  0
 19 26  1  0
 19 20  1  0
 21 15  1  0
 21 20  1  0
 22 15  2  0
 23 24  2  0
 24 43  1  0
 25 24  1  0
 25 28  1  0
 26 27  1  0
 26 23  1  0
 27 25  2  0
 28 29  1  0
 29 30  2  0
 31 34  1  0
 31 30  1  0
 32 31  2  0
 33 32  1  0
 33 28  2  0
 34 35  1  0
 35 40  2  0
 35 36  1  0
 36 37  2  0
 37 38  1  0
 38 42  1  0
 39 38  2  0
 40 39  1  0
 41 40  1  0
 43 44  1  0
 44 47  1  0
 44 46  1  0
 45 43  2  0
 48 23  1  0
 48 49  1  0
 50 48  1  0
 51  5  1  0
 51 52  1  0
 53 64  2  0
 54 52  1  0
 54 59  1  0
 55 63  1  0
 55 65  1  0
 56 62  1  0
 56 58  1  0
 57 63  1  0
 58 57  1  0
 59 58  2  0
 60 61  1  0
 60 54  2  0
 61 56  2  0
 62 55  1  0
 63 53  1  0
 65 67  2  0
 66 65  1  0
 68 66  1  0
 69 78  2  0
 69 74  1  0
 70 66  1  0
 70 74  1  0
 71 70  1  0
 72 73  1  0
 72 71  1  0
 73 69  1  0
 74 75  2  0
 75 76  1  0
 77 76  2  0
 78 77  1  0
 79 53  1  0
 79 80  1  0
 79 89  1  0
 80 83  1  0
 81 85  1  0
 81 80  1  0
 82 81  2  0
 85 84  1  0
 87 85  1  0
 87 88  1  0
 87 86  1  0
 89 92  1  1
 89 90  1  0
 91 89  1  0
M  ISO  4  13 100  15 100  51 101  52 101
M  END
>  <TORSDO>  (90) 
F 17

>  <SCORE>  (90) 
-14.678

>  <name>  (90) 
89

>  <ligand_id>  (90) 
89

>  <original_smiles>  (90) 
[H]c1c([H])c([H])c2c(c1[H])C([H])([H])C([H])([H])C([H])([H])C2([H])N([H])C(=O)C1([H])N(C(=O)C([H])(N([H])C(=O)C([H])(N([H])C([H])([H])[H])C([H])([H])[H])C(C([H])([H])[H])(C([H])([H])[H])C([H])([H])[H])C([H])([H])c2c([H])c(OC([H])([H])c3c([H])c4c5c(c3C([H])([H])[H])C([H])([H])C([H])([H])C([H])([H])C(C(=O)N3C([H])([H])C([H])([H])C([H])([H])C([H])(n6nc(-c7c([H])c([H])c(Oc8c([H])c([H])c(F)c([H])c8F)c([H])c7[H])c(C(=O)N([H])[H])c6N([H])[H])C3([H])[H])(C4([H])[H])C([H])([H])C5([H])[H])c([H])c([H])c2C1([H])[H]

>  <smiles>  (90) 
[H]c1c([H])c([H])c2c(c1[H])C([H])([H])C([H])([H])C([H])([H])C2([H])N([H])C(=O)C1([H])N(C(=O)C([H])(N([H])C(=O)C([H])(N([H])C([H])([H])[H])C([H])([H])[H])C(C([H])([H])[H])(C([H])([H])[H])C([H])([H])[H])C([H])([H])c2c([H])c(OC([H])([H])c3c([H])c4c5c(c3C([H])([H])[H])C([H])([H])C([H])([H])C([H])([H])C(C(=O)N3C([H])([H])C([H])([H])C([H])([H])C([H])(n6nc(-c7c([H])c([H])c(Oc8c([H])c([H])c(F)c([H])c8F)c([H])c7[H])c(C(=O)N([H])[H])c6N([H])[H])C3([H])[H])(C4([H])[H])C([H])([H])C5([H])[H])c([H])c([H])c2C1([H])[H]

$$$$
90:0:0
     RDKit          3D

 91100  0  0  1  0  0  0  0  0999 V2000
  -28.8820  -22.2340   18.5960 C   0  0  0  0  0  3  0  0  0  0  0  0
  -28.4090  -23.4940   20.6270 C   0  0  0  0  0  3  0  0  0  0  0  0
  -28.8140  -23.4730   17.9210 C   0  0  0  0  0  0  0  0  0  0  0  0
  -28.5720  -24.7000   18.5500 C   0  0  0  0  0  0  0  0  0  0  0  0
  -28.6860  -22.1540   19.9900 C   0  0  0  0  0  0  0  0  0  0  0  0
  -28.3270  -24.8310   19.9350 C   0  0  0  0  0  0  0  0  0  0  0  0
  -29.0060  -23.6480   16.4340 C   0  0  0  0  0  2  0  0  0  0  0  0
  -28.6760  -25.8350   17.5580 C   0  0  0  0  0  2  0  0  0  0  0  0
  -28.6990  -25.1390   16.1820 C   0  0  0  0  0  2  0  0  0  0  0  0
  -28.2260  -26.2090   20.4670 O   0  0  0  0  0  0  0  0  0  0  0  0
  -24.5230  -31.9360   23.2600 C   0  0  0  0  0  0  0  0  0  0  0  0
  -27.1610  -27.1840   20.3240 C   0  0  0  0  0  0  0  0  0  0  0  0
  -23.3580  -30.5310   21.6010 C   0  0  0  0  0  3  0  0  0  0  0  0
  -24.8350  -28.9420   20.2160 C   0  0  0  0  0  0  0  0  0  0  0  0
  -25.9140  -30.7950   21.4840 C   0  0  0  0  0  2  0  0  0  0  0  0
  -26.0000  -29.3940   20.8460 C   0  0  0  0  0  0  0  0  0  0  0  0
  -27.1630  -28.5310   20.8820 C   0  0  0  0  0  3  0  0  0  0  0  0
  -25.9600  -26.8290   19.6750 C   0  0  0  0  0  3  0  0  0  0  0  0
  -24.8290  -27.6730   19.6150 C   0  0  0  0  0  3  0  0  0  0  0  0
  -23.6090  -29.8450   20.2300 C   0  0  0  0  0  2  0  0  0  0  0  0
  -24.6180  -31.1090   22.1720 N   0  0  0  0  0  0  0  0  0  0  0  0
  -23.4250  -32.2250   23.7620 O   0  0  0  0  0  0  0  0  0  0  0  0
  -22.6570  -29.5330   22.5560 C   0  0  0  0  0  0  0  0  0  0  0  0
  -21.3390  -29.3340   22.3780 N   0  0  0  0  0  0  0  0  0  0  0  0
  -23.3040  -28.9360   23.4200 O   0  0  0  0  0  0  0  0  0  0  0  0
  -20.8720  -29.8700   21.6590 H   0  0  0  0  0  0  0  0  0  0  0  0
  -17.9650  -28.0630   22.7460 C   0  0  0  0  0  0  0  0  0  0  0  0
  -20.5020  -28.3950   23.1310 C   0  0  0  0  0  3  0  0  0  0  0  0
  -20.6640  -26.9520   22.5960 C   0  0  0  0  0  2  0  0  0  0  0  0
  -19.6200  -26.5790   21.5380 C   0  0  0  0  0  2  0  0  0  0  0  0
  -18.2060  -26.7030   22.1130 C   0  0  0  0  0  2  0  0  0  0  0  0
  -19.0430  -28.8630   23.2120 C   0  0  0  0  0  0  0  0  0  0  0  0
  -18.7640  -30.1310   23.7640 C   0  0  0  0  0  3  0  0  0  0  0  0
  -17.4410  -30.6020   23.8580 C   0  0  0  0  0  3  0  0  0  0  0  0
  -16.3770  -29.7990   23.4110 C   0  0  0  0  0  3  0  0  0  0  0  0
  -16.6390  -28.5320   22.8610 C   0  0  0  0  0  3  0  0  0  0  0  0
  -25.7860  -32.5750   23.9120 C   0  0  0  0  0  3  0  0  0  0  0  0
  -26.2560  -31.8260   25.2200 C   0  0  1  0  0  0  0  0  0  0  0  0
  -25.1280  -31.6070   26.2550 C   0  0  0  0  0  1  0  0  0  0  0  0
  -26.8480  -30.4410   24.8720 C   0  0  0  0  0  1  0  0  0  0  0  0
  -27.3850  -32.6280   25.9080 C   0  0  0  0  0  1  0  0  0  0  0  0
  -25.4730  -33.9810   24.2160 N   0  0  0  0  0  0  0  0  0  0  0  0
  -25.8320  -35.0250   23.4560 C   0  0  0  0  0  0  0  0  0  0  0  0
  -26.5270  -34.9040   22.4440 O   0  0  0  0  0  0  0  0  0  0  0  0
  -24.8600  -34.1500   24.9980 H   0  0  0  0  0  0  0  0  0  0  0  0
  -24.1380  -36.8370   23.0290 C   0  0  0  0  0  1  0  0  0  0  0  0
  -25.3470  -36.4240   23.8840 C   0  0  0  0  0  3  0  0  0  0  0  0
  -27.4550  -37.3020   24.7890 C   0  0  0  0  0  1  0  0  0  0  0  0
  -26.3960  -37.4640   23.7960 N   0  0  0  0  0  0  0  0  0  0  0  0
  -25.9960  -38.3920   23.9060 H   0  0  0  0  0  0  0  0  0  0  0  0
  -28.5870  -20.6080   20.6170 C   0  0  0  0  0  2  0  0  0  0  0  0
  -29.6640  -19.2750   20.5820 C   0  0  0  0  0  2  0  0  0  0  0  0
  -29.5410  -17.7170   19.8820 C   0  0  0  0  0  2  0  0  0  0  0  0
  -30.4570  -15.0770   20.2150 C   0  0  0  0  0  0  0  0  0  0  0  0
  -30.3560  -12.7350   19.2310 C   0  0  0  0  0  2  0  0  0  0  0  0
  -29.3890  -12.7130   18.0230 C   0  0  0  0  0  2  0  0  0  0  0  0
  -27.9430  -12.4700   18.4850 C   0  0  0  0  0  2  0  0  0  0  0  0
  -27.5600  -13.3480   19.7060 C   0  0  0  0  0  3  0  0  0  0  0  0
  -28.6460  -13.3340   20.8040 C   0  0  0  0  0  2  0  0  0  0  0  0
  -29.8970  -13.7950   20.1850 N   0  0  0  0  0  0  0  0  0  0  0  0
  -31.6190  -15.1780   19.8080 O   0  0  0  0  0  0  0  0  0  0  0  0
  -29.6750  -16.2440   20.5070 N   0  0  0  0  0  0  0  0  0  0  0  0
  -28.8310  -15.9800   20.9920 H   0  0  0  0  0  0  0  0  0  0  0  0
  -25.1870  -13.8690   20.5060 C   0  0  0  0  0  0  0  0  0  0  0  0
  -24.1430  -13.0710   20.8810 C   0  0  0  0  0  0  0  0  0  0  0  0
  -24.6280  -11.7270   20.8090 C   0  0  0  0  0  0  0  0  0  0  0  0
  -26.2380  -13.0140   20.2240 N   0  0  0  0  0  0  0  0  0  0  0  0
  -25.9120  -11.7170   20.4700 N   0  0  0  0  0  0  0  0  0  0  0  0
  -23.9220  -10.4520   20.9870 C   0  0  0  0  0  0  0  0  0  0  0  0
  -24.3610   -9.4860   21.9190 C   0  0  0  0  0  3  0  0  0  0  0  0
  -23.6540   -8.2760   22.0830 C   0  0  0  0  0  3  0  0  0  0  0  0
  -22.4880   -8.0240   21.3200 C   0  0  0  0  0  0  0  0  0  0  0  0
  -22.0690   -8.9780   20.3760 C   0  0  0  0  0  3  0  0  0  0  0  0
  -22.7780  -10.1800   20.2090 C   0  0  0  0  0  3  0  0  0  0  0  0
  -21.7510   -6.8670   21.3940 O   0  0  0  0  0  0  0  0  0  0  0  0
  -21.6940   -6.1230   22.5450 C   0  0  0  0  0  0  0  0  0  0  0  0
  -21.1880   -6.6550   23.7520 C   0  0  0  0  0  3  0  0  0  0  0  0
  -21.0840   -5.8360   24.8930 C   0  0  0  0  0  3  0  0  0  0  0  0
  -21.4740   -4.4850   24.8280 C   0  0  0  0  0  0  0  0  0  0  0  0
  -21.9720   -3.9510   23.6260 C   0  0  0  0  0  3  0  0  0  0  0  0
  -22.0780   -4.7680   22.4870 C   0  0  0  0  0  0  0  0  0  0  0  0
  -22.5390   -4.2430   21.3270 F   0  0  0  0  0  0  0  0  0  0  0  0
  -21.3670   -3.6960   25.9240 F   0  0  0  0  0  0  0  0  0  0  0  0
  -22.7460  -13.5230   21.1880 C   0  0  0  0  0  0  0  0  0  0  0  0
  -22.0390  -12.7940   22.0420 N   0  0  0  0  0  0  0  0  0  0  0  0
  -22.2900  -14.5600   20.7070 O   0  0  0  0  0  0  0  0  0  0  0  0
  -22.4220  -11.9590   22.4600 H   0  0  0  0  0  0  0  0  0  0  0  0
  -21.1000  -13.0760   22.2850 H   0  0  0  0  0  0  0  0  0  0  0  0
  -25.3250  -15.2460   20.3540 N   0  0  0  0  0  0  0  0  0  0  0  0
  -24.5450  -15.8780   20.4880 H   0  0  0  0  0  0  0  0  0  0  0  0
  -26.1530  -15.7090   19.9990 H   0  0  0  0  0  0  0  0  0  0  0  0
  1  5  1  0
  3  4  1  0
  3  1  2  0
  4  6  2  0
  5 51  1  0
  5  2  2  0
  6 10  1  0
  6  2  1  0
  7  3  1  0
  8  4  1  0
  9  7  1  0
  9  8  1  0
 11 22  2  0
 12 10  1  0
 12 17  1  0
 13 21  1  0
 13 23  1  0
 14 20  1  0
 14 16  1  0
 15 21  1  0
 16 17  2  0
 16 15  1  0
 18 12  2  0
 19 18  1  0
 19 14  2  0
 20 13  1  0
 21 11  1  0
 23 25  2  0
 24 23  1  0
 26 24  1  0
 27 36  2  0
 27 32  1  0
 28 24  1  0
 28 32  1  0
 29 28  1  0
 30 31  1  0
 30 29  1  0
 31 27  1  0
 32 33  2  0
 33 34  1  0
 35 34  2  0
 36 35  1  0
 37 11  1  0
 37 42  1  0
 37 38  1  0
 38 41  1  1
 38 39  1  0
 40 38  1  0
 42 45  1  0
 43 47  1  0
 43 42  1  0
 44 43  2  0
 47 46  1  0
 49 47  1  0
 49 50  1  0
 49 48  1  0
 52 51  1  0
 53 62  1  0
 53 52  1  0
 54 62  1  0
 55 60  1  0
 56 57  1  0
 56 55  1  0
 58 57  1  0
 58 67  1  0
 58 59  1  0
 60 54  1  0
 60 59  1  0
 61 54  2  0
 62 63  1  0
 64 65  2  0
 65 84  1  0
 66 65  1  0
 66 69  1  0
 67 68  1  0
 67 64  1  0
 68 66  2  0
 69 70  1  0
 70 71  2  0
 72 75  1  0
 72 71  1  0
 73 72  2  0
 74 73  1  0
 74 69  2  0
 75 76  1  0
 76 77  1  0
 77 78  2  0
 79 78  1  0
 79 83  1  0
 80 79  2  0
 81 76  2  0
 81 80  1  0
 82 81  1  0
 84 85  1  0
 85 88  1  0
 85 87  1  0
 86 84  2  0
 89 90  1  0
 89 64  1  0
 91 89  1  0
M  ISO  4   6 101  10 101  54 100  62 100
M  END
>  <TORSDO>  (91) 
F 19

>  <SCORE>  (91) 
-15.260

>  <name>  (91) 
90

>  <ligand_id>  (91) 
90

>  <original_smiles>  (91) 
[H]c1c([H])c([H])c2c(c1[H])C([H])([H])C([H])([H])C([H])([H])C2([H])N([H])C(=O)C1([H])N(C(=O)C([H])(N([H])C(=O)C([H])(N([H])C([H])([H])[H])C([H])([H])[H])C(C([H])([H])[H])(C([H])([H])[H])C([H])([H])[H])C([H])([H])c2c([H])c(Oc3c([H])c(C([H])([H])C([H])([H])C([H])([H])N([H])C(=O)N4C([H])([H])C([H])([H])C([H])([H])C([H])(n5nc(-c6c([H])c([H])c(Oc7c([H])c([H])c(F)c([H])c7F)c([H])c6[H])c(C(=O)N([H])[H])c5N([H])[H])C4([H])[H])c([H])c4c3C([H])([H])C([H])([H])C4([H])[H])c([H])c([H])c2C1([H])[H]

>  <smiles>  (91) 
[H]c1c([H])c([H])c2c(c1[H])C([H])([H])C([H])([H])C([H])([H])C2([H])N([H])C(=O)C1([H])N(C(=O)C([H])(N([H])C(=O)C([H])(N([H])C([H])([H])[H])C([H])([H])[H])C(C([H])([H])[H])(C([H])([H])[H])C([H])([H])[H])C([H])([H])c2c([H])c(Oc3c([H])c(C([H])([H])C([H])([H])C([H])([H])N([H])C(=O)N4C([H])([H])C([H])([H])C([H])([H])C([H])(n5nc(-c6c([H])c([H])c(Oc7c([H])c([H])c(F)c([H])c7F)c([H])c6[H])c(C(=O)N([H])[H])c5N([H])[H])C4([H])[H])c([H])c4c3C([H])([H])C([H])([H])C4([H])[H])c([H])c([H])c2C1([H])[H]

$$$$
91:0:0
     RDKit          3D

 96105  0  0  1  0  0  0  0  0999 V2000
  -28.4730  -22.2710   18.5600 C   0  0  0  0  0  3  0  0  0  0  0  0
  -28.9480  -23.6240   20.5120 C   0  0  0  0  0  3  0  0  0  0  0  0
  -29.0730  -22.3040   19.8320 C   0  0  0  0  0  0  0  0  0  0  0  0
  -27.9730  -23.4300   17.9260 C   0  0  0  0  0  0  0  0  0  0  0  0
  -28.0070  -24.7100   18.5510 C   0  0  0  0  0  0  0  0  0  0  0  0
  -28.3680  -24.8640   19.9240 C   0  0  0  0  0  0  0  0  0  0  0  0
  -27.4630  -23.2820   16.5000 C   0  0  0  0  0  1  0  0  0  0  0  0
  -27.7290  -25.9340   17.6830 C   0  0  0  0  0  1  0  0  0  0  0  0
  -32.4960  -20.6210   20.9150 C   0  0  0  0  0  0  0  0  0  0  0  0
  -32.6200  -19.5970   19.7870 C   0  0  0  0  0  2  0  0  0  0  0  0
  -31.2140  -21.4520   21.0550 C   0  0  0  0  0  2  0  0  0  0  0  0
  -32.0060  -18.2000   20.0400 C   0  0  0  0  0  2  0  0  0  0  0  0
  -29.5790  -19.3730   20.3250 C   0  0  0  0  0  2  0  0  0  0  0  0
  -30.0320  -21.0050   20.1740 C   0  0  0  0  0  3  0  0  0  0  0  0
  -30.5650  -18.0030   20.6150 C   0  0  2  0  0  0  0  0  0  0  0  0
  -33.4430  -20.8170   21.6800 O   0  0  0  0  0  0  0  0  0  0  0  0
  -31.1330  -18.7900   23.1200 C   0  0  0  0  0  1  0  0  0  0  0  0
  -30.6110  -17.7260   22.1540 C   0  0  0  0  0  2  0  0  0  0  0  0
  -30.0900  -16.4530   20.1150 C   0  0  0  0  0  2  0  0  0  0  0  0
  -30.9150  -15.0100   20.2730 C   0  0  0  0  0  0  0  0  0  0  0  0
  -30.7820  -12.6260   19.4570 C   0  0  0  0  0  2  0  0  0  0  0  0
  -29.8750  -12.5920   18.2030 C   0  0  0  0  0  2  0  0  0  0  0  0
  -28.3980  -12.4160   18.6070 C   0  0  0  0  0  2  0  0  0  0  0  0
  -27.9820  -13.3710   19.7570 C   0  0  0  0  0  3  0  0  0  0  0  0
  -29.0200  -13.4030   20.8970 C   0  0  0  0  0  2  0  0  0  0  0  0
  -30.3190  -13.7520   20.3140 N   0  0  0  0  0  0  0  0  0  0  0  0
  -32.1340  -15.0230   20.0840 O   0  0  0  0  0  0  0  0  0  0  0  0
  -25.6090  -13.9880   20.4890 C   0  0  0  0  0  0  0  0  0  0  0  0
  -24.5260  -13.2310   20.8460 C   0  0  0  0  0  0  0  0  0  0  0  0
  -24.9660  -11.8710   20.8110 C   0  0  0  0  0  0  0  0  0  0  0  0
  -26.6360  -13.0920   20.2470 N   0  0  0  0  0  0  0  0  0  0  0  0
  -26.2590  -11.8150   20.5110 N   0  0  0  0  0  0  0  0  0  0  0  0
  -24.2150  -10.6220   20.9880 C   0  0  0  0  0  0  0  0  0  0  0  0
  -24.6010   -9.6540   21.9410 C   0  0  0  0  0  3  0  0  0  0  0  0
  -23.8480   -8.4710   22.1060 C   0  0  0  0  0  3  0  0  0  0  0  0
  -22.6940   -8.2480   21.3180 C   0  0  0  0  0  0  0  0  0  0  0  0
  -22.3280   -9.2050   20.3540 C   0  0  0  0  0  3  0  0  0  0  0  0
  -23.0810  -10.3790   20.1880 C   0  0  0  0  0  3  0  0  0  0  0  0
  -21.9170   -7.1180   21.3910 O   0  0  0  0  0  0  0  0  0  0  0  0
  -21.7780   -6.4120   22.5600 C   0  0  0  0  0  0  0  0  0  0  0  0
  -21.2400   -7.0010   23.7250 C   0  0  0  0  0  3  0  0  0  0  0  0
  -21.0520   -6.2220   24.8840 C   0  0  0  0  0  3  0  0  0  0  0  0
  -21.3880   -4.8560   24.8780 C   0  0  0  0  0  0  0  0  0  0  0  0
  -21.9160   -4.2670   23.7160 C   0  0  0  0  0  3  0  0  0  0  0  0
  -22.1080   -5.0420   22.5590 C   0  0  0  0  0  0  0  0  0  0  0  0
  -22.5970   -4.4650   21.4370 F   0  0  0  0  0  0  0  0  0  0  0  0
  -21.2000   -4.1050   25.9880 F   0  0  0  0  0  0  0  0  0  0  0  0
  -23.1370  -13.7330   21.1050 C   0  0  0  0  0  0  0  0  0  0  0  0
  -22.3940  -13.0630   21.9800 N   0  0  0  0  0  0  0  0  0  0  0  0
  -22.7160  -14.7550   20.5640 O   0  0  0  0  0  0  0  0  0  0  0  0
  -22.7470  -12.2380   22.4410 H   0  0  0  0  0  0  0  0  0  0  0  0
  -21.4590  -13.3830   22.1910 H   0  0  0  0  0  0  0  0  0  0  0  0
  -25.7960  -15.3570   20.3220 N   0  0  0  0  0  0  0  0  0  0  0  0
  -25.0420  -16.0200   20.4440 H   0  0  0  0  0  0  0  0  0  0  0  0
  -26.6560  -15.7910   20.0120 H   0  0  0  0  0  0  0  0  0  0  0  0
  -28.3140  -26.2100   20.5200 O   0  0  0  0  0  0  0  0  0  0  0  0
  -24.6770  -31.9650   23.3560 C   0  0  0  0  0  0  0  0  0  0  0  0
  -27.2310  -27.1670   20.4560 C   0  0  0  0  0  0  0  0  0  0  0  0
  -23.4740  -30.5550   21.7320 C   0  0  0  0  0  3  0  0  0  0  0  0
  -24.9150  -28.9300   20.3670 C   0  0  0  0  0  0  0  0  0  0  0  0
  -26.0330  -30.7880   21.5860 C   0  0  0  0  0  2  0  0  0  0  0  0
  -26.0970  -29.3820   20.9670 C   0  0  0  0  0  0  0  0  0  0  0  0
  -27.2550  -28.5200   20.9880 C   0  0  0  0  0  3  0  0  0  0  0  0
  -25.9980  -26.7930   19.8760 C   0  0  0  0  0  3  0  0  0  0  0  0
  -24.8770  -27.6460   19.8070 C   0  0  0  0  0  3  0  0  0  0  0  0
  -23.7010  -29.8450   20.3710 C   0  0  0  0  0  2  0  0  0  0  0  0
  -24.7480  -31.1260   22.2800 N   0  0  0  0  0  0  0  0  0  0  0  0
  -23.5900  -32.2740   23.8680 O   0  0  0  0  0  0  0  0  0  0  0  0
  -22.7700  -29.5790   22.7070 C   0  0  0  0  0  0  0  0  0  0  0  0
  -21.4470  -29.4020   22.5470 N   0  0  0  0  0  0  0  0  0  0  0  0
  -23.4170  -28.9790   23.5690 O   0  0  0  0  0  0  0  0  0  0  0  0
  -20.9820  -29.9340   21.8240 H   0  0  0  0  0  0  0  0  0  0  0  0
  -18.0600  -28.1760   22.9600 C   0  0  0  0  0  0  0  0  0  0  0  0
  -20.6020  -28.4930   23.3260 C   0  0  0  0  0  3  0  0  0  0  0  0
  -20.7480  -27.0360   22.8270 C   0  0  0  0  0  2  0  0  0  0  0  0
  -19.6960  -26.6460   21.7830 C   0  0  0  0  0  2  0  0  0  0  0  0
  -18.2840  -26.8000   22.3550 C   0  0  0  0  0  2  0  0  0  0  0  0
  -19.1480  -28.9770   23.4000 C   0  0  0  0  0  0  0  0  0  0  0  0
  -18.8840  -30.2620   23.9230 C   0  0  0  0  0  3  0  0  0  0  0  0
  -17.5660  -30.7470   24.0080 C   0  0  0  0  0  3  0  0  0  0  0  0
  -16.4920  -29.9470   23.5820 C   0  0  0  0  0  3  0  0  0  0  0  0
  -16.7400  -28.6630   23.0650 C   0  0  0  0  0  3  0  0  0  0  0  0
  -25.9590  -32.5950   23.9870 C   0  0  0  0  0  3  0  0  0  0  0  0
  -26.4490  -31.8380   25.2810 C   0  0  1  0  0  0  0  0  0  0  0  0
  -25.3350  -31.6170   26.3340 C   0  0  0  0  0  1  0  0  0  0  0  0
  -27.0320  -30.4540   24.9190 C   0  0  0  0  0  1  0  0  0  0  0  0
  -27.5940  -32.6330   25.9500 C   0  0  0  0  0  1  0  0  0  0  0  0
  -25.6600  -34.0010   24.3000 N   0  0  0  0  0  0  0  0  0  0  0  0
  -25.9770  -35.0430   23.5190 C   0  0  0  0  0  0  0  0  0  0  0  0
  -26.6210  -34.9200   22.4740 O   0  0  0  0  0  0  0  0  0  0  0  0
  -25.1010  -34.1710   25.1230 H   0  0  0  0  0  0  0  0  0  0  0  0
  -24.2450  -36.8350   23.1840 C   0  0  0  0  0  1  0  0  0  0  0  0
  -25.5070  -36.4410   23.9670 C   0  0  0  0  0  3  0  0  0  0  0  0
  -27.6580  -37.3400   24.7350 C   0  0  0  0  0  1  0  0  0  0  0  0
  -26.5390  -37.4890   23.8090 N   0  0  0  0  0  0  0  0  0  0  0  0
  -26.1370  -38.4130   23.9430 H   0  0  0  0  0  0  0  0  0  0  0  0
  1  3  1  0
  3  2  2  0
  4  5  1  0
  4  1  2  0
  5  6  2  0
  6  2  1  0
  6 56  1  0
  7  4  1  0
  8  5  1  0
  9 11  1  0
  9 16  2  0
 10 12  1  0
 10  9  1  0
 12 15  1  0
 13 15  1  0
 14  3  1  0
 14 13  1  0
 14 11  1  0
 15 19  1  6
 15 18  1  0
 18 17  1  0
 19 20  1  0
 20 26  1  0
 21 26  1  0
 22 23  1  0
 22 21  1  0
 24 23  1  0
 24 31  1  0
 24 25  1  0
 26 25  1  0
 27 20  2  0
 28 29  2  0
 29 48  1  0
 30 29  1  0
 30 33  1  0
 31 28  1  0
 31 32  1  0
 32 30  2  0
 33 34  1  0
 34 35  2  0
 36 39  1  0
 36 35  1  0
 37 36  2  0
 38 37  1  0
 38 33  2  0
 39 40  1  0
 40 41  1  0
 41 42  2  0
 43 42  1  0
 43 47  1  0
 44 43  2  0
 45 40  2  0
 45 44  1  0
 46 45  1  0
 48 49  1  0
 49 52  1  0
 49 51  1  0
 50 48  2  0
 53 54  1  0
 53 28  1  0
 55 53  1  0
 57 68  2  0
 58 56  1  0
 58 63  1  0
 59 67  1  0
 59 69  1  0
 60 66  1  0
 60 62  1  0
 61 67  1  0
 62 63  2  0
 62 61  1  0
 64 58  2  0
 65 64  1  0
 65 60  2  0
 66 59  1  0
 67 57  1  0
 69 71  2  0
 70 69  1  0
 72 70  1  0
 73 82  2  0
 73 78  1  0
 74 70  1  0
 74 78  1  0
 75 74  1  0
 76 77  1  0
 76 75  1  0
 77 73  1  0
 78 79  2  0
 79 80  1  0
 81 80  2  0
 82 81  1  0
 83 57  1  0
 83 88  1  0
 83 84  1  0
 84 87  1  1
 84 85  1  0
 86 84  1  0
 88 91  1  0
 89 93  1  0
 89 88  1  0
 90 89  2  0
 93 92  1  0
 95 96  1  0
 95 93  1  0
 95 94  1  0
M  ISO  4   6 101  19 100  20 100  56 101
M  END
>  <TORSDO>  (92) 
F 19

>  <SCORE>  (92) 
-13.719

>  <name>  (92) 
91

>  <ligand_id>  (92) 
91

>  <original_smiles>  (92) 
[H]c1c([H])c([H])c2c(c1[H])C([H])([H])C([H])([H])C([H])([H])C2([H])N([H])C(=O)C1([H])N(C(=O)C([H])(N([H])C(=O)C([H])(N([H])C([H])([H])[H])C([H])([H])[H])C(C([H])([H])[H])(C([H])([H])[H])C([H])([H])[H])C([H])([H])c2c([H])c(Oc3c([H])c(C4([H])C([H])([H])C(=O)C([H])([H])C([H])([H])C(C([H])([H])C(=O)N5C([H])([H])C([H])([H])C([H])([H])C([H])(n6nc(-c7c([H])c([H])c(Oc8c([H])c([H])c(F)c([H])c8F)c([H])c7[H])c(C(=O)N([H])[H])c6N([H])[H])C5([H])[H])(C([H])([H])C([H])([H])[H])C4([H])[H])c([H])c(C([H])([H])[H])c3C([H])([H])[H])c([H])c([H])c2C1([H])[H]

>  <smiles>  (92) 
[H]c1c([H])c([H])c2c(c1[H])C([H])([H])C([H])([H])C([H])([H])C2([H])N([H])C(=O)C1([H])N(C(=O)C([H])(N([H])C(=O)C([H])(N([H])C([H])([H])[H])C([H])([H])[H])C(C([H])([H])[H])(C([H])([H])[H])C([H])([H])[H])C([H])([H])c2c([H])c(Oc3c([H])c(C4([H])C([H])([H])C(=O)C([H])([H])C([H])([H])C(C([H])([H])C(=O)N5C([H])([H])C([H])([H])C([H])([H])C([H])(n6nc(-c7c([H])c([H])c(Oc8c([H])c([H])c(F)c([H])c8F)c([H])c7[H])c(C(=O)N([H])[H])c6N([H])[H])C5([H])[H])(C([H])([H])C([H])([H])[H])C4([H])[H])c([H])c(C([H])([H])[H])c3C([H])([H])[H])c([H])c([H])c2C1([H])[H]

$$$$
92:0:0
     RDKit          3D

 89 97  0  0  1  0  0  0  0  0999 V2000
  -28.6380  -22.6580   18.8700 C   0  0  0  0  0  3  0  0  0  0  0  0
  -28.4120  -24.0870   18.9480 C   0  0  0  0  0  3  0  0  0  0  0  0
  -28.4820  -23.9420   21.2970 C   0  0  0  0  0  3  0  0  0  0  0  0
  -28.8060  -21.7710   19.9890 C   0  0  0  0  0  0  0  0  0  0  0  0
  -28.3200  -24.8250   20.1660 C   0  0  0  0  0  0  0  0  0  0  0  0
  -28.7040  -22.4990   21.2240 C   0  0  0  0  0  0  0  0  0  0  0  0
  -28.8390  -21.8110   22.3830 F   0  0  0  0  0  0  0  0  0  0  0  0
  -28.3110  -26.2880   20.2230 O   0  0  0  0  0  0  0  0  0  0  0  0
  -24.6230  -31.8680   23.2290 C   0  0  0  0  0  0  0  0  0  0  0  0
  -27.1980  -27.1860   20.1950 C   0  0  0  0  0  0  0  0  0  0  0  0
  -23.4120  -30.4680   21.5960 C   0  0  0  0  0  3  0  0  0  0  0  0
  -24.8530  -28.8900   20.1670 C   0  0  0  0  0  0  0  0  0  0  0  0
  -25.9580  -30.7480   21.4100 C   0  0  0  0  0  2  0  0  0  0  0  0
  -26.0290  -29.3550   20.7680 C   0  0  0  0  0  0  0  0  0  0  0  0
  -27.1990  -28.5160   20.7670 C   0  0  0  0  0  3  0  0  0  0  0  0
  -25.9970  -26.8020   19.5610 C   0  0  0  0  0  3  0  0  0  0  0  0
  -24.8460  -27.6250   19.5510 C   0  0  0  0  0  3  0  0  0  0  0  0
  -23.6250  -29.7840   20.2170 C   0  0  0  0  0  2  0  0  0  0  0  0
  -24.6850  -31.0510   22.1340 N   0  0  0  0  0  0  0  0  0  0  0  0
  -23.5400  -32.1500   23.7650 O   0  0  0  0  0  0  0  0  0  0  0  0
  -22.7440  -29.4610   22.5640 C   0  0  0  0  0  0  0  0  0  0  0  0
  -21.4170  -29.2870   22.4420 N   0  0  0  0  0  0  0  0  0  0  0  0
  -23.4210  -28.8400   23.3880 O   0  0  0  0  0  0  0  0  0  0  0  0
  -20.9280  -29.8370   21.7500 H   0  0  0  0  0  0  0  0  0  0  0  0
  -18.0430  -28.0790   22.9510 C   0  0  0  0  0  0  0  0  0  0  0  0
  -20.6000  -28.3500   23.2190 C   0  0  0  0  0  3  0  0  0  0  0  0
  -20.7080  -26.9170   22.6510 C   0  0  0  0  0  2  0  0  0  0  0  0
  -19.6070  -26.5860   21.6390 C   0  0  0  0  0  2  0  0  0  0  0  0
  -18.2250  -26.7270   22.2810 C   0  0  0  0  0  2  0  0  0  0  0  0
  -19.1580  -28.8480   23.3780 C   0  0  0  0  0  0  0  0  0  0  0  0
  -18.9330  -30.1110   23.9660 C   0  0  0  0  0  3  0  0  0  0  0  0
  -17.6250  -30.6050   24.1330 C   0  0  0  0  0  3  0  0  0  0  0  0
  -16.5240  -29.8340   23.7220 C   0  0  0  0  0  3  0  0  0  0  0  0
  -16.7340  -28.5720   23.1370 C   0  0  0  0  0  3  0  0  0  0  0  0
  -25.9060  -32.5030   23.8480 C   0  0  0  0  0  3  0  0  0  0  0  0
  -26.4260  -31.7320   25.1240 C   0  0  1  0  0  0  0  0  0  0  0  0
  -25.3350  -31.4980   26.1960 C   0  0  0  0  0  1  0  0  0  0  0  0
  -27.0040  -30.3520   24.7340 C   0  0  0  0  0  1  0  0  0  0  0  0
  -27.5810  -32.5240   25.7800 C   0  0  0  0  0  1  0  0  0  0  0  0
  -25.5960  -33.9010   24.1840 N   0  0  0  0  0  0  0  0  0  0  0  0
  -25.9190  -34.9590   23.4280 C   0  0  0  0  0  0  0  0  0  0  0  0
  -26.5780  -34.8610   22.3900 O   0  0  0  0  0  0  0  0  0  0  0  0
  -25.0120  -34.0500   24.9940 H   0  0  0  0  0  0  0  0  0  0  0  0
  -24.1840  -36.7520   23.1050 C   0  0  0  0  0  1  0  0  0  0  0  0
  -25.4360  -36.3460   23.8980 C   0  0  0  0  0  3  0  0  0  0  0  0
  -27.5810  -37.2320   24.7030 C   0  0  0  0  0  1  0  0  0  0  0  0
  -26.4670  -37.4010   23.7740 N   0  0  0  0  0  0  0  0  0  0  0  0
  -26.0620  -38.3200   23.9290 H   0  0  0  0  0  0  0  0  0  0  0  0
  -29.0500  -20.1600   19.7090 C   0  0  0  0  0  3  0  0  0  0  0  0
  -29.4730  -18.8840   20.7110 C   0  0  0  0  0  3  0  0  0  0  0  0
  -30.0850  -17.4100   20.1970 C   0  0  0  0  0  0  0  0  0  0  0  0
  -31.1460  -17.6230   19.1210 C   0  0  0  0  0  1  0  0  0  0  0  0
  -29.8180  -16.1630   20.6600 N   0  0  0  0  0  0  0  0  0  0  0  0
  -30.5770  -14.9330   20.3360 C   0  0  0  0  0  0  0  0  0  0  0  0
  -30.4040  -12.5930   19.3830 C   0  0  0  0  0  2  0  0  0  0  0  0
  -29.4860  -12.6070   18.1390 C   0  0  0  0  0  2  0  0  0  0  0  0
  -28.0150  -12.4150   18.5520 C   0  0  0  0  0  2  0  0  0  0  0  0
  -27.6150  -13.3270   19.7420 C   0  0  0  0  0  3  0  0  0  0  0  0
  -28.6610  -13.3100   20.8740 C   0  0  0  0  0  2  0  0  0  0  0  0
  -29.9530  -13.6880   20.2930 N   0  0  0  0  0  0  0  0  0  0  0  0
  -31.7610  -14.9320   19.9890 O   0  0  0  0  0  0  0  0  0  0  0  0
  -25.2290  -13.9080   20.4610 C   0  0  0  0  0  0  0  0  0  0  0  0
  -24.1620  -13.1370   20.8290 C   0  0  0  0  0  0  0  0  0  0  0  0
  -24.6270  -11.7860   20.8150 C   0  0  0  0  0  0  0  0  0  0  0  0
  -26.2740  -13.0300   20.2330 N   0  0  0  0  0  0  0  0  0  0  0  0
  -25.9190  -11.7470   20.5130 N   0  0  0  0  0  0  0  0  0  0  0  0
  -23.8980  -10.5250   21.0110 C   0  0  0  0  0  0  0  0  0  0  0  0
  -24.3250   -9.5610   21.9510 C   0  0  0  0  0  3  0  0  0  0  0  0
  -23.5940   -8.3670   22.1350 C   0  0  0  0  0  3  0  0  0  0  0  0
  -22.4210   -8.1290   21.3790 C   0  0  0  0  0  0  0  0  0  0  0  0
  -22.0130   -9.0820   20.4290 C   0  0  0  0  0  3  0  0  0  0  0  0
  -22.7450  -10.2660   20.2430 C   0  0  0  0  0  3  0  0  0  0  0  0
  -21.6630   -6.9870   21.4730 O   0  0  0  0  0  0  0  0  0  0  0  0
  -21.6160   -6.2450   22.6260 C   0  0  0  0  0  0  0  0  0  0  0  0
  -21.2030   -6.8050   23.8560 C   0  0  0  0  0  3  0  0  0  0  0  0
  -21.1010   -5.9900   25.0010 C   0  0  0  0  0  3  0  0  0  0  0  0
  -21.4050   -4.6180   24.9200 C   0  0  0  0  0  0  0  0  0  0  0  0
  -21.8130   -4.0580   23.6960 C   0  0  0  0  0  3  0  0  0  0  0  0
  -21.9140   -4.8690   22.5530 C   0  0  0  0  0  0  0  0  0  0  0  0
  -22.2870   -4.3210   21.3700 F   0  0  0  0  0  0  0  0  0  0  0  0
  -21.3010   -3.8340   26.0180 F   0  0  0  0  0  0  0  0  0  0  0  0
  -22.7630  -13.6170   21.0840 C   0  0  0  0  0  0  0  0  0  0  0  0
  -22.0260  -12.9310   21.9510 N   0  0  0  0  0  0  0  0  0  0  0  0
  -22.3300  -14.6370   20.5480 O   0  0  0  0  0  0  0  0  0  0  0  0
  -22.3900  -12.1070   22.4080 H   0  0  0  0  0  0  0  0  0  0  0  0
  -21.0870  -13.2360   22.1620 H   0  0  0  0  0  0  0  0  0  0  0  0
  -25.3930  -15.2790   20.2800 N   0  0  0  0  0  0  0  0  0  0  0  0
  -24.6340  -15.9390   20.4010 H   0  0  0  0  0  0  0  0  0  0  0  0
  -26.2640  -15.7170   20.0050 H   0  0  0  0  0  0  0  0  0  0  0  0
  1  2  2  0
  1  4  1  0
  2  5  1  0
  4  6  2  0
  5  8  1  0
  5  3  2  0
  6  3  1  0
  6  7  1  0
  9 20  2  0
 10  8  1  0
 10 15  1  0
 11 19  1  0
 11 21  1  0
 12 18  1  0
 12 14  1  0
 13 19  1  0
 14 13  1  0
 15 14  2  0
 16 10  2  0
 17 16  1  0
 17 12  2  0
 18 11  1  0
 19  9  1  0
 21 23  2  0
 22 21  1  0
 24 22  1  0
 25 34  2  0
 25 30  1  0
 26 22  1  0
 26 30  1  0
 27 26  1  0
 28 29  1  0
 28 27  1  0
 29 25  1  0
 30 31  2  0
 31 32  1  0
 33 32  2  0
 34 33  1  0
 35  9  1  0
 35 40  1  0
 35 36  1  0
 36 39  1  1
 36 37  1  0
 38 36  1  0
 40 43  1  0
 41 45  1  0
 41 40  1  0
 42 41  2  0
 45 44  1  0
 47 45  1  0
 47 48  1  0
 47 46  1  0
 49  4  1  0
 49 50  2  0
 51 53  2  0
 51 50  1  0
 52 51  1  0
 54 53  1  0
 55 60  1  0
 56 57  1  0
 56 55  1  0
 58 57  1  0
 58 65  1  0
 58 59  1  0
 60 54  1  0
 60 59  1  0
 61 54  2  0
 62 63  2  0
 63 82  1  0
 64 63  1  0
 64 67  1  0
 65 62  1  0
 65 66  1  0
 66 64  2  0
 67 68  1  0
 68 69  2  0
 70 73  1  0
 70 69  1  0
 71 70  2  0
 72 71  1  0
 72 67  2  0
 73 74  1  0
 74 75  1  0
 75 76  2  0
 77 76  1  0
 77 81  1  0
 78 77  2  0
 79 74  2  0
 79 78  1  0
 80 79  1  0
 82 83  1  0
 83 86  1  0
 83 85  1  0
 84 82  2  0
 87 88  1  0
 87 62  1  0
 89 87  1  0
M  ISO  4   5 101   8 101  53 100  54 100
M  END
>  <TORSDO>  (93) 
F 19

>  <SCORE>  (93) 
-14.278

>  <name>  (93) 
92

>  <ligand_id>  (93) 
92

>  <original_smiles>  (93) 
[H]c1c([H])c([H])c2c(c1[H])C([H])([H])C([H])([H])C([H])([H])C2([H])N([H])C(=O)C1([H])N(C(=O)C([H])(N([H])C(=O)C([H])(N([H])C([H])([H])[H])C([H])([H])[H])C(C([H])([H])[H])(C([H])([H])[H])C([H])([H])[H])C([H])([H])c2c([H])c(Oc3c([H])c([H])c(C([H])([H])C([H])([H])C(=NC(=O)N4C([H])([H])C([H])([H])C([H])([H])C([H])(n5nc(-c6c([H])c([H])c(Oc7c([H])c([H])c(F)c([H])c7F)c([H])c6[H])c(C(=O)N([H])[H])c5N([H])[H])C4([H])[H])C([H])([H])[H])c(F)c3[H])c([H])c([H])c2C1([H])[H]

>  <smiles>  (93) 
[H]c1c([H])c([H])c2c(c1[H])C([H])([H])C([H])([H])C([H])([H])C2([H])N([H])C(=O)C1([H])N(C(=O)C([H])(N([H])C(=O)C([H])(N([H])C([H])([H])[H])C([H])([H])[H])C(C([H])([H])[H])(C([H])([H])[H])C([H])([H])[H])C([H])([H])c2c([H])c(Oc3c([H])c([H])c(C([H])([H])C([H])([H])C(=NC(=O)N4C([H])([H])C([H])([H])C([H])([H])C([H])(n5nc(-c6c([H])c([H])c(Oc7c([H])c([H])c(F)c([H])c7F)c([H])c6[H])c(C(=O)N([H])[H])c5N([H])[H])C4([H])[H])C([H])([H])[H])c(F)c3[H])c([H])c([H])c2C1([H])[H]

$$$$
93:0:0
     RDKit          3D

 96105  0  0  1  0  0  0  0  0999 V2000
  -31.3470  -24.1410   21.3250 C   0  0  0  0  0  3  0  0  0  0  0  0
  -30.3020  -25.0690   21.0900 C   0  0  0  0  0  3  0  0  0  0  0  0
  -29.8320  -22.3140   20.8260 C   0  0  0  0  0  3  0  0  0  0  0  0
  -31.1040  -22.7510   21.2390 C   0  0  0  0  0  0  0  0  0  0  0  0
  -28.9940  -24.6240   20.7860 C   0  0  0  0  0  0  0  0  0  0  0  0
  -28.7790  -23.2230   20.6490 C   0  0  0  0  0  0  0  0  0  0  0  0
  -27.4040  -22.6360   20.4140 C   0  0  0  0  0  2  0  0  0  0  0  0
  -26.3500  -23.4890   21.0960 C   0  0  0  0  0  2  0  0  0  0  0  0
  -26.4510  -24.9030   20.5410 C   0  0  0  0  0  2  0  0  0  0  0  0
  -27.8160  -25.6200   20.7770 C   0  0  0  0  0  3  0  0  0  0  0  0
  -32.1370  -21.7260   21.6230 C   0  0  0  0  0  0  0  0  0  0  0  0
  -31.6340  -20.6910   22.3150 N   0  0  0  0  0  0  0  0  0  0  0  0
  -33.3380  -21.8810   21.3840 O   0  0  0  0  0  0  0  0  0  0  0  0
  -30.6370  -20.7350   22.4840 H   0  0  0  0  0  0  0  0  0  0  0  0
  -32.3400  -19.5730   22.9310 C   0  0  0  0  0  2  0  0  0  0  0  0
  -32.3490  -18.3150   22.0380 C   0  0  0  0  0  2  0  0  0  0  0  0
  -31.0020  -17.5640   21.8660 C   0  0  0  0  0  2  0  0  0  0  0  0
  -31.1990  -16.3260   20.9650 C   0  0  0  0  0  2  0  0  0  0  0  0
  -30.0520  -15.2690   20.8970 C   0  0  0  0  0  2  0  0  0  0  0  0
  -30.4070  -14.1120   19.9300 C   0  0  0  0  0  0  0  0  0  0  0  0
  -30.0510  -11.8750   18.9430 C   0  0  0  0  0  2  0  0  0  0  0  0
  -29.0200  -11.9370   17.8020 C   0  0  0  0  0  2  0  0  0  0  0  0
  -27.5980  -11.7510   18.3590 C   0  0  0  0  0  2  0  0  0  0  0  0
  -27.3070  -12.6850   19.5650 C   0  0  0  0  0  3  0  0  0  0  0  0
  -28.4550  -12.6570   20.6050 C   0  0  0  0  0  2  0  0  0  0  0  0
  -29.7220  -12.9360   19.9120 N   0  0  0  0  0  0  0  0  0  0  0  0
  -31.3520  -14.3020   19.1590 O   0  0  0  0  0  0  0  0  0  0  0  0
  -24.9790  -13.2280   20.5260 C   0  0  0  0  0  0  0  0  0  0  0  0
  -23.9650  -12.4290   20.9800 C   0  0  0  0  0  0  0  0  0  0  0  0
  -24.4400  -11.0860   20.8660 C   0  0  0  0  0  0  0  0  0  0  0  0
  -26.0120  -12.3730   20.1710 N   0  0  0  0  0  0  0  0  0  0  0  0
  -25.6930  -11.0770   20.4270 N   0  0  0  0  0  0  0  0  0  0  0  0
  -23.7530   -9.8080   21.0950 C   0  0  0  0  0  0  0  0  0  0  0  0
  -24.2170   -8.8790   22.0550 C   0  0  0  0  0  3  0  0  0  0  0  0
  -23.5270   -7.6680   22.2710 C   0  0  0  0  0  3  0  0  0  0  0  0
  -22.3590   -7.3720   21.5290 C   0  0  0  0  0  0  0  0  0  0  0  0
  -21.9150   -8.2890   20.5600 C   0  0  0  0  0  3  0  0  0  0  0  0
  -22.6050   -9.4920   20.3410 C   0  0  0  0  0  3  0  0  0  0  0  0
  -21.6390   -6.2090   21.6540 O   0  0  0  0  0  0  0  0  0  0  0  0
  -21.5670   -5.5310   22.8450 C   0  0  0  0  0  0  0  0  0  0  0  0
  -21.0120   -6.1170   24.0030 C   0  0  0  0  0  3  0  0  0  0  0  0
  -20.8920   -5.3610   25.1860 C   0  0  0  0  0  3  0  0  0  0  0  0
  -21.3180   -4.0200   25.2120 C   0  0  0  0  0  0  0  0  0  0  0  0
  -21.8660   -3.4330   24.0580 C   0  0  0  0  0  3  0  0  0  0  0  0
  -21.9870   -4.1860   22.8760 C   0  0  0  0  0  0  0  0  0  0  0  0
  -22.4960   -3.6090   21.7620 F   0  0  0  0  0  0  0  0  0  0  0  0
  -21.1970   -3.2910   26.3460 F   0  0  0  0  0  0  0  0  0  0  0  0
  -22.5970  -12.8760   21.4110 C   0  0  0  0  0  0  0  0  0  0  0  0
  -21.9740  -12.1480   22.3300 N   0  0  0  0  0  0  0  0  0  0  0  0
  -22.0920  -13.9060   20.9660 O   0  0  0  0  0  0  0  0  0  0  0  0
  -22.3930  -11.3120   22.7090 H   0  0  0  0  0  0  0  0  0  0  0  0
  -21.0630  -12.4310   22.6610 H   0  0  0  0  0  0  0  0  0  0  0  0
  -25.1030  -14.6060   20.3680 N   0  0  0  0  0  0  0  0  0  0  0  0
  -24.3430  -15.2450   20.5770 H   0  0  0  0  0  0  0  0  0  0  0  0
  -25.9150  -15.0710   19.9830 H   0  0  0  0  0  0  0  0  0  0  0  0
  -28.0260  -26.7920   19.9330 O   0  0  0  0  0  0  0  0  0  0  0  0
  -24.5080  -31.9500   23.3500 C   0  0  0  0  0  0  0  0  0  0  0  0
  -26.9480  -27.6580   19.9150 C   0  0  0  0  0  0  0  0  0  0  0  0
  -23.2130  -30.6470   21.6930 C   0  0  0  0  0  3  0  0  0  0  0  0
  -24.5880  -29.2000   20.1010 C   0  0  0  0  0  0  0  0  0  0  0  0
  -25.7320  -30.9920   21.4040 C   0  0  0  0  0  2  0  0  0  0  0  0
  -25.7720  -29.6590   20.6900 C   0  0  0  0  0  0  0  0  0  0  0  0
  -26.9550  -28.8850   20.6160 C   0  0  0  0  0  3  0  0  0  0  0  0
  -25.7760  -27.2830   19.2220 C   0  0  0  0  0  3  0  0  0  0  0  0
  -24.5840  -28.0100   19.3610 C   0  0  0  0  0  3  0  0  0  0  0  0
  -23.3500  -30.0520   20.2670 C   0  0  0  0  0  2  0  0  0  0  0  0
  -24.5050  -31.2070   22.2080 N   0  0  0  0  0  0  0  0  0  0  0  0
  -23.4560  -32.2050   23.9520 O   0  0  0  0  0  0  0  0  0  0  0  0
  -22.5960  -29.5780   22.6240 C   0  0  0  0  0  0  0  0  0  0  0  0
  -21.2770  -29.3590   22.4970 N   0  0  0  0  0  0  0  0  0  0  0  0
  -23.2990  -28.9510   23.4200 O   0  0  0  0  0  0  0  0  0  0  0  0
  -20.7660  -29.9220   21.8320 H   0  0  0  0  0  0  0  0  0  0  0  0
  -17.9520  -28.0100   22.9260 C   0  0  0  0  0  0  0  0  0  0  0  0
  -20.4910  -28.3740   23.2410 C   0  0  0  0  0  3  0  0  0  0  0  0
  -20.6640  -26.9560   22.6500 C   0  0  0  0  0  2  0  0  0  0  0  0
  -19.5930  -26.5990   21.6160 C   0  0  0  0  0  2  0  0  0  0  0  0
  -18.1970  -26.6780   22.2390 C   0  0  0  0  0  2  0  0  0  0  0  0
  -19.0290  -28.8150   23.3810 C   0  0  0  0  0  0  0  0  0  0  0  0
  -18.7470  -30.0610   23.9790 C   0  0  0  0  0  3  0  0  0  0  0  0
  -17.4190  -30.5030   24.1310 C   0  0  0  0  0  3  0  0  0  0  0  0
  -16.3550  -29.6950   23.6950 C   0  0  0  0  0  3  0  0  0  0  0  0
  -16.6230  -28.4500   23.0980 C   0  0  0  0  0  3  0  0  0  0  0  0
  -25.8280  -32.5380   23.9390 C   0  0  0  0  0  3  0  0  0  0  0  0
  -25.5790  -33.9480   24.2700 N   0  0  0  0  0  0  0  0  0  0  0  0
  -25.9160  -34.9830   23.4890 C   0  0  0  0  0  0  0  0  0  0  0  0
  -26.5490  -34.8500   22.4370 O   0  0  0  0  0  0  0  0  0  0  0  0
  -25.0330  -34.1310   25.0980 H   0  0  0  0  0  0  0  0  0  0  0  0
  -24.2430  -36.8280   23.1660 C   0  0  0  0  0  1  0  0  0  0  0  0
  -25.4880  -36.3890   23.9510 C   0  0  0  0  0  3  0  0  0  0  0  0
  -27.6690  -37.2040   24.7260 C   0  0  0  0  0  1  0  0  0  0  0  0
  -26.5500  -37.4070   23.8090 N   0  0  0  0  0  0  0  0  0  0  0  0
  -26.1770  -38.3380   23.9700 H   0  0  0  0  0  0  0  0  0  0  0  0
  -26.3510  -31.7500   25.2000 C   0  0  1  0  0  0  0  0  0  0  0  0
  -25.2640  -31.4980   26.2710 C   0  0  0  0  0  1  0  0  0  0  0  0
  -26.9310  -30.3780   24.7810 C   0  0  0  0  0  1  0  0  0  0  0  0
  -27.5080  -32.5340   25.8610 C   0  0  0  0  0  1  0  0  0  0  0  0
  2  1  2  0
  3  4  2  0
  4  1  1  0
  4 11  1  0
  5  2  1  0
  6  5  2  0
  6  3  1  0
  7  6  1  0
  7  8  1  0
  9 10  1  0
  9  8  1  0
 10 56  1  0
 10  5  1  0
 11 12  1  0
 12 14  1  0
 12 15  1  0
 13 11  2  0
 16 15  1  0
 17 16  1  0
 18 17  1  0
 19 18  1  0
 20 19  1  0
 21 26  1  0
 22 23  1  0
 22 21  1  0
 24 23  1  0
 24 31  1  0
 24 25  1  0
 26 20  1  0
 26 25  1  0
 27 20  2  0
 28 29  2  0
 29 48  1  0
 30 29  1  0
 30 33  1  0
 31 32  1  0
 31 28  1  0
 32 30  2  0
 33 34  1  0
 34 35  2  0
 36 39  1  0
 36 35  1  0
 37 36  2  0
 38 37  1  0
 38 33  2  0
 39 40  1  0
 40 45  2  0
 40 41  1  0
 41 42  2  0
 42 43  1  0
 43 47  1  0
 44 43  2  0
 45 44  1  0
 46 45  1  0
 48 49  1  0
 49 52  1  0
 49 51  1  0
 50 48  2  0
 53 28  1  0
 53 54  1  0
 55 53  1  0
 57 68  2  0
 58 56  1  0
 58 63  1  0
 59 67  1  0
 59 69  1  0
 60 66  1  0
 60 62  1  0
 61 67  1  0
 62 61  1  0
 63 62  2  0
 64 65  1  0
 64 58  2  0
 65 60  2  0
 66 59  1  0
 67 57  1  0
 69 71  2  0
 70 69  1  0
 72 70  1  0
 73 82  2  0
 73 78  1  0
 74 70  1  0
 74 78  1  0
 75 74  1  0
 76 77  1  0
 76 75  1  0
 77 73  1  0
 78 79  2  0
 79 80  1  0
 81 80  2  0
 82 81  1  0
 83 57  1  0
 83 84  1  0
 83 93  1  0
 84 87  1  0
 85 89  1  0
 85 84  1  0
 86 85  2  0
 89 88  1  0
 91 89  1  0
 91 92  1  0
 91 90  1  0
 93 96  1  1
 93 94  1  0
 95 93  1  0
M  ISO  4  10 101  19 100  20 100  56 101
M  END
>  <TORSDO>  (94) 
F 22

>  <SCORE>  (94) 
-10.667

>  <name>  (94) 
93

>  <ligand_id>  (94) 
93

>  <original_smiles>  (94) 
[H]c1c([H])c([H])c2c(c1[H])C([H])([H])C([H])([H])C([H])([H])C2([H])N([H])C(=O)C1([H])N(C(=O)C([H])(N([H])C(=O)C([H])(N([H])C([H])([H])[H])C([H])([H])[H])C(C([H])([H])[H])(C([H])([H])[H])C([H])([H])[H])C([H])([H])c2c([H])c(OC3([H])c4c([H])c([H])c(C(=O)N([H])C([H])([H])C([H])([H])C([H])([H])C([H])([H])C([H])([H])C(=O)N5C([H])([H])C([H])([H])C([H])([H])C([H])(n6nc(-c7c([H])c([H])c(Oc8c([H])c([H])c(F)c([H])c8F)c([H])c7[H])c(C(=O)N([H])[H])c6N([H])[H])C5([H])[H])c([H])c4C([H])([H])C([H])([H])C3([H])[H])c([H])c([H])c2C1([H])[H]

>  <smiles>  (94) 
[H]c1c([H])c([H])c2c(c1[H])C([H])([H])C([H])([H])C([H])([H])C2([H])N([H])C(=O)C1([H])N(C(=O)C([H])(N([H])C(=O)C([H])(N([H])C([H])([H])[H])C([H])([H])[H])C(C([H])([H])[H])(C([H])([H])[H])C([H])([H])[H])C([H])([H])c2c([H])c(OC3([H])c4c([H])c([H])c(C(=O)N([H])C([H])([H])C([H])([H])C([H])([H])C([H])([H])C([H])([H])C(=O)N5C([H])([H])C([H])([H])C([H])([H])C([H])(n6nc(-c7c([H])c([H])c(Oc8c([H])c([H])c(F)c([H])c8F)c([H])c7[H])c(C(=O)N([H])[H])c6N([H])[H])C5([H])[H])c([H])c4C([H])([H])C([H])([H])C3([H])[H])c([H])c([H])c2C1([H])[H]

$$$$
94:0:0
     RDKit          3D

 93101  0  0  1  0  0  0  0  0999 V2000
  -28.8260  -26.0170   22.2360 C   0  0  0  0  0  3  0  0  0  0  0  0
  -29.0680  -24.9130   23.0730 C   0  0  0  0  0  3  0  0  0  0  0  0
  -28.8450  -24.5420   20.2980 C   0  0  0  0  0  3  0  0  0  0  0  0
  -29.1220  -23.4330   21.1250 C   0  0  0  0  0  0  0  0  0  0  0  0
  -28.7060  -25.8300   20.8450 C   0  0  0  0  0  0  0  0  0  0  0  0
  -29.2160  -23.6220   22.5260 C   0  0  0  0  0  0  0  0  0  0  0  0
  -29.4610  -22.5810   23.3600 F   0  0  0  0  0  0  0  0  0  0  0  0
  -29.3070  -22.0830   20.4930 C   0  0  0  0  0  0  0  0  0  0  0  0
  -30.3250  -21.3600   20.9750 N   0  0  0  0  0  0  0  0  0  0  0  0
  -28.6220  -21.7280   19.5320 O   0  0  0  0  0  0  0  0  0  0  0  0
  -30.8120  -21.7470   21.7720 H   0  0  0  0  0  0  0  0  0  0  0  0
  -30.8020  -20.0900   20.4510 C   0  0  0  0  0  2  0  0  0  0  0  0
  -30.0490  -18.9080   21.0820 C   0  0  0  0  0  2  0  0  0  0  0  0
  -30.7100  -17.5700   20.7400 C   0  0  0  0  0  2  0  0  0  0  0  0
  -30.0440  -16.3720   21.4380 C   0  0  0  0  0  2  0  0  0  0  0  0
  -30.9660  -15.1430   21.5400 C   0  0  0  0  0  2  0  0  0  0  0  0
  -31.1500  -14.3830   20.2160 C   0  0  0  0  0  0  0  0  0  0  0  0
  -30.6510  -12.3770   18.8630 C   0  0  0  0  0  2  0  0  0  0  0  0
  -29.6760  -12.6500   17.7070 C   0  0  0  0  0  2  0  0  0  0  0  0
  -28.2190  -12.5430   18.1890 C   0  0  0  0  0  2  0  0  0  0  0  0
  -27.9580  -13.3720   19.4730 C   0  0  0  0  0  3  0  0  0  0  0  0
  -29.0290  -13.0810   20.5460 C   0  0  0  0  0  2  0  0  0  0  0  0
  -30.3570  -13.3150   19.9530 N   0  0  0  0  0  0  0  0  0  0  0  0
  -32.0930  -14.7100   19.4860 O   0  0  0  0  0  0  0  0  0  0  0  0
  -25.6040  -14.0600   20.2630 C   0  0  0  0  0  0  0  0  0  0  0  0
  -24.5210  -13.3220   20.6600 C   0  0  0  0  0  0  0  0  0  0  0  0
  -24.9320  -11.9550   20.6010 C   0  0  0  0  0  0  0  0  0  0  0  0
  -26.6090  -13.1450   19.9890 N   0  0  0  0  0  0  0  0  0  0  0  0
  -26.2080  -11.8730   20.2470 N   0  0  0  0  0  0  0  0  0  0  0  0
  -24.1690  -10.7170   20.8040 C   0  0  0  0  0  0  0  0  0  0  0  0
  -24.5880   -9.7330   21.7260 C   0  0  0  0  0  3  0  0  0  0  0  0
  -23.8280   -8.5580   21.9150 C   0  0  0  0  0  3  0  0  0  0  0  0
  -22.6330   -8.3610   21.1830 C   0  0  0  0  0  0  0  0  0  0  0  0
  -22.2310   -9.3340   20.2500 C   0  0  0  0  0  3  0  0  0  0  0  0
  -22.9910  -10.4990   20.0590 C   0  0  0  0  0  3  0  0  0  0  0  0
  -21.8440   -7.2390   21.2820 O   0  0  0  0  0  0  0  0  0  0  0  0
  -21.7790   -6.5060   22.4400 C   0  0  0  0  0  0  0  0  0  0  0  0
  -21.4010   -7.0870   23.6690 C   0  0  0  0  0  3  0  0  0  0  0  0
  -21.2790   -6.2840   24.8210 C   0  0  0  0  0  3  0  0  0  0  0  0
  -21.5250   -4.9000   24.7430 C   0  0  0  0  0  0  0  0  0  0  0  0
  -21.8960   -4.3180   23.5180 C   0  0  0  0  0  3  0  0  0  0  0  0
  -22.0200   -5.1200   22.3700 C   0  0  0  0  0  0  0  0  0  0  0  0
  -22.3570   -4.5490   21.1870 F   0  0  0  0  0  0  0  0  0  0  0  0
  -21.4000   -4.1260   25.8470 F   0  0  0  0  0  0  0  0  0  0  0  0
  -23.1500  -13.8440   20.9860 C   0  0  0  0  0  0  0  0  0  0  0  0
  -22.4320  -13.1680   21.8750 N   0  0  0  0  0  0  0  0  0  0  0  0
  -22.7280  -14.8870   20.4870 O   0  0  0  0  0  0  0  0  0  0  0  0
  -22.7860  -12.3230   22.2980 H   0  0  0  0  0  0  0  0  0  0  0  0
  -21.5160  -13.5000   22.1370 H   0  0  0  0  0  0  0  0  0  0  0  0
  -25.8140  -15.4250   20.0940 N   0  0  0  0  0  0  0  0  0  0  0  0
  -25.0880  -16.1130   20.2510 H   0  0  0  0  0  0  0  0  0  0  0  0
  -26.6740  -15.8280   19.7410 H   0  0  0  0  0  0  0  0  0  0  0  0
  -28.5160  -26.8900   20.0010 O   0  0  0  0  0  0  0  0  0  0  0  0
  -24.6100  -31.8870   23.2150 C   0  0  0  0  0  0  0  0  0  0  0  0
  -27.3230  -27.5580   20.0790 C   0  0  0  0  0  0  0  0  0  0  0  0
  -23.4210  -30.4810   21.5620 C   0  0  0  0  0  3  0  0  0  0  0  0
  -24.8950  -28.9810   20.1230 C   0  0  0  0  0  0  0  0  0  0  0  0
  -25.9340  -30.8950   21.3560 C   0  0  0  0  0  2  0  0  0  0  0  0
  -26.0410  -29.5330   20.7110 C   0  0  0  0  0  0  0  0  0  0  0  0
  -27.2600  -28.8260   20.6890 C   0  0  0  0  0  3  0  0  0  0  0  0
  -26.1650  -27.0030   19.4990 C   0  0  0  0  0  3  0  0  0  0  0  0
  -24.9490  -27.7110   19.5180 C   0  0  0  0  0  3  0  0  0  0  0  0
  -23.6360  -29.8160   20.1750 C   0  0  0  0  0  2  0  0  0  0  0  0
  -24.6720  -31.1020   22.1030 N   0  0  0  0  0  0  0  0  0  0  0  0
  -23.5290  -32.1340   23.7650 O   0  0  0  0  0  0  0  0  0  0  0  0
  -22.7910  -29.4400   22.5140 C   0  0  0  0  0  0  0  0  0  0  0  0
  -21.4710  -29.2380   22.3880 N   0  0  0  0  0  0  0  0  0  0  0  0
  -23.4880  -28.8170   23.3210 O   0  0  0  0  0  0  0  0  0  0  0  0
  -20.9680  -29.7960   21.7110 H   0  0  0  0  0  0  0  0  0  0  0  0
  -18.1220  -27.9720   22.8600 C   0  0  0  0  0  0  0  0  0  0  0  0
  -20.6710  -28.2800   23.1500 C   0  0  0  0  0  3  0  0  0  0  0  0
  -20.8080  -26.8530   22.5700 C   0  0  0  0  0  2  0  0  0  0  0  0
  -19.7180  -26.5130   21.5480 C   0  0  0  0  0  2  0  0  0  0  0  0
  -18.3300  -26.6290   22.1830 C   0  0  0  0  0  2  0  0  0  0  0  0
  -19.2210  -28.7540   23.3020 C   0  0  0  0  0  0  0  0  0  0  0  0
  -18.9730  -30.0120   23.8920 C   0  0  0  0  0  3  0  0  0  0  0  0
  -17.6570  -30.4880   24.0480 C   0  0  0  0  0  3  0  0  0  0  0  0
  -16.5710  -29.7020   23.6240 C   0  0  0  0  0  3  0  0  0  0  0  0
  -16.8060  -28.4470   23.0350 C   0  0  0  0  0  3  0  0  0  0  0  0
  -25.8910  -32.5290   23.8380 C   0  0  0  0  0  3  0  0  0  0  0  0
  -25.5690  -33.9200   24.1770 N   0  0  0  0  0  0  0  0  0  0  0  0
  -25.8900  -34.9790   23.4210 C   0  0  0  0  0  0  0  0  0  0  0  0
  -26.5610  -34.8880   22.3890 O   0  0  0  0  0  0  0  0  0  0  0  0
  -24.9750  -34.0650   24.9800 H   0  0  0  0  0  0  0  0  0  0  0  0
  -24.1380  -36.7460   23.0740 C   0  0  0  0  0  1  0  0  0  0  0  0
  -25.3860  -36.3590   23.8830 C   0  0  0  0  0  3  0  0  0  0  0  0
  -27.5140  -37.2620   24.7090 C   0  0  0  0  0  1  0  0  0  0  0  0
  -26.4060  -37.4250   23.7730 N   0  0  0  0  0  0  0  0  0  0  0  0
  -25.9890  -38.3390   23.9300 H   0  0  0  0  0  0  0  0  0  0  0  0
  -26.4260  -31.7530   25.1030 C   0  0  1  0  0  0  0  0  0  0  0  0
  -25.3420  -31.4930   26.1750 C   0  0  0  0  0  1  0  0  0  0  0  0
  -27.0220  -30.3870   24.6910 C   0  0  0  0  0  1  0  0  0  0  0  0
  -27.5700  -32.5550   25.7650 C   0  0  0  0  0  1  0  0  0  0  0  0
  1  2  1  0
  3  5  1  0
  3  4  2  0
  4  6  1  0
  5  1  2  0
  6  2  2  0
  6  7  1  0
  8  9  1  0
  8  4  1  0
  9 11  1  0
 10  8  2  0
 12  9  1  0
 12 13  1  0
 14 13  1  0
 14 15  1  0
 15 16  1  0
 17 16  1  0
 18 23  1  0
 19 20  1  0
 19 18  1  0
 21 20  1  0
 21 28  1  0
 21 22  1  0
 23 17  1  0
 23 22  1  0
 24 17  2  0
 25 26  2  0
 26 45  1  0
 27 26  1  0
 27 30  1  0
 28 29  1  0
 28 25  1  0
 29 27  2  0
 30 31  1  0
 31 32  2  0
 33 36  1  0
 33 32  1  0
 34 33  2  0
 35 34  1  0
 35 30  2  0
 36 37  1  0
 37 38  1  0
 38 39  2  0
 40 39  1  0
 40 44  1  0
 41 40  2  0
 42 37  2  0
 42 41  1  0
 43 42  1  0
 45 46  1  0
 46 49  1  0
 46 48  1  0
 47 45  2  0
 50 51  1  0
 50 25  1  0
 52 50  1  0
 53 55  1  0
 53  5  1  0
 54 65  2  0
 55 60  1  0
 56 64  1  0
 56 66  1  0
 57 63  1  0
 57 59  1  0
 58 64  1  0
 59 58  1  0
 60 59  2  0
 61 62  1  0
 61 55  2  0
 62 57  2  0
 63 56  1  0
 64 54  1  0
 66 68  2  0
 67 66  1  0
 69 67  1  0
 70 79  2  0
 70 75  1  0
 71 67  1  0
 71 75  1  0
 72 71  1  0
 73 74  1  0
 73 72  1  0
 74 70  1  0
 75 76  2  0
 76 77  1  0
 78 77  2  0
 79 78  1  0
 80 54  1  0
 80 81  1  0
 80 90  1  0
 81 84  1  0
 82 86  1  0
 82 81  1  0
 83 82  2  0
 86 85  1  0
 88 86  1  0
 88 89  1  0
 88 87  1  0
 90 93  1  1
 90 91  1  0
 92 90  1  0
M  ISO  4   5 101  16 100  17 100  53 101
M  END
>  <TORSDO>  (95) 
F 22

>  <SCORE>  (95) 
-12.998

>  <name>  (95) 
94

>  <ligand_id>  (95) 
94

>  <original_smiles>  (95) 
[H]c1c([H])c([H])c2c(c1[H])C([H])([H])C([H])([H])C([H])([H])C2([H])N([H])C(=O)C1([H])N(C(=O)C([H])(N([H])C(=O)C([H])(N([H])C([H])([H])[H])C([H])([H])[H])C(C([H])([H])[H])(C([H])([H])[H])C([H])([H])[H])C([H])([H])c2c([H])c(Oc3c([H])c([H])c(F)c(C(=O)N([H])C([H])([H])C([H])([H])C([H])([H])C([H])([H])C([H])([H])C(=O)N4C([H])([H])C([H])([H])C([H])([H])C([H])(n5nc(-c6c([H])c([H])c(Oc7c([H])c([H])c(F)c([H])c7F)c([H])c6[H])c(C(=O)N([H])[H])c5N([H])[H])C4([H])[H])c3[H])c([H])c([H])c2C1([H])[H]

>  <smiles>  (95) 
[H]c1c([H])c([H])c2c(c1[H])C([H])([H])C([H])([H])C([H])([H])C2([H])N([H])C(=O)C1([H])N(C(=O)C([H])(N([H])C(=O)C([H])(N([H])C([H])([H])[H])C([H])([H])[H])C(C([H])([H])[H])(C([H])([H])[H])C([H])([H])[H])C([H])([H])c2c([H])c(Oc3c([H])c([H])c(F)c(C(=O)N([H])C([H])([H])C([H])([H])C([H])([H])C([H])([H])C([H])([H])C(=O)N4C([H])([H])C([H])([H])C([H])([H])C([H])(n5nc(-c6c([H])c([H])c(Oc7c([H])c([H])c(F)c([H])c7F)c([H])c6[H])c(C(=O)N([H])[H])c5N([H])[H])C4([H])[H])c3[H])c([H])c([H])c2C1([H])[H]

$$$$
95:0:0
     RDKit          3D

 88 97  0  0  1  0  0  0  0  0999 V2000
  -30.3070  -15.8200   20.3310 C   0  0  0  0  0  0  0  0  0  0  0  0
  -30.3480  -13.2720   19.4700 C   0  0  0  0  0  2  0  0  0  0  0  0
  -29.4940  -12.7730   18.2720 C   0  0  0  0  0  2  0  0  0  0  0  0
  -28.0870  -12.3810   18.7360 C   0  0  0  0  0  2  0  0  0  0  0  0
  -27.5420  -13.4000   19.7580 C   0  0  0  0  0  3  0  0  0  0  0  0
  -28.5520  -13.8160   20.8590 C   0  0  0  0  0  2  0  0  0  0  0  0
  -29.6880  -14.4860   20.1680 N   0  0  0  0  0  0  0  0  0  0  0  0
  -31.5350  -15.5760   20.2670 O   0  0  0  0  0  0  0  0  0  0  0  0
  -31.8100  -20.7130   19.7970 C   0  0  0  0  0  3  0  0  0  0  0  0
  -31.6750  -22.0920   19.7400 C   0  0  0  0  0  3  0  0  0  0  0  0
  -30.7060  -19.9010   20.0270 C   0  0  0  0  0  0  0  0  0  0  0  0
  -29.4060  -20.4600   20.2380 C   0  0  0  0  0  0  0  0  0  0  0  0
  -30.4520  -22.7680   19.9110 C   0  0  0  0  0  0  0  0  0  0  0  0
  -29.1790  -22.1500   20.2030 C   0  0  0  0  0  0  0  0  0  0  0  0
  -30.9970  -18.3360   20.0390 C   0  0  0  0  0  3  0  0  0  0  0  0
  -28.8450  -18.7590   20.4150 C   0  0  0  0  0  3  0  0  0  0  0  0
  -30.6130  -24.2750   19.7330 C   0  0  0  0  0  1  0  0  0  0  0  0
  -29.8780  -17.3680   20.2510 N   0  0  0  0  0  0  0  0  0  0  0  0
  -25.1690  -13.8900   20.4950 C   0  0  0  0  0  0  0  0  0  0  0  0
  -24.1160  -13.0950   20.8450 C   0  0  0  0  0  0  0  0  0  0  0  0
  -24.6100  -11.7520   20.8320 C   0  0  0  0  0  0  0  0  0  0  0  0
  -26.2310  -13.0370   20.2750 N   0  0  0  0  0  0  0  0  0  0  0  0
  -25.9090  -11.7430   20.5450 N   0  0  0  0  0  0  0  0  0  0  0  0
  -23.8990  -10.4790   21.0130 C   0  0  0  0  0  0  0  0  0  0  0  0
  -24.3140   -9.5290   21.9720 C   0  0  0  0  0  3  0  0  0  0  0  0
  -23.5960   -8.3260   22.1450 C   0  0  0  0  0  3  0  0  0  0  0  0
  -22.4480   -8.0640   21.3600 C   0  0  0  0  0  0  0  0  0  0  0  0
  -22.0520   -9.0030   20.3910 C   0  0  0  0  0  3  0  0  0  0  0  0
  -22.7710  -10.1960   20.2160 C   0  0  0  0  0  3  0  0  0  0  0  0
  -21.7060   -6.9100   21.4410 O   0  0  0  0  0  0  0  0  0  0  0  0
  -21.6150   -6.1910   22.6070 C   0  0  0  0  0  0  0  0  0  0  0  0
  -21.1120   -6.7620   23.7960 C   0  0  0  0  0  3  0  0  0  0  0  0
  -20.9710   -5.9690   24.9520 C   0  0  0  0  0  3  0  0  0  0  0  0
  -21.3240   -4.6070   24.9200 C   0  0  0  0  0  0  0  0  0  0  0  0
  -21.8210   -4.0350   23.7350 C   0  0  0  0  0  3  0  0  0  0  0  0
  -21.9630   -4.8260   22.5810 C   0  0  0  0  0  0  0  0  0  0  0  0
  -22.4200   -4.2660   21.4360 F   0  0  0  0  0  0  0  0  0  0  0  0
  -21.1820   -3.8420   26.0280 F   0  0  0  0  0  0  0  0  0  0  0  0
  -22.7060  -13.5500   21.0770 C   0  0  0  0  0  0  0  0  0  0  0  0
  -21.9730  -12.8570   21.9400 N   0  0  0  0  0  0  0  0  0  0  0  0
  -22.2640  -14.5590   20.5280 O   0  0  0  0  0  0  0  0  0  0  0  0
  -22.3450  -12.0420   22.4030 H   0  0  0  0  0  0  0  0  0  0  0  0
  -21.0250  -13.1460   22.1370 H   0  0  0  0  0  0  0  0  0  0  0  0
  -25.3110  -15.2620   20.3080 N   0  0  0  0  0  0  0  0  0  0  0  0
  -24.5340  -15.9070   20.4040 H   0  0  0  0  0  0  0  0  0  0  0  0
  -26.1630  -15.7130   20.0000 H   0  0  0  0  0  0  0  0  0  0  0  0
  -27.9930  -23.6340   20.3360 C   0  0  0  0  0  2  0  0  0  0  0  0
  -28.1290  -25.4430   20.3540 O   0  0  0  0  0  0  0  0  0  0  0  0
  -24.6550  -31.8710   23.2300 C   0  0  0  0  0  0  0  0  0  0  0  0
  -27.1610  -26.6850   20.3100 C   0  0  0  0  0  0  0  0  0  0  0  0
  -23.4670  -30.4560   21.6110 C   0  0  0  0  0  3  0  0  0  0  0  0
  -24.9080  -28.7720   20.2240 C   0  0  0  0  0  0  0  0  0  0  0  0
  -26.0500  -30.5680   21.4960 C   0  0  0  0  0  2  0  0  0  0  0  0
  -26.1080  -29.1190   20.8560 C   0  0  0  0  0  0  0  0  0  0  0  0
  -27.2150  -28.1070   20.8610 C   0  0  0  0  0  3  0  0  0  0  0  0
  -25.9250  -26.5660   19.6190 C   0  0  0  0  0  3  0  0  0  0  0  0
  -24.8600  -27.5220   19.5810 C   0  0  0  0  0  3  0  0  0  0  0  0
  -23.7090  -29.7370   20.2510 C   0  0  0  0  0  2  0  0  0  0  0  0
  -24.7500  -31.0010   22.1640 N   0  0  0  0  0  0  0  0  0  0  0  0
  -23.5610  -32.1830   23.7320 O   0  0  0  0  0  0  0  0  0  0  0  0
  -22.7410  -29.4980   22.5940 C   0  0  0  0  0  0  0  0  0  0  0  0
  -21.4090  -29.3450   22.4660 N   0  0  0  0  0  0  0  0  0  0  0  0
  -23.3910  -28.8900   23.4470 O   0  0  0  0  0  0  0  0  0  0  0  0
  -20.9330  -29.8870   21.7580 H   0  0  0  0  0  0  0  0  0  0  0  0
  -18.0190  -28.1350   22.9850 C   0  0  0  0  0  0  0  0  0  0  0  0
  -20.5780  -28.4200   23.2500 C   0  0  0  0  0  3  0  0  0  0  0  0
  -20.6860  -26.9780   22.7010 C   0  0  0  0  0  2  0  0  0  0  0  0
  -19.5900  -26.6340   21.6870 C   0  0  0  0  0  2  0  0  0  0  0  0
  -18.2040  -26.7790   22.3240 C   0  0  0  0  0  2  0  0  0  0  0  0
  -19.1320  -28.9130   23.4040 C   0  0  0  0  0  0  0  0  0  0  0  0
  -18.9000  -30.1770   23.9870 C   0  0  0  0  0  3  0  0  0  0  0  0
  -17.5900  -30.6660   24.1510 C   0  0  0  0  0  3  0  0  0  0  0  0
  -16.4930  -29.8890   23.7430 C   0  0  0  0  0  3  0  0  0  0  0  0
  -16.7080  -28.6250   23.1660 C   0  0  0  0  0  3  0  0  0  0  0  0
  -25.9160  -32.5300   23.8670 C   0  0  0  0  0  3  0  0  0  0  0  0
  -25.5920  -33.9350   24.1890 N   0  0  0  0  0  0  0  0  0  0  0  0
  -25.9230  -34.9970   23.4410 C   0  0  0  0  0  0  0  0  0  0  0  0
  -26.5870  -34.8950   22.4070 O   0  0  0  0  0  0  0  0  0  0  0  0
  -24.9950  -34.0850   24.9890 H   0  0  0  0  0  0  0  0  0  0  0  0
  -24.1950  -36.8050   23.1230 C   0  0  0  0  0  1  0  0  0  0  0  0
  -25.4490  -36.3900   23.9090 C   0  0  0  0  0  3  0  0  0  0  0  0
  -27.5910  -37.2870   24.7140 C   0  0  0  0  0  1  0  0  0  0  0  0
  -26.4840  -37.4400   23.7730 N   0  0  0  0  0  0  0  0  0  0  0  0
  -26.0820  -38.3640   23.8980 H   0  0  0  0  0  0  0  0  0  0  0  0
  -26.4080  -31.7870   25.1720 C   0  0  1  0  0  0  0  0  0  0  0  0
  -25.2970  -31.5810   26.2310 C   0  0  0  0  0  1  0  0  0  0  0  0
  -26.9880  -30.3960   24.8340 C   0  0  0  0  0  1  0  0  0  0  0  0
  -27.5540  -32.5900   25.8310 C   0  0  0  0  0  1  0  0  0  0  0  0
  2  7  1  0
  3  4  1  0
  3  2  1  0
  5  4  1  0
  5 22  1  0
  5  6  1  0
  7  1  1  0
  7  6  1  0
  8  1  2  0
  9 11  1  0
 10  9  2  0
 10 13  1  0
 11 15  2  0
 11 12  1  0
 12 16  2  0
 13 14  2  0
 14 12  1  0
 14 47  1  0
 15 18  1  0
 17 13  1  0
 18  1  1  0
 18 16  1  0
 19 20  2  0
 20 39  1  0
 21 20  1  0
 21 24  1  0
 22 19  1  0
 22 23  1  0
 23 21  2  0
 24 25  1  0
 25 26  2  0
 27 30  1  0
 27 26  1  0
 28 27  2  0
 29 28  1  0
 29 24  2  0
 30 31  1  0
 31 32  1  0
 32 33  2  0
 34 33  1  0
 34 38  1  0
 35 34  2  0
 36 31  2  0
 36 35  1  0
 37 36  1  0
 39 40  1  0
 40 43  1  0
 40 42  1  0
 41 39  2  0
 44 45  1  0
 44 19  1  0
 46 44  1  0
 47 48  1  0
 49 60  2  0
 50 48  1  0
 50 55  1  0
 51 59  1  0
 51 61  1  0
 52 58  1  0
 52 54  1  0
 53 59  1  0
 54 55  2  0
 54 53  1  0
 56 50  2  0
 57 56  1  0
 57 52  2  0
 58 51  1  0
 59 49  1  0
 61 63  2  0
 62 61  1  0
 64 62  1  0
 65 74  2  0
 65 70  1  0
 66 62  1  0
 66 70  1  0
 67 66  1  0
 68 69  1  0
 68 67  1  0
 69 65  1  0
 70 71  2  0
 71 72  1  0
 73 72  2  0
 74 73  1  0
 75 49  1  0
 75 76  1  0
 75 85  1  0
 76 79  1  0
 77 81  1  0
 77 76  1  0
 78 77  2  0
 81 80  1  0
 83 84  1  0
 83 81  1  0
 83 82  1  0
 85 88  1  1
 85 86  1  0
 87 85  1  0
M  ISO  4   1 100  18 100  47 101  48 101
M  END
>  <TORSDO>  (96) 
F 16

>  <SCORE>  (96) 
-16.505

>  <name>  (96) 
95

>  <ligand_id>  (96) 
95

>  <original_smiles>  (96) 
[H]c1c([H])c([H])c2c(c1[H])C([H])([H])C([H])([H])C([H])([H])C2([H])N([H])C(=O)C1([H])N(C(=O)C([H])(N([H])C(=O)C([H])(N([H])C([H])([H])[H])C([H])([H])[H])C(C([H])([H])[H])(C([H])([H])[H])C([H])([H])[H])C([H])([H])c2c([H])c(OC([H])([H])c3c(C([H])([H])[H])c([H])c([H])c4c3C([H])([H])N(C(=O)N3C([H])([H])C([H])([H])C([H])([H])C([H])(n5nc(-c6c([H])c([H])c(Oc7c([H])c([H])c(F)c([H])c7F)c([H])c6[H])c(C(=O)N([H])[H])c5N([H])[H])C3([H])[H])C4([H])[H])c([H])c([H])c2C1([H])[H]

>  <smiles>  (96) 
[H]c1c([H])c([H])c2c(c1[H])C([H])([H])C([H])([H])C([H])([H])C2([H])N([H])C(=O)C1([H])N(C(=O)C([H])(N([H])C(=O)C([H])(N([H])C([H])([H])[H])C([H])([H])[H])C(C([H])([H])[H])(C([H])([H])[H])C([H])([H])[H])C([H])([H])c2c([H])c(OC([H])([H])c3c(C([H])([H])[H])c([H])c([H])c4c3C([H])([H])N(C(=O)N3C([H])([H])C([H])([H])C([H])([H])C([H])(n5nc(-c6c([H])c([H])c(Oc7c([H])c([H])c(F)c([H])c7F)c([H])c6[H])c(C(=O)N([H])[H])c5N([H])[H])C3([H])[H])C4([H])[H])c([H])c([H])c2C1([H])[H]

$$$$
96:0:0
     RDKit          3D

 93102  0  0  1  0  0  0  0  0999 V2000
  -27.8180  -21.5020   20.7840 C   0  0  0  0  0  3  0  0  0  0  0  0
  -29.0960  -23.2010   19.6900 C   0  0  0  0  0  3  0  0  0  0  0  0
  -27.0670  -23.9910   20.7090 C   0  0  0  0  0  0  0  0  0  0  0  0
  -29.0090  -21.5790   20.0390 C   0  0  0  0  0  0  0  0  0  0  0  0
  -26.9290  -22.5860   21.1180 C   0  0  0  0  0  0  0  0  0  0  0  0
  -28.1630  -24.5550   19.9510 C   0  0  0  0  0  0  0  0  0  0  0  0
  -25.9580  -24.8980   21.0830 C   0  0  0  0  0  0  0  0  0  0  0  0
  -25.8210  -22.0680   22.0750 C   0  0  0  0  0  2  0  0  0  0  0  0
  -25.7110  -25.0510   22.5750 C   0  0  0  0  0  2  0  0  0  0  0  0
  -24.4760  -22.8070   22.2200 C   0  0  0  0  0  2  0  0  0  0  0  0
  -24.5670  -24.1240   23.0210 C   0  0  0  0  0  2  0  0  0  0  0  0
  -25.1130  -25.3170   20.2930 O   0  0  0  0  0  0  0  0  0  0  0  0
  -30.6480  -17.0290   20.0680 C   0  0  0  0  0  0  0  0  0  0  0  0
  -30.9600  -14.3960   19.4110 C   0  0  0  0  0  2  0  0  0  0  0  0
  -30.1650  -13.7820   18.2140 C   0  0  0  0  0  2  0  0  0  0  0  0
  -28.7690  -13.3240   18.6510 C   0  0  0  0  0  2  0  0  0  0  0  0
  -28.1390  -14.3560   19.6090 C   0  0  0  0  0  3  0  0  0  0  0  0
  -29.0920  -14.8730   20.7210 C   0  0  0  0  0  2  0  0  0  0  0  0
  -30.2160  -15.5960   20.0590 N   0  0  0  0  0  0  0  0  0  0  0  0
  -31.8900  -16.9590   19.9290 O   0  0  0  0  0  0  0  0  0  0  0  0
  -29.9850  -20.0240   19.8890 C   0  0  0  0  0  0  0  0  0  0  0  0
  -29.8360  -18.4290   20.0810 N   0  0  0  0  0  0  0  0  0  0  0  0
  -31.1240  -20.3230   19.5200 O   0  0  0  0  0  0  0  0  0  0  0  0
  -28.8660  -18.2320   20.2710 H   0  0  0  0  0  0  0  0  0  0  0  0
  -25.7650  -14.7880   20.3760 C   0  0  0  0  0  0  0  0  0  0  0  0
  -24.7220  -13.9700   20.6990 C   0  0  0  0  0  0  0  0  0  0  0  0
  -25.2230  -12.6340   20.6190 C   0  0  0  0  0  0  0  0  0  0  0  0
  -26.8320  -13.9540   20.1080 N   0  0  0  0  0  0  0  0  0  0  0  0
  -26.5210  -12.6470   20.3200 N   0  0  0  0  0  0  0  0  0  0  0  0
  -24.5190  -11.3500   20.7510 C   0  0  0  0  0  0  0  0  0  0  0  0
  -24.9010  -10.3900   21.7150 C   0  0  0  0  0  3  0  0  0  0  0  0
  -24.1900   -9.1760   21.8380 C   0  0  0  0  0  3  0  0  0  0  0  0
  -23.0830   -8.9120   20.9960 C   0  0  0  0  0  0  0  0  0  0  0  0
  -22.7210   -9.8610   20.0240 C   0  0  0  0  0  3  0  0  0  0  0  0
  -23.4330  -11.0660   19.8980 C   0  0  0  0  0  3  0  0  0  0  0  0
  -22.3500   -7.7500   21.0270 O   0  0  0  0  0  0  0  0  0  0  0  0
  -22.0870   -7.0950   22.2030 C   0  0  0  0  0  0  0  0  0  0  0  0
  -21.4190   -7.7260   23.2760 C   0  0  0  0  0  3  0  0  0  0  0  0
  -21.1090   -6.9960   24.4390 C   0  0  0  0  0  3  0  0  0  0  0  0
  -21.4550   -5.6340   24.5310 C   0  0  0  0  0  0  0  0  0  0  0  0
  -22.1160   -5.0020   23.4620 C   0  0  0  0  0  3  0  0  0  0  0  0
  -22.4270   -5.7300   22.3010 C   0  0  0  0  0  0  0  0  0  0  0  0
  -23.0450   -5.1110   21.2660 F   0  0  0  0  0  0  0  0  0  0  0  0
  -21.1500   -4.9290   25.6450 F   0  0  0  0  0  0  0  0  0  0  0  0
  -23.3110  -14.4070   20.9640 C   0  0  0  0  0  0  0  0  0  0  0  0
  -22.5910  -13.6750   21.8060 N   0  0  0  0  0  0  0  0  0  0  0  0
  -22.8580  -15.4340   20.4620 O   0  0  0  0  0  0  0  0  0  0  0  0
  -22.9740  -12.8440   22.2320 H   0  0  0  0  0  0  0  0  0  0  0  0
  -21.6450  -13.9500   22.0280 H   0  0  0  0  0  0  0  0  0  0  0  0
  -25.8930  -16.1680   20.2490 N   0  0  0  0  0  0  0  0  0  0  0  0
  -25.1030  -16.7940   20.3610 H   0  0  0  0  0  0  0  0  0  0  0  0
  -26.7230  -16.6330   19.9060 H   0  0  0  0  0  0  0  0  0  0  0  0
  -28.2110  -26.2330   19.7230 O   0  0  0  0  0  0  0  0  0  0  0  0
  -25.3210  -32.2570   24.0790 C   0  0  0  0  0  0  0  0  0  0  0  0
  -27.3630  -27.5730   20.0300 C   0  0  0  0  0  0  0  0  0  0  0  0
  -23.9800  -31.2550   22.2820 C   0  0  0  0  0  3  0  0  0  0  0  0
  -25.2600  -29.8170   20.4970 C   0  0  0  0  0  0  0  0  0  0  0  0
  -26.5600  -31.2300   22.0550 C   0  0  0  0  0  2  0  0  0  0  0  0
  -26.4980  -29.9280   21.1400 C   0  0  0  0  0  0  0  0  0  0  0  0
  -27.5230  -28.8410   20.8890 C   0  0  0  0  0  3  0  0  0  0  0  0
  -26.1380  -27.7790   19.3270 C   0  0  0  0  0  3  0  0  0  0  0  0
  -25.1320  -28.7720   19.5660 C   0  0  0  0  0  3  0  0  0  0  0  0
  -24.1210  -30.8160   20.7930 C   0  0  0  0  0  2  0  0  0  0  0  0
  -25.3170  -31.6070   22.8610 N   0  0  0  0  0  0  0  0  0  0  0  0
  -24.2710  -32.5160   24.6940 O   0  0  0  0  0  0  0  0  0  0  0  0
  -23.2440  -30.1570   23.0980 C   0  0  0  0  0  0  0  0  0  0  0  0
  -21.9440  -29.9210   22.8290 N   0  0  0  0  0  0  0  0  0  0  0  0
  -23.8590  -29.5150   23.9520 O   0  0  0  0  0  0  0  0  0  0  0  0
  -21.4910  -30.4940   22.1290 H   0  0  0  0  0  0  0  0  0  0  0  0
  -18.6520  -28.3710   22.8530 C   0  0  0  0  0  0  0  0  0  0  0  0
  -21.1260  -28.8650   23.4390 C   0  0  0  0  0  3  0  0  0  0  0  0
  -21.4370  -27.4870   22.8060 C   0  0  0  0  0  2  0  0  0  0  0  0
  -20.5000  -27.1330   21.6460 C   0  0  0  0  0  2  0  0  0  0  0  0
  -19.0460  -27.0980   22.1230 C   0  0  0  0  0  2  0  0  0  0  0  0
  -19.6300  -29.2090   23.4570 C   0  0  0  0  0  0  0  0  0  0  0  0
  -19.2080  -30.3930   24.1010 C   0  0  0  0  0  3  0  0  0  0  0  0
  -17.8450  -30.7440   24.1440 C   0  0  0  0  0  3  0  0  0  0  0  0
  -16.8830  -29.9080   23.5530 C   0  0  0  0  0  3  0  0  0  0  0  0
  -17.2870  -28.7210   22.9140 C   0  0  0  0  0  3  0  0  0  0  0  0
  -26.6450  -32.7190   24.7610 C   0  0  0  0  0  3  0  0  0  0  0  0
  -26.4310  -34.0670   25.3290 N   0  0  0  0  0  0  0  0  0  0  0  0
  -26.8370  -35.2170   24.7740 C   0  0  0  0  0  0  0  0  0  0  0  0
  -27.4830  -35.2530   23.7250 O   0  0  0  0  0  0  0  0  0  0  0  0
  -25.8560  -34.1160   26.1580 H   0  0  0  0  0  0  0  0  0  0  0  0
  -25.2700  -37.1930   24.7960 C   0  0  0  0  0  1  0  0  0  0  0  0
  -26.4730  -36.5370   25.4910 C   0  0  0  0  0  3  0  0  0  0  0  0
  -28.6770  -37.0820   26.4340 C   0  0  0  0  0  1  0  0  0  0  0  0
  -27.5910  -37.5050   25.5550 N   0  0  0  0  0  0  0  0  0  0  0  0
  -27.2640  -38.4140   25.8700 H   0  0  0  0  0  0  0  0  0  0  0  0
  -27.1260  -31.7360   25.9010 C   0  0  1  0  0  0  0  0  0  0  0  0
  -26.0400  -31.4230   26.9570 C   0  0  0  0  0  1  0  0  0  0  0  0
  -27.6000  -30.3870   25.3140 C   0  0  0  0  0  1  0  0  0  0  0  0
  -28.3450  -32.3420   26.6350 C   0  0  0  0  0  1  0  0  0  0  0  0
  1  5  1  0
  2  6  2  0
  2  4  1  0
  3  7  1  0
  3  5  2  0
  4  1  2  0
  5  8  1  0
  6  3  1  0
  7  9  1  0
  8 10  1  0
  9 11  1  0
 10 11  1  0
 12  7  2  0
 13 22  1  0
 14 19  1  0
 15 16  1  0
 15 14  1  0
 17 16  1  0
 17 28  1  0
 17 18  1  0
 19 13  1  0
 19 18  1  0
 20 13  2  0
 21  4  1  0
 21 22  1  0
 22 24  1  0
 23 21  2  0
 25 26  2  0
 26 45  1  0
 27 26  1  0
 27 30  1  0
 28 29  1  0
 28 25  1  0
 29 27  2  0
 30 31  1  0
 31 32  2  0
 33 36  1  0
 33 32  1  0
 34 33  2  0
 35 34  1  0
 35 30  2  0
 36 37  1  0
 37 42  2  0
 37 38  1  0
 38 39  2  0
 39 40  1  0
 40 44  1  0
 41 40  2  0
 42 41  1  0
 43 42  1  0
 45 46  1  0
 46 49  1  0
 46 48  1  0
 47 45  2  0
 50 51  1  0
 50 25  1  0
 52 50  1  0
 53  6  1  0
 53 55  1  0
 54 65  2  0
 55 60  1  0
 56 64  1  0
 56 66  1  0
 57 63  1  0
 57 59  1  0
 58 64  1  0
 59 58  1  0
 60 59  2  0
 61 62  1  0
 61 55  2  0
 62 57  2  0
 63 56  1  0
 64 54  1  0
 66 68  2  0
 67 66  1  0
 69 67  1  0
 70 79  2  0
 70 75  1  0
 71 67  1  0
 71 75  1  0
 72 71  1  0
 73 74  1  0
 73 72  1  0
 74 70  1  0
 75 76  2  0
 76 77  1  0
 78 77  2  0
 79 78  1  0
 80 54  1  0
 80 81  1  0
 80 90  1  0
 81 84  1  0
 82 81  1  0
 82 86  1  0
 83 82  2  0
 86 85  1  0
 86 88  1  0
 88 89  1  0
 88 87  1  0
 90 93  1  1
 90 91  1  0
 92 90  1  0
M  ISO  4   6 101  13 100  22 100  53 101
M  END
>  <TORSDO>  (97) 
F 16

>  <SCORE>  (97) 
-7.583

>  <name>  (97) 
96

>  <ligand_id>  (97) 
96

>  <original_smiles>  (97) 
[H]c1c([H])c([H])c2c(c1[H])C([H])([H])C([H])([H])C([H])([H])C2([H])N([H])C(=O)C1([H])N(C(=O)C([H])(N([H])C(=O)C([H])(N([H])C([H])([H])[H])C([H])([H])[H])C(C([H])([H])[H])(C([H])([H])[H])C([H])([H])[H])C([H])([H])c2c([H])c(Oc3c([H])c(C(=O)N([H])C(=O)N4C([H])([H])C([H])([H])C([H])([H])C([H])(n5nc(-c6c([H])c([H])c(Oc7c([H])c([H])c(F)c([H])c7F)c([H])c6[H])c(C(=O)N([H])[H])c5N([H])[H])C4([H])[H])c([H])c4c3C(=O)C([H])([H])C([H])([H])C([H])([H])C4([H])[H])c([H])c([H])c2C1([H])[H]

>  <smiles>  (97) 
[H]c1c([H])c([H])c2c(c1[H])C([H])([H])C([H])([H])C([H])([H])C2([H])N([H])C(=O)C1([H])N(C(=O)C([H])(N([H])C(=O)C([H])(N([H])C([H])([H])[H])C([H])([H])[H])C(C([H])([H])[H])(C([H])([H])[H])C([H])([H])[H])C([H])([H])c2c([H])c(Oc3c([H])c(C(=O)N([H])C(=O)N4C([H])([H])C([H])([H])C([H])([H])C([H])(n5nc(-c6c([H])c([H])c(Oc7c([H])c([H])c(F)c([H])c7F)c([H])c6[H])c(C(=O)N([H])[H])c5N([H])[H])C4([H])[H])c([H])c4c3C(=O)C([H])([H])C([H])([H])C([H])([H])C4([H])[H])c([H])c([H])c2C1([H])[H]

$$$$
