0:0:0
     RDKit          3D

 92100  0  0  1  0  0  0  0  0999 V2000
  -29.9070  -20.1500   22.8780 C   0  0  0  0  0  3  0  0  0  0  0  0
  -29.8600  -18.9270   22.2030 C   0  0  0  0  0  3  0  0  0  0  0  0
  -29.6870  -21.3740   22.2170 C   0  0  0  0  0  0  0  0  0  0  0  0
  -29.7180  -18.8430   20.8070 C   0  0  0  0  0  0  0  0  0  0  0  0
  -29.5150  -20.1130   20.1120 C   0  0  0  0  0  0  0  0  0  0  0  0
  -29.4410  -21.3970   20.8120 C   0  0  0  0  0  0  0  0  0  0  0  0
  -29.6780  -22.6120   23.1040 C   0  0  0  0  0  1  0  0  0  0  0  0
  -29.3400  -20.1350   18.6010 C   0  0  0  0  0  1  0  0  0  0  0  0
  -29.7490  -17.3560   20.2130 C   0  0  0  0  0  2  0  0  0  0  0  0
  -31.6880  -16.4270   21.7510 C   0  0  0  0  0  1  0  0  0  0  0  0
  -32.1320  -17.4540   19.5410 C   0  0  0  0  0  1  0  0  0  0  0  0
  -31.1270  -16.5150   20.3070 C   0  0  2  0  0  0  0  0  0  0  0  0
  -31.3140  -15.0060   19.7200 C   0  0  0  0  0  0  0  0  0  0  0  0
  -30.7860  -12.7280   18.8460 C   0  0  0  0  0  2  0  0  0  0  0  0
  -29.8050  -12.8110   17.6650 C   0  0  0  0  0  2  0  0  0  0  0  0
  -28.3670  -12.7050   18.1900 C   0  0  0  0  0  2  0  0  0  0  0  0
  -28.1020  -13.6420   19.3980 C   0  0  0  0  0  3  0  0  0  0  0  0
  -29.2410  -13.6450   20.4500 C   0  0  0  0  0  2  0  0  0  0  0  0
  -30.5130  -13.8780   19.7550 N   0  0  0  0  0  0  0  0  0  0  0  0
  -32.3960  -14.8660   19.1510 O   0  0  0  0  0  0  0  0  0  0  0  0
  -25.8190  -14.2810   20.3700 C   0  0  0  0  0  0  0  0  0  0  0  0
  -24.7440  -13.5330   20.7720 C   0  0  0  0  0  0  0  0  0  0  0  0
  -25.1280  -12.1680   20.6100 C   0  0  0  0  0  0  0  0  0  0  0  0
  -26.7920  -13.3730   19.9900 N   0  0  0  0  0  0  0  0  0  0  0  0
  -26.3890  -12.0880   20.1950 N   0  0  0  0  0  0  0  0  0  0  0  0
  -24.3390  -10.9340   20.7680 C   0  0  0  0  0  0  0  0  0  0  0  0
  -24.7370   -9.9090   21.6510 C   0  0  0  0  0  3  0  0  0  0  0  0
  -23.9500   -8.7460   21.8030 C   0  0  0  0  0  3  0  0  0  0  0  0
  -22.7510   -8.6000   21.0670 C   0  0  0  0  0  0  0  0  0  0  0  0
  -22.3700   -9.6150   20.1700 C   0  0  0  0  0  3  0  0  0  0  0  0
  -23.1570  -10.7670   20.0190 C   0  0  0  0  0  3  0  0  0  0  0  0
  -21.9350   -7.4950   21.1310 O   0  0  0  0  0  0  0  0  0  0  0  0
  -21.8070   -6.7590   22.2820 C   0  0  0  0  0  0  0  0  0  0  0  0
  -21.3480   -7.3350   23.4870 C   0  0  0  0  0  3  0  0  0  0  0  0
  -21.1630   -6.5290   24.6280 C   0  0  0  0  0  3  0  0  0  0  0  0
  -21.4310   -5.1480   24.5660 C   0  0  0  0  0  0  0  0  0  0  0  0
  -21.8840   -4.5720   23.3660 C   0  0  0  0  0  3  0  0  0  0  0  0
  -22.0680   -5.3750   22.2270 C   0  0  0  0  0  0  0  0  0  0  0  0
  -22.4810   -4.8100   21.0660 F   0  0  0  0  0  0  0  0  0  0  0  0
  -21.2490   -4.3720   25.6590 F   0  0  0  0  0  0  0  0  0  0  0  0
  -23.4040  -14.0650   21.1860 C   0  0  0  0  0  0  0  0  0  0  0  0
  -22.7080  -13.3610   22.0740 N   0  0  0  0  0  0  0  0  0  0  0  0
  -22.9830  -15.1400   20.7650 O   0  0  0  0  0  0  0  0  0  0  0  0
  -23.0610  -12.4940   22.4500 H   0  0  0  0  0  0  0  0  0  0  0  0
  -21.8090  -13.7030   22.3870 H   0  0  0  0  0  0  0  0  0  0  0  0
  -26.0330  -15.6500   20.2710 N   0  0  0  0  0  0  0  0  0  0  0  0
  -25.2900  -16.3150   20.4670 H   0  0  0  0  0  0  0  0  0  0  0  0
  -26.8650  -16.0840   19.8930 H   0  0  0  0  0  0  0  0  0  0  0  0
  -28.9360  -22.7350   20.1040 C   0  0  0  0  0  2  0  0  0  0  0  0
  -29.4160  -24.2190   20.4830 C   0  0  0  0  0  3  0  0  0  0  0  0
  -28.6190  -25.3960   19.7760 C   0  0  0  0  0  3  0  0  0  0  0  0
  -28.7720  -26.8150   20.1940 O   0  0  0  0  0  0  0  0  0  0  0  0
  -24.5970  -31.8060   23.2640 C   0  0  0  0  0  0  0  0  0  0  0  0
  -27.6350  -27.6360   20.0840 C   0  0  0  0  0  0  0  0  0  0  0  0
  -23.5640  -30.4170   21.5080 C   0  0  0  0  0  3  0  0  0  0  0  0
  -25.1770  -29.0880   20.0460 C   0  0  0  0  0  0  0  0  0  0  0  0
  -26.0720  -30.9480   21.4330 C   0  0  0  0  0  2  0  0  0  0  0  0
  -26.2800  -29.6140   20.7280 C   0  0  0  0  0  0  0  0  0  0  0  0
  -27.5140  -28.8940   20.7510 C   0  0  0  0  0  3  0  0  0  0  0  0
  -26.5200  -27.2010   19.3260 C   0  0  0  0  0  3  0  0  0  0  0  0
  -25.2970  -27.8890   19.3340 C   0  0  0  0  0  3  0  0  0  0  0  0
  -23.8750  -29.8590   20.0970 C   0  0  0  0  0  2  0  0  0  0  0  0
  -24.7600  -31.0710   22.1280 N   0  0  0  0  0  0  0  0  0  0  0  0
  -23.4770  -31.9640   23.7730 O   0  0  0  0  0  0  0  0  0  0  0  0
  -22.9630  -29.2860   22.3800 C   0  0  0  0  0  0  0  0  0  0  0  0
  -21.6610  -29.0050   22.1980 N   0  0  0  0  0  0  0  0  0  0  0  0
  -23.6670  -28.6690   23.1840 O   0  0  0  0  0  0  0  0  0  0  0  0
  -21.1420  -29.5650   21.5340 H   0  0  0  0  0  0  0  0  0  0  0  0
  -18.3750  -27.5340   22.5410 C   0  0  0  0  0  0  0  0  0  0  0  0
  -20.9000  -27.9660   22.8940 C   0  0  0  0  0  3  0  0  0  0  0  0
  -21.1220  -26.5800   22.2440 C   0  0  0  0  0  2  0  0  0  0  0  0
  -20.0730  -26.2360   21.1830 C   0  0  0  0  0  2  0  0  0  0  0  0
  -18.6670  -26.2450   21.7920 C   0  0  0  0  0  2  0  0  0  0  0  0
  -19.4230  -28.3500   23.0440 C   0  0  0  0  0  0  0  0  0  0  0  0
  -19.0950  -29.5560   23.7000 C   0  0  0  0  0  3  0  0  0  0  0  0
  -17.7510  -29.9490   23.8550 C   0  0  0  0  0  3  0  0  0  0  0  0
  -16.7180  -29.1300   23.3650 C   0  0  0  0  0  3  0  0  0  0  0  0
  -17.0310  -27.9240   22.7150 C   0  0  0  0  0  3  0  0  0  0  0  0
  -25.8020  -32.5000   23.9670 C   0  0  0  0  0  3  0  0  0  0  0  0
  -25.4270  -33.8980   24.2200 N   0  0  0  0  0  0  0  0  0  0  0  0
  -25.7680  -34.9290   23.4360 C   0  0  0  0  0  0  0  0  0  0  0  0
  -26.5010  -34.8070   22.4520 O   0  0  0  0  0  0  0  0  0  0  0  0
  -24.7900  -34.0700   24.9850 H   0  0  0  0  0  0  0  0  0  0  0  0
  -23.9980  -36.6380   22.9110 C   0  0  0  0  0  1  0  0  0  0  0  0
  -25.2050  -36.3140   23.8040 C   0  0  0  0  0  3  0  0  0  0  0  0
  -27.2510  -37.3240   24.7120 C   0  0  0  0  0  1  0  0  0  0  0  0
  -26.2020  -37.4010   23.6980 N   0  0  0  0  0  0  0  0  0  0  0  0
  -25.7510  -38.3100   23.7740 H   0  0  0  0  0  0  0  0  0  0  0  0
  -26.2430  -31.7890   25.3070 C   0  0  1  0  0  0  0  0  0  0  0  0
  -25.0730  -31.5230   26.2850 C   0  0  0  0  0  1  0  0  0  0  0  0
  -26.9250  -30.4350   25.0020 C   0  0  0  0  0  1  0  0  0  0  0  0
  -27.3010  -32.6520   26.0370 C   0  0  0  0  0  1  0  0  0  0  0  0
  2  1  2  0
  3  1  1  0
  3  7  1  0
  4  2  1  0
  5  4  2  0
  5  6  1  0
  6  3  2  0
  8  5  1  0
  9 12  1  0
  9  4  1  0
 12 11  1  6
 12 10  1  0
 13 19  1  0
 13 12  1  0
 14 19  1  0
 15 16  1  0
 15 14  1  0
 17 16  1  0
 17 24  1  0
 17 18  1  0
 19 18  1  0
 20 13  2  0
 21 22  2  0
 22 41  1  0
 23 26  1  0
 23 22  1  0
 24 25  1  0
 24 21  1  0
 25 23  2  0
 26 27  1  0
 27 28  2  0
 29 32  1  0
 29 28  1  0
 30 29  2  0
 31 30  1  0
 31 26  2  0
 32 33  1  0
 33 34  1  0
 34 35  2  0
 36 35  1  0
 36 40  1  0
 37 36  2  0
 38 33  2  0
 38 37  1  0
 39 38  1  0
 41 42  1  0
 42 45  1  0
 42 44  1  0
 43 41  2  0
 46 21  1  0
 46 47  1  0
 48 46  1  0
 49 50  1  0
 49  6  1  0
 51 52  1  0
 51 50  2  0
 53 64  2  0
 54 52  1  0
 54 59  1  0
 55 63  1  0
 55 65  1  0
 56 62  1  0
 56 58  1  0
 57 63  1  0
 58 59  2  0
 58 57  1  0
 60 61  1  0
 60 54  2  0
 61 56  2  0
 62 55  1  0
 63 53  1  0
 65 67  2  0
 66 65  1  0
 68 66  1  0
 69 78  2  0
 69 74  1  0
 70 66  1  0
 70 74  1  0
 71 70  1  0
 72 73  1  0
 72 71  1  0
 73 69  1  0
 74 75  2  0
 75 76  1  0
 77 76  2  0
 78 77  1  0
 79 53  1  0
 79 80  1  0
 79 89  1  0
 80 83  1  0
 81 85  1  0
 81 80  1  0
 82 81  2  0
 85 84  1  0
 87 88  1  0
 87 85  1  0
 87 86  1  0
 89 92  1  1
 89 90  1  0
 91 89  1  0
M  ISO  4  12 100  13 100  51 101  52 101
M  END
>  <TORSDO>  (1) 
F 21

>  <SCORE>  (1) 
-10.642

>  <name>  (1) 
0

>  <ligand_id>  (1) 
0

>  <original_smiles>  (1) 
[H]c1c([H])c([H])c2c(c1[H])C([H])([H])C([H])([H])C([H])([H])C2([H])N([H])C(=O)C1([H])N(C(=O)C([H])(N([H])C(=O)C([H])(N([H])C([H])([H])[H])C([H])([H])[H])C(C([H])([H])[H])(C([H])([H])[H])C([H])([H])[H])C([H])([H])c2c([H])c(OC([H])([H])C([H])([H])C([H])([H])c3c(C([H])([H])[H])c([H])c([H])c(C([H])([H])C(C(=O)N4C([H])([H])C([H])([H])C([H])([H])C([H])(n5nc(-c6c([H])c([H])c(Oc7c([H])c([H])c(F)c([H])c7F)c([H])c6[H])c(C(=O)N([H])[H])c5N([H])[H])C4([H])[H])(C([H])([H])[H])C([H])([H])[H])c3C([H])([H])[H])c([H])c([H])c2C1([H])[H]

>  <smiles>  (1) 
[H]c1c([H])c([H])c2c(c1[H])C([H])([H])C([H])([H])C([H])([H])C2([H])N([H])C(=O)C1([H])N(C(=O)C([H])(N([H])C(=O)C([H])(N([H])C([H])([H])[H])C([H])([H])[H])C(C([H])([H])[H])(C([H])([H])[H])C([H])([H])[H])C([H])([H])c2c([H])c(OC([H])([H])C([H])([H])C([H])([H])c3c(C([H])([H])[H])c([H])c([H])c(C([H])([H])C(C(=O)N4C([H])([H])C([H])([H])C([H])([H])C([H])(n5nc(-c6c([H])c([H])c(Oc7c([H])c([H])c(F)c([H])c7F)c([H])c6[H])c(C(=O)N([H])[H])c5N([H])[H])C4([H])[H])(C([H])([H])[H])C([H])([H])[H])c3C([H])([H])[H])c([H])c([H])c2C1([H])[H]

$$$$
1:0:0
     RDKit          3D

 90 99  0  0  1  0  0  0  0  0999 V2000
  -29.7270  -19.0700   21.7560 C   0  0  0  0  0  3  0  0  0  0  0  0
  -30.0560  -17.1670   20.0160 C   0  0  0  0  0  0  0  0  0  0  0  0
  -29.4570  -20.1600   20.8600 C   0  0  0  0  0  0  0  0  0  0  0  0
  -29.4230  -19.8150   19.5290 C   0  0  0  0  0  0  0  0  0  0  0  0
  -30.0100  -17.6820   21.3730 C   0  0  0  0  0  0  0  0  0  0  0  0
  -29.7470  -18.3680   19.1120 C   0  0  0  0  0  0  0  0  0  0  0  0
  -29.2040  -21.7420   21.1240 C   0  0  0  0  0  2  0  0  0  0  0  0
  -29.0280  -21.2620   18.8250 C   0  0  0  0  0  2  0  0  0  0  0  0
  -28.5370  -22.5460   19.8610 C   0  0  1  0  0  0  0  0  0  0  0  0
  -30.3520  -16.7360   22.5160 C   0  0  0  0  0  1  0  0  0  0  0  0
  -29.7960  -18.1080   17.6220 C   0  0  0  0  0  1  0  0  0  0  0  0
  -27.0160  -22.3320   19.9970 C   0  0  0  0  0  1  0  0  0  0  0  0
  -30.6510  -15.5930   19.6550 C   0  0  0  0  0  0  0  0  0  0  0  0
  -30.5680  -13.1080   18.8450 C   0  0  0  0  0  2  0  0  0  0  0  0
  -29.5720  -12.8830   17.6770 C   0  0  0  0  0  2  0  0  0  0  0  0
  -28.1640  -12.5910   18.2190 C   0  0  0  0  0  2  0  0  0  0  0  0
  -27.7870  -13.5500   19.3750 C   0  0  0  0  0  3  0  0  0  0  0  0
  -28.9130  -13.7420   20.4150 C   0  0  0  0  0  2  0  0  0  0  0  0
  -30.0910  -14.2670   19.7040 N   0  0  0  0  0  0  0  0  0  0  0  0
  -31.8160  -15.5340   19.2310 O   0  0  0  0  0  0  0  0  0  0  0  0
  -25.5170  -14.0810   20.3960 C   0  0  0  0  0  0  0  0  0  0  0  0
  -24.4850  -13.2950   20.8260 C   0  0  0  0  0  0  0  0  0  0  0  0
  -24.9240  -11.9440   20.6740 C   0  0  0  0  0  0  0  0  0  0  0  0
  -26.5140  -13.2100   19.9970 N   0  0  0  0  0  0  0  0  0  0  0  0
  -26.1790  -11.9140   20.2330 N   0  0  0  0  0  0  0  0  0  0  0  0
  -24.1960  -10.6810   20.8690 C   0  0  0  0  0  0  0  0  0  0  0  0
  -24.6230   -9.7150   21.8050 C   0  0  0  0  0  3  0  0  0  0  0  0
  -23.8920   -8.5210   21.9880 C   0  0  0  0  0  3  0  0  0  0  0  0
  -22.7180   -8.2840   21.2350 C   0  0  0  0  0  0  0  0  0  0  0  0
  -22.3080   -9.2400   20.2870 C   0  0  0  0  0  3  0  0  0  0  0  0
  -23.0400  -10.4240   20.1030 C   0  0  0  0  0  3  0  0  0  0  0  0
  -21.9580   -7.1430   21.3260 O   0  0  0  0  0  0  0  0  0  0  0  0
  -21.7900   -6.4840   22.5170 C   0  0  0  0  0  0  0  0  0  0  0  0
  -21.2150   -7.1120   23.6430 C   0  0  0  0  0  3  0  0  0  0  0  0
  -20.9980   -6.3770   24.8250 C   0  0  0  0  0  3  0  0  0  0  0  0
  -21.3450   -5.0150   24.8820 C   0  0  0  0  0  0  0  0  0  0  0  0
  -21.9130   -4.3850   23.7600 C   0  0  0  0  0  3  0  0  0  0  0  0
  -22.1320   -5.1170   22.5800 C   0  0  0  0  0  0  0  0  0  0  0  0
  -22.6590   -4.5000   21.4960 F   0  0  0  0  0  0  0  0  0  0  0  0
  -21.1300   -4.3060   26.0150 F   0  0  0  0  0  0  0  0  0  0  0  0
  -23.1280  -13.7740   21.2530 C   0  0  0  0  0  0  0  0  0  0  0  0
  -22.4790  -13.0540   22.1610 N   0  0  0  0  0  0  0  0  0  0  0  0
  -22.6570  -14.8240   20.8180 O   0  0  0  0  0  0  0  0  0  0  0  0
  -22.8750  -12.2060   22.5390 H   0  0  0  0  0  0  0  0  0  0  0  0
  -21.5710  -13.3570   22.4840 H   0  0  0  0  0  0  0  0  0  0  0  0
  -25.6840  -15.4570   20.2850 N   0  0  0  0  0  0  0  0  0  0  0  0
  -24.9480  -16.1120   20.5280 H   0  0  0  0  0  0  0  0  0  0  0  0
  -26.5170  -15.9120   19.9280 H   0  0  0  0  0  0  0  0  0  0  0  0
  -28.5970  -24.3690   19.4690 C   0  0  0  0  0  2  0  0  0  0  0  0
  -28.3610  -25.9470   20.0280 O   0  0  0  0  0  0  0  0  0  0  0  0
  -24.5980  -31.7850   23.0730 C   0  0  0  0  0  0  0  0  0  0  0  0
  -27.3170  -27.0320   19.9100 C   0  0  0  0  0  0  0  0  0  0  0  0
  -23.4500  -30.3830   21.4060 C   0  0  0  0  0  3  0  0  0  0  0  0
  -24.9520  -28.8640   19.9240 C   0  0  0  0  0  0  0  0  0  0  0  0
  -26.0080  -30.6800   21.2580 C   0  0  0  0  0  2  0  0  0  0  0  0
  -26.1250  -29.2850   20.5600 C   0  0  0  0  0  0  0  0  0  0  0  0
  -27.2900  -28.3850   20.5350 C   0  0  0  0  0  3  0  0  0  0  0  0
  -26.1120  -26.7830   19.2150 C   0  0  0  0  0  3  0  0  0  0  0  0
  -24.9730  -27.6380   19.2330 C   0  0  0  0  0  3  0  0  0  0  0  0
  -23.6990  -29.7420   20.0090 C   0  0  0  0  0  2  0  0  0  0  0  0
  -24.7060  -30.9800   21.9650 N   0  0  0  0  0  0  0  0  0  0  0  0
  -23.5020  -32.0190   23.6080 O   0  0  0  0  0  0  0  0  0  0  0  0
  -22.8010  -29.3410   22.3540 C   0  0  0  0  0  0  0  0  0  0  0  0
  -21.4810  -29.1110   22.2220 N   0  0  0  0  0  0  0  0  0  0  0  0
  -23.4930  -28.7390   23.1780 O   0  0  0  0  0  0  0  0  0  0  0  0
  -20.9720  -29.6520   21.5360 H   0  0  0  0  0  0  0  0  0  0  0  0
  -18.1690  -27.7010   22.6860 C   0  0  0  0  0  0  0  0  0  0  0  0
  -20.7070  -28.1180   22.9750 C   0  0  0  0  0  3  0  0  0  0  0  0
  -20.8980  -26.7010   22.3840 C   0  0  0  0  0  2  0  0  0  0  0  0
  -19.8260  -26.3250   21.3570 C   0  0  0  0  0  2  0  0  0  0  0  0
  -18.4330  -26.3760   21.9900 C   0  0  0  0  0  2  0  0  0  0  0  0
  -19.2350  -28.5250   23.1350 C   0  0  0  0  0  0  0  0  0  0  0  0
  -18.9320  -29.7590   23.7490 C   0  0  0  0  0  3  0  0  0  0  0  0
  -17.5970  -30.1710   23.9190 C   0  0  0  0  0  3  0  0  0  0  0  0
  -16.5450  -29.3460   23.4820 C   0  0  0  0  0  3  0  0  0  0  0  0
  -16.8320  -28.1120   22.8720 C   0  0  0  0  0  3  0  0  0  0  0  0
  -25.8450  -32.4660   23.7170 C   0  0  0  0  0  3  0  0  0  0  0  0
  -25.4740  -33.8450   24.0870 N   0  0  0  0  0  0  0  0  0  0  0  0
  -25.7400  -34.9360   23.3570 C   0  0  0  0  0  0  0  0  0  0  0  0
  -26.3860  -34.8920   22.3080 O   0  0  0  0  0  0  0  0  0  0  0  0
  -24.8970  -33.9480   24.9070 H   0  0  0  0  0  0  0  0  0  0  0  0
  -23.9180  -36.6600   23.1220 C   0  0  0  0  0  1  0  0  0  0  0  0
  -25.2090  -36.2910   23.8700 C   0  0  0  0  0  3  0  0  0  0  0  0
  -27.3260  -37.2670   24.6440 C   0  0  0  0  0  1  0  0  0  0  0  0
  -26.1840  -37.3960   23.7420 N   0  0  0  0  0  0  0  0  0  0  0  0
  -25.7400  -38.2920   23.9220 H   0  0  0  0  0  0  0  0  0  0  0  0
  -26.3870  -31.6970   24.9850 C   0  0  1  0  0  0  0  0  0  0  0  0
  -25.2970  -31.3840   26.0390 C   0  0  0  0  0  1  0  0  0  0  0  0
  -27.0420  -30.3570   24.5830 C   0  0  0  0  0  1  0  0  0  0  0  0
  -27.4910  -32.5330   25.6750 C   0  0  0  0  0  1  0  0  0  0  0  0
  2  5  2  0
  3  7  1  0
  3  1  2  0
  4  3  1  0
  5  1  1  0
  5 10  1  0
  6  4  2  0
  6  2  1  0
  8  4  1  0
  8  9  1  0
  9 12  1  1
  9  7  1  0
 11  6  1  0
 13 19  1  0
 13  2  1  0
 14 19  1  0
 15 16  1  0
 15 14  1  0
 17 16  1  0
 17 24  1  0
 17 18  1  0
 19 18  1  0
 20 13  2  0
 21 22  2  0
 22 41  1  0
 23 22  1  0
 23 26  1  0
 24 25  1  0
 24 21  1  0
 25 23  2  0
 26 27  1  0
 27 28  2  0
 29 32  1  0
 29 28  1  0
 30 29  2  0
 31 30  1  0
 31 26  2  0
 32 33  1  0
 33 38  2  0
 33 34  1  0
 34 35  2  0
 35 36  1  0
 36 40  1  0
 37 36  2  0
 38 37  1  0
 39 38  1  0
 41 42  1  0
 42 45  1  0
 42 44  1  0
 43 41  2  0
 46 21  1  0
 46 47  1  0
 48 46  1  0
 49  9  1  0
 49 50  1  0
 51 62  2  0
 52 50  1  0
 52 57  1  0
 53 61  1  0
 53 63  1  0
 54 60  1  0
 54 56  1  0
 55 61  1  0
 56 55  1  0
 57 56  2  0
 58 59  1  0
 58 52  2  0
 59 54  2  0
 60 53  1  0
 61 51  1  0
 63 65  2  0
 64 63  1  0
 66 64  1  0
 67 76  2  0
 67 72  1  0
 68 64  1  0
 68 72  1  0
 69 68  1  0
 70 71  1  0
 70 69  1  0
 71 67  1  0
 72 73  2  0
 73 74  1  0
 75 74  2  0
 76 75  1  0
 77 51  1  0
 77 78  1  0
 77 87  1  0
 78 81  1  0
 79 83  1  0
 79 78  1  0
 80 79  2  0
 83 82  1  0
 85 83  1  0
 85 86  1  0
 85 84  1  0
 87 90  1  1
 87 88  1  0
 89 87  1  0
M  ISO  4   2 100  13 100  49 101  50 101
M  END
>  <TORSDO>  (2) 
F 17

>  <SCORE>  (2) 
-15.244

>  <name>  (2) 
1

>  <ligand_id>  (2) 
1

>  <original_smiles>  (2) 
[H]c1c([H])c([H])c2c(c1[H])C([H])([H])C([H])([H])C([H])([H])C2([H])N([H])C(=O)C1([H])N(C(=O)C([H])(N([H])C(=O)C([H])(N([H])C([H])([H])[H])C([H])([H])[H])C(C([H])([H])[H])(C([H])([H])[H])C([H])([H])[H])C([H])([H])c2c([H])c(OC([H])([H])C3(C([H])([H])[H])C([H])([H])c4c([H])c(C([H])([H])[H])c(C(=O)N5C([H])([H])C([H])([H])C([H])([H])C([H])(n6nc(-c7c([H])c([H])c(Oc8c([H])c([H])c(F)c([H])c8F)c([H])c7[H])c(C(=O)N([H])[H])c6N([H])[H])C5([H])[H])c(C([H])([H])[H])c4C3([H])[H])c([H])c([H])c2C1([H])[H]

>  <smiles>  (2) 
[H]c1c([H])c([H])c2c(c1[H])C([H])([H])C([H])([H])C([H])([H])C2([H])N([H])C(=O)C1([H])N(C(=O)C([H])(N([H])C(=O)C([H])(N([H])C([H])([H])[H])C([H])([H])[H])C(C([H])([H])[H])(C([H])([H])[H])C([H])([H])[H])C([H])([H])c2c([H])c(OC([H])([H])C3(C([H])([H])[H])C([H])([H])c4c([H])c(C([H])([H])[H])c(C(=O)N5C([H])([H])C([H])([H])C([H])([H])C([H])(n6nc(-c7c([H])c([H])c(Oc8c([H])c([H])c(F)c([H])c8F)c([H])c7[H])c(C(=O)N([H])[H])c6N([H])[H])C5([H])[H])c(C([H])([H])[H])c4C3([H])[H])c([H])c([H])c2C1([H])[H]

$$$$
2:0:0
     RDKit          3D

 92101  0  0  1  0  0  0  0  0999 V2000
  -30.1780  -18.2950   21.0210 C   0  0  0  0  0  3  0  0  0  0  0  0
  -29.7190  -17.0080   20.4370 C   0  0  0  0  0  0  0  0  0  0  0  0
  -29.6950  -19.6900   20.7300 C   0  0  0  0  0  0  0  0  0  0  0  0
  -28.6950  -19.9640   19.7730 C   0  0  0  0  0  0  0  0  0  0  0  0
  -28.6820  -17.3690   19.4690 C   0  0  0  0  0  0  0  0  0  0  0  0
  -28.1880  -18.7370   19.1870 C   0  0  0  0  0  0  0  0  0  0  0  0
  -30.2420  -21.0030   21.3900 C   0  0  0  0  0  2  0  0  0  0  0  0
  -28.1880  -21.5070   19.3930 C   0  0  0  0  0  2  0  0  0  0  0  0
  -29.4730  -22.4480   21.2730 C   0  0  0  0  0  3  0  0  0  0  0  0
  -28.8790  -22.9590   19.8770 C   0  0  1  0  0  0  0  0  0  0  0  0
  -28.0740  -16.2700   18.5990 C   0  0  0  0  0  1  0  0  0  0  0  0
  -27.0380  -18.8870   18.1870 C   0  0  0  0  0  1  0  0  0  0  0  0
  -28.4120  -22.5910   22.3760 C   0  0  0  0  0  1  0  0  0  0  0  0
  -30.0820  -23.1630   18.9350 C   0  0  0  0  0  1  0  0  0  0  0  0
  -30.4400  -15.4900   20.6250 C   0  0  0  0  0  0  0  0  0  0  0  0
  -30.5160  -13.0110   19.8940 C   0  0  0  0  0  2  0  0  0  0  0  0
  -29.6970  -12.7080   18.6160 C   0  0  0  0  0  2  0  0  0  0  0  0
  -28.2120  -12.4670   18.9480 C   0  0  0  0  0  2  0  0  0  0  0  0
  -27.6610  -13.4440   20.0180 C   0  0  0  0  0  3  0  0  0  0  0  0
  -28.6280  -13.6940   21.1850 C   0  0  0  0  0  2  0  0  0  0  0  0
  -29.8880  -14.1820   20.6060 N   0  0  0  0  0  0  0  0  0  0  0  0
  -31.6800  -15.4550   20.5940 O   0  0  0  0  0  0  0  0  0  0  0  0
  -25.2560  -13.9900   20.6360 C   0  0  0  0  0  0  0  0  0  0  0  0
  -24.1860  -13.2020   20.9390 C   0  0  0  0  0  0  0  0  0  0  0  0
  -24.6740  -11.8580   20.9460 C   0  0  0  0  0  0  0  0  0  0  0  0
  -26.3210  -13.1210   20.4600 N   0  0  0  0  0  0  0  0  0  0  0  0
  -25.9800  -11.8370   20.7180 N   0  0  0  0  0  0  0  0  0  0  0  0
  -23.9560  -10.5890   21.0900 C   0  0  0  0  0  0  0  0  0  0  0  0
  -24.3260   -9.6370   22.0670 C   0  0  0  0  0  3  0  0  0  0  0  0
  -23.6070   -8.4310   22.1990 C   0  0  0  0  0  3  0  0  0  0  0  0
  -22.5020   -8.1710   21.3540 C   0  0  0  0  0  0  0  0  0  0  0  0
  -22.1550   -9.1070   20.3620 C   0  0  0  0  0  3  0  0  0  0  0  0
  -22.8750  -10.3060   20.2300 C   0  0  0  0  0  3  0  0  0  0  0  0
  -21.7560   -7.0180   21.3960 O   0  0  0  0  0  0  0  0  0  0  0  0
  -21.6060   -6.2990   22.5520 C   0  0  0  0  0  0  0  0  0  0  0  0
  -20.9910   -6.8490   23.6990 C   0  0  0  0  0  3  0  0  0  0  0  0
  -20.7950   -6.0530   24.8450 C   0  0  0  0  0  3  0  0  0  0  0  0
  -21.2070   -4.7060   24.8430 C   0  0  0  0  0  0  0  0  0  0  0  0
  -21.8150   -4.1550   23.7020 C   0  0  0  0  0  3  0  0  0  0  0  0
  -22.0130   -4.9490   22.5590 C   0  0  0  0  0  0  0  0  0  0  0  0
  -22.5790   -4.4080   21.4530 F   0  0  0  0  0  0  0  0  0  0  0  0
  -21.0120   -3.9380   25.9410 F   0  0  0  0  0  0  0  0  0  0  0  0
  -22.7650  -13.6570   21.1110 C   0  0  0  0  0  0  0  0  0  0  0  0
  -21.9960  -12.9610   21.9370 N   0  0  0  0  0  0  0  0  0  0  0  0
  -22.3460  -14.6720   20.5520 O   0  0  0  0  0  0  0  0  0  0  0  0
  -22.3500  -12.1430   22.4120 H   0  0  0  0  0  0  0  0  0  0  0  0
  -21.0420  -13.2460   22.1010 H   0  0  0  0  0  0  0  0  0  0  0  0
  -25.4110  -15.3640   20.4680 N   0  0  0  0  0  0  0  0  0  0  0  0
  -24.6330  -16.0090   20.5320 H   0  0  0  0  0  0  0  0  0  0  0  0
  -26.2820  -15.8240   20.2250 H   0  0  0  0  0  0  0  0  0  0  0  0
  -27.9640  -24.5030   19.7660 C   0  0  0  0  0  2  0  0  0  0  0  0
  -28.2390  -26.1030   19.9380 O   0  0  0  0  0  0  0  0  0  0  0  0
  -24.6450  -31.8780   23.1780 C   0  0  0  0  0  0  0  0  0  0  0  0
  -27.2130  -27.1740   19.9340 C   0  0  0  0  0  0  0  0  0  0  0  0
  -23.4440  -30.5410   21.4950 C   0  0  0  0  0  3  0  0  0  0  0  0
  -24.8910  -29.0060   20.0010 C   0  0  0  0  0  0  0  0  0  0  0  0
  -26.0060  -30.7810   21.3340 C   0  0  0  0  0  2  0  0  0  0  0  0
  -26.0820  -29.4040   20.6220 C   0  0  0  0  0  0  0  0  0  0  0  0
  -27.2390  -28.5090   20.5650 C   0  0  0  0  0  3  0  0  0  0  0  0
  -25.9880  -26.9190   19.2820 C   0  0  0  0  0  3  0  0  0  0  0  0
  -24.8650  -27.7830   19.3130 C   0  0  0  0  0  3  0  0  0  0  0  0
  -23.6650  -29.9110   20.0940 C   0  0  0  0  0  2  0  0  0  0  0  0
  -24.7200  -31.0900   22.0560 N   0  0  0  0  0  0  0  0  0  0  0  0
  -23.5590  -32.1400   23.7190 O   0  0  0  0  0  0  0  0  0  0  0  0
  -22.7640  -29.5030   22.4250 C   0  0  0  0  0  0  0  0  0  0  0  0
  -21.4350  -29.3380   22.3040 N   0  0  0  0  0  0  0  0  0  0  0  0
  -23.4390  -28.8470   23.2250 O   0  0  0  0  0  0  0  0  0  0  0  0
  -20.9430  -29.9180   21.6380 H   0  0  0  0  0  0  0  0  0  0  0  0
  -18.0550  -28.1270   22.8210 C   0  0  0  0  0  0  0  0  0  0  0  0
  -20.6210  -28.3670   23.0450 C   0  0  0  0  0  3  0  0  0  0  0  0
  -20.7020  -26.9650   22.3980 C   0  0  0  0  0  2  0  0  0  0  0  0
  -19.5770  -26.6980   21.3930 C   0  0  0  0  0  2  0  0  0  0  0  0
  -18.2100  -26.8170   22.0710 C   0  0  0  0  0  2  0  0  0  0  0  0
  -19.1850  -28.8640   23.2650 C   0  0  0  0  0  0  0  0  0  0  0  0
  -18.9820  -30.0930   23.9300 C   0  0  0  0  0  3  0  0  0  0  0  0
  -17.6820  -30.5860   24.1530 C   0  0  0  0  0  3  0  0  0  0  0  0
  -16.5670  -29.8460   23.7230 C   0  0  0  0  0  3  0  0  0  0  0  0
  -16.7550  -28.6180   23.0650 C   0  0  0  0  0  3  0  0  0  0  0  0
  -25.9190  -32.4990   23.8270 C   0  0  0  0  0  3  0  0  0  0  0  0
  -25.6130  -33.8960   24.1780 N   0  0  0  0  0  0  0  0  0  0  0  0
  -25.9270  -34.9610   23.4290 C   0  0  0  0  0  0  0  0  0  0  0  0
  -26.5700  -34.8700   22.3800 O   0  0  0  0  0  0  0  0  0  0  0  0
  -25.0410  -34.0390   24.9970 H   0  0  0  0  0  0  0  0  0  0  0  0
  -24.1780  -36.7550   23.1720 C   0  0  0  0  0  1  0  0  0  0  0  0
  -25.4570  -36.3460   23.9200 C   0  0  0  0  0  3  0  0  0  0  0  0
  -27.6190  -37.2450   24.6650 C   0  0  0  0  0  1  0  0  0  0  0  0
  -26.4790  -37.4050   23.7670 N   0  0  0  0  0  0  0  0  0  0  0  0
  -26.0750  -38.3220   23.9380 H   0  0  0  0  0  0  0  0  0  0  0  0
  -26.4070  -31.7110   25.1060 C   0  0  1  0  0  0  0  0  0  0  0  0
  -25.2950  -31.4750   26.1540 C   0  0  0  0  0  1  0  0  0  0  0  0
  -26.9860  -30.3330   24.7180 C   0  0  0  0  0  1  0  0  0  0  0  0
  -27.5540  -32.4910   25.7920 C   0  0  0  0  0  1  0  0  0  0  0  0
  2 15  1  0
  2  1  2  0
  3  1  1  0
  3  7  1  0
  4  3  2  0
  5  2  1  0
  6  5  2  0
  6  4  1  0
  8  4  1  0
  8 10  1  0
  9  7  1  0
  9 13  1  0
 10 14  1  6
 10  9  1  0
 11  5  1  0
 12  6  1  0
 16 21  1  0
 17 18  1  0
 17 16  1  0
 19 18  1  0
 19 26  1  0
 19 20  1  0
 21 15  1  0
 21 20  1  0
 22 15  2  0
 23 24  2  0
 24 25  1  0
 24 43  1  0
 25 28  1  0
 26 23  1  0
 26 27  1  0
 27 25  2  0
 28 29  1  0
 29 30  2  0
 31 34  1  0
 31 30  1  0
 32 31  2  0
 33 32  1  0
 33 28  2  0
 34 35  1  0
 35 40  2  0
 35 36  1  0
 36 37  2  0
 38 37  1  0
 38 42  1  0
 39 38  2  0
 40 39  1  0
 41 40  1  0
 43 44  1  0
 44 47  1  0
 44 46  1  0
 45 43  2  0
 48 49  1  0
 48 23  1  0
 50 48  1  0
 51 10  1  0
 51 52  1  0
 53 64  2  0
 54 52  1  0
 54 59  1  0
 55 63  1  0
 55 65  1  0
 56 62  1  0
 56 58  1  0
 57 63  1  0
 58 57  1  0
 59 58  2  0
 60 61  1  0
 60 54  2  0
 61 56  2  0
 62 55  1  0
 63 53  1  0
 65 67  2  0
 66 65  1  0
 68 66  1  0
 69 78  2  0
 69 74  1  0
 70 66  1  0
 70 74  1  0
 71 70  1  0
 72 73  1  0
 72 71  1  0
 73 69  1  0
 74 75  2  0
 75 76  1  0
 77 76  2  0
 78 77  1  0
 79 53  1  0
 79 80  1  0
 79 89  1  0
 80 83  1  0
 81 85  1  0
 81 80  1  0
 82 81  2  0
 85 84  1  0
 87 85  1  0
 87 88  1  0
 87 86  1  0
 89 92  1  1
 89 90  1  0
 91 89  1  0
M  ISO  4   2 100  15 100  51 101  52 101
M  END
>  <TORSDO>  (3) 
F 17

>  <SCORE>  (3) 
-15.281

>  <name>  (3) 
2

>  <ligand_id>  (3) 
2

>  <original_smiles>  (3) 
[H]c1c([H])c([H])c2c(c1[H])C([H])([H])C([H])([H])C([H])([H])C2([H])N([H])C(=O)C1([H])N(C(=O)C([H])(N([H])C(=O)C([H])(N([H])C([H])([H])[H])C([H])([H])[H])C(C([H])([H])[H])(C([H])([H])[H])C([H])([H])[H])C([H])([H])c2c([H])c(OC([H])([H])C3(C([H])([H])[H])C([H])([H])c4c(C([H])([H])[H])c(C([H])([H])[H])c(C(=O)N5C([H])([H])C([H])([H])C([H])([H])C([H])(n6nc(-c7c([H])c([H])c(Oc8c([H])c([H])c(F)c([H])c8F)c([H])c7[H])c(C(=O)N([H])[H])c6N([H])[H])C5([H])[H])c([H])c4C([H])([H])C3([H])C([H])([H])[H])c([H])c([H])c2C1([H])[H]

>  <smiles>  (3) 
[H]c1c([H])c([H])c2c(c1[H])C([H])([H])C([H])([H])C([H])([H])C2([H])N([H])C(=O)C1([H])N(C(=O)C([H])(N([H])C(=O)C([H])(N([H])C([H])([H])[H])C([H])([H])[H])C(C([H])([H])[H])(C([H])([H])[H])C([H])([H])[H])C([H])([H])c2c([H])c(OC([H])([H])C3(C([H])([H])[H])C([H])([H])c4c(C([H])([H])[H])c(C([H])([H])[H])c(C(=O)N5C([H])([H])C([H])([H])C([H])([H])C([H])(n6nc(-c7c([H])c([H])c(Oc8c([H])c([H])c(F)c([H])c8F)c([H])c7[H])c(C(=O)N([H])[H])c6N([H])[H])C5([H])[H])c([H])c4C([H])([H])C3([H])C([H])([H])[H])c([H])c([H])c2C1([H])[H]

$$$$
3:0:0
     RDKit          3D

 98108  0  0  1  0  0  0  0  0999 V2000
  -28.0700  -24.3200   19.5130 C   0  0  0  0  0  3  0  0  0  0  0  0
  -30.3190  -23.7270   21.0440 C   0  0  0  0  0  3  0  0  0  0  0  0
  -28.4150  -22.9610   19.7390 C   0  0  0  0  0  0  0  0  0  0  0  0
  -29.5960  -22.6550   20.4700 C   0  0  0  0  0  0  0  0  0  0  0  0
  -29.9350  -25.0770   20.8470 C   0  0  0  0  0  0  0  0  0  0  0  0
  -28.8130  -25.3990   20.0500 C   0  0  0  0  0  0  0  0  0  0  0  0
  -30.7870  -26.1870   21.4360 C   0  0  0  0  0  1  0  0  0  0  0  0
  -25.7770  -21.2200   17.6670 C   0  0  0  0  0  0  0  0  0  0  0  0
  -25.2250  -20.9480   19.0570 C   0  0  0  0  0  2  0  0  0  0  0  0
  -27.0690  -22.0200   17.7210 C   0  0  0  0  0  2  0  0  0  0  0  0
  -26.1970  -21.6920   19.9840 C   0  0  0  0  0  2  0  0  0  0  0  0
  -27.5020  -21.8600   19.1850 C   0  0  0  0  0  3  0  0  0  0  0  0
  -25.2440  -20.8330   16.6250 O   0  0  0  0  0  0  0  0  0  0  0  0
  -28.6040  -26.7280   19.6780 O   0  0  0  0  0  0  0  0  0  0  0  0
  -24.7180  -31.6970   23.0730 C   0  0  0  0  0  0  0  0  0  0  0  0
  -27.3940  -27.3950   19.8000 C   0  0  0  0  0  0  0  0  0  0  0  0
  -23.5120  -30.3200   21.4130 C   0  0  0  0  0  3  0  0  0  0  0  0
  -24.9700  -28.8690   19.9110 C   0  0  0  0  0  0  0  0  0  0  0  0
  -26.0280  -30.7440   21.1730 C   0  0  0  0  0  2  0  0  0  0  0  0
  -26.1310  -29.3920   20.4920 C   0  0  0  0  0  0  0  0  0  0  0  0
  -27.3440  -28.6620   20.4350 C   0  0  0  0  0  3  0  0  0  0  0  0
  -26.2080  -26.9000   19.2110 C   0  0  0  0  0  3  0  0  0  0  0  0
  -25.0040  -27.6230   19.2690 C   0  0  0  0  0  3  0  0  0  0  0  0
  -23.7080  -29.6980   20.0070 C   0  0  0  0  0  2  0  0  0  0  0  0
  -24.7720  -30.9370   21.9420 N   0  0  0  0  0  0  0  0  0  0  0  0
  -23.6430  -31.9160   23.6470 O   0  0  0  0  0  0  0  0  0  0  0  0
  -22.9140  -29.2460   22.3510 C   0  0  0  0  0  0  0  0  0  0  0  0
  -21.5940  -29.0190   22.2410 N   0  0  0  0  0  0  0  0  0  0  0  0
  -23.6320  -28.6200   23.1360 O   0  0  0  0  0  0  0  0  0  0  0  0
  -21.0720  -29.5760   21.5790 H   0  0  0  0  0  0  0  0  0  0  0  0
  -18.2830  -27.6500   22.7130 C   0  0  0  0  0  0  0  0  0  0  0  0
  -20.8240  -28.0300   22.9950 C   0  0  0  0  0  3  0  0  0  0  0  0
  -21.0000  -26.6140   22.3970 C   0  0  0  0  0  2  0  0  0  0  0  0
  -19.9160  -26.2540   21.3770 C   0  0  0  0  0  2  0  0  0  0  0  0
  -18.5270  -26.3210   22.0190 C   0  0  0  0  0  2  0  0  0  0  0  0
  -19.3610  -28.4610   23.1580 C   0  0  0  0  0  0  0  0  0  0  0  0
  -19.0770  -29.7040   23.7650 C   0  0  0  0  0  3  0  0  0  0  0  0
  -17.7490  -30.1390   23.9320 C   0  0  0  0  0  3  0  0  0  0  0  0
  -16.6860  -29.3250   23.5020 C   0  0  0  0  0  3  0  0  0  0  0  0
  -16.9520  -28.0840   22.9000 C   0  0  0  0  0  3  0  0  0  0  0  0
  -25.9990  -32.3430   23.6870 C   0  0  0  0  0  3  0  0  0  0  0  0
  -26.5790  -31.5330   24.9100 C   0  0  1  0  0  0  0  0  0  0  0  0
  -25.5280  -31.2210   26.0010 C   0  0  0  0  0  1  0  0  0  0  0  0
  -27.1860  -30.1910   24.4370 C   0  0  0  0  0  1  0  0  0  0  0  0
  -27.7300  -32.3310   25.5660 C   0  0  0  0  0  1  0  0  0  0  0  0
  -25.6540  -33.7140   24.0860 N   0  0  0  0  0  0  0  0  0  0  0  0
  -25.9520  -34.8090   23.3770 C   0  0  0  0  0  0  0  0  0  0  0  0
  -26.6170  -34.7730   22.3360 O   0  0  0  0  0  0  0  0  0  0  0  0
  -25.0630  -33.8110   24.8990 H   0  0  0  0  0  0  0  0  0  0  0  0
  -24.1720  -36.5650   23.1160 C   0  0  0  0  0  1  0  0  0  0  0  0
  -25.4290  -36.1590   23.9010 C   0  0  0  0  0  3  0  0  0  0  0  0
  -27.5470  -37.0600   24.7600 C   0  0  0  0  0  1  0  0  0  0  0  0
  -26.4320  -37.2450   23.8330 N   0  0  0  0  0  0  0  0  0  0  0  0
  -26.0010  -38.1450   24.0280 H   0  0  0  0  0  0  0  0  0  0  0  0
  -30.2060  -21.2370   20.5120 C   0  0  0  0  0  2  0  0  0  0  0  0
  -29.4650  -20.1180   21.3010 C   0  0  0  0  0  2  0  0  0  0  0  0
  -31.0230  -14.6110   20.1440 C   0  0  0  0  0  0  0  0  0  0  0  0
  -30.6180  -12.4740   18.9870 C   0  0  0  0  0  2  0  0  0  0  0  0
  -29.6550  -12.7220   17.8080 C   0  0  0  0  0  2  0  0  0  0  0  0
  -28.1900  -12.6130   18.2750 C   0  0  0  0  0  2  0  0  0  0  0  0
  -27.9050  -13.4360   19.5610 C   0  0  0  0  0  3  0  0  0  0  0  0
  -28.9870  -13.1960   20.6380 C   0  0  0  0  0  2  0  0  0  0  0  0
  -30.2930  -13.4680   20.0240 N   0  0  0  0  0  0  0  0  0  0  0  0
  -32.1780  -14.6950   19.7110 O   0  0  0  0  0  0  0  0  0  0  0  0
  -29.6560  -18.1130   19.6560 C   0  0  0  0  0  2  0  0  0  0  0  0
  -29.6760  -17.6120   22.0500 C   0  0  0  0  0  2  0  0  0  0  0  0
  -30.4020  -16.7940   19.3600 C   0  0  0  0  0  2  0  0  0  0  0  0
  -30.4470  -16.2880   21.7940 C   0  0  0  0  0  2  0  0  0  0  0  0
  -30.0540  -18.6950   21.0230 C   0  0  0  0  0  3  0  0  0  0  0  0
  -30.3320  -15.7560   20.4200 N   0  0  0  0  0  0  0  0  0  0  0  0
  -25.5400  -14.0710   20.3450 C   0  0  0  0  0  0  0  0  0  0  0  0
  -24.4680  -13.3120   20.7290 C   0  0  0  0  0  0  0  0  0  0  0  0
  -24.9030  -11.9530   20.6680 C   0  0  0  0  0  0  0  0  0  0  0  0
  -26.5630  -13.1750   20.0760 N   0  0  0  0  0  0  0  0  0  0  0  0
  -26.1850  -11.8960   20.3290 N   0  0  0  0  0  0  0  0  0  0  0  0
  -24.1580  -10.7020   20.8590 C   0  0  0  0  0  0  0  0  0  0  0  0
  -24.5620   -9.7400   21.8110 C   0  0  0  0  0  3  0  0  0  0  0  0
  -23.8200   -8.5530   21.9900 C   0  0  0  0  0  3  0  0  0  0  0  0
  -22.6590   -8.3200   21.2150 C   0  0  0  0  0  0  0  0  0  0  0  0
  -22.2750   -9.2690   20.2530 C   0  0  0  0  0  3  0  0  0  0  0  0
  -23.0180  -10.4470   20.0730 C   0  0  0  0  0  3  0  0  0  0  0  0
  -21.8890   -7.1850   21.3030 O   0  0  0  0  0  0  0  0  0  0  0  0
  -21.7510   -6.4970   22.4810 C   0  0  0  0  0  0  0  0  0  0  0  0
  -21.2570   -7.1140   23.6510 C   0  0  0  0  0  3  0  0  0  0  0  0
  -21.0660   -6.3520   24.8210 C   0  0  0  0  0  3  0  0  0  0  0  0
  -21.3580   -4.9760   24.8220 C   0  0  0  0  0  0  0  0  0  0  0  0
  -21.8440   -4.3580   23.6560 C   0  0  0  0  0  3  0  0  0  0  0  0
  -22.0370   -5.1170   22.4880 C   0  0  0  0  0  0  0  0  0  0  0  0
  -22.4850   -4.5130   21.3610 F   0  0  0  0  0  0  0  0  0  0  0  0
  -21.1660   -4.2420   25.9430 F   0  0  0  0  0  0  0  0  0  0  0  0
  -23.0880  -13.8110   21.0420 C   0  0  0  0  0  0  0  0  0  0  0  0
  -22.3770  -13.1300   21.9340 N   0  0  0  0  0  0  0  0  0  0  0  0
  -22.6480  -14.8400   20.5290 O   0  0  0  0  0  0  0  0  0  0  0  0
  -22.7470  -12.2990   22.3710 H   0  0  0  0  0  0  0  0  0  0  0  0
  -21.4520  -13.4470   22.1850 H   0  0  0  0  0  0  0  0  0  0  0  0
  -25.7270  -15.4400   20.1830 N   0  0  0  0  0  0  0  0  0  0  0  0
  -24.9780  -16.1090   20.3210 H   0  0  0  0  0  0  0  0  0  0  0  0
  -26.5920  -15.8690   19.8790 H   0  0  0  0  0  0  0  0  0  0  0  0
  1  3  2  0
  1  6  1  0
  3  4  1  0
  4 55  1  0
  4  2  2  0
  5  2  1  0
  5  7  1  0
  6  5  2  0
  8 10  1  0
  8  9  1  0
  9 11  1  0
 10 12  1  0
 12  3  1  0
 12 11  1  0
 13  8  2  0
 14 16  1  0
 14  6  1  0
 15 26  2  0
 16 21  1  0
 17 25  1  0
 17 27  1  0
 18 24  1  0
 18 20  1  0
 19 25  1  0
 20 19  1  0
 21 20  2  0
 22 23  1  0
 22 16  2  0
 23 18  2  0
 24 17  1  0
 25 15  1  0
 27 29  2  0
 28 27  1  0
 30 28  1  0
 31 40  2  0
 31 36  1  0
 32 28  1  0
 32 36  1  0
 33 32  1  0
 34 35  1  0
 34 33  1  0
 35 31  1  0
 36 37  2  0
 37 38  1  0
 39 38  2  0
 40 39  1  0
 41 15  1  0
 41 46  1  0
 41 42  1  0
 42 45  1  1
 42 43  1  0
 44 42  1  0
 46 49  1  0
 47 51  1  0
 47 46  1  0
 48 47  2  0
 51 50  1  0
 53 51  1  0
 53 54  1  0
 53 52  1  0
 55 56  1  0
 57 70  1  0
 58 63  1  0
 59 60  1  0
 59 58  1  0
 61 60  1  0
 61 74  1  0
 61 62  1  0
 63 57  1  0
 63 62  1  0
 64 57  2  0
 65 69  1  0
 67 65  1  0
 67 70  1  0
 68 66  1  0
 69 56  1  0
 69 66  1  0
 70 68  1  0
 71 72  2  0
 72 91  1  0
 73 72  1  0
 73 76  1  0
 74 75  1  0
 74 71  1  0
 75 73  2  0
 76 77  1  0
 77 78  2  0
 79 82  1  0
 79 78  1  0
 80 79  2  0
 81 80  1  0
 81 76  2  0
 82 83  1  0
 83 88  2  0
 83 84  1  0
 84 85  2  0
 85 86  1  0
 86 90  1  0
 87 86  2  0
 88 87  1  0
 89 88  1  0
 91 92  1  0
 92 95  1  0
 92 94  1  0
 93 91  2  0
 96 97  1  0
 96 71  1  0
 98 96  1  0
M  ISO  4   6 101  14 101  57 100  70 100
M  END
>  <TORSDO>  (4) 
F 19

>  <SCORE>  (4) 
-12.210

>  <name>  (4) 
3

>  <ligand_id>  (4) 
3

>  <original_smiles>  (4) 
[H]c1c([H])c([H])c2c(c1[H])C([H])([H])C([H])([H])C([H])([H])C2([H])N([H])C(=O)C1([H])N(C(=O)C([H])(N([H])C(=O)C([H])(N([H])C([H])([H])[H])C([H])([H])[H])C(C([H])([H])[H])(C([H])([H])[H])C([H])([H])[H])C([H])([H])c2c([H])c(Oc3c([H])c(C4([H])C([H])([H])C(=O)C([H])([H])C4([H])[H])c(C([H])([H])C([H])([H])C4([H])C([H])([H])C([H])([H])N(C(=O)N5C([H])([H])C([H])([H])C([H])([H])C([H])(n6nc(-c7c([H])c([H])c(Oc8c([H])c([H])c(F)c([H])c8F)c([H])c7[H])c(C(=O)N([H])[H])c6N([H])[H])C5([H])[H])C([H])([H])C4([H])[H])c([H])c3C([H])([H])[H])c([H])c([H])c2C1([H])[H]

>  <smiles>  (4) 
[H]c1c([H])c([H])c2c(c1[H])C([H])([H])C([H])([H])C([H])([H])C2([H])N([H])C(=O)C1([H])N(C(=O)C([H])(N([H])C(=O)C([H])(N([H])C([H])([H])[H])C([H])([H])[H])C(C([H])([H])[H])(C([H])([H])[H])C([H])([H])[H])C([H])([H])c2c([H])c(Oc3c([H])c(C4([H])C([H])([H])C(=O)C([H])([H])C4([H])[H])c(C([H])([H])C([H])([H])C4([H])C([H])([H])C([H])([H])N(C(=O)N5C([H])([H])C([H])([H])C([H])([H])C([H])(n6nc(-c7c([H])c([H])c(Oc8c([H])c([H])c(F)c([H])c8F)c([H])c7[H])c(C(=O)N([H])[H])c6N([H])[H])C5([H])[H])C([H])([H])C4([H])[H])c([H])c3C([H])([H])[H])c([H])c([H])c2C1([H])[H]

$$$$
4:0:0
     RDKit          3D

 96105  0  0  1  0  0  0  0  0999 V2000
  -30.9700  -18.9910   23.7650 C   0  0  0  0  0  3  0  0  0  0  0  0
  -31.2300  -17.8850   22.9470 C   0  0  0  0  0  3  0  0  0  0  0  0
  -30.4440  -20.1770   23.2210 C   0  0  0  0  0  0  0  0  0  0  0  0
  -30.8920  -17.9090   21.5820 C   0  0  0  0  0  0  0  0  0  0  0  0
  -30.2430  -19.0560   21.0410 C   0  0  0  0  0  0  0  0  0  0  0  0
  -30.0870  -20.2330   21.8440 C   0  0  0  0  0  0  0  0  0  0  0  0
  -30.2870  -21.3540   24.1720 C   0  0  0  0  0  1  0  0  0  0  0  0
  -29.7520  -19.0100   19.5950 C   0  0  0  0  0  1  0  0  0  0  0  0
  -29.5630  -21.5550   21.2500 C   0  0  0  0  0  2  0  0  0  0  0  0
  -30.6860  -22.5590   20.9050 C   0  0  0  0  0  0  0  0  0  0  0  0
  -30.4990  -23.8290   21.2930 N   0  0  0  0  0  0  0  0  0  0  0  0
  -31.6830  -22.2030   20.2710 O   0  0  0  0  0  0  0  0  0  0  0  0
  -29.6450  -24.0160   21.8040 H   0  0  0  0  0  0  0  0  0  0  0  0
  -31.3390  -24.9980   20.9960 C   0  0  0  0  0  2  0  0  0  0  0  0
  -30.7000  -25.8630   19.8850 C   0  0  0  0  0  2  0  0  0  0  0  0
  -30.5510  -27.2580   20.2260 O   0  0  0  0  0  0  0  0  0  0  0  0
  -25.4040  -30.7830   23.6380 C   0  0  0  0  0  0  0  0  0  0  0  0
  -29.2580  -27.7450   20.1570 C   0  0  0  0  0  0  0  0  0  0  0  0
  -24.6920  -29.4900   21.6530 C   0  0  0  0  0  3  0  0  0  0  0  0
  -26.5710  -28.6450   20.1510 C   0  0  0  0  0  0  0  0  0  0  0  0
  -27.0610  -30.4490   21.8070 C   0  0  0  0  0  2  0  0  0  0  0  0
  -27.5260  -29.2920   20.9480 C   0  0  0  0  0  0  0  0  0  0  0  0
  -28.8730  -28.8540   20.9460 C   0  0  0  0  0  3  0  0  0  0  0  0
  -28.2810  -27.1300   19.3360 C   0  0  0  0  0  3  0  0  0  0  0  0
  -26.9440  -27.5620   19.3440 C   0  0  0  0  0  3  0  0  0  0  0  0
  -25.1520  -29.1650   20.2100 C   0  0  0  0  0  2  0  0  0  0  0  0
  -25.7290  -30.2470   22.4280 N   0  0  0  0  0  0  0  0  0  0  0  0
  -24.2530  -30.6940   24.0880 O   0  0  0  0  0  0  0  0  0  0  0  0
  -24.2500  -28.1790   22.3410 C   0  0  0  0  0  0  0  0  0  0  0  0
  -23.0470  -27.6950   21.9960 N   0  0  0  0  0  0  0  0  0  0  0  0
  -24.9920  -27.6080   23.1450 O   0  0  0  0  0  0  0  0  0  0  0  0
  -22.4910  -28.2280   21.3430 H   0  0  0  0  0  0  0  0  0  0  0  0
  -20.0860  -25.6280   21.8320 C   0  0  0  0  0  0  0  0  0  0  0  0
  -22.4440  -26.4560   22.4900 C   0  0  0  0  0  3  0  0  0  0  0  0
  -22.9780  -25.2270   21.7170 C   0  0  0  0  0  2  0  0  0  0  0  0
  -22.1030  -24.8380   20.5220 C   0  0  0  0  0  2  0  0  0  0  0  0
  -20.6790  -24.5150   20.9820 C   0  0  0  0  0  2  0  0  0  0  0  0
  -20.9160  -26.5490   22.5250 C   0  0  0  0  0  0  0  0  0  0  0  0
  -20.3140  -27.5860   23.2690 C   0  0  0  0  0  3  0  0  0  0  0  0
  -18.9130  -27.7140   23.3280 C   0  0  0  0  0  3  0  0  0  0  0  0
  -18.0960  -26.7890   22.6530 C   0  0  0  0  0  3  0  0  0  0  0  0
  -18.6830  -25.7480   21.9120 C   0  0  0  0  0  3  0  0  0  0  0  0
  -26.4520  -31.5580   24.4960 C   0  0  0  0  0  3  0  0  0  0  0  0
  -25.8840  -32.8780   24.8000 N   0  0  0  0  0  0  0  0  0  0  0  0
  -26.1750  -34.0030   24.1310 C   0  0  0  0  0  0  0  0  0  0  0  0
  -27.0190  -34.0510   23.2310 O   0  0  0  0  0  0  0  0  0  0  0  0
  -25.1440  -32.9060   25.4860 H   0  0  0  0  0  0  0  0  0  0  0  0
  -24.2830  -35.5470   23.5150 C   0  0  0  0  0  1  0  0  0  0  0  0
  -25.4100  -35.2830   24.5250 C   0  0  0  0  0  3  0  0  0  0  0  0
  -27.2250  -36.4160   25.7340 C   0  0  0  0  0  1  0  0  0  0  0  0
  -26.2760  -36.4780   24.6250 N   0  0  0  0  0  0  0  0  0  0  0  0
  -25.7170  -37.3190   24.7320 H   0  0  0  0  0  0  0  0  0  0  0  0
  -26.8550  -30.8040   25.8220 C   0  0  1  0  0  0  0  0  0  0  0  0
  -25.6460  -30.3140   26.6540 C   0  0  0  0  0  1  0  0  0  0  0  0
  -27.7390  -29.5720   25.5090 C   0  0  0  0  0  1  0  0  0  0  0  0
  -27.7050  -31.7390   26.7180 C   0  0  0  0  0  1  0  0  0  0  0  0
  -31.4080  -16.7770   20.6820 C   0  0  0  0  0  2  0  0  0  0  0  0
  -31.9020  -14.5820   21.9340 C   0  0  0  0  0  2  0  0  0  0  0  0
  -30.4520  -14.7310   22.2650 C   0  0  0  0  0  2  0  0  0  0  0  0
  -30.9820  -15.3150   20.9520 C   0  0  1  0  0  0  0  0  0  0  0  0
  -30.9110  -14.5510   19.6500 C   0  0  0  0  0  0  0  0  0  0  0  0
  -30.2350  -12.5770   18.3400 C   0  0  0  0  0  2  0  0  0  0  0  0
  -29.1370  -12.8400   17.2990 C   0  0  0  0  0  2  0  0  0  0  0  0
  -27.7500  -12.6690   17.9380 C   0  0  0  0  0  2  0  0  0  0  0  0
  -27.6080  -13.4610   19.2590 C   0  0  0  0  0  3  0  0  0  0  0  0
  -28.8080  -13.2370   20.2050 C   0  0  0  0  0  2  0  0  0  0  0  0
  -30.0590  -13.5030   19.4730 N   0  0  0  0  0  0  0  0  0  0  0  0
  -31.7260  -14.8590   18.7750 O   0  0  0  0  0  0  0  0  0  0  0  0
  -25.3280  -14.0240   20.3110 C   0  0  0  0  0  0  0  0  0  0  0  0
  -24.3240  -13.2330   20.7990 C   0  0  0  0  0  0  0  0  0  0  0  0
  -24.7810  -11.8850   20.6640 C   0  0  0  0  0  0  0  0  0  0  0  0
  -26.3350  -13.1600   19.9150 N   0  0  0  0  0  0  0  0  0  0  0  0
  -26.0170  -11.8670   20.1820 N   0  0  0  0  0  0  0  0  0  0  0  0
  -24.0910  -10.6120   20.9120 C   0  0  0  0  0  0  0  0  0  0  0  0
  -24.5700   -9.6850   21.8650 C   0  0  0  0  0  3  0  0  0  0  0  0
  -23.8790   -8.4770   22.0960 C   0  0  0  0  0  3  0  0  0  0  0  0
  -22.6950   -8.1850   21.3760 C   0  0  0  0  0  0  0  0  0  0  0  0
  -22.2370   -9.1000   20.4110 C   0  0  0  0  0  3  0  0  0  0  0  0
  -22.9290  -10.3000   20.1790 C   0  0  0  0  0  3  0  0  0  0  0  0
  -21.9700   -7.0270   21.5190 O   0  0  0  0  0  0  0  0  0  0  0  0
  -21.8320   -6.4090   22.7380 C   0  0  0  0  0  0  0  0  0  0  0  0
  -21.3100   -7.0870   23.8610 C   0  0  0  0  0  3  0  0  0  0  0  0
  -21.1210   -6.3970   25.0750 C   0  0  0  0  0  3  0  0  0  0  0  0
  -21.4410   -5.0290   25.1660 C   0  0  0  0  0  0  0  0  0  0  0  0
  -21.9560   -4.3510   24.0460 C   0  0  0  0  0  3  0  0  0  0  0  0
  -22.1460   -5.0390   22.8350 C   0  0  0  0  0  0  0  0  0  0  0  0
  -22.6220   -4.3750   21.7540 F   0  0  0  0  0  0  0  0  0  0  0  0
  -21.2520   -4.3630   26.3290 F   0  0  0  0  0  0  0  0  0  0  0  0
  -22.9760  -13.6880   21.2790 C   0  0  0  0  0  0  0  0  0  0  0  0
  -22.4170  -13.0060   22.2730 N   0  0  0  0  0  0  0  0  0  0  0  0
  -22.4310  -14.6830   20.8040 O   0  0  0  0  0  0  0  0  0  0  0  0
  -22.8730  -12.1970   22.6700 H   0  0  0  0  0  0  0  0  0  0  0  0
  -21.5230  -13.2950   22.6430 H   0  0  0  0  0  0  0  0  0  0  0  0
  -25.4660  -15.4010   20.1510 N   0  0  0  0  0  0  0  0  0  0  0  0
  -24.7320  -16.0600   20.3870 H   0  0  0  0  0  0  0  0  0  0  0  0
  -26.2740  -15.8430   19.7300 H   0  0  0  0  0  0  0  0  0  0  0  0
  2  1  2  0
  3  1  1  0
  3  7  1  0
  4  2  1  0
  5  4  2  0
  5  6  1  0
  6  3  2  0
  8  5  1  0
  9  6  1  0
 10  9  1  0
 10 11  1  0
 11 13  1  0
 12 10  2  0
 14 11  1  0
 15 16  1  0
 15 14  1  0
 17 28  2  0
 18 16  1  0
 18 23  1  0
 19 29  1  0
 19 27  1  0
 20 26  1  0
 20 22  1  0
 21 27  1  0
 22 21  1  0
 23 22  2  0
 24 25  1  0
 24 18  2  0
 25 20  2  0
 26 19  1  0
 27 17  1  0
 29 31  2  0
 30 29  1  0
 32 30  1  0
 33 42  2  0
 33 38  1  0
 34 30  1  0
 34 38  1  0
 35 34  1  0
 36 37  1  0
 36 35  1  0
 37 33  1  0
 38 39  2  0
 39 40  1  0
 41 40  2  0
 42 41  1  0
 43 17  1  0
 43 44  1  0
 43 53  1  0
 44 47  1  0
 45 49  1  0
 45 44  1  0
 46 45  2  0
 49 48  1  0
 49 51  1  0
 51 52  1  0
 51 50  1  0
 53 54  1  1
 53 56  1  0
 55 53  1  0
 60 57  1  6
 57  4  1  0
 58 59  1  0
 60 58  1  0
 60 59  1  0
 61 60  1  0
 62 67  1  0
 63 64  1  0
 63 62  1  0
 65 64  1  0
 65 72  1  0
 65 66  1  0
 67 61  1  0
 67 66  1  0
 68 61  2  0
 69 70  2  0
 70 89  1  0
 71 70  1  0
 71 74  1  0
 72 73  1  0
 72 69  1  0
 73 71  2  0
 74 75  1  0
 75 76  2  0
 77 80  1  0
 77 76  1  0
 78 77  2  0
 79 78  1  0
 79 74  2  0
 80 81  1  0
 81 86  2  0
 81 82  1  0
 82 83  2  0
 83 84  1  0
 84 88  1  0
 85 84  2  0
 86 85  1  0
 87 86  1  0
 89 90  1  0
 90 93  1  0
 90 92  1  0
 91 89  2  0
 94 69  1  0
 94 95  1  0
 96 94  1  0
M  ISO  4  15 101  16 101  60 100  61 100
M  END
>  <TORSDO>  (5) 
F 22

>  <SCORE>  (5) 
-6.666

>  <name>  (5) 
4

>  <ligand_id>  (5) 
4

>  <original_smiles>  (5) 
[H]c1c([H])c([H])c2c(c1[H])C([H])([H])C([H])([H])C([H])([H])C2([H])N([H])C(=O)C1([H])N(C(=O)C([H])(N([H])C(=O)C([H])(N([H])C([H])([H])[H])C([H])([H])[H])C(C([H])([H])[H])(C([H])([H])[H])C([H])([H])[H])C([H])([H])c2c([H])c(OC([H])([H])C([H])([H])N([H])C(=O)C([H])([H])c3c(C([H])([H])[H])c([H])c([H])c(C([H])([H])C4(C(=O)N5C([H])([H])C([H])([H])C([H])([H])C([H])(n6nc(-c7c([H])c([H])c(Oc8c([H])c([H])c(F)c([H])c8F)c([H])c7[H])c(C(=O)N([H])[H])c6N([H])[H])C5([H])[H])C([H])([H])C4([H])[H])c3C([H])([H])[H])c([H])c([H])c2C1([H])[H]

>  <smiles>  (5) 
[H]c1c([H])c([H])c2c(c1[H])C([H])([H])C([H])([H])C([H])([H])C2([H])N([H])C(=O)C1([H])N(C(=O)C([H])(N([H])C(=O)C([H])(N([H])C([H])([H])[H])C([H])([H])[H])C(C([H])([H])[H])(C([H])([H])[H])C([H])([H])[H])C([H])([H])c2c([H])c(OC([H])([H])C([H])([H])N([H])C(=O)C([H])([H])c3c(C([H])([H])[H])c([H])c([H])c(C([H])([H])C4(C(=O)N5C([H])([H])C([H])([H])C([H])([H])C([H])(n6nc(-c7c([H])c([H])c(Oc8c([H])c([H])c(F)c([H])c8F)c([H])c7[H])c(C(=O)N([H])[H])c6N([H])[H])C5([H])[H])C([H])([H])C4([H])[H])c3C([H])([H])[H])c([H])c([H])c2C1([H])[H]

$$$$
5:0:0
     RDKit          3D

 88 96  0  0  1  0  0  0  0  0999 V2000
  -26.7470  -21.7160   19.0540 C   0  0  0  0  0  3  0  0  0  0  0  0
  -28.7890  -20.6970   20.0670 C   0  0  0  0  0  0  0  0  0  0  0  0
  -27.6550  -20.6300   19.2220 C   0  0  0  0  0  0  0  0  0  0  0  0
  -26.8330  -23.0540   19.5610 C   0  0  0  0  0  0  0  0  0  0  0  0
  -28.9240  -22.3120   20.4050 C   0  0  0  0  0  0  0  0  0  0  0  0
  -28.0250  -23.6600   20.0870 C   0  0  0  0  0  0  0  0  0  0  0  0
  -27.2600  -19.3040   18.5880 C   0  0  0  0  0  1  0  0  0  0  0  0
  -25.4690  -23.7050   19.6630 C   0  0  0  0  0  1  0  0  0  0  0  0
  -30.1290  -22.6200   21.2680 C   0  0  0  0  0  1  0  0  0  0  0  0
  -29.3920  -18.9990   20.5640 C   0  0  0  0  0  0  0  0  0  0  0  0
  -29.8320  -17.4770   20.4750 C   0  0  0  0  0  0  0  0  0  0  0  0
  -30.3820  -15.8620   20.0430 C   0  0  0  0  0  0  0  0  0  0  0  0
  -30.4260  -13.2600   19.2900 C   0  0  0  0  0  2  0  0  0  0  0  0
  -29.5280  -12.8350   18.0870 C   0  0  0  0  0  2  0  0  0  0  0  0
  -28.1230  -12.4630   18.5670 C   0  0  0  0  0  2  0  0  0  0  0  0
  -27.6280  -13.4740   19.6240 C   0  0  0  0  0  3  0  0  0  0  0  0
  -28.6670  -13.8450   20.7160 C   0  0  0  0  0  2  0  0  0  0  0  0
  -29.8400  -14.4760   20.0570 N   0  0  0  0  0  0  0  0  0  0  0  0
  -31.5680  -15.6960   19.6860 O   0  0  0  0  0  0  0  0  0  0  0  0
  -25.2930  -13.9930   20.4570 C   0  0  0  0  0  0  0  0  0  0  0  0
  -24.2420  -13.2130   20.8410 C   0  0  0  0  0  0  0  0  0  0  0  0
  -24.7040  -11.8610   20.7800 C   0  0  0  0  0  0  0  0  0  0  0  0
  -26.3260  -13.1230   20.1730 N   0  0  0  0  0  0  0  0  0  0  0  0
  -25.9900  -11.8300   20.4330 N   0  0  0  0  0  0  0  0  0  0  0  0
  -23.9730  -10.6000   20.9740 C   0  0  0  0  0  0  0  0  0  0  0  0
  -24.4140   -9.6210   21.8900 C   0  0  0  0  0  3  0  0  0  0  0  0
  -23.6770   -8.4310   22.0770 C   0  0  0  0  0  3  0  0  0  0  0  0
  -22.4840   -8.2110   21.3500 C   0  0  0  0  0  0  0  0  0  0  0  0
  -22.0600   -9.1800   20.4230 C   0  0  0  0  0  3  0  0  0  0  0  0
  -22.7970  -10.3620   20.2330 C   0  0  0  0  0  3  0  0  0  0  0  0
  -21.7180   -7.0740   21.4470 O   0  0  0  0  0  0  0  0  0  0  0  0
  -21.6810   -6.3260   22.5970 C   0  0  0  0  0  0  0  0  0  0  0  0
  -21.2710   -6.8760   23.8310 C   0  0  0  0  0  3  0  0  0  0  0  0
  -21.1830   -6.0550   24.9730 C   0  0  0  0  0  3  0  0  0  0  0  0
  -21.4930   -4.6860   24.8820 C   0  0  0  0  0  0  0  0  0  0  0  0
  -21.8950   -4.1340   23.6530 C   0  0  0  0  0  3  0  0  0  0  0  0
  -21.9860   -4.9520   22.5130 C   0  0  0  0  0  0  0  0  0  0  0  0
  -22.3530   -4.4110   21.3260 F   0  0  0  0  0  0  0  0  0  0  0  0
  -21.4010   -3.8950   25.9770 F   0  0  0  0  0  0  0  0  0  0  0  0
  -22.8550  -13.6930   21.1470 C   0  0  0  0  0  0  0  0  0  0  0  0
  -22.1470  -13.0000   22.0310 N   0  0  0  0  0  0  0  0  0  0  0  0
  -22.4110  -14.7220   20.6390 O   0  0  0  0  0  0  0  0  0  0  0  0
  -22.5230  -12.1680   22.4630 H   0  0  0  0  0  0  0  0  0  0  0  0
  -21.2180  -13.3040   22.2810 H   0  0  0  0  0  0  0  0  0  0  0  0
  -25.4550  -15.3650   20.2940 N   0  0  0  0  0  0  0  0  0  0  0  0
  -24.6950  -16.0190   20.4450 H   0  0  0  0  0  0  0  0  0  0  0  0
  -26.3060  -15.8110   19.9750 H   0  0  0  0  0  0  0  0  0  0  0  0
  -28.1200  -25.3270   20.2460 O   0  0  0  0  0  0  0  0  0  0  0  0
  -24.6650  -31.8050   23.1370 C   0  0  0  0  0  0  0  0  0  0  0  0
  -27.2110  -26.6400   20.1550 C   0  0  0  0  0  0  0  0  0  0  0  0
  -23.4990  -30.4060   21.4900 C   0  0  0  0  0  3  0  0  0  0  0  0
  -24.9720  -28.7680   20.0730 C   0  0  0  0  0  0  0  0  0  0  0  0
  -26.0830  -30.5130   21.4210 C   0  0  0  0  0  2  0  0  0  0  0  0
  -26.1470  -29.0720   20.7670 C   0  0  0  0  0  0  0  0  0  0  0  0
  -27.2310  -28.0280   20.8030 C   0  0  0  0  0  3  0  0  0  0  0  0
  -26.0870  -26.6800   19.2830 C   0  0  0  0  0  3  0  0  0  0  0  0
  -24.9900  -27.5980   19.2990 C   0  0  0  0  0  3  0  0  0  0  0  0
  -23.7590  -29.7170   20.1170 C   0  0  0  0  0  2  0  0  0  0  0  0
  -24.7730  -30.9470   22.0650 N   0  0  0  0  0  0  0  0  0  0  0  0
  -23.5660  -32.1040   23.6370 O   0  0  0  0  0  0  0  0  0  0  0  0
  -22.7760  -29.4250   22.4520 C   0  0  0  0  0  0  0  0  0  0  0  0
  -21.4400  -29.2890   22.3370 N   0  0  0  0  0  0  0  0  0  0  0  0
  -23.4300  -28.7860   23.2790 O   0  0  0  0  0  0  0  0  0  0  0  0
  -20.9610  -29.8550   21.6510 H   0  0  0  0  0  0  0  0  0  0  0  0
  -18.0450  -28.1080   22.8850 C   0  0  0  0  0  0  0  0  0  0  0  0
  -20.6130  -28.3490   23.1050 C   0  0  0  0  0  3  0  0  0  0  0  0
  -20.6880  -26.9230   22.5050 C   0  0  0  0  0  2  0  0  0  0  0  0
  -19.5670  -26.6320   21.5040 C   0  0  0  0  0  2  0  0  0  0  0  0
  -18.1980  -26.7750   22.1740 C   0  0  0  0  0  2  0  0  0  0  0  0
  -19.1780  -28.8550   23.3080 C   0  0  0  0  0  0  0  0  0  0  0  0
  -18.9770  -30.1010   23.9400 C   0  0  0  0  0  3  0  0  0  0  0  0
  -17.6770  -30.6030   24.1480 C   0  0  0  0  0  3  0  0  0  0  0  0
  -16.5610  -29.8550   23.7350 C   0  0  0  0  0  3  0  0  0  0  0  0
  -16.7450  -28.6090   23.1120 C   0  0  0  0  0  3  0  0  0  0  0  0
  -25.9190  -32.4640   23.7880 C   0  0  0  0  0  3  0  0  0  0  0  0
  -25.5830  -33.8640   24.1230 N   0  0  0  0  0  0  0  0  0  0  0  0
  -25.9130  -34.9380   23.3920 C   0  0  0  0  0  0  0  0  0  0  0  0
  -26.5870  -34.8560   22.3620 O   0  0  0  0  0  0  0  0  0  0  0  0
  -24.9790  -34.0000   24.9200 H   0  0  0  0  0  0  0  0  0  0  0  0
  -24.1760  -36.7390   23.0780 C   0  0  0  0  0  1  0  0  0  0  0  0
  -25.4230  -36.3200   23.8750 C   0  0  0  0  0  3  0  0  0  0  0  0
  -27.5530  -37.2130   24.7150 C   0  0  0  0  0  1  0  0  0  0  0  0
  -26.4480  -37.3830   23.7730 N   0  0  0  0  0  0  0  0  0  0  0  0
  -26.0370  -38.2980   23.9300 H   0  0  0  0  0  0  0  0  0  0  0  0
  -26.4090  -31.7100   25.0860 C   0  0  1  0  0  0  0  0  0  0  0  0
  -25.2940  -31.4830   26.1350 C   0  0  0  0  0  1  0  0  0  0  0  0
  -27.0050  -30.3270   24.7420 C   0  0  0  0  0  1  0  0  0  0  0  0
  -27.5450  -32.5170   25.7590 C   0  0  0  0  0  1  0  0  0  0  0  0
  1  3  2  0
  1  4  1  0
  2  5  2  0
  2 10  1  0
  3  2  1  0
  4  8  1  0
  4  6  2  0
  5  9  1  0
  6 48  1  0
  6  5  1  0
  7  3  1  0
 11 10  3  0
 12 18  1  0
 12 11  1  0
 13 18  1  0
 14 15  1  0
 14 13  1  0
 16 15  1  0
 16 23  1  0
 16 17  1  0
 18 17  1  0
 19 12  2  0
 20 21  2  0
 21 40  1  0
 22 21  1  0
 22 25  1  0
 23 24  1  0
 23 20  1  0
 24 22  2  0
 25 26  1  0
 26 27  2  0
 28 31  1  0
 28 27  1  0
 29 28  2  0
 30 29  1  0
 30 25  2  0
 31 32  1  0
 32 33  1  0
 33 34  2  0
 35 34  1  0
 35 39  1  0
 36 35  2  0
 37 32  2  0
 37 36  1  0
 38 37  1  0
 40 41  1  0
 41 44  1  0
 41 43  1  0
 42 40  2  0
 45 46  1  0
 45 20  1  0
 47 45  1  0
 49 60  2  0
 50 48  1  0
 50 55  1  0
 51 59  1  0
 51 61  1  0
 52 58  1  0
 52 54  1  0
 53 59  1  0
 54 55  2  0
 54 53  1  0
 56 57  1  0
 56 50  2  0
 57 52  2  0
 58 51  1  0
 59 49  1  0
 61 63  2  0
 62 61  1  0
 64 62  1  0
 65 74  2  0
 65 70  1  0
 66 62  1  0
 66 70  1  0
 67 66  1  0
 68 69  1  0
 68 67  1  0
 69 65  1  0
 70 71  2  0
 71 72  1  0
 73 72  2  0
 74 73  1  0
 75 49  1  0
 75 76  1  0
 75 85  1  0
 76 79  1  0
 77 81  1  0
 77 76  1  0
 78 77  2  0
 81 80  1  0
 83 81  1  0
 83 84  1  0
 83 82  1  0
 85 88  1  1
 85 86  1  0
 87 85  1  0
M  ISO  4   6 101  11 100  12 100  48 101
M  END
>  <TORSDO>  (6) 
F 17

>  <SCORE>  (6) 
-16.705

>  <name>  (6) 
5

>  <ligand_id>  (6) 
5

>  <original_smiles>  (6) 
[H]C(C(=O)N1C([H])([H])C([H])([H])C([H])([H])C([H])(n2nc(-c3c([H])c([H])c(Oc4c([H])c([H])c(F)c([H])c4F)c([H])c3[H])c(C(=O)N([H])[H])c2N([H])[H])C1([H])[H])=C([H])c1c(C([H])([H])[H])c([H])c(C([H])([H])[H])c(Oc2c([H])c([H])c3c(c2[H])C([H])([H])N(C(=O)C([H])(N([H])C(=O)C([H])(N([H])C([H])([H])[H])C([H])([H])[H])C(C([H])([H])[H])(C([H])([H])[H])C([H])([H])[H])C([H])(C(=O)N([H])C2([H])c4c([H])c([H])c([H])c([H])c4C([H])([H])C([H])([H])C2([H])[H])C3([H])[H])c1C([H])([H])[H]

>  <smiles>  (6) 
[H]C(C(=O)N1C([H])([H])C([H])([H])C([H])([H])C([H])(n2nc(-c3c([H])c([H])c(Oc4c([H])c([H])c(F)c([H])c4F)c([H])c3[H])c(C(=O)N([H])[H])c2N([H])[H])C1([H])[H])=C([H])c1c(C([H])([H])[H])c([H])c(C([H])([H])[H])c(Oc2c([H])c([H])c3c(c2[H])C([H])([H])N(C(=O)C([H])(N([H])C(=O)C([H])(N([H])C([H])([H])[H])C([H])([H])[H])C(C([H])([H])[H])(C([H])([H])[H])C([H])([H])[H])C([H])(C(=O)N([H])C2([H])c4c([H])c([H])c([H])c([H])c4C([H])([H])C([H])([H])C2([H])[H])C3([H])[H])c1C([H])([H])[H]

$$$$
6:0:0
     RDKit          3D

104112  0  0  1  0  0  0  0  0999 V2000
  -25.7140  -25.0400   16.2400 C   0  0  0  0  0  0  0  0  0  0  0  0
  -27.0280  -25.4110   16.6240 C   0  0  0  0  0  0  0  0  0  0  0  0
  -25.0070  -24.0510   16.9750 C   0  0  0  0  0  0  0  0  0  0  0  0
  -27.6230  -24.8330   17.7810 C   0  0  0  0  0  0  0  0  0  0  0  0
  -25.6100  -23.4330   18.1070 C   0  0  0  0  0  0  0  0  0  0  0  0
  -26.9270  -23.8200   18.5040 C   0  0  0  0  0  0  0  0  0  0  0  0
  -25.0470  -25.7160   15.0360 C   0  0  0  0  0  1  0  0  0  0  0  0
  -27.7660  -26.4590   15.7860 C   0  0  0  0  0  1  0  0  0  0  0  0
  -24.9010  -20.9670   18.2440 C   0  0  0  0  0  1  0  0  0  0  0  0
  -24.8230  -22.3600   18.8840 C   0  0  0  0  0  2  0  0  0  0  0  0
  -23.5850  -23.6690   16.5420 C   0  0  0  0  0  2  0  0  0  0  0  0
  -22.5150  -24.5280   17.2420 C   0  0  0  0  0  2  0  0  0  0  0  0
  -21.1000  -24.2430   16.7200 C   0  0  0  0  0  2  0  0  0  0  0  0
  -18.6140  -24.7530   16.9680 C   0  0  0  0  0  1  0  0  0  0  0  0
  -20.0250  -25.0080   17.5050 C   0  0  0  0  0  2  0  0  0  0  0  0
  -28.9820  -25.3580   18.2810 C   0  0  0  0  0  2  0  0  0  0  0  0
  -28.9080  -26.7780   18.8860 C   0  0  0  0  0  2  0  0  0  0  0  0
  -28.2400  -26.8040   20.1490 O   0  0  0  0  0  0  0  0  0  0  0  0
  -24.6100  -32.0070   23.3760 C   0  0  0  0  0  0  0  0  0  0  0  0
  -27.0830  -27.5450   20.1980 C   0  0  0  0  0  0  0  0  0  0  0  0
  -23.3310  -30.6390   21.7590 C   0  0  0  0  0  3  0  0  0  0  0  0
  -24.7150  -29.0740   20.2990 C   0  0  0  0  0  0  0  0  0  0  0  0
  -25.8580  -30.9420   21.5030 C   0  0  0  0  0  2  0  0  0  0  0  0
  -25.8950  -29.5740   20.8620 C   0  0  0  0  0  0  0  0  0  0  0  0
  -27.0820  -28.8110   20.8210 C   0  0  0  0  0  3  0  0  0  0  0  0
  -25.8820  -27.0510   19.6490 C   0  0  0  0  0  3  0  0  0  0  0  0
  -24.6990  -27.8060   19.6970 C   0  0  0  0  0  3  0  0  0  0  0  0
  -23.4900  -29.9560   20.3760 C   0  0  0  0  0  2  0  0  0  0  0  0
  -24.6190  -31.2090   22.2720 N   0  0  0  0  0  0  0  0  0  0  0  0
  -23.5500  -32.3030   23.9430 O   0  0  0  0  0  0  0  0  0  0  0  0
  -22.6790  -29.6300   22.7320 C   0  0  0  0  0  0  0  0  0  0  0  0
  -21.3740  -29.3770   22.5440 N   0  0  0  0  0  0  0  0  0  0  0  0
  -23.3460  -29.0760   23.6100 O   0  0  0  0  0  0  0  0  0  0  0  0
  -20.8960  -29.8730   21.8040 H   0  0  0  0  0  0  0  0  0  0  0  0
  -18.0490  -28.0100   22.8900 C   0  0  0  0  0  0  0  0  0  0  0  0
  -20.5610  -28.4380   23.3170 C   0  0  0  0  0  3  0  0  0  0  0  0
  -20.7880  -26.9860   22.8380 C   0  0  0  0  0  2  0  0  0  0  0  0
  -19.7800  -26.5360   21.7750 C   0  0  0  0  0  2  0  0  0  0  0  0
  -18.3500  -26.6370   22.3120 C   0  0  0  0  0  2  0  0  0  0  0  0
  -19.0890  -28.8630   23.3470 C   0  0  0  0  0  0  0  0  0  0  0  0
  -18.7580  -30.1430   23.8400 C   0  0  0  0  0  3  0  0  0  0  0  0
  -17.4200  -30.5750   23.8850 C   0  0  0  0  0  3  0  0  0  0  0  0
  -16.3920  -29.7210   23.4470 C   0  0  0  0  0  3  0  0  0  0  0  0
  -16.7070  -28.4420   22.9560 C   0  0  0  0  0  3  0  0  0  0  0  0
  -25.9270  -32.6040   23.9650 C   0  0  0  0  0  3  0  0  0  0  0  0
  -25.6580  -34.0030   24.3180 N   0  0  0  0  0  0  0  0  0  0  0  0
  -25.9570  -35.0530   23.5420 C   0  0  0  0  0  0  0  0  0  0  0  0
  -26.5610  -34.9460   22.4710 O   0  0  0  0  0  0  0  0  0  0  0  0
  -25.1180  -34.1650   25.1560 H   0  0  0  0  0  0  0  0  0  0  0  0
  -24.2460  -36.8750   23.2790 C   0  0  0  0  0  1  0  0  0  0  0  0
  -25.5140  -36.4450   24.0330 C   0  0  0  0  0  3  0  0  0  0  0  0
  -27.6770  -37.3090   24.8090 C   0  0  0  0  0  1  0  0  0  0  0  0
  -26.5580  -37.4820   23.8840 N   0  0  0  0  0  0  0  0  0  0  0  0
  -26.1690  -38.4090   24.0310 H   0  0  0  0  0  0  0  0  0  0  0  0
  -26.4700  -31.8050   25.2120 C   0  0  1  0  0  0  0  0  0  0  0  0
  -25.4130  -31.5930   26.3210 C   0  0  0  0  0  1  0  0  0  0  0  0
  -26.9880  -30.4120   24.7850 C   0  0  0  0  0  1  0  0  0  0  0  0
  -27.6740  -32.5520   25.8310 C   0  0  0  0  0  1  0  0  0  0  0  0
  -27.6190  -23.1330   19.6890 C   0  0  0  0  0  2  0  0  0  0  0  0
  -28.4070  -21.8930   19.2280 C   0  0  0  0  0  2  0  0  0  0  0  0
  -28.7000  -20.9050   20.3640 C   0  0  0  0  0  2  0  0  0  0  0  0
  -29.3100  -19.6010   19.8400 C   0  0  0  0  0  2  0  0  0  0  0  0
  -29.7100  -18.6540   20.9740 C   0  0  0  0  0  2  0  0  0  0  0  0
  -30.3930  -17.3910   20.4410 C   0  0  0  0  0  2  0  0  0  0  0  0
  -31.0450  -16.5710   21.5590 C   0  0  0  0  0  2  0  0  0  0  0  0
  -32.1640  -15.6600   21.0400 C   0  0  0  0  0  2  0  0  0  0  0  0
  -31.8200  -13.3400   21.8050 C   0  0  0  0  0  2  0  0  0  0  0  0
  -31.7340  -14.2190   20.7810 C   0  0  0  0  0  0  0  0  0  0  0  0
  -31.3450  -13.8240   19.4110 C   0  0  0  0  0  0  0  0  0  0  0  0
  -30.5450  -11.7960   18.2690 C   0  0  0  0  0  2  0  0  0  0  0  0
  -29.4280  -11.9380   17.2280 C   0  0  0  0  0  2  0  0  0  0  0  0
  -28.0530  -11.8730   17.9060 C   0  0  0  0  0  2  0  0  0  0  0  0
  -27.9410  -12.8750   19.0790 C   0  0  0  0  0  3  0  0  0  0  0  0
  -29.1390  -12.7530   20.0400 C   0  0  0  0  0  2  0  0  0  0  0  0
  -30.4100  -12.8420   19.2930 N   0  0  0  0  0  0  0  0  0  0  0  0
  -31.9990  -14.1970   18.4300 O   0  0  0  0  0  0  0  0  0  0  0  0
  -25.7980  -13.6890   20.2510 C   0  0  0  0  0  0  0  0  0  0  0  0
  -24.7260  -13.0120   20.7720 C   0  0  0  0  0  0  0  0  0  0  0  0
  -25.0100  -11.6240   20.5910 C   0  0  0  0  0  0  0  0  0  0  0  0
  -26.6720  -12.7170   19.7880 N   0  0  0  0  0  0  0  0  0  0  0  0
  -26.2100  -11.4670   20.0480 N   0  0  0  0  0  0  0  0  0  0  0  0
  -24.1820  -10.4360   20.8470 C   0  0  0  0  0  0  0  0  0  0  0  0
  -24.5140   -9.5060   21.8570 C   0  0  0  0  0  3  0  0  0  0  0  0
  -23.6910   -8.3840   22.0950 C   0  0  0  0  0  3  0  0  0  0  0  0
  -22.5210   -8.1840   21.3250 C   0  0  0  0  0  0  0  0  0  0  0  0
  -22.2080   -9.1010   20.3060 C   0  0  0  0  0  3  0  0  0  0  0  0
  -23.0300  -10.2140   20.0660 C   0  0  0  0  0  3  0  0  0  0  0  0
  -21.6780   -7.1090   21.4690 O   0  0  0  0  0  0  0  0  0  0  0  0
  -21.5410   -6.4570   22.6690 C   0  0  0  0  0  0  0  0  0  0  0  0
  -20.7990   -7.0090   23.7360 C   0  0  0  0  0  3  0  0  0  0  0  0
  -20.6270   -6.2750   24.9270 C   0  0  0  0  0  3  0  0  0  0  0  0
  -21.1840   -4.9880   25.0490 C   0  0  0  0  0  0  0  0  0  0  0  0
  -21.9170   -4.4340   23.9850 C   0  0  0  0  0  3  0  0  0  0  0  0
  -22.0930   -5.1660   22.7970 C   0  0  0  0  0  0  0  0  0  0  0  0
  -22.7830   -4.6180   21.7680 F   0  0  0  0  0  0  0  0  0  0  0  0
  -21.0100   -4.2800   26.1910 F   0  0  0  0  0  0  0  0  0  0  0  0
  -23.4650  -13.6170   21.3170 C   0  0  0  0  0  0  0  0  0  0  0  0
  -22.8420  -12.9600   22.2890 N   0  0  0  0  0  0  0  0  0  0  0  0
  -23.0500  -14.7040   20.9130 O   0  0  0  0  0  0  0  0  0  0  0  0
  -23.1950  -12.0790   22.6320 H   0  0  0  0  0  0  0  0  0  0  0  0
  -22.0000  -13.3420   22.6970 H   0  0  0  0  0  0  0  0  0  0  0  0
  -26.0940  -15.0400   20.1150 N   0  0  0  0  0  0  0  0  0  0  0  0
  -25.4540  -15.7690   20.4120 H   0  0  0  0  0  0  0  0  0  0  0  0
  -26.9260  -15.4010   19.6640 H   0  0  0  0  0  0  0  0  0  0  0  0
  1  2  2  0
  1  3  1  0
  2  4  1  0
  3  5  2  0
  4 16  1  0
  4  6  2  0
  5  6  1  0
  5 10  1  0
  6 59  1  0
  7  1  1  0
  8  2  1  0
  9 10  1  0
 11  3  1  0
 11 12  1  0
 13 12  1  0
 13 15  1  0
 14 15  1  0
 16 17  1  0
 17 18  1  0
 18 20  1  0
 19 30  2  0
 20 25  1  0
 21 29  1  0
 21 31  1  0
 22 28  1  0
 22 24  1  0
 23 29  1  0
 24 23  1  0
 25 24  2  0
 26 27  1  0
 26 20  2  0
 27 22  2  0
 28 21  1  0
 29 19  1  0
 31 33  2  0
 32 31  1  0
 34 32  1  0
 35 44  2  0
 35 40  1  0
 36 32  1  0
 36 40  1  0
 37 36  1  0
 38 39  1  0
 38 37  1  0
 39 35  1  0
 40 41  2  0
 41 42  1  0
 43 42  2  0
 44 43  1  0
 45 19  1  0
 45 46  1  0
 45 55  1  0
 46 49  1  0
 47 51  1  0
 47 46  1  0
 48 47  2  0
 51 50  1  0
 53 54  1  0
 53 51  1  0
 53 52  1  0
 55 58  1  1
 55 56  1  0
 57 55  1  0
 60 59  1  0
 60 61  1  0
 62 61  1  0
 62 63  1  0
 64 63  1  0
 64 65  1  0
 66 65  1  0
 68 66  1  0
 68 67  2  0
 69 68  1  0
 70 75  1  0
 71 72  1  0
 71 70  1  0
 73 72  1  0
 73 80  1  0
 73 74  1  0
 75 69  1  0
 75 74  1  0
 76 69  2  0
 77 78  2  0
 78 97  1  0
 79 78  1  0
 79 82  1  0
 80 81  1  0
 80 77  1  0
 81 79  2  0
 82 83  1  0
 83 84  2  0
 85 88  1  0
 85 84  1  0
 86 85  2  0
 87 86  1  0
 87 82  2  0
 88 89  1  0
 89 94  2  0
 89 90  1  0
 90 91  2  0
 91 92  1  0
 92 96  1  0
 93 92  2  0
 94 93  1  0
 95 94  1  0
 97 98  1  0
 98100  1  0
 98101  1  0
 99 97  2  0
102 77  1  0
102103  1  0
104102  1  0
M  ISO  4  17 101  18 101  68 100  69 100
M  END
>  <TORSDO>  (7) 
F 32

>  <SCORE>  (7) 
-9.442

>  <name>  (7) 
6

>  <ligand_id>  (7) 
6

>  <original_smiles>  (7) 
[H]C([H])=C(C(=O)N1C([H])([H])C([H])([H])C([H])([H])C([H])(n2nc(-c3c([H])c([H])c(Oc4c([H])c([H])c(F)c([H])c4F)c([H])c3[H])c(C(=O)N([H])[H])c2N([H])[H])C1([H])[H])C([H])([H])C([H])([H])C([H])([H])C([H])([H])C([H])([H])C([H])([H])C([H])([H])C([H])([H])c1c(C([H])([H])C([H])([H])[H])c(C([H])([H])C([H])([H])C([H])([H])C([H])([H])C([H])([H])[H])c(C([H])([H])[H])c(C([H])([H])[H])c1C([H])([H])C([H])([H])Oc1c([H])c([H])c2c(c1[H])C([H])([H])N(C(=O)C([H])(N([H])C(=O)C([H])(N([H])C([H])([H])[H])C([H])([H])[H])C(C([H])([H])[H])(C([H])([H])[H])C([H])([H])[H])C([H])(C(=O)N([H])C1([H])c3c([H])c([H])c([H])c([H])c3C([H])([H])C([H])([H])C1([H])[H])C2([H])[H]

>  <smiles>  (7) 
[H]C([H])=C(C(=O)N1C([H])([H])C([H])([H])C([H])([H])C([H])(n2nc(-c3c([H])c([H])c(Oc4c([H])c([H])c(F)c([H])c4F)c([H])c3[H])c(C(=O)N([H])[H])c2N([H])[H])C1([H])[H])C([H])([H])C([H])([H])C([H])([H])C([H])([H])C([H])([H])C([H])([H])C([H])([H])C([H])([H])c1c(C([H])([H])C([H])([H])[H])c(C([H])([H])C([H])([H])C([H])([H])C([H])([H])C([H])([H])[H])c(C([H])([H])[H])c(C([H])([H])[H])c1C([H])([H])C([H])([H])Oc1c([H])c([H])c2c(c1[H])C([H])([H])N(C(=O)C([H])(N([H])C(=O)C([H])(N([H])C([H])([H])[H])C([H])([H])[H])C(C([H])([H])[H])(C([H])([H])[H])C([H])([H])[H])C([H])(C(=O)N([H])C1([H])c3c([H])c([H])c([H])c([H])c3C([H])([H])C([H])([H])C1([H])[H])C2([H])[H]

$$$$
7:0:0
     RDKit          3D

 95103  0  0  1  0  0  0  0  0999 V2000
  -29.8770  -23.7150   21.9510 C   0  0  0  0  0  0  0  0  0  0  0  0
  -30.0350  -25.1270   22.0120 C   0  0  0  0  0  0  0  0  0  0  0  0
  -28.9930  -23.1320   20.9980 C   0  0  0  0  0  0  0  0  0  0  0  0
  -29.2600  -25.9790   21.1790 C   0  0  0  0  0  0  0  0  0  0  0  0
  -28.2600  -24.0140   20.1290 C   0  0  0  0  0  0  0  0  0  0  0  0
  -28.3100  -25.4490   20.2720 C   0  0  0  0  0  0  0  0  0  0  0  0
  -30.6910  -22.8400   22.9110 C   0  0  0  0  0  1  0  0  0  0  0  0
  -31.0760  -25.7470   22.9500 C   0  0  0  0  0  1  0  0  0  0  0  0
  -29.5020  -27.4860   21.1980 C   0  0  0  0  0  1  0  0  0  0  0  0
  -27.5010  -23.3980   18.9640 C   0  0  0  0  0  1  0  0  0  0  0  0
  -27.6820  -26.3630   19.4130 O   0  0  0  0  0  0  0  0  0  0  0  0
  -24.3070  -31.7220   23.0100 C   0  0  0  0  0  0  0  0  0  0  0  0
  -26.5720  -27.1640   19.6990 C   0  0  0  0  0  0  0  0  0  0  0  0
  -22.9710  -30.4500   21.3650 C   0  0  0  0  0  3  0  0  0  0  0  0
  -24.2850  -28.8660   19.8490 C   0  0  0  0  0  0  0  0  0  0  0  0
  -25.5120  -30.6450   21.0940 C   0  0  0  0  0  2  0  0  0  0  0  0
  -25.4950  -29.2780   20.4210 C   0  0  0  0  0  0  0  0  0  0  0  0
  -26.6420  -28.4370   20.3410 C   0  0  0  0  0  3  0  0  0  0  0  0
  -25.3370  -26.7890   19.1340 C   0  0  0  0  0  3  0  0  0  0  0  0
  -24.2040  -27.6230   19.2030 C   0  0  0  0  0  3  0  0  0  0  0  0
  -23.1000  -29.8030   19.9580 C   0  0  0  0  0  2  0  0  0  0  0  0
  -24.2870  -30.9520   21.8830 N   0  0  0  0  0  0  0  0  0  0  0  0
  -23.2600  -32.0410   23.5910 O   0  0  0  0  0  0  0  0  0  0  0  0
  -22.2830  -29.4420   22.3140 C   0  0  0  0  0  0  0  0  0  0  0  0
  -20.9440  -29.3560   22.2370 N   0  0  0  0  0  0  0  0  0  0  0  0
  -22.9510  -28.7400   23.0790 O   0  0  0  0  0  0  0  0  0  0  0  0
  -20.4700  -29.9690   21.5910 H   0  0  0  0  0  0  0  0  0  0  0  0
  -17.5160  -28.3620   22.8390 C   0  0  0  0  0  0  0  0  0  0  0  0
  -20.0950  -28.4410   23.0030 C   0  0  0  0  0  3  0  0  0  0  0  0
  -20.0770  -27.0340   22.3630 C   0  0  0  0  0  2  0  0  0  0  0  0
  -18.9140  -26.8290   21.3880 C   0  0  0  0  0  2  0  0  0  0  0  0
  -17.5730  -27.0350   22.1000 C   0  0  0  0  0  2  0  0  0  0  0  0
  -18.7010  -29.0310   23.2480 C   0  0  0  0  0  0  0  0  0  0  0  0
  -18.5920  -30.2750   23.9030 C   0  0  0  0  0  3  0  0  0  0  0  0
  -17.3330  -30.8520   24.1520 C   0  0  0  0  0  3  0  0  0  0  0  0
  -16.1630  -30.1810   23.7580 C   0  0  0  0  0  3  0  0  0  0  0  0
  -16.2560  -28.9390   23.1050 C   0  0  0  0  0  3  0  0  0  0  0  0
  -25.6470  -32.2570   23.6070 C   0  0  0  0  0  3  0  0  0  0  0  0
  -26.2090  -31.3590   24.7750 C   0  0  1  0  0  0  0  0  0  0  0  0
  -25.1700  -31.0560   25.8810 C   0  0  0  0  0  1  0  0  0  0  0  0
  -26.7250  -30.0110   24.2180 C   0  0  0  0  0  1  0  0  0  0  0  0
  -27.4160  -32.0570   25.4450 C   0  0  0  0  0  1  0  0  0  0  0  0
  -25.4080  -33.6260   24.0840 N   0  0  0  0  0  0  0  0  0  0  0  0
  -25.7890  -34.7360   23.4410 C   0  0  0  0  0  0  0  0  0  0  0  0
  -26.4530  -34.7110   22.4020 O   0  0  0  0  0  0  0  0  0  0  0  0
  -24.8380  -33.7240   24.9110 H   0  0  0  0  0  0  0  0  0  0  0  0
  -24.1590  -36.6450   23.2780 C   0  0  0  0  0  1  0  0  0  0  0  0
  -25.3660  -36.0880   24.0480 C   0  0  0  0  0  3  0  0  0  0  0  0
  -27.5230  -36.7620   25.0020 C   0  0  0  0  0  1  0  0  0  0  0  0
  -26.4520  -37.0930   24.0680 N   0  0  0  0  0  0  0  0  0  0  0  0
  -26.0850  -38.0070   24.3190 H   0  0  0  0  0  0  0  0  0  0  0  0
  -28.7610  -21.5780   20.9990 C   0  0  0  0  0  2  0  0  0  0  0  0
  -29.9090  -20.5970   20.5290 C   0  0  0  0  0  2  0  0  0  0  0  0
  -29.8290  -19.1590   21.1780 C   0  0  0  0  0  2  0  0  0  0  0  0
  -30.8320  -17.9970   20.7580 C   0  0  0  0  0  2  0  0  0  0  0  0
  -31.1270  -14.7330   20.2110 C   0  0  0  0  0  0  0  0  0  0  0  0
  -30.8420  -12.6440   18.8790 C   0  0  0  0  0  2  0  0  0  0  0  0
  -29.8040  -12.8500   17.7510 C   0  0  0  0  0  2  0  0  0  0  0  0
  -28.3580  -12.6790   18.2610 C   0  0  0  0  0  2  0  0  0  0  0  0
  -28.0960  -13.4450   19.5850 C   0  0  0  0  0  3  0  0  0  0  0  0
  -29.2090  -13.1360   20.6050 C   0  0  0  0  0  2  0  0  0  0  0  0
  -30.5030  -13.5310   20.0070 N   0  0  0  0  0  0  0  0  0  0  0  0
  -32.1070  -15.0870   19.5480 O   0  0  0  0  0  0  0  0  0  0  0  0
  -30.6910  -16.7290   21.6630 C   0  0  0  0  0  0  0  0  0  0  0  0
  -30.5920  -15.4480   21.2290 N   0  0  0  0  0  0  0  0  0  0  0  0
  -30.5340  -16.9140   22.8720 O   0  0  0  0  0  0  0  0  0  0  0  0
  -30.0500  -14.8740   21.8500 H   0  0  0  0  0  0  0  0  0  0  0  0
  -25.7560  -14.0360   20.4890 C   0  0  0  0  0  0  0  0  0  0  0  0
  -24.7040  -13.2510   20.8830 C   0  0  0  0  0  0  0  0  0  0  0  0
  -25.1390  -11.9000   20.7300 C   0  0  0  0  0  0  0  0  0  0  0  0
  -26.7680  -13.1570   20.1280 N   0  0  0  0  0  0  0  0  0  0  0  0
  -26.4050  -11.8640   20.3310 N   0  0  0  0  0  0  0  0  0  0  0  0
  -24.4080  -10.6340   20.8860 C   0  0  0  0  0  0  0  0  0  0  0  0
  -24.8060   -9.6670   21.8370 C   0  0  0  0  0  3  0  0  0  0  0  0
  -24.0780   -8.4670   21.9810 C   0  0  0  0  0  3  0  0  0  0  0  0
  -22.9400   -8.2260   21.1760 C   0  0  0  0  0  0  0  0  0  0  0  0
  -22.5610   -9.1810   20.2170 C   0  0  0  0  0  3  0  0  0  0  0  0
  -23.2890  -10.3730   20.0690 C   0  0  0  0  0  3  0  0  0  0  0  0
  -22.1850   -7.0780   21.2320 O   0  0  0  0  0  0  0  0  0  0  0  0
  -21.9780   -6.4080   22.4100 C   0  0  0  0  0  0  0  0  0  0  0  0
  -21.3550   -7.0220   23.5190 C   0  0  0  0  0  3  0  0  0  0  0  0
  -21.0990   -6.2750   24.6860 C   0  0  0  0  0  3  0  0  0  0  0  0
  -21.4570   -4.9140   24.7440 C   0  0  0  0  0  0  0  0  0  0  0  0
  -22.0750   -4.3000   23.6380 C   0  0  0  0  0  3  0  0  0  0  0  0
  -22.3320   -5.0450   22.4760 C   0  0  0  0  0  0  0  0  0  0  0  0
  -22.9070   -4.4450   21.4060 F   0  0  0  0  0  0  0  0  0  0  0  0
  -21.2040   -4.1920   25.8600 F   0  0  0  0  0  0  0  0  0  0  0  0
  -23.3350  -13.7250   21.2790 C   0  0  0  0  0  0  0  0  0  0  0  0
  -22.6660  -13.0020   22.1720 N   0  0  0  0  0  0  0  0  0  0  0  0
  -22.8690  -14.7720   20.8350 O   0  0  0  0  0  0  0  0  0  0  0  0
  -23.0530  -12.1580   22.5690 H   0  0  0  0  0  0  0  0  0  0  0  0
  -21.7440  -13.2980   22.4590 H   0  0  0  0  0  0  0  0  0  0  0  0
  -25.9320  -15.4110   20.3870 N   0  0  0  0  0  0  0  0  0  0  0  0
  -25.1970  -16.0740   20.6120 H   0  0  0  0  0  0  0  0  0  0  0  0
  -26.7780  -15.8550   20.0470 H   0  0  0  0  0  0  0  0  0  0  0  0
  1  2  1  0
  1  7  1  0
  2  8  1  0
  3 52  1  0
  3  1  2  0
  4  9  1  0
  4  2  2  0
  5  6  2  0
  5  3  1  0
  6  4  1  0
 10  5  1  0
 11 13  1  0
 11  6  1  0
 12 23  2  0
 13 18  1  0
 14 22  1  0
 14 24  1  0
 15 21  1  0
 15 17  1  0
 16 22  1  0
 17 16  1  0
 18 17  2  0
 19 20  1  0
 19 13  2  0
 20 15  2  0
 21 14  1  0
 22 12  1  0
 24 26  2  0
 25 24  1  0
 27 25  1  0
 28 37  2  0
 28 33  1  0
 29 25  1  0
 29 33  1  0
 30 29  1  0
 31 32  1  0
 31 30  1  0
 32 28  1  0
 33 34  2  0
 34 35  1  0
 36 35  2  0
 37 36  1  0
 38 12  1  0
 38 43  1  0
 38 39  1  0
 39 42  1  1
 39 40  1  0
 41 39  1  0
 43 46  1  0
 44 48  1  0
 44 43  1  0
 45 44  2  0
 48 47  1  0
 48 50  1  0
 50 51  1  0
 50 49  1  0
 53 52  1  0
 53 54  1  0
 55 54  1  0
 55 64  1  0
 56 65  1  0
 57 62  1  0
 58 59  1  0
 58 57  1  0
 60 59  1  0
 60 71  1  0
 60 61  1  0
 62 56  1  0
 62 61  1  0
 63 56  2  0
 64 66  2  0
 65 64  1  0
 65 67  1  0
 68 69  2  0
 69 88  1  0
 70 69  1  0
 70 73  1  0
 71 72  1  0
 71 68  1  0
 72 70  2  0
 73 74  1  0
 74 75  2  0
 76 79  1  0
 76 75  1  0
 77 76  2  0
 78 77  1  0
 78 73  2  0
 79 80  1  0
 80 85  2  0
 80 81  1  0
 81 82  2  0
 82 83  1  0
 83 87  1  0
 84 83  2  0
 85 84  1  0
 86 85  1  0
 88 89  1  0
 89 92  1  0
 89 91  1  0
 90 88  2  0
 93 68  1  0
 93 94  1  0
 95 93  1  0
M  ISO  4   6 101  11 101  56 100  65 100
M  END
>  <TORSDO>  (8) 
F 20

>  <SCORE>  (8) 
-11.431

>  <name>  (8) 
7

>  <ligand_id>  (8) 
7

>  <original_smiles>  (8) 
[H]c1c([H])c([H])c2c(c1[H])C([H])([H])C([H])([H])C([H])([H])C2([H])N([H])C(=O)C1([H])N(C(=O)C([H])(N([H])C(=O)C([H])(N([H])C([H])([H])[H])C([H])([H])[H])C(C([H])([H])[H])(C([H])([H])[H])C([H])([H])[H])C([H])([H])c2c([H])c(Oc3c(C([H])([H])[H])c(C([H])([H])[H])c(C([H])([H])[H])c(C([H])([H])C([H])([H])C([H])([H])C([H])([H])C(=O)N([H])C(=O)N4C([H])([H])C([H])([H])C([H])([H])C([H])(n5nc(-c6c([H])c([H])c(Oc7c([H])c([H])c(F)c([H])c7F)c([H])c6[H])c(C(=O)N([H])[H])c5N([H])[H])C4([H])[H])c3C([H])([H])[H])c([H])c([H])c2C1([H])[H]

>  <smiles>  (8) 
[H]c1c([H])c([H])c2c(c1[H])C([H])([H])C([H])([H])C([H])([H])C2([H])N([H])C(=O)C1([H])N(C(=O)C([H])(N([H])C(=O)C([H])(N([H])C([H])([H])[H])C([H])([H])[H])C(C([H])([H])[H])(C([H])([H])[H])C([H])([H])[H])C([H])([H])c2c([H])c(Oc3c(C([H])([H])[H])c(C([H])([H])[H])c(C([H])([H])[H])c(C([H])([H])C([H])([H])C([H])([H])C([H])([H])C(=O)N([H])C(=O)N4C([H])([H])C([H])([H])C([H])([H])C([H])(n5nc(-c6c([H])c([H])c(Oc7c([H])c([H])c(F)c([H])c7F)c([H])c6[H])c(C(=O)N([H])[H])c5N([H])[H])C4([H])[H])c3C([H])([H])[H])c([H])c([H])c2C1([H])[H]

$$$$
8:0:0
     RDKit          3D

 96105  0  0  1  0  0  0  0  0999 V2000
  -27.7660  -19.4650   19.3500 C   0  0  0  0  0  3  0  0  0  0  0  0
  -27.0070  -20.5980   19.6780 C   0  0  0  0  0  3  0  0  0  0  0  0
  -29.7190  -20.9060   19.1490 C   0  0  0  0  0  3  0  0  0  0  0  0
  -29.1550  -19.5620   19.1320 C   0  0  0  0  0  0  0  0  0  0  0  0
  -27.5740  -21.8930   19.7640 C   0  0  0  0  0  0  0  0  0  0  0  0
  -28.9400  -22.1130   19.4240 C   0  0  0  0  0  0  0  0  0  0  0  0
  -26.6820  -22.9800   20.3540 C   0  0  0  0  0  1  0  0  0  0  0  0
  -29.9520  -18.2110   18.8640 C   0  0  0  0  0  2  0  0  0  0  0  0
  -29.3650  -17.4550   21.2190 C   0  0  0  0  0  0  0  0  0  0  0  0
  -31.7940  -17.5510   21.8660 C   0  0  0  0  0  2  0  0  0  0  0  0
  -29.7630  -16.9300   19.8300 C   0  0  0  0  0  3  0  0  0  0  0  0
  -30.9290  -15.8610   20.1490 C   0  0  0  0  0  3  0  0  0  0  0  0
  -32.1920  -16.6030   20.6950 C   0  0  0  0  0  3  0  0  0  0  0  0
  -33.1160  -17.3480   19.6870 C   0  0  0  0  0  1  0  0  0  0  0  0
  -30.3530  -17.7260   22.0860 N   0  0  0  0  0  0  0  0  0  0  0  0
  -28.1830  -17.5890   21.5370 O   0  0  0  0  0  0  0  0  0  0  0  0
  -30.0800  -18.0940   22.9880 H   0  0  0  0  0  0  0  0  0  0  0  0
  -31.2160  -14.5460   19.3050 C   0  0  0  0  0  0  0  0  0  0  0  0
  -30.8140  -12.2020   18.5260 C   0  0  0  0  0  2  0  0  0  0  0  0
  -29.7590  -12.1720   17.4030 C   0  0  0  0  0  2  0  0  0  0  0  0
  -28.3430  -12.0530   17.9930 C   0  0  0  0  0  2  0  0  0  0  0  0
  -28.1020  -13.0710   19.1350 C   0  0  0  0  0  3  0  0  0  0  0  0
  -29.2710  -13.0880   20.1500 C   0  0  0  0  0  2  0  0  0  0  0  0
  -30.5190  -13.3580   19.4070 N   0  0  0  0  0  0  0  0  0  0  0  0
  -32.2000  -14.5930   18.5630 O   0  0  0  0  0  0  0  0  0  0  0  0
  -25.8640  -13.7850   20.1920 C   0  0  0  0  0  0  0  0  0  0  0  0
  -24.8000  -13.0690   20.6570 C   0  0  0  0  0  0  0  0  0  0  0  0
  -25.1480  -11.6920   20.4930 C   0  0  0  0  0  0  0  0  0  0  0  0
  -26.8050  -12.8530   19.7760 N   0  0  0  0  0  0  0  0  0  0  0  0
  -26.3850  -11.5830   20.0250 N   0  0  0  0  0  0  0  0  0  0  0  0
  -24.3500  -10.4760   20.7100 C   0  0  0  0  0  0  0  0  0  0  0  0
  -24.7220   -9.5120   21.6720 C   0  0  0  0  0  3  0  0  0  0  0  0
  -23.9310   -8.3610   21.8790 C   0  0  0  0  0  3  0  0  0  0  0  0
  -22.7500   -8.1690   21.1250 C   0  0  0  0  0  0  0  0  0  0  0  0
  -22.3970   -9.1170   20.1480 C   0  0  0  0  0  3  0  0  0  0  0  0
  -23.1880  -10.2590   19.9400 C   0  0  0  0  0  3  0  0  0  0  0  0
  -21.9310   -7.0720   21.2380 O   0  0  0  0  0  0  0  0  0  0  0  0
  -21.7200   -6.4530   22.4460 C   0  0  0  0  0  0  0  0  0  0  0  0
  -21.1800   -7.1430   23.5510 C   0  0  0  0  0  3  0  0  0  0  0  0
  -20.9110   -6.4520   24.7500 C   0  0  0  0  0  3  0  0  0  0  0  0
  -21.1780   -5.0710   24.8430 C   0  0  0  0  0  0  0  0  0  0  0  0
  -21.7100   -4.3830   23.7380 C   0  0  0  0  0  3  0  0  0  0  0  0
  -21.9800   -5.0730   22.5460 C   0  0  0  0  0  0  0  0  0  0  0  0
  -22.4760   -4.3990   21.4760 F   0  0  0  0  0  0  0  0  0  0  0  0
  -20.9150   -4.4040   25.9910 F   0  0  0  0  0  0  0  0  0  0  0  0
  -23.4900  -13.6210   21.1380 C   0  0  0  0  0  0  0  0  0  0  0  0
  -22.8610  -12.9590   22.1010 N   0  0  0  0  0  0  0  0  0  0  0  0
  -23.0380  -14.6730   20.6910 O   0  0  0  0  0  0  0  0  0  0  0  0
  -23.2400  -12.1040   22.4850 H   0  0  0  0  0  0  0  0  0  0  0  0
  -21.9760  -13.3040   22.4490 H   0  0  0  0  0  0  0  0  0  0  0  0
  -26.1190  -15.1510   20.0740 N   0  0  0  0  0  0  0  0  0  0  0  0
  -25.4820  -15.8570   20.4290 H   0  0  0  0  0  0  0  0  0  0  0  0
  -26.9630  -15.5400   19.6770 H   0  0  0  0  0  0  0  0  0  0  0  0
  -29.5480  -23.5910   19.5250 C   0  0  0  0  0  2  0  0  0  0  0  0
  -28.9810  -24.8140   18.5980 C   0  0  0  0  0  2  0  0  0  0  0  0
  -28.9160  -26.2550   19.0310 O   0  0  0  0  0  0  0  0  0  0  0  0
  -24.9600  -31.0520   22.7210 C   0  0  0  0  0  0  0  0  0  0  0  0
  -27.7360  -27.0390   19.0580 C   0  0  0  0  0  0  0  0  0  0  0  0
  -23.7900  -29.8260   20.9240 C   0  0  0  0  0  3  0  0  0  0  0  0
  -25.2930  -28.5580   19.2820 C   0  0  0  0  0  0  0  0  0  0  0  0
  -26.3090  -30.3050   20.7360 C   0  0  0  0  0  2  0  0  0  0  0  0
  -26.4500  -29.0210   19.9200 C   0  0  0  0  0  0  0  0  0  0  0  0
  -27.6680  -28.2750   19.7980 C   0  0  0  0  0  3  0  0  0  0  0  0
  -26.5400  -26.6530   18.4010 C   0  0  0  0  0  3  0  0  0  0  0  0
  -25.3440  -27.3910   18.5100 C   0  0  0  0  0  3  0  0  0  0  0  0
  -24.0100  -29.3470   19.4650 C   0  0  0  0  0  2  0  0  0  0  0  0
  -25.0400  -30.4040   21.5200 N   0  0  0  0  0  0  0  0  0  0  0  0
  -23.8760  -31.1880   23.3100 O   0  0  0  0  0  0  0  0  0  0  0  0
  -23.1980  -28.6580   21.7480 C   0  0  0  0  0  0  0  0  0  0  0  0
  -21.8740  -28.4520   21.6520 N   0  0  0  0  0  0  0  0  0  0  0  0
  -23.9290  -27.9380   22.4360 O   0  0  0  0  0  0  0  0  0  0  0  0
  -21.3260  -29.1260   21.1350 H   0  0  0  0  0  0  0  0  0  0  0  0
  -18.5700  -27.0210   22.0740 C   0  0  0  0  0  0  0  0  0  0  0  0
  -21.1230  -27.3560   22.2680 C   0  0  0  0  0  3  0  0  0  0  0  0
  -21.2630  -26.0560   21.4380 C   0  0  0  0  0  2  0  0  0  0  0  0
  -20.1100  -25.7970   20.4630 C   0  0  0  0  0  2  0  0  0  0  0  0
  -18.7640  -25.7930   21.1940 C   0  0  0  0  0  2  0  0  0  0  0  0
  -19.6760  -27.7600   22.5650 C   0  0  0  0  0  0  0  0  0  0  0  0
  -19.4400  -28.9110   23.3480 C   0  0  0  0  0  3  0  0  0  0  0  0
  -18.1300  -29.3240   23.6430 C   0  0  0  0  0  3  0  0  0  0  0  0
  -17.0370  -28.5830   23.1650 C   0  0  0  0  0  3  0  0  0  0  0  0
  -17.2580  -27.4310   22.3850 C   0  0  0  0  0  3  0  0  0  0  0  0
  -26.2200  -31.6690   23.4030 C   0  0  0  0  0  3  0  0  0  0  0  0
  -26.8320  -30.7450   24.5260 C   0  0  1  0  0  0  0  0  0  0  0  0
  -25.7980  -30.2760   25.5750 C   0  0  0  0  0  1  0  0  0  0  0  0
  -27.4720  -29.4820   23.9060 C   0  0  0  0  0  1  0  0  0  0  0  0
  -27.9650  -31.4930   25.2670 C   0  0  0  0  0  1  0  0  0  0  0  0
  -25.8330  -32.9710   23.9590 N   0  0  0  0  0  0  0  0  0  0  0  0
  -26.0790  -34.1530   23.3770 C   0  0  0  0  0  0  0  0  0  0  0  0
  -26.7190  -34.2590   22.3270 O   0  0  0  0  0  0  0  0  0  0  0  0
  -25.2590  -32.9590   24.7910 H   0  0  0  0  0  0  0  0  0  0  0  0
  -24.2360  -35.8650   23.3540 C   0  0  0  0  0  1  0  0  0  0  0  0
  -25.5230  -35.4150   24.0640 C   0  0  0  0  0  3  0  0  0  0  0  0
  -27.6190  -36.2880   25.0010 C   0  0  0  0  0  1  0  0  0  0  0  0
  -26.4870  -36.5340   24.1100 N   0  0  0  0  0  0  0  0  0  0  0  0
  -26.0320  -37.3900   24.4090 H   0  0  0  0  0  0  0  0  0  0  0  0
  1  2  1  0
  2  5  2  0
  3  6  2  0
  4  3  1  0
  4  1  2  0
  5  7  1  0
  6 54  1  0
  6  5  1  0
  8  4  1  0
  9 16  2  0
  9 15  1  0
 10 15  1  0
 11  8  1  0
 11 12  1  0
 11  9  1  0
 12 18  1  0
 12 13  1  0
 13 14  1  0
 13 10  1  0
 15 17  1  0
 18 24  1  0
 19 24  1  0
 20 21  1  0
 20 19  1  0
 22 21  1  0
 22 29  1  0
 22 23  1  0
 24 23  1  0
 25 18  2  0
 26 27  2  0
 27 46  1  0
 28 27  1  0
 28 31  1  0
 29 30  1  0
 29 26  1  0
 30 28  2  0
 31 32  1  0
 32 33  2  0
 34 37  1  0
 34 33  1  0
 35 34  2  0
 36 35  1  0
 36 31  2  0
 37 38  1  0
 38 43  2  0
 38 39  1  0
 39 40  2  0
 40 41  1  0
 41 45  1  0
 42 41  2  0
 43 42  1  0
 44 43  1  0
 46 47  1  0
 47 50  1  0
 47 49  1  0
 48 46  2  0
 51 26  1  0
 51 52  1  0
 53 51  1  0
 55 56  1  0
 55 54  1  0
 56 58  1  0
 57 68  2  0
 58 63  1  0
 59 67  1  0
 59 69  1  0
 60 66  1  0
 60 62  1  0
 61 67  1  0
 62 61  1  0
 63 62  2  0
 64 65  1  0
 64 58  2  0
 65 60  2  0
 66 59  1  0
 67 57  1  0
 69 71  2  0
 70 69  1  0
 72 70  1  0
 73 82  2  0
 73 78  1  0
 74 70  1  0
 74 78  1  0
 75 74  1  0
 76 77  1  0
 76 75  1  0
 77 73  1  0
 78 79  2  0
 79 80  1  0
 81 80  2  0
 82 81  1  0
 83 57  1  0
 83 88  1  0
 83 84  1  0
 84 87  1  1
 84 85  1  0
 86 84  1  0
 88 91  1  0
 89 88  1  0
 89 93  1  0
 90 89  2  0
 93 92  1  0
 93 95  1  0
 95 96  1  0
 95 94  1  0
M  ISO  4  12 100  18 100  55 101  56 101
M  END
>  <TORSDO>  (9) 
F 20

>  <SCORE>  (9) 
-8.910

>  <name>  (9) 
8

>  <ligand_id>  (9) 
8

>  <original_smiles>  (9) 
[H]c1c([H])c([H])c2c(c1[H])C([H])([H])C([H])([H])C([H])([H])C2([H])N([H])C(=O)C1([H])N(C(=O)C([H])(N([H])C(=O)C([H])(N([H])C([H])([H])[H])C([H])([H])[H])C(C([H])([H])[H])(C([H])([H])[H])C([H])([H])[H])C([H])([H])c2c([H])c(OC([H])([H])C([H])([H])c3c([H])c(C([H])([H])C4([H])C(=O)N([H])C([H])([H])C([H])(C([H])([H])[H])C4([H])C(=O)N4C([H])([H])C([H])([H])C([H])([H])C([H])(n5nc(-c6c([H])c([H])c(Oc7c([H])c([H])c(F)c([H])c7F)c([H])c6[H])c(C(=O)N([H])[H])c5N([H])[H])C4([H])[H])c([H])c([H])c3C([H])([H])[H])c([H])c([H])c2C1([H])[H]

>  <smiles>  (9) 
[H]c1c([H])c([H])c2c(c1[H])C([H])([H])C([H])([H])C([H])([H])C2([H])N([H])C(=O)C1([H])N(C(=O)C([H])(N([H])C(=O)C([H])(N([H])C([H])([H])[H])C([H])([H])[H])C(C([H])([H])[H])(C([H])([H])[H])C([H])([H])[H])C([H])([H])c2c([H])c(OC([H])([H])C([H])([H])c3c([H])c(C([H])([H])C4([H])C(=O)N([H])C([H])([H])C([H])(C([H])([H])[H])C4([H])C(=O)N4C([H])([H])C([H])([H])C([H])([H])C([H])(n5nc(-c6c([H])c([H])c(Oc7c([H])c([H])c(F)c([H])c7F)c([H])c6[H])c(C(=O)N([H])[H])c5N([H])[H])C4([H])[H])c([H])c([H])c3C([H])([H])[H])c([H])c([H])c2C1([H])[H]

$$$$
9:0:0
     RDKit          3D

 98107  0  0  1  0  0  0  0  0999 V2000
  -30.2530  -23.1840   21.2320 C   0  0  0  0  0  0  0  0  0  0  0  0
  -29.7380  -23.4620   22.4940 C   0  0  0  0  0  0  0  0  0  0  0  0
  -30.8860  -21.9650   20.9200 C   0  0  0  0  0  0  0  0  0  0  0  0
  -29.8750  -22.5060   23.5370 C   0  0  0  0  0  0  0  0  0  0  0  0
  -30.5560  -21.2800   23.2620 C   0  0  0  0  0  0  0  0  0  0  0  0
  -31.0450  -20.9950   21.9480 C   0  0  0  0  0  0  0  0  0  0  0  0
  -30.0660  -24.3410   20.2920 C   0  0  0  0  0  2  0  0  0  0  0  0
  -29.0490  -24.8360   22.4960 C   0  0  2  0  0  0  0  0  0  0  0  0
  -29.6130  -25.5290   21.1780 C   0  0  1  0  0  0  0  0  0  0  0  0
  -31.3930  -21.7260   19.5000 C   0  0  0  0  0  1  0  0  0  0  0  0
  -29.3200  -22.7850   24.9330 C   0  0  0  0  0  1  0  0  0  0  0  0
  -30.7420  -20.2760   24.4010 C   0  0  0  0  0  1  0  0  0  0  0  0
  -29.3020  -25.6940   23.7630 C   0  0  0  0  0  1  0  0  0  0  0  0
  -27.5250  -24.5730   22.4020 C   0  0  0  0  0  1  0  0  0  0  0  0
  -30.8700  -26.3890   21.4890 C   0  0  0  0  0  1  0  0  0  0  0  0
  -31.7480  -19.6640   21.6290 C   0  0  0  0  0  2  0  0  0  0  0  0
  -30.7910  -18.4510   21.5940 C   0  0  0  0  0  2  0  0  0  0  0  0
  -31.4490  -17.2010   20.9720 C   0  0  0  0  0  2  0  0  0  0  0  0
  -30.5950  -15.9080   21.0490 C   0  0  0  0  0  2  0  0  0  0  0  0
  -31.1670  -14.7380   20.2150 C   0  0  0  0  0  0  0  0  0  0  0  0
  -30.8780  -12.5000   19.1990 C   0  0  0  0  0  2  0  0  0  0  0  0
  -29.9300  -12.5740   17.9870 C   0  0  0  0  0  2  0  0  0  0  0  0
  -28.4610  -12.4440   18.4350 C   0  0  0  0  0  2  0  0  0  0  0  0
  -28.1110  -13.3940   19.6110 C   0  0  0  0  0  3  0  0  0  0  0  0
  -29.1690  -13.3000   20.7330 C   0  0  0  0  0  2  0  0  0  0  0  0
  -30.4910  -13.5600   20.1430 N   0  0  0  0  0  0  0  0  0  0  0  0
  -32.2180  -14.9230   19.5940 O   0  0  0  0  0  0  0  0  0  0  0  0
  -25.7540  -14.0420   20.4220 C   0  0  0  0  0  0  0  0  0  0  0  0
  -24.6710  -13.2880   20.7820 C   0  0  0  0  0  0  0  0  0  0  0  0
  -25.0840  -11.9250   20.6660 C   0  0  0  0  0  0  0  0  0  0  0  0
  -26.7620  -13.1410   20.1150 N   0  0  0  0  0  0  0  0  0  0  0  0
  -26.3620  -11.8590   20.3160 N   0  0  0  0  0  0  0  0  0  0  0  0
  -24.3210  -10.6770   20.8130 C   0  0  0  0  0  0  0  0  0  0  0  0
  -24.6790   -9.7020   21.7710 C   0  0  0  0  0  3  0  0  0  0  0  0
  -23.9180   -8.5210   21.9060 C   0  0  0  0  0  3  0  0  0  0  0  0
  -22.7880   -8.3050   21.0840 C   0  0  0  0  0  0  0  0  0  0  0  0
  -22.4510   -9.2690   20.1170 C   0  0  0  0  0  3  0  0  0  0  0  0
  -23.2100  -10.4420   19.9790 C   0  0  0  0  0  3  0  0  0  0  0  0
  -22.0070   -7.1750   21.1250 O   0  0  0  0  0  0  0  0  0  0  0  0
  -21.7810   -6.5000   22.2980 C   0  0  0  0  0  0  0  0  0  0  0  0
  -21.1540   -7.1160   23.4030 C   0  0  0  0  0  3  0  0  0  0  0  0
  -20.8780   -6.3660   24.5640 C   0  0  0  0  0  3  0  0  0  0  0  0
  -21.2190   -5.0010   24.6190 C   0  0  0  0  0  0  0  0  0  0  0  0
  -21.8380   -4.3840   23.5170 C   0  0  0  0  0  3  0  0  0  0  0  0
  -22.1150   -5.1320   22.3580 C   0  0  0  0  0  0  0  0  0  0  0  0
  -22.6930   -4.5280   21.2920 F   0  0  0  0  0  0  0  0  0  0  0  0
  -20.9470   -4.2780   25.7300 F   0  0  0  0  0  0  0  0  0  0  0  0
  -23.3000  -13.7930   21.1250 C   0  0  0  0  0  0  0  0  0  0  0  0
  -22.5800  -13.0820   21.9850 N   0  0  0  0  0  0  0  0  0  0  0  0
  -22.8770  -14.8540   20.6660 O   0  0  0  0  0  0  0  0  0  0  0  0
  -22.9350  -12.2220   22.3780 H   0  0  0  0  0  0  0  0  0  0  0  0
  -21.6610  -13.4010   22.2560 H   0  0  0  0  0  0  0  0  0  0  0  0
  -25.9610  -15.4140   20.3100 N   0  0  0  0  0  0  0  0  0  0  0  0
  -25.2250  -16.0910   20.4830 H   0  0  0  0  0  0  0  0  0  0  0  0
  -26.8260  -15.8390   19.9980 H   0  0  0  0  0  0  0  0  0  0  0  0
  -28.5760  -26.4080   20.4090 C   0  0  0  0  0  2  0  0  0  0  0  0
  -29.0420  -26.9430   19.0340 C   0  0  0  0  0  2  0  0  0  0  0  0
  -27.9440  -27.0610   18.1330 O   0  0  0  0  0  0  0  0  0  0  0  0
  -24.6470  -31.3800   22.7830 C   0  0  0  0  0  0  0  0  0  0  0  0
  -26.8330  -27.7790   18.5160 C   0  0  0  0  0  0  0  0  0  0  0  0
  -23.2230  -30.3760   21.0240 C   0  0  0  0  0  3  0  0  0  0  0  0
  -24.4700  -29.2000   19.1350 C   0  0  0  0  0  0  0  0  0  0  0  0
  -25.7090  -30.7920   20.6120 C   0  0  0  0  0  2  0  0  0  0  0  0
  -25.6940  -29.5930   19.6900 C   0  0  0  0  0  0  0  0  0  0  0  0
  -26.8760  -28.8860   19.3920 C   0  0  0  0  0  3  0  0  0  0  0  0
  -25.5970  -27.3950   17.9570 C   0  0  0  0  0  3  0  0  0  0  0  0
  -24.4120  -28.0930   18.2710 C   0  0  0  0  0  3  0  0  0  0  0  0
  -23.2570  -30.0200   19.5110 C   0  0  0  0  0  2  0  0  0  0  0  0
  -24.5510  -30.8510   21.5300 N   0  0  0  0  0  0  0  0  0  0  0  0
  -23.6460  -31.5180   23.4960 O   0  0  0  0  0  0  0  0  0  0  0  0
  -22.6680  -29.1620   21.8040 C   0  0  0  0  0  0  0  0  0  0  0  0
  -21.3350  -29.0030   21.7890 N   0  0  0  0  0  0  0  0  0  0  0  0
  -23.4280  -28.3790   22.3770 O   0  0  0  0  0  0  0  0  0  0  0  0
  -20.7790  -29.6920   21.3020 H   0  0  0  0  0  0  0  0  0  0  0  0
  -18.0180  -27.7090   22.4010 C   0  0  0  0  0  0  0  0  0  0  0  0
  -20.5950  -27.9130   22.4250 C   0  0  0  0  0  3  0  0  0  0  0  0
  -20.6030  -26.6440   21.5410 C   0  0  0  0  0  2  0  0  0  0  0  0
  -19.3860  -26.5500   20.6150 C   0  0  0  0  0  2  0  0  0  0  0  0
  -18.0890  -26.5430   21.4290 C   0  0  0  0  0  2  0  0  0  0  0  0
  -19.1950  -28.3620   22.8560 C   0  0  0  0  0  0  0  0  0  0  0  0
  -19.0730  -29.4620   23.7310 C   0  0  0  0  0  3  0  0  0  0  0  0
  -17.8060  -29.9100   24.1540 C   0  0  0  0  0  3  0  0  0  0  0  0
  -16.6460  -29.2510   23.7120 C   0  0  0  0  0  3  0  0  0  0  0  0
  -16.7530  -28.1520   22.8420 C   0  0  0  0  0  3  0  0  0  0  0  0
  -26.0130  -31.8600   23.3660 C   0  0  0  0  0  3  0  0  0  0  0  0
  -25.7990  -33.1880   23.9540 N   0  0  0  0  0  0  0  0  0  0  0  0
  -26.1420  -34.3440   23.3680 C   0  0  0  0  0  0  0  0  0  0  0  0
  -26.7450  -34.3960   22.2930 O   0  0  0  0  0  0  0  0  0  0  0  0
  -25.2630  -33.2220   24.8090 H   0  0  0  0  0  0  0  0  0  0  0  0
  -24.4940  -36.2420   23.4410 C   0  0  0  0  0  1  0  0  0  0  0  0
  -25.7540  -35.6480   24.0900 C   0  0  0  0  0  3  0  0  0  0  0  0
  -27.9680  -36.2880   24.9350 C   0  0  0  0  0  1  0  0  0  0  0  0
  -26.8320  -36.6610   24.0950 N   0  0  0  0  0  0  0  0  0  0  0  0
  -26.4810  -37.5580   24.4200 H   0  0  0  0  0  0  0  0  0  0  0  0
  -26.6230  -30.8670   24.4300 C   0  0  1  0  0  0  0  0  0  0  0  0
  -25.6380  -30.4750   25.5550 C   0  0  0  0  0  1  0  0  0  0  0  0
  -27.1040  -29.5640   23.7480 C   0  0  0  0  0  1  0  0  0  0  0  0
  -27.8680  -31.5050   25.0900 C   0  0  0  0  0  1  0  0  0  0  0  0
  1  2  1  0
  2  8  1  0
  2  4  2  0
  3  1  2  0
  3  6  1  0
  4 11  1  0
  5  4  1  0
  5 12  1  0
  6  5  2  0
  7  9  1  0
  7  1  1  0
  8 13  1  1
  9 15  1  1
  9  8  1  0
 10  3  1  0
 14  8  1  0
 16  6  1  0
 17 16  1  0
 18 19  1  0
 18 17  1  0
 20 19  1  0
 21 26  1  0
 22 23  1  0
 22 21  1  0
 24 23  1  0
 24 31  1  0
 24 25  1  0
 26 20  1  0
 26 25  1  0
 27 20  2  0
 28 29  2  0
 29 48  1  0
 30 29  1  0
 30 33  1  0
 31 32  1  0
 31 28  1  0
 32 30  2  0
 33 34  1  0
 34 35  2  0
 36 39  1  0
 36 35  1  0
 37 36  2  0
 38 37  1  0
 38 33  2  0
 39 40  1  0
 40 45  2  0
 40 41  1  0
 41 42  2  0
 42 43  1  0
 43 47  1  0
 44 43  2  0
 45 44  1  0
 46 45  1  0
 48 49  1  0
 49 52  1  0
 49 51  1  0
 50 48  2  0
 53 28  1  0
 53 54  1  0
 55 53  1  0
 56  9  1  0
 57 56  1  0
 58 60  1  0
 58 57  1  0
 59 70  2  0
 60 65  1  0
 61 69  1  0
 61 71  1  0
 62 68  1  0
 62 64  1  0
 63 69  1  0
 64 63  1  0
 65 64  2  0
 66 67  1  0
 66 60  2  0
 67 62  2  0
 68 61  1  0
 69 59  1  0
 71 73  2  0
 72 71  1  0
 74 72  1  0
 75 84  2  0
 75 80  1  0
 76 72  1  0
 76 80  1  0
 77 76  1  0
 78 79  1  0
 78 77  1  0
 79 75  1  0
 80 81  2  0
 81 82  1  0
 83 82  2  0
 84 83  1  0
 85 59  1  0
 85 86  1  0
 85 95  1  0
 86 89  1  0
 87 86  1  0
 87 91  1  0
 88 87  2  0
 91 90  1  0
 91 93  1  0
 93 94  1  0
 93 92  1  0
 95 98  1  1
 95 96  1  0
 97 95  1  0
M  ISO  4  19 100  20 100  57 101  58 101
M  END
>  <TORSDO>  (10) 
F 22

>  <SCORE>  (10) 
-10.152

>  <name>  (10) 
9

>  <ligand_id>  (10) 
9

>  <original_smiles>  (10) 
[H]c1c([H])c([H])c2c(c1[H])C([H])([H])C([H])([H])C([H])([H])C2([H])N([H])C(=O)C1([H])N(C(=O)C([H])(N([H])C(=O)C([H])(N([H])C([H])([H])[H])C([H])([H])[H])C(C([H])([H])[H])(C([H])([H])[H])C([H])([H])[H])C([H])([H])c2c([H])c(OC([H])([H])C([H])([H])C3(C([H])([H])[H])C([H])([H])c4c(C([H])([H])[H])c(C([H])([H])C([H])([H])C([H])([H])C([H])([H])C(=O)N5C([H])([H])C([H])([H])C([H])([H])C([H])(n6nc(-c7c([H])c([H])c(Oc8c([H])c([H])c(F)c([H])c8F)c([H])c7[H])c(C(=O)N([H])[H])c6N([H])[H])C5([H])[H])c(C([H])([H])[H])c(C([H])([H])[H])c4C3(C([H])([H])[H])C([H])([H])[H])c([H])c([H])c2C1([H])[H]

>  <smiles>  (10) 
[H]c1c([H])c([H])c2c(c1[H])C([H])([H])C([H])([H])C([H])([H])C2([H])N([H])C(=O)C1([H])N(C(=O)C([H])(N([H])C(=O)C([H])(N([H])C([H])([H])[H])C([H])([H])[H])C(C([H])([H])[H])(C([H])([H])[H])C([H])([H])[H])C([H])([H])c2c([H])c(OC([H])([H])C([H])([H])C3(C([H])([H])[H])C([H])([H])c4c(C([H])([H])[H])c(C([H])([H])C([H])([H])C([H])([H])C([H])([H])C(=O)N5C([H])([H])C([H])([H])C([H])([H])C([H])(n6nc(-c7c([H])c([H])c(Oc8c([H])c([H])c(F)c([H])c8F)c([H])c7[H])c(C(=O)N([H])[H])c6N([H])[H])C5([H])[H])c(C([H])([H])[H])c(C([H])([H])[H])c4C3(C([H])([H])[H])C([H])([H])[H])c([H])c([H])c2C1([H])[H]

$$$$
10:0:0
     RDKit          3D

105115  0  0  1  0  0  0  0  0999 V2000
  -25.0540  -23.5670   20.3250 C   0  0  0  0  0  3  0  0  0  0  0  0
  -27.0290  -22.2500   18.7930 C   0  0  0  0  0  3  0  0  0  0  0  0
  -26.4060  -23.9370   20.3940 C   0  0  0  0  0  0  0  0  0  0  0  0
  -27.3840  -23.2910   19.6560 C   0  0  0  0  0  0  0  0  0  0  0  0
  -24.6740  -22.5220   19.4510 C   0  0  0  0  0  0  0  0  0  0  0  0
  -25.6670  -21.8630   18.6650 C   0  0  0  0  0  0  0  0  0  0  0  0
  -30.7820  -25.5770   21.1290 C   0  0  0  0  0  0  0  0  0  0  0  0
  -26.9750  -25.1180   21.1030 C   0  0  0  0  0  2  0  0  0  0  0  0
  -30.9650  -24.0530   21.0680 C   0  0  0  0  0  2  0  0  0  0  0  0
  -29.6680  -23.2610   20.7750 C   0  0  0  0  0  2  0  0  0  0  0  0
  -29.3510  -26.1540   21.1830 C   0  0  0  0  0  3  0  0  0  0  0  0
  -28.3230  -25.3430   20.3580 C   0  0  0  0  0  3  0  0  0  0  0  0
  -28.7400  -23.9700   19.7680 C   0  0  2  0  0  0  0  0  0  0  0  0
  -29.4210  -24.0920   18.3820 C   0  0  0  0  0  1  0  0  0  0  0  0
  -31.7740  -26.3130   21.1520 O   0  0  0  0  0  0  0  0  0  0  0  0
  -23.1900  -22.1650   19.3700 C   0  0  0  0  0  2  0  0  0  0  0  0
  -22.2940  -23.3620   19.0080 C   0  0  0  0  0  2  0  0  0  0  0  0
  -20.1350  -24.6100   19.5950 C   0  0  0  0  0  1  0  0  0  0  0  0
  -20.9060  -23.2860   19.6700 C   0  0  0  0  0  2  0  0  0  0  0  0
  -25.2780  -20.7800   17.6540 C   0  0  0  0  0  2  0  0  0  0  0  0
  -26.3420  -19.6880   17.4380 C   0  0  0  0  0  2  0  0  0  0  0  0
  -26.6860  -18.9840   18.7660 C   0  0  0  0  0  2  0  0  0  0  0  0
  -28.1320  -18.4970   18.8560 C   0  0  0  0  0  2  0  0  0  0  0  0
  -28.7480  -18.8460   20.2230 C   0  0  0  0  0  2  0  0  0  0  0  0
  -30.2700  -18.6440   20.3100 C   0  0  0  0  0  2  0  0  0  0  0  0
  -30.7330  -17.5530   21.2920 C   0  0  0  0  0  2  0  0  0  0  0  0
  -30.5840  -15.3680   20.0870 C   0  0  0  0  0  0  0  0  0  0  0  0
  -30.5810  -12.9710   19.5080 C   0  0  0  0  0  2  0  0  0  0  0  0
  -29.6910  -12.6250   18.3030 C   0  0  0  0  0  2  0  0  0  0  0  0
  -28.2390  -12.3830   18.7520 C   0  0  0  0  0  2  0  0  0  0  0  0
  -27.6980  -13.5240   19.6510 C   0  0  0  0  0  3  0  0  0  0  0  0
  -28.6940  -13.8500   20.7840 C   0  0  0  0  0  2  0  0  0  0  0  0
  -30.0170  -14.1410   20.1920 N   0  0  0  0  0  0  0  0  0  0  0  0
  -31.5070  -15.6330   19.3080 O   0  0  0  0  0  0  0  0  0  0  0  0
  -30.1670  -16.2400   21.0120 N   0  0  0  0  0  0  0  0  0  0  0  0
  -29.4320  -15.9190   21.6240 H   0  0  0  0  0  0  0  0  0  0  0  0
  -25.3170  -14.0400   20.4930 C   0  0  0  0  0  0  0  0  0  0  0  0
  -24.2800  -13.2370   20.8690 C   0  0  0  0  0  0  0  0  0  0  0  0
  -24.7640  -11.8990   20.7460 C   0  0  0  0  0  0  0  0  0  0  0  0
  -26.3710  -13.2000   20.1770 N   0  0  0  0  0  0  0  0  0  0  0  0
  -26.0400  -11.8990   20.3790 N   0  0  0  0  0  0  0  0  0  0  0  0
  -24.0650  -10.6200   20.9020 C   0  0  0  0  0  0  0  0  0  0  0  0
  -24.4960   -9.6540   21.8370 C   0  0  0  0  0  3  0  0  0  0  0  0
  -23.7960   -8.4390   21.9820 C   0  0  0  0  0  3  0  0  0  0  0  0
  -22.6510   -8.1810   21.1900 C   0  0  0  0  0  0  0  0  0  0  0  0
  -22.2410   -9.1380   20.2440 C   0  0  0  0  0  3  0  0  0  0  0  0
  -22.9410  -10.3450   20.0980 C   0  0  0  0  0  3  0  0  0  0  0  0
  -21.9240   -7.0190   21.2430 O   0  0  0  0  0  0  0  0  0  0  0  0
  -21.7980   -6.3030   22.4070 C   0  0  0  0  0  0  0  0  0  0  0  0
  -21.2220   -6.8650   23.5660 C   0  0  0  0  0  3  0  0  0  0  0  0
  -21.0470   -6.0740   24.7200 C   0  0  0  0  0  3  0  0  0  0  0  0
  -21.4370   -4.7210   24.7110 C   0  0  0  0  0  0  0  0  0  0  0  0
  -22.0040   -4.1580   23.5550 C   0  0  0  0  0  3  0  0  0  0  0  0
  -22.1810   -4.9470   22.4040 C   0  0  0  0  0  0  0  0  0  0  0  0
  -22.7080   -4.3940   21.2850 F   0  0  0  0  0  0  0  0  0  0  0  0
  -21.2620   -3.9580   25.8160 F   0  0  0  0  0  0  0  0  0  0  0  0
  -22.8920  -13.6800   21.2340 C   0  0  0  0  0  0  0  0  0  0  0  0
  -22.2310  -12.9500   22.1240 N   0  0  0  0  0  0  0  0  0  0  0  0
  -22.4030  -14.7090   20.7650 O   0  0  0  0  0  0  0  0  0  0  0  0
  -22.6400  -12.1190   22.5250 H   0  0  0  0  0  0  0  0  0  0  0  0
  -21.3030  -13.2260   22.4130 H   0  0  0  0  0  0  0  0  0  0  0  0
  -25.4320  -15.4130   20.3810 N   0  0  0  0  0  0  0  0  0  0  0  0
  -24.6420  -16.0260   20.5490 H   0  0  0  0  0  0  0  0  0  0  0  0
  -26.2680  -15.9040   20.0970 H   0  0  0  0  0  0  0  0  0  0  0  0
  -29.3730  -27.5120   20.7180 O   0  0  0  0  0  0  0  0  0  0  0  0
  -24.9490  -32.1400   23.8050 C   0  0  0  0  0  0  0  0  0  0  0  0
  -28.1590  -28.1540   20.6770 C   0  0  0  0  0  0  0  0  0  0  0  0
  -24.0070  -30.8510   21.9170 C   0  0  0  0  0  3  0  0  0  0  0  0
  -25.6880  -29.5150   20.5540 C   0  0  0  0  0  0  0  0  0  0  0  0
  -26.5150  -31.3280   22.0550 C   0  0  0  0  0  2  0  0  0  0  0  0
  -26.7400  -30.0300   21.3210 C   0  0  0  0  0  0  0  0  0  0  0  0
  -27.9750  -29.3490   21.3950 C   0  0  0  0  0  3  0  0  0  0  0  0
  -27.1050  -27.6750   19.8660 C   0  0  0  0  0  3  0  0  0  0  0  0
  -25.8590  -28.3240   19.8340 C   0  0  0  0  0  3  0  0  0  0  0  0
  -24.4060  -30.3080   20.5210 C   0  0  0  0  0  2  0  0  0  0  0  0
  -25.1670  -31.4490   22.6520 N   0  0  0  0  0  0  0  0  0  0  0  0
  -23.8000  -32.3220   24.2300 O   0  0  0  0  0  0  0  0  0  0  0  0
  -23.3050  -29.7190   22.6980 C   0  0  0  0  0  0  0  0  0  0  0  0
  -22.0000  -29.5380   22.4390 N   0  0  0  0  0  0  0  0  0  0  0  0
  -23.9350  -29.0140   23.4900 O   0  0  0  0  0  0  0  0  0  0  0  0
  -21.5570  -30.1650   21.7840 H   0  0  0  0  0  0  0  0  0  0  0  0
  -18.5830  -28.3970   22.6720 C   0  0  0  0  0  0  0  0  0  0  0  0
  -21.1400  -28.5110   23.0260 C   0  0  0  0  0  3  0  0  0  0  0  0
  -21.2090  -27.1960   22.2150 C   0  0  0  0  0  2  0  0  0  0  0  0
  -20.1180  -27.0870   21.1450 C   0  0  0  0  0  2  0  0  0  0  0  0
  -18.7290  -27.1730   21.7830 C   0  0  0  0  0  2  0  0  0  0  0  0
  -19.7150  -29.0340   23.2440 C   0  0  0  0  0  0  0  0  0  0  0  0
  -19.5260  -30.1890   24.0340 C   0  0  0  0  0  3  0  0  0  0  0  0
  -18.2360  -30.7040   24.2590 C   0  0  0  0  0  3  0  0  0  0  0  0
  -17.1160  -30.0550   23.7090 C   0  0  0  0  0  3  0  0  0  0  0  0
  -17.2900  -28.9040   22.9210 C   0  0  0  0  0  3  0  0  0  0  0  0
  -26.1240  -32.7540   24.6300 C   0  0  0  0  0  3  0  0  0  0  0  0
  -26.4900  -31.9160   25.9160 C   0  0  1  0  0  0  0  0  0  0  0  0
  -25.2580  -31.5020   26.7560 C   0  0  0  0  0  1  0  0  0  0  0  0
  -27.2510  -30.6260   25.5250 C   0  0  0  0  0  1  0  0  0  0  0  0
  -27.4390  -32.7360   26.8220 C   0  0  0  0  0  1  0  0  0  0  0  0
  -25.7430  -34.1250   24.9870 N   0  0  0  0  0  0  0  0  0  0  0  0
  -26.1260  -35.2190   24.3160 C   0  0  0  0  0  0  0  0  0  0  0  0
  -26.9050  -35.1810   23.3600 O   0  0  0  0  0  0  0  0  0  0  0  0
  -25.0610  -34.2290   25.7250 H   0  0  0  0  0  0  0  0  0  0  0  0
  -24.4000  -36.9830   23.8510 C   0  0  0  0  0  1  0  0  0  0  0  0
  -25.5510  -36.5710   24.7800 C   0  0  0  0  0  3  0  0  0  0  0  0
  -27.5580  -37.4580   25.8800 C   0  0  0  0  0  1  0  0  0  0  0  0
  -26.5590  -37.6510   24.8310 N   0  0  0  0  0  0  0  0  0  0  0  0
  -26.1160  -38.5540   24.9760 H   0  0  0  0  0  0  0  0  0  0  0  0
  1  3  1  0
  2  4  1  0
  3  8  1  0
  4 13  1  0
  4  3  2  0
  5  1  2  0
  6  2  2  0
  6  5  1  0
  7 15  2  0
  7 11  1  0
  9  7  1  0
 10  9  1  0
 11 65  1  0
 12  8  1  0
 12 11  1  0
 13 14  1  6
 13 12  1  0
 13 10  1  0
 16  5  1  0
 17 16  1  0
 17 19  1  0
 18 19  1  0
 20  6  1  0
 21 20  1  0
 21 22  1  0
 22 23  1  0
 23 24  1  0
 24 25  1  0
 25 26  1  0
 27 33  1  0
 27 35  1  0
 28 33  1  0
 29 30  1  0
 29 28  1  0
 31 30  1  0
 31 40  1  0
 31 32  1  0
 33 32  1  0
 34 27  2  0
 35 26  1  0
 35 36  1  0
 37 38  2  0
 38 57  1  0
 39 38  1  0
 39 42  1  0
 40 41  1  0
 40 37  1  0
 41 39  2  0
 42 43  1  0
 43 44  2  0
 45 48  1  0
 45 44  1  0
 46 45  2  0
 47 46  1  0
 47 42  2  0
 48 49  1  0
 49 50  1  0
 50 51  2  0
 52 51  1  0
 52 56  1  0
 53 52  2  0
 54 49  2  0
 54 53  1  0
 55 54  1  0
 57 58  1  0
 58 61  1  0
 58 60  1  0
 59 57  2  0
 62 37  1  0
 62 63  1  0
 64 62  1  0
 66 77  2  0
 67 65  1  0
 67 72  1  0
 68 76  1  0
 68 78  1  0
 69 71  1  0
 70 76  1  0
 71 72  2  0
 71 70  1  0
 73 67  2  0
 74 73  1  0
 74 69  2  0
 75 69  1  0
 75 68  1  0
 76 66  1  0
 78 80  2  0
 79 78  1  0
 81 79  1  0
 82 91  2  0
 82 87  1  0
 83 79  1  0
 83 87  1  0
 84 83  1  0
 85 86  1  0
 85 84  1  0
 86 82  1  0
 87 88  2  0
 88 89  1  0
 90 89  2  0
 91 90  1  0
 92 66  1  0
 92 97  1  0
 92 93  1  0
 93 94  1  1
 93 96  1  0
 95 93  1  0
 97100  1  0
 98102  1  0
 98 97  1  0
 99 98  2  0
102101  1  0
102104  1  0
104105  1  0
104103  1  0
M  ISO  4  11 101  27 100  35 100  65 101
M  END
>  <TORSDO>  (11) 
F 26

>  <SCORE>  (11) 
-10.841

>  <name>  (11) 
10

>  <ligand_id>  (11) 
10

>  <original_smiles>  (11) 
[H]c1c([H])c([H])c2c(c1[H])C([H])([H])C([H])([H])C([H])([H])C2([H])N([H])C(=O)C1([H])N(C(=O)C([H])(N([H])C(=O)C([H])(N([H])C([H])([H])[H])C([H])([H])[H])C(C([H])([H])[H])(C([H])([H])[H])C([H])([H])[H])C([H])([H])c2c([H])c(OC3([H])C(=O)C([H])([H])C([H])([H])C4(C([H])([H])[H])c5c([H])c(C([H])([H])C([H])([H])C([H])([H])C([H])([H])C([H])([H])C([H])([H])C([H])([H])N([H])C(=O)N6C([H])([H])C([H])([H])C([H])([H])C([H])(n7nc(-c8c([H])c([H])c(Oc9c([H])c([H])c(F)c([H])c9F)c([H])c8[H])c(C(=O)N([H])[H])c7N([H])[H])C6([H])[H])c(C([H])([H])C([H])([H])C([H])([H])C([H])([H])[H])c([H])c5C([H])([H])C34[H])c([H])c([H])c2C1([H])[H]

>  <smiles>  (11) 
[H]c1c([H])c([H])c2c(c1[H])C([H])([H])C([H])([H])C([H])([H])C2([H])N([H])C(=O)C1([H])N(C(=O)C([H])(N([H])C(=O)C([H])(N([H])C([H])([H])[H])C([H])([H])[H])C(C([H])([H])[H])(C([H])([H])[H])C([H])([H])[H])C([H])([H])c2c([H])c(OC3([H])C(=O)C([H])([H])C([H])([H])C4(C([H])([H])[H])c5c([H])c(C([H])([H])C([H])([H])C([H])([H])C([H])([H])C([H])([H])C([H])([H])C([H])([H])N([H])C(=O)N6C([H])([H])C([H])([H])C([H])([H])C([H])(n7nc(-c8c([H])c([H])c(Oc9c([H])c([H])c(F)c([H])c9F)c([H])c8[H])c(C(=O)N([H])[H])c7N([H])[H])C6([H])[H])c(C([H])([H])C([H])([H])C([H])([H])C([H])([H])[H])c([H])c5C([H])([H])C34[H])c([H])c([H])c2C1([H])[H]

$$$$
11:0:0
     RDKit          3D

 88 96  0  0  1  0  0  0  0  0999 V2000
  -28.5750  -19.5950   19.4770 C   0  0  0  0  0  3  0  0  0  0  0  0
  -28.8730  -18.0970   19.4710 C   0  0  0  0  0  3  0  0  0  0  0  0
  -29.1300  -20.7070   20.2980 C   0  0  0  0  0  0  0  0  0  0  0  0
  -29.8160  -17.2890   20.2850 C   0  0  0  0  0  0  0  0  0  0  0  0
  -30.0640  -19.8890   21.1360 C   0  0  0  0  0  0  0  0  0  0  0  0
  -30.3750  -18.3840   21.1270 C   0  0  0  0  0  0  0  0  0  0  0  0
  -30.8400  -20.6920   22.1830 C   0  0  0  0  0  1  0  0  0  0  0  0
  -31.4360  -17.9150   22.1260 C   0  0  0  0  0  1  0  0  0  0  0  0
  -30.4020  -15.6320   20.1170 C   0  0  0  0  0  0  0  0  0  0  0  0
  -30.4070  -13.1120   19.2980 C   0  0  0  0  0  2  0  0  0  0  0  0
  -29.4930  -12.7670   18.0910 C   0  0  0  0  0  2  0  0  0  0  0  0
  -28.0710  -12.4370   18.5660 C   0  0  0  0  0  2  0  0  0  0  0  0
  -27.5930  -13.4300   19.6510 C   0  0  0  0  0  3  0  0  0  0  0  0
  -28.6450  -13.7220   20.7430 C   0  0  0  0  0  2  0  0  0  0  0  0
  -29.8300  -14.2950   20.0760 N   0  0  0  0  0  0  0  0  0  0  0  0
  -31.6200  -15.5130   19.8890 O   0  0  0  0  0  0  0  0  0  0  0  0
  -25.2540  -13.9450   20.4970 C   0  0  0  0  0  0  0  0  0  0  0  0
  -24.2080  -13.1540   20.8820 C   0  0  0  0  0  0  0  0  0  0  0  0
  -24.6840  -11.8070   20.8160 C   0  0  0  0  0  0  0  0  0  0  0  0
  -26.2930  -13.0820   20.2040 N   0  0  0  0  0  0  0  0  0  0  0  0
  -25.9670  -11.7880   20.4680 N   0  0  0  0  0  0  0  0  0  0  0  0
  -23.9690  -10.5380   21.0070 C   0  0  0  0  0  0  0  0  0  0  0  0
  -24.4100   -9.5680   21.9330 C   0  0  0  0  0  3  0  0  0  0  0  0
  -23.6860   -8.3690   22.1140 C   0  0  0  0  0  3  0  0  0  0  0  0
  -22.5080   -8.1300   21.3690 C   0  0  0  0  0  0  0  0  0  0  0  0
  -22.0850   -9.0890   20.4330 C   0  0  0  0  0  3  0  0  0  0  0  0
  -22.8090  -10.2800   20.2490 C   0  0  0  0  0  3  0  0  0  0  0  0
  -21.7570   -6.9830   21.4580 O   0  0  0  0  0  0  0  0  0  0  0  0
  -21.6950   -6.2520   22.6170 C   0  0  0  0  0  0  0  0  0  0  0  0
  -21.2230   -6.8100   23.8260 C   0  0  0  0  0  3  0  0  0  0  0  0
  -21.1100   -6.0040   24.9760 C   0  0  0  0  0  3  0  0  0  0  0  0
  -21.4580   -4.6410   24.9200 C   0  0  0  0  0  0  0  0  0  0  0  0
  -21.9230   -4.0830   23.7150 C   0  0  0  0  0  3  0  0  0  0  0  0
  -22.0370   -4.8850   22.5670 C   0  0  0  0  0  0  0  0  0  0  0  0
  -22.4640   -4.3360   21.4050 F   0  0  0  0  0  0  0  0  0  0  0  0
  -21.3420   -3.8650   26.0220 F   0  0  0  0  0  0  0  0  0  0  0  0
  -22.8160  -13.6190   21.1910 C   0  0  0  0  0  0  0  0  0  0  0  0
  -22.1160  -12.9150   22.0710 N   0  0  0  0  0  0  0  0  0  0  0  0
  -22.3620  -14.6470   20.6900 O   0  0  0  0  0  0  0  0  0  0  0  0
  -22.4970  -12.0840   22.4970 H   0  0  0  0  0  0  0  0  0  0  0  0
  -21.1830  -13.2110   22.3220 H   0  0  0  0  0  0  0  0  0  0  0  0
  -25.4040  -15.3200   20.3390 N   0  0  0  0  0  0  0  0  0  0  0  0
  -24.6430  -15.9690   20.5100 H   0  0  0  0  0  0  0  0  0  0  0  0
  -26.2500  -15.7780   20.0270 H   0  0  0  0  0  0  0  0  0  0  0  0
  -29.0620  -22.5310   20.1790 C   0  0  0  0  0  0  0  0  0  0  0  0
  -30.2050  -22.9880   20.0690 O   0  0  0  0  0  0  0  0  0  0  0  0
  -27.9100  -23.9560   20.1740 C   0  0  0  0  0  2  0  0  0  0  0  0
  -28.1710  -25.6720   20.2090 O   0  0  0  0  0  0  0  0  0  0  0  0
  -24.6890  -31.8630   23.2170 C   0  0  0  0  0  0  0  0  0  0  0  0
  -27.1920  -26.8580   20.1720 C   0  0  0  0  0  0  0  0  0  0  0  0
  -23.4860  -30.4800   21.5780 C   0  0  0  0  0  3  0  0  0  0  0  0
  -24.9200  -28.8530   20.1410 C   0  0  0  0  0  0  0  0  0  0  0  0
  -26.0600  -30.6410   21.4310 C   0  0  0  0  0  2  0  0  0  0  0  0
  -26.1190  -29.2180   20.7650 C   0  0  0  0  0  0  0  0  0  0  0  0
  -27.2440  -28.2480   20.7470 C   0  0  0  0  0  3  0  0  0  0  0  0
  -25.9600  -26.6880   19.4940 C   0  0  0  0  0  3  0  0  0  0  0  0
  -24.8760  -27.6130   19.4810 C   0  0  0  0  0  3  0  0  0  0  0  0
  -23.7120  -29.7970   20.1990 C   0  0  0  0  0  2  0  0  0  0  0  0
  -24.7690  -31.0260   22.1270 N   0  0  0  0  0  0  0  0  0  0  0  0
  -23.6020  -32.1560   23.7420 O   0  0  0  0  0  0  0  0  0  0  0  0
  -22.7830  -29.4900   22.5460 C   0  0  0  0  0  0  0  0  0  0  0  0
  -21.4510  -29.3250   22.4230 N   0  0  0  0  0  0  0  0  0  0  0  0
  -23.4450  -28.8680   23.3790 O   0  0  0  0  0  0  0  0  0  0  0  0
  -20.9670  -29.8770   21.7290 H   0  0  0  0  0  0  0  0  0  0  0  0
  -18.0740  -28.0850   22.9310 C   0  0  0  0  0  0  0  0  0  0  0  0
  -20.6330  -28.3820   23.1940 C   0  0  0  0  0  3  0  0  0  0  0  0
  -20.7480  -26.9490   22.6220 C   0  0  0  0  0  2  0  0  0  0  0  0
  -19.6510  -26.6140   21.6060 C   0  0  0  0  0  2  0  0  0  0  0  0
  -18.2670  -26.7400   22.2500 C   0  0  0  0  0  2  0  0  0  0  0  0
  -19.1840  -28.8620   23.3590 C   0  0  0  0  0  0  0  0  0  0  0  0
  -18.9470  -30.1180   23.9620 C   0  0  0  0  0  3  0  0  0  0  0  0
  -17.6350  -30.5960   24.1350 C   0  0  0  0  0  3  0  0  0  0  0  0
  -16.5410  -29.8190   23.7200 C   0  0  0  0  0  3  0  0  0  0  0  0
  -16.7610  -28.5640   23.1230 C   0  0  0  0  0  3  0  0  0  0  0  0
  -25.9600  -32.5060   23.8500 C   0  0  0  0  0  3  0  0  0  0  0  0
  -25.6410  -33.9040   24.1980 N   0  0  0  0  0  0  0  0  0  0  0  0
  -25.9540  -34.9750   23.4560 C   0  0  0  0  0  0  0  0  0  0  0  0
  -26.5990  -34.8890   22.4080 O   0  0  0  0  0  0  0  0  0  0  0  0
  -25.0620  -34.0410   25.0130 H   0  0  0  0  0  0  0  0  0  0  0  0
  -24.2090  -36.7740   23.1920 C   0  0  0  0  0  1  0  0  0  0  0  0
  -25.4810  -36.3580   23.9500 C   0  0  0  0  0  3  0  0  0  0  0  0
  -27.6360  -37.2530   24.7180 C   0  0  0  0  0  1  0  0  0  0  0  0
  -26.5040  -37.4180   23.8100 N   0  0  0  0  0  0  0  0  0  0  0  0
  -26.0980  -38.3350   23.9740 H   0  0  0  0  0  0  0  0  0  0  0  0
  -26.4670  -31.7360   25.1320 C   0  0  1  0  0  0  0  0  0  0  0  0
  -25.3700  -31.5070   26.1990 C   0  0  0  0  0  1  0  0  0  0  0  0
  -27.0470  -30.3540   24.7580 C   0  0  0  0  0  1  0  0  0  0  0  0
  -27.6200  -32.5280   25.7960 C   0  0  0  0  0  1  0  0  0  0  0  0
  1  3  1  0
  2  1  2  0
  2  4  1  0
  3  5  2  0
  4  6  2  0
  5  7  1  0
  6  5  1  0
  6  8  1  0
  9  4  1  0
 10 15  1  0
 11 12  1  0
 11 10  1  0
 13 12  1  0
 13 20  1  0
 13 14  1  0
 15  9  1  0
 15 14  1  0
 16  9  2  0
 17 18  2  0
 18 37  1  0
 19 18  1  0
 19 22  1  0
 20 21  1  0
 20 17  1  0
 21 19  2  0
 22 23  1  0
 23 24  2  0
 25 28  1  0
 25 24  1  0
 26 25  2  0
 27 26  1  0
 27 22  2  0
 28 29  1  0
 29 30  1  0
 30 31  2  0
 32 31  1  0
 32 36  1  0
 33 32  2  0
 34 29  2  0
 34 33  1  0
 35 34  1  0
 37 38  1  0
 38 41  1  0
 38 40  1  0
 39 37  2  0
 42 17  1  0
 42 43  1  0
 44 42  1  0
 45  3  1  0
 46 45  2  0
 47 45  1  0
 47 48  1  0
 49 60  2  0
 50 48  1  0
 50 55  1  0
 51 59  1  0
 51 61  1  0
 52 58  1  0
 52 54  1  0
 53 59  1  0
 54 53  1  0
 55 54  2  0
 56 50  2  0
 57 56  1  0
 57 52  2  0
 58 51  1  0
 59 49  1  0
 61 63  2  0
 62 61  1  0
 64 62  1  0
 65 74  2  0
 65 70  1  0
 66 62  1  0
 66 70  1  0
 67 66  1  0
 68 69  1  0
 68 67  1  0
 69 65  1  0
 70 71  2  0
 71 72  1  0
 73 72  2  0
 74 73  1  0
 75 49  1  0
 75 76  1  0
 75 85  1  0
 76 79  1  0
 77 81  1  0
 77 76  1  0
 78 77  2  0
 81 80  1  0
 83 81  1  0
 83 84  1  0
 83 82  1  0
 85 88  1  1
 85 86  1  0
 87 85  1  0
M  ISO  4   4 100   9 100  47 101  48 101
M  END
>  <TORSDO>  (12) 
F 18

>  <SCORE>  (12) 
-16.725

>  <name>  (12) 
11

>  <ligand_id>  (12) 
11

>  <original_smiles>  (12) 
[H]c1c([H])c([H])c2c(c1[H])C([H])([H])C([H])([H])C([H])([H])C2([H])N([H])C(=O)C1([H])N(C(=O)C([H])(N([H])C(=O)C([H])(N([H])C([H])([H])[H])C([H])([H])[H])C(C([H])([H])[H])(C([H])([H])[H])C([H])([H])[H])C([H])([H])c2c([H])c(OC([H])([H])C(=O)c3c([H])c([H])c(C(=O)N4C([H])([H])C([H])([H])C([H])([H])C([H])(n5nc(-c6c([H])c([H])c(Oc7c([H])c([H])c(F)c([H])c7F)c([H])c6[H])c(C(=O)N([H])[H])c5N([H])[H])C4([H])[H])c(C([H])([H])[H])c3C([H])([H])[H])c([H])c([H])c2C1([H])[H]

>  <smiles>  (12) 
[H]c1c([H])c([H])c2c(c1[H])C([H])([H])C([H])([H])C([H])([H])C2([H])N([H])C(=O)C1([H])N(C(=O)C([H])(N([H])C(=O)C([H])(N([H])C([H])([H])[H])C([H])([H])[H])C(C([H])([H])[H])(C([H])([H])[H])C([H])([H])[H])C([H])([H])c2c([H])c(OC([H])([H])C(=O)c3c([H])c([H])c(C(=O)N4C([H])([H])C([H])([H])C([H])([H])C([H])(n5nc(-c6c([H])c([H])c(Oc7c([H])c([H])c(F)c([H])c7F)c([H])c6[H])c(C(=O)N([H])[H])c5N([H])[H])C4([H])[H])c(C([H])([H])[H])c3C([H])([H])[H])c([H])c([H])c2C1([H])[H]

$$$$
12:0:0
     RDKit          3D

 92101  0  0  1  0  0  0  0  0999 V2000
  -30.6960  -14.6350   20.5500 C   0  0  0  0  0  0  0  0  0  0  0  0
  -30.4390  -12.4160   19.4590 C   0  0  0  0  0  2  0  0  0  0  0  0
  -29.5110  -12.5080   18.2310 C   0  0  0  0  0  2  0  0  0  0  0  0
  -28.0370  -12.3130   18.6420 C   0  0  0  0  0  2  0  0  0  0  0  0
  -27.6520  -13.1890   19.8580 C   0  0  0  0  0  3  0  0  0  0  0  0
  -28.7030  -13.0630   20.9950 C   0  0  0  0  0  2  0  0  0  0  0  0
  -30.0020  -13.4500   20.4280 N   0  0  0  0  0  0  0  0  0  0  0  0
  -31.8690  -14.6670   20.1640 O   0  0  0  0  0  0  0  0  0  0  0  0
  -27.5500  -19.7870   21.7460 C   0  0  0  0  0  3  0  0  0  0  0  0
  -29.8870  -20.6050   20.4910 C   0  0  0  0  0  3  0  0  0  0  0  0
  -28.5240  -18.8150   21.4330 C   0  0  0  0  0  0  0  0  0  0  0  0
  -29.7300  -19.2260   20.8200 C   0  0  0  0  0  0  0  0  0  0  0  0
  -27.7270  -21.1550   21.4530 C   0  0  0  0  0  0  0  0  0  0  0  0
  -28.9030  -21.5950   20.7900 C   0  0  0  0  0  0  0  0  0  0  0  0
  -28.2260  -17.3680   21.8160 C   0  0  0  0  0  3  0  0  0  0  0  0
  -30.8750  -18.2390   20.5260 C   0  0  0  0  0  3  0  0  0  0  0  0
  -28.7320  -16.2720   20.8480 C   0  0  0  0  0  3  0  0  0  0  0  0
  -30.9880  -16.9630   21.4310 C   0  0  0  0  0  3  0  0  0  0  0  0
  -26.6280  -22.1030   21.9020 C   0  0  0  0  0  1  0  0  0  0  0  0
  -30.1240  -15.8040   21.0450 N   0  0  0  0  0  0  0  0  0  0  0  0
  -25.2550  -13.8090   20.5620 C   0  0  0  0  0  0  0  0  0  0  0  0
  -24.1830  -13.0410   20.9190 C   0  0  0  0  0  0  0  0  0  0  0  0
  -24.6380  -11.6870   20.8750 C   0  0  0  0  0  0  0  0  0  0  0  0
  -26.2990  -12.9240   20.3300 N   0  0  0  0  0  0  0  0  0  0  0  0
  -25.9310  -11.6420   20.5770 N   0  0  0  0  0  0  0  0  0  0  0  0
  -23.9050  -10.4280   21.0410 C   0  0  0  0  0  0  0  0  0  0  0  0
  -24.3610   -9.4210   21.9190 C   0  0  0  0  0  3  0  0  0  0  0  0
  -23.6290   -8.2260   22.0760 C   0  0  0  0  0  3  0  0  0  0  0  0
  -22.4280   -8.0280   21.3550 C   0  0  0  0  0  0  0  0  0  0  0  0
  -21.9910   -9.0250   20.4650 C   0  0  0  0  0  3  0  0  0  0  0  0
  -22.7220  -10.2130   20.3050 C   0  0  0  0  0  3  0  0  0  0  0  0
  -21.6640   -6.8890   21.4240 O   0  0  0  0  0  0  0  0  0  0  0  0
  -21.6850   -6.0750   22.5270 C   0  0  0  0  0  0  0  0  0  0  0  0
  -21.4020   -6.5650   23.8200 C   0  0  0  0  0  3  0  0  0  0  0  0
  -21.3660   -5.6800   24.9160 C   0  0  0  0  0  3  0  0  0  0  0  0
  -21.6040   -4.3060   24.7210 C   0  0  0  0  0  0  0  0  0  0  0  0
  -21.8810   -3.8160   23.4330 C   0  0  0  0  0  3  0  0  0  0  0  0
  -21.9200   -4.6980   22.3390 C   0  0  0  0  0  0  0  0  0  0  0  0
  -22.1660   -4.2160   21.0960 F   0  0  0  0  0  0  0  0  0  0  0  0
  -21.5620   -3.4530   25.7720 F   0  0  0  0  0  0  0  0  0  0  0  0
  -22.7840  -13.5220   21.1830 C   0  0  0  0  0  0  0  0  0  0  0  0
  -22.0480  -12.8250   22.0390 N   0  0  0  0  0  0  0  0  0  0  0  0
  -22.3570  -14.5560   20.6670 O   0  0  0  0  0  0  0  0  0  0  0  0
  -22.4120  -11.9940   22.4810 H   0  0  0  0  0  0  0  0  0  0  0  0
  -21.1080  -13.1240   22.2560 H   0  0  0  0  0  0  0  0  0  0  0  0
  -25.4190  -15.1820   20.3920 N   0  0  0  0  0  0  0  0  0  0  0  0
  -24.6450  -15.8290   20.5070 H   0  0  0  0  0  0  0  0  0  0  0  0
  -26.2510  -15.6230   20.0260 H   0  0  0  0  0  0  0  0  0  0  0  0
  -29.2150  -23.0860   20.4650 C   0  0  0  0  0  3  0  0  0  0  0  0
  -28.0670  -24.0720   20.0420 C   0  0  0  0  0  3  0  0  0  0  0  0
  -28.5180  -25.4090   19.3600 C   0  0  0  0  0  2  0  0  0  0  0  0
  -28.3890  -26.6280   20.1330 O   0  0  0  0  0  0  0  0  0  0  0  0
  -24.6190  -31.8600   23.2110 C   0  0  0  0  0  0  0  0  0  0  0  0
  -27.2200  -27.3760   20.1010 C   0  0  0  0  0  0  0  0  0  0  0  0
  -23.4070  -30.4830   21.5530 C   0  0  0  0  0  3  0  0  0  0  0  0
  -24.8470  -28.9480   20.1090 C   0  0  0  0  0  0  0  0  0  0  0  0
  -25.9410  -30.8020   21.3740 C   0  0  0  0  0  2  0  0  0  0  0  0
  -26.0100  -29.4360   20.7170 C   0  0  0  0  0  0  0  0  0  0  0  0
  -27.1950  -28.6590   20.7100 C   0  0  0  0  0  3  0  0  0  0  0  0
  -26.0270  -26.9020   19.5050 C   0  0  0  0  0  3  0  0  0  0  0  0
  -24.8540  -27.6820   19.5000 C   0  0  0  0  0  3  0  0  0  0  0  0
  -23.6110  -29.8230   20.1640 C   0  0  0  0  0  2  0  0  0  0  0  0
  -24.6740  -31.0640   22.1030 N   0  0  0  0  0  0  0  0  0  0  0  0
  -23.5380  -32.1370   23.7470 O   0  0  0  0  0  0  0  0  0  0  0  0
  -22.7430  -29.4580   22.4980 C   0  0  0  0  0  0  0  0  0  0  0  0
  -21.4150  -29.3040   22.3680 N   0  0  0  0  0  0  0  0  0  0  0  0
  -23.4160  -28.8140   23.3070 O   0  0  0  0  0  0  0  0  0  0  0  0
  -20.9360  -29.8780   21.6880 H   0  0  0  0  0  0  0  0  0  0  0  0
  -18.0290  -28.1400   22.8400 C   0  0  0  0  0  0  0  0  0  0  0  0
  -20.5860  -28.3720   23.1320 C   0  0  0  0  0  3  0  0  0  0  0  0
  -20.6810  -26.9410   22.5560 C   0  0  0  0  0  2  0  0  0  0  0  0
  -19.5960  -26.6390   21.5130 C   0  0  0  0  0  2  0  0  0  0  0  0
  -18.2040  -26.7970   22.1400 C   0  0  0  0  0  2  0  0  0  0  0  0
  -19.1510  -28.8870   23.2840 C   0  0  0  0  0  0  0  0  0  0  0  0
  -18.9390  -30.1480   23.8800 C   0  0  0  0  0  3  0  0  0  0  0  0
  -17.6390  -30.6590   24.0470 C   0  0  0  0  0  3  0  0  0  0  0  0
  -16.5300  -29.9050   23.6320 C   0  0  0  0  0  3  0  0  0  0  0  0
  -16.7260  -28.6460   23.0330 C   0  0  0  0  0  3  0  0  0  0  0  0
  -25.9060  -32.4780   23.8400 C   0  0  0  0  0  3  0  0  0  0  0  0
  -25.5930  -33.8600   24.2330 N   0  0  0  0  0  0  0  0  0  0  0  0
  -25.9040  -34.9440   23.5110 C   0  0  0  0  0  0  0  0  0  0  0  0
  -26.5590  -34.8870   22.4670 O   0  0  0  0  0  0  0  0  0  0  0  0
  -25.0110  -33.9800   25.0480 H   0  0  0  0  0  0  0  0  0  0  0  0
  -24.1480  -36.7300   23.2650 C   0  0  0  0  0  1  0  0  0  0  0  0
  -25.4110  -36.3080   24.0330 C   0  0  0  0  0  3  0  0  0  0  0  0
  -27.5560  -37.1790   24.8460 C   0  0  0  0  0  1  0  0  0  0  0  0
  -26.4280  -37.3760   23.9410 N   0  0  0  0  0  0  0  0  0  0  0  0
  -26.0180  -38.2840   24.1470 H   0  0  0  0  0  0  0  0  0  0  0  0
  -26.4480  -31.6590   25.0750 C   0  0  1  0  0  0  0  0  0  0  0  0
  -25.3760  -31.3670   26.1510 C   0  0  0  0  0  1  0  0  0  0  0  0
  -27.0350  -30.3020   24.6170 C   0  0  0  0  0  1  0  0  0  0  0  0
  -27.6050  -32.4320   25.7520 C   0  0  0  0  0  1  0  0  0  0  0  0
  1 20  1  0
  2  7  1  0
  3  4  1  0
  3  2  1  0
  5  4  1  0
  5 24  1  0
  5  6  1  0
  7  1  1  0
  7  6  1  0
  8  1  2  0
 10 14  1  0
 10 12  2  0
 11  9  2  0
 11 15  1  0
 12 11  1  0
 13  9  1  0
 13 19  1  0
 14 13  2  0
 16 12  1  0
 16 18  2  0
 17 20  1  0
 17 15  2  0
 20 18  1  0
 21 22  2  0
 22 41  1  0
 23 22  1  0
 23 26  1  0
 24 21  1  0
 24 25  1  0
 25 23  2  0
 26 27  1  0
 27 28  2  0
 29 32  1  0
 29 28  1  0
 30 29  2  0
 31 30  1  0
 31 26  2  0
 32 33  1  0
 33 34  1  0
 34 35  2  0
 36 35  1  0
 36 40  1  0
 37 36  2  0
 38 33  2  0
 38 37  1  0
 39 38  1  0
 41 42  1  0
 42 45  1  0
 42 44  1  0
 43 41  2  0
 46 47  1  0
 46 21  1  0
 48 46  1  0
 49 14  1  0
 50 49  2  0
 51 50  1  0
 51 52  1  0
 53 64  2  0
 54 52  1  0
 54 59  1  0
 55 63  1  0
 55 65  1  0
 56 62  1  0
 56 58  1  0
 57 63  1  0
 58 57  1  0
 59 58  2  0
 60 54  2  0
 61 60  1  0
 61 56  2  0
 62 55  1  0
 63 53  1  0
 65 67  2  0
 66 65  1  0
 68 66  1  0
 69 78  2  0
 69 74  1  0
 70 66  1  0
 70 74  1  0
 71 70  1  0
 72 73  1  0
 72 71  1  0
 73 69  1  0
 74 75  2  0
 75 76  1  0
 77 76  2  0
 78 77  1  0
 79 53  1  0
 79 80  1  0
 79 89  1  0
 80 83  1  0
 81 85  1  0
 81 80  1  0
 82 81  2  0
 85 84  1  0
 87 85  1  0
 87 88  1  0
 87 86  1  0
 89 92  1  1
 89 90  1  0
 91 89  1  0
M  ISO  4   1 100  20 100  51 101  52 101
M  END
>  <TORSDO>  (13) 
F 18

>  <SCORE>  (13) 
-5.917

>  <name>  (13) 
12

>  <ligand_id>  (13) 
12

>  <original_smiles>  (13) 
[H]c1c([H])c([H])c2c(c1[H])C([H])([H])C([H])([H])C([H])([H])C2([H])N([H])C(=O)C1([H])N(C(=O)C([H])(N([H])C(=O)C([H])(N([H])C([H])([H])[H])C([H])([H])[H])C(C([H])([H])[H])(C([H])([H])[H])C([H])([H])[H])C([H])([H])c2c([H])c(OC([H])([H])C([H])([H])C([H])([H])c3c([H])c4c(c([H])c3C([H])([H])[H])C([H])([H])C([H])([H])N(C(=O)N3C([H])([H])C([H])([H])C([H])([H])C([H])(n5nc(-c6c([H])c([H])c(Oc7c([H])c([H])c(F)c([H])c7F)c([H])c6[H])c(C(=O)N([H])[H])c5N([H])[H])C3([H])[H])C([H])([H])C4([H])[H])c([H])c([H])c2C1([H])[H]

>  <smiles>  (13) 
[H]c1c([H])c([H])c2c(c1[H])C([H])([H])C([H])([H])C([H])([H])C2([H])N([H])C(=O)C1([H])N(C(=O)C([H])(N([H])C(=O)C([H])(N([H])C([H])([H])[H])C([H])([H])[H])C(C([H])([H])[H])(C([H])([H])[H])C([H])([H])[H])C([H])([H])c2c([H])c(OC([H])([H])C([H])([H])C([H])([H])c3c([H])c4c(c([H])c3C([H])([H])[H])C([H])([H])C([H])([H])N(C(=O)N3C([H])([H])C([H])([H])C([H])([H])C([H])(n5nc(-c6c([H])c([H])c(Oc7c([H])c([H])c(F)c([H])c7F)c([H])c6[H])c(C(=O)N([H])[H])c5N([H])[H])C3([H])[H])C([H])([H])C4([H])[H])c([H])c([H])c2C1([H])[H]

$$$$
13:0:0
     RDKit          3D

 93102  0  0  1  0  0  0  0  0999 V2000
  -30.4110  -16.8830   20.2870 C   0  0  0  0  0  0  0  0  0  0  0  0
  -29.6100  -19.5400   20.0060 C   0  0  0  0  0  0  0  0  0  0  0  0
  -29.8360  -19.7060   21.3790 C   0  0  0  0  0  0  0  0  0  0  0  0
  -29.9110  -18.1140   19.4970 C   0  0  0  0  0  0  0  0  0  0  0  0
  -30.6210  -17.2830   21.6500 C   0  0  0  0  0  0  0  0  0  0  0  0
  -30.2800  -18.5910   22.1740 C   0  0  0  0  0  0  0  0  0  0  0  0
  -29.4970  -21.1060   21.9900 C   0  0  0  0  0  2  0  0  0  0  0  0
  -28.9450  -20.9590   19.2990 C   0  0  0  0  0  2  0  0  0  0  0  0
  -29.8380  -22.4320   21.1910 C   0  0  0  0  0  3  0  0  0  0  0  0
  -29.1850  -22.6500   19.7680 C   0  0  1  0  0  0  0  0  0  0  0  0
  -29.6720  -17.9070   18.0150 C   0  0  0  0  0  1  0  0  0  0  0  0
  -31.3070  -16.3070   22.6200 C   0  0  0  0  0  1  0  0  0  0  0  0
  -30.3790  -18.7940   23.6890 C   0  0  0  0  0  1  0  0  0  0  0  0
  -29.6500  -23.6500   22.1160 C   0  0  0  0  0  1  0  0  0  0  0  0
  -30.3000  -23.0920   18.7990 C   0  0  0  0  0  1  0  0  0  0  0  0
  -30.9160  -15.3360   19.7940 C   0  0  0  0  0  0  0  0  0  0  0  0
  -30.6470  -12.8950   18.9200 C   0  0  0  0  0  2  0  0  0  0  0  0
  -29.6650  -12.8210   17.7230 C   0  0  0  0  0  2  0  0  0  0  0  0
  -28.2200  -12.6430   18.2250 C   0  0  0  0  0  2  0  0  0  0  0  0
  -27.9080  -13.5940   19.4070 C   0  0  0  0  0  3  0  0  0  0  0  0
  -29.0190  -13.6340   20.4740 C   0  0  0  0  0  2  0  0  0  0  0  0
  -30.2620  -14.0590   19.8100 N   0  0  0  0  0  0  0  0  0  0  0  0
  -32.0690  -15.2350   19.3450 O   0  0  0  0  0  0  0  0  0  0  0  0
  -25.6470  -14.2960   20.3500 C   0  0  0  0  0  0  0  0  0  0  0  0
  -24.5490  -13.5890   20.7490 C   0  0  0  0  0  0  0  0  0  0  0  0
  -24.8950  -12.2090   20.6150 C   0  0  0  0  0  0  0  0  0  0  0  0
  -26.5920  -13.3550   19.9860 N   0  0  0  0  0  0  0  0  0  0  0  0
  -26.1560  -12.0880   20.2120 N   0  0  0  0  0  0  0  0  0  0  0  0
  -24.0730  -11.0030   20.7880 C   0  0  0  0  0  0  0  0  0  0  0  0
  -24.5060   -9.9180   21.5790 C   0  0  0  0  0  3  0  0  0  0  0  0
  -23.6830   -8.7820   21.7470 C   0  0  0  0  0  3  0  0  0  0  0  0
  -22.4140   -8.7250   21.1240 C   0  0  0  0  0  0  0  0  0  0  0  0
  -21.9980   -9.7980   20.3170 C   0  0  0  0  0  3  0  0  0  0  0  0
  -22.8200  -10.9250   20.1460 C   0  0  0  0  0  3  0  0  0  0  0  0
  -21.5590   -7.6530   21.2110 O   0  0  0  0  0  0  0  0  0  0  0  0
  -21.6260   -6.7610   22.2530 C   0  0  0  0  0  0  0  0  0  0  0  0
  -21.4920   -7.1750   23.5960 C   0  0  0  0  0  3  0  0  0  0  0  0
  -21.4930   -6.2180   24.6310 C   0  0  0  0  0  3  0  0  0  0  0  0
  -21.6210   -4.8500   24.3260 C   0  0  0  0  0  0  0  0  0  0  0  0
  -21.7510   -4.4350   22.9890 C   0  0  0  0  0  3  0  0  0  0  0  0
  -21.7490   -5.3890   21.9550 C   0  0  0  0  0  0  0  0  0  0  0  0
  -21.8510   -4.9810   20.6670 F   0  0  0  0  0  0  0  0  0  0  0  0
  -21.6190   -3.9320   25.3200 F   0  0  0  0  0  0  0  0  0  0  0  0
  -23.2190  -14.1640   21.1390 C   0  0  0  0  0  0  0  0  0  0  0  0
  -22.5000  -13.4960   22.0320 N   0  0  0  0  0  0  0  0  0  0  0  0
  -22.8350  -15.2410   20.6840 O   0  0  0  0  0  0  0  0  0  0  0  0
  -22.8230  -12.6190   22.4170 H   0  0  0  0  0  0  0  0  0  0  0  0
  -21.6130  -13.8670   22.3400 H   0  0  0  0  0  0  0  0  0  0  0  0
  -25.9130  -15.6580   20.2380 N   0  0  0  0  0  0  0  0  0  0  0  0
  -25.2190  -16.3630   20.4600 H   0  0  0  0  0  0  0  0  0  0  0  0
  -26.7910  -16.0550   19.9290 H   0  0  0  0  0  0  0  0  0  0  0  0
  -28.0970  -24.1140   19.6440 C   0  0  0  0  0  2  0  0  0  0  0  0
  -28.2910  -25.7600   19.7680 O   0  0  0  0  0  0  0  0  0  0  0  0
  -24.7160  -31.5710   23.0290 C   0  0  0  0  0  0  0  0  0  0  0  0
  -27.2560  -26.8410   19.7580 C   0  0  0  0  0  0  0  0  0  0  0  0
  -23.4850  -30.1840   21.4100 C   0  0  0  0  0  3  0  0  0  0  0  0
  -24.9090  -28.6640   19.8670 C   0  0  0  0  0  0  0  0  0  0  0  0
  -26.0350  -30.4720   21.1480 C   0  0  0  0  0  2  0  0  0  0  0  0
  -26.1130  -29.0830   20.4470 C   0  0  0  0  0  0  0  0  0  0  0  0
  -27.2780  -28.1930   20.3670 C   0  0  0  0  0  3  0  0  0  0  0  0
  -26.0180  -26.5800   19.1290 C   0  0  0  0  0  3  0  0  0  0  0  0
  -24.8850  -27.4340   19.1890 C   0  0  0  0  0  3  0  0  0  0  0  0
  -23.6680  -29.5480   20.0040 C   0  0  0  0  0  2  0  0  0  0  0  0
  -24.7700  -30.7680   21.9160 N   0  0  0  0  0  0  0  0  0  0  0  0
  -23.6460  -31.8150   23.6080 O   0  0  0  0  0  0  0  0  0  0  0  0
  -22.8680  -29.1420   22.3800 C   0  0  0  0  0  0  0  0  0  0  0  0
  -21.5520  -28.8830   22.2620 N   0  0  0  0  0  0  0  0  0  0  0  0
  -23.5790  -28.5670   23.2070 O   0  0  0  0  0  0  0  0  0  0  0  0
  -21.0260  -29.4020   21.5710 H   0  0  0  0  0  0  0  0  0  0  0  0
  -18.3030  -27.3300   22.6870 C   0  0  0  0  0  0  0  0  0  0  0  0
  -20.8040  -27.8890   23.0370 C   0  0  0  0  0  3  0  0  0  0  0  0
  -21.0870  -26.4580   22.5250 C   0  0  0  0  0  2  0  0  0  0  0  0
  -20.0710  -25.9800   21.4830 C   0  0  0  0  0  2  0  0  0  0  0  0
  -18.6560  -25.9870   22.0670 C   0  0  0  0  0  2  0  0  0  0  0  0
  -19.3110  -28.2290   23.1280 C   0  0  0  0  0  0  0  0  0  0  0  0
  -18.9260  -29.4740   23.6700 C   0  0  0  0  0  3  0  0  0  0  0  0
  -17.5680  -29.8260   23.7740 C   0  0  0  0  0  3  0  0  0  0  0  0
  -16.5740  -28.9280   23.3480 C   0  0  0  0  0  3  0  0  0  0  0  0
  -16.9420  -27.6820   22.8110 C   0  0  0  0  0  3  0  0  0  0  0  0
  -25.9970  -32.2350   23.6190 C   0  0  0  0  0  3  0  0  0  0  0  0
  -25.6550  -33.6150   24.0120 N   0  0  0  0  0  0  0  0  0  0  0  0
  -25.9490  -34.7110   23.3020 C   0  0  0  0  0  0  0  0  0  0  0  0
  -26.6000  -34.6710   22.2540 O   0  0  0  0  0  0  0  0  0  0  0  0
  -25.0710  -33.7190   24.8280 H   0  0  0  0  0  0  0  0  0  0  0  0
  -24.1670  -36.4780   23.0830 C   0  0  0  0  0  1  0  0  0  0  0  0
  -25.4430  -36.0680   23.8350 C   0  0  0  0  0  3  0  0  0  0  0  0
  -27.5800  -36.9760   24.6340 C   0  0  0  0  0  1  0  0  0  0  0  0
  -26.4450  -37.1510   23.7340 N   0  0  0  0  0  0  0  0  0  0  0  0
  -26.0230  -38.0550   23.9300 H   0  0  0  0  0  0  0  0  0  0  0  0
  -26.5870  -31.4520   24.8570 C   0  0  1  0  0  0  0  0  0  0  0  0
  -25.5480  -31.1710   25.9680 C   0  0  0  0  0  1  0  0  0  0  0  0
  -27.1820  -30.0930   24.4220 C   0  0  0  0  0  1  0  0  0  0  0  0
  -27.7510  -32.2580   25.4800 C   0  0  0  0  0  1  0  0  0  0  0  0
  1  5  1  0
  2  3  2  0
  3  7  1  0
  3  6  1  0
  4  2  1  0
  4  1  2  0
  5  6  2  0
  5 12  1  0
  6 13  1  0
  8 10  1  0
  8  2  1  0
  9  7  1  0
  9 14  1  0
 10 15  1  6
 10  9  1  0
 11  4  1  0
 16 22  1  0
 16  1  1  0
 17 22  1  0
 18 19  1  0
 18 17  1  0
 20 19  1  0
 20 27  1  0
 20 21  1  0
 22 21  1  0
 23 16  2  0
 24 25  2  0
 25 44  1  0
 26 25  1  0
 26 29  1  0
 27 28  1  0
 27 24  1  0
 28 26  2  0
 29 30  1  0
 30 31  2  0
 32 35  1  0
 32 31  1  0
 33 32  2  0
 34 33  1  0
 34 29  2  0
 35 36  1  0
 36 37  1  0
 37 38  2  0
 39 38  1  0
 39 43  1  0
 40 39  2  0
 41 36  2  0
 41 40  1  0
 42 41  1  0
 44 45  1  0
 45 48  1  0
 45 47  1  0
 46 44  2  0
 49 24  1  0
 49 50  1  0
 51 49  1  0
 52 10  1  0
 52 53  1  0
 54 65  2  0
 55 53  1  0
 55 60  1  0
 56 64  1  0
 56 66  1  0
 57 63  1  0
 57 59  1  0
 58 64  1  0
 59 58  1  0
 60 59  2  0
 61 62  1  0
 61 55  2  0
 62 57  2  0
 63 56  1  0
 64 54  1  0
 66 68  2  0
 67 66  1  0
 69 67  1  0
 70 79  2  0
 70 75  1  0
 71 67  1  0
 71 75  1  0
 72 71  1  0
 73 74  1  0
 73 72  1  0
 74 70  1  0
 75 76  2  0
 76 77  1  0
 78 77  2  0
 79 78  1  0
 80 54  1  0
 80 81  1  0
 80 90  1  0
 81 84  1  0
 82 86  1  0
 82 81  1  0
 83 82  2  0
 86 85  1  0
 88 86  1  0
 88 89  1  0
 88 87  1  0
 90 93  1  1
 90 91  1  0
 92 90  1  0
M  ISO  4   1 100  16 100  52 101  53 101
M  END
>  <TORSDO>  (14) 
F 17

>  <SCORE>  (14) 
-13.044

>  <name>  (14) 
13

>  <ligand_id>  (14) 
13

>  <original_smiles>  (14) 
[H]c1c([H])c([H])c2c(c1[H])C([H])([H])C([H])([H])C([H])([H])C2([H])N([H])C(=O)C1([H])N(C(=O)C([H])(N([H])C(=O)C([H])(N([H])C([H])([H])[H])C([H])([H])[H])C(C([H])([H])[H])(C([H])([H])[H])C([H])([H])[H])C([H])([H])c2c([H])c(OC([H])([H])C3(C([H])([H])[H])C([H])([H])c4c(C([H])([H])[H])c(C(=O)N5C([H])([H])C([H])([H])C([H])([H])C([H])(n6nc(-c7c([H])c([H])c(Oc8c([H])c([H])c(F)c([H])c8F)c([H])c7[H])c(C(=O)N([H])[H])c6N([H])[H])C5([H])[H])c(C([H])([H])[H])c(C([H])([H])[H])c4C([H])([H])C3([H])C([H])([H])[H])c([H])c([H])c2C1([H])[H]

>  <smiles>  (14) 
[H]c1c([H])c([H])c2c(c1[H])C([H])([H])C([H])([H])C([H])([H])C2([H])N([H])C(=O)C1([H])N(C(=O)C([H])(N([H])C(=O)C([H])(N([H])C([H])([H])[H])C([H])([H])[H])C(C([H])([H])[H])(C([H])([H])[H])C([H])([H])[H])C([H])([H])c2c([H])c(OC([H])([H])C3(C([H])([H])[H])C([H])([H])c4c(C([H])([H])[H])c(C(=O)N5C([H])([H])C([H])([H])C([H])([H])C([H])(n6nc(-c7c([H])c([H])c(Oc8c([H])c([H])c(F)c([H])c8F)c([H])c7[H])c(C(=O)N([H])[H])c6N([H])[H])C5([H])[H])c(C([H])([H])[H])c(C([H])([H])[H])c4C([H])([H])C3([H])C([H])([H])[H])c([H])c([H])c2C1([H])[H]

$$$$
14:0:0
     RDKit          3D

 93102  0  0  1  0  0  0  0  0999 V2000
  -29.3900  -19.8960   20.3710 C   0  0  0  0  0  0  0  0  0  0  0  0
  -29.9800  -17.1590   20.1650 C   0  0  0  0  0  0  0  0  0  0  0  0
  -29.1250  -19.8870   18.9820 C   0  0  0  0  0  0  0  0  0  0  0  0
  -29.8440  -18.5090   20.9110 C   0  0  0  0  0  0  0  0  0  0  0  0
  -29.6320  -17.3900   18.7860 C   0  0  0  0  0  0  0  0  0  0  0  0
  -29.1650  -18.6510   18.2540 C   0  0  0  0  0  0  0  0  0  0  0  0
  -29.1700  -21.4390   21.0450 C   0  0  0  0  0  0  0  0  0  0  0  0
  -28.7980  -21.2170   18.2230 C   0  0  0  0  0  2  0  0  0  0  0  0
  -29.1000  -22.6220   18.8780 C   0  0  0  0  0  2  0  0  0  0  0  0
  -28.5000  -22.8460   20.2860 C   0  0  1  0  0  0  0  0  0  0  0  0
  -30.2190  -18.4850   22.3810 C   0  0  0  0  0  1  0  0  0  0  0  0
  -29.8500  -16.2600   17.7730 C   0  0  0  0  0  1  0  0  0  0  0  0
  -28.6830  -18.6850   16.7980 C   0  0  0  0  0  1  0  0  0  0  0  0
  -26.9810  -22.5660   20.2110 C   0  0  0  0  0  1  0  0  0  0  0  0
  -29.5000  -21.6030   22.2210 O   0  0  0  0  0  0  0  0  0  0  0  0
  -30.6700  -15.6430   20.5560 C   0  0  0  0  0  0  0  0  0  0  0  0
  -30.7320  -13.1580   19.7600 C   0  0  0  0  0  2  0  0  0  0  0  0
  -29.8810  -12.8080   18.5090 C   0  0  0  0  0  2  0  0  0  0  0  0
  -28.4060  -12.5710   18.8780 C   0  0  0  0  0  2  0  0  0  0  0  0
  -27.8810  -13.5750   19.9340 C   0  0  0  0  0  3  0  0  0  0  0  0
  -28.8690  -13.8140   21.0880 C   0  0  0  0  0  2  0  0  0  0  0  0
  -30.1100  -14.3280   20.4860 N   0  0  0  0  0  0  0  0  0  0  0  0
  -31.9100  -15.5920   20.5610 O   0  0  0  0  0  0  0  0  0  0  0  0
  -25.4840  -14.1070   20.6140 C   0  0  0  0  0  0  0  0  0  0  0  0
  -24.4160  -13.3170   20.9340 C   0  0  0  0  0  0  0  0  0  0  0  0
  -24.8970  -11.9720   20.9180 C   0  0  0  0  0  0  0  0  0  0  0  0
  -26.5430  -13.2430   20.4030 N   0  0  0  0  0  0  0  0  0  0  0  0
  -26.2010  -11.9530   20.6610 N   0  0  0  0  0  0  0  0  0  0  0  0
  -24.1760  -10.7010   21.0690 C   0  0  0  0  0  0  0  0  0  0  0  0
  -24.5620   -9.7400   22.0300 C   0  0  0  0  0  3  0  0  0  0  0  0
  -23.8370   -8.5370   22.1710 C   0  0  0  0  0  3  0  0  0  0  0  0
  -22.7120   -8.2850   21.3500 C   0  0  0  0  0  0  0  0  0  0  0  0
  -22.3440   -9.2350   20.3800 C   0  0  0  0  0  3  0  0  0  0  0  0
  -23.0710  -10.4300   20.2380 C   0  0  0  0  0  3  0  0  0  0  0  0
  -21.9640   -7.1340   21.3990 O   0  0  0  0  0  0  0  0  0  0  0  0
  -21.8340   -6.4080   22.5560 C   0  0  0  0  0  0  0  0  0  0  0  0
  -21.2750   -6.9640   23.7260 C   0  0  0  0  0  3  0  0  0  0  0  0
  -21.0970   -6.1620   24.8710 C   0  0  0  0  0  3  0  0  0  0  0  0
  -21.4670   -4.8050   24.8450 C   0  0  0  0  0  0  0  0  0  0  0  0
  -22.0200   -4.2480   23.6790 C   0  0  0  0  0  3  0  0  0  0  0  0
  -22.1990   -5.0470   22.5360 C   0  0  0  0  0  0  0  0  0  0  0  0
  -22.7120   -4.4990   21.4080 F   0  0  0  0  0  0  0  0  0  0  0  0
  -21.2900   -4.0320   25.9430 F   0  0  0  0  0  0  0  0  0  0  0  0
  -23.0040  -13.7790   21.1400 C   0  0  0  0  0  0  0  0  0  0  0  0
  -22.2490  -13.0850   21.9850 N   0  0  0  0  0  0  0  0  0  0  0  0
  -22.5760  -14.7930   20.5890 O   0  0  0  0  0  0  0  0  0  0  0  0
  -22.6070  -12.2650   22.4520 H   0  0  0  0  0  0  0  0  0  0  0  0
  -21.2990  -13.3770   22.1660 H   0  0  0  0  0  0  0  0  0  0  0  0
  -25.6430  -15.4810   20.4510 N   0  0  0  0  0  0  0  0  0  0  0  0
  -24.8690  -16.1290   20.5460 H   0  0  0  0  0  0  0  0  0  0  0  0
  -26.5070  -15.9320   20.1790 H   0  0  0  0  0  0  0  0  0  0  0  0
  -28.5130  -24.5820   20.8460 C   0  0  0  0  0  2  0  0  0  0  0  0
  -28.3750  -26.1480   20.3070 O   0  0  0  0  0  0  0  0  0  0  0  0
  -24.5370  -32.0160   23.2470 C   0  0  0  0  0  0  0  0  0  0  0  0
  -27.2900  -27.1720   20.3540 C   0  0  0  0  0  0  0  0  0  0  0  0
  -23.4170  -30.5710   21.6000 C   0  0  0  0  0  3  0  0  0  0  0  0
  -24.9380  -28.9850   20.2350 C   0  0  0  0  0  0  0  0  0  0  0  0
  -25.9780  -30.8540   21.5010 C   0  0  0  0  0  2  0  0  0  0  0  0
  -26.1020  -29.4350   20.8700 C   0  0  0  0  0  0  0  0  0  0  0  0
  -27.2760  -28.5530   20.8930 C   0  0  0  0  0  3  0  0  0  0  0  0
  -26.0870  -26.8680   19.6800 C   0  0  0  0  0  3  0  0  0  0  0  0
  -24.9540  -27.7220   19.6200 C   0  0  0  0  0  3  0  0  0  0  0  0
  -23.6950  -29.8760   20.2380 C   0  0  0  0  0  2  0  0  0  0  0  0
  -24.6640  -31.1760   22.1690 N   0  0  0  0  0  0  0  0  0  0  0  0
  -23.4290  -32.2790   23.7430 O   0  0  0  0  0  0  0  0  0  0  0  0
  -22.7320  -29.5660   22.5620 C   0  0  0  0  0  0  0  0  0  0  0  0
  -21.4120  -29.3520   22.4040 N   0  0  0  0  0  0  0  0  0  0  0  0
  -23.3950  -28.9780   23.4200 O   0  0  0  0  0  0  0  0  0  0  0  0
  -20.9280  -29.8780   21.6900 H   0  0  0  0  0  0  0  0  0  0  0  0
  -18.0600  -28.0340   22.8470 C   0  0  0  0  0  0  0  0  0  0  0  0
  -20.6020  -28.3960   23.1670 C   0  0  0  0  0  3  0  0  0  0  0  0
  -20.7680  -26.9610   22.6130 C   0  0  0  0  0  2  0  0  0  0  0  0
  -19.7020  -26.5870   21.5780 C   0  0  0  0  0  2  0  0  0  0  0  0
  -18.3010  -26.6870   22.1870 C   0  0  0  0  0  2  0  0  0  0  0  0
  -19.1400  -28.8430   23.2920 C   0  0  0  0  0  0  0  0  0  0  0  0
  -18.8580  -30.1000   23.8710 C   0  0  0  0  0  3  0  0  0  0  0  0
  -17.5320  -30.5500   24.0070 C   0  0  0  0  0  3  0  0  0  0  0  0
  -16.4670  -29.7410   23.5750 C   0  0  0  0  0  3  0  0  0  0  0  0
  -16.7310  -28.4840   23.0020 C   0  0  0  0  0  3  0  0  0  0  0  0
  -25.7750  -32.7020   23.9000 C   0  0  0  0  0  3  0  0  0  0  0  0
  -25.4200  -34.1040   24.1850 N   0  0  0  0  0  0  0  0  0  0  0  0
  -25.7580  -35.1530   23.4210 C   0  0  0  0  0  0  0  0  0  0  0  0
  -26.4640  -35.0430   22.4160 O   0  0  0  0  0  0  0  0  0  0  0  0
  -24.7970  -34.2610   24.9630 H   0  0  0  0  0  0  0  0  0  0  0  0
  -24.0160  -36.9180   22.9800 C   0  0  0  0  0  1  0  0  0  0  0  0
  -25.2340  -36.5430   23.8390 C   0  0  0  0  0  3  0  0  0  0  0  0
  -27.3210  -37.4840   24.7330 C   0  0  0  0  0  1  0  0  0  0  0  0
  -26.2540  -37.6110   23.7430 N   0  0  0  0  0  0  0  0  0  0  0  0
  -25.8270  -38.5270   23.8530 H   0  0  0  0  0  0  0  0  0  0  0  0
  -26.2530  -31.9860   25.2230 C   0  0  1  0  0  0  0  0  0  0  0  0
  -25.1210  -31.7560   26.2530 C   0  0  0  0  0  1  0  0  0  0  0  0
  -26.8840  -30.6110   24.9110 C   0  0  0  0  0  1  0  0  0  0  0  0
  -27.3560  -32.8300   25.9060 C   0  0  0  0  0  1  0  0  0  0  0  0
  1  4  1  0
  1  7  1  0
  2 16  1  0
  2  4  2  0
  3  1  2  0
  4 11  1  0
  5  2  1  0
  6  5  2  0
  6  3  1  0
  7 15  2  0
  8  9  1  0
  8  3  1  0
  9 10  1  0
 10 14  1  6
 10 52  1  0
 10  7  1  0
 12  5  1  0
 13  6  1  0
 16 23  2  0
 17 22  1  0
 18 19  1  0
 18 17  1  0
 20 19  1  0
 20 27  1  0
 20 21  1  0
 22 16  1  0
 22 21  1  0
 24 25  2  0
 25 44  1  0
 26 25  1  0
 26 29  1  0
 27 24  1  0
 27 28  1  0
 28 26  2  0
 29 30  1  0
 30 31  2  0
 32 35  1  0
 32 31  1  0
 33 32  2  0
 34 33  1  0
 34 29  2  0
 35 36  1  0
 36 37  1  0
 37 38  2  0
 39 38  1  0
 39 43  1  0
 40 39  2  0
 41 36  2  0
 41 40  1  0
 42 41  1  0
 44 45  1  0
 45 48  1  0
 45 47  1  0
 46 44  2  0
 49 50  1  0
 49 24  1  0
 51 49  1  0
 53 55  1  0
 53 52  1  0
 54 65  2  0
 55 60  1  0
 56 64  1  0
 56 66  1  0
 57 63  1  0
 57 59  1  0
 58 64  1  0
 59 60  2  0
 59 58  1  0
 61 55  2  0
 62 61  1  0
 62 57  2  0
 63 56  1  0
 64 54  1  0
 66 68  2  0
 67 66  1  0
 69 67  1  0
 70 79  2  0
 70 75  1  0
 71 67  1  0
 71 75  1  0
 72 71  1  0
 73 74  1  0
 73 72  1  0
 74 70  1  0
 75 76  2  0
 76 77  1  0
 78 77  2  0
 79 78  1  0
 80 54  1  0
 80 81  1  0
 80 90  1  0
 81 84  1  0
 82 86  1  0
 82 81  1  0
 83 82  2  0
 86 85  1  0
 88 86  1  0
 88 89  1  0
 88 87  1  0
 90 93  1  1
 90 91  1  0
 92 90  1  0
M  ISO  4   2 100  16 100  52 101  53 101
M  END
>  <TORSDO>  (15) 
F 17

>  <SCORE>  (15) 
-14.864

>  <name>  (15) 
14

>  <ligand_id>  (15) 
14

>  <original_smiles>  (15) 
[H]c1c([H])c([H])c2c(c1[H])C([H])([H])C([H])([H])C([H])([H])C2([H])N([H])C(=O)C1([H])N(C(=O)C([H])(N([H])C(=O)C([H])(N([H])C([H])([H])[H])C([H])([H])[H])C(C([H])([H])[H])(C([H])([H])[H])C([H])([H])[H])C([H])([H])c2c([H])c(OC([H])([H])C3(C([H])([H])[H])C(=O)c4c(C([H])([H])[H])c(C(=O)N5C([H])([H])C([H])([H])C([H])([H])C([H])(n6nc(-c7c([H])c([H])c(Oc8c([H])c([H])c(F)c([H])c8F)c([H])c7[H])c(C(=O)N([H])[H])c6N([H])[H])C5([H])[H])c(C([H])([H])[H])c(C([H])([H])[H])c4C([H])([H])C3([H])[H])c([H])c([H])c2C1([H])[H]

>  <smiles>  (15) 
[H]c1c([H])c([H])c2c(c1[H])C([H])([H])C([H])([H])C([H])([H])C2([H])N([H])C(=O)C1([H])N(C(=O)C([H])(N([H])C(=O)C([H])(N([H])C([H])([H])[H])C([H])([H])[H])C(C([H])([H])[H])(C([H])([H])[H])C([H])([H])[H])C([H])([H])c2c([H])c(OC([H])([H])C3(C([H])([H])[H])C(=O)c4c(C([H])([H])[H])c(C(=O)N5C([H])([H])C([H])([H])C([H])([H])C([H])(n6nc(-c7c([H])c([H])c(Oc8c([H])c([H])c(F)c([H])c8F)c([H])c7[H])c(C(=O)N([H])[H])c6N([H])[H])C5([H])[H])c(C([H])([H])[H])c(C([H])([H])[H])c4C([H])([H])C3([H])[H])c([H])c([H])c2C1([H])[H]

$$$$
15:0:0
     RDKit          3D

 92101  0  0  1  0  0  0  0  0999 V2000
  -28.0130  -19.0450   18.8090 C   0  0  0  0  0  3  0  0  0  0  0  0
  -29.0060  -20.6040   20.4040 C   0  0  0  0  0  0  0  0  0  0  0  0
  -29.5420  -17.6520   20.3670 C   0  0  0  0  0  0  0  0  0  0  0  0
  -28.1470  -20.3960   19.3010 C   0  0  0  0  0  0  0  0  0  0  0  0
  -28.6390  -17.8090   19.2450 C   0  0  0  0  0  0  0  0  0  0  0  0
  -29.6800  -19.1910   20.8700 C   0  0  0  0  0  0  0  0  0  0  0  0
  -29.0180  -22.3690   20.8030 C   0  0  0  0  0  0  0  0  0  0  0  0
  -27.8000  -23.1320   18.7760 C   0  0  0  0  0  2  0  0  0  0  0  0
  -28.0270  -23.7830   20.1790 C   0  0  0  0  0  3  0  0  0  0  0  0
  -27.2950  -21.5960   18.6680 C   0  0  1  0  0  0  0  0  0  0  0  0
  -28.3060  -16.6400   18.3230 C   0  0  0  0  0  1  0  0  0  0  0  0
  -27.1220  -21.3710   17.1450 C   0  0  0  0  0  1  0  0  0  0  0  0
  -25.8920  -21.5260   19.3020 C   0  0  0  0  0  1  0  0  0  0  0  0
  -29.8370  -22.7100   21.6620 O   0  0  0  0  0  0  0  0  0  0  0  0
  -30.5450  -19.3320   21.9030 F   0  0  0  0  0  0  0  0  0  0  0  0
  -30.3140  -16.0290   20.6680 C   0  0  0  0  0  0  0  0  0  0  0  0
  -30.5810  -13.4210   20.0090 C   0  0  0  0  0  2  0  0  0  0  0  0
  -29.8170  -12.8760   18.7640 C   0  0  0  0  0  2  0  0  0  0  0  0
  -28.3720  -12.4840   19.1150 C   0  0  0  0  0  2  0  0  0  0  0  0
  -27.7330  -13.5060   20.0780 C   0  0  0  0  0  3  0  0  0  0  0  0
  -28.6550  -13.9640   21.2320 C   0  0  0  0  0  2  0  0  0  0  0  0
  -29.8490  -14.6220   20.6350 N   0  0  0  0  0  0  0  0  0  0  0  0
  -31.5600  -15.9460   20.7100 O   0  0  0  0  0  0  0  0  0  0  0  0
  -25.3250  -13.9890   20.6960 C   0  0  0  0  0  0  0  0  0  0  0  0
  -24.2600  -13.1880   20.9930 C   0  0  0  0  0  0  0  0  0  0  0  0
  -24.7600  -11.8490   21.0000 C   0  0  0  0  0  0  0  0  0  0  0  0
  -26.4000  -13.1370   20.5240 N   0  0  0  0  0  0  0  0  0  0  0  0
  -26.0720  -11.8430   20.7790 N   0  0  0  0  0  0  0  0  0  0  0  0
  -24.0470  -10.5730   21.1450 C   0  0  0  0  0  0  0  0  0  0  0  0
  -24.4260   -9.6200   22.1180 C   0  0  0  0  0  3  0  0  0  0  0  0
  -23.7080   -8.4120   22.2520 C   0  0  0  0  0  3  0  0  0  0  0  0
  -22.5980   -8.1470   21.4150 C   0  0  0  0  0  0  0  0  0  0  0  0
  -22.2420   -9.0880   20.4330 C   0  0  0  0  0  3  0  0  0  0  0  0
  -22.9590  -10.2890   20.2970 C   0  0  0  0  0  3  0  0  0  0  0  0
  -21.8600   -6.9900   21.4570 O   0  0  0  0  0  0  0  0  0  0  0  0
  -21.7270   -6.2610   22.6120 C   0  0  0  0  0  0  0  0  0  0  0  0
  -21.1380   -6.8080   23.7730 C   0  0  0  0  0  3  0  0  0  0  0  0
  -20.9590   -6.0040   24.9170 C   0  0  0  0  0  3  0  0  0  0  0  0
  -21.3560   -4.6530   24.8980 C   0  0  0  0  0  0  0  0  0  0  0  0
  -21.9360   -4.1060   23.7400 C   0  0  0  0  0  3  0  0  0  0  0  0
  -22.1180   -4.9080   22.5990 C   0  0  0  0  0  0  0  0  0  0  0  0
  -22.6580   -4.3690   21.4780 F   0  0  0  0  0  0  0  0  0  0  0  0
  -21.1760   -3.8780   25.9920 F   0  0  0  0  0  0  0  0  0  0  0  0
  -22.8380  -13.6360   21.1540 C   0  0  0  0  0  0  0  0  0  0  0  0
  -22.0640  -12.9410   21.9780 N   0  0  0  0  0  0  0  0  0  0  0  0
  -22.4180  -14.6390   20.5790 O   0  0  0  0  0  0  0  0  0  0  0  0
  -22.4170  -12.1310   22.4690 H   0  0  0  0  0  0  0  0  0  0  0  0
  -21.1030  -13.2210   22.1200 H   0  0  0  0  0  0  0  0  0  0  0  0
  -25.4720  -15.3620   20.5240 N   0  0  0  0  0  0  0  0  0  0  0  0
  -24.6900  -16.0040   20.5900 H   0  0  0  0  0  0  0  0  0  0  0  0
  -26.3420  -15.8220   20.2880 H   0  0  0  0  0  0  0  0  0  0  0  0
  -28.1630  -25.5870   20.2590 O   0  0  0  0  0  0  0  0  0  0  0  0
  -24.6210  -31.9450   23.2070 C   0  0  0  0  0  0  0  0  0  0  0  0
  -27.1800  -26.8230   20.2090 C   0  0  0  0  0  0  0  0  0  0  0  0
  -23.4380  -30.5270   21.5900 C   0  0  0  0  0  3  0  0  0  0  0  0
  -24.8900  -28.8790   20.1670 C   0  0  0  0  0  0  0  0  0  0  0  0
  -26.0180  -30.6780   21.4480 C   0  0  0  0  0  2  0  0  0  0  0  0
  -26.0910  -29.2350   20.7930 C   0  0  0  0  0  0  0  0  0  0  0  0
  -27.2150  -28.2400   20.7770 C   0  0  0  0  0  3  0  0  0  0  0  0
  -25.9390  -26.6950   19.5280 C   0  0  0  0  0  3  0  0  0  0  0  0
  -24.8580  -27.6360   19.5090 C   0  0  0  0  0  3  0  0  0  0  0  0
  -23.6730  -29.8220   20.2210 C   0  0  0  0  0  2  0  0  0  0  0  0
  -24.7170  -31.0860   22.1330 N   0  0  0  0  0  0  0  0  0  0  0  0
  -23.5280  -32.2370   23.7230 O   0  0  0  0  0  0  0  0  0  0  0  0
  -22.7360  -29.5510   22.5740 C   0  0  0  0  0  0  0  0  0  0  0  0
  -21.4090  -29.3650   22.4460 N   0  0  0  0  0  0  0  0  0  0  0  0
  -23.4020  -28.9560   23.4250 O   0  0  0  0  0  0  0  0  0  0  0  0
  -20.9210  -29.8950   21.7380 H   0  0  0  0  0  0  0  0  0  0  0  0
  -18.0460  -28.0830   22.9770 C   0  0  0  0  0  0  0  0  0  0  0  0
  -20.6010  -28.4180   23.2270 C   0  0  0  0  0  3  0  0  0  0  0  0
  -20.7330  -26.9820   22.6690 C   0  0  0  0  0  2  0  0  0  0  0  0
  -19.6370  -26.6230   21.6610 C   0  0  0  0  0  2  0  0  0  0  0  0
  -18.2530  -26.7360   22.3060 C   0  0  0  0  0  2  0  0  0  0  0  0
  -19.1460  -28.8800   23.3950 C   0  0  0  0  0  0  0  0  0  0  0  0
  -18.8930  -30.1350   23.9890 C   0  0  0  0  0  3  0  0  0  0  0  0
  -17.5750  -30.5970   24.1650 C   0  0  0  0  0  3  0  0  0  0  0  0
  -16.4910  -29.8000   23.7590 C   0  0  0  0  0  3  0  0  0  0  0  0
  -16.7260  -28.5440   23.1710 C   0  0  0  0  0  3  0  0  0  0  0  0
  -25.8780  -32.6190   23.8400 C   0  0  0  0  0  3  0  0  0  0  0  0
  -25.5410  -34.0210   24.1590 N   0  0  0  0  0  0  0  0  0  0  0  0
  -25.8810  -35.0880   23.4230 C   0  0  0  0  0  0  0  0  0  0  0  0
  -26.5680  -34.9970   22.4030 O   0  0  0  0  0  0  0  0  0  0  0  0
  -24.9330  -34.1650   24.9520 H   0  0  0  0  0  0  0  0  0  0  0  0
  -24.1730  -36.9050   23.0520 C   0  0  0  0  0  1  0  0  0  0  0  0
  -25.3890  -36.4760   23.8900 C   0  0  0  0  0  3  0  0  0  0  0  0
  -27.4970  -37.3550   24.7960 C   0  0  0  0  0  1  0  0  0  0  0  0
  -26.4290  -37.5270   23.8150 N   0  0  0  0  0  0  0  0  0  0  0  0
  -26.0210  -38.4490   23.9470 H   0  0  0  0  0  0  0  0  0  0  0  0
  -26.3800  -31.8830   25.1440 C   0  0  1  0  0  0  0  0  0  0  0  0
  -25.2740  -31.6570   26.2030 C   0  0  0  0  0  1  0  0  0  0  0  0
  -26.9860  -30.5030   24.8060 C   0  0  0  0  0  1  0  0  0  0  0  0
  -27.5130  -32.7070   25.8040 C   0  0  0  0  0  1  0  0  0  0  0  0
  1  5  2  0
  1  4  1  0
  2  7  1  0
  2  6  1  0
  3 16  1  0
  3  6  2  0
  4  2  2  0
  5  3  1  0
  6 15  1  0
  7 14  2  0
  8  9  1  0
  9 52  1  0
  9  7  1  0
 10  8  1  0
 10  4  1  0
 10 13  1  1
 11  5  1  0
 12 10  1  0
 16 23  2  0
 17 22  1  0
 18 19  1  0
 18 17  1  0
 20 19  1  0
 20 27  1  0
 20 21  1  0
 22 16  1  0
 22 21  1  0
 24 25  2  0
 25 26  1  0
 25 44  1  0
 26 29  1  0
 27 24  1  0
 27 28  1  0
 28 26  2  0
 29 30  1  0
 30 31  2  0
 32 35  1  0
 32 31  1  0
 33 32  2  0
 34 33  1  0
 34 29  2  0
 35 36  1  0
 36 37  1  0
 37 38  2  0
 39 38  1  0
 39 43  1  0
 40 39  2  0
 41 36  2  0
 41 40  1  0
 42 41  1  0
 44 45  1  0
 45 48  1  0
 45 47  1  0
 46 44  2  0
 49 50  1  0
 49 24  1  0
 51 49  1  0
 53 64  2  0
 54 52  1  0
 54 59  1  0
 55 63  1  0
 55 65  1  0
 56 62  1  0
 56 58  1  0
 57 63  1  0
 58 57  1  0
 59 58  2  0
 60 54  2  0
 61 60  1  0
 61 56  2  0
 62 55  1  0
 63 53  1  0
 65 67  2  0
 66 65  1  0
 68 66  1  0
 69 78  2  0
 69 74  1  0
 70 66  1  0
 70 74  1  0
 71 70  1  0
 72 73  1  0
 72 71  1  0
 73 69  1  0
 74 75  2  0
 75 76  1  0
 77 76  2  0
 78 77  1  0
 79 53  1  0
 79 80  1  0
 79 89  1  0
 80 83  1  0
 81 85  1  0
 81 80  1  0
 82 81  2  0
 85 84  1  0
 87 85  1  0
 87 88  1  0
 87 86  1  0
 89 92  1  1
 89 90  1  0
 91 89  1  0
M  ISO  4   3 100   9 101  16 100  52 101
M  END
>  <TORSDO>  (16) 
F 16

>  <SCORE>  (16) 
-15.476

>  <name>  (16) 
15

>  <ligand_id>  (16) 
15

>  <original_smiles>  (16) 
[H]c1c([H])c([H])c2c(c1[H])C([H])([H])C([H])([H])C([H])([H])C2([H])N([H])C(=O)C1([H])N(C(=O)C([H])(N([H])C(=O)C([H])(N([H])C([H])([H])[H])C([H])([H])[H])C(C([H])([H])[H])(C([H])([H])[H])C([H])([H])[H])C([H])([H])c2c([H])c(OC3([H])C(=O)c4c(F)c(C(=O)N5C([H])([H])C([H])([H])C([H])([H])C([H])(n6nc(-c7c([H])c([H])c(Oc8c([H])c([H])c(F)c([H])c8F)c([H])c7[H])c(C(=O)N([H])[H])c6N([H])[H])C5([H])[H])c(C([H])([H])[H])c([H])c4C(C([H])([H])[H])(C([H])([H])[H])C3([H])[H])c([H])c([H])c2C1([H])[H]

>  <smiles>  (16) 
[H]c1c([H])c([H])c2c(c1[H])C([H])([H])C([H])([H])C([H])([H])C2([H])N([H])C(=O)C1([H])N(C(=O)C([H])(N([H])C(=O)C([H])(N([H])C([H])([H])[H])C([H])([H])[H])C(C([H])([H])[H])(C([H])([H])[H])C([H])([H])[H])C([H])([H])c2c([H])c(OC3([H])C(=O)c4c(F)c(C(=O)N5C([H])([H])C([H])([H])C([H])([H])C([H])(n6nc(-c7c([H])c([H])c(Oc8c([H])c([H])c(F)c([H])c8F)c([H])c7[H])c(C(=O)N([H])[H])c6N([H])[H])C5([H])[H])c(C([H])([H])[H])c([H])c4C(C([H])([H])[H])(C([H])([H])[H])C3([H])[H])c([H])c([H])c2C1([H])[H]

$$$$
16:0:0
     RDKit          3D

 94102  0  0  1  0  0  0  0  0999 V2000
  -29.1950  -22.4830   19.7930 C   0  0  0  0  0  3  0  0  0  0  0  0
  -30.1250  -22.5170   18.5430 C   0  0  0  0  0  2  0  0  0  0  0  0
  -34.2500  -23.8350   19.1510 C   0  0  0  0  0  3  0  0  0  0  0  0
  -33.7100  -22.7910   19.9220 C   0  0  0  0  0  3  0  0  0  0  0  0
  -33.4520  -24.4700   18.1830 C   0  0  0  0  0  3  0  0  0  0  0  0
  -32.3800  -22.3880   19.7180 C   0  0  0  0  0  3  0  0  0  0  0  0
  -32.1160  -24.0670   17.9690 C   0  0  0  0  0  0  0  0  0  0  0  0
  -31.5600  -23.0200   18.7540 C   0  0  0  0  0  0  0  0  0  0  0  0
  -31.3290  -24.7550   16.8660 C   0  0  0  0  0  1  0  0  0  0  0  0
  -29.3970  -21.1760   20.7100 C   0  0  0  0  0  3  0  0  0  0  0  0
  -29.7060  -19.7740   20.0040 C   0  0  0  0  0  3  0  0  0  0  0  0
  -29.6680  -18.4030   20.8190 C   0  0  0  0  0  3  0  0  0  0  0  0
  -30.2260  -17.1220   20.0530 C   0  0  0  0  0  3  0  0  0  0  0  0
  -30.6650  -14.6140   20.2560 C   0  0  0  0  0  0  0  0  0  0  0  0
  -30.3650  -12.4010   19.1780 C   0  0  0  0  0  2  0  0  0  0  0  0
  -29.4150  -12.5730   17.9720 C   0  0  0  0  0  2  0  0  0  0  0  0
  -27.9460  -12.4320   18.4150 C   0  0  0  0  0  2  0  0  0  0  0  0
  -27.6200  -13.2760   19.6770 C   0  0  0  0  0  3  0  0  0  0  0  0
  -28.6920  -13.1100   20.7800 C   0  0  0  0  0  2  0  0  0  0  0  0
  -29.9980  -13.4200   20.1840 N   0  0  0  0  0  0  0  0  0  0  0  0
  -31.8200  -14.7210   19.8340 O   0  0  0  0  0  0  0  0  0  0  0  0
  -29.9430  -15.7350   20.5730 N   0  0  0  0  0  0  0  0  0  0  0  0
  -29.0160  -15.5660   20.9370 H   0  0  0  0  0  0  0  0  0  0  0  0
  -25.2320  -13.8850   20.4050 C   0  0  0  0  0  0  0  0  0  0  0  0
  -24.1670  -13.1170   20.7890 C   0  0  0  0  0  0  0  0  0  0  0  0
  -24.6270  -11.7640   20.7690 C   0  0  0  0  0  0  0  0  0  0  0  0
  -26.2750  -13.0000   20.1750 N   0  0  0  0  0  0  0  0  0  0  0  0
  -25.9150  -11.7200   20.4520 N   0  0  0  0  0  0  0  0  0  0  0  0
  -23.8990  -10.5060   20.9760 C   0  0  0  0  0  0  0  0  0  0  0  0
  -24.3380   -9.5450   21.9140 C   0  0  0  0  0  3  0  0  0  0  0  0
  -23.6100   -8.3520   22.1090 C   0  0  0  0  0  3  0  0  0  0  0  0
  -22.4300   -8.1120   21.3670 C   0  0  0  0  0  0  0  0  0  0  0  0
  -22.0100   -9.0610   20.4190 C   0  0  0  0  0  3  0  0  0  0  0  0
  -22.7380  -10.2460   20.2220 C   0  0  0  0  0  3  0  0  0  0  0  0
  -21.6710   -6.9700   21.4740 O   0  0  0  0  0  0  0  0  0  0  0  0
  -21.6360   -6.2340   22.6300 C   0  0  0  0  0  0  0  0  0  0  0  0
  -21.2240   -6.7950   23.8590 C   0  0  0  0  0  3  0  0  0  0  0  0
  -21.1380   -5.9850   25.0090 C   0  0  0  0  0  3  0  0  0  0  0  0
  -21.4490   -4.6140   24.9290 C   0  0  0  0  0  0  0  0  0  0  0  0
  -21.8510   -4.0520   23.7050 C   0  0  0  0  0  3  0  0  0  0  0  0
  -21.9420   -4.8590   22.5590 C   0  0  0  0  0  0  0  0  0  0  0  0
  -22.3100   -4.3090   21.3770 F   0  0  0  0  0  0  0  0  0  0  0  0
  -21.3580   -3.8330   26.0330 F   0  0  0  0  0  0  0  0  0  0  0  0
  -22.7730  -13.6010   21.0650 C   0  0  0  0  0  0  0  0  0  0  0  0
  -22.0510  -12.9160   21.9440 N   0  0  0  0  0  0  0  0  0  0  0  0
  -22.3330  -14.6220   20.5370 O   0  0  0  0  0  0  0  0  0  0  0  0
  -22.4200  -12.0910   22.3940 H   0  0  0  0  0  0  0  0  0  0  0  0
  -21.1140  -13.2200   22.1680 H   0  0  0  0  0  0  0  0  0  0  0  0
  -25.3940  -15.2530   20.2080 N   0  0  0  0  0  0  0  0  0  0  0  0
  -24.6210  -15.9010   20.3040 H   0  0  0  0  0  0  0  0  0  0  0  0
  -26.2360  -15.6920   19.8580 H   0  0  0  0  0  0  0  0  0  0  0  0
  -29.1200  -23.9270   20.4930 C   0  0  0  0  0  3  0  0  0  0  0  0
  -28.2440  -25.0500   19.7800 C   0  0  0  0  0  3  0  0  0  0  0  0
  -28.3310  -26.4610   20.2320 O   0  0  0  0  0  0  0  0  0  0  0  0
  -24.6250  -31.8590   23.2770 C   0  0  0  0  0  0  0  0  0  0  0  0
  -27.2080  -27.3080   20.1660 C   0  0  0  0  0  0  0  0  0  0  0  0
  -23.4120  -30.4790   21.6300 C   0  0  0  0  0  3  0  0  0  0  0  0
  -24.8500  -28.9360   20.1870 C   0  0  0  0  0  0  0  0  0  0  0  0
  -25.9530  -30.7810   21.4480 C   0  0  0  0  0  2  0  0  0  0  0  0
  -26.0220  -29.4070   20.7900 C   0  0  0  0  0  0  0  0  0  0  0  0
  -27.1990  -28.6010   20.7790 C   0  0  0  0  0  3  0  0  0  0  0  0
  -26.0170  -26.9060   19.5170 C   0  0  0  0  0  3  0  0  0  0  0  0
  -24.8500  -27.6920   19.5430 C   0  0  0  0  0  3  0  0  0  0  0  0
  -23.6190  -29.8160   20.2440 C   0  0  0  0  0  2  0  0  0  0  0  0
  -24.6820  -31.0550   22.1760 N   0  0  0  0  0  0  0  0  0  0  0  0
  -23.5430  -32.1390   23.8160 O   0  0  0  0  0  0  0  0  0  0  0  0
  -22.7450  -29.4570   22.5820 C   0  0  0  0  0  0  0  0  0  0  0  0
  -21.4190  -29.2820   22.4530 N   0  0  0  0  0  0  0  0  0  0  0  0
  -23.4210  -28.8240   23.3990 O   0  0  0  0  0  0  0  0  0  0  0  0
  -20.9330  -29.8440   21.7680 H   0  0  0  0  0  0  0  0  0  0  0  0
  -18.0390  -28.0850   22.9340 C   0  0  0  0  0  0  0  0  0  0  0  0
  -20.5970  -28.3450   23.2200 C   0  0  0  0  0  3  0  0  0  0  0  0
  -20.7020  -26.9130   22.6450 C   0  0  0  0  0  2  0  0  0  0  0  0
  -19.6060  -26.5890   21.6250 C   0  0  0  0  0  2  0  0  0  0  0  0
  -18.2200  -26.7350   22.2610 C   0  0  0  0  0  2  0  0  0  0  0  0
  -19.1550  -28.8470   23.3720 C   0  0  0  0  0  0  0  0  0  0  0  0
  -18.9320  -30.1090   23.9640 C   0  0  0  0  0  3  0  0  0  0  0  0
  -17.6260  -30.6110   24.1200 C   0  0  0  0  0  3  0  0  0  0  0  0
  -16.5250  -29.8450   23.6980 C   0  0  0  0  0  3  0  0  0  0  0  0
  -16.7330  -28.5840   23.1120 C   0  0  0  0  0  3  0  0  0  0  0  0
  -25.9120  -32.4800   23.9010 C   0  0  0  0  0  3  0  0  0  0  0  0
  -25.6170  -33.8810   24.2290 N   0  0  0  0  0  0  0  0  0  0  0  0
  -25.9500  -34.9290   23.4630 C   0  0  0  0  0  0  0  0  0  0  0  0
  -26.6090  -34.8150   22.4260 O   0  0  0  0  0  0  0  0  0  0  0  0
  -25.0340  -34.0450   25.0370 H   0  0  0  0  0  0  0  0  0  0  0  0
  -24.2290  -36.7300   23.1230 C   0  0  0  0  0  1  0  0  0  0  0  0
  -25.4780  -36.3230   23.9200 C   0  0  0  0  0  3  0  0  0  0  0  0
  -27.6290  -37.1990   24.7170 C   0  0  0  0  0  1  0  0  0  0  0  0
  -26.5170  -37.3680   23.7850 N   0  0  0  0  0  0  0  0  0  0  0  0
  -26.1200  -38.2930   23.9300 H   0  0  0  0  0  0  0  0  0  0  0  0
  -26.4190  -31.7060   25.1800 C   0  0  1  0  0  0  0  0  0  0  0  0
  -25.3210  -31.4800   26.2450 C   0  0  0  0  0  1  0  0  0  0  0  0
  -26.9900  -30.3230   24.7910 C   0  0  0  0  0  1  0  0  0  0  0  0
  -27.5780  -32.4900   25.8400 C   0  0  0  0  0  1  0  0  0  0  0  0
  1  2  1  0
  1 52  1  0
  1 10  1  0
  2  8  1  0
  3  4  1  0
  5  3  2  0
  6  4  2  0
  7  5  1  0
  7  8  2  0
  8  6  1  0
  9  7  1  0
 11 10  2  0
 11 12  1  0
 13 22  1  0
 13 12  2  0
 14 22  1  0
 15 20  1  0
 16 17  1  0
 16 15  1  0
 18 17  1  0
 18 27  1  0
 18 19  1  0
 20 14  1  0
 20 19  1  0
 21 14  2  0
 22 23  1  0
 24 25  2  0
 25 44  1  0
 26 25  1  0
 26 29  1  0
 27 24  1  0
 27 28  1  0
 28 26  2  0
 29 30  1  0
 30 31  2  0
 32 35  1  0
 32 31  1  0
 33 32  2  0
 34 33  1  0
 34 29  2  0
 35 36  1  0
 36 37  1  0
 37 38  2  0
 39 38  1  0
 39 43  1  0
 40 39  2  0
 41 36  2  0
 41 40  1  0
 42 41  1  0
 44 45  1  0
 45 48  1  0
 45 47  1  0
 46 44  2  0
 49 50  1  0
 49 24  1  0
 51 49  1  0
 53 54  1  0
 53 52  2  0
 55 66  2  0
 56 54  1  0
 56 61  1  0
 57 65  1  0
 57 67  1  0
 58 64  1  0
 58 60  1  0
 59 65  1  0
 60 59  1  0
 61 60  2  0
 62 63  1  0
 62 56  2  0
 63 58  2  0
 64 57  1  0
 65 55  1  0
 67 69  2  0
 68 67  1  0
 70 68  1  0
 71 80  2  0
 71 76  1  0
 72 68  1  0
 72 76  1  0
 73 72  1  0
 74 75  1  0
 74 73  1  0
 75 71  1  0
 76 77  2  0
 77 78  1  0
 79 78  2  0
 80 79  1  0
 81 55  1  0
 81 82  1  0
 81 91  1  0
 82 85  1  0
 83 87  1  0
 83 82  1  0
 84 83  2  0
 87 86  1  0
 89 87  1  0
 89 90  1  0
 89 88  1  0
 91 94  1  1
 91 92  1  0
 93 91  1  0
M  ISO  4  14 100  22 100  53 101  54 101
M  END
>  <TORSDO>  (17) 
F 24

>  <SCORE>  (17) 
-12.322

>  <name>  (17) 
16

>  <ligand_id>  (17) 
16

>  <original_smiles>  (17) 
[H]c1c([H])c([H])c(C([H])([H])C([H])(C([H])([H])C([H])([H])Oc2c([H])c([H])c3c(c2[H])C([H])([H])N(C(=O)C([H])(N([H])C(=O)C([H])(N([H])C([H])([H])[H])C([H])([H])[H])C(C([H])([H])[H])(C([H])([H])[H])C([H])([H])[H])C([H])(C(=O)N([H])C2([H])c4c([H])c([H])c([H])c([H])c4C([H])([H])C([H])([H])C2([H])[H])C3([H])[H])C([H])([H])C([H])([H])C([H])([H])C([H])([H])N([H])C(=O)N2C([H])([H])C([H])([H])C([H])([H])C([H])(n3nc(-c4c([H])c([H])c(Oc5c([H])c([H])c(F)c([H])c5F)c([H])c4[H])c(C(=O)N([H])[H])c3N([H])[H])C2([H])[H])c(C([H])([H])[H])c1[H]

>  <smiles>  (17) 
[H]c1c([H])c([H])c(C([H])([H])C([H])(C([H])([H])C([H])([H])Oc2c([H])c([H])c3c(c2[H])C([H])([H])N(C(=O)C([H])(N([H])C(=O)C([H])(N([H])C([H])([H])[H])C([H])([H])[H])C(C([H])([H])[H])(C([H])([H])[H])C([H])([H])[H])C([H])(C(=O)N([H])C2([H])c4c([H])c([H])c([H])c([H])c4C([H])([H])C([H])([H])C2([H])[H])C3([H])[H])C([H])([H])C([H])([H])C([H])([H])C([H])([H])N([H])C(=O)N2C([H])([H])C([H])([H])C([H])([H])C([H])(n3nc(-c4c([H])c([H])c(Oc5c([H])c([H])c(F)c([H])c5F)c([H])c4[H])c(C(=O)N([H])[H])c3N([H])[H])C2([H])[H])c(C([H])([H])[H])c1[H]

$$$$
17:0:0
     RDKit          3D

 99108  0  0  1  0  0  0  0  0999 V2000
  -32.5570  -23.5430   19.8340 C   0  0  0  0  0  3  0  0  0  0  0  0
  -31.8370  -22.3730   20.1100 C   0  0  0  0  0  3  0  0  0  0  0  0
  -32.0120  -24.8140   20.1030 C   0  0  0  0  0  0  0  0  0  0  0  0
  -30.7170  -24.9070   20.6900 C   0  0  0  0  0  0  0  0  0  0  0  0
  -30.5400  -22.4320   20.6620 C   0  0  0  0  0  0  0  0  0  0  0  0
  -29.9680  -23.7110   20.9370 C   0  0  0  0  0  0  0  0  0  0  0  0
  -32.8850  -25.9930   19.7960 C   0  0  0  0  0  0  0  0  0  0  0  0
  -30.1850  -26.2910   21.1090 C   0  0  0  0  0  2  0  0  0  0  0  0
  -32.2720  -27.2750   19.2130 C   0  0  0  0  0  2  0  0  0  0  0  0
  -30.8020  -27.1740   18.7730 C   0  0  0  0  0  2  0  0  0  0  0  0
  -29.8190  -27.2440   19.9510 C   0  0  0  0  0  3  0  0  0  0  0  0
  -34.1100  -25.9590   19.9430 O   0  0  0  0  0  0  0  0  0  0  0  0
  -28.5480  -26.8690   19.4260 O   0  0  0  0  0  0  0  0  0  0  0  0
  -24.5860  -31.7260   22.9580 C   0  0  0  0  0  0  0  0  0  0  0  0
  -27.4070  -27.6350   19.5730 C   0  0  0  0  0  0  0  0  0  0  0  0
  -23.4190  -30.3780   21.2410 C   0  0  0  0  0  3  0  0  0  0  0  0
  -24.9260  -29.0010   19.7090 C   0  0  0  0  0  0  0  0  0  0  0  0
  -25.9190  -30.8710   21.0360 C   0  0  0  0  0  2  0  0  0  0  0  0
  -26.0620  -29.5470   20.3170 C   0  0  0  0  0  0  0  0  0  0  0  0
  -27.3030  -28.8740   20.2560 C   0  0  0  0  0  3  0  0  0  0  0  0
  -26.2470  -27.1000   18.9750 C   0  0  0  0  0  3  0  0  0  0  0  0
  -25.0110  -27.7710   19.0360 C   0  0  0  0  0  3  0  0  0  0  0  0
  -23.6420  -29.7920   19.8190 C   0  0  0  0  0  2  0  0  0  0  0  0
  -24.6600  -31.0020   21.8050 N   0  0  0  0  0  0  0  0  0  0  0  0
  -23.5020  -31.9140   23.5270 O   0  0  0  0  0  0  0  0  0  0  0  0
  -22.8280  -29.2700   22.1410 C   0  0  0  0  0  0  0  0  0  0  0  0
  -21.5020  -29.0750   22.0550 N   0  0  0  0  0  0  0  0  0  0  0  0
  -23.5550  -28.5940   22.8730 O   0  0  0  0  0  0  0  0  0  0  0  0
  -20.9750  -29.6760   21.4370 H   0  0  0  0  0  0  0  0  0  0  0  0
  -18.1640  -27.8190   22.6310 C   0  0  0  0  0  0  0  0  0  0  0  0
  -20.7330  -28.0640   22.7790 C   0  0  0  0  0  3  0  0  0  0  0  0
  -20.8040  -26.6950   22.0640 C   0  0  0  0  0  2  0  0  0  0  0  0
  -19.6450  -26.4630   21.0890 C   0  0  0  0  0  2  0  0  0  0  0  0
  -18.3020  -26.5410   21.8220 C   0  0  0  0  0  2  0  0  0  0  0  0
  -19.3060  -28.5420   23.0670 C   0  0  0  0  0  0  0  0  0  0  0  0
  -19.1220  -29.7430   23.7860 C   0  0  0  0  0  3  0  0  0  0  0  0
  -17.8300  -30.2200   24.0720 C   0  0  0  0  0  3  0  0  0  0  0  0
  -16.7040  -29.4920   23.6520 C   0  0  0  0  0  3  0  0  0  0  0  0
  -16.8720  -28.2920   22.9370 C   0  0  0  0  0  3  0  0  0  0  0  0
  -25.8530  -32.3690   23.6020 C   0  0  0  0  0  3  0  0  0  0  0  0
  -26.4130  -31.5500   24.8300 C   0  0  1  0  0  0  0  0  0  0  0  0
  -25.3440  -31.2290   25.9000 C   0  0  0  0  0  1  0  0  0  0  0  0
  -27.0270  -30.2110   24.3580 C   0  0  0  0  0  1  0  0  0  0  0  0
  -27.5510  -32.3440   25.5140 C   0  0  0  0  0  1  0  0  0  0  0  0
  -25.4980  -33.7360   24.0060 N   0  0  0  0  0  0  0  0  0  0  0  0
  -25.8070  -34.8380   23.3090 C   0  0  0  0  0  0  0  0  0  0  0  0
  -26.4940  -34.8130   22.2830 O   0  0  0  0  0  0  0  0  0  0  0  0
  -24.8880  -33.8280   24.8050 H   0  0  0  0  0  0  0  0  0  0  0  0
  -24.0240  -36.5890   23.0300 C   0  0  0  0  0  1  0  0  0  0  0  0
  -25.2700  -36.1830   23.8330 C   0  0  0  0  0  3  0  0  0  0  0  0
  -27.3680  -37.0890   24.7320 C   0  0  0  0  0  1  0  0  0  0  0  0
  -26.2680  -37.2740   23.7890 N   0  0  0  0  0  0  0  0  0  0  0  0
  -25.8310  -38.1710   23.9830 H   0  0  0  0  0  0  0  0  0  0  0  0
  -29.7740  -21.1280   20.9610 C   0  0  0  0  0  2  0  0  0  0  0  0
  -30.5800  -19.8150   20.8220 C   0  0  0  0  0  2  0  0  0  0  0  0
  -29.7800  -18.5340   21.1320 C   0  0  0  0  0  2  0  0  0  0  0  0
  -30.6410  -17.2650   20.9460 C   0  0  0  0  0  2  0  0  0  0  0  0
  -29.8760  -15.9290   21.1240 C   0  0  0  0  0  2  0  0  0  0  0  0
  -30.6140  -14.7090   20.5240 C   0  0  0  0  0  0  0  0  0  0  0  0
  -30.3850  -12.4970   19.4550 C   0  0  0  0  0  2  0  0  0  0  0  0
  -29.4670  -12.6280   18.2220 C   0  0  0  0  0  2  0  0  0  0  0  0
  -27.9850  -12.4870   18.6250 C   0  0  0  0  0  2  0  0  0  0  0  0
  -27.6040  -13.3840   19.8320 C   0  0  0  0  0  3  0  0  0  0  0  0
  -28.6360  -13.2360   20.9730 C   0  0  0  0  0  2  0  0  0  0  0  0
  -29.9700  -13.5190   20.4260 N   0  0  0  0  0  0  0  0  0  0  0  0
  -31.7410  -14.8830   20.0480 O   0  0  0  0  0  0  0  0  0  0  0  0
  -25.1980  -13.9930   20.5140 C   0  0  0  0  0  0  0  0  0  0  0  0
  -24.1240  -13.2170   20.8680 C   0  0  0  0  0  0  0  0  0  0  0  0
  -24.5870  -11.8670   20.8410 C   0  0  0  0  0  0  0  0  0  0  0  0
  -26.2460  -13.1110   20.2940 N   0  0  0  0  0  0  0  0  0  0  0  0
  -25.8800  -11.8280   20.5480 N   0  0  0  0  0  0  0  0  0  0  0  0
  -23.8610  -10.6030   21.0190 C   0  0  0  0  0  0  0  0  0  0  0  0
  -24.3130   -9.6090   21.9160 C   0  0  0  0  0  3  0  0  0  0  0  0
  -23.5860   -8.4100   22.0820 C   0  0  0  0  0  3  0  0  0  0  0  0
  -22.3910   -8.1990   21.3530 C   0  0  0  0  0  0  0  0  0  0  0  0
  -21.9600   -9.1800   20.4430 C   0  0  0  0  0  3  0  0  0  0  0  0
  -22.6870  -10.3700   20.2750 C   0  0  0  0  0  3  0  0  0  0  0  0
  -21.6320   -7.0550   21.4320 O   0  0  0  0  0  0  0  0  0  0  0  0
  -21.6530   -6.2530   22.5450 C   0  0  0  0  0  0  0  0  0  0  0  0
  -21.3310   -6.7500   23.8270 C   0  0  0  0  0  3  0  0  0  0  0  0
  -21.2980   -5.8760   24.9310 C   0  0  0  0  0  3  0  0  0  0  0  0
  -21.5750   -4.5070   24.7560 C   0  0  0  0  0  0  0  0  0  0  0  0
  -21.8910   -4.0110   23.4790 C   0  0  0  0  0  3  0  0  0  0  0  0
  -21.9270   -4.8810   22.3760 C   0  0  0  0  0  0  0  0  0  0  0  0
  -22.2110   -4.3940   21.1440 F   0  0  0  0  0  0  0  0  0  0  0  0
  -21.5360   -3.6660   25.8150 F   0  0  0  0  0  0  0  0  0  0  0  0
  -22.7240  -13.6930   21.1240 C   0  0  0  0  0  0  0  0  0  0  0  0
  -21.9910  -12.9990   21.9890 N   0  0  0  0  0  0  0  0  0  0  0  0
  -22.2880  -14.7140   20.5930 O   0  0  0  0  0  0  0  0  0  0  0  0
  -22.3570  -12.1750   22.4410 H   0  0  0  0  0  0  0  0  0  0  0  0
  -21.0500  -13.2980   22.2030 H   0  0  0  0  0  0  0  0  0  0  0  0
  -25.3620  -15.3630   20.3430 N   0  0  0  0  0  0  0  0  0  0  0  0
  -24.5940  -16.0180   20.4370 H   0  0  0  0  0  0  0  0  0  0  0  0
  -26.2210  -15.8040   20.0410 H   0  0  0  0  0  0  0  0  0  0  0  0
  -28.5460  -23.8030   21.4950 C   0  0  0  0  0  2  0  0  0  0  0  0
  -28.4960  -24.3350   22.9410 C   0  0  0  0  0  2  0  0  0  0  0  0
  -27.1350  -24.9440   23.3200 C   0  0  0  0  0  2  0  0  0  0  0  0
  -25.4830  -26.8700   23.0180 C   0  0  0  0  0  1  0  0  0  0  0  0
  -26.8370  -26.2780   22.6120 C   0  0  0  0  0  2  0  0  0  0  0  0
  1  3  2  0
  1  2  1  0
  2  5  2  0
  3  4  1  0
  4  6  2  0
  4  8  1  0
  5  6  1  0
  5 54  1  0
  6 95  1  0
  7 12  2  0
  7  3  1  0
  9  7  1  0
 10  9  1  0
 10 11  1  0
 11 13  1  0
 11  8  1  0
 13 15  1  0
 14 25  2  0
 15 20  1  0
 16 24  1  0
 16 26  1  0
 17 23  1  0
 17 19  1  0
 18 24  1  0
 19 18  1  0
 20 19  2  0
 21 22  1  0
 21 15  2  0
 22 17  2  0
 23 16  1  0
 24 14  1  0
 26 28  2  0
 27 26  1  0
 29 27  1  0
 30 39  2  0
 30 35  1  0
 31 27  1  0
 31 35  1  0
 32 31  1  0
 33 34  1  0
 33 32  1  0
 34 30  1  0
 35 36  2  0
 36 37  1  0
 38 37  2  0
 39 38  1  0
 40 14  1  0
 40 45  1  0
 40 41  1  0
 41 44  1  1
 41 42  1  0
 43 41  1  0
 45 48  1  0
 46 50  1  0
 46 45  1  0
 47 46  2  0
 50 49  1  0
 52 50  1  0
 52 53  1  0
 52 51  1  0
 55 54  1  0
 55 56  1  0
 57 58  1  0
 57 56  1  0
 59 58  1  0
 60 65  1  0
 61 62  1  0
 61 60  1  0
 63 62  1  0
 63 70  1  0
 63 64  1  0
 65 59  1  0
 65 64  1  0
 66 59  2  0
 67 68  2  0
 68 87  1  0
 69 68  1  0
 69 72  1  0
 70 67  1  0
 70 71  1  0
 71 69  2  0
 72 73  1  0
 73 74  2  0
 75 78  1  0
 75 74  1  0
 76 75  2  0
 77 76  1  0
 77 72  2  0
 78 79  1  0
 79 80  1  0
 80 81  2  0
 82 81  1  0
 82 86  1  0
 83 82  2  0
 84 79  2  0
 84 83  1  0
 85 84  1  0
 87 88  1  0
 88 91  1  0
 88 90  1  0
 89 87  2  0
 92 93  1  0
 92 67  1  0
 94 92  1  0
 95 96  1  0
 96 97  1  0
 99 98  1  0
 99 97  1  0
M  ISO  4  11 101  13 101  58 100  59 100
M  END
>  <TORSDO>  (18) 
F 25

>  <SCORE>  (18) 
-11.249

>  <name>  (18) 
17

>  <ligand_id>  (18) 
17

>  <original_smiles>  (18) 
[H]c1c([H])c([H])c2c(c1[H])C([H])([H])C([H])([H])C([H])([H])C2([H])N([H])C(=O)C1([H])N(C(=O)C([H])(N([H])C(=O)C([H])(N([H])C([H])([H])[H])C([H])([H])[H])C(C([H])([H])[H])(C([H])([H])[H])C([H])([H])[H])C([H])([H])c2c([H])c(OC3([H])C([H])([H])c4c(c([H])c([H])c(C([H])([H])C([H])([H])C([H])([H])C([H])([H])C([H])([H])C(=O)N5C([H])([H])C([H])([H])C([H])([H])C([H])(n6nc(-c7c([H])c([H])c(Oc8c([H])c([H])c(F)c([H])c8F)c([H])c7[H])c(C(=O)N([H])[H])c6N([H])[H])C5([H])[H])c4C([H])([H])C([H])([H])C([H])([H])C([H])([H])C([H])([H])[H])C(=O)C([H])([H])C3([H])[H])c([H])c([H])c2C1([H])[H]

>  <smiles>  (18) 
[H]c1c([H])c([H])c2c(c1[H])C([H])([H])C([H])([H])C([H])([H])C2([H])N([H])C(=O)C1([H])N(C(=O)C([H])(N([H])C(=O)C([H])(N([H])C([H])([H])[H])C([H])([H])[H])C(C([H])([H])[H])(C([H])([H])[H])C([H])([H])[H])C([H])([H])c2c([H])c(OC3([H])C([H])([H])c4c(c([H])c([H])c(C([H])([H])C([H])([H])C([H])([H])C([H])([H])C([H])([H])C(=O)N5C([H])([H])C([H])([H])C([H])([H])C([H])(n6nc(-c7c([H])c([H])c(Oc8c([H])c([H])c(F)c([H])c8F)c([H])c7[H])c(C(=O)N([H])[H])c6N([H])[H])C5([H])[H])c4C([H])([H])C([H])([H])C([H])([H])C([H])([H])C([H])([H])[H])C(=O)C([H])([H])C3([H])[H])c([H])c([H])c2C1([H])[H]

$$$$
18:0:0
     RDKit          3D

 92 90  0  0  1  0  0  0  0  0999 V2000
  -22.4140  -29.1190   20.5940 C   0  0  0  0  0 15  0  0  0  0  0  0
  -23.5710  -29.7860   22.7750 C   0  0  0  0  0  1  0  0  0  0  0  0
  -23.7690  -28.0080   19.1230 C   0  0  0  0  0 15  0  0  0  0  0  0
  -25.9290  -29.6230   22.6990 C   0  0  0  0  0  2  0  0  0  0  0  0
  -25.7200  -28.6110   19.1610 C   0  0  0  0  0  1  0  0  0  0  0  0
  -27.0290  -29.1700   20.6380 C   0  0  0  0  0  1  0  0  0  0  0  0
  -22.7400  -30.1040   24.0670 C   0  0  0  0  0  1  0  0  0  0  0  0
  -27.3230  -29.7750   23.4180 C   0  0  0  0  0  1  0  0  0  0  0  0
  -26.3820  -28.5880   17.7930 C   0  0  0  0  0  1  0  0  0  0  0  0
  -28.1990  -28.3350   20.5210 O   0  0  0  0  0  0  0  0  0  0  0  0
  -24.6880  -32.2690   22.4470 C   0  0  0  0  0  0  0  0  0  0  0  0
  -27.9410  -27.1740   21.0990 C   0  0  0  0  0  3  0  0  0  0  0  0
  -24.4680  -29.4420   20.9310 C   0  0  0  0  0  2  0  0  0  0  0  0
  -25.3940  -26.7700   21.4040 C   0  0  0  0  0  3  0  0  0  0  0  0
  -25.2680  -30.4060   20.5990 C   0  0  0  0  0  2  0  0  0  0  0  0
  -25.8370  -27.8430   21.8670 C   0  0  2  0  0  0  0  0  0  0  0  0
  -27.1760  -27.4300   22.2350 C   0  0  0  0  0  2  0  0  0  0  0  0
  -27.4210  -26.2890   20.1890 C   0  0  0  0  0  2  0  0  0  0  0  0
  -26.1050  -26.0820   20.3650 C   0  0  0  0  0  2  0  0  0  0  0  0
  -24.5450  -27.8600   21.7200 C   0  0  1  0  0  0  0  0  0  0  0  0
  -24.5750  -31.3240   21.2030 N   0  0  0  0  0  2  0  0  0  0  0  0
  -23.6200  -32.7640   22.8510 O   0  0  0  0  0  0  0  0  0  0  0  0
  -23.2660  -27.7970   22.7450 C   0  0  0  0  0  0  0  0  0  0  0  0
  -21.8380  -28.0780   22.9490 N   0  0  0  0  0  0  0  0  0  0  0  0
  -23.6350  -27.6880   23.9370 O   0  0  0  0  0  0  0  0  0  0  0  0
  -21.6350  -28.9250   22.4390 H   0  0  0  0  0  0  0  0  0  0  0  0
  -18.0980  -27.5430   22.6600 C   0  0  0  0  0  0  0  0  0  0  0  0
  -20.5920  -27.5250   23.4210 C   0  0  0  0  0  3  0  0  0  0  0  0
  -20.6080  -26.1340   22.8160 C   0  0  0  0  0  2  0  0  0  0  0  0
  -19.7460  -25.9710   21.5790 C   0  0  0  0  0  2  0  0  0  0  0  0
  -18.2990  -26.1950   21.9940 C   0  0  0  0  0  2  0  0  0  0  0  0
  -19.1940  -28.2660   23.2200 C   0  0  0  0  0  0  0  0  0  0  0  0
  -18.8930  -29.5690   23.7140 C   0  0  0  0  0  3  0  0  0  0  0  0
  -17.5690  -30.0830   23.6970 C   0  0  0  0  0  3  0  0  0  0  0  0
  -16.5020  -29.3170   23.1960 C   0  0  0  0  0  3  0  0  0  0  0  0
  -16.7800  -28.0480   22.6720 C   0  0  0  0  0  3  0  0  0  0  0  0
  -25.8190  -32.4920   23.6860 C   0  0  0  0  0  3  0  0  0  0  0  0
  -26.0390  -31.8500   25.2770 C   0  0  1  0  0  0  0  0  0  0  0  0
  -24.9310  -32.2380   26.2970 C   0  0  0  0  0  1  0  0  0  0  0  0
  -26.2460  -30.3440   25.7010 C   0  0  0  0  0  1  0  0  0  0  0  0
  -27.3640  -32.4840   25.8630 C   0  0  0  0  0  1  0  0  0  0  0  0
  -25.6940  -33.9020   24.0360 N   0  0  0  0  0  0  0  0  0  0  0  0
  -26.0800  -34.9000   23.2570 C   0  0  0  0  0  0  0  0  0  0  0  0
  -26.7540  -34.7190   22.2430 O   0  0  0  0  0  0  0  0  0  0  0  0
  -25.1610  -34.1200   24.8630 H   0  0  0  0  0  0  0  0  0  0  0  0
  -24.4110  -36.6870   22.8260 C   0  0  0  0  0  1  0  0  0  0  0  0
  -25.6360  -36.3030   23.6690 C   0  0  0  0  0  3  0  0  0  0  0  0
  -27.8090  -37.1120   24.4570 C   0  0  0  0  0  1  0  0  0  0  0  0
  -26.7110  -37.3000   23.5110 N   0  0  0  0  0  0  0  0  0  0  0  0
  -26.3500  -38.2440   23.6210 H   0  0  0  0  0  0  0  0  0  0  0  0
  -23.8450  -25.7680   18.7780 C   0  0  0  0  0 15  0  0  0  0  0  0
  -25.2060  -23.7700   18.6860 C   0  0  0  0  0 15  0  0  0  0  0  0
  -26.0160  -21.5890   19.1660 C   0  0  0  0  0 15  0  0  0  0  0  0
  -27.5120  -19.7490   19.0520 C   0  0  0  0  0 15  0  0  0  0  0  0
  -29.2540  -16.3430   19.3280 C   0  0  0  0  0  0  0  0  0  0  0  0
  -30.0420  -13.6330   18.7350 C   0  0  0  0  0  2  0  0  0  0  0  0
  -29.2750  -12.7030   17.7260 C   0  0  0  0  0  2  0  0  0  0  0  0
  -27.9780  -12.1580   18.3330 C   0  0  0  0  0  2  0  0  0  0  0  0
  -27.3840  -13.2220   19.2700 C   0  0  0  0  0  3  0  0  0  0  0  0
  -28.3660  -13.8770   20.2520 C   0  0  0  0  0  2  0  0  0  0  0  0
  -29.1570  -14.7880   19.3880 N   0  0  0  0  0  0  0  0  0  0  0  0
  -30.5320  -16.3270   19.1820 O   0  0  0  0  0  0  0  0  0  0  0  0
  -28.1310  -17.7380   19.2870 N   0  0  0  0  0  2  0  0  0  0  0  0
  -27.2530  -17.2710   19.4550 H   0  0  0  0  0  0  0  0  0  0  0  0
  -25.1940  -13.7780   20.3090 C   0  0  0  0  0  0  0  0  0  0  0  0
  -24.1690  -13.0170   20.7750 C   0  0  0  0  0  0  0  0  0  0  0  0
  -24.5970  -11.6580   20.6550 C   0  0  0  0  0  0  0  0  0  0  0  0
  -26.1620  -12.8770   19.9240 N   0  0  0  0  0  0  0  0  0  0  0  0
  -25.8420  -11.5930   20.1970 N   0  0  0  0  0  0  0  0  0  0  0  0
  -23.8590  -10.4140   20.8780 C   0  0  0  0  0  0  0  0  0  0  0  0
  -24.3140   -9.4380   21.7900 C   0  0  0  0  0  3  0  0  0  0  0  0
  -23.5680   -8.2590   22.0030 C   0  0  0  0  0  3  0  0  0  0  0  0
  -22.3550   -8.0520   21.3010 C   0  0  0  0  0  0  0  0  0  0  0  0
  -21.9220   -9.0170   20.3750 C   0  0  0  0  0  3  0  0  0  0  0  0
  -22.6690  -10.1870   20.1630 C   0  0  0  0  0  3  0  0  0  0  0  0
  -21.5750   -6.9300   21.4290 O   0  0  0  0  0  0  0  0  0  0  0  0
  -21.5290   -6.2170   22.5990 C   0  0  0  0  0  0  0  0  0  0  0  0
  -21.1290   -6.8060   23.8190 C   0  0  0  0  0  3  0  0  0  0  0  0
  -21.0310   -6.0160   24.9810 C   0  0  0  0  0  3  0  0  0  0  0  0
  -21.3220   -4.6400   24.9250 C   0  0  0  0  0  0  0  0  0  0  0  0
  -21.7140   -4.0510   23.7100 C   0  0  0  0  0  3  0  0  0  0  0  0
  -21.8150   -4.8390   22.5490 C   0  0  0  0  0  0  0  0  0  0  0  0
  -22.1750   -4.2640   21.3760 F   0  0  0  0  0  0  0  0  0  0  0  0
  -21.2180   -3.8790   26.0390 F   0  0  0  0  0  0  0  0  0  0  0  0
  -22.8230  -13.5260   21.1800 C   0  0  0  0  0  0  0  0  0  0  0  0
  -22.1570  -12.8270   22.0900 N   0  0  0  0  0  0  0  0  0  0  0  0
  -22.3820  -14.5820   20.7260 O   0  0  0  0  0  0  0  0  0  0  0  0
  -22.5410  -11.9760   22.4730 H   0  0  0  0  0  0  0  0  0  0  0  0
  -21.2550  -13.1470   22.4100 H   0  0  0  0  0  0  0  0  0  0  0  0
  -25.3760  -15.1500   20.1350 N   0  0  0  0  0  0  0  0  0  0  0  0
  -24.5710  -15.7580   20.2500 H   0  0  0  0  0  0  0  0  0  0  0  0
  -26.0240  -15.4820   19.4350 H   0  0  0  0  0  0  0  0  0  0  0  0
  2  7  1  0
  4  8  1  0
  9  5  1  0
 10  6  1  0
 11 22  2  0
 12 10  1  0
 12 17  1  0
 14 19  1  0
 14 20  1  0
 14 16  1  0
 15 13  1  0
 15 21  1  0
 16 17  1  0
 16  4  1  1
 18 19  1  0
 18 12  1  0
 20 13  1  6
 20 16  1  0
 20 23  1  0
 21 11  1  0
 23 24  1  0
 23 25  2  0
 26 24  1  0
 27 36  2  0
 27 32  1  0
 28 24  1  0
 29 28  1  0
 30 31  1  0
 30 29  1  0
 31 27  1  0
 32 28  1  0
 32 33  2  0
 34 33  1  0
 35 34  2  0
 36 35  1  0
 37 11  1  0
 37 42  1  0
 37 38  1  0
 38 40  1  6
 38 41  1  0
 38 39  1  0
 42 45  1  0
 43 47  1  0
 43 42  1  0
 44 43  2  0
 47 46  1  0
 49 50  1  0
 49 47  1  0
 49 48  1  0
 55 61  1  0
 56 61  1  0
 57 58  1  0
 57 56  1  0
 59 58  1  0
 59 68  1  0
 59 60  1  0
 61 60  1  0
 62 55  2  0
 63 55  1  0
 63 64  1  0
 65 66  2  0
 66 85  1  0
 67 66  1  0
 67 70  1  0
 68 69  1  0
 68 65  1  0
 69 67  2  0
 70 71  1  0
 71 72  2  0
 73 76  1  0
 73 72  1  0
 74 73  2  0
 75 74  1  0
 75 70  2  0
 76 77  1  0
 77 78  1  0
 78 79  2  0
 80 79  1  0
 80 84  1  0
 81 80  2  0
 82 77  2  0
 82 81  1  0
 83 82  1  0
 85 86  1  0
 86 89  1  0
 86 88  1  0
 87 85  2  0
 90 91  1  0
 90 65  1  0
 92 90  1  0
M  ISO  4   6 101  10 101  55 100  63 100
M  END
>  <TORSDO>  (19) 
F 20

>  <SCORE>  (19) 
-13.264

>  <name>  (19) 
18

>  <ligand_id>  (19) 
18

>  <original_smiles>  (19) 
[H]c1c([H])c([H])c2c(c1[H])C([H])([H])C([H])([H])C([H])([H])C2([H])N([H])C(=O)C1([H])N(C(=O)C([H])(N([H])C(=O)C([H])(N([H])C([H])([H])[H])C([H])([H])[H])C(C([H])([H])[H])(C([H])([H])[H])C([H])([H])[H])C([H])([H])c2c([H])c(Oc3c(C([H])([H])[H])c(C([H])([H])[H])c([H])c(C([H])([H])C([H])([H])C([H])([H])C([H])([H])N([H])C(=O)N4C([H])([H])C([H])([H])C([H])([H])C([H])(n5nc(-c6c([H])c([H])c(Oc7c([H])c([H])c(F)c([H])c7F)c([H])c6[H])c(C(=O)N([H])[H])c5N([H])[H])C4([H])[H])c3C([H])([H])[H])c([H])c([H])c2C1([H])[H]

>  <smiles>  (19) 
[H]c1c([H])c([H])c2c(c1[H])C([H])([H])C([H])([H])C([H])([H])C2([H])N([H])C(=O)C1([H])N(C(=O)C([H])(N([H])C(=O)C([H])(N([H])C([H])([H])[H])C([H])([H])[H])C(C([H])([H])[H])(C([H])([H])[H])C([H])([H])[H])C([H])([H])c2c([H])c(Oc3c(C([H])([H])[H])c(C([H])([H])[H])c([H])c(C([H])([H])C([H])([H])C([H])([H])C([H])([H])N([H])C(=O)N4C([H])([H])C([H])([H])C([H])([H])C([H])(n5nc(-c6c([H])c([H])c(Oc7c([H])c([H])c(F)c([H])c7F)c([H])c6[H])c(C(=O)N([H])[H])c5N([H])[H])C4([H])[H])c3C([H])([H])[H])c([H])c([H])c2C1([H])[H]

$$$$
19:0:0
     RDKit          3D

 90 98  0  0  1  0  0  0  0  0999 V2000
  -30.2640  -23.1330   19.8500 C   0  0  0  0  0  2  0  0  0  0  0  0
  -30.4450  -23.4630   18.4880 C   0  0  0  0  0  3  0  0  0  0  0  0
  -28.1910  -24.3850   18.4000 C   0  0  0  0  0  2  0  0  0  0  0  0
  -28.9240  -23.0480   20.2640 C   0  0  0  0  0  3  0  0  0  0  0  0
  -29.3520  -23.9490   17.7180 C   0  0  0  0  0  0  0  0  0  0  0  0
  -28.1850  -24.3640   19.8130 C   0  0  0  0  0  3  0  0  0  0  0  0
  -30.5110  -23.5940   15.6440 C   0  0  0  0  0  1  0  0  0  0  0  0
  -29.3820  -24.1050   16.3480 O   0  0  0  0  0  0  0  0  0  0  0  0
  -28.1890  -25.8300   20.2940 O   0  0  0  0  0  0  0  0  0  0  0  0
  -24.6610  -31.8450   23.2210 C   0  0  0  0  0  0  0  0  0  0  0  0
  -27.1860  -26.9400   20.1900 C   0  0  0  0  0  0  0  0  0  0  0  0
  -23.4530  -30.4480   21.5910 C   0  0  0  0  0  3  0  0  0  0  0  0
  -24.8890  -28.8370   20.1600 C   0  0  0  0  0  0  0  0  0  0  0  0
  -26.0210  -30.6480   21.4330 C   0  0  0  0  0  2  0  0  0  0  0  0
  -26.0810  -29.2360   20.7760 C   0  0  0  0  0  0  0  0  0  0  0  0
  -27.2180  -28.3070   20.7720 C   0  0  0  0  0  3  0  0  0  0  0  0
  -25.9560  -26.6960   19.5360 C   0  0  0  0  0  3  0  0  0  0  0  0
  -24.8520  -27.5880   19.5200 C   0  0  0  0  0  3  0  0  0  0  0  0
  -23.6710  -29.7600   20.2150 C   0  0  0  0  0  2  0  0  0  0  0  0
  -24.7330  -31.0100   22.1330 N   0  0  0  0  0  0  0  0  0  0  0  0
  -23.5760  -32.1400   23.7470 O   0  0  0  0  0  0  0  0  0  0  0  0
  -22.7640  -29.4560   22.5680 C   0  0  0  0  0  0  0  0  0  0  0  0
  -21.4340  -29.2930   22.4510 N   0  0  0  0  0  0  0  0  0  0  0  0
  -23.4340  -28.8360   23.3970 O   0  0  0  0  0  0  0  0  0  0  0  0
  -20.9470  -29.8400   21.7550 H   0  0  0  0  0  0  0  0  0  0  0  0
  -18.0560  -28.0750   22.9700 C   0  0  0  0  0  0  0  0  0  0  0  0
  -20.6150  -28.3590   23.2320 C   0  0  0  0  0  3  0  0  0  0  0  0
  -20.7260  -26.9230   22.6700 C   0  0  0  0  0  2  0  0  0  0  0  0
  -19.6260  -26.5840   21.6590 C   0  0  0  0  0  2  0  0  0  0  0  0
  -18.2420  -26.7250   22.3000 C   0  0  0  0  0  2  0  0  0  0  0  0
  -19.1690  -28.8500   23.3920 C   0  0  0  0  0  0  0  0  0  0  0  0
  -18.9400  -30.1140   23.9800 C   0  0  0  0  0  3  0  0  0  0  0  0
  -17.6300  -30.6020   24.1470 C   0  0  0  0  0  3  0  0  0  0  0  0
  -16.5320  -29.8270   23.7380 C   0  0  0  0  0  3  0  0  0  0  0  0
  -16.7450  -28.5640   23.1560 C   0  0  0  0  0  3  0  0  0  0  0  0
  -25.9380  -32.4860   23.8420 C   0  0  0  0  0  3  0  0  0  0  0  0
  -26.4530  -31.7210   25.1240 C   0  0  1  0  0  0  0  0  0  0  0  0
  -25.3580  -31.4980   26.1930 C   0  0  0  0  0  1  0  0  0  0  0  0
  -27.0290  -30.3380   24.7490 C   0  0  0  0  0  1  0  0  0  0  0  0
  -27.6080  -32.5150   25.7780 C   0  0  0  0  0  1  0  0  0  0  0  0
  -25.6260  -33.8860   24.1800 N   0  0  0  0  0  0  0  0  0  0  0  0
  -25.9500  -34.9500   23.4330 C   0  0  0  0  0  0  0  0  0  0  0  0
  -26.6080  -34.8560   22.3940 O   0  0  0  0  0  0  0  0  0  0  0  0
  -25.0410  -34.0320   24.9890 H   0  0  0  0  0  0  0  0  0  0  0  0
  -24.2160  -36.7510   23.1290 C   0  0  0  0  0  1  0  0  0  0  0  0
  -25.4710  -36.3350   23.9130 C   0  0  0  0  0  3  0  0  0  0  0  0
  -27.6170  -37.2190   24.7180 C   0  0  0  0  0  1  0  0  0  0  0  0
  -26.5000  -37.3900   23.7920 N   0  0  0  0  0  0  0  0  0  0  0  0
  -26.0950  -38.3090   23.9510 H   0  0  0  0  0  0  0  0  0  0  0  0
  -28.5870  -21.3430   20.0450 C   0  0  0  0  0  2  0  0  0  0  0  0
  -29.3480  -19.7930   20.6140 C   0  0  0  0  0  2  0  0  0  0  0  0
  -29.6290  -18.1590   19.8830 C   0  0  0  0  0  2  0  0  0  0  0  0
  -30.4070  -15.2990   20.2190 C   0  0  0  0  0  0  0  0  0  0  0  0
  -30.3820  -12.8450   19.3650 C   0  0  0  0  0  2  0  0  0  0  0  0
  -29.4590  -12.6500   18.1370 C   0  0  0  0  0  2  0  0  0  0  0  0
  -28.0110  -12.3830   18.5830 C   0  0  0  0  0  2  0  0  0  0  0  0
  -27.5690  -13.3430   19.7170 C   0  0  0  0  0  3  0  0  0  0  0  0
  -28.6240  -13.4740   20.8380 C   0  0  0  0  0  2  0  0  0  0  0  0
  -29.8540  -13.9820   20.2100 N   0  0  0  0  0  0  0  0  0  0  0  0
  -31.6000  -15.3120   19.8860 O   0  0  0  0  0  0  0  0  0  0  0  0
  -29.6470  -16.5630   20.4150 N   0  0  0  0  0  0  0  0  0  0  0  0
  -28.7460  -16.3300   20.8070 H   0  0  0  0  0  0  0  0  0  0  0  0
  -25.2000  -13.8990   20.4730 C   0  0  0  0  0  0  0  0  0  0  0  0
  -24.1410  -13.1210   20.8470 C   0  0  0  0  0  0  0  0  0  0  0  0
  -24.6090  -11.7710   20.8150 C   0  0  0  0  0  0  0  0  0  0  0  0
  -26.2430  -13.0250   20.2280 N   0  0  0  0  0  0  0  0  0  0  0  0
  -25.8990  -11.7390   20.5010 N   0  0  0  0  0  0  0  0  0  0  0  0
  -23.8820  -10.5090   21.0080 C   0  0  0  0  0  0  0  0  0  0  0  0
  -24.3180   -9.5430   21.9410 C   0  0  0  0  0  3  0  0  0  0  0  0
  -23.5910   -8.3470   22.1260 C   0  0  0  0  0  3  0  0  0  0  0  0
  -22.4120   -8.1100   21.3790 C   0  0  0  0  0  0  0  0  0  0  0  0
  -21.9970   -9.0630   20.4340 C   0  0  0  0  0  3  0  0  0  0  0  0
  -22.7250  -10.2500   20.2470 C   0  0  0  0  0  3  0  0  0  0  0  0
  -21.6530   -6.9680   21.4760 O   0  0  0  0  0  0  0  0  0  0  0  0
  -21.6080   -6.2290   22.6300 C   0  0  0  0  0  0  0  0  0  0  0  0
  -21.1890   -6.7870   23.8580 C   0  0  0  0  0  3  0  0  0  0  0  0
  -21.0910   -5.9710   25.0030 C   0  0  0  0  0  3  0  0  0  0  0  0
  -21.4030   -4.6000   24.9220 C   0  0  0  0  0  0  0  0  0  0  0  0
  -21.8180   -4.0440   23.6980 C   0  0  0  0  0  3  0  0  0  0  0  0
  -21.9180   -4.8570   22.5550 C   0  0  0  0  0  0  0  0  0  0  0  0
  -22.2950   -4.3100   21.3740 F   0  0  0  0  0  0  0  0  0  0  0  0
  -21.3030   -3.8150   26.0190 F   0  0  0  0  0  0  0  0  0  0  0  0
  -22.7450  -13.5970   21.1180 C   0  0  0  0  0  0  0  0  0  0  0  0
  -22.0170  -12.9010   21.9840 N   0  0  0  0  0  0  0  0  0  0  0  0
  -22.3070  -14.6210   20.5940 O   0  0  0  0  0  0  0  0  0  0  0  0
  -22.3890  -12.0750   22.4300 H   0  0  0  0  0  0  0  0  0  0  0  0
  -21.0770  -13.1990   22.2020 H   0  0  0  0  0  0  0  0  0  0  0  0
  -25.3600  -15.2690   20.2940 N   0  0  0  0  0  0  0  0  0  0  0  0
  -24.5860  -15.9150   20.4010 H   0  0  0  0  0  0  0  0  0  0  0  0
  -26.1930  -15.7050   19.9180 H   0  0  0  0  0  0  0  0  0  0  0  0
  1  4  1  0
  2  1  1  0
  3  6  1  0
  4 50  1  0
  5  3  1  0
  5  2  2  0
  6  4  1  0
  6  9  1  0
  7  8  1  0
  8  5  1  0
 10 21  2  0
 11  9  1  0
 11 16  1  0
 12 20  1  0
 12 22  1  0
 13 19  1  0
 13 15  1  0
 14 20  1  0
 15 14  1  0
 16 15  2  0
 17 11  2  0
 18 17  1  0
 18 13  2  0
 19 12  1  0
 20 10  1  0
 22 24  2  0
 23 22  1  0
 25 23  1  0
 26 35  2  0
 26 31  1  0
 27 23  1  0
 27 31  1  0
 28 27  1  0
 29 30  1  0
 29 28  1  0
 30 26  1  0
 31 32  2  0
 32 33  1  0
 34 33  2  0
 35 34  1  0
 36 10  1  0
 36 41  1  0
 36 37  1  0
 37 40  1  1
 37 38  1  0
 39 37  1  0
 41 44  1  0
 42 46  1  0
 42 41  1  0
 43 42  2  0
 46 45  1  0
 48 46  1  0
 48 49  1  0
 48 47  1  0
 50 51  1  0
 52 61  1  0
 52 51  1  0
 53 61  1  0
 54 59  1  0
 55 56  1  0
 55 54  1  0
 57 56  1  0
 57 66  1  0
 57 58  1  0
 59 53  1  0
 59 58  1  0
 60 53  2  0
 61 62  1  0
 63 64  2  0
 64 83  1  0
 65 64  1  0
 65 68  1  0
 66 63  1  0
 66 67  1  0
 67 65  2  0
 68 69  1  0
 69 70  2  0
 71 74  1  0
 71 70  1  0
 72 71  2  0
 73 72  1  0
 73 68  2  0
 74 75  1  0
 75 76  1  0
 76 77  2  0
 78 77  1  0
 78 82  1  0
 79 78  2  0
 80 75  2  0
 80 79  1  0
 81 80  1  0
 83 84  1  0
 84 87  1  0
 84 86  1  0
 85 83  2  0
 88 89  1  0
 88 63  1  0
 90 88  1  0
M  ISO  4   6 101   9 101  53 100  61 100
M  END
>  <TORSDO>  (20) 
F 20

>  <SCORE>  (20) 
-15.229

>  <name>  (20) 
19

>  <ligand_id>  (20) 
19

>  <original_smiles>  (20) 
[H]c1c([H])c([H])c2c(c1[H])C([H])([H])C([H])([H])C([H])([H])C2([H])N([H])C(=O)C1([H])N(C(=O)C([H])(N([H])C(=O)C([H])(N([H])C([H])([H])[H])C([H])([H])[H])C(C([H])([H])[H])(C([H])([H])[H])C([H])([H])[H])C([H])([H])c2c([H])c(Oc3c([H])c(OC([H])([H])[H])c([H])c([H])c3C([H])([H])C([H])([H])C([H])([H])N([H])C(=O)N3C([H])([H])C([H])([H])C([H])([H])C([H])(n4nc(-c5c([H])c([H])c(Oc6c([H])c([H])c(F)c([H])c6F)c([H])c5[H])c(C(=O)N([H])[H])c4N([H])[H])C3([H])[H])c([H])c([H])c2C1([H])[H]

>  <smiles>  (20) 
[H]c1c([H])c([H])c2c(c1[H])C([H])([H])C([H])([H])C([H])([H])C2([H])N([H])C(=O)C1([H])N(C(=O)C([H])(N([H])C(=O)C([H])(N([H])C([H])([H])[H])C([H])([H])[H])C(C([H])([H])[H])(C([H])([H])[H])C([H])([H])[H])C([H])([H])c2c([H])c(Oc3c([H])c(OC([H])([H])[H])c([H])c([H])c3C([H])([H])C([H])([H])C([H])([H])N([H])C(=O)N3C([H])([H])C([H])([H])C([H])([H])C([H])(n4nc(-c5c([H])c([H])c(Oc6c([H])c([H])c(F)c([H])c6F)c([H])c5[H])c(C(=O)N([H])[H])c4N([H])[H])C3([H])[H])c([H])c([H])c2C1([H])[H]

$$$$
20:0:0
     RDKit          3D

 96104  0  0  1  0  0  0  0  0999 V2000
  -28.6970  -18.5850   21.1710 C   0  0  0  0  0  3  0  0  0  0  0  0
  -29.6210  -17.5450   21.3550 C   0  0  0  0  0  3  0  0  0  0  0  0
  -29.1180  -19.8390   20.6850 C   0  0  0  0  0  0  0  0  0  0  0  0
  -30.9740  -17.7270   21.0130 C   0  0  0  0  0  0  0  0  0  0  0  0
  -31.4040  -18.9710   20.4690 C   0  0  0  0  0  0  0  0  0  0  0  0
  -30.4820  -20.0540   20.3480 C   0  0  0  0  0  0  0  0  0  0  0  0
  -28.0770  -20.9360   20.5390 C   0  0  0  0  0  1  0  0  0  0  0  0
  -32.8570  -19.1340   20.0330 C   0  0  0  0  0  1  0  0  0  0  0  0
  -30.9580  -21.4580   19.9310 C   0  0  0  0  0  2  0  0  0  0  0  0
  -30.8680  -21.7350   18.4200 C   0  0  0  0  0  0  0  0  0  0  0  0
  -31.5050  -22.8200   17.9630 N   0  0  0  0  0  0  0  0  0  0  0  0
  -30.2090  -21.0070   17.6730 O   0  0  0  0  0  0  0  0  0  0  0  0
  -32.0320  -23.3810   18.6170 H   0  0  0  0  0  0  0  0  0  0  0  0
  -31.4270  -23.2910   16.5840 C   0  0  0  0  0  2  0  0  0  0  0  0
  -32.0160  -24.7060   16.4340 C   0  0  0  0  0  2  0  0  0  0  0  0
  -31.3660  -25.4230   15.3880 O   0  0  0  0  0  0  0  0  0  0  0  0
  -27.0800  -27.4840   20.6920 C   0  0  0  0  0  0  0  0  0  0  0  0
  -30.2220  -26.0740   15.7710 C   0  0  0  0  0  0  0  0  0  0  0  0
  -26.2040  -27.8070   18.4000 C   0  0  0  0  0  3  0  0  0  0  0  0
  -27.8900  -27.4700   16.5160 C   0  0  0  0  0  0  0  0  0  0  0  0
  -28.7220  -27.8170   18.8510 C   0  0  0  0  0  2  0  0  0  0  0  0
  -28.9120  -27.2670   17.4520 C   0  0  0  0  0  0  0  0  0  0  0  0
  -30.0810  -26.5660   17.0860 C   0  0  0  0  0  3  0  0  0  0  0  0
  -29.1940  -26.2930   14.8330 C   0  0  0  0  0  3  0  0  0  0  0  0
  -28.0220  -26.9780   15.2040 C   0  0  0  0  0  3  0  0  0  0  0  0
  -26.6760  -28.2400   16.9850 C   0  0  0  0  0  2  0  0  0  0  0  0
  -27.3400  -27.6740   19.3680 N   0  0  0  0  0  0  0  0  0  0  0  0
  -25.9170  -27.4630   21.1210 O   0  0  0  0  0  0  0  0  0  0  0  0
  -25.3580  -26.5190   18.2650 C   0  0  0  0  0  0  0  0  0  0  0  0
  -24.1260  -26.6670   17.7560 N   0  0  0  0  0  0  0  0  0  0  0  0
  -25.8220  -25.4210   18.5840 O   0  0  0  0  0  0  0  0  0  0  0  0
  -23.8180  -27.6000   17.5160 H   0  0  0  0  0  0  0  0  0  0  0  0
  -20.8600  -25.9480   16.3840 C   0  0  0  0  0  0  0  0  0  0  0  0
  -23.1650  -25.5950   17.5010 C   0  0  0  0  0  3  0  0  0  0  0  0
  -23.5440  -24.7970   16.2330 C   0  0  0  0  0  2  0  0  0  0  0  0
  -22.8600  -25.3200   14.9660 C   0  0  0  0  0  2  0  0  0  0  0  0
  -21.3360  -25.2610   15.1140 C   0  0  0  0  0  2  0  0  0  0  0  0
  -21.7240  -26.1180   17.4990 C   0  0  0  0  0  0  0  0  0  0  0  0
  -21.2440  -26.7930   18.6420 C   0  0  0  0  0  3  0  0  0  0  0  0
  -19.9280  -27.2900   18.6840 C   0  0  0  0  0  3  0  0  0  0  0  0
  -19.0710  -27.1040   17.5850 C   0  0  0  0  0  3  0  0  0  0  0  0
  -19.5350  -26.4300   16.4410 C   0  0  0  0  0  3  0  0  0  0  0  0
  -28.2290  -27.3100   21.7350 C   0  0  0  0  0  3  0  0  0  0  0  0
  -27.7270  -27.7890   23.0290 N   0  0  0  0  0  0  0  0  0  0  0  0
  -28.0690  -28.9540   23.5930 C   0  0  0  0  0  0  0  0  0  0  0  0
  -28.9090  -29.7140   23.1010 O   0  0  0  0  0  0  0  0  0  0  0  0
  -26.9960  -27.2410   23.4580 H   0  0  0  0  0  0  0  0  0  0  0  0
  -26.2620  -30.3640   24.6250 C   0  0  0  0  0  1  0  0  0  0  0  0
  -27.3690  -29.3380   24.9110 C   0  0  0  0  0  3  0  0  0  0  0  0
  -29.2090  -28.8680   26.4660 C   0  0  0  0  0  1  0  0  0  0  0  0
  -28.2940  -29.8730   25.9340 N   0  0  0  0  0  0  0  0  0  0  0  0
  -27.7790  -30.2740   26.7130 H   0  0  0  0  0  0  0  0  0  0  0  0
  -28.7440  -25.8220   21.8480 C   0  0  1  0  0  0  0  0  0  0  0  0
  -27.6130  -24.7860   22.0520 C   0  0  0  0  0  1  0  0  0  0  0  0
  -29.5280  -25.4170   20.5770 C   0  0  0  0  0  1  0  0  0  0  0  0
  -29.7310  -25.6990   23.0320 C   0  0  0  0  0  1  0  0  0  0  0  0
  -31.9430  -16.5810   21.3090 C   0  0  0  0  0  2  0  0  0  0  0  0
  -32.1650  -15.5970   20.1410 C   0  0  0  0  0  2  0  0  0  0  0  0
  -31.8510  -13.1590   19.7650 C   0  0  0  0  0  0  0  0  0  0  0  0
  -31.3190  -10.7840   19.3600 C   0  0  0  0  0  2  0  0  0  0  0  0
  -30.3750  -10.6300   18.1530 C   0  0  0  0  0  2  0  0  0  0  0  0
  -28.9080  -10.7540   18.5990 C   0  0  0  0  0  2  0  0  0  0  0  0
  -28.6580  -12.0140   19.4680 C   0  0  0  0  0  3  0  0  0  0  0  0
  -29.7050  -12.1180   20.6000 C   0  0  0  0  0  2  0  0  0  0  0  0
  -31.0480  -12.0850   19.9930 N   0  0  0  0  0  0  0  0  0  0  0  0
  -32.8940  -13.0900   19.1070 O   0  0  0  0  0  0  0  0  0  0  0  0
  -31.4470  -14.3250   20.2960 N   0  0  0  0  0  0  0  0  0  0  0  0
  -30.5900  -14.3280   20.8280 H   0  0  0  0  0  0  0  0  0  0  0  0
  -26.4820  -13.1260   20.2820 C   0  0  0  0  0  0  0  0  0  0  0  0
  -25.2800  -12.6010   20.6790 C   0  0  0  0  0  0  0  0  0  0  0  0
  -25.4250  -11.1830   20.6000 C   0  0  0  0  0  0  0  0  0  0  0  0
  -27.2930  -12.0400   19.9900 N   0  0  0  0  0  0  0  0  0  0  0  0
  -26.6610  -10.8640   20.2380 N   0  0  0  0  0  0  0  0  0  0  0  0
  -24.4410  -10.1090   20.7960 C   0  0  0  0  0  0  0  0  0  0  0  0
  -24.6410   -9.0920   21.7540 C   0  0  0  0  0  3  0  0  0  0  0  0
  -23.6740   -8.0800   21.9360 C   0  0  0  0  0  3  0  0  0  0  0  0
  -22.4910   -8.0810   21.1580 C   0  0  0  0  0  0  0  0  0  0  0  0
  -22.3070   -9.0860   20.1910 C   0  0  0  0  0  3  0  0  0  0  0  0
  -23.2730  -10.0900   20.0090 C   0  0  0  0  0  3  0  0  0  0  0  0
  -21.5070   -7.1270   21.2490 O   0  0  0  0  0  0  0  0  0  0  0  0
  -21.2940   -6.4200   22.4060 C   0  0  0  0  0  0  0  0  0  0  0  0
  -20.9110   -7.0540   23.6090 C   0  0  0  0  0  3  0  0  0  0  0  0
  -20.6350   -6.2810   24.7540 C   0  0  0  0  0  3  0  0  0  0  0  0
  -20.7340   -4.8790   24.6990 C   0  0  0  0  0  0  0  0  0  0  0  0
  -21.1110   -4.2450   23.5000 C   0  0  0  0  0  3  0  0  0  0  0  0
  -21.3870   -5.0150   22.3570 C   0  0  0  0  0  0  0  0  0  0  0  0
  -21.7300   -4.4000   21.1990 F   0  0  0  0  0  0  0  0  0  0  0  0
  -20.4610   -4.1340   25.7960 F   0  0  0  0  0  0  0  0  0  0  0  0
  -24.0370  -13.3690   21.0220 C   0  0  0  0  0  0  0  0  0  0  0  0
  -23.2090  -12.8320   21.9110 N   0  0  0  0  0  0  0  0  0  0  0  0
  -23.8150  -14.4780   20.5370 O   0  0  0  0  0  0  0  0  0  0  0  0
  -23.4020  -11.9320   22.3270 H   0  0  0  0  0  0  0  0  0  0  0  0
  -22.3720  -13.3280   22.1800 H   0  0  0  0  0  0  0  0  0  0  0  0
  -26.9430  -14.4290   20.1300 N   0  0  0  0  0  0  0  0  0  0  0  0
  -26.3570  -15.2350   20.3110 H   0  0  0  0  0  0  0  0  0  0  0  0
  -27.8670  -14.6780   19.8000 H   0  0  0  0  0  0  0  0  0  0  0  0
  1  2  1  0
  3  1  2  0
  4 57  1  0
  4  2  2  0
  5  4  1  0
  6  5  2  0
  6  3  1  0
  7  3  1  0
  8  5  1  0
  9  6  1  0
 10  9  1  0
 11 10  1  0
 11 13  1  0
 12 10  2  0
 14 11  1  0
 15 14  1  0
 16 18  1  0
 16 15  1  0
 17 28  2  0
 18 23  1  0
 19 29  1  0
 19 27  1  0
 20 26  1  0
 20 22  1  0
 21 27  1  0
 22 21  1  0
 23 22  2  0
 24 25  1  0
 24 18  2  0
 25 20  2  0
 26 19  1  0
 27 17  1  0
 29 31  2  0
 30 29  1  0
 32 30  1  0
 33 42  2  0
 33 38  1  0
 34 30  1  0
 35 34  1  0
 36 37  1  0
 36 35  1  0
 37 33  1  0
 38 34  1  0
 38 39  2  0
 39 40  1  0
 41 40  2  0
 42 41  1  0
 43 17  1  0
 43 53  1  0
 43 44  1  0
 44 47  1  0
 44 45  1  0
 45 49  1  0
 46 45  2  0
 49 48  1  0
 49 51  1  0
 51 50  1  0
 51 52  1  0
 53 54  1  1
 53 56  1  0
 55 53  1  0
 58 67  1  0
 58 57  1  0
 59 65  1  0
 59 67  1  0
 60 65  1  0
 61 62  1  0
 61 60  1  0
 63 62  1  0
 63 72  1  0
 63 64  1  0
 65 64  1  0
 66 59  2  0
 67 68  1  0
 69 70  2  0
 70 89  1  0
 71 70  1  0
 71 74  1  0
 72 73  1  0
 72 69  1  0
 73 71  2  0
 74 75  1  0
 75 76  2  0
 77 80  1  0
 77 76  1  0
 78 77  2  0
 79 78  1  0
 79 74  2  0
 80 81  1  0
 81 82  1  0
 82 83  2  0
 84 83  1  0
 84 88  1  0
 85 84  2  0
 86 81  2  0
 86 85  1  0
 87 86  1  0
 89 90  1  0
 90 93  1  0
 90 92  1  0
 91 89  2  0
 94 69  1  0
 94 95  1  0
 96 94  1  0
M  ISO  4  15 101  16 101  59 100  67 100
M  END
>  <TORSDO>  (21) 
F 22

>  <SCORE>  (21) 
-6.687

>  <name>  (21) 
20

>  <ligand_id>  (21) 
20

>  <original_smiles>  (21) 
[H]c1c([H])c([H])c2c(c1[H])C([H])([H])C([H])([H])C([H])([H])C2([H])N([H])C(=O)C1([H])N(C(=O)C([H])(N([H])C(=O)C([H])(N([H])C([H])([H])[H])C([H])([H])[H])C(C([H])([H])[H])(C([H])([H])[H])C([H])([H])[H])C([H])([H])c2c([H])c(OC([H])([H])C([H])([H])N([H])C(=O)C([H])([H])c3c(C([H])([H])[H])c([H])c([H])c(C([H])([H])C([H])([H])N([H])C(=O)N4C([H])([H])C([H])([H])C([H])([H])C([H])(n5nc(-c6c([H])c([H])c(Oc7c([H])c([H])c(F)c([H])c7F)c([H])c6[H])c(C(=O)N([H])[H])c5N([H])[H])C4([H])[H])c3C([H])([H])[H])c([H])c([H])c2C1([H])[H]

>  <smiles>  (21) 
[H]c1c([H])c([H])c2c(c1[H])C([H])([H])C([H])([H])C([H])([H])C2([H])N([H])C(=O)C1([H])N(C(=O)C([H])(N([H])C(=O)C([H])(N([H])C([H])([H])[H])C([H])([H])[H])C(C([H])([H])[H])(C([H])([H])[H])C([H])([H])[H])C([H])([H])c2c([H])c(OC([H])([H])C([H])([H])N([H])C(=O)C([H])([H])c3c(C([H])([H])[H])c([H])c([H])c(C([H])([H])C([H])([H])N([H])C(=O)N4C([H])([H])C([H])([H])C([H])([H])C([H])(n5nc(-c6c([H])c([H])c(Oc7c([H])c([H])c(F)c([H])c7F)c([H])c6[H])c(C(=O)N([H])[H])c5N([H])[H])C4([H])[H])c3C([H])([H])[H])c([H])c([H])c2C1([H])[H]

$$$$
21:0:0
     RDKit          3D

 97106  0  0  1  0  0  0  0  0999 V2000
  -30.2940  -23.5880   18.9540 C   0  0  0  0  0  0  0  0  0  0  0  0
  -30.9260  -22.4210   19.2240 C   0  0  0  0  0  3  0  0  0  0  0  0
  -30.1030  -24.0190   17.5010 C   0  0  0  0  0  2  0  0  0  0  0  0
  -29.7570  -24.5880   19.9830 C   0  0  0  0  0  2  0  0  0  0  0  0
  -27.9100  -25.1280   18.1240 C   0  0  0  0  0  2  0  0  0  0  0  0
  -28.6070  -24.1020   17.1980 C   0  0  0  0  0  3  0  0  0  0  0  0
  -28.3800  -25.2590   19.6270 C   0  0  0  0  0  3  0  0  0  0  0  0
  -28.2700  -24.3950   15.7080 C   0  0  0  0  0  1  0  0  0  0  0  0
  -30.0700  -21.3860   21.3760 C   0  0  0  0  0  3  0  0  0  0  0  0
  -32.3430  -20.9300   20.6020 C   0  0  0  0  0  3  0  0  0  0  0  0
  -30.1810  -20.3260   22.2930 C   0  0  0  0  0  3  0  0  0  0  0  0
  -32.4520  -19.8690   21.5260 C   0  0  0  0  0  3  0  0  0  0  0  0
  -31.1210  -21.6350   20.4580 C   0  0  0  0  0  0  0  0  0  0  0  0
  -31.3250  -19.5070   22.3010 C   0  0  0  0  0  0  0  0  0  0  0  0
  -31.2840  -18.2760   23.1010 C   0  0  0  0  0  3  0  0  0  0  0  0
  -31.0410  -17.0130   22.6720 C   0  0  0  0  0  3  0  0  0  0  0  0
  -30.6270  -14.4980   20.1510 C   0  0  0  0  0  0  0  0  0  0  0  0
  -30.1120  -12.4080   18.9340 C   0  0  0  0  0  2  0  0  0  0  0  0
  -29.1340  -12.7090   17.7870 C   0  0  0  0  0  2  0  0  0  0  0  0
  -27.6860  -12.5860   18.2840 C   0  0  0  0  0  2  0  0  0  0  0  0
  -27.4280  -13.3600   19.6050 C   0  0  0  0  0  3  0  0  0  0  0  0
  -28.5440  -13.1450   20.6530 C   0  0  0  0  0  2  0  0  0  0  0  0
  -29.8590  -13.3790   20.0250 N   0  0  0  0  0  0  0  0  0  0  0  0
  -31.5900  -14.6990   19.4080 O   0  0  0  0  0  0  0  0  0  0  0  0
  -30.8380  -16.6060   21.2820 C   0  0  0  0  0  0  0  0  0  0  0  0
  -30.3620  -15.3440   21.1740 N   0  0  0  0  0  0  0  0  0  0  0  0
  -31.1100  -17.3030   20.2960 O   0  0  0  0  0  0  0  0  0  0  0  0
  -29.8340  -14.9730   21.9510 H   0  0  0  0  0  0  0  0  0  0  0  0
  -25.0560  -13.9040   20.4500 C   0  0  0  0  0  0  0  0  0  0  0  0
  -24.0160  -13.1140   20.8590 C   0  0  0  0  0  0  0  0  0  0  0  0
  -24.4980  -11.7700   20.7810 C   0  0  0  0  0  0  0  0  0  0  0  0
  -26.1070  -13.0540   20.1640 N   0  0  0  0  0  0  0  0  0  0  0  0
  -25.7740  -11.7600   20.4180 N   0  0  0  0  0  0  0  0  0  0  0  0
  -23.7910  -10.4950   20.9930 C   0  0  0  0  0  0  0  0  0  0  0  0
  -24.2760   -9.5330   21.9070 C   0  0  0  0  0  3  0  0  0  0  0  0
  -23.5760   -8.3240   22.1180 C   0  0  0  0  0  3  0  0  0  0  0  0
  -22.3840   -8.0620   21.4070 C   0  0  0  0  0  0  0  0  0  0  0  0
  -21.9170   -9.0080   20.4780 C   0  0  0  0  0  3  0  0  0  0  0  0
  -22.6150  -10.2070   20.2660 C   0  0  0  0  0  3  0  0  0  0  0  0
  -21.6500   -6.9020   21.5210 O   0  0  0  0  0  0  0  0  0  0  0  0
  -21.6470   -6.1620   22.6720 C   0  0  0  0  0  0  0  0  0  0  0  0
  -21.2480   -6.7140   23.9120 C   0  0  0  0  0  3  0  0  0  0  0  0
  -21.2010   -5.9020   25.0600 C   0  0  0  0  0  3  0  0  0  0  0  0
  -21.5390   -4.5390   24.9660 C   0  0  0  0  0  0  0  0  0  0  0  0
  -21.9280   -3.9840   23.7350 C   0  0  0  0  0  3  0  0  0  0  0  0
  -21.9870   -4.7970   22.5880 C   0  0  0  0  0  0  0  0  0  0  0  0
  -22.3460   -4.2600   21.3980 F   0  0  0  0  0  0  0  0  0  0  0  0
  -21.4870   -3.7550   26.0670 F   0  0  0  0  0  0  0  0  0  0  0  0
  -22.6260  -13.5670   21.1960 C   0  0  0  0  0  0  0  0  0  0  0  0
  -21.9500  -12.8560   22.0940 N   0  0  0  0  0  0  0  0  0  0  0  0
  -22.1480  -14.5940   20.7080 O   0  0  0  0  0  0  0  0  0  0  0  0
  -22.3480  -12.0290   22.5110 H   0  0  0  0  0  0  0  0  0  0  0  0
  -21.0200  -13.1350   22.3680 H   0  0  0  0  0  0  0  0  0  0  0  0
  -25.1800  -15.2770   20.2800 N   0  0  0  0  0  0  0  0  0  0  0  0
  -24.4040  -15.9110   20.4200 H   0  0  0  0  0  0  0  0  0  0  0  0
  -26.0260  -15.7440   19.9700 H   0  0  0  0  0  0  0  0  0  0  0  0
  -28.3960  -26.6490   20.1160 O   0  0  0  0  0  0  0  0  0  0  0  0
  -24.5820  -31.8870   23.2830 C   0  0  0  0  0  0  0  0  0  0  0  0
  -27.2260  -27.4040   20.1750 C   0  0  0  0  0  0  0  0  0  0  0  0
  -23.3840  -30.4960   21.6350 C   0  0  0  0  0  3  0  0  0  0  0  0
  -24.8360  -28.9620   20.2320 C   0  0  0  0  0  0  0  0  0  0  0  0
  -25.9160  -30.8570   21.4290 C   0  0  0  0  0  2  0  0  0  0  0  0
  -26.0150  -29.4790   20.7830 C   0  0  0  0  0  0  0  0  0  0  0  0
  -27.2170  -28.7120   20.7380 C   0  0  0  0  0  3  0  0  0  0  0  0
  -25.9940  -26.9110   19.6950 C   0  0  0  0  0  3  0  0  0  0  0  0
  -24.8240  -27.6740   19.6950 C   0  0  0  0  0  3  0  0  0  0  0  0
  -23.5980  -29.8200   20.2600 C   0  0  0  0  0  2  0  0  0  0  0  0
  -24.6490  -31.0980   22.1770 N   0  0  0  0  0  0  0  0  0  0  0  0
  -23.4980  -32.1560   23.8180 O   0  0  0  0  0  0  0  0  0  0  0  0
  -22.7320  -29.4680   22.5930 C   0  0  0  0  0  0  0  0  0  0  0  0
  -21.4040  -29.2860   22.4630 N   0  0  0  0  0  0  0  0  0  0  0  0
  -23.4120  -28.8420   23.4060 O   0  0  0  0  0  0  0  0  0  0  0  0
  -20.9170  -29.8530   21.7810 H   0  0  0  0  0  0  0  0  0  0  0  0
  -18.0290  -28.0870   22.9520 C   0  0  0  0  0  0  0  0  0  0  0  0
  -20.5860  -28.3380   23.2250 C   0  0  0  0  0  3  0  0  0  0  0  0
  -20.6830  -26.9120   22.6370 C   0  0  0  0  0  2  0  0  0  0  0  0
  -19.5810  -26.5970   21.6220 C   0  0  0  0  0  2  0  0  0  0  0  0
  -18.2010  -26.7410   22.2680 C   0  0  0  0  0  2  0  0  0  0  0  0
  -19.1470  -28.8460   23.3830 C   0  0  0  0  0  0  0  0  0  0  0  0
  -18.9290  -30.1060   23.9800 C   0  0  0  0  0  3  0  0  0  0  0  0
  -17.6250  -30.6100   24.1440 C   0  0  0  0  0  3  0  0  0  0  0  0
  -16.5210  -29.8470   23.7240 C   0  0  0  0  0  3  0  0  0  0  0  0
  -16.7210  -28.5860   23.1350 C   0  0  0  0  0  3  0  0  0  0  0  0
  -25.8620  -32.5180   23.9090 C   0  0  0  0  0  3  0  0  0  0  0  0
  -25.5550  -33.9200   24.2220 N   0  0  0  0  0  0  0  0  0  0  0  0
  -25.8960  -34.9650   23.4540 C   0  0  0  0  0  0  0  0  0  0  0  0
  -26.5750  -34.8530   22.4290 O   0  0  0  0  0  0  0  0  0  0  0  0
  -24.9500  -34.0810   25.0140 H   0  0  0  0  0  0  0  0  0  0  0  0
  -24.1690  -36.7590   23.0780 C   0  0  0  0  0  1  0  0  0  0  0  0
  -25.4110  -36.3620   23.8940 C   0  0  0  0  0  3  0  0  0  0  0  0
  -27.5470  -37.2540   24.7170 C   0  0  0  0  0  1  0  0  0  0  0  0
  -26.4480  -37.4130   23.7710 N   0  0  0  0  0  0  0  0  0  0  0  0
  -26.0380  -38.3350   23.9050 H   0  0  0  0  0  0  0  0  0  0  0  0
  -26.3650  -31.7530   25.1910 C   0  0  1  0  0  0  0  0  0  0  0  0
  -25.2630  -31.5290   26.2490 C   0  0  0  0  0  1  0  0  0  0  0  0
  -26.9390  -30.3700   24.8040 C   0  0  0  0  0  1  0  0  0  0  0  0
  -27.5150  -32.5420   25.8560 C   0  0  0  0  0  1  0  0  0  0  0  0
  1  2  2  0
  1  4  1  0
  2 13  1  0
  3  1  1  0
  5  7  1  0
  6  8  1  0
  6  3  1  0
  6  5  1  0
  7  4  1  0
  7 57  1  0
  9 11  1  0
 10 12  2  0
 11 14  2  0
 12 14  1  0
 13 10  1  0
 13  9  2  0
 14 15  1  0
 16 15  2  0
 17 26  1  0
 18 23  1  0
 19 20  1  0
 19 18  1  0
 21 20  1  0
 21 32  1  0
 21 22  1  0
 23 17  1  0
 23 22  1  0
 24 17  2  0
 25 16  1  0
 26 25  1  0
 26 28  1  0
 27 25  2  0
 29 30  2  0
 30 49  1  0
 31 30  1  0
 31 34  1  0
 32 33  1  0
 32 29  1  0
 33 31  2  0
 34 35  1  0
 35 36  2  0
 37 40  1  0
 37 36  1  0
 38 37  2  0
 39 38  1  0
 39 34  2  0
 40 41  1  0
 41 42  1  0
 42 43  2  0
 44 43  1  0
 44 48  1  0
 45 44  2  0
 46 41  2  0
 46 45  1  0
 47 46  1  0
 49 50  1  0
 50 53  1  0
 50 52  1  0
 51 49  2  0
 54 55  1  0
 54 29  1  0
 56 54  1  0
 57 59  1  0
 58 69  2  0
 59 64  1  0
 60 68  1  0
 60 70  1  0
 61 67  1  0
 61 63  1  0
 62 68  1  0
 63 62  1  0
 64 63  2  0
 65 59  2  0
 66 65  1  0
 66 61  2  0
 67 60  1  0
 68 58  1  0
 70 72  2  0
 71 70  1  0
 73 71  1  0
 74 83  2  0
 74 79  1  0
 75 71  1  0
 75 79  1  0
 76 75  1  0
 77 78  1  0
 77 76  1  0
 78 74  1  0
 79 80  2  0
 80 81  1  0
 82 81  2  0
 83 82  1  0
 84 58  1  0
 84 85  1  0
 84 94  1  0
 85 88  1  0
 86 90  1  0
 86 85  1  0
 87 86  2  0
 90 89  1  0
 92 90  1  0
 92 93  1  0
 92 91  1  0
 94 97  1  1
 94 95  1  0
 96 94  1  0
M  ISO  4   7 101  17 100  26 100  57 101
M  END
>  <TORSDO>  (22) 
F 18

>  <SCORE>  (22) 
-13.701

>  <name>  (22) 
21

>  <ligand_id>  (22) 
21

>  <original_smiles>  (22) 
[H]C(C(=O)N([H])C(=O)N1C([H])([H])C([H])([H])C([H])([H])C([H])(n2nc(-c3c([H])c([H])c(Oc4c([H])c([H])c(F)c([H])c4F)c([H])c3[H])c(C(=O)N([H])[H])c2N([H])[H])C1([H])[H])=C([H])c1c([H])c([H])c(C([H])=C2C([H])([H])C([H])(Oc3c([H])c([H])c4c(c3[H])C([H])([H])N(C(=O)C([H])(N([H])C(=O)C([H])(N([H])C([H])([H])[H])C([H])([H])[H])C(C([H])([H])[H])(C([H])([H])[H])C([H])([H])[H])C([H])(C(=O)N([H])C3([H])c5c([H])c([H])c([H])c([H])c5C([H])([H])C([H])([H])C3([H])[H])C4([H])[H])C([H])([H])C([H])(C([H])([H])[H])C2([H])[H])c([H])c1[H]

>  <smiles>  (22) 
[H]C(C(=O)N([H])C(=O)N1C([H])([H])C([H])([H])C([H])([H])C([H])(n2nc(-c3c([H])c([H])c(Oc4c([H])c([H])c(F)c([H])c4F)c([H])c3[H])c(C(=O)N([H])[H])c2N([H])[H])C1([H])[H])=C([H])c1c([H])c([H])c(C([H])=C2C([H])([H])C([H])(Oc3c([H])c([H])c4c(c3[H])C([H])([H])N(C(=O)C([H])(N([H])C(=O)C([H])(N([H])C([H])([H])[H])C([H])([H])[H])C(C([H])([H])[H])(C([H])([H])[H])C([H])([H])[H])C([H])(C(=O)N([H])C3([H])c5c([H])c([H])c([H])c([H])c5C([H])([H])C([H])([H])C3([H])[H])C4([H])[H])C([H])([H])C([H])(C([H])([H])[H])C2([H])[H])c([H])c1[H]

$$$$
22:0:0
     RDKit          3D

 91101  0  0  1  0  0  0  0  0999 V2000
  -29.5100  -17.7990   20.2820 C   0  0  0  0  0  0  0  0  0  0  0  0
  -29.8350  -19.3280   20.7210 C   0  0  0  0  0  0  0  0  0  0  0  0
  -29.0300  -20.6220   20.5110 C   0  0  0  0  0  0  0  0  0  0  0  0
  -27.9260  -20.7470   19.7390 C   0  0  0  0  0  0  0  0  0  0  0  0
  -28.3450  -18.1200   19.4080 C   0  0  0  0  0  0  0  0  0  0  0  0
  -27.6060  -19.4280   19.1930 C   0  0  0  0  0  0  0  0  0  0  0  0
  -27.4500  -22.3650   19.6610 C   0  0  0  0  0  3  0  0  0  0  0  0
  -30.8620  -21.7530   20.9910 C   0  0  0  0  0  2  0  0  0  0  0  0
  -29.3490  -22.1740   20.9780 C   0  0  0  0  0  3  0  0  0  0  0  0
  -31.0290  -20.1410   21.2970 C   0  0  0  0  0  3  0  0  0  0  0  0
  -28.4740  -23.6050   20.2040 C   0  0  0  0  0  0  0  0  0  0  0  0
  -27.8980  -17.0060   18.4640 C   0  0  0  0  0  1  0  0  0  0  0  0
  -26.3920  -19.4410   18.2740 C   0  0  0  0  0  1  0  0  0  0  0  0
  -32.3860  -19.6000   20.8290 C   0  0  0  0  0  1  0  0  0  0  0  0
  -30.2740  -16.1020   20.3760 C   0  0  0  0  0  0  0  0  0  0  0  0
  -30.4980  -13.4710   19.6580 C   0  0  0  0  0  2  0  0  0  0  0  0
  -29.6800  -12.9170   18.4470 C   0  0  0  0  0  2  0  0  0  0  0  0
  -28.2680  -12.4930   18.8700 C   0  0  0  0  0  2  0  0  0  0  0  0
  -27.6680  -13.5180   19.8510 C   0  0  0  0  0  3  0  0  0  0  0  0
  -28.6370  -13.9860   20.9670 C   0  0  0  0  0  2  0  0  0  0  0  0
  -29.7990  -14.6790   20.3340 N   0  0  0  0  0  0  0  0  0  0  0  0
  -31.5200  -15.9780   20.3330 O   0  0  0  0  0  0  0  0  0  0  0  0
  -25.2820  -14.0010   20.5540 C   0  0  0  0  0  0  0  0  0  0  0  0
  -24.2210  -13.2060   20.8730 C   0  0  0  0  0  0  0  0  0  0  0  0
  -24.7150  -11.8660   20.8680 C   0  0  0  0  0  0  0  0  0  0  0  0
  -26.3480  -13.1490   20.3440 N   0  0  0  0  0  0  0  0  0  0  0  0
  -26.0200  -11.8550   20.6020 N   0  0  0  0  0  0  0  0  0  0  0  0
  -23.9970  -10.5960   21.0400 C   0  0  0  0  0  0  0  0  0  0  0  0
  -24.3890   -9.6500   22.0140 C   0  0  0  0  0  3  0  0  0  0  0  0
  -23.6650   -8.4490   22.1770 C   0  0  0  0  0  3  0  0  0  0  0  0
  -22.5350   -8.1860   21.3670 C   0  0  0  0  0  0  0  0  0  0  0  0
  -22.1610   -9.1210   20.3860 C   0  0  0  0  0  3  0  0  0  0  0  0
  -22.8850  -10.3130   20.2220 C   0  0  0  0  0  3  0  0  0  0  0  0
  -21.7870   -7.0340   21.4360 O   0  0  0  0  0  0  0  0  0  0  0  0
  -21.6710   -6.3200   22.6030 C   0  0  0  0  0  0  0  0  0  0  0  0
  -21.1230   -6.8890   23.7730 C   0  0  0  0  0  3  0  0  0  0  0  0
  -20.9580   -6.1000   24.9280 C   0  0  0  0  0  3  0  0  0  0  0  0
  -21.3320   -4.7420   24.9150 C   0  0  0  0  0  0  0  0  0  0  0  0
  -21.8730   -4.1730   23.7490 C   0  0  0  0  0  3  0  0  0  0  0  0
  -22.0390   -4.9600   22.5950 C   0  0  0  0  0  0  0  0  0  0  0  0
  -22.5400   -4.4000   21.4680 F   0  0  0  0  0  0  0  0  0  0  0  0
  -21.1660   -3.9820   26.0220 F   0  0  0  0  0  0  0  0  0  0  0  0
  -22.8080  -13.6670   21.0770 C   0  0  0  0  0  0  0  0  0  0  0  0
  -22.0570  -12.9810   21.9300 N   0  0  0  0  0  0  0  0  0  0  0  0
  -22.3780  -14.6750   20.5170 O   0  0  0  0  0  0  0  0  0  0  0  0
  -22.4140  -12.1640   22.4030 H   0  0  0  0  0  0  0  0  0  0  0  0
  -21.1090  -13.2770   22.1140 H   0  0  0  0  0  0  0  0  0  0  0  0
  -25.4230  -15.3760   20.3960 N   0  0  0  0  0  0  0  0  0  0  0  0
  -24.6460  -16.0160   20.5190 H   0  0  0  0  0  0  0  0  0  0  0  0
  -26.3000  -15.8440   20.2130 H   0  0  0  0  0  0  0  0  0  0  0  0
  -28.2570  -25.4390   20.4790 O   0  0  0  0  0  0  0  0  0  0  0  0
  -24.7010  -31.9280   23.2830 C   0  0  0  0  0  0  0  0  0  0  0  0
  -27.2800  -26.7050   20.3540 C   0  0  0  0  0  0  0  0  0  0  0  0
  -23.5440  -30.5170   21.6370 C   0  0  0  0  0  3  0  0  0  0  0  0
  -25.0160  -28.8320   20.2550 C   0  0  0  0  0  0  0  0  0  0  0  0
  -26.1280  -30.6170   21.5670 C   0  0  0  0  0  2  0  0  0  0  0  0
  -26.2020  -29.1650   20.9170 C   0  0  0  0  0  0  0  0  0  0  0  0
  -27.3050  -28.1320   20.9310 C   0  0  0  0  0  3  0  0  0  0  0  0
  -26.0580  -26.6260   19.6250 C   0  0  0  0  0  3  0  0  0  0  0  0
  -24.9920  -27.5920   19.5870 C   0  0  0  0  0  3  0  0  0  0  0  0
  -23.8110  -29.8010   20.2770 C   0  0  0  0  0  2  0  0  0  0  0  0
  -24.8160  -31.0590   22.2150 N   0  0  0  0  0  0  0  0  0  0  0  0
  -23.5970  -32.2350   23.7690 O   0  0  0  0  0  0  0  0  0  0  0  0
  -22.8010  -29.5570   22.6070 C   0  0  0  0  0  0  0  0  0  0  0  0
  -21.4700  -29.4020   22.4620 N   0  0  0  0  0  0  0  0  0  0  0  0
  -23.4390  -28.9460   23.4690 O   0  0  0  0  0  0  0  0  0  0  0  0
  -21.0030  -29.9460   21.7500 H   0  0  0  0  0  0  0  0  0  0  0  0
  -18.0790  -28.1720   22.9330 C   0  0  0  0  0  0  0  0  0  0  0  0
  -20.6340  -28.4680   23.2280 C   0  0  0  0  0  3  0  0  0  0  0  0
  -20.7530  -27.0310   22.6690 C   0  0  0  0  0  2  0  0  0  0  0  0
  -19.6710  -26.6930   21.6380 C   0  0  0  0  0  2  0  0  0  0  0  0
  -18.2780  -26.8250   22.2600 C   0  0  0  0  0  2  0  0  0  0  0  0
  -19.1840  -28.9520   23.3730 C   0  0  0  0  0  0  0  0  0  0  0  0
  -18.9390  -30.2070   23.9670 C   0  0  0  0  0  3  0  0  0  0  0  0
  -17.6250  -30.6900   24.1220 C   0  0  0  0  0  3  0  0  0  0  0  0
  -16.5360  -29.9110   23.6950 C   0  0  0  0  0  3  0  0  0  0  0  0
  -16.7640  -28.6540   23.1070 C   0  0  0  0  0  3  0  0  0  0  0  0
  -25.9470  -32.5910   23.9460 C   0  0  0  0  0  3  0  0  0  0  0  0
  -25.6210  -34.0000   24.2510 N   0  0  0  0  0  0  0  0  0  0  0  0
  -25.9440  -35.0540   23.4880 C   0  0  0  0  0  0  0  0  0  0  0  0
  -26.6020  -34.9430   22.4510 O   0  0  0  0  0  0  0  0  0  0  0  0
  -25.0380  -34.1610   25.0590 H   0  0  0  0  0  0  0  0  0  0  0  0
  -24.1930  -36.8420   23.1760 C   0  0  0  0  0  1  0  0  0  0  0  0
  -25.4670  -36.4520   23.9430 C   0  0  0  0  0  3  0  0  0  0  0  0
  -27.6190  -37.3790   24.6840 C   0  0  0  0  0  1  0  0  0  0  0  0
  -26.4860  -37.5100   23.7720 N   0  0  0  0  0  0  0  0  0  0  0  0
  -26.0760  -38.4310   23.9080 H   0  0  0  0  0  0  0  0  0  0  0  0
  -26.4050  -31.8600   25.2700 C   0  0  1  0  0  0  0  0  0  0  0  0
  -25.2670  -31.6620   26.3000 C   0  0  0  0  0  1  0  0  0  0  0  0
  -26.9960  -30.4670   24.9610 C   0  0  0  0  0  1  0  0  0  0  0  0
  -27.5330  -32.6690   25.9520 C   0  0  0  0  0  1  0  0  0  0  0  0
  1 15  1  0
  1  2  1  0
  2 10  1  0
  3  2  2  0
  3  9  1  0
  4  3  1  0
  5  1  2  0
  6  5  1  0
  6  4  2  0
  7  4  1  0
  7 11  2  0
  8 10  1  0
  9  8  1  0
 10 14  1  0
 11 51  1  0
 11  9  1  0
 12  5  1  0
 13  6  1  0
 16 21  1  0
 17 18  1  0
 17 16  1  0
 19 18  1  0
 19 26  1  0
 19 20  1  0
 21 15  1  0
 21 20  1  0
 22 15  2  0
 23 24  2  0
 24 43  1  0
 25 24  1  0
 25 28  1  0
 26 23  1  0
 26 27  1  0
 27 25  2  0
 28 29  1  0
 29 30  2  0
 31 34  1  0
 31 30  1  0
 32 31  2  0
 33 32  1  0
 33 28  2  0
 34 35  1  0
 35 36  1  0
 36 37  2  0
 38 37  1  0
 38 42  1  0
 39 38  2  0
 40 35  2  0
 40 39  1  0
 41 40  1  0
 43 44  1  0
 44 47  1  0
 44 46  1  0
 45 43  2  0
 48 49  1  0
 48 23  1  0
 50 48  1  0
 52 63  2  0
 53 51  1  0
 53 58  1  0
 54 62  1  0
 54 64  1  0
 55 61  1  0
 55 57  1  0
 56 62  1  0
 57 58  2  0
 57 56  1  0
 59 53  2  0
 60 59  1  0
 60 55  2  0
 61 54  1  0
 62 52  1  0
 64 66  2  0
 65 64  1  0
 67 65  1  0
 68 77  2  0
 68 73  1  0
 69 65  1  0
 69 73  1  0
 70 69  1  0
 71 72  1  0
 71 70  1  0
 72 68  1  0
 73 74  2  0
 74 75  1  0
 76 75  2  0
 77 76  1  0
 78 52  1  0
 78 79  1  0
 78 88  1  0
 79 82  1  0
 80 84  1  0
 80 79  1  0
 81 80  2  0
 84 83  1  0
 86 87  1  0
 86 84  1  0
 86 85  1  0
 88 91  1  1
 88 89  1  0
 90 88  1  0
M  ISO  4   1 100  11 101  15 100  51 101
M  END
>  <TORSDO>  (23) 
F 16

>  <SCORE>  (23) 
-16.693

>  <name>  (23) 
22

>  <ligand_id>  (23) 
22

>  <original_smiles>  (23) 
[H]c1c([H])c([H])c2c(c1[H])C([H])([H])C([H])([H])C([H])([H])C2([H])N([H])C(=O)C1([H])N(C(=O)C([H])(N([H])C(=O)C([H])(N([H])C([H])([H])[H])C([H])([H])[H])C(C([H])([H])[H])(C([H])([H])[H])C([H])([H])[H])C([H])([H])c2c([H])c(OC3([H])C([H])([H])c4c(C([H])([H])[H])c(C([H])([H])[H])c(C(=O)N5C([H])([H])C([H])([H])C([H])([H])C([H])(n6nc(-c7c([H])c([H])c(Oc8c([H])c([H])c(F)c([H])c8F)c([H])c7[H])c(C(=O)N([H])[H])c6N([H])[H])C5([H])[H])c5c4C3([H])C([H])([H])C5([H])C([H])([H])[H])c([H])c([H])c2C1([H])[H]

>  <smiles>  (23) 
[H]c1c([H])c([H])c2c(c1[H])C([H])([H])C([H])([H])C([H])([H])C2([H])N([H])C(=O)C1([H])N(C(=O)C([H])(N([H])C(=O)C([H])(N([H])C([H])([H])[H])C([H])([H])[H])C(C([H])([H])[H])(C([H])([H])[H])C([H])([H])[H])C([H])([H])c2c([H])c(OC3([H])C([H])([H])c4c(C([H])([H])[H])c(C([H])([H])[H])c(C(=O)N5C([H])([H])C([H])([H])C([H])([H])C([H])(n6nc(-c7c([H])c([H])c(Oc8c([H])c([H])c(F)c([H])c8F)c([H])c7[H])c(C(=O)N([H])[H])c6N([H])[H])C5([H])[H])c5c4C3([H])C([H])([H])C5([H])C([H])([H])[H])c([H])c([H])c2C1([H])[H]

$$$$
23:0:0
     RDKit          3D

 98106  0  0  1  0  0  0  0  0999 V2000
  -28.9120  -20.9030   19.6880 C   0  0  0  0  0  3  0  0  0  0  0  0
  -29.4990  -22.3270   20.1000 N   0  0  0  0  0  4  0  0  0  0  0  0
  -29.4260  -22.3950   21.1010 H   0  0  0  0  0  0  0  0  0  0  0  0
  -30.4900  -22.2680   19.9220 H   0  0  0  0  0  0  0  0  0  0  0  0
  -29.0600  -23.7350   19.4730 C   0  0  0  0  0  2  0  0  0  0  0  0
  -28.6840  -25.1320   20.3540 C   0  0  0  0  0  2  0  0  0  0  0  0
  -28.6690  -26.6370   19.9360 O   0  0  0  0  0  0  0  0  0  0  0  0
  -24.6560  -31.8590   23.3170 C   0  0  0  0  0  0  0  0  0  0  0  0
  -27.5310  -27.5140   20.0200 C   0  0  0  0  0  0  0  0  0  0  0  0
  -23.5590  -30.5290   21.5540 C   0  0  0  0  0  3  0  0  0  0  0  0
  -25.1120  -29.1240   20.0630 C   0  0  0  0  0  0  0  0  0  0  0  0
  -26.0980  -30.9350   21.4620 C   0  0  0  0  0  2  0  0  0  0  0  0
  -26.2550  -29.5950   20.7200 C   0  0  0  0  0  0  0  0  0  0  0  0
  -27.4680  -28.8100   20.6740 C   0  0  0  0  0  3  0  0  0  0  0  0
  -26.3530  -27.1300   19.3490 C   0  0  0  0  0  3  0  0  0  0  0  0
  -25.1710  -27.9060   19.3660 C   0  0  0  0  0  3  0  0  0  0  0  0
  -23.8410  -29.9570   20.1380 C   0  0  0  0  0  2  0  0  0  0  0  0
  -24.7890  -31.1260   22.1680 N   0  0  0  0  0  0  0  0  0  0  0  0
  -23.5470  -32.0490   23.8400 O   0  0  0  0  0  0  0  0  0  0  0  0
  -22.9130  -29.4240   22.4270 C   0  0  0  0  0  0  0  0  0  0  0  0
  -21.5930  -29.2190   22.2800 N   0  0  0  0  0  0  0  0  0  0  0  0
  -23.6040  -28.7540   23.1990 O   0  0  0  0  0  0  0  0  0  0  0  0
  -21.0880  -29.8140   21.6380 H   0  0  0  0  0  0  0  0  0  0  0  0
  -18.2490  -27.8870   22.6890 C   0  0  0  0  0  0  0  0  0  0  0  0
  -20.8020  -28.1930   22.9660 C   0  0  0  0  0  3  0  0  0  0  0  0
  -20.9380  -26.8220   22.2630 C   0  0  0  0  0  2  0  0  0  0  0  0
  -19.8390  -26.5640   21.2290 C   0  0  0  0  0  2  0  0  0  0  0  0
  -18.4570  -26.6110   21.8890 C   0  0  0  0  0  2  0  0  0  0  0  0
  -19.3490  -28.6380   23.1800 C   0  0  0  0  0  0  0  0  0  0  0  0
  -19.1000  -29.8330   23.8900 C   0  0  0  0  0  3  0  0  0  0  0  0
  -17.7830  -30.2780   24.1090 C   0  0  0  0  0  3  0  0  0  0  0  0
  -16.6970  -29.5240   23.6320 C   0  0  0  0  0  3  0  0  0  0  0  0
  -16.9310  -28.3300   22.9280 C   0  0  0  0  0  3  0  0  0  0  0  0
  -25.8870  -32.5090   24.0180 C   0  0  0  0  0  3  0  0  0  0  0  0
  -25.5420  -33.9050   24.3310 N   0  0  0  0  0  0  0  0  0  0  0  0
  -25.9120  -34.9660   23.6020 C   0  0  0  0  0  0  0  0  0  0  0  0
  -26.6460  -34.8730   22.6140 O   0  0  0  0  0  0  0  0  0  0  0  0
  -24.8960  -34.0490   25.0930 H   0  0  0  0  0  0  0  0  0  0  0  0
  -24.1860  -36.7450   23.1610 C   0  0  0  0  0  1  0  0  0  0  0  0
  -25.3870  -36.3490   24.0360 C   0  0  0  0  0  3  0  0  0  0  0  0
  -27.4690  -37.2550   24.9740 C   0  0  0  0  0  1  0  0  0  0  0  0
  -26.4130  -37.4130   23.9780 N   0  0  0  0  0  0  0  0  0  0  0  0
  -25.9900  -38.3290   24.1070 H   0  0  0  0  0  0  0  0  0  0  0  0
  -26.3290  -31.7450   25.3280 C   0  0  1  0  0  0  0  0  0  0  0  0
  -25.1760  -31.5120   26.3300 C   0  0  0  0  0  1  0  0  0  0  0  0
  -26.9370  -30.3670   24.9810 C   0  0  0  0  0  1  0  0  0  0  0  0
  -27.4370  -32.5460   26.0530 C   0  0  0  0  0  1  0  0  0  0  0  0
  -27.4450  -20.7350   20.1650 C   0  0  0  0  0  2  0  0  0  0  0  0
  -24.5430  -22.2890   17.2890 C   0  0  0  0  0  3  0  0  0  0  0  0
  -25.1290  -21.0310   17.1010 C   0  0  0  0  0  3  0  0  0  0  0  0
  -24.8410  -23.0480   18.4350 C   0  0  0  0  0  0  0  0  0  0  0  0
  -26.0420  -20.5180   18.0400 C   0  0  0  0  0  0  0  0  0  0  0  0
  -25.7650  -22.5530   19.3960 C   0  0  0  0  0  0  0  0  0  0  0  0
  -26.3950  -21.2870   19.1860 C   0  0  0  0  0  0  0  0  0  0  0  0
  -24.1400  -24.3900   18.5930 C   0  0  0  0  0  1  0  0  0  0  0  0
  -26.6010  -19.1240   17.7860 C   0  0  0  0  0  1  0  0  0  0  0  0
  -25.0120  -23.1120   21.7600 C   0  0  0  0  0  1  0  0  0  0  0  0
  -26.0430  -23.3800   20.6550 C   0  0  0  0  0  2  0  0  0  0  0  0
  -29.7240  -19.3950   19.7180 C   0  0  0  0  0  2  0  0  0  0  0  0
  -29.6260  -18.0750   20.7790 C   0  0  0  0  0  2  0  0  0  0  0  0
  -30.3840  -15.3950   20.3820 C   0  0  0  0  0  0  0  0  0  0  0  0
  -30.4190  -13.0190   19.4810 C   0  0  0  0  0  2  0  0  0  0  0  0
  -29.5210  -12.8920   18.2280 C   0  0  0  0  0  2  0  0  0  0  0  0
  -28.0540  -12.6310   18.6260 C   0  0  0  0  0  2  0  0  0  0  0  0
  -27.5720  -13.5650   19.7670 C   0  0  0  0  0  3  0  0  0  0  0  0
  -28.5940  -13.6440   20.9190 C   0  0  0  0  0  2  0  0  0  0  0  0
  -29.8560  -14.1070   20.3260 N   0  0  0  0  0  0  0  0  0  0  0  0
  -31.6000  -15.5180   20.2090 O   0  0  0  0  0  0  0  0  0  0  0  0
  -29.5140  -16.5250   20.4270 N   0  0  0  0  0  0  0  0  0  0  0  0
  -28.5530  -16.2210   20.3990 H   0  0  0  0  0  0  0  0  0  0  0  0
  -25.1710  -14.0680   20.4950 C   0  0  0  0  0  0  0  0  0  0  0  0
  -24.1190  -13.2590   20.8230 C   0  0  0  0  0  0  0  0  0  0  0  0
  -24.6130  -11.9200   20.7500 C   0  0  0  0  0  0  0  0  0  0  0  0
  -26.2350  -13.2210   20.2380 N   0  0  0  0  0  0  0  0  0  0  0  0
  -25.9080  -11.9210   20.4580 N   0  0  0  0  0  0  0  0  0  0  0  0
  -23.9100  -10.6360   20.8830 C   0  0  0  0  0  0  0  0  0  0  0  0
  -24.3910   -9.6130   21.7280 C   0  0  0  0  0  3  0  0  0  0  0  0
  -23.6870   -8.3970   21.8540 C   0  0  0  0  0  3  0  0  0  0  0  0
  -22.4860   -8.1950   21.1340 C   0  0  0  0  0  0  0  0  0  0  0  0
  -22.0220   -9.2080   20.2740 C   0  0  0  0  0  3  0  0  0  0  0  0
  -22.7290  -10.4160   20.1460 C   0  0  0  0  0  3  0  0  0  0  0  0
  -21.7470   -7.0370   21.1740 O   0  0  0  0  0  0  0  0  0  0  0  0
  -21.8090   -6.1800   22.2440 C   0  0  0  0  0  0  0  0  0  0  0  0
  -21.5060   -6.6050   23.5560 C   0  0  0  0  0  3  0  0  0  0  0  0
  -21.5140   -5.6750   24.6150 C   0  0  0  0  0  3  0  0  0  0  0  0
  -21.8150   -4.3230   24.3650 C   0  0  0  0  0  0  0  0  0  0  0  0
  -22.1130   -3.8980   23.0580 C   0  0  0  0  0  3  0  0  0  0  0  0
  -22.1060   -4.8240   22.0000 C   0  0  0  0  0  0  0  0  0  0  0  0
  -22.3730   -4.4060   20.7390 F   0  0  0  0  0  0  0  0  0  0  0  0
  -21.8150   -3.4290   25.3810 F   0  0  0  0  0  0  0  0  0  0  0  0
  -22.7080  -13.6970   21.0840 C   0  0  0  0  0  0  0  0  0  0  0  0
  -21.9890  -12.9770   21.9380 N   0  0  0  0  0  0  0  0  0  0  0  0
  -22.2480  -14.7140   20.5670 O   0  0  0  0  0  0  0  0  0  0  0  0
  -22.3720  -12.1560   22.3820 H   0  0  0  0  0  0  0  0  0  0  0  0
  -21.0420  -13.2520   22.1530 H   0  0  0  0  0  0  0  0  0  0  0  0
  -25.3040  -15.4480   20.3680 N   0  0  0  0  0  0  0  0  0  0  0  0
  -24.5090  -16.0670   20.4770 H   0  0  0  0  0  0  0  0  0  0  0  0
  -26.1250  -15.9160   20.0090 H   0  0  0  0  0  0  0  0  0  0  0  0
  1 59  1  0
  1  2  1  0
  1 48  1  0
  2  3  1  0
  4  2  1  0
  5  2  1  0
  5  6  1  0
  7  9  1  0
  7  6  1  0
  8 19  2  0
  9 14  1  0
 10 18  1  0
 10 20  1  0
 11 17  1  0
 11 13  1  0
 12 18  1  0
 13 12  1  0
 14 13  2  0
 15 16  1  0
 15  9  2  0
 16 11  2  0
 17 10  1  0
 18  8  1  0
 20 22  2  0
 21 20  1  0
 23 21  1  0
 24 33  2  0
 24 29  1  0
 25 21  1  0
 25 29  1  0
 26 25  1  0
 27 28  1  0
 27 26  1  0
 28 24  1  0
 29 30  2  0
 30 31  1  0
 32 31  2  0
 33 32  1  0
 34  8  1  0
 34 35  1  0
 34 44  1  0
 35 38  1  0
 36 40  1  0
 36 35  1  0
 37 36  2  0
 40 39  1  0
 42 40  1  0
 42 43  1  0
 42 41  1  0
 44 47  1  1
 44 45  1  0
 46 44  1  0
 49 51  1  0
 50 49  2  0
 50 52  1  0
 51 55  1  0
 51 53  2  0
 52 54  2  0
 53 58  1  0
 54 53  1  0
 54 48  1  0
 56 52  1  0
 58 57  1  0
 59 60  1  0
 61 69  1  0
 62 67  1  0
 63 64  1  0
 63 62  1  0
 65 64  1  0
 65 74  1  0
 65 66  1  0
 67 61  1  0
 67 66  1  0
 68 61  2  0
 69 60  1  0
 70 69  1  0
 71 72  2  0
 72 91  1  0
 73 72  1  0
 73 76  1  0
 74 75  1  0
 74 71  1  0
 75 73  2  0
 76 77  1  0
 77 78  2  0
 79 82  1  0
 79 78  1  0
 80 79  2  0
 81 80  1  0
 81 76  2  0
 82 83  1  0
 83 84  1  0
 84 85  2  0
 86 85  1  0
 86 90  1  0
 87 86  2  0
 88 83  2  0
 88 87  1  0
 89 88  1  0
 91 92  1  0
 92 95  1  0
 92 94  1  0
 93 91  2  0
 96 97  1  0
 96 71  1  0
 98 96  1  0
M  ISO  4   6 101   7 101  61 100  69 100
M  END
>  <TORSDO>  (24) 
F 24

>  <SCORE>  (24) 
-12.038

>  <name>  (24) 
23

>  <ligand_id>  (24) 
23

>  <original_smiles>  (24) 
[H]c1c([H])c([H])c2c(c1[H])C([H])([H])C([H])([H])C([H])([H])C2([H])N([H])C(=O)C1([H])N(C(=O)C([H])(N([H])C(=O)C([H])(N([H])C([H])([H])[H])C([H])([H])[H])C(C([H])([H])[H])(C([H])([H])[H])C([H])([H])[H])C([H])([H])c2c([H])c(OC([H])([H])C([H])([H])[N+]([H])([H])C([H])(C([H])([H])c3c(C([H])([H])[H])c([H])c([H])c(C([H])([H])[H])c3C([H])([H])C([H])([H])[H])C([H])([H])C([H])([H])N([H])C(=O)N3C([H])([H])C([H])([H])C([H])([H])C([H])(n4nc(-c5c([H])c([H])c(Oc6c([H])c([H])c(F)c([H])c6F)c([H])c5[H])c(C(=O)N([H])[H])c4N([H])[H])C3([H])[H])c([H])c([H])c2C1([H])[H]

>  <smiles>  (24) 
[H]c1c([H])c([H])c2c(c1[H])C([H])([H])C([H])([H])C([H])([H])C2([H])N([H])C(=O)C1([H])N(C(=O)C([H])(N([H])C(=O)C([H])(N([H])C([H])([H])[H])C([H])([H])[H])C(C([H])([H])[H])(C([H])([H])[H])C([H])([H])[H])C([H])([H])c2c([H])c(OC([H])([H])C([H])([H])[N+]([H])([H])C([H])(C([H])([H])c3c(C([H])([H])[H])c([H])c([H])c(C([H])([H])[H])c3C([H])([H])C([H])([H])[H])C([H])([H])C([H])([H])N([H])C(=O)N3C([H])([H])C([H])([H])C([H])([H])C([H])(n4nc(-c5c([H])c([H])c(Oc6c([H])c([H])c(F)c([H])c6F)c([H])c5[H])c(C(=O)N([H])[H])c4N([H])[H])C3([H])[H])c([H])c([H])c2C1([H])[H]

$$$$
24:0:0
     RDKit          3D

 95104  0  0  1  0  0  0  0  0999 V2000
  -30.2180  -17.0860   19.5020 C   0  0  0  0  0  3  0  0  0  0  0  0
  -30.2950  -17.9750   22.1230 C   0  0  0  0  0  3  0  0  0  0  0  0
  -30.5780  -16.1280   20.5020 C   0  0  0  0  0  0  0  0  0  0  0  0
  -29.9260  -18.4600   19.7820 C   0  0  0  0  0  0  0  0  0  0  0  0
  -29.9850  -18.9240   21.1140 C   0  0  0  0  0  0  0  0  0  0  0  0
  -30.6050  -16.6130   21.8430 C   0  0  0  0  0  0  0  0  0  0  0  0
  -29.7200  -20.9520   18.9910 C   0  0  0  0  0  2  0  0  0  0  0  0
  -29.5650  -19.4320   18.6470 C   0  0  0  0  0  3  0  0  0  0  0  0
  -29.8430  -20.4320   21.4690 C   0  0  0  0  0  3  0  0  0  0  0  0
  -29.1570  -21.3470   20.3770 C   0  0  0  0  0  3  0  0  0  0  0  0
  -31.0590  -15.7580   23.0190 C   0  0  0  0  0  1  0  0  0  0  0  0
  -28.1530  -19.1230   18.1220 C   0  0  0  0  0  1  0  0  0  0  0  0
  -31.2440  -20.9620   21.8550 C   0  0  0  0  0  1  0  0  0  0  0  0
  -31.1370  -14.7590   20.0550 C   0  0  0  0  0  0  0  0  0  0  0  0
  -30.7180  -12.5720   18.9700 C   0  0  0  0  0  2  0  0  0  0  0  0
  -29.7660  -12.7840   17.7730 C   0  0  0  0  0  2  0  0  0  0  0  0
  -28.3010  -12.6710   18.2340 C   0  0  0  0  0  2  0  0  0  0  0  0
  -28.0090  -13.5180   19.5000 C   0  0  0  0  0  3  0  0  0  0  0  0
  -29.0880  -13.3380   20.5850 C   0  0  0  0  0  2  0  0  0  0  0  0
  -30.4000  -13.6020   19.9850 N   0  0  0  0  0  0  0  0  0  0  0  0
  -32.2760  -14.7930   19.5870 O   0  0  0  0  0  0  0  0  0  0  0  0
  -25.6570  -14.1570   20.3050 C   0  0  0  0  0  0  0  0  0  0  0  0
  -24.5840  -13.4030   20.6960 C   0  0  0  0  0  0  0  0  0  0  0  0
  -25.0120  -12.0420   20.6370 C   0  0  0  0  0  0  0  0  0  0  0  0
  -26.6700  -13.2560   20.0260 N   0  0  0  0  0  0  0  0  0  0  0  0
  -26.2920  -11.9780   20.2890 N   0  0  0  0  0  0  0  0  0  0  0  0
  -24.2590  -10.7950   20.8350 C   0  0  0  0  0  0  0  0  0  0  0  0
  -24.6570   -9.8350   21.7930 C   0  0  0  0  0  3  0  0  0  0  0  0
  -23.9070   -8.6550   21.9780 C   0  0  0  0  0  3  0  0  0  0  0  0
  -22.7430   -8.4250   21.2050 C   0  0  0  0  0  0  0  0  0  0  0  0
  -22.3640   -9.3730   20.2390 C   0  0  0  0  0  3  0  0  0  0  0  0
  -23.1150  -10.5450   20.0520 C   0  0  0  0  0  3  0  0  0  0  0  0
  -21.9670   -7.2940   21.2970 O   0  0  0  0  0  0  0  0  0  0  0  0
  -21.8180   -6.6180   22.4810 C   0  0  0  0  0  0  0  0  0  0  0  0
  -21.3180   -7.2470   23.6410 C   0  0  0  0  0  3  0  0  0  0  0  0
  -21.1160   -6.4970   24.8170 C   0  0  0  0  0  3  0  0  0  0  0  0
  -21.4040   -5.1190   24.8330 C   0  0  0  0  0  0  0  0  0  0  0  0
  -21.8960   -4.4900   23.6750 C   0  0  0  0  0  3  0  0  0  0  0  0
  -22.1000   -5.2360   22.5020 C   0  0  0  0  0  0  0  0  0  0  0  0
  -22.5540   -4.6210   21.3850 F   0  0  0  0  0  0  0  0  0  0  0  0
  -21.2010   -4.3960   25.9590 F   0  0  0  0  0  0  0  0  0  0  0  0
  -23.2070  -13.9110   21.0140 C   0  0  0  0  0  0  0  0  0  0  0  0
  -22.4900  -13.2280   21.8990 N   0  0  0  0  0  0  0  0  0  0  0  0
  -22.7780  -14.9500   20.5130 O   0  0  0  0  0  0  0  0  0  0  0  0
  -22.8510  -12.3870   22.3240 H   0  0  0  0  0  0  0  0  0  0  0  0
  -21.5670  -13.5500   22.1540 H   0  0  0  0  0  0  0  0  0  0  0  0
  -25.8520  -15.5250   20.1430 N   0  0  0  0  0  0  0  0  0  0  0  0
  -25.1140  -16.2020   20.2980 H   0  0  0  0  0  0  0  0  0  0  0  0
  -26.7240  -15.9490   19.8500 H   0  0  0  0  0  0  0  0  0  0  0  0
  -29.2260  -22.8340   20.7160 N   0  0  0  0  0  4  0  0  0  0  0  0
  -30.1950  -23.0590   20.8820 H   0  0  0  0  0  0  0  0  0  0  0  0
  -28.7610  -22.9260   21.6070 H   0  0  0  0  0  0  0  0  0  0  0  0
  -28.6490  -23.9110   19.8090 C   0  0  0  0  0  2  0  0  0  0  0  0
  -28.4260  -25.3200   20.5210 C   0  0  0  0  0  2  0  0  0  0  0  0
  -28.4110  -26.5670   19.7330 O   0  0  0  0  0  0  0  0  0  0  0  0
  -24.5370  -31.6870   23.0080 C   0  0  0  0  0  0  0  0  0  0  0  0
  -27.2570  -27.3460   19.7830 C   0  0  0  0  0  0  0  0  0  0  0  0
  -23.3540  -30.3020   21.3380 C   0  0  0  0  0  3  0  0  0  0  0  0
  -24.8350  -28.8440   19.8480 C   0  0  0  0  0  0  0  0  0  0  0  0
  -25.8740  -30.7230   21.1250 C   0  0  0  0  0  2  0  0  0  0  0  0
  -25.9930  -29.3690   20.4400 C   0  0  0  0  0  0  0  0  0  0  0  0
  -27.2090  -28.6330   20.3940 C   0  0  0  0  0  3  0  0  0  0  0  0
  -26.0810  -26.8570   19.1790 C   0  0  0  0  0  3  0  0  0  0  0  0
  -24.8790  -27.5930   19.2100 C   0  0  0  0  0  3  0  0  0  0  0  0
  -23.5700  -29.6730   19.9350 C   0  0  0  0  0  2  0  0  0  0  0  0
  -24.6080  -30.9200   21.8810 N   0  0  0  0  0  0  0  0  0  0  0  0
  -23.4540  -31.9110   23.5670 O   0  0  0  0  0  0  0  0  0  0  0  0
  -22.7400  -29.2360   22.2740 C   0  0  0  0  0  0  0  0  0  0  0  0
  -21.4160  -29.0340   22.1710 N   0  0  0  0  0  0  0  0  0  0  0  0
  -23.4520  -28.5930   23.0500 O   0  0  0  0  0  0  0  0  0  0  0  0
  -20.9000  -29.6060   21.5180 H   0  0  0  0  0  0  0  0  0  0  0  0
  -18.0790  -27.7440   22.6970 C   0  0  0  0  0  0  0  0  0  0  0  0
  -20.6350  -28.0510   22.9230 C   0  0  0  0  0  3  0  0  0  0  0  0
  -20.7560  -26.6440   22.2910 C   0  0  0  0  0  2  0  0  0  0  0  0
  -19.6390  -26.3350   21.2890 C   0  0  0  0  0  2  0  0  0  0  0  0
  -18.2680  -26.4260   21.9660 C   0  0  0  0  0  2  0  0  0  0  0  0
  -19.1900  -28.5150   23.1310 C   0  0  0  0  0  0  0  0  0  0  0  0
  -18.9580  -29.7490   23.7760 C   0  0  0  0  0  3  0  0  0  0  0  0
  -17.6460  -30.2160   23.9880 C   0  0  0  0  0  3  0  0  0  0  0  0
  -16.5500  -29.4420   23.5690 C   0  0  0  0  0  3  0  0  0  0  0  0
  -16.7670  -28.2080   22.9300 C   0  0  0  0  0  3  0  0  0  0  0  0
  -25.8100  -32.3380   23.6340 C   0  0  0  0  0  3  0  0  0  0  0  0
  -26.3770  -31.5330   24.8670 C   0  0  1  0  0  0  0  0  0  0  0  0
  -25.3160  -31.2190   25.9470 C   0  0  0  0  0  1  0  0  0  0  0  0
  -26.9940  -30.1920   24.4080 C   0  0  0  0  0  1  0  0  0  0  0  0
  -27.5190  -32.3360   25.5360 C   0  0  0  0  0  1  0  0  0  0  0  0
  -25.4580  -33.7100   24.0280 N   0  0  0  0  0  0  0  0  0  0  0  0
  -25.7570  -34.8060   23.3180 C   0  0  0  0  0  0  0  0  0  0  0  0
  -26.4280  -34.7710   22.2840 O   0  0  0  0  0  0  0  0  0  0  0  0
  -24.8620  -33.8090   24.8360 H   0  0  0  0  0  0  0  0  0  0  0  0
  -23.9770  -36.5620   23.0440 C   0  0  0  0  0  1  0  0  0  0  0  0
  -25.2280  -36.1570   23.8390 C   0  0  0  0  0  3  0  0  0  0  0  0
  -27.3330  -37.0650   24.7190 C   0  0  0  0  0  1  0  0  0  0  0  0
  -26.2290  -37.2440   23.7790 N   0  0  0  0  0  0  0  0  0  0  0  0
  -25.7960  -38.1430   23.9680 H   0  0  0  0  0  0  0  0  0  0  0  0
  1  4  2  0
  1  3  1  0
  3  6  2  0
  4  5  1  0
  5  9  1  0
  5  2  2  0
  6  2  1  0
  6 11  1  0
  7 10  1  0
  8 12  1  0
  8  7  1  0
  8  4  1  0
  9 13  1  0
 10 50  1  0
 10  9  1  0
 14  3  1  0
 15 20  1  0
 16 17  1  0
 16 15  1  0
 18 17  1  0
 18 25  1  0
 18 19  1  0
 20 14  1  0
 20 19  1  0
 21 14  2  0
 22 23  2  0
 23 42  1  0
 24 23  1  0
 24 27  1  0
 25 26  1  0
 25 22  1  0
 26 24  2  0
 27 28  1  0
 28 29  2  0
 30 33  1  0
 30 29  1  0
 31 30  2  0
 32 31  1  0
 32 27  2  0
 33 34  1  0
 34 39  2  0
 34 35  1  0
 35 36  2  0
 36 37  1  0
 37 41  1  0
 38 37  2  0
 39 38  1  0
 40 39  1  0
 42 43  1  0
 43 46  1  0
 43 45  1  0
 44 42  2  0
 47 48  1  0
 47 22  1  0
 49 47  1  0
 50 51  1  0
 50 52  1  0
 53 54  1  0
 53 50  1  0
 55 57  1  0
 55 54  1  0
 56 67  2  0
 57 62  1  0
 58 66  1  0
 58 68  1  0
 59 65  1  0
 59 61  1  0
 60 66  1  0
 61 60  1  0
 62 61  2  0
 63 64  1  0
 63 57  2  0
 64 59  2  0
 65 58  1  0
 66 56  1  0
 68 70  2  0
 69 68  1  0
 71 69  1  0
 72 81  2  0
 72 77  1  0
 73 69  1  0
 73 77  1  0
 74 73  1  0
 75 76  1  0
 75 74  1  0
 76 72  1  0
 77 78  2  0
 78 79  1  0
 80 79  2  0
 81 80  1  0
 82 56  1  0
 82 87  1  0
 82 83  1  0
 83 86  1  1
 83 84  1  0
 85 83  1  0
 87 90  1  0
 88 92  1  0
 88 87  1  0
 89 88  2  0
 92 91  1  0
 94 92  1  0
 94 95  1  0
 94 93  1  0
M  ISO  4   3 100  14 100  54 101  55 101
M  END
>  <TORSDO>  (25) 
F 19

>  <SCORE>  (25) 
-12.343

>  <name>  (25) 
24

>  <ligand_id>  (25) 
24

>  <original_smiles>  (25) 
[H]c1c([H])c([H])c2c(c1[H])C([H])([H])C([H])([H])C([H])([H])C2([H])N([H])C(=O)C1([H])N(C(=O)C([H])(N([H])C(=O)C([H])(N([H])C([H])([H])[H])C([H])([H])[H])C(C([H])([H])[H])(C([H])([H])[H])C([H])([H])[H])C([H])([H])c2c([H])c(OC([H])([H])C([H])([H])[N+]([H])([H])C3([H])C([H])([H])C([H])(C([H])([H])[H])c4c([H])c(C(=O)N5C([H])([H])C([H])([H])C([H])([H])C([H])(n6nc(-c7c([H])c([H])c(Oc8c([H])c([H])c(F)c([H])c8F)c([H])c7[H])c(C(=O)N([H])[H])c6N([H])[H])C5([H])[H])c(C([H])([H])[H])c([H])c4C3([H])C([H])([H])[H])c([H])c([H])c2C1([H])[H]

>  <smiles>  (25) 
[H]c1c([H])c([H])c2c(c1[H])C([H])([H])C([H])([H])C([H])([H])C2([H])N([H])C(=O)C1([H])N(C(=O)C([H])(N([H])C(=O)C([H])(N([H])C([H])([H])[H])C([H])([H])[H])C(C([H])([H])[H])(C([H])([H])[H])C([H])([H])[H])C([H])([H])c2c([H])c(OC([H])([H])C([H])([H])[N+]([H])([H])C3([H])C([H])([H])C([H])(C([H])([H])[H])c4c([H])c(C(=O)N5C([H])([H])C([H])([H])C([H])([H])C([H])(n6nc(-c7c([H])c([H])c(Oc8c([H])c([H])c(F)c([H])c8F)c([H])c7[H])c(C(=O)N([H])[H])c6N([H])[H])C5([H])[H])c(C([H])([H])[H])c([H])c4C3([H])C([H])([H])[H])c([H])c([H])c2C1([H])[H]

$$$$
25:0:0
     RDKit          3D

 93 85  0  0  1  0  0  0  0  0999 V2000
  -18.1460  -30.4630   22.6340 C   0  0  0  0  0 15  0  0  0  0  0  0
  -19.8910  -29.9030   21.5090 C   0  0  0  0  0 15  0  0  0  0  0  0
  -18.1630  -27.1020   24.2230 C   0  0  0  0  0 15  0  0  0  0  0  0
  -19.9520  -26.4250   23.3210 C   0  0  0  0  0 15  0  0  0  0  0  0
  -17.2050  -29.0290   23.9330 C   0  0  0  0  0  1  0  0  0  0  0  0
  -20.9930  -28.0900   21.5480 C   0  0  0  0  0 15  0  0  0  0  0  0
  -15.9240  -29.3800   24.6520 C   0  0  0  0  0  1  0  0  0  0  0  0
  -20.6130  -24.5490   23.5820 C   0  0  0  0  0  2  0  0  0  0  0  0
  -19.8460  -23.8450   24.2470 O   0  0  0  0  0  0  0  0  0  0  0  0
  -22.2200  -23.5150   23.0590 C   0  0  0  0  0 15  0  0  0  0  0  0
  -23.0980  -21.7030   22.8090 C   0  0  0  0  0 15  0  0  0  0  0  0
  -24.7980  -20.7470   22.2360 C   0  0  0  0  0 15  0  0  0  0  0  0
  -25.7310  -18.9580   21.9980 C   0  0  0  0  0 15  0  0  0  0  0  0
  -27.4380  -18.0400   21.4000 C   0  0  0  0  0  1  0  0  0  0  0  0
  -29.5060  -15.4850   20.7630 C   0  0  0  0  0  0  0  0  0  0  0  0
  -30.3140  -13.1090   19.6920 C   0  0  0  0  0  2  0  0  0  0  0  0
  -29.5270  -12.6910   18.4030 C   0  0  0  0  0  2  0  0  0  0  0  0
  -28.0860  -12.2640   18.7420 C   0  0  0  0  0  2  0  0  0  0  0  0
  -27.5160  -13.1980   19.8300 C   0  0  0  0  0  3  0  0  0  0  0  0
  -28.4070  -13.2540   21.0640 C   0  0  0  0  0  2  0  0  0  0  0  0
  -29.4840  -14.0540   20.5870 N   0  0  0  0  0  0  0  0  0  0  0  0
  -30.6920  -15.8070   20.4480 O   0  0  0  0  0  0  0  0  0  0  0  0
  -28.2360  -16.3930   21.1630 N   0  0  0  0  0  0  0  0  0  0  0  0
  -27.5040  -15.7180   21.3450 H   0  0  0  0  0  0  0  0  0  0  0  0
  -25.1920  -13.8010   20.5520 C   0  0  0  0  0  0  0  0  0  0  0  0
  -24.1340  -13.0310   20.9260 C   0  0  0  0  0  0  0  0  0  0  0  0
  -24.5930  -11.6780   20.8760 C   0  0  0  0  0  0  0  0  0  0  0  0
  -26.1960  -12.9010   20.2650 N   0  0  0  0  0  0  0  0  0  0  0  0
  -25.8700  -11.6240   20.5440 N   0  0  0  0  0  0  0  0  0  0  0  0
  -23.8750  -10.4200   21.0490 C   0  0  0  0  0  0  0  0  0  0  0  0
  -24.3430   -9.4160   21.9230 C   0  0  0  0  0  3  0  0  0  0  0  0
  -23.6190   -8.2160   22.0760 C   0  0  0  0  0  3  0  0  0  0  0  0
  -22.4190   -8.0180   21.3540 C   0  0  0  0  0  0  0  0  0  0  0  0
  -21.9740   -9.0110   20.4650 C   0  0  0  0  0  3  0  0  0  0  0  0
  -22.6980  -10.2030   20.3080 C   0  0  0  0  0  3  0  0  0  0  0  0
  -21.6590   -6.8780   21.4230 O   0  0  0  0  0  0  0  0  0  0  0  0
  -21.6820   -6.0680   22.5290 C   0  0  0  0  0  0  0  0  0  0  0  0
  -21.3990   -6.5610   23.8210 C   0  0  0  0  0  3  0  0  0  0  0  0
  -21.3650   -5.6780   24.9180 C   0  0  0  0  0  3  0  0  0  0  0  0
  -21.6040   -4.3040   24.7240 C   0  0  0  0  0  0  0  0  0  0  0  0
  -21.8820   -3.8110   23.4370 C   0  0  0  0  0  3  0  0  0  0  0  0
  -21.9180   -4.6910   22.3420 C   0  0  0  0  0  0  0  0  0  0  0  0
  -22.1660   -4.2110   21.1000 F   0  0  0  0  0  0  0  0  0  0  0  0
  -21.5630   -3.4530   25.7760 F   0  0  0  0  0  0  0  0  0  0  0  0
  -22.7470  -13.5180   21.2010 C   0  0  0  0  0  0  0  0  0  0  0  0
  -22.0150  -12.8190   22.0580 N   0  0  0  0  0  0  0  0  0  0  0  0
  -22.3250  -14.5530   20.6870 O   0  0  0  0  0  0  0  0  0  0  0  0
  -22.3750  -11.9820   22.4910 H   0  0  0  0  0  0  0  0  0  0  0  0
  -21.0790  -13.1260   22.2860 H   0  0  0  0  0  0  0  0  0  0  0  0
  -25.3820  -15.1740   20.4030 N   0  0  0  0  0  0  0  0  0  0  0  0
  -24.5950  -15.8050   20.5030 H   0  0  0  0  0  0  0  0  0  0  0  0
  -26.1180  -15.5640   19.8280 H   0  0  0  0  0  0  0  0  0  0  0  0
  -22.8740  -27.8430   20.8430 O   0  0  0  0  0  1  0  0  0  0  0  0
  -24.7130  -31.9970   23.2120 C   0  0  0  0  0  0  0  0  0  0  0  0
  -24.5230  -27.4260   20.9210 C   0  0  0  0  0  3  0  0  0  0  0  0
  -23.5230  -30.6280   21.6290 C   0  0  0  0  0  3  0  0  0  0  0  0
  -24.8530  -29.4560   19.6300 C   0  0  0  0  0  3  0  0  0  0  0  0
  -26.0110  -30.7980   21.4060 C   0  0  0  0  0  2  0  0  0  0  0  0
  -25.8020  -29.4910   20.6450 C   0  0  0  0  0  3  0  0  0  0  0  0
  -25.7460  -28.2410   21.2880 C   0  0  0  0  0  2  0  0  0  0  0  0
  -25.0480  -27.0670   19.6490 C   0  0  0  0  0  2  0  0  0  0  0  0
  -24.6990  -28.2110   18.9180 C   0  0  0  0  0  2  0  0  0  0  0  0
  -23.6230  -30.2590   20.0670 C   0  0  0  0  0  2  0  0  0  0  0  0
  -24.7680  -31.2540   22.0740 N   0  0  0  0  0  0  0  0  0  0  0  0
  -23.6290  -32.2760   23.7570 O   0  0  0  0  0  0  0  0  0  0  0  0
  -23.3160  -29.5550   22.7590 C   0  0  0  0  0  0  0  0  0  0  0  0
  -22.2030  -29.3800   23.2940 N   0  0  0  0  0  0  0  0  0  0  0  0
  -24.1610  -28.9040   23.3370 O   0  0  0  0  0  0  0  0  0  0  0  0
  -21.4560  -30.0160   23.0400 H   0  0  0  0  0  0  0  0  0  0  0  0
  -18.7520  -27.7160   21.9830 C   0  0  0  0  0  2  0  0  0  0  0  0
  -21.6990  -28.0730   23.7760 C   0  0  0  0  0  3  0  0  0  0  0  0
  -22.2260  -26.5120   22.7580 C   0  0  0  0  0  1  0  0  0  0  0  0
  -21.0180  -25.7690   21.2530 C   0  0  0  0  0  1  0  0  0  0  0  0
  -19.2920  -26.3360   21.0260 C   0  0  0  0  0  2  0  0  0  0  0  0
  -20.0510  -28.6810   23.5000 C   0  0  0  0  0  2  0  0  0  0  0  0
  -20.0210  -29.9870   24.1880 C   0  0  0  0  0  1  0  0  0  0  0  0
  -19.4220  -28.9440   23.7740 C   0  0  0  0  0  2  0  0  0  0  0  0
  -18.3160  -28.3090   22.1030 C   0  0  0  0  0  2  0  0  0  0  0  0
  -17.3030  -27.5610   21.8460 C   0  0  0  0  0  1  0  0  0  0  0  0
  -26.0020  -32.5270   23.8610 C   0  0  0  0  0  3  0  0  0  0  0  0
  -25.6860  -33.8980   24.2650 N   0  0  0  0  0  0  0  0  0  0  0  0
  -25.9290  -34.9710   23.5110 C   0  0  0  0  0  0  0  0  0  0  0  0
  -26.5490  -34.9110   22.4460 O   0  0  0  0  0  0  0  0  0  0  0  0
  -25.1360  -34.0090   25.1050 H   0  0  0  0  0  0  0  0  0  0  0  0
  -24.1550  -36.7360   23.2570 C   0  0  0  0  0  1  0  0  0  0  0  0
  -25.4190  -36.3260   24.0310 C   0  0  0  0  0  3  0  0  0  0  0  0
  -27.5620  -37.1950   24.8470 C   0  0  0  0  0  1  0  0  0  0  0  0
  -26.4320  -37.3980   23.9440 N   0  0  0  0  0  0  0  0  0  0  0  0
  -26.0180  -38.3030   24.1530 H   0  0  0  0  0  0  0  0  0  0  0  0
  -26.4830  -31.6760   25.0970 C   0  0  1  0  0  0  0  0  0  0  0  0
  -25.3770  -31.3830   26.1390 C   0  0  0  0  0  1  0  0  0  0  0  0
  -27.0810  -30.3240   24.6520 C   0  0  0  0  0  1  0  0  0  0  0  0
  -27.6250  -32.4350   25.8070 C   0  0  0  0  0  1  0  0  0  0  0  0
  5  7  1  0
  8  9  2  0
 15 23  1  0
 16 21  1  0
 17 18  1  0
 17 16  1  0
 19 18  1  0
 19 28  1  0
 19 20  1  0
 21 15  1  0
 21 20  1  0
 22 15  2  0
 23 24  1  0
 23 14  1  0
 25 26  2  0
 26 45  1  0
 27 26  1  0
 27 30  1  0
 28 29  1  0
 28 25  1  0
 29 27  2  0
 30 31  1  0
 31 32  2  0
 33 36  1  0
 33 32  1  0
 34 33  2  0
 35 34  1  0
 35 30  2  0
 36 37  1  0
 37 38  1  0
 38 39  2  0
 40 39  1  0
 40 44  1  0
 41 40  2  0
 42 37  2  0
 42 41  1  0
 43 42  1  0
 45 46  1  0
 46 49  1  0
 46 48  1  0
 47 45  2  0
 50 51  1  0
 50 25  1  0
 52 50  1  0
 54 65  2  0
 55 53  1  0
 55 60  1  0
 56 64  1  0
 56 66  1  0
 57 62  1  0
 57 63  1  0
 57 59  1  0
 58 64  1  0
 59 60  1  0
 59 58  1  0
 61 55  1  0
 62 61  1  0
 63 56  1  0
 64 54  1  0
 66 67  1  0
 66 68  2  0
 67 71  1  0
 69 67  1  0
 70 78  1  0
 71 72  1  0
 74 73  1  0
 74 70  1  0
 75 77  1  0
 75 71  1  0
 77 76  1  0
 79 78  1  0
 80 54  1  0
 80 81  1  0
 80 90  1  0
 81 84  1  0
 82 86  1  0
 82 81  1  0
 83 82  2  0
 86 85  1  0
 88 86  1  0
 88 89  1  0
 88 87  1  0
 90 93  1  1
 90 91  1  0
 92 90  1  0
M  ISO  4   6 101  15 100  23 100  53 101
M  END
>  <TORSDO>  (26) 
F 22

>  <SCORE>  (26) 
39.488

>  <name>  (26) 
25

>  <ligand_id>  (26) 
25

>  <original_smiles>  (26) 
[H]c1c([H])c([H])c2c(c1[H])C([H])([H])C([H])([H])C([H])([H])C2([H])N([H])C(=O)C1([H])N(C(=O)C([H])(N([H])C(=O)C([H])(N([H])C([H])([H])[H])C([H])([H])[H])C(C([H])([H])[H])(C([H])([H])[H])C([H])([H])[H])C([H])([H])c2c([H])c(Oc3c([H])c([H])c(C([H])([H])[H])c([H])c3C(=O)C([H])([H])C([H])([H])C([H])([H])C([H])([H])C([H])([H])N([H])C(=O)N3C([H])([H])C([H])([H])C([H])([H])C([H])(n4nc(-c5c([H])c([H])c(Oc6c([H])c([H])c(F)c([H])c6F)c([H])c5[H])c(C(=O)N([H])[H])c4N([H])[H])C3([H])[H])c([H])c([H])c2C1([H])[H]

>  <smiles>  (26) 
[H]c1c([H])c([H])c2c(c1[H])C([H])([H])C([H])([H])C([H])([H])C2([H])N([H])C(=O)C1([H])N(C(=O)C([H])(N([H])C(=O)C([H])(N([H])C([H])([H])[H])C([H])([H])[H])C(C([H])([H])[H])(C([H])([H])[H])C([H])([H])[H])C([H])([H])c2c([H])c(Oc3c([H])c([H])c(C([H])([H])[H])c([H])c3C(=O)C([H])([H])C([H])([H])C([H])([H])C([H])([H])C([H])([H])N([H])C(=O)N3C([H])([H])C([H])([H])C([H])([H])C([H])(n4nc(-c5c([H])c([H])c(Oc6c([H])c([H])c(F)c([H])c6F)c([H])c5[H])c(C(=O)N([H])[H])c4N([H])[H])C3([H])[H])c([H])c([H])c2C1([H])[H]

$$$$
26:0:0
     RDKit          3D

 95103  0  0  1  0  0  0  0  0999 V2000
  -28.1150  -23.7040   20.8610 C   0  0  0  0  0  3  0  0  0  0  0  0
  -30.7600  -24.2720   20.4640 C   0  0  0  0  0  3  0  0  0  0  0  0
  -28.9470  -22.6630   20.3870 C   0  0  0  0  0  0  0  0  0  0  0  0
  -28.5590  -25.0100   21.1740 C   0  0  0  0  0  0  0  0  0  0  0  0
  -30.3560  -22.8480   20.2710 C   0  0  0  0  0  0  0  0  0  0  0  0
  -29.8850  -25.4160   20.8480 C   0  0  0  0  0  0  0  0  0  0  0  0
  -26.5440  -25.2770   22.8010 C   0  0  0  0  0  1  0  0  0  0  0  0
  -27.5850  -25.9540   21.8900 C   0  0  0  0  0  2  0  0  0  0  0  0
  -28.2250  -21.4510   19.9220 C   0  0  0  0  0  0  0  0  0  0  0  0
  -27.3770  -21.4920   19.0260 O   0  0  0  0  0  0  0  0  0  0  0  0
  -28.5150  -20.1420   20.6750 C   0  0  0  0  0  2  0  0  0  0  0  0
  -28.7740  -17.6180   20.6630 C   0  0  0  0  0  1  0  0  0  0  0  0
  -28.9130  -18.8790   18.4740 C   0  0  0  0  0  1  0  0  0  0  0  0
  -28.2740  -18.8360   19.8750 C   0  0  0  0  0  3  0  0  0  0  0  0
  -30.2590  -26.8270   21.0160 O   0  0  0  0  0  0  0  0  0  0  0  0
  -26.4990  -31.4070   25.3670 C   0  0  0  0  0  0  0  0  0  0  0  0
  -29.3150  -27.9010   21.1760 C   0  0  0  0  0  0  0  0  0  0  0  0
  -25.5520  -30.9030   23.1470 C   0  0  0  0  0  3  0  0  0  0  0  0
  -27.1460  -29.8030   21.4560 C   0  0  0  0  0  0  0  0  0  0  0  0
  -28.0970  -30.8780   23.4940 C   0  0  0  0  0  2  0  0  0  0  0  0
  -28.2080  -29.8370   22.3710 C   0  0  0  0  0  0  0  0  0  0  0  0
  -29.2980  -28.9040   22.2220 C   0  0  0  0  0  3  0  0  0  0  0  0
  -28.2480  -27.9750   20.2560 C   0  0  0  0  0  3  0  0  0  0  0  0
  -27.1790  -28.8870   20.3940 C   0  0  0  0  0  3  0  0  0  0  0  0
  -25.9890  -30.7660   21.6630 C   0  0  0  0  0  2  0  0  0  0  0  0
  -26.7260  -31.0590   24.0640 N   0  0  0  0  0  0  0  0  0  0  0  0
  -25.3540  -31.6170   25.7920 O   0  0  0  0  0  0  0  0  0  0  0  0
  -24.6370  -29.7110   23.5210 C   0  0  0  0  0  0  0  0  0  0  0  0
  -23.3600  -29.7660   23.1040 N   0  0  0  0  0  0  0  0  0  0  0  0
  -25.0870  -28.7510   24.1510 O   0  0  0  0  0  0  0  0  0  0  0  0
  -23.0630  -30.5860   22.5930 H   0  0  0  0  0  0  0  0  0  0  0  0
  -19.8770  -28.9270   22.5610 C   0  0  0  0  0  0  0  0  0  0  0  0
  -22.3460  -28.7280   23.3060 C   0  0  0  0  0  3  0  0  0  0  0  0
  -22.4690  -27.6170   22.2380 C   0  0  0  0  0  2  0  0  0  0  0  0
  -21.5710  -27.8510   21.0190 C   0  0  0  0  0  2  0  0  0  0  0  0
  -20.1020  -27.9220   21.4430 C   0  0  0  0  0  2  0  0  0  0  0  0
  -20.9350  -29.3170   23.4260 C   0  0  0  0  0  0  0  0  0  0  0  0
  -20.6810  -30.2770   24.4300 C   0  0  0  0  0  3  0  0  0  0  0  0
  -19.4010  -30.8450   24.5740 C   0  0  0  0  0  3  0  0  0  0  0  0
  -18.3550  -30.4470   23.7250 C   0  0  0  0  0  3  0  0  0  0  0  0
  -18.5920  -29.4850   22.7260 C   0  0  0  0  0  3  0  0  0  0  0  0
  -27.6720  -31.5810   26.3820 C   0  0  0  0  0  3  0  0  0  0  0  0
  -27.4990  -32.8830   27.0440 N   0  0  0  0  0  0  0  0  0  0  0  0
  -28.1540  -34.0030   26.7130 C   0  0  0  0  0  0  0  0  0  0  0  0
  -29.0280  -34.0320   25.8410 O   0  0  0  0  0  0  0  0  0  0  0  0
  -26.7550  -32.9470   27.7250 H   0  0  0  0  0  0  0  0  0  0  0  0
  -26.8090  -36.1270   26.6130 C   0  0  0  0  0  1  0  0  0  0  0  0
  -27.7830  -35.2970   27.4640 C   0  0  0  0  0  3  0  0  0  0  0  0
  -29.7990  -35.5070   28.8500 C   0  0  0  0  0  1  0  0  0  0  0  0
  -28.9550  -36.1220   27.8290 N   0  0  0  0  0  0  0  0  0  0  0  0
  -28.6620  -37.0330   28.1710 H   0  0  0  0  0  0  0  0  0  0  0  0
  -27.7430  -30.4220   27.4520 C   0  0  1  0  0  0  0  0  0  0  0  0
  -26.3910  -30.1270   28.1410 C   0  0  0  0  0  1  0  0  0  0  0  0
  -28.2370  -29.1050   26.8080 C   0  0  0  0  0  1  0  0  0  0  0  0
  -28.7700  -30.7880   28.5500 C   0  0  0  0  0  1  0  0  0  0  0  0
  -31.3720  -21.5700   19.9580 C   0  0  0  0  0  3  0  0  0  0  0  0
  -31.1580  -19.9370   20.3440 C   0  0  0  0  0  3  0  0  0  0  0  0
  -32.1570  -18.6390   19.9600 C   0  0  0  0  0  3  0  0  0  0  0  0
  -31.9760  -17.0830   20.5730 C   0  0  0  0  0  3  0  0  0  0  0  0
  -32.7720  -15.7150   20.0840 C   0  0  0  0  0  0  0  0  0  0  0  0
  -32.5940  -13.3820   19.1080 C   0  0  0  0  0  2  0  0  0  0  0  0
  -31.5400  -13.3760   17.9750 C   0  0  0  0  0  2  0  0  0  0  0  0
  -30.1220  -13.1650   18.5420 C   0  0  0  0  0  2  0  0  0  0  0  0
  -29.8390  -14.0670   19.7720 C   0  0  0  0  0  3  0  0  0  0  0  0
  -30.9970  -14.0270   20.7900 C   0  0  0  0  0  2  0  0  0  0  0  0
  -32.2170  -14.4390   20.0860 N   0  0  0  0  0  0  0  0  0  0  0  0
  -33.9070  -15.8280   19.6070 O   0  0  0  0  0  0  0  0  0  0  0  0
  -27.6480  -14.6400   20.9680 C   0  0  0  0  0  0  0  0  0  0  0  0
  -26.5690  -13.8790   21.3270 C   0  0  0  0  0  0  0  0  0  0  0  0
  -26.8860  -12.5390   20.9450 C   0  0  0  0  0  0  0  0  0  0  0  0
  -28.5550  -13.7650   20.3930 N   0  0  0  0  0  0  0  0  0  0  0  0
  -28.1130  -12.4810   20.4410 N   0  0  0  0  0  0  0  0  0  0  0  0
  -26.0680  -11.3190   20.9770 C   0  0  0  0  0  0  0  0  0  0  0  0
  -26.3060  -10.2940   21.9190 C   0  0  0  0  0  3  0  0  0  0  0  0
  -25.4960   -9.1390   21.9400 C   0  0  0  0  0  3  0  0  0  0  0  0
  -24.4300   -9.0030   21.0180 C   0  0  0  0  0  0  0  0  0  0  0  0
  -24.2120  -10.0160   20.0680 C   0  0  0  0  0  3  0  0  0  0  0  0
  -25.0230  -11.1620   20.0440 C   0  0  0  0  0  3  0  0  0  0  0  0
  -23.6050   -7.9050   20.9500 O   0  0  0  0  0  0  0  0  0  0  0  0
  -22.9970   -7.3930   22.0680 C   0  0  0  0  0  0  0  0  0  0  0  0
  -22.1900   -8.1890   22.9090 C   0  0  0  0  0  3  0  0  0  0  0  0
  -21.5260   -7.6040   24.0060 C   0  0  0  0  0  3  0  0  0  0  0  0
  -21.6610   -6.2270   24.2600 C   0  0  0  0  0  0  0  0  0  0  0  0
  -22.4580   -5.4310   23.4190 C   0  0  0  0  0  3  0  0  0  0  0  0
  -23.1220   -6.0120   22.3250 C   0  0  0  0  0  0  0  0  0  0  0  0
  -23.8740   -5.2370   21.5050 F   0  0  0  0  0  0  0  0  0  0  0  0
  -21.0170   -5.6620   25.3090 F   0  0  0  0  0  0  0  0  0  0  0  0
  -25.2760  -14.3810   21.8980 C   0  0  0  0  0  0  0  0  0  0  0  0
  -24.6440  -13.6000   22.7680 N   0  0  0  0  0  0  0  0  0  0  0  0
  -24.8390  -15.4950   21.6100 O   0  0  0  0  0  0  0  0  0  0  0  0
  -25.0130  -12.6970   23.0250 H   0  0  0  0  0  0  0  0  0  0  0  0
  -23.7780  -13.9120   23.1840 H   0  0  0  0  0  0  0  0  0  0  0  0
  -27.9290  -16.0000   21.0560 N   0  0  0  0  0  0  0  0  0  0  0  0
  -27.2610  -16.6710   21.4200 H   0  0  0  0  0  0  0  0  0  0  0  0
  -28.7730  -16.4340   20.7050 H   0  0  0  0  0  0  0  0  0  0  0  0
  1  4  1  0
  2  6  1  0
  3  1  2  0
  4  8  1  0
  5  3  1  0
  5  2  2  0
  6 15  1  0
  6  4  2  0
  8  7  1  0
  9  3  1  0
  9 11  1  0
 10  9  2  0
 13 14  1  0
 14 12  1  0
 14 11  1  0
 15 17  1  0
 16 27  2  0
 17 22  1  0
 18 28  1  0
 18 26  1  0
 19 25  1  0
 19 21  1  0
 20 26  1  0
 21 20  1  0
 22 21  2  0
 23 24  1  0
 23 17  2  0
 24 19  2  0
 25 18  1  0
 26 16  1  0
 28 30  2  0
 29 28  1  0
 31 29  1  0
 32 41  2  0
 32 37  1  0
 33 29  1  0
 33 37  1  0
 34 33  1  0
 35 36  1  0
 35 34  1  0
 36 32  1  0
 37 38  2  0
 38 39  1  0
 40 39  2  0
 41 40  1  0
 42 16  1  0
 42 43  1  0
 42 52  1  0
 43 46  1  0
 44 43  1  0
 44 48  1  0
 45 44  2  0
 48 47  1  0
 48 50  1  0
 50 51  1  0
 50 49  1  0
 52 53  1  1
 52 55  1  0
 54 52  1  0
 56  5  1  0
 56 57  2  0
 58 57  1  0
 58 59  2  0
 60 66  1  0
 60 59  1  0
 61 66  1  0
 62 63  1  0
 62 61  1  0
 64 63  1  0
 64 71  1  0
 64 65  1  0
 66 65  1  0
 67 60  2  0
 68 93  1  0
 68 69  2  0
 69 88  1  0
 70 73  1  0
 70 69  1  0
 71 72  1  0
 71 68  1  0
 72 70  2  0
 73 74  1  0
 74 75  2  0
 76 75  1  0
 77 76  2  0
 78 77  1  0
 78 73  2  0
 79 76  1  0
 79 80  1  0
 80 85  2  0
 80 81  1  0
 81 82  2  0
 82 83  1  0
 83 87  1  0
 84 83  2  0
 85 84  1  0
 86 85  1  0
 88 89  1  0
 89 91  1  0
 89 92  1  0
 90 88  2  0
 93 94  1  0
 95 93  1  0
M  ISO  4   6 101  15 101  59 100  60 100
M  END
>  <TORSDO>  (27) 
F 24

>  <SCORE>  (27) 
-2.623

>  <name>  (27) 
26

>  <ligand_id>  (27) 
26

>  <original_smiles>  (27) 
[H]c1c([H])c([H])c2c(c1[H])C([H])([H])C([H])([H])C([H])([H])C2([H])N([H])C(=O)C1([H])N(C(=O)C([H])(N([H])C(=O)C([H])(N([H])C([H])([H])[H])C([H])([H])[H])C(C([H])([H])[H])(C([H])([H])[H])C([H])([H])[H])C([H])([H])c2c([H])c(Oc3c([H])c(C([H])([H])C([H])([H])C([H])([H])C([H])([H])C(=O)N4C([H])([H])C([H])([H])C([H])([H])C([H])(n5nc(-c6c([H])c([H])c(Oc7c([H])c([H])c(F)c([H])c7F)c([H])c6[H])c(C(=O)N([H])[H])c5N([H])[H])C4([H])[H])c(C(=O)C([H])([H])C([H])(C([H])([H])[H])C([H])([H])[H])c([H])c3C([H])([H])C([H])([H])[H])c([H])c([H])c2C1([H])[H]

>  <smiles>  (27) 
[H]c1c([H])c([H])c2c(c1[H])C([H])([H])C([H])([H])C([H])([H])C2([H])N([H])C(=O)C1([H])N(C(=O)C([H])(N([H])C(=O)C([H])(N([H])C([H])([H])[H])C([H])([H])[H])C(C([H])([H])[H])(C([H])([H])[H])C([H])([H])[H])C([H])([H])c2c([H])c(Oc3c([H])c(C([H])([H])C([H])([H])C([H])([H])C([H])([H])C(=O)N4C([H])([H])C([H])([H])C([H])([H])C([H])(n5nc(-c6c([H])c([H])c(Oc7c([H])c([H])c(F)c([H])c7F)c([H])c6[H])c(C(=O)N([H])[H])c5N([H])[H])C4([H])[H])c(C(=O)C([H])([H])C([H])(C([H])([H])[H])C([H])([H])[H])c([H])c3C([H])([H])C([H])([H])[H])c([H])c([H])c2C1([H])[H]

$$$$
27:0:0
     RDKit          3D

 98106  0  0  1  0  0  0  0  0999 V2000
  -29.5820  -24.6880   17.0300 C   0  0  0  0  0  3  0  0  0  0  0  0
  -30.2840  -23.5290   17.3570 C   0  0  0  0  0  0  0  0  0  0  0  0
  -29.0020  -25.4870   18.0270 C   0  0  0  0  0  0  0  0  0  0  0  0
  -30.2560  -23.0720   18.6890 C   0  0  0  0  0  0  0  0  0  0  0  0
  -29.2900  -23.5780   19.6230 C   0  0  0  0  0  0  0  0  0  0  0  0
  -28.7950  -25.0210   19.3700 C   0  0  0  0  0  0  0  0  0  0  0  0
  -28.7280  -26.9210   17.5760 C   0  0  0  0  0  1  0  0  0  0  0  0
  -29.0930  -22.4460   20.7990 C   0  0  0  0  0  2  0  0  0  0  0  0
  -28.7870  -20.7320   20.6740 C   0  0  0  0  0  2  0  0  0  0  0  0
  -29.5050  -19.2740   20.0690 C   0  0  0  0  0  2  0  0  0  0  0  0
  -29.8770  -17.8030   20.8840 C   0  0  0  0  0  2  0  0  0  0  0  0
  -30.5140  -15.0700   20.3500 C   0  0  0  0  0  0  0  0  0  0  0  0
  -30.4300  -12.7010   19.3890 C   0  0  0  0  0  2  0  0  0  0  0  0
  -29.5090  -12.6220   18.1510 C   0  0  0  0  0  2  0  0  0  0  0  0
  -28.0380  -12.4080   18.5680 C   0  0  0  0  0  2  0  0  0  0  0  0
  -27.6160  -13.3400   19.7330 C   0  0  0  0  0  3  0  0  0  0  0  0
  -28.6590  -13.3660   20.8680 C   0  0  0  0  0  2  0  0  0  0  0  0
  -29.9240  -13.8030   20.2600 N   0  0  0  0  0  0  0  0  0  0  0  0
  -31.7370  -15.1190   20.1790 O   0  0  0  0  0  0  0  0  0  0  0  0
  -29.7140  -16.2680   20.4220 N   0  0  0  0  0  0  0  0  0  0  0  0
  -28.7400  -16.0270   20.3160 H   0  0  0  0  0  0  0  0  0  0  0  0
  -25.2350  -13.9360   20.4450 C   0  0  0  0  0  0  0  0  0  0  0  0
  -24.1610  -13.1700   20.8080 C   0  0  0  0  0  0  0  0  0  0  0  0
  -24.6170  -11.8160   20.7970 C   0  0  0  0  0  0  0  0  0  0  0  0
  -26.2740  -13.0490   20.2210 N   0  0  0  0  0  0  0  0  0  0  0  0
  -25.9130  -11.7700   20.5000 N   0  0  0  0  0  0  0  0  0  0  0  0
  -23.8800  -10.5610   20.9940 C   0  0  0  0  0  0  0  0  0  0  0  0
  -24.2930   -9.6040   21.9470 C   0  0  0  0  0  3  0  0  0  0  0  0
  -23.5600   -8.4130   22.1280 C   0  0  0  0  0  3  0  0  0  0  0  0
  -22.3960   -8.1720   21.3570 C   0  0  0  0  0  0  0  0  0  0  0  0
  -22.0010   -9.1170   20.3940 C   0  0  0  0  0  3  0  0  0  0  0  0
  -22.7370  -10.3010   20.2120 C   0  0  0  0  0  3  0  0  0  0  0  0
  -21.6340   -7.0340   21.4460 O   0  0  0  0  0  0  0  0  0  0  0  0
  -21.5650   -6.3040   22.6050 C   0  0  0  0  0  0  0  0  0  0  0  0
  -21.1340   -6.8750   23.8230 C   0  0  0  0  0  3  0  0  0  0  0  0
  -21.0150   -6.0700   24.9730 C   0  0  0  0  0  3  0  0  0  0  0  0
  -21.3160   -4.6950   24.9060 C   0  0  0  0  0  0  0  0  0  0  0  0
  -21.7390   -4.1260   23.6930 C   0  0  0  0  0  3  0  0  0  0  0  0
  -21.8620   -4.9280   22.5460 C   0  0  0  0  0  0  0  0  0  0  0  0
  -22.2530   -4.3710   21.3750 F   0  0  0  0  0  0  0  0  0  0  0  0
  -21.1900   -3.9200   26.0090 F   0  0  0  0  0  0  0  0  0  0  0  0
  -22.7640  -13.6620   21.0480 C   0  0  0  0  0  0  0  0  0  0  0  0
  -22.0160  -12.9870   21.9140 N   0  0  0  0  0  0  0  0  0  0  0  0
  -22.3430  -14.6840   20.5060 O   0  0  0  0  0  0  0  0  0  0  0  0
  -22.3680  -12.1680   22.3860 H   0  0  0  0  0  0  0  0  0  0  0  0
  -21.0780  -13.3030   22.1130 H   0  0  0  0  0  0  0  0  0  0  0  0
  -25.4050  -15.3040   20.2500 N   0  0  0  0  0  0  0  0  0  0  0  0
  -24.6260  -15.9470   20.3200 H   0  0  0  0  0  0  0  0  0  0  0  0
  -26.2310  -15.7290   19.8460 H   0  0  0  0  0  0  0  0  0  0  0  0
  -31.4390  -22.2030   19.1780 C   0  0  0  0  0  2  0  0  0  0  0  0
  -32.6680  -23.0870   19.4650 C   0  0  0  0  0  2  0  0  0  0  0  0
  -35.0990  -23.2270   20.2330 C   0  0  0  0  0  1  0  0  0  0  0  0
  -33.9210  -22.3020   19.8890 C   0  0  0  0  0  2  0  0  0  0  0  0
  -31.1590  -22.8860   16.2840 C   0  0  0  0  0  2  0  0  0  0  0  0
  -30.7400  -21.4480   15.9010 C   0  0  0  0  0  2  0  0  0  0  0  0
  -31.6290  -19.2030   15.0080 C   0  0  0  0  0  1  0  0  0  0  0  0
  -31.9150  -20.6860   15.2600 C   0  0  0  0  0  2  0  0  0  0  0  0
  -28.3830  -26.1290   20.2550 O   0  0  0  0  0  0  0  0  0  0  0  0
  -24.7090  -31.8060   23.2230 C   0  0  0  0  0  0  0  0  0  0  0  0
  -27.3240  -27.1250   20.1310 C   0  0  0  0  0  0  0  0  0  0  0  0
  -23.5090  -30.4060   21.5850 C   0  0  0  0  0  3  0  0  0  0  0  0
  -24.9630  -28.8540   20.1270 C   0  0  0  0  0  0  0  0  0  0  0  0
  -26.0580  -30.7030   21.3920 C   0  0  0  0  0  2  0  0  0  0  0  0
  -26.1440  -29.3120   20.7280 C   0  0  0  0  0  0  0  0  0  0  0  0
  -27.3160  -28.4620   20.7170 C   0  0  0  0  0  3  0  0  0  0  0  0
  -26.1090  -26.7680   19.5050 C   0  0  0  0  0  3  0  0  0  0  0  0
  -24.9610  -27.5970   19.5000 C   0  0  0  0  0  3  0  0  0  0  0  0
  -23.7260  -29.7410   20.1970 C   0  0  0  0  0  2  0  0  0  0  0  0
  -24.7800  -30.9950   22.1210 N   0  0  0  0  0  0  0  0  0  0  0  0
  -23.6280  -32.0680   23.7700 O   0  0  0  0  0  0  0  0  0  0  0  0
  -22.8530  -29.3870   22.5500 C   0  0  0  0  0  0  0  0  0  0  0  0
  -21.5360  -29.1590   22.4030 N   0  0  0  0  0  0  0  0  0  0  0  0
  -23.5340  -28.8020   23.3970 O   0  0  0  0  0  0  0  0  0  0  0  0
  -21.0430  -29.6860   21.6960 H   0  0  0  0  0  0  0  0  0  0  0  0
  -18.2200  -27.7440   22.7840 C   0  0  0  0  0  0  0  0  0  0  0  0
  -20.7380  -28.1980   23.1710 C   0  0  0  0  0  3  0  0  0  0  0  0
  -20.9680  -26.7560   22.6630 C   0  0  0  0  0  2  0  0  0  0  0  0
  -19.9460  -26.3160   21.6080 C   0  0  0  0  0  2  0  0  0  0  0  0
  -18.5260  -26.3860   22.1750 C   0  0  0  0  0  2  0  0  0  0  0  0
  -19.2590  -28.6010   23.2390 C   0  0  0  0  0  0  0  0  0  0  0  0
  -18.9190  -29.8630   23.7690 C   0  0  0  0  0  3  0  0  0  0  0  0
  -17.5750  -30.2730   23.8510 C   0  0  0  0  0  3  0  0  0  0  0  0
  -16.5510  -29.4160   23.4130 C   0  0  0  0  0  3  0  0  0  0  0  0
  -16.8750  -28.1540   22.8860 C   0  0  0  0  0  3  0  0  0  0  0  0
  -25.9860  -32.4540   23.8430 C   0  0  0  0  0  3  0  0  0  0  0  0
  -26.5180  -31.6810   25.1120 C   0  0  1  0  0  0  0  0  0  0  0  0
  -25.4380  -31.4260   26.1900 C   0  0  0  0  0  1  0  0  0  0  0  0
  -27.1080  -30.3100   24.7090 C   0  0  0  0  0  1  0  0  0  0  0  0
  -27.6690  -32.4790   25.7650 C   0  0  0  0  0  1  0  0  0  0  0  0
  -25.6570  -33.8450   24.1950 N   0  0  0  0  0  0  0  0  0  0  0  0
  -25.9450  -34.9150   23.4410 C   0  0  0  0  0  0  0  0  0  0  0  0
  -26.5770  -34.8340   22.3850 O   0  0  0  0  0  0  0  0  0  0  0  0
  -25.0880  -33.9750   25.0190 H   0  0  0  0  0  0  0  0  0  0  0  0
  -24.1610  -36.6720   23.1910 C   0  0  0  0  0  1  0  0  0  0  0  0
  -25.4530  -36.2910   23.9310 C   0  0  0  0  0  3  0  0  0  0  0  0
  -27.6110  -37.2220   24.6470 C   0  0  0  0  0  1  0  0  0  0  0  0
  -26.4530  -37.3690   23.7670 N   0  0  0  0  0  0  0  0  0  0  0  0
  -26.0370  -38.2790   23.9420 H   0  0  0  0  0  0  0  0  0  0  0  0
  1  2  2  0
  1  3  1  0
  2  4  1  0
  3  6  2  0
  4 50  1  0
  4  5  2  0
  5  8  1  0
  6  5  1  0
  6 58  1  0
  7  3  1  0
  9  8  1  0
 10  9  1  0
 10 11  1  0
 12 20  1  0
 13 18  1  0
 14 15  1  0
 14 13  1  0
 16 15  1  0
 16 25  1  0
 16 17  1  0
 18 12  1  0
 18 17  1  0
 19 12  2  0
 20 11  1  0
 21 20  1  0
 22 23  2  0
 23 42  1  0
 24 23  1  0
 24 27  1  0
 25 22  1  0
 25 26  1  0
 26 24  2  0
 27 28  1  0
 28 29  2  0
 30 33  1  0
 30 29  1  0
 31 30  2  0
 32 31  1  0
 32 27  2  0
 33 34  1  0
 34 35  1  0
 35 36  2  0
 37 36  1  0
 37 41  1  0
 38 37  2  0
 39 34  2  0
 39 38  1  0
 40 39  1  0
 42 43  1  0
 43 46  1  0
 43 45  1  0
 44 42  2  0
 47 48  1  0
 47 22  1  0
 49 47  1  0
 50 51  1  0
 51 53  1  0
 53 52  1  0
 54  2  1  0
 55 54  1  0
 56 57  1  0
 57 55  1  0
 59 70  2  0
 60 58  1  0
 60 65  1  0
 61 69  1  0
 61 71  1  0
 62 68  1  0
 62 64  1  0
 63 69  1  0
 64 63  1  0
 65 64  2  0
 66 60  2  0
 67 66  1  0
 67 62  2  0
 68 61  1  0
 69 59  1  0
 71 73  2  0
 72 71  1  0
 74 72  1  0
 75 84  2  0
 75 80  1  0
 76 72  1  0
 76 80  1  0
 77 76  1  0
 78 79  1  0
 78 77  1  0
 79 75  1  0
 80 81  2  0
 81 82  1  0
 83 82  2  0
 84 83  1  0
 85 59  1  0
 85 90  1  0
 85 86  1  0
 86 89  1  1
 86 87  1  0
 88 86  1  0
 90 93  1  0
 91 95  1  0
 91 90  1  0
 92 91  2  0
 95 94  1  0
 97 95  1  0
 97 98  1  0
 97 96  1  0
M  ISO  4   6 101  12 100  20 100  58 101
M  END
>  <TORSDO>  (28) 
F 26

>  <SCORE>  (28) 
-13.038

>  <name>  (28) 
27

>  <ligand_id>  (28) 
27

>  <original_smiles>  (28) 
[H]c1c([H])c([H])c2c(c1[H])C([H])([H])C([H])([H])C([H])([H])C2([H])N([H])C(=O)C1([H])N(C(=O)C([H])(N([H])C(=O)C([H])(N([H])C([H])([H])[H])C([H])([H])[H])C(C([H])([H])[H])(C([H])([H])[H])C([H])([H])[H])C([H])([H])c2c([H])c(Oc3c(C([H])([H])[H])c([H])c(C([H])([H])C([H])([H])C([H])([H])C([H])([H])[H])c(C([H])([H])C([H])([H])C([H])([H])C([H])([H])[H])c3C([H])([H])C([H])([H])C([H])([H])C([H])([H])N([H])C(=O)N3C([H])([H])C([H])([H])C([H])([H])C([H])(n4nc(-c5c([H])c([H])c(Oc6c([H])c([H])c(F)c([H])c6F)c([H])c5[H])c(C(=O)N([H])[H])c4N([H])[H])C3([H])[H])c([H])c([H])c2C1([H])[H]

>  <smiles>  (28) 
[H]c1c([H])c([H])c2c(c1[H])C([H])([H])C([H])([H])C([H])([H])C2([H])N([H])C(=O)C1([H])N(C(=O)C([H])(N([H])C(=O)C([H])(N([H])C([H])([H])[H])C([H])([H])[H])C(C([H])([H])[H])(C([H])([H])[H])C([H])([H])[H])C([H])([H])c2c([H])c(Oc3c(C([H])([H])[H])c([H])c(C([H])([H])C([H])([H])C([H])([H])C([H])([H])[H])c(C([H])([H])C([H])([H])C([H])([H])C([H])([H])[H])c3C([H])([H])C([H])([H])C([H])([H])C([H])([H])N([H])C(=O)N3C([H])([H])C([H])([H])C([H])([H])C([H])(n4nc(-c5c([H])c([H])c(Oc6c([H])c([H])c(F)c([H])c6F)c([H])c5[H])c(C(=O)N([H])[H])c4N([H])[H])C3([H])[H])c([H])c([H])c2C1([H])[H]

$$$$
28:0:0
     RDKit          3D

 92100  0  0  1  0  0  0  0  0999 V2000
  -26.7580  -24.7740   20.7990 C   0  0  0  0  0  2  0  0  0  0  0  0
  -28.0330  -25.3160   20.3920 C   0  0  0  0  0  3  0  0  0  0  0  0
  -26.5880  -23.4590   20.4840 C   0  0  0  0  0  3  0  0  0  0  0  0
  -28.9150  -24.2720   20.1470 C   0  0  0  0  0  0  0  0  0  0  0  0
  -25.3510  -22.6470   20.5270 C   0  0  0  0  0  1  0  0  0  0  0  0
  -28.0480  -22.7730   19.8970 S   0  0  0  0  0  0  0  0  0  0  0  0
  -28.3240  -26.6640   20.2600 O   0  0  0  0  0  0  0  0  0  0  0  0
  -24.5890  -31.9470   23.2590 C   0  0  0  0  0  0  0  0  0  0  0  0
  -27.2510  -27.5370   20.1260 C   0  0  0  0  0  0  0  0  0  0  0  0
  -23.3970  -30.5730   21.5790 C   0  0  0  0  0  3  0  0  0  0  0  0
  -24.8720  -29.0780   20.1260 C   0  0  0  0  0  0  0  0  0  0  0  0
  -25.9270  -30.9270   21.4220 C   0  0  0  0  0  2  0  0  0  0  0  0
  -26.0190  -29.5650   20.7640 C   0  0  0  0  0  0  0  0  0  0  0  0
  -27.2090  -28.7900   20.7860 C   0  0  0  0  0  3  0  0  0  0  0  0
  -26.1190  -27.1520   19.3670 C   0  0  0  0  0  3  0  0  0  0  0  0
  -24.9150  -27.8720   19.4150 C   0  0  0  0  0  3  0  0  0  0  0  0
  -23.6200  -29.9210   20.1880 C   0  0  0  0  0  2  0  0  0  0  0  0
  -24.6540  -31.1620   22.1460 N   0  0  0  0  0  0  0  0  0  0  0  0
  -23.5030  -32.2160   23.7900 O   0  0  0  0  0  0  0  0  0  0  0  0
  -22.7430  -29.5340   22.5160 C   0  0  0  0  0  0  0  0  0  0  0  0
  -21.4200  -29.3560   22.3740 N   0  0  0  0  0  0  0  0  0  0  0  0
  -23.4200  -28.8910   23.3220 O   0  0  0  0  0  0  0  0  0  0  0  0
  -20.9370  -29.9160   21.6850 H   0  0  0  0  0  0  0  0  0  0  0  0
  -18.0430  -28.1430   22.8210 C   0  0  0  0  0  0  0  0  0  0  0  0
  -20.5970  -28.4010   23.1200 C   0  0  0  0  0  3  0  0  0  0  0  0
  -20.7090  -26.9820   22.5180 C   0  0  0  0  0  2  0  0  0  0  0  0
  -19.6160  -26.6750   21.4870 C   0  0  0  0  0  2  0  0  0  0  0  0
  -18.2280  -26.8060   22.1200 C   0  0  0  0  0  2  0  0  0  0  0  0
  -19.1570  -28.8980   23.2740 C   0  0  0  0  0  0  0  0  0  0  0  0
  -18.9350  -30.1460   23.8920 C   0  0  0  0  0  3  0  0  0  0  0  0
  -17.6290  -30.6480   24.0530 C   0  0  0  0  0  3  0  0  0  0  0  0
  -16.5280  -29.8930   23.6160 C   0  0  0  0  0  3  0  0  0  0  0  0
  -16.7350  -28.6410   23.0090 C   0  0  0  0  0  3  0  0  0  0  0  0
  -25.8720  -32.5660   23.8960 C   0  0  0  0  0  3  0  0  0  0  0  0
  -25.5770  -33.9720   24.2130 N   0  0  0  0  0  0  0  0  0  0  0  0
  -25.9400  -35.0120   23.4510 C   0  0  0  0  0  0  0  0  0  0  0  0
  -26.6300  -34.8900   22.4350 O   0  0  0  0  0  0  0  0  0  0  0  0
  -24.9740  -34.1470   25.0030 H   0  0  0  0  0  0  0  0  0  0  0  0
  -24.2410  -36.8170   23.0350 C   0  0  0  0  0  1  0  0  0  0  0  0
  -25.4590  -36.4100   23.8810 C   0  0  0  0  0  3  0  0  0  0  0  0
  -27.5830  -37.2720   24.7590 C   0  0  0  0  0  1  0  0  0  0  0  0
  -26.5100  -37.4470   23.7840 N   0  0  0  0  0  0  0  0  0  0  0  0
  -26.1120  -38.3750   23.9150 H   0  0  0  0  0  0  0  0  0  0  0  0
  -26.3630  -31.7880   25.1800 C   0  0  1  0  0  0  0  0  0  0  0  0
  -25.2500  -31.5670   26.2290 C   0  0  0  0  0  1  0  0  0  0  0  0
  -26.9360  -30.4000   24.8030 C   0  0  0  0  0  1  0  0  0  0  0  0
  -27.5090  -32.5720   25.8600 C   0  0  0  0  0  1  0  0  0  0  0  0
  -30.4170  -24.2690   20.0350 C   0  0  0  0  0  3  0  0  0  0  0  0
  -31.1120  -22.8980   19.7920 C   0  0  0  0  0  2  0  0  0  0  0  0
  -30.9950  -21.8150   20.9070 C   0  0  0  0  0  2  0  0  0  0  0  0
  -30.7010  -20.3940   20.3480 C   0  0  0  0  0  2  0  0  0  0  0  0
  -30.1690  -19.3500   21.3680 C   0  0  0  0  0  2  0  0  0  0  0  0
  -30.0930  -17.8910   20.8310 C   0  0  0  0  0  2  0  0  0  0  0  0
  -30.7920  -16.7850   21.6600 C   0  0  0  0  0  2  0  0  0  0  0  0
  -30.9770  -14.5690   20.3730 C   0  0  0  0  0  0  0  0  0  0  0  0
  -30.6700  -12.4470   19.1200 C   0  0  0  0  0  2  0  0  0  0  0  0
  -29.7180  -12.6490   17.9180 C   0  0  0  0  0  2  0  0  0  0  0  0
  -28.2510  -12.4850   18.3620 C   0  0  0  0  0  2  0  0  0  0  0  0
  -27.9190  -13.3140   19.6330 C   0  0  0  0  0  3  0  0  0  0  0  0
  -28.9760  -13.0780   20.7360 C   0  0  0  0  0  2  0  0  0  0  0  0
  -30.2970  -13.4060   20.1710 N   0  0  0  0  0  0  0  0  0  0  0  0
  -32.0420  -14.8280   19.8010 O   0  0  0  0  0  0  0  0  0  0  0  0
  -30.3850  -15.4380   21.2210 N   0  0  0  0  0  0  0  0  0  0  0  0
  -29.5230  -15.1130   21.6310 H   0  0  0  0  0  0  0  0  0  0  0  0
  -25.5220  -13.9440   20.3280 C   0  0  0  0  0  0  0  0  0  0  0  0
  -24.4520  -13.1850   20.7000 C   0  0  0  0  0  0  0  0  0  0  0  0
  -24.9000  -11.8260   20.6900 C   0  0  0  0  0  0  0  0  0  0  0  0
  -26.5640  -13.0540   20.1120 N   0  0  0  0  0  0  0  0  0  0  0  0
  -26.1910  -11.7750   20.3810 N   0  0  0  0  0  0  0  0  0  0  0  0
  -24.1690  -10.5740   20.9030 C   0  0  0  0  0  0  0  0  0  0  0  0
  -24.5880   -9.6290   21.8640 C   0  0  0  0  0  3  0  0  0  0  0  0
  -23.8580   -8.4390   22.0650 C   0  0  0  0  0  3  0  0  0  0  0  0
  -22.6950   -8.1830   21.3000 C   0  0  0  0  0  0  0  0  0  0  0  0
  -22.2920   -9.1160   20.3300 C   0  0  0  0  0  3  0  0  0  0  0  0
  -23.0210  -10.2990   20.1290 C   0  0  0  0  0  3  0  0  0  0  0  0
  -21.9440   -7.0360   21.4010 O   0  0  0  0  0  0  0  0  0  0  0  0
  -21.8620   -6.3310   22.5750 C   0  0  0  0  0  0  0  0  0  0  0  0
  -21.4030   -6.9260   23.7690 C   0  0  0  0  0  3  0  0  0  0  0  0
  -21.2610   -6.1480   24.9340 C   0  0  0  0  0  3  0  0  0  0  0  0
  -21.5770   -4.7760   24.9080 C   0  0  0  0  0  0  0  0  0  0  0  0
  -22.0340   -4.1810   23.7190 C   0  0  0  0  0  3  0  0  0  0  0  0
  -22.1700   -4.9570   22.5550 C   0  0  0  0  0  0  0  0  0  0  0  0
  -22.5890   -4.3730   21.4050 F   0  0  0  0  0  0  0  0  0  0  0  0
  -21.4350   -4.0260   26.0260 F   0  0  0  0  0  0  0  0  0  0  0  0
  -23.0580  -13.6730   20.9730 C   0  0  0  0  0  0  0  0  0  0  0  0
  -22.3380  -13.0000   21.8600 N   0  0  0  0  0  0  0  0  0  0  0  0
  -22.6220  -14.6920   20.4340 O   0  0  0  0  0  0  0  0  0  0  0  0
  -22.7100  -12.1820   22.3210 H   0  0  0  0  0  0  0  0  0  0  0  0
  -21.4030  -13.3080   22.0870 H   0  0  0  0  0  0  0  0  0  0  0  0
  -25.6990  -15.3120   20.1420 N   0  0  0  0  0  0  0  0  0  0  0  0
  -24.9360  -15.9690   20.2540 H   0  0  0  0  0  0  0  0  0  0  0  0
  -26.5680  -15.7460   19.8540 H   0  0  0  0  0  0  0  0  0  0  0  0
  2  7  1  0
  2  1  1  0
  3  5  1  0
  3  1  1  0
  4  2  1  0
  6  4  1  0
  6  3  1  0
  8 19  2  0
  9  7  1  0
  9 14  1  0
 10 18  1  0
 10 20  1  0
 11 17  1  0
 11 13  1  0
 12 18  1  0
 13 14  2  0
 13 12  1  0
 15 16  1  0
 15  9  2  0
 16 11  2  0
 17 10  1  0
 18  8  1  0
 20 22  2  0
 21 20  1  0
 23 21  1  0
 24 33  2  0
 24 29  1  0
 25 21  1  0
 25 29  1  0
 26 25  1  0
 27 28  1  0
 27 26  1  0
 28 24  1  0
 29 30  2  0
 30 31  1  0
 32 31  2  0
 33 32  1  0
 34  8  1  0
 34 35  1  0
 34 44  1  0
 35 38  1  0
 36 40  1  0
 36 35  1  0
 37 36  2  0
 40 39  1  0
 42 40  1  0
 42 43  1  0
 42 41  1  0
 44 47  1  1
 44 45  1  0
 46 44  1  0
 48  4  2  0
 49 48  1  0
 49 50  1  0
 51 50  1  0
 51 52  1  0
 53 52  1  0
 53 54  1  0
 55 63  1  0
 56 61  1  0
 57 58  1  0
 57 56  1  0
 59 58  1  0
 59 68  1  0
 59 60  1  0
 61 55  1  0
 61 60  1  0
 62 55  2  0
 63 64  1  0
 63 54  1  0
 65 66  2  0
 66 85  1  0
 67 66  1  0
 67 70  1  0
 68 65  1  0
 68 69  1  0
 69 67  2  0
 70 71  1  0
 71 72  2  0
 73 76  1  0
 73 72  1  0
 74 73  2  0
 75 74  1  0
 75 70  2  0
 76 77  1  0
 77 78  1  0
 78 79  2  0
 80 79  1  0
 80 84  1  0
 81 80  2  0
 82 77  2  0
 82 81  1  0
 83 82  1  0
 85 86  1  0
 86 89  1  0
 86 88  1  0
 87 85  2  0
 90 91  1  0
 90 65  1  0
 92 90  1  0
M  ISO  4   2 101   7 101  55 100  63 100
M  END
>  <TORSDO>  (29) 
F 23

>  <SCORE>  (29) 
-12.328

>  <name>  (29) 
28

>  <ligand_id>  (29) 
28

>  <original_smiles>  (29) 
[H]c1c([H])c([H])c2c(c1[H])C([H])([H])C([H])([H])C([H])([H])C2([H])N([H])C(=O)C1([H])N(C(=O)C([H])(N([H])C(=O)C([H])(N([H])C([H])([H])[H])C([H])([H])[H])C(C([H])([H])[H])(C([H])([H])[H])C([H])([H])[H])C([H])([H])c2c([H])c(Oc3c(C([H])([H])C([H])([H])C([H])([H])C([H])([H])C([H])([H])C([H])([H])C([H])([H])N([H])C(=O)N4C([H])([H])C([H])([H])C([H])([H])C([H])(n5nc(-c6c([H])c([H])c(Oc7c([H])c([H])c(F)c([H])c7F)c([H])c6[H])c(C(=O)N([H])[H])c5N([H])[H])C4([H])[H])sc(C([H])([H])[H])c3[H])c([H])c([H])c2C1([H])[H]

>  <smiles>  (29) 
[H]c1c([H])c([H])c2c(c1[H])C([H])([H])C([H])([H])C([H])([H])C2([H])N([H])C(=O)C1([H])N(C(=O)C([H])(N([H])C(=O)C([H])(N([H])C([H])([H])[H])C([H])([H])[H])C(C([H])([H])[H])(C([H])([H])[H])C([H])([H])[H])C([H])([H])c2c([H])c(Oc3c(C([H])([H])C([H])([H])C([H])([H])C([H])([H])C([H])([H])C([H])([H])C([H])([H])N([H])C(=O)N4C([H])([H])C([H])([H])C([H])([H])C([H])(n5nc(-c6c([H])c([H])c(Oc7c([H])c([H])c(F)c([H])c7F)c([H])c6[H])c(C(=O)N([H])[H])c5N([H])[H])C4([H])[H])sc(C([H])([H])[H])c3[H])c([H])c([H])c2C1([H])[H]

$$$$
29:0:0
     RDKit          3D

 91100  0  0  1  0  0  0  0  0999 V2000
  -29.9970  -18.7190   21.9180 C   0  0  0  0  0  3  0  0  0  0  0  0
  -30.2860  -17.0990   19.9970 C   0  0  0  0  0  0  0  0  0  0  0  0
  -29.7340  -19.8980   21.1650 C   0  0  0  0  0  0  0  0  0  0  0  0
  -29.6460  -19.8150   19.7670 C   0  0  0  0  0  0  0  0  0  0  0  0
  -30.2560  -17.4070   21.3980 C   0  0  0  0  0  0  0  0  0  0  0  0
  -29.9670  -18.4010   19.2200 C   0  0  0  0  0  0  0  0  0  0  0  0
  -29.5300  -21.2520   21.9050 C   0  0  0  0  0  2  0  0  0  0  0  0
  -29.2390  -21.3210   19.0510 C   0  0  0  0  0  2  0  0  0  0  0  0
  -29.6500  -22.6320   21.1310 C   0  0  0  0  0  2  0  0  0  0  0  0
  -28.7570  -22.8120   19.8720 C   0  0  2  0  0  0  0  0  0  0  0  0
  -30.5720  -16.3480   22.4500 C   0  0  0  0  0  1  0  0  0  0  0  0
  -29.9720  -18.3030   17.7060 C   0  0  0  0  0  1  0  0  0  0  0  0
  -27.2900  -22.5680   20.2760 C   0  0  0  0  0  1  0  0  0  0  0  0
  -30.8620  -15.5760   19.5070 C   0  0  0  0  0  0  0  0  0  0  0  0
  -30.7520  -13.1050   18.6920 C   0  0  0  0  0  2  0  0  0  0  0  0
  -29.7210  -12.9010   17.5500 C   0  0  0  0  0  2  0  0  0  0  0  0
  -28.3260  -12.6180   18.1290 C   0  0  0  0  0  2  0  0  0  0  0  0
  -27.9860  -13.5820   19.2910 C   0  0  0  0  0  3  0  0  0  0  0  0
  -29.1350  -13.7520   20.3070 C   0  0  0  0  0  2  0  0  0  0  0  0
  -30.3080  -14.2570   19.5740 N   0  0  0  0  0  0  0  0  0  0  0  0
  -31.9960  -15.5510   19.0040 O   0  0  0  0  0  0  0  0  0  0  0  0
  -25.7480  -14.1280   20.3780 C   0  0  0  0  0  0  0  0  0  0  0  0
  -24.7180  -13.3480   20.8220 C   0  0  0  0  0  0  0  0  0  0  0  0
  -25.1350  -11.9940   20.6350 C   0  0  0  0  0  0  0  0  0  0  0  0
  -26.7230  -13.2530   19.9390 N   0  0  0  0  0  0  0  0  0  0  0  0
  -26.3770  -11.9570   20.1600 N   0  0  0  0  0  0  0  0  0  0  0  0
  -24.3990  -10.7370   20.8260 C   0  0  0  0  0  0  0  0  0  0  0  0
  -24.8290   -9.7580   21.7500 C   0  0  0  0  0  3  0  0  0  0  0  0
  -24.0900   -8.5690   21.9300 C   0  0  0  0  0  3  0  0  0  0  0  0
  -22.9060   -8.3500   21.1870 C   0  0  0  0  0  0  0  0  0  0  0  0
  -22.4940   -9.3160   20.2520 C   0  0  0  0  0  3  0  0  0  0  0  0
  -23.2330  -10.4970   20.0700 C   0  0  0  0  0  3  0  0  0  0  0  0
  -22.1380   -7.2130   21.2760 O   0  0  0  0  0  0  0  0  0  0  0  0
  -21.9570   -6.5590   22.4680 C   0  0  0  0  0  0  0  0  0  0  0  0
  -21.3710   -7.1930   23.5850 C   0  0  0  0  0  3  0  0  0  0  0  0
  -21.1400   -6.4630   24.7680 C   0  0  0  0  0  3  0  0  0  0  0  0
  -21.4850   -5.1000   24.8350 C   0  0  0  0  0  0  0  0  0  0  0  0
  -22.0640   -4.4650   23.7200 C   0  0  0  0  0  3  0  0  0  0  0  0
  -22.2950   -5.1930   22.5400 C   0  0  0  0  0  0  0  0  0  0  0  0
  -22.8340   -4.5700   21.4630 F   0  0  0  0  0  0  0  0  0  0  0  0
  -21.2570   -4.3960   25.9680 F   0  0  0  0  0  0  0  0  0  0  0  0
  -23.3810  -13.8340   21.2990 C   0  0  0  0  0  0  0  0  0  0  0  0
  -22.7570  -13.1090   22.2200 N   0  0  0  0  0  0  0  0  0  0  0  0
  -22.9040  -14.8920   20.8900 O   0  0  0  0  0  0  0  0  0  0  0  0
  -23.1590  -12.2510   22.5700 H   0  0  0  0  0  0  0  0  0  0  0  0
  -21.8650  -13.4150   22.5810 H   0  0  0  0  0  0  0  0  0  0  0  0
  -25.9320  -15.5040   20.2850 N   0  0  0  0  0  0  0  0  0  0  0  0
  -25.2140  -16.1670   20.5580 H   0  0  0  0  0  0  0  0  0  0  0  0
  -26.7640  -15.9510   19.9210 H   0  0  0  0  0  0  0  0  0  0  0  0
  -28.6560  -24.5210   19.2400 C   0  0  0  0  0  2  0  0  0  0  0  0
  -28.4850  -26.0870   19.7670 O   0  0  0  0  0  0  0  0  0  0  0  0
  -24.6220  -31.6970   22.9830 C   0  0  0  0  0  0  0  0  0  0  0  0
  -27.4090  -27.1220   19.6880 C   0  0  0  0  0  0  0  0  0  0  0  0
  -23.4900  -30.3250   21.2790 C   0  0  0  0  0  3  0  0  0  0  0  0
  -25.0090  -28.8780   19.7550 C   0  0  0  0  0  0  0  0  0  0  0  0
  -26.0380  -30.6790   21.1290 C   0  0  0  0  0  2  0  0  0  0  0  0
  -26.1750  -29.3120   20.3950 C   0  0  0  0  0  0  0  0  0  0  0  0
  -27.3620  -28.4520   20.3430 C   0  0  0  0  0  3  0  0  0  0  0  0
  -26.2090  -26.8450   18.9970 C   0  0  0  0  0  3  0  0  0  0  0  0
  -25.0510  -27.6690   19.0370 C   0  0  0  0  0  3  0  0  0  0  0  0
  -23.7420  -29.7260   19.8650 C   0  0  0  0  0  2  0  0  0  0  0  0
  -24.7370  -30.9270   21.8520 N   0  0  0  0  0  0  0  0  0  0  0  0
  -23.5240  -31.9000   23.5270 O   0  0  0  0  0  0  0  0  0  0  0  0
  -22.8580  -29.2470   22.1960 C   0  0  0  0  0  0  0  0  0  0  0  0
  -21.5310  -29.0430   22.0970 N   0  0  0  0  0  0  0  0  0  0  0  0
  -23.5680  -28.5950   22.9660 O   0  0  0  0  0  0  0  0  0  0  0  0
  -21.0080  -29.6230   21.4560 H   0  0  0  0  0  0  0  0  0  0  0  0
  -18.2090  -27.6850   22.6250 C   0  0  0  0  0  0  0  0  0  0  0  0
  -20.7650  -28.0270   22.8270 C   0  0  0  0  0  3  0  0  0  0  0  0
  -20.8960  -26.6420   22.1520 C   0  0  0  0  0  2  0  0  0  0  0  0
  -19.7730  -26.3480   21.1520 C   0  0  0  0  0  2  0  0  0  0  0  0
  -18.4100  -26.3950   21.8470 C   0  0  0  0  0  2  0  0  0  0  0  0
  -19.3130  -28.4590   23.0710 C   0  0  0  0  0  0  0  0  0  0  0  0
  -19.0670  -29.6640   23.7640 C   0  0  0  0  0  3  0  0  0  0  0  0
  -17.7510  -30.0980   24.0110 C   0  0  0  0  0  3  0  0  0  0  0  0
  -16.6620  -29.3220   23.5770 C   0  0  0  0  0  3  0  0  0  0  0  0
  -16.8920  -28.1170   22.8910 C   0  0  0  0  0  3  0  0  0  0  0  0
  -25.8630  -32.3730   23.6420 C   0  0  0  0  0  3  0  0  0  0  0  0
  -25.4770  -33.7380   24.0440 N   0  0  0  0  0  0  0  0  0  0  0  0
  -25.7410  -34.8490   23.3440 C   0  0  0  0  0  0  0  0  0  0  0  0
  -26.3970  -34.8360   22.2990 O   0  0  0  0  0  0  0  0  0  0  0  0
  -24.8870  -33.8160   24.8600 H   0  0  0  0  0  0  0  0  0  0  0  0
  -23.9080  -36.5640   23.1330 C   0  0  0  0  0  1  0  0  0  0  0  0
  -25.1940  -36.1870   23.8860 C   0  0  0  0  0  3  0  0  0  0  0  0
  -27.2960  -37.1570   24.7080 C   0  0  0  0  0  1  0  0  0  0  0  0
  -26.1640  -37.3010   23.7960 N   0  0  0  0  0  0  0  0  0  0  0  0
  -25.7110  -38.1900   23.9910 H   0  0  0  0  0  0  0  0  0  0  0  0
  -26.4120  -31.5770   24.8910 C   0  0  1  0  0  0  0  0  0  0  0  0
  -25.3260  -31.2350   25.9380 C   0  0  0  0  0  1  0  0  0  0  0  0
  -27.0740  -30.2510   24.4560 C   0  0  0  0  0  1  0  0  0  0  0  0
  -27.5130  -32.4050   25.5960 C   0  0  0  0  0  1  0  0  0  0  0  0
  2  5  2  0
  3  7  1  0
  3  1  2  0
  4  3  1  0
  5  1  1  0
  5 11  1  0
  6  4  2  0
  6  2  1  0
  8  4  1  0
  8 10  1  0
  9  7  1  0
 10 13  1  1
 10  9  1  0
 12  6  1  0
 14 20  1  0
 14  2  1  0
 15 20  1  0
 16 17  1  0
 16 15  1  0
 18 17  1  0
 18 25  1  0
 18 19  1  0
 20 19  1  0
 21 14  2  0
 22 23  2  0
 23 42  1  0
 24 23  1  0
 24 27  1  0
 25 26  1  0
 25 22  1  0
 26 24  2  0
 27 28  1  0
 28 29  2  0
 30 33  1  0
 30 29  1  0
 31 30  2  0
 32 31  1  0
 32 27  2  0
 33 34  1  0
 34 39  2  0
 34 35  1  0
 35 36  2  0
 36 37  1  0
 37 41  1  0
 38 37  2  0
 39 38  1  0
 40 39  1  0
 42 43  1  0
 43 45  1  0
 43 46  1  0
 44 42  2  0
 47 22  1  0
 47 48  1  0
 49 47  1  0
 50 51  1  0
 50 10  1  0
 52 63  2  0
 53 51  1  0
 53 58  1  0
 54 62  1  0
 54 64  1  0
 55 61  1  0
 55 57  1  0
 56 62  1  0
 57 56  1  0
 58 57  2  0
 59 60  1  0
 59 53  2  0
 60 55  2  0
 61 54  1  0
 62 52  1  0
 64 66  2  0
 65 64  1  0
 67 65  1  0
 68 77  2  0
 68 73  1  0
 69 65  1  0
 69 73  1  0
 70 69  1  0
 71 72  1  0
 71 70  1  0
 72 68  1  0
 73 74  2  0
 74 75  1  0
 76 75  2  0
 77 76  1  0
 78 52  1  0
 78 79  1  0
 78 88  1  0
 79 82  1  0
 80 84  1  0
 80 79  1  0
 81 80  2  0
 84 83  1  0
 86 84  1  0
 86 87  1  0
 86 85  1  0
 88 91  1  1
 88 89  1  0
 90 88  1  0
M  ISO  4   2 100  14 100  50 101  51 101
M  END
>  <TORSDO>  (30) 
F 17

>  <SCORE>  (30) 
-14.737

>  <name>  (30) 
29

>  <ligand_id>  (30) 
29

>  <original_smiles>  (30) 
[H]c1c([H])c([H])c2c(c1[H])C([H])([H])C([H])([H])C([H])([H])C2([H])N([H])C(=O)C1([H])N(C(=O)C([H])(N([H])C(=O)C([H])(N([H])C([H])([H])[H])C([H])([H])[H])C(C([H])([H])[H])(C([H])([H])[H])C([H])([H])[H])C([H])([H])c2c([H])c(OC([H])([H])C3(C([H])([H])[H])C([H])([H])c4c(C([H])([H])[H])c(C(=O)N5C([H])([H])C([H])([H])C([H])([H])C([H])(n6nc(-c7c([H])c([H])c(Oc8c([H])c([H])c(F)c([H])c8F)c([H])c7[H])c(C(=O)N([H])[H])c6N([H])[H])C5([H])[H])c(C([H])([H])[H])c([H])c4C([H])([H])C3([H])[H])c([H])c([H])c2C1([H])[H]

>  <smiles>  (30) 
[H]c1c([H])c([H])c2c(c1[H])C([H])([H])C([H])([H])C([H])([H])C2([H])N([H])C(=O)C1([H])N(C(=O)C([H])(N([H])C(=O)C([H])(N([H])C([H])([H])[H])C([H])([H])[H])C(C([H])([H])[H])(C([H])([H])[H])C([H])([H])[H])C([H])([H])c2c([H])c(OC([H])([H])C3(C([H])([H])[H])C([H])([H])c4c(C([H])([H])[H])c(C(=O)N5C([H])([H])C([H])([H])C([H])([H])C([H])(n6nc(-c7c([H])c([H])c(Oc8c([H])c([H])c(F)c([H])c8F)c([H])c7[H])c(C(=O)N([H])[H])c6N([H])[H])C5([H])[H])c(C([H])([H])[H])c([H])c4C([H])([H])C3([H])[H])c([H])c([H])c2C1([H])[H]

$$$$
30:0:0
     RDKit          3D

 94103  0  0  1  0  0  0  0  0999 V2000
  -30.4300  -16.6300   20.3480 C   0  0  0  0  0  0  0  0  0  0  0  0
  -29.5950  -19.1290   19.8390 C   0  0  0  0  0  0  0  0  0  0  0  0
  -29.8640  -17.6970   19.4640 C   0  0  0  0  0  0  0  0  0  0  0  0
  -30.6800  -17.1700   21.6620 C   0  0  0  0  0  0  0  0  0  0  0  0
  -30.4230  -18.5580   22.0300 C   0  0  0  0  0  0  0  0  0  0  0  0
  -29.9500  -19.5750   21.1270 C   0  0  0  0  0  0  0  0  0  0  0  0
  -29.0130  -20.2890   18.8900 C   0  0  0  0  0  2  0  0  0  0  0  0
  -28.0400  -21.5520   19.3590 C   0  0  0  0  0  2  0  0  0  0  0  0
  -29.8430  -22.2870   20.7820 C   0  0  0  0  0  2  0  0  0  0  0  0
  -28.4450  -22.8650   20.2640 C   0  0  2  0  0  0  0  0  0  0  0  0
  -29.5360  -17.3200   18.0270 C   0  0  0  0  0  1  0  0  0  0  0  0
  -31.3130  -16.2680   22.7270 C   0  0  0  0  0  1  0  0  0  0  0  0
  -30.7010  -18.9860   23.4750 C   0  0  0  0  0  1  0  0  0  0  0  0
  -27.4910  -22.9260   21.4750 C   0  0  0  0  0  1  0  0  0  0  0  0
  -29.8250  -20.9630   21.5430 N   0  0  0  0  0  0  0  0  0  0  0  0
  -29.9870  -21.0980   22.5350 H   0  0  0  0  0  0  0  0  0  0  0  0
  -30.9710  -15.1320   19.8960 C   0  0  0  0  0  0  0  0  0  0  0  0
  -30.6860  -12.7900   18.9070 C   0  0  0  0  0  2  0  0  0  0  0  0
  -29.7020  -12.8090   17.7120 C   0  0  0  0  0  2  0  0  0  0  0  0
  -28.2570  -12.6220   18.2060 C   0  0  0  0  0  2  0  0  0  0  0  0
  -27.9430  -13.5160   19.4320 C   0  0  0  0  0  3  0  0  0  0  0  0
  -29.0500  -13.4850   20.5050 C   0  0  0  0  0  2  0  0  0  0  0  0
  -30.3050  -13.8890   19.8590 N   0  0  0  0  0  0  0  0  0  0  0  0
  -32.1310  -15.0830   19.4680 O   0  0  0  0  0  0  0  0  0  0  0  0
  -25.6290  -14.1400   20.3120 C   0  0  0  0  0  0  0  0  0  0  0  0
  -24.5620  -13.3900   20.7190 C   0  0  0  0  0  0  0  0  0  0  0  0
  -24.9810  -12.0260   20.6390 C   0  0  0  0  0  0  0  0  0  0  0  0
  -26.6280  -13.2370   19.9970 N   0  0  0  0  0  0  0  0  0  0  0  0
  -26.2530  -11.9580   20.2630 N   0  0  0  0  0  0  0  0  0  0  0  0
  -24.2230  -10.7840   20.8430 C   0  0  0  0  0  0  0  0  0  0  0  0
  -24.6350   -9.8110   21.7800 C   0  0  0  0  0  3  0  0  0  0  0  0
  -23.8760   -8.6360   21.9720 C   0  0  0  0  0  3  0  0  0  0  0  0
  -22.6920   -8.4260   21.2270 C   0  0  0  0  0  0  0  0  0  0  0  0
  -22.2980   -9.3870   20.2780 C   0  0  0  0  0  3  0  0  0  0  0  0
  -23.0580  -10.5530   20.0850 C   0  0  0  0  0  3  0  0  0  0  0  0
  -21.9060   -7.3020   21.3270 O   0  0  0  0  0  0  0  0  0  0  0  0
  -21.8070   -6.5950   22.4990 C   0  0  0  0  0  0  0  0  0  0  0  0
  -21.3610   -7.1950   23.6960 C   0  0  0  0  0  3  0  0  0  0  0  0
  -21.2080   -6.4150   24.8600 C   0  0  0  0  0  3  0  0  0  0  0  0
  -21.4920   -5.0370   24.8270 C   0  0  0  0  0  0  0  0  0  0  0  0
  -21.9310   -4.4370   23.6340 C   0  0  0  0  0  3  0  0  0  0  0  0
  -22.0850   -5.2140   22.4730 C   0  0  0  0  0  0  0  0  0  0  0  0
  -22.4880   -4.6260   21.3210 F   0  0  0  0  0  0  0  0  0  0  0  0
  -21.3380   -4.2860   25.9420 F   0  0  0  0  0  0  0  0  0  0  0  0
  -23.1960  -13.9070   21.0660 C   0  0  0  0  0  0  0  0  0  0  0  0
  -22.4990  -13.2330   21.9740 N   0  0  0  0  0  0  0  0  0  0  0  0
  -22.7590  -14.9430   20.5670 O   0  0  0  0  0  0  0  0  0  0  0  0
  -22.8670  -12.3940   22.3990 H   0  0  0  0  0  0  0  0  0  0  0  0
  -21.5850  -13.5610   22.2500 H   0  0  0  0  0  0  0  0  0  0  0  0
  -25.8300  -15.5090   20.1570 N   0  0  0  0  0  0  0  0  0  0  0  0
  -25.1000  -16.1880   20.3390 H   0  0  0  0  0  0  0  0  0  0  0  0
  -26.6920  -15.9310   19.8340 H   0  0  0  0  0  0  0  0  0  0  0  0
  -28.2160  -24.4500   19.5560 C   0  0  0  0  0  2  0  0  0  0  0  0
  -28.1690  -25.9710   20.0440 O   0  0  0  0  0  0  0  0  0  0  0  0
  -24.5500  -31.7170   23.0280 C   0  0  0  0  0  0  0  0  0  0  0  0
  -27.1200  -26.9830   19.9260 C   0  0  0  0  0  0  0  0  0  0  0  0
  -23.3500  -30.3390   21.3740 C   0  0  0  0  0  3  0  0  0  0  0  0
  -24.7960  -28.7770   19.9160 C   0  0  0  0  0  0  0  0  0  0  0  0
  -25.9060  -30.5930   21.2100 C   0  0  0  0  0  2  0  0  0  0  0  0
  -25.9760  -29.2020   20.5370 C   0  0  0  0  0  0  0  0  0  0  0  0
  -27.1310  -28.3210   20.5260 C   0  0  0  0  0  3  0  0  0  0  0  0
  -25.9130  -26.6800   19.2590 C   0  0  0  0  0  3  0  0  0  0  0  0
  -24.7830  -27.5340   19.2610 C   0  0  0  0  0  3  0  0  0  0  0  0
  -23.5690  -29.6780   19.9860 C   0  0  0  0  0  2  0  0  0  0  0  0
  -24.6220  -30.9080   21.9260 N   0  0  0  0  0  0  0  0  0  0  0  0
  -23.4640  -31.9940   23.5630 O   0  0  0  0  0  0  0  0  0  0  0  0
  -22.6720  -29.3230   22.3290 C   0  0  0  0  0  0  0  0  0  0  0  0
  -21.3400  -29.1670   22.2200 N   0  0  0  0  0  0  0  0  0  0  0  0
  -23.3490  -28.6770   23.1330 O   0  0  0  0  0  0  0  0  0  0  0  0
  -20.8480  -29.7410   21.5480 H   0  0  0  0  0  0  0  0  0  0  0  0
  -17.9570  -27.9780   22.7520 C   0  0  0  0  0  0  0  0  0  0  0  0
  -20.5230  -28.2210   22.9850 C   0  0  0  0  0  3  0  0  0  0  0  0
  -20.6060  -26.8000   22.3810 C   0  0  0  0  0  2  0  0  0  0  0  0
  -19.4870  -26.5050   21.3770 C   0  0  0  0  0  2  0  0  0  0  0  0
  -18.1160  -26.6440   22.0440 C   0  0  0  0  0  2  0  0  0  0  0  0
  -19.0870  -28.7260   23.1810 C   0  0  0  0  0  0  0  0  0  0  0  0
  -18.8840  -29.9740   23.8070 C   0  0  0  0  0  3  0  0  0  0  0  0
  -17.5830  -30.4770   24.0070 C   0  0  0  0  0  3  0  0  0  0  0  0
  -16.4690  -29.7250   23.5930 C   0  0  0  0  0  3  0  0  0  0  0  0
  -16.6570  -28.4790   22.9720 C   0  0  0  0  0  3  0  0  0  0  0  0
  -25.8270  -32.3510   23.6610 C   0  0  0  0  0  3  0  0  0  0  0  0
  -25.5030  -33.7380   24.0380 N   0  0  0  0  0  0  0  0  0  0  0  0
  -25.8380  -34.8240   23.3290 C   0  0  0  0  0  0  0  0  0  0  0  0
  -26.5170  -34.7640   22.3000 O   0  0  0  0  0  0  0  0  0  0  0  0
  -24.9030  -33.8570   24.8400 H   0  0  0  0  0  0  0  0  0  0  0  0
  -24.1110  -36.6310   23.0310 C   0  0  0  0  0  1  0  0  0  0  0  0
  -25.3430  -36.1920   23.8390 C   0  0  0  0  0  3  0  0  0  0  0  0
  -27.4620  -37.0510   24.7360 C   0  0  0  0  0  1  0  0  0  0  0  0
  -26.3750  -37.2510   23.7810 N   0  0  0  0  0  0  0  0  0  0  0  0
  -25.9640  -38.1640   23.9550 H   0  0  0  0  0  0  0  0  0  0  0  0
  -26.3560  -31.5550   24.9180 C   0  0  1  0  0  0  0  0  0  0  0  0
  -25.2740  -31.2940   25.9920 C   0  0  0  0  0  1  0  0  0  0  0  0
  -26.9390  -30.1860   24.4980 C   0  0  0  0  0  1  0  0  0  0  0  0
  -27.5130  -32.3370   25.5840 C   0  0  0  0  0  1  0  0  0  0  0  0
  1  4  1  0
  2  6  2  0
  3  2  1  0
  3  1  2  0
  4  5  2  0
  4 12  1  0
  5 13  1  0
  6 15  1  0
  6  5  1  0
  7  8  1  0
  7  2  1  0
  8 10  1  0
  9 15  1  0
 10  9  1  0
 10 14  1  1
 11  3  1  0
 15 16  1  0
 17  1  1  0
 18 23  1  0
 19 20  1  0
 19 18  1  0
 21 20  1  0
 21 28  1  0
 21 22  1  0
 23 17  1  0
 23 22  1  0
 24 17  2  0
 25 26  2  0
 26 45  1  0
 27 26  1  0
 27 30  1  0
 28 29  1  0
 28 25  1  0
 29 27  2  0
 30 31  1  0
 31 32  2  0
 33 36  1  0
 33 32  1  0
 34 33  2  0
 35 34  1  0
 35 30  2  0
 36 37  1  0
 37 38  1  0
 38 39  2  0
 40 39  1  0
 40 44  1  0
 41 40  2  0
 42 37  2  0
 42 41  1  0
 43 42  1  0
 45 46  1  0
 46 49  1  0
 46 48  1  0
 47 45  2  0
 50 25  1  0
 50 51  1  0
 52 50  1  0
 53 54  1  0
 53 10  1  0
 55 66  2  0
 56 54  1  0
 56 61  1  0
 57 65  1  0
 57 67  1  0
 58 64  1  0
 58 60  1  0
 59 65  1  0
 60 59  1  0
 61 60  2  0
 62 63  1  0
 62 56  2  0
 63 58  2  0
 64 57  1  0
 65 55  1  0
 67 69  2  0
 68 67  1  0
 70 68  1  0
 71 80  2  0
 71 76  1  0
 72 68  1  0
 72 76  1  0
 73 72  1  0
 74 75  1  0
 74 73  1  0
 75 71  1  0
 76 77  2  0
 77 78  1  0
 79 78  2  0
 80 79  1  0
 81 55  1  0
 81 82  1  0
 81 91  1  0
 82 85  1  0
 83 87  1  0
 83 82  1  0
 84 83  2  0
 87 86  1  0
 89 87  1  0
 89 90  1  0
 89 88  1  0
 91 94  1  1
 91 92  1  0
 93 91  1  0
M  ISO  4   1 100  17 100  53 101  54 101
M  END
>  <TORSDO>  (31) 
F 17

>  <SCORE>  (31) 
-13.891

>  <name>  (31) 
30

>  <ligand_id>  (31) 
30

>  <original_smiles>  (31) 
[H]c1c([H])c([H])c2c(c1[H])C([H])([H])C([H])([H])C([H])([H])C2([H])N([H])C(=O)C1([H])N(C(=O)C([H])(N([H])C(=O)C([H])(N([H])C([H])([H])[H])C([H])([H])[H])C(C([H])([H])[H])(C([H])([H])[H])C([H])([H])[H])C([H])([H])c2c([H])c(OC([H])([H])C3(C([H])([H])[H])C([H])([H])N([H])c4c(C([H])([H])[H])c(C([H])([H])[H])c(C(=O)N5C([H])([H])C([H])([H])C([H])([H])C([H])(n6nc(-c7c([H])c([H])c(Oc8c([H])c([H])c(F)c([H])c8F)c([H])c7[H])c(C(=O)N([H])[H])c6N([H])[H])C5([H])[H])c(C([H])([H])[H])c4C([H])([H])C3([H])[H])c([H])c([H])c2C1([H])[H]

>  <smiles>  (31) 
[H]c1c([H])c([H])c2c(c1[H])C([H])([H])C([H])([H])C([H])([H])C2([H])N([H])C(=O)C1([H])N(C(=O)C([H])(N([H])C(=O)C([H])(N([H])C([H])([H])[H])C([H])([H])[H])C(C([H])([H])[H])(C([H])([H])[H])C([H])([H])[H])C([H])([H])c2c([H])c(OC([H])([H])C3(C([H])([H])[H])C([H])([H])N([H])c4c(C([H])([H])[H])c(C([H])([H])[H])c(C(=O)N5C([H])([H])C([H])([H])C([H])([H])C([H])(n6nc(-c7c([H])c([H])c(Oc8c([H])c([H])c(F)c([H])c8F)c([H])c7[H])c(C(=O)N([H])[H])c6N([H])[H])C5([H])[H])c(C([H])([H])[H])c4C([H])([H])C3([H])[H])c([H])c([H])c2C1([H])[H]

$$$$
31:0:0
     RDKit          3D

 92100  0  0  1  0  0  0  0  0999 V2000
  -28.8780  -23.2860   20.8670 C   0  0  0  0  0  3  0  0  0  0  0  0
  -28.6480  -24.4330   20.0790 C   0  0  0  0  0  3  0  0  0  0  0  0
  -29.3560  -24.7100   22.7820 C   0  0  0  0  0  3  0  0  0  0  0  0
  -29.2480  -23.4180   22.2250 C   0  0  0  0  0  0  0  0  0  0  0  0
  -29.1480  -25.8600   21.9940 C   0  0  0  0  0  0  0  0  0  0  0  0
  -28.7790  -25.7230   20.6310 C   0  0  0  0  0  0  0  0  0  0  0  0
  -29.3510  -27.2210   22.6320 C   0  0  0  0  0  1  0  0  0  0  0  0
  -29.5030  -22.2360   23.0940 C   0  0  0  0  0  0  0  0  0  0  0  0
  -29.3930  -22.2700   24.3240 O   0  0  0  0  0  0  0  0  0  0  0  0
  -29.9770  -20.9470   22.4130 C   0  0  0  0  0  2  0  0  0  0  0  0
  -31.0710  -20.2160   23.2170 C   0  0  0  0  0  2  0  0  0  0  0  0
  -31.7020  -19.0490   22.4450 C   0  0  0  0  0  2  0  0  0  0  0  0
  -30.7390  -17.8700   22.2510 C   0  0  0  0  0  2  0  0  0  0  0  0
  -31.3610  -16.7450   21.4130 C   0  0  0  0  0  2  0  0  0  0  0  0
  -30.4020  -15.5520   21.2310 C   0  0  0  0  0  2  0  0  0  0  0  0
  -30.8860  -14.5080   20.2110 C   0  0  0  0  0  0  0  0  0  0  0  0
  -30.4550  -12.4230   18.9570 C   0  0  0  0  0  2  0  0  0  0  0  0
  -29.4760  -12.6790   17.7950 C   0  0  0  0  0  2  0  0  0  0  0  0
  -28.0160  -12.5750   18.2760 C   0  0  0  0  0  2  0  0  0  0  0  0
  -27.7500  -13.4100   19.5580 C   0  0  0  0  0  3  0  0  0  0  0  0
  -28.8300  -13.1280   20.6250 C   0  0  0  0  0  2  0  0  0  0  0  0
  -30.1490  -13.3840   20.0250 N   0  0  0  0  0  0  0  0  0  0  0  0
  -31.9190  -14.7360   19.5690 O   0  0  0  0  0  0  0  0  0  0  0  0
  -25.3860  -14.0820   20.3300 C   0  0  0  0  0  0  0  0  0  0  0  0
  -24.3110  -13.3370   20.7370 C   0  0  0  0  0  0  0  0  0  0  0  0
  -24.7390  -11.9750   20.7020 C   0  0  0  0  0  0  0  0  0  0  0  0
  -26.4040  -13.1750   20.0770 N   0  0  0  0  0  0  0  0  0  0  0  0
  -26.0180  -11.9020   20.3530 N   0  0  0  0  0  0  0  0  0  0  0  0
  -23.9900  -10.7310   20.9240 C   0  0  0  0  0  0  0  0  0  0  0  0
  -24.4320   -9.7580   21.8470 C   0  0  0  0  0  3  0  0  0  0  0  0
  -23.6860   -8.5770   22.0550 C   0  0  0  0  0  3  0  0  0  0  0  0
  -22.4830   -8.3640   21.3410 C   0  0  0  0  0  0  0  0  0  0  0  0
  -22.0600   -9.3250   20.4080 C   0  0  0  0  0  3  0  0  0  0  0  0
  -22.8060  -10.4960   20.1970 C   0  0  0  0  0  3  0  0  0  0  0  0
  -21.7070   -7.2360   21.4590 O   0  0  0  0  0  0  0  0  0  0  0  0
  -21.6790   -6.4980   22.6160 C   0  0  0  0  0  0  0  0  0  0  0  0
  -21.3250   -7.0740   23.8560 C   0  0  0  0  0  3  0  0  0  0  0  0
  -21.2400   -6.2660   25.0080 C   0  0  0  0  0  3  0  0  0  0  0  0
  -21.5000   -4.8850   24.9220 C   0  0  0  0  0  0  0  0  0  0  0  0
  -21.8490   -4.3110   23.6870 C   0  0  0  0  0  3  0  0  0  0  0  0
  -21.9350   -5.1150   22.5370 C   0  0  0  0  0  0  0  0  0  0  0  0
  -22.2500   -4.5530   21.3450 F   0  0  0  0  0  0  0  0  0  0  0  0
  -21.4130   -4.1080   26.0250 F   0  0  0  0  0  0  0  0  0  0  0  0
  -22.9350  -13.8480   21.0510 C   0  0  0  0  0  0  0  0  0  0  0  0
  -22.2220  -13.1790   21.9500 N   0  0  0  0  0  0  0  0  0  0  0  0
  -22.5000  -14.8770   20.5320 O   0  0  0  0  0  0  0  0  0  0  0  0
  -22.5860  -12.3480   22.3910 H   0  0  0  0  0  0  0  0  0  0  0  0
  -21.2980  -13.5040   22.2020 H   0  0  0  0  0  0  0  0  0  0  0  0
  -25.5780  -15.4460   20.1390 N   0  0  0  0  0  0  0  0  0  0  0  0
  -24.8360  -16.1250   20.2680 H   0  0  0  0  0  0  0  0  0  0  0  0
  -26.4380  -15.8600   19.7980 H   0  0  0  0  0  0  0  0  0  0  0  0
  -28.5870  -26.8060   19.8090 O   0  0  0  0  0  0  0  0  0  0  0  0
  -24.7310  -31.7420   23.1320 C   0  0  0  0  0  0  0  0  0  0  0  0
  -27.3870  -27.4660   19.8810 C   0  0  0  0  0  0  0  0  0  0  0  0
  -23.4990  -30.3360   21.5110 C   0  0  0  0  0  3  0  0  0  0  0  0
  -24.9390  -28.8630   20.0060 C   0  0  0  0  0  0  0  0  0  0  0  0
  -25.9970  -30.7860   21.2120 C   0  0  0  0  0  2  0  0  0  0  0  0
  -26.0990  -29.4310   20.5470 C   0  0  0  0  0  0  0  0  0  0  0  0
  -27.3260  -28.7460   20.4680 C   0  0  0  0  0  3  0  0  0  0  0  0
  -26.2160  -26.8970   19.3400 C   0  0  0  0  0  3  0  0  0  0  0  0
  -24.9900  -27.5940   19.3960 C   0  0  0  0  0  3  0  0  0  0  0  0
  -23.6730  -29.6790   20.1130 C   0  0  0  0  0  2  0  0  0  0  0  0
  -24.7640  -30.9660   22.0120 N   0  0  0  0  0  0  0  0  0  0  0  0
  -23.6670  -31.9740   23.7200 O   0  0  0  0  0  0  0  0  0  0  0  0
  -22.9170  -29.2800   22.4770 C   0  0  0  0  0  0  0  0  0  0  0  0
  -21.6070  -29.0200   22.3540 N   0  0  0  0  0  0  0  0  0  0  0  0
  -23.6400  -28.6980   23.2900 O   0  0  0  0  0  0  0  0  0  0  0  0
  -21.0840  -29.5460   21.6680 H   0  0  0  0  0  0  0  0  0  0  0  0
  -18.3330  -27.5510   22.7790 C   0  0  0  0  0  0  0  0  0  0  0  0
  -20.8470  -28.0380   23.1270 C   0  0  0  0  0  3  0  0  0  0  0  0
  -21.0930  -26.6050   22.6020 C   0  0  0  0  0  2  0  0  0  0  0  0
  -20.0600  -26.1580   21.5630 C   0  0  0  0  0  2  0  0  0  0  0  0
  -18.6490  -26.2020   22.1550 C   0  0  0  0  0  2  0  0  0  0  0  0
  -19.3660  -28.4190   23.2210 C   0  0  0  0  0  0  0  0  0  0  0  0
  -19.0190  -29.6770   23.7610 C   0  0  0  0  0  3  0  0  0  0  0  0
  -17.6720  -30.0690   23.8640 C   0  0  0  0  0  3  0  0  0  0  0  0
  -16.6530  -29.2000   23.4380 C   0  0  0  0  0  3  0  0  0  0  0  0
  -16.9830  -27.9430   22.9020 C   0  0  0  0  0  3  0  0  0  0  0  0
  -26.0250  -32.3940   23.7150 C   0  0  0  0  0  3  0  0  0  0  0  0
  -25.6870  -33.7690   24.1040 N   0  0  0  0  0  0  0  0  0  0  0  0
  -25.9690  -34.8570   23.3740 C   0  0  0  0  0  0  0  0  0  0  0  0
  -26.6130  -34.8080   22.3220 O   0  0  0  0  0  0  0  0  0  0  0  0
  -25.1080  -33.8770   24.9240 H   0  0  0  0  0  0  0  0  0  0  0  0
  -24.1800  -36.6080   23.1290 C   0  0  0  0  0  1  0  0  0  0  0  0
  -25.4550  -36.2130   23.8920 C   0  0  0  0  0  3  0  0  0  0  0  0
  -27.5900  -37.1290   24.6900 C   0  0  0  0  0  1  0  0  0  0  0  0
  -26.4540  -37.3000   23.7870 N   0  0  0  0  0  0  0  0  0  0  0  0
  -26.0290  -38.2020   23.9810 H   0  0  0  0  0  0  0  0  0  0  0  0
  -26.6270  -31.5970   24.9360 C   0  0  1  0  0  0  0  0  0  0  0  0
  -25.5960  -31.2870   26.0460 C   0  0  0  0  0  1  0  0  0  0  0  0
  -27.2320  -30.2550   24.4630 C   0  0  0  0  0  1  0  0  0  0  0  0
  -27.7850  -32.4060   25.5690 C   0  0  0  0  0  1  0  0  0  0  0  0
  1  4  1  0
  2  6  1  0
  2  1  2  0
  4  3  2  0
  4  8  1  0
  5  7  1  0
  5  3  1  0
  6  5  2  0
  8  9  2  0
 10  8  1  0
 10 11  1  0
 12 11  1  0
 13 12  1  0
 14 13  1  0
 15 14  1  0
 16 15  1  0
 17 22  1  0
 18 19  1  0
 18 17  1  0
 20 19  1  0
 20 27  1  0
 20 21  1  0
 22 16  1  0
 22 21  1  0
 23 16  2  0
 24 25  2  0
 25 44  1  0
 26 25  1  0
 26 29  1  0
 27 24  1  0
 27 28  1  0
 28 26  2  0
 29 30  1  0
 30 31  2  0
 32 35  1  0
 32 31  1  0
 33 32  2  0
 34 33  1  0
 34 29  2  0
 35 36  1  0
 36 37  1  0
 37 38  2  0
 39 38  1  0
 39 43  1  0
 40 39  2  0
 41 36  2  0
 41 40  1  0
 42 41  1  0
 44 45  1  0
 45 48  1  0
 45 47  1  0
 46 44  2  0
 49 50  1  0
 49 24  1  0
 51 49  1  0
 52 54  1  0
 52  6  1  0
 53 64  2  0
 54 59  1  0
 55 63  1  0
 55 65  1  0
 56 62  1  0
 56 58  1  0
 57 63  1  0
 58 57  1  0
 59 58  2  0
 60 61  1  0
 60 54  2  0
 61 56  2  0
 62 55  1  0
 63 53  1  0
 65 67  2  0
 66 65  1  0
 68 66  1  0
 69 78  2  0
 69 74  1  0
 70 66  1  0
 70 74  1  0
 71 70  1  0
 72 73  1  0
 72 71  1  0
 73 69  1  0
 74 75  2  0
 75 76  1  0
 77 76  2  0
 78 77  1  0
 79 53  1  0
 79 80  1  0
 79 89  1  0
 80 83  1  0
 81 85  1  0
 81 80  1  0
 82 81  2  0
 85 84  1  0
 87 85  1  0
 87 88  1  0
 87 86  1  0
 89 92  1  1
 89 90  1  0
 91 89  1  0
M  ISO  4   6 101  15 100  16 100  52 101
M  END
>  <TORSDO>  (32) 
F 23

>  <SCORE>  (32) 
-11.985

>  <name>  (32) 
31

>  <ligand_id>  (32) 
31

>  <original_smiles>  (32) 
[H]c1c([H])c([H])c2c(c1[H])C([H])([H])C([H])([H])C([H])([H])C2([H])N([H])C(=O)C1([H])N(C(=O)C([H])(N([H])C(=O)C([H])(N([H])C([H])([H])[H])C([H])([H])[H])C(C([H])([H])[H])(C([H])([H])[H])C([H])([H])[H])C([H])([H])c2c([H])c(Oc3c([H])c([H])c(C(=O)C([H])([H])C([H])([H])C([H])([H])C([H])([H])C([H])([H])C([H])([H])C(=O)N4C([H])([H])C([H])([H])C([H])([H])C([H])(n5nc(-c6c([H])c([H])c(Oc7c([H])c([H])c(F)c([H])c7F)c([H])c6[H])c(C(=O)N([H])[H])c5N([H])[H])C4([H])[H])c([H])c3C([H])([H])[H])c([H])c([H])c2C1([H])[H]

>  <smiles>  (32) 
[H]c1c([H])c([H])c2c(c1[H])C([H])([H])C([H])([H])C([H])([H])C2([H])N([H])C(=O)C1([H])N(C(=O)C([H])(N([H])C(=O)C([H])(N([H])C([H])([H])[H])C([H])([H])[H])C(C([H])([H])[H])(C([H])([H])[H])C([H])([H])[H])C([H])([H])c2c([H])c(Oc3c([H])c([H])c(C(=O)C([H])([H])C([H])([H])C([H])([H])C([H])([H])C([H])([H])C([H])([H])C(=O)N4C([H])([H])C([H])([H])C([H])([H])C([H])(n5nc(-c6c([H])c([H])c(Oc7c([H])c([H])c(F)c([H])c7F)c([H])c6[H])c(C(=O)N([H])[H])c5N([H])[H])C4([H])[H])c([H])c3C([H])([H])[H])c([H])c([H])c2C1([H])[H]

$$$$
32:0:0
     RDKit          3D

 92101  0  0  1  0  0  0  0  0999 V2000
  -29.6610  -21.6890   19.7970 C   0  0  0  0  0  3  0  0  0  0  0  0
  -28.7000  -22.7700   19.7120 C   0  0  0  0  0  0  0  0  0  0  0  0
  -27.5350  -21.8970   19.3480 C   0  0  0  0  0  0  0  0  0  0  0  0
  -27.8810  -20.3790   19.0210 C   0  0  0  0  0  2  0  0  0  0  0  0
  -29.2240  -20.0480   19.7290 C   0  0  0  0  0  3  0  0  0  0  0  0
  -26.3730  -22.2980   19.2620 O   0  0  0  0  0  0  0  0  0  0  0  0
  -31.4310  -18.7690   19.8380 C   0  0  0  0  0  3  0  0  0  0  0  0
  -31.8980  -18.2240   21.0660 C   0  0  0  0  0  3  0  0  0  0  0  0
  -29.7940  -16.9960   19.8470 C   0  0  0  0  0  3  0  0  0  0  0  0
  -30.0820  -18.5070   19.4970 C   0  0  0  0  0  3  0  0  0  0  0  0
  -31.0000  -17.4620   21.8620 C   0  0  0  0  0  3  0  0  0  0  0  0
  -29.7930  -17.0200   21.2610 C   0  0  0  0  0  3  0  0  0  0  0  0
  -31.3060  -17.2050   23.3340 C   0  0  0  0  0  1  0  0  0  0  0  0
  -28.5580  -16.7070   22.0880 C   0  0  0  0  0  1  0  0  0  0  0  0
  -30.5030  -15.5190   19.3440 C   0  0  0  0  0  0  0  0  0  0  0  0
  -30.4260  -13.0670   18.4230 C   0  0  0  0  0  2  0  0  0  0  0  0
  -29.3130  -12.8090   17.3680 C   0  0  0  0  0  2  0  0  0  0  0  0
  -27.9570  -12.5130   18.0320 C   0  0  0  0  0  2  0  0  0  0  0  0
  -27.6800  -13.4730   19.2110 C   0  0  0  0  0  3  0  0  0  0  0  0
  -28.8970  -13.5690   20.1540 C   0  0  0  0  0  2  0  0  0  0  0  0
  -29.9970  -14.1710   19.3740 N   0  0  0  0  0  0  0  0  0  0  0  0
  -31.6260  -15.5390   18.8160 O   0  0  0  0  0  0  0  0  0  0  0  0
  -25.4800  -14.0340   20.3890 C   0  0  0  0  0  0  0  0  0  0  0  0
  -24.4650  -13.2550   20.8660 C   0  0  0  0  0  0  0  0  0  0  0  0
  -24.8610  -11.9000   20.6400 C   0  0  0  0  0  0  0  0  0  0  0  0
  -26.4390  -13.1540   19.9080 N   0  0  0  0  0  0  0  0  0  0  0  0
  -26.0850  -11.8580   20.1180 N   0  0  0  0  0  0  0  0  0  0  0  0
  -24.1180  -10.6510   20.8410 C   0  0  0  0  0  0  0  0  0  0  0  0
  -24.5980   -9.6360   21.6980 C   0  0  0  0  0  3  0  0  0  0  0  0
  -23.8530   -8.4530   21.8910 C   0  0  0  0  0  3  0  0  0  0  0  0
  -22.6160   -8.2760   21.2290 C   0  0  0  0  0  0  0  0  0  0  0  0
  -22.1540   -9.2770   20.3540 C   0  0  0  0  0  3  0  0  0  0  0  0
  -22.8990  -10.4530   20.1580 C   0  0  0  0  0  3  0  0  0  0  0  0
  -21.8410   -7.1470   21.3330 O   0  0  0  0  0  0  0  0  0  0  0  0
  -21.7750   -6.4210   22.4950 C   0  0  0  0  0  0  0  0  0  0  0  0
  -21.3670   -7.0070   23.7150 C   0  0  0  0  0  3  0  0  0  0  0  0
  -21.2470   -6.2090   24.8690 C   0  0  0  0  0  3  0  0  0  0  0  0
  -21.5290   -4.8320   24.8110 C   0  0  0  0  0  0  0  0  0  0  0  0
  -21.9340   -4.2480   23.5980 C   0  0  0  0  0  3  0  0  0  0  0  0
  -22.0540   -5.0410   22.4410 C   0  0  0  0  0  0  0  0  0  0  0  0
  -22.4190   -4.4700   21.2680 F   0  0  0  0  0  0  0  0  0  0  0  0
  -21.4030   -4.0630   25.9190 F   0  0  0  0  0  0  0  0  0  0  0  0
  -23.1530  -13.7410   21.4130 C   0  0  0  0  0  0  0  0  0  0  0  0
  -22.5690  -13.0040   22.3500 N   0  0  0  0  0  0  0  0  0  0  0  0
  -22.6660  -14.8120   21.0510 O   0  0  0  0  0  0  0  0  0  0  0  0
  -22.9930  -12.1540   22.6870 H   0  0  0  0  0  0  0  0  0  0  0  0
  -21.6870  -13.2950   22.7480 H   0  0  0  0  0  0  0  0  0  0  0  0
  -25.6500  -15.4120   20.3020 N   0  0  0  0  0  0  0  0  0  0  0  0
  -24.8660  -16.0370   20.4620 H   0  0  0  0  0  0  0  0  0  0  0  0
  -26.4720  -15.8820   19.9450 H   0  0  0  0  0  0  0  0  0  0  0  0
  -28.6190  -24.5250   19.4240 C   0  0  0  0  0  2  0  0  0  0  0  0
  -28.3390  -25.9380   20.2630 O   0  0  0  0  0  0  0  0  0  0  0  0
  -24.5950  -31.8070   23.2200 C   0  0  0  0  0  0  0  0  0  0  0  0
  -27.3130  -27.0280   20.1270 C   0  0  0  0  0  0  0  0  0  0  0  0
  -23.4460  -30.3930   21.5640 C   0  0  0  0  0  3  0  0  0  0  0  0
  -24.9440  -28.8490   20.1150 C   0  0  0  0  0  0  0  0  0  0  0  0
  -26.0050  -30.6830   21.4180 C   0  0  0  0  0  2  0  0  0  0  0  0
  -26.1210  -29.2800   20.7440 C   0  0  0  0  0  0  0  0  0  0  0  0
  -27.2890  -28.3850   20.7340 C   0  0  0  0  0  3  0  0  0  0  0  0
  -26.1040  -26.7650   19.4390 C   0  0  0  0  0  3  0  0  0  0  0  0
  -24.9640  -27.6150   19.4460 C   0  0  0  0  0  3  0  0  0  0  0  0
  -23.6940  -29.7280   20.1820 C   0  0  0  0  0  2  0  0  0  0  0  0
  -24.7030  -30.9880   22.1230 N   0  0  0  0  0  0  0  0  0  0  0  0
  -23.4960  -32.0560   23.7460 O   0  0  0  0  0  0  0  0  0  0  0  0
  -22.7830  -29.3670   22.5210 C   0  0  0  0  0  0  0  0  0  0  0  0
  -21.4730  -29.1150   22.3520 N   0  0  0  0  0  0  0  0  0  0  0  0
  -23.4550  -28.7980   23.3820 O   0  0  0  0  0  0  0  0  0  0  0  0
  -20.9810  -29.6270   21.6340 H   0  0  0  0  0  0  0  0  0  0  0  0
  -18.1850  -27.6230   22.7070 C   0  0  0  0  0  0  0  0  0  0  0  0
  -20.6890  -28.1340   23.1120 C   0  0  0  0  0  3  0  0  0  0  0  0
  -20.9540  -26.7000   22.5940 C   0  0  0  0  0  2  0  0  0  0  0  0
  -19.9530  -26.2470   21.5280 C   0  0  0  0  0  2  0  0  0  0  0  0
  -18.5250  -26.2820   22.0810 C   0  0  0  0  0  2  0  0  0  0  0  0
  -19.2000  -28.5010   23.1730 C   0  0  0  0  0  0  0  0  0  0  0  0
  -18.8270  -29.7520   23.7120 C   0  0  0  0  0  3  0  0  0  0  0  0
  -17.4720  -30.1270   23.7880 C   0  0  0  0  0  3  0  0  0  0  0  0
  -16.4740  -29.2490   23.3350 C   0  0  0  0  0  3  0  0  0  0  0  0
  -16.8280  -27.9990   22.8000 C   0  0  0  0  0  3  0  0  0  0  0  0
  -25.8420  -32.4850   23.8610 C   0  0  0  0  0  3  0  0  0  0  0  0
  -25.4890  -33.8830   24.1780 N   0  0  0  0  0  0  0  0  0  0  0  0
  -25.8030  -34.9420   23.4240 C   0  0  0  0  0  0  0  0  0  0  0  0
  -26.4760  -34.8530   22.3950 O   0  0  0  0  0  0  0  0  0  0  0  0
  -24.8810  -34.0210   24.9720 H   0  0  0  0  0  0  0  0  0  0  0  0
  -24.0360  -36.7060   23.0740 C   0  0  0  0  0  1  0  0  0  0  0  0
  -25.2900  -36.3270   23.8780 C   0  0  0  0  0  3  0  0  0  0  0  0
  -27.4100  -37.2670   24.6920 C   0  0  0  0  0  1  0  0  0  0  0  0
  -26.3030  -37.4000   23.7500 N   0  0  0  0  0  0  0  0  0  0  0  0
  -25.8780  -38.3140   23.8860 H   0  0  0  0  0  0  0  0  0  0  0  0
  -26.3450  -31.7450   25.1620 C   0  0  1  0  0  0  0  0  0  0  0  0
  -25.2250  -31.4780   26.1960 C   0  0  0  0  0  1  0  0  0  0  0  0
  -26.9830  -30.3820   24.8120 C   0  0  0  0  0  1  0  0  0  0  0  0
  -27.4500  -32.5810   25.8490 C   0  0  0  0  0  1  0  0  0  0  0  0
  2  1  2  0
  3  2  1  0
  4  3  1  0
  5  4  1  0
  5  1  1  0
  6  3  2  0
  7  8  2  0
  8 11  1  0
  9 15  1  0
  9 12  1  0
 10  5  1  0
 10  7  1  0
 10  9  1  0
 11 13  1  0
 12 11  1  0
 12 14  1  0
 15 21  1  0
 16 21  1  0
 17 18  1  0
 17 16  1  0
 19 18  1  0
 19 26  1  0
 19 20  1  0
 21 20  1  0
 22 15  2  0
 23 24  2  0
 24 43  1  0
 25 28  1  0
 25 24  1  0
 26 27  1  0
 26 23  1  0
 27 25  2  0
 28 29  1  0
 29 30  2  0
 31 34  1  0
 31 30  1  0
 32 31  2  0
 33 32  1  0
 33 28  2  0
 34 35  1  0
 35 36  1  0
 36 37  2  0
 38 37  1  0
 38 42  1  0
 39 38  2  0
 40 35  2  0
 40 39  1  0
 41 40  1  0
 43 44  1  0
 44 46  1  0
 44 47  1  0
 45 43  2  0
 48 23  1  0
 48 49  1  0
 50 48  1  0
 51  2  1  0
 51 52  1  0
 53 64  2  0
 54 52  1  0
 54 59  1  0
 55 63  1  0
 55 65  1  0
 56 62  1  0
 56 58  1  0
 57 63  1  0
 58 57  1  0
 59 58  2  0
 60 61  1  0
 60 54  2  0
 61 56  2  0
 62 55  1  0
 63 53  1  0
 65 67  2  0
 66 65  1  0
 68 66  1  0
 69 78  2  0
 69 74  1  0
 70 66  1  0
 70 74  1  0
 71 70  1  0
 72 73  1  0
 72 71  1  0
 73 69  1  0
 74 75  2  0
 75 76  1  0
 77 76  2  0
 78 77  1  0
 79 53  1  0
 79 80  1  0
 79 89  1  0
 80 83  1  0
 81 85  1  0
 81 80  1  0
 82 81  2  0
 85 84  1  0
 87 85  1  0
 87 88  1  0
 87 86  1  0
 89 92  1  1
 89 90  1  0
 91 89  1  0
M  ISO  4   9 100  15 100  51 101  52 101
M  END
>  <TORSDO>  (33) 
F 18

>  <SCORE>  (33) 
-12.047

>  <name>  (33) 
32

>  <ligand_id>  (33) 
32

>  <original_smiles>  (33) 
[H]C1=C(C([H])([H])Oc2c([H])c([H])c3c(c2[H])C([H])([H])N(C(=O)C([H])(N([H])C(=O)C([H])(N([H])C([H])([H])[H])C([H])([H])[H])C(C([H])([H])[H])(C([H])([H])[H])C([H])([H])[H])C([H])(C(=O)N([H])C2([H])c4c([H])c([H])c([H])c([H])c4C([H])([H])C([H])([H])C2([H])[H])C3([H])[H])C(=O)C([H])([H])C1([H])c1c([H])c([H])c(C([H])([H])[H])c(C([H])([H])[H])c1C(=O)N1C([H])([H])C([H])([H])C([H])([H])C([H])(n2nc(-c3c([H])c([H])c(Oc4c([H])c([H])c(F)c([H])c4F)c([H])c3[H])c(C(=O)N([H])[H])c2N([H])[H])C1([H])[H]

>  <smiles>  (33) 
[H]C1=C(C([H])([H])Oc2c([H])c([H])c3c(c2[H])C([H])([H])N(C(=O)C([H])(N([H])C(=O)C([H])(N([H])C([H])([H])[H])C([H])([H])[H])C(C([H])([H])[H])(C([H])([H])[H])C([H])([H])[H])C([H])(C(=O)N([H])C2([H])c4c([H])c([H])c([H])c([H])c4C([H])([H])C([H])([H])C2([H])[H])C3([H])[H])C(=O)C([H])([H])C1([H])c1c([H])c([H])c(C([H])([H])[H])c(C([H])([H])[H])c1C(=O)N1C([H])([H])C([H])([H])C([H])([H])C([H])(n2nc(-c3c([H])c([H])c(Oc4c([H])c([H])c(F)c([H])c4F)c([H])c3[H])c(C(=O)N([H])[H])c2N([H])[H])C1([H])[H]

$$$$
33:0:0
     RDKit          3D

 93101  0  0  1  0  0  0  0  0999 V2000
  -28.2930  -24.6620   22.5160 C   0  0  0  0  0  3  0  0  0  0  0  0
  -27.5210  -25.2220   21.4800 C   0  0  0  0  0  3  0  0  0  0  0  0
  -29.5360  -26.1550   20.4940 C   0  0  0  0  0  3  0  0  0  0  0  0
  -29.7000  -24.8230   22.5470 C   0  0  0  0  0  0  0  0  0  0  0  0
  -30.3220  -25.5970   21.5270 C   0  0  0  0  0  0  0  0  0  0  0  0
  -28.1420  -25.9670   20.4590 C   0  0  0  0  0  0  0  0  0  0  0  0
  -31.8290  -25.8190   21.4770 C   0  0  0  0  0  1  0  0  0  0  0  0
  -30.4700  -24.2120   23.6750 C   0  0  0  0  0  0  0  0  0  0  0  0
  -31.3010  -24.8260   24.3500 O   0  0  0  0  0  0  0  0  0  0  0  0
  -30.2380  -22.7240   23.9610 C   0  0  0  0  0  2  0  0  0  0  0  0
  -30.8790  -21.8150   22.8960 C   0  0  0  0  0  2  0  0  0  0  0  0
  -30.6560  -20.3240   23.1910 C   0  0  0  0  0  2  0  0  0  0  0  0
  -31.2340  -19.4070   22.1020 C   0  0  0  0  0  2  0  0  0  0  0  0
  -30.8190  -17.9410   22.2970 C   0  0  0  0  0  2  0  0  0  0  0  0
  -31.3480  -17.0110   21.1920 C   0  0  0  0  0  2  0  0  0  0  0  0
  -30.6910  -15.6160   21.2510 C   0  0  0  0  0  2  0  0  0  0  0  0
  -31.2180  -14.6110   20.2100 C   0  0  0  0  0  0  0  0  0  0  0  0
  -30.8580  -12.5390   18.9080 C   0  0  0  0  0  2  0  0  0  0  0  0
  -29.8880  -12.7890   17.7370 C   0  0  0  0  0  2  0  0  0  0  0  0
  -28.4220  -12.6540   18.1950 C   0  0  0  0  0  2  0  0  0  0  0  0
  -28.1250  -13.4600   19.4860 C   0  0  0  0  0  3  0  0  0  0  0  0
  -29.1930  -13.1690   20.5640 C   0  0  0  0  0  2  0  0  0  0  0  0
  -30.5140  -13.4710   19.9870 N   0  0  0  0  0  0  0  0  0  0  0  0
  -32.2550  -14.8790   19.5900 O   0  0  0  0  0  0  0  0  0  0  0  0
  -25.7330  -14.0880   20.2140 C   0  0  0  0  0  0  0  0  0  0  0  0
  -24.6640  -13.3230   20.5970 C   0  0  0  0  0  0  0  0  0  0  0  0
  -25.1170  -11.9680   20.5640 C   0  0  0  0  0  0  0  0  0  0  0  0
  -26.7720  -13.2000   19.9780 N   0  0  0  0  0  0  0  0  0  0  0  0
  -26.4030  -11.9200   20.2400 N   0  0  0  0  0  0  0  0  0  0  0  0
  -24.3870  -10.7100   20.7660 C   0  0  0  0  0  0  0  0  0  0  0  0
  -24.7730   -9.7850   21.7600 C   0  0  0  0  0  3  0  0  0  0  0  0
  -24.0450   -8.5900   21.9470 C   0  0  0  0  0  3  0  0  0  0  0  0
  -22.9180   -8.3120   21.1390 C   0  0  0  0  0  0  0  0  0  0  0  0
  -22.5510   -9.2250   20.1350 C   0  0  0  0  0  3  0  0  0  0  0  0
  -23.2800  -10.4120   19.9470 C   0  0  0  0  0  3  0  0  0  0  0  0
  -22.1660   -7.1660   21.2320 O   0  0  0  0  0  0  0  0  0  0  0  0
  -21.9760   -6.5250   22.4300 C   0  0  0  0  0  0  0  0  0  0  0  0
  -21.3980   -7.1770   23.5410 C   0  0  0  0  0  3  0  0  0  0  0  0
  -21.1570   -6.4610   24.7310 C   0  0  0  0  0  3  0  0  0  0  0  0
  -21.4820   -5.0950   24.8090 C   0  0  0  0  0  0  0  0  0  0  0  0
  -22.0530   -4.4420   23.7020 C   0  0  0  0  0  3  0  0  0  0  0  0
  -22.2960   -5.1550   22.5150 C   0  0  0  0  0  0  0  0  0  0  0  0
  -22.8260   -4.5160   21.4440 F   0  0  0  0  0  0  0  0  0  0  0  0
  -21.2440   -4.4040   25.9490 F   0  0  0  0  0  0  0  0  0  0  0  0
  -23.2720  -13.8080   20.8870 C   0  0  0  0  0  0  0  0  0  0  0  0
  -22.5570  -13.1230   21.7740 N   0  0  0  0  0  0  0  0  0  0  0  0
  -22.8270  -14.8270   20.3620 O   0  0  0  0  0  0  0  0  0  0  0  0
  -22.9290  -12.2990   22.2220 H   0  0  0  0  0  0  0  0  0  0  0  0
  -21.6240  -13.4310   22.0100 H   0  0  0  0  0  0  0  0  0  0  0  0
  -25.9030  -15.4570   20.0300 N   0  0  0  0  0  0  0  0  0  0  0  0
  -25.1440  -16.1190   20.1480 H   0  0  0  0  0  0  0  0  0  0  0  0
  -26.7600  -15.8890   19.7080 H   0  0  0  0  0  0  0  0  0  0  0  0
  -27.4410  -26.4670   19.3910 O   0  0  0  0  0  0  0  0  0  0  0  0
  -24.4110  -31.7420   23.1060 C   0  0  0  0  0  0  0  0  0  0  0  0
  -26.3470  -27.2590   19.6220 C   0  0  0  0  0  0  0  0  0  0  0  0
  -22.9250  -30.5080   21.5580 C   0  0  0  0  0  3  0  0  0  0  0  0
  -24.0900  -28.9120   19.9450 C   0  0  0  0  0  0  0  0  0  0  0  0
  -25.4340  -30.6790   21.1010 C   0  0  0  0  0  2  0  0  0  0  0  0
  -25.3390  -29.3290   20.4240 C   0  0  0  0  0  0  0  0  0  0  0  0
  -26.4730  -28.5060   20.2680 C   0  0  0  0  0  3  0  0  0  0  0  0
  -25.0870  -26.8430   19.1470 C   0  0  0  0  0  3  0  0  0  0  0  0
  -23.9540  -27.6650   19.3110 C   0  0  0  0  0  3  0  0  0  0  0  0
  -22.9320  -29.8630   20.1450 C   0  0  0  0  0  2  0  0  0  0  0  0
  -24.2810  -30.9870   21.9800 N   0  0  0  0  0  0  0  0  0  0  0  0
  -23.4200  -32.0790   23.7690 O   0  0  0  0  0  0  0  0  0  0  0  0
  -22.2940  -29.5060   22.5510 C   0  0  0  0  0  0  0  0  0  0  0  0
  -20.9680  -29.3250   22.4550 N   0  0  0  0  0  0  0  0  0  0  0  0
  -22.9950  -28.8930   23.3610 O   0  0  0  0  0  0  0  0  0  0  0  0
  -20.4660  -29.8700   21.7700 H   0  0  0  0  0  0  0  0  0  0  0  0
  -17.6420  -27.9880   22.8890 C   0  0  0  0  0  0  0  0  0  0  0  0
  -20.1650  -28.4030   23.2570 C   0  0  0  0  0  3  0  0  0  0  0  0
  -20.3700  -26.9420   22.7970 C   0  0  0  0  0  2  0  0  0  0  0  0
  -19.3370  -26.4850   21.7620 C   0  0  0  0  0  2  0  0  0  0  0  0
  -17.9200  -26.6030   22.3290 C   0  0  0  0  0  2  0  0  0  0  0  0
  -18.6970  -28.8390   23.3100 C   0  0  0  0  0  0  0  0  0  0  0  0
  -18.3870  -30.1300   23.7900 C   0  0  0  0  0  3  0  0  0  0  0  0
  -17.0520  -30.5710   23.8560 C   0  0  0  0  0  3  0  0  0  0  0  0
  -16.0090  -29.7190   23.4530 C   0  0  0  0  0  3  0  0  0  0  0  0
  -16.3050  -28.4300   22.9750 C   0  0  0  0  0  3  0  0  0  0  0  0
  -25.8050  -32.2390   23.6030 C   0  0  0  0  0  3  0  0  0  0  0  0
  -25.6460  -33.6300   24.0480 N   0  0  0  0  0  0  0  0  0  0  0  0
  -25.9990  -34.7020   23.3260 C   0  0  0  0  0  0  0  0  0  0  0  0
  -26.5650  -34.6190   22.2330 O   0  0  0  0  0  0  0  0  0  0  0  0
  -25.1370  -33.7740   24.9070 H   0  0  0  0  0  0  0  0  0  0  0  0
  -24.4000  -36.6410   23.2420 C   0  0  0  0  0  1  0  0  0  0  0  0
  -25.6690  -36.0880   23.9110 C   0  0  0  0  0  3  0  0  0  0  0  0
  -27.9340  -36.7470   24.5940 C   0  0  0  0  0  1  0  0  0  0  0  0
  -26.7720  -37.0640   23.7680 N   0  0  0  0  0  0  0  0  0  0  0  0
  -26.4580  -38.0000   24.0090 H   0  0  0  0  0  0  0  0  0  0  0  0
  -26.4080  -31.3470   24.7570 C   0  0  1  0  0  0  0  0  0  0  0  0
  -25.4350  -31.1150   25.9350 C   0  0  0  0  0  1  0  0  0  0  0  0
  -26.8320  -29.9640   24.2110 C   0  0  0  0  0  1  0  0  0  0  0  0
  -27.6870  -32.0130   25.3190 C   0  0  0  0  0  1  0  0  0  0  0  0
  1  4  1  0
  2  1  2  0
  3  5  1  0
  4  8  1  0
  5  4  2  0
  6  3  2  0
  6  2  1  0
  7  5  1  0
  8 10  1  0
  8  9  2  0
 11 12  1  0
 11 10  1  0
 13 14  1  0
 13 12  1  0
 15 16  1  0
 15 14  1  0
 17 16  1  0
 18 23  1  0
 19 20  1  0
 19 18  1  0
 21 20  1  0
 21 28  1  0
 21 22  1  0
 23 17  1  0
 23 22  1  0
 24 17  2  0
 25 26  2  0
 26 45  1  0
 27 26  1  0
 27 30  1  0
 28 25  1  0
 28 29  1  0
 29 27  2  0
 30 31  1  0
 31 32  2  0
 33 36  1  0
 33 32  1  0
 34 33  2  0
 35 34  1  0
 35 30  2  0
 36 37  1  0
 37 42  2  0
 37 38  1  0
 38 39  2  0
 39 40  1  0
 40 44  1  0
 41 40  2  0
 42 41  1  0
 43 42  1  0
 45 46  1  0
 46 49  1  0
 46 48  1  0
 47 45  2  0
 50 51  1  0
 50 25  1  0
 52 50  1  0
 53 55  1  0
 53  6  1  0
 54 65  2  0
 55 60  1  0
 56 64  1  0
 56 66  1  0
 57 63  1  0
 57 59  1  0
 58 64  1  0
 59 58  1  0
 60 59  2  0
 61 62  1  0
 61 55  2  0
 62 57  2  0
 63 56  1  0
 64 54  1  0
 66 68  2  0
 67 66  1  0
 69 67  1  0
 70 79  2  0
 70 75  1  0
 71 67  1  0
 71 75  1  0
 72 71  1  0
 73 74  1  0
 73 72  1  0
 74 70  1  0
 75 76  2  0
 76 77  1  0
 78 77  2  0
 79 78  1  0
 80 54  1  0
 80 81  1  0
 80 90  1  0
 81 84  1  0
 82 86  1  0
 82 81  1  0
 83 82  2  0
 86 85  1  0
 88 86  1  0
 88 89  1  0
 88 87  1  0
 90 93  1  1
 90 91  1  0
 92 90  1  0
M  ISO  4   6 101  16 100  17 100  53 101
M  END
>  <TORSDO>  (34) 
F 24

>  <SCORE>  (34) 
-7.146

>  <name>  (34) 
33

>  <ligand_id>  (34) 
33

>  <original_smiles>  (34) 
[H]c1c([H])c([H])c2c(c1[H])C([H])([H])C([H])([H])C([H])([H])C2([H])N([H])C(=O)C1([H])N(C(=O)C([H])(N([H])C(=O)C([H])(N([H])C([H])([H])[H])C([H])([H])[H])C(C([H])([H])[H])(C([H])([H])[H])C([H])([H])[H])C([H])([H])c2c([H])c(Oc3c([H])c([H])c(C(=O)C([H])([H])C([H])([H])C([H])([H])C([H])([H])C([H])([H])C([H])([H])C([H])([H])C(=O)N4C([H])([H])C([H])([H])C([H])([H])C([H])(n5nc(-c6c([H])c([H])c(Oc7c([H])c([H])c(F)c([H])c7F)c([H])c6[H])c(C(=O)N([H])[H])c5N([H])[H])C4([H])[H])c(C([H])([H])[H])c3[H])c([H])c([H])c2C1([H])[H]

>  <smiles>  (34) 
[H]c1c([H])c([H])c2c(c1[H])C([H])([H])C([H])([H])C([H])([H])C2([H])N([H])C(=O)C1([H])N(C(=O)C([H])(N([H])C(=O)C([H])(N([H])C([H])([H])[H])C([H])([H])[H])C(C([H])([H])[H])(C([H])([H])[H])C([H])([H])[H])C([H])([H])c2c([H])c(Oc3c([H])c([H])c(C(=O)C([H])([H])C([H])([H])C([H])([H])C([H])([H])C([H])([H])C([H])([H])C([H])([H])C(=O)N4C([H])([H])C([H])([H])C([H])([H])C([H])(n5nc(-c6c([H])c([H])c(Oc7c([H])c([H])c(F)c([H])c7F)c([H])c6[H])c(C(=O)N([H])[H])c5N([H])[H])C4([H])[H])c(C([H])([H])[H])c3[H])c([H])c([H])c2C1([H])[H]

$$$$
34:0:0
     RDKit          3D

 91 99  0  0  1  0  0  0  0  0999 V2000
  -28.4720  -21.6190   21.2960 C   0  0  0  0  0  3  0  0  0  0  0  0
  -28.1210  -23.1020   21.2980 C   0  0  0  0  0  3  0  0  0  0  0  0
  -29.2270  -21.8070   19.2030 C   0  0  0  0  0  3  0  0  0  0  0  0
  -29.0730  -20.7590   20.2450 C   0  0  0  0  0  0  0  0  0  0  0  0
  -28.8980  -23.3010   19.1950 C   0  0  0  0  0  0  0  0  0  0  0  0
  -28.2800  -24.1420   20.2520 C   0  0  0  0  0  0  0  0  0  0  0  0
  -29.7770  -23.3750   16.7260 C   0  0  0  0  0  1  0  0  0  0  0  0
  -29.3130  -24.1310   17.9790 C   0  0  0  0  0  2  0  0  0  0  0  0
  -28.1980  -25.7370   20.3060 O   0  0  0  0  0  0  0  0  0  0  0  0
  -24.6300  -31.8960   23.2390 C   0  0  0  0  0  0  0  0  0  0  0  0
  -27.1590  -26.8640   20.2780 C   0  0  0  0  0  0  0  0  0  0  0  0
  -23.4330  -30.4920   21.6110 C   0  0  0  0  0  3  0  0  0  0  0  0
  -24.8760  -28.8410   20.2070 C   0  0  0  0  0  0  0  0  0  0  0  0
  -26.0070  -30.6510   21.4770 C   0  0  0  0  0  2  0  0  0  0  0  0
  -26.0670  -29.2190   20.8360 C   0  0  0  0  0  0  0  0  0  0  0  0
  -27.1910  -28.2550   20.8450 C   0  0  0  0  0  3  0  0  0  0  0  0
  -25.9370  -26.6720   19.5880 C   0  0  0  0  0  3  0  0  0  0  0  0
  -24.8440  -27.5900   19.5620 C   0  0  0  0  0  3  0  0  0  0  0  0
  -23.6670  -29.7850   20.2430 C   0  0  0  0  0  2  0  0  0  0  0  0
  -24.7130  -31.0450   22.1620 N   0  0  0  0  0  0  0  0  0  0  0  0
  -23.5400  -32.1980   23.7540 O   0  0  0  0  0  0  0  0  0  0  0  0
  -22.7240  -29.5170   22.5880 C   0  0  0  0  0  0  0  0  0  0  0  0
  -21.3940  -29.3530   22.4580 N   0  0  0  0  0  0  0  0  0  0  0  0
  -23.3820  -28.9060   23.4330 O   0  0  0  0  0  0  0  0  0  0  0  0
  -20.9150  -29.8950   21.7540 H   0  0  0  0  0  0  0  0  0  0  0  0
  -18.0110  -28.1360   22.9650 C   0  0  0  0  0  0  0  0  0  0  0  0
  -20.5690  -28.4210   23.2360 C   0  0  0  0  0  3  0  0  0  0  0  0
  -20.6800  -26.9830   22.6810 C   0  0  0  0  0  2  0  0  0  0  0  0
  -19.5850  -26.6430   21.6630 C   0  0  0  0  0  2  0  0  0  0  0  0
  -18.2000  -26.7830   22.3000 C   0  0  0  0  0  2  0  0  0  0  0  0
  -19.1220  -28.9130   23.3910 C   0  0  0  0  0  0  0  0  0  0  0  0
  -18.8890  -30.1750   23.9780 C   0  0  0  0  0  3  0  0  0  0  0  0
  -17.5770  -30.6620   24.1400 C   0  0  0  0  0  3  0  0  0  0  0  0
  -16.4810  -29.8850   23.7280 C   0  0  0  0  0  3  0  0  0  0  0  0
  -16.7000  -28.6230   23.1480 C   0  0  0  0  0  3  0  0  0  0  0  0
  -25.9000  -32.5440   23.8700 C   0  0  0  0  0  3  0  0  0  0  0  0
  -26.3980  -31.7920   25.1670 C   0  0  1  0  0  0  0  0  0  0  0  0
  -25.2920  -31.5760   26.2270 C   0  0  0  0  0  1  0  0  0  0  0  0
  -26.9810  -30.4050   24.8140 C   0  0  0  0  0  1  0  0  0  0  0  0
  -27.5440  -32.5910   25.8300 C   0  0  0  0  0  1  0  0  0  0  0  0
  -25.5840  -33.9480   24.1970 N   0  0  0  0  0  0  0  0  0  0  0  0
  -25.9050  -35.0070   23.4420 C   0  0  0  0  0  0  0  0  0  0  0  0
  -26.5560  -34.9040   22.4000 O   0  0  0  0  0  0  0  0  0  0  0  0
  -25.0020  -34.0990   25.0090 H   0  0  0  0  0  0  0  0  0  0  0  0
  -24.1670  -36.8070   23.1370 C   0  0  0  0  0  1  0  0  0  0  0  0
  -25.4310  -36.3980   23.9130 C   0  0  0  0  0  3  0  0  0  0  0  0
  -27.5820  -37.2940   24.6890 C   0  0  0  0  0  1  0  0  0  0  0  0
  -26.4590  -37.4530   23.7710 N   0  0  0  0  0  0  0  0  0  0  0  0
  -26.0540  -38.3740   23.9210 H   0  0  0  0  0  0  0  0  0  0  0  0
  -29.8240  -19.0730   20.3240 C   0  0  0  0  0  3  0  0  0  0  0  0
  -31.1110  -19.2260   19.6300 N   0  0  0  0  0  4  0  0  0  0  0  0
  -31.7370  -18.4870   19.8910 H   0  0  0  0  0  0  0  0  0  0  0  0
  -31.5340  -20.1000   19.8810 H   0  0  0  0  0  0  0  0  0  0  0  0
  -30.9820  -19.2030   18.6350 H   0  0  0  0  0  0  0  0  0  0  0  0
  -29.4140  -17.2260   20.2350 C   0  0  0  0  0  2  0  0  0  0  0  0
  -30.2920  -15.6070   20.1570 C   0  0  0  0  0  0  0  0  0  0  0  0
  -30.3940  -13.0840   19.3410 C   0  0  0  0  0  2  0  0  0  0  0  0
  -29.4660  -12.7570   18.1360 C   0  0  0  0  0  2  0  0  0  0  0  0
  -28.0410  -12.4200   18.6090 C   0  0  0  0  0  2  0  0  0  0  0  0
  -27.5660  -13.3930   19.7120 C   0  0  0  0  0  3  0  0  0  0  0  0
  -28.6250  -13.6470   20.8060 C   0  0  0  0  0  2  0  0  0  0  0  0
  -29.8120  -14.2360   20.1510 N   0  0  0  0  0  0  0  0  0  0  0  0
  -31.5140  -15.5890   19.9260 O   0  0  0  0  0  0  0  0  0  0  0  0
  -25.2210  -13.8990   20.5620 C   0  0  0  0  0  0  0  0  0  0  0  0
  -24.1790  -13.1040   20.9440 C   0  0  0  0  0  0  0  0  0  0  0  0
  -24.6570  -11.7600   20.8700 C   0  0  0  0  0  0  0  0  0  0  0  0
  -26.2630  -13.0410   20.2610 N   0  0  0  0  0  0  0  0  0  0  0  0
  -25.9400  -11.7450   20.5170 N   0  0  0  0  0  0  0  0  0  0  0  0
  -23.9430  -10.4870   21.0550 C   0  0  0  0  0  0  0  0  0  0  0  0
  -24.3970   -9.5110   21.9690 C   0  0  0  0  0  3  0  0  0  0  0  0
  -23.6810   -8.3060   22.1450 C   0  0  0  0  0  3  0  0  0  0  0  0
  -22.4950   -8.0700   21.4080 C   0  0  0  0  0  0  0  0  0  0  0  0
  -22.0600   -9.0360   20.4820 C   0  0  0  0  0  3  0  0  0  0  0  0
  -22.7790  -10.2310   20.3050 C   0  0  0  0  0  3  0  0  0  0  0  0
  -21.7500   -6.9190   21.4930 O   0  0  0  0  0  0  0  0  0  0  0  0
  -21.7070   -6.1730   22.6440 C   0  0  0  0  0  0  0  0  0  0  0  0
  -21.2540   -6.7160   23.8670 C   0  0  0  0  0  3  0  0  0  0  0  0
  -21.1590   -5.8950   25.0090 C   0  0  0  0  0  3  0  0  0  0  0  0
  -21.5080   -4.5330   24.9290 C   0  0  0  0  0  0  0  0  0  0  0  0
  -21.9530   -3.9900   23.7100 C   0  0  0  0  0  3  0  0  0  0  0  0
  -22.0480   -4.8070   22.5710 C   0  0  0  0  0  0  0  0  0  0  0  0
  -22.4590   -4.2740   21.3950 F   0  0  0  0  0  0  0  0  0  0  0  0
  -21.4090   -3.7430   26.0240 F   0  0  0  0  0  0  0  0  0  0  0  0
  -22.7860  -13.5650   21.2600 C   0  0  0  0  0  0  0  0  0  0  0  0
  -22.0860  -12.8500   22.1330 N   0  0  0  0  0  0  0  0  0  0  0  0
  -22.3300  -14.5950   20.7680 O   0  0  0  0  0  0  0  0  0  0  0  0
  -22.4690  -12.0160   22.5530 H   0  0  0  0  0  0  0  0  0  0  0  0
  -21.1510  -13.1420   22.3830 H   0  0  0  0  0  0  0  0  0  0  0  0
  -25.3660  -15.2750   20.4120 N   0  0  0  0  0  0  0  0  0  0  0  0
  -24.5940  -15.9160   20.5630 H   0  0  0  0  0  0  0  0  0  0  0  0
  -26.1980  -15.7330   20.0620 H   0  0  0  0  0  0  0  0  0  0  0  0
  1  2  1  0
  3  4  1  0
  4 50  1  0
  4  1  2  0
  5  3  2  0
  5  6  1  0
  6  9  1  0
  6  2  2  0
  7  8  1  0
  8  5  1  0
 10 21  2  0
 11  9  1  0
 11 16  1  0
 12 20  1  0
 12 22  1  0
 13 19  1  0
 13 15  1  0
 14 20  1  0
 15 16  2  0
 15 14  1  0
 17 11  2  0
 18 17  1  0
 18 13  2  0
 19 12  1  0
 20 10  1  0
 22 24  2  0
 23 22  1  0
 25 23  1  0
 26 35  2  0
 26 31  1  0
 27 23  1  0
 27 31  1  0
 28 27  1  0
 29 30  1  0
 29 28  1  0
 30 26  1  0
 31 32  2  0
 32 33  1  0
 34 33  2  0
 35 34  1  0
 36 10  1  0
 36 41  1  0
 36 37  1  0
 37 40  1  1
 37 38  1  0
 39 37  1  0
 41 44  1  0
 42 46  1  0
 42 41  1  0
 43 42  2  0
 46 45  1  0
 48 46  1  0
 48 49  1  0
 48 47  1  0
 50 55  1  0
 51 53  1  0
 51 52  1  0
 51 50  1  0
 54 51  1  0
 56 55  1  0
 57 62  1  0
 58 59  1  0
 58 57  1  0
 60 59  1  0
 60 67  1  0
 60 61  1  0
 62 56  1  0
 62 61  1  0
 63 56  2  0
 64 65  2  0
 65 84  1  0
 66 65  1  0
 66 69  1  0
 67 68  1  0
 67 64  1  0
 68 66  2  0
 69 70  1  0
 70 71  2  0
 72 75  1  0
 72 71  1  0
 73 72  2  0
 74 73  1  0
 74 69  2  0
 75 76  1  0
 76 77  1  0
 77 78  2  0
 79 78  1  0
 79 83  1  0
 80 79  2  0
 81 76  2  0
 81 80  1  0
 82 81  1  0
 84 85  1  0
 85 88  1  0
 85 87  1  0
 86 84  2  0
 89 64  1  0
 89 90  1  0
 91 89  1  0
M  ISO  4   6 101   9 101  55 100  56 100
M  END
>  <TORSDO>  (35) 
F 20

>  <SCORE>  (35) 
-15.505

>  <name>  (35) 
34

>  <ligand_id>  (35) 
34

>  <original_smiles>  (35) 
[H]c1c([H])c([H])c2c(c1[H])C([H])([H])C([H])([H])C([H])([H])C2([H])N([H])C(=O)C1([H])N(C(=O)C([H])(N([H])C(=O)C([H])(N([H])C([H])([H])[H])C([H])([H])[H])C(C([H])([H])[H])(C([H])([H])[H])C([H])([H])[H])C([H])([H])c2c([H])c(Oc3c([H])c([H])c(C([H])(C([H])([H])C(=O)N4C([H])([H])C([H])([H])C([H])([H])C([H])(n5nc(-c6c([H])c([H])c(Oc7c([H])c([H])c(F)c([H])c7F)c([H])c6[H])c(C(=O)N([H])[H])c5N([H])[H])C4([H])[H])[N+]([H])([H])[H])c([H])c3C([H])([H])C([H])([H])[H])c([H])c([H])c2C1([H])[H]

>  <smiles>  (35) 
[H]c1c([H])c([H])c2c(c1[H])C([H])([H])C([H])([H])C([H])([H])C2([H])N([H])C(=O)C1([H])N(C(=O)C([H])(N([H])C(=O)C([H])(N([H])C([H])([H])[H])C([H])([H])[H])C(C([H])([H])[H])(C([H])([H])[H])C([H])([H])[H])C([H])([H])c2c([H])c(Oc3c([H])c([H])c(C([H])(C([H])([H])C(=O)N4C([H])([H])C([H])([H])C([H])([H])C([H])(n5nc(-c6c([H])c([H])c(Oc7c([H])c([H])c(F)c([H])c7F)c([H])c6[H])c(C(=O)N([H])[H])c5N([H])[H])C4([H])[H])[N+]([H])([H])[H])c([H])c3C([H])([H])C([H])([H])[H])c([H])c([H])c2C1([H])[H]

$$$$
35:0:0
     RDKit          3D

 96104  0  0  1  0  0  0  0  0999 V2000
  -26.8530  -24.0000   21.3960 C   0  0  0  0  0  0  0  0  0  0  0  0
  -26.2010  -25.2030   21.7870 C   0  0  0  0  0  0  0  0  0  0  0  0
  -28.1990  -24.0700   20.8910 C   0  0  0  0  0  0  0  0  0  0  0  0
  -26.8360  -26.4510   21.5380 C   0  0  0  0  0  0  0  0  0  0  0  0
  -28.6430  -25.3390   20.3640 C   0  0  0  0  0  0  0  0  0  0  0  0
  -27.8810  -26.5390   20.5440 C   0  0  0  0  0  0  0  0  0  0  0  0
  -26.1030  -22.6810   21.6330 C   0  0  0  0  0  1  0  0  0  0  0  0
  -24.8800  -25.1480   22.5900 C   0  0  0  0  0  1  0  0  0  0  0  0
  -26.3920  -27.6210   22.4270 C   0  0  0  0  0  1  0  0  0  0  0  0
  -29.9780  -25.4270   19.6170 C   0  0  0  0  0  1  0  0  0  0  0  0
  -28.1630  -27.6930   19.7490 O   0  0  0  0  0  0  0  0  0  0  0  0
  -24.4940  -32.0320   23.6160 C   0  0  0  0  0  0  0  0  0  0  0  0
  -27.1070  -28.5590   19.5580 C   0  0  0  0  0  0  0  0  0  0  0  0
  -23.2260  -30.8200   21.8730 C   0  0  0  0  0  3  0  0  0  0  0  0
  -24.6250  -29.8070   19.9770 C   0  0  0  0  0  0  0  0  0  0  0  0
  -25.6440  -31.5470   21.4560 C   0  0  0  0  0  2  0  0  0  0  0  0
  -25.7880  -30.3610   20.5320 C   0  0  0  0  0  0  0  0  0  0  0  0
  -27.0510  -29.7700   20.2830 C   0  0  0  0  0  3  0  0  0  0  0  0
  -25.9580  -28.0940   18.8790 C   0  0  0  0  0  3  0  0  0  0  0  0
  -24.7130  -28.7030   19.1100 C   0  0  0  0  0  3  0  0  0  0  0  0
  -23.3060  -30.4380   20.3640 C   0  0  0  0  0  2  0  0  0  0  0  0
  -24.4850  -31.4610   22.3750 N   0  0  0  0  0  0  0  0  0  0  0  0
  -23.4720  -32.0570   24.3170 O   0  0  0  0  0  0  0  0  0  0  0  0
  -22.8140  -29.5700   22.6870 C   0  0  0  0  0  0  0  0  0  0  0  0
  -21.5790  -29.0880   22.4770 N   0  0  0  0  0  0  0  0  0  0  0  0
  -23.5990  -29.0380   23.4730 O   0  0  0  0  0  0  0  0  0  0  0  0
  -20.9800  -29.5680   21.8220 H   0  0  0  0  0  0  0  0  0  0  0  0
  -18.7300  -26.8710   22.4830 C   0  0  0  0  0  0  0  0  0  0  0  0
  -21.0220  -27.8920   23.1090 C   0  0  0  0  0  3  0  0  0  0  0  0
  -21.6410  -26.6140   22.4980 C   0  0  0  0  0  2  0  0  0  0  0  0
  -20.8240  -26.0210   21.3500 C   0  0  0  0  0  2  0  0  0  0  0  0
  -19.4140  -25.6720   21.8340 C   0  0  0  0  0  2  0  0  0  0  0  0
  -19.4870  -27.9130   23.0800 C   0  0  0  0  0  0  0  0  0  0  0  0
  -18.8080  -29.0180   23.6410 C   0  0  0  0  0  3  0  0  0  0  0  0
  -17.4040  -29.0870   23.6280 C   0  0  0  0  0  3  0  0  0  0  0  0
  -16.6580  -28.0540   23.0380 C   0  0  0  0  0  3  0  0  0  0  0  0
  -17.3190  -26.9500   22.4680 C   0  0  0  0  0  3  0  0  0  0  0  0
  -25.7820  -32.7050   24.1940 C   0  0  0  0  0  3  0  0  0  0  0  0
  -26.3750  -31.9420   25.4410 C   0  0  1  0  0  0  0  0  0  0  0  0
  -25.3230  -31.6520   26.5360 C   0  0  0  0  0  1  0  0  0  0  0  0
  -27.0150  -30.6030   25.0030 C   0  0  0  0  0  1  0  0  0  0  0  0
  -27.5020  -32.7840   26.0780 C   0  0  0  0  0  1  0  0  0  0  0  0
  -25.4430  -34.0870   24.5580 N   0  0  0  0  0  0  0  0  0  0  0  0
  -25.7920  -35.1710   23.8520 C   0  0  0  0  0  0  0  0  0  0  0  0
  -26.5170  -35.1150   22.8570 O   0  0  0  0  0  0  0  0  0  0  0  0
  -24.8660  -34.2050   25.3750 H   0  0  0  0  0  0  0  0  0  0  0  0
  -24.0910  -36.9640   23.4170 C   0  0  0  0  0  1  0  0  0  0  0  0
  -25.2460  -36.5300   24.3350 C   0  0  0  0  0  3  0  0  0  0  0  0
  -27.2960  -37.3840   25.3900 C   0  0  0  0  0  1  0  0  0  0  0  0
  -26.2660  -37.5980   24.3770 N   0  0  0  0  0  0  0  0  0  0  0  0
  -25.8270  -38.4980   24.5570 H   0  0  0  0  0  0  0  0  0  0  0  0
  -29.2440  -22.8930   20.9850 C   0  0  0  0  0  3  0  0  0  0  0  0
  -28.8280  -21.4060   20.8210 C   0  0  0  0  0  3  0  0  0  0  0  0
  -29.8500  -20.3550   21.3110 C   0  0  0  0  0  2  0  0  0  0  0  0
  -30.8400  -19.8440   20.2680 C   0  0  0  0  0  2  0  0  0  0  0  0
  -31.7790  -18.7840   20.8530 C   0  0  0  0  0  2  0  0  0  0  0  0
  -32.7580  -18.2760   19.7940 C   0  0  0  0  0  2  0  0  0  0  0  0
  -33.6830  -17.1680   20.3080 C   0  0  0  0  0  2  0  0  0  0  0  0
  -33.4250  -15.7780   19.6630 C   0  0  0  0  0  2  0  0  0  0  0  0
  -31.9690  -15.1880   19.6810 C   0  0  0  0  0  2  0  0  0  0  0  0
  -31.7600  -14.0020   18.6880 C   0  0  0  0  0  0  0  0  0  0  0  0
  -31.1620  -11.6230   18.3290 C   0  0  0  0  0  2  0  0  0  0  0  0
  -29.9960  -11.3380   17.3700 C   0  0  0  0  0  2  0  0  0  0  0  0
  -28.6490  -11.3930   18.1020 C   0  0  0  0  0  2  0  0  0  0  0  0
  -28.5090  -12.6860   18.9440 C   0  0  0  0  0  3  0  0  0  0  0  0
  -29.7540  -12.9610   19.8280 C   0  0  0  0  0  2  0  0  0  0  0  0
  -30.9680  -12.9320   18.9900 N   0  0  0  0  0  0  0  0  0  0  0  0
  -32.4460  -14.0080   17.6570 O   0  0  0  0  0  0  0  0  0  0  0  0
  -26.5800  -13.7180   20.2980 C   0  0  0  0  0  0  0  0  0  0  0  0
  -25.4500  -13.1670   20.8590 C   0  0  0  0  0  0  0  0  0  0  0  0
  -25.5130  -11.7740   20.5700 C   0  0  0  0  0  0  0  0  0  0  0  0
  -27.2740  -12.6630   19.7260 N   0  0  0  0  0  0  0  0  0  0  0  0
  -26.6380  -11.4810   19.9300 N   0  0  0  0  0  0  0  0  0  0  0  0
  -24.5310  -10.7040   20.8140 C   0  0  0  0  0  0  0  0  0  0  0  0
  -24.8180   -9.6200   21.6720 C   0  0  0  0  0  3  0  0  0  0  0  0
  -23.8540   -8.6140   21.9040 C   0  0  0  0  0  3  0  0  0  0  0  0
  -22.5860   -8.6910   21.2800 C   0  0  0  0  0  0  0  0  0  0  0  0
  -22.3150   -9.7580   20.4030 C   0  0  0  0  0  3  0  0  0  0  0  0
  -23.2780  -10.7550   20.1700 C   0  0  0  0  0  3  0  0  0  0  0  0
  -21.5990   -7.7440   21.4220 O   0  0  0  0  0  0  0  0  0  0  0  0
  -21.4810   -6.9970   22.5670 C   0  0  0  0  0  0  0  0  0  0  0  0
  -21.2140   -7.5890   23.8220 C   0  0  0  0  0  3  0  0  0  0  0  0
  -21.0310   -6.7760   24.9570 C   0  0  0  0  0  3  0  0  0  0  0  0
  -21.1040   -5.3760   24.8430 C   0  0  0  0  0  0  0  0  0  0  0  0
  -21.3620   -4.7830   23.5930 C   0  0  0  0  0  3  0  0  0  0  0  0
  -21.5440   -5.5930   22.4560 C   0  0  0  0  0  0  0  0  0  0  0  0
  -21.7710   -5.0160   21.2530 F   0  0  0  0  0  0  0  0  0  0  0  0
  -20.9190   -4.5950   25.9320 F   0  0  0  0  0  0  0  0  0  0  0  0
  -24.3440  -13.9140   21.5450 C   0  0  0  0  0  0  0  0  0  0  0  0
  -23.6900  -13.2800   22.5220 N   0  0  0  0  0  0  0  0  0  0  0  0
  -24.0810  -15.0790   21.2630 O   0  0  0  0  0  0  0  0  0  0  0  0
  -23.9150  -12.3260   22.7650 H   0  0  0  0  0  0  0  0  0  0  0  0
  -22.9560  -13.7550   23.0260 H   0  0  0  0  0  0  0  0  0  0  0  0
  -27.0620  -15.0150   20.2150 N   0  0  0  0  0  0  0  0  0  0  0  0
  -26.5560  -15.8180   20.5710 H   0  0  0  0  0  0  0  0  0  0  0  0
  -27.9260  -15.2680   19.7460 H   0  0  0  0  0  0  0  0  0  0  0  0
  1  7  1  0
  1  2  1  0
  2  8  1  0
  3 52  1  0
  3  1  2  0
  4  2  2  0
  4  9  1  0
  5  6  2  0
  5  3  1  0
  6  4  1  0
 10  5  1  0
 11  6  1  0
 12 23  2  0
 13 11  1  0
 13 18  1  0
 14 22  1  0
 14 24  1  0
 15 21  1  0
 15 17  1  0
 16 22  1  0
 17 16  1  0
 18 17  2  0
 19 20  1  0
 19 13  2  0
 20 15  2  0
 21 14  1  0
 22 12  1  0
 24 26  2  0
 25 24  1  0
 27 25  1  0
 28 33  1  0
 29 25  1  0
 30 29  1  0
 31 32  1  0
 31 30  1  0
 32 28  1  0
 33 29  1  0
 33 34  2  0
 35 34  1  0
 36 35  2  0
 37 28  2  0
 37 36  1  0
 38 12  1  0
 38 43  1  0
 38 39  1  0
 39 42  1  1
 39 40  1  0
 41 39  1  0
 43 46  1  0
 44 48  1  0
 44 43  1  0
 45 44  2  0
 48 47  1  0
 48 50  1  0
 50 51  1  0
 50 49  1  0
 53 52  2  0
 53 54  1  0
 55 56  1  0
 55 54  1  0
 57 58  1  0
 57 56  1  0
 59 60  1  0
 59 58  1  0
 61 67  1  0
 61 60  1  0
 62 67  1  0
 63 64  1  0
 63 62  1  0
 65 64  1  0
 65 72  1  0
 65 66  1  0
 67 66  1  0
 68 61  2  0
 69 70  2  0
 70 89  1  0
 71 74  1  0
 71 70  1  0
 72 73  1  0
 72 69  1  0
 73 71  2  0
 74 75  1  0
 75 76  2  0
 77 80  1  0
 77 76  1  0
 78 77  2  0
 79 78  1  0
 79 74  2  0
 80 81  1  0
 81 82  1  0
 82 83  2  0
 84 83  1  0
 84 88  1  0
 85 84  2  0
 86 81  2  0
 86 85  1  0
 87 86  1  0
 89 90  1  0
 90 92  1  0
 90 93  1  0
 91 89  2  0
 94 69  1  0
 94 95  1  0
 96 94  1  0
M  ISO  4   6 101  11 101  60 100  61 100
M  END
>  <TORSDO>  (36) 
F 25

>  <SCORE>  (36) 
-6.932

>  <name>  (36) 
35

>  <ligand_id>  (36) 
35

>  <original_smiles>  (36) 
[H]c1c([H])c([H])c2c(c1[H])C([H])([H])C([H])([H])C([H])([H])C2([H])N([H])C(=O)C1([H])N(C(=O)C([H])(N([H])C(=O)C([H])(N([H])C([H])([H])[H])C([H])([H])[H])C(C([H])([H])[H])(C([H])([H])[H])C([H])([H])[H])C([H])([H])c2c([H])c(Oc3c(C([H])([H])[H])c(C([H])([H])[H])c(C([H])([H])[H])c(C([H])([H])C([H])([H])C([H])([H])C([H])([H])C([H])([H])C([H])([H])C([H])([H])C([H])([H])C([H])([H])C(=O)N4C([H])([H])C([H])([H])C([H])([H])C([H])(n5nc(-c6c([H])c([H])c(Oc7c([H])c([H])c(F)c([H])c7F)c([H])c6[H])c(C(=O)N([H])[H])c5N([H])[H])C4([H])[H])c3C([H])([H])[H])c([H])c([H])c2C1([H])[H]

>  <smiles>  (36) 
[H]c1c([H])c([H])c2c(c1[H])C([H])([H])C([H])([H])C([H])([H])C2([H])N([H])C(=O)C1([H])N(C(=O)C([H])(N([H])C(=O)C([H])(N([H])C([H])([H])[H])C([H])([H])[H])C(C([H])([H])[H])(C([H])([H])[H])C([H])([H])[H])C([H])([H])c2c([H])c(Oc3c(C([H])([H])[H])c(C([H])([H])[H])c(C([H])([H])[H])c(C([H])([H])C([H])([H])C([H])([H])C([H])([H])C([H])([H])C([H])([H])C([H])([H])C([H])([H])C([H])([H])C(=O)N4C([H])([H])C([H])([H])C([H])([H])C([H])(n5nc(-c6c([H])c([H])c(Oc7c([H])c([H])c(F)c([H])c7F)c([H])c6[H])c(C(=O)N([H])[H])c5N([H])[H])C4([H])[H])c3C([H])([H])[H])c([H])c([H])c2C1([H])[H]

$$$$
36:0:0
     RDKit          3D

 90 99  0  0  1  0  0  0  0  0999 V2000
  -30.0380  -22.7010   19.7840 C   0  0  0  0  0  3  0  0  0  0  0  0
  -27.5980  -23.8100   20.3960 C   0  0  0  0  0  3  0  0  0  0  0  0
  -29.0870  -21.6580   20.0980 C   0  0  0  0  0  0  0  0  0  0  0  0
  -29.8040  -24.1580   19.7680 C   0  0  0  0  0  0  0  0  0  0  0  0
  -27.8330  -22.3420   20.4120 C   0  0  0  0  0  0  0  0  0  0  0  0
  -28.5540  -24.8460   20.0490 C   0  0  0  0  0  0  0  0  0  0  0  0
  -30.9890  -25.0370   19.4140 C   0  0  0  0  0  1  0  0  0  0  0  0
  -26.6390  -21.4670   20.7430 C   0  0  0  0  0  1  0  0  0  0  0  0
  -28.4500  -26.3560   20.0470 O   0  0  0  0  0  0  0  0  0  0  0  0
  -24.7030  -31.9590   23.2530 C   0  0  0  0  0  0  0  0  0  0  0  0
  -27.3450  -27.3170   20.0630 C   0  0  0  0  0  0  0  0  0  0  0  0
  -23.5290  -30.6110   21.5570 C   0  0  0  0  0  3  0  0  0  0  0  0
  -25.0000  -29.0910   20.0800 C   0  0  0  0  0  0  0  0  0  0  0  0
  -26.0820  -30.8930   21.4160 C   0  0  0  0  0  2  0  0  0  0  0  0
  -26.1730  -29.5150   20.7150 C   0  0  0  0  0  0  0  0  0  0  0  0
  -27.3390  -28.6460   20.6850 C   0  0  0  0  0  3  0  0  0  0  0  0
  -26.1450  -27.0160   19.3850 C   0  0  0  0  0  3  0  0  0  0  0  0
  -25.0030  -27.8590   19.3990 C   0  0  0  0  0  3  0  0  0  0  0  0
  -23.7650  -29.9830   20.1560 C   0  0  0  0  0  2  0  0  0  0  0  0
  -24.7910  -31.1790   22.1300 N   0  0  0  0  0  0  0  0  0  0  0  0
  -23.6110  -32.2110   23.7870 O   0  0  0  0  0  0  0  0  0  0  0  0
  -22.8550  -29.5650   22.4830 C   0  0  0  0  0  0  0  0  0  0  0  0
  -21.5310  -29.3740   22.3380 N   0  0  0  0  0  0  0  0  0  0  0  0
  -23.5290  -28.9280   23.2960 O   0  0  0  0  0  0  0  0  0  0  0  0
  -21.0420  -29.9410   21.6590 H   0  0  0  0  0  0  0  0  0  0  0  0
  -18.1680  -28.0980   22.7860 C   0  0  0  0  0  0  0  0  0  0  0  0
  -20.7230  -28.3940   23.0680 C   0  0  0  0  0  3  0  0  0  0  0  0
  -20.8480  -26.9870   22.4360 C   0  0  0  0  0  2  0  0  0  0  0  0
  -19.7540  -26.6880   21.4070 C   0  0  0  0  0  2  0  0  0  0  0  0
  -18.3690  -26.7820   22.0530 C   0  0  0  0  0  2  0  0  0  0  0  0
  -19.2730  -28.8620   23.2480 C   0  0  0  0  0  0  0  0  0  0  0  0
  -19.0290  -30.0920   23.8960 C   0  0  0  0  0  3  0  0  0  0  0  0
  -17.7150  -30.5610   24.0840 C   0  0  0  0  0  3  0  0  0  0  0  0
  -16.6260  -29.7940   23.6350 C   0  0  0  0  0  3  0  0  0  0  0  0
  -16.8520  -28.5630   22.9930 C   0  0  0  0  0  3  0  0  0  0  0  0
  -25.9680  -32.5920   23.9120 C   0  0  0  0  0  3  0  0  0  0  0  0
  -26.4760  -31.7900   25.1740 C   0  0  1  0  0  0  0  0  0  0  0  0
  -25.3730  -31.5100   26.2220 C   0  0  0  0  0  1  0  0  0  0  0  0
  -27.0800  -30.4290   24.7560 C   0  0  0  0  0  1  0  0  0  0  0  0
  -27.6110  -32.5760   25.8720 C   0  0  0  0  0  1  0  0  0  0  0  0
  -25.6360  -33.9760   24.2890 N   0  0  0  0  0  0  0  0  0  0  0  0
  -25.9580  -35.0630   23.5750 C   0  0  0  0  0  0  0  0  0  0  0  0
  -26.6280  -35.0060   22.5420 O   0  0  0  0  0  0  0  0  0  0  0  0
  -25.0380  -34.0930   25.0940 H   0  0  0  0  0  0  0  0  0  0  0  0
  -24.2180  -36.8600   23.2890 C   0  0  0  0  0  1  0  0  0  0  0  0
  -25.4580  -36.4300   24.0870 C   0  0  0  0  0  3  0  0  0  0  0  0
  -27.5750  -37.3090   24.9720 C   0  0  0  0  0  1  0  0  0  0  0  0
  -26.4820  -37.4960   24.0200 N   0  0  0  0  0  0  0  0  0  0  0  0
  -26.0660  -38.4070   24.1910 H   0  0  0  0  0  0  0  0  0  0  0  0
  -29.3090  -19.9840   19.7670 C   0  0  0  0  0  3  0  0  0  0  0  0
  -29.9280  -18.5440   20.5710 C   0  0  0  0  0  3  0  0  0  0  0  0
  -29.1440  -16.7830   18.6220 C   0  0  0  0  0  2  0  0  0  0  0  0
  -30.5670  -17.1770   18.4150 C   0  0  0  0  0  2  0  0  0  0  0  0
  -30.0460  -16.9740   19.8380 C   0  0  1  0  0  0  0  0  0  0  0  0
  -30.7630  -15.5120   20.3750 C   0  0  0  0  0  0  0  0  0  0  0  0
  -30.7390  -13.0590   19.6280 C   0  0  0  0  0  2  0  0  0  0  0  0
  -29.8680  -12.8330   18.3690 C   0  0  0  0  0  2  0  0  0  0  0  0
  -28.3960  -12.5930   18.7550 C   0  0  0  0  0  2  0  0  0  0  0  0
  -27.8970  -13.5820   19.8380 C   0  0  0  0  0  3  0  0  0  0  0  0
  -28.9060  -13.7880   20.9840 C   0  0  0  0  0  2  0  0  0  0  0  0
  -30.1740  -14.2260   20.3810 N   0  0  0  0  0  0  0  0  0  0  0  0
  -32.0000  -15.4650   20.3980 O   0  0  0  0  0  0  0  0  0  0  0  0
  -25.5020  -14.1610   20.4810 C   0  0  0  0  0  0  0  0  0  0  0  0
  -24.4270  -13.3900   20.8210 C   0  0  0  0  0  0  0  0  0  0  0  0
  -24.9000  -12.0420   20.8480 C   0  0  0  0  0  0  0  0  0  0  0  0
  -26.5560  -13.2810   20.3090 N   0  0  0  0  0  0  0  0  0  0  0  0
  -26.2040  -12.0030   20.5990 N   0  0  0  0  0  0  0  0  0  0  0  0
  -24.1730  -10.7810   21.0400 C   0  0  0  0  0  0  0  0  0  0  0  0
  -24.5490   -9.8550   22.0360 C   0  0  0  0  0  3  0  0  0  0  0  0
  -23.8200   -8.6590   22.2130 C   0  0  0  0  0  3  0  0  0  0  0  0
  -22.7010   -8.3820   21.3910 C   0  0  0  0  0  0  0  0  0  0  0  0
  -22.3470   -9.2970   20.3840 C   0  0  0  0  0  3  0  0  0  0  0  0
  -23.0770  -10.4840   20.2060 C   0  0  0  0  0  3  0  0  0  0  0  0
  -21.9500   -7.2350   21.4740 O   0  0  0  0  0  0  0  0  0  0  0  0
  -21.8100   -6.5520   22.6560 C   0  0  0  0  0  0  0  0  0  0  0  0
  -21.2310   -7.1480   23.7980 C   0  0  0  0  0  3  0  0  0  0  0  0
  -21.0410   -6.3880   24.9690 C   0  0  0  0  0  3  0  0  0  0  0  0
  -21.4210   -5.0320   24.9990 C   0  0  0  0  0  0  0  0  0  0  0  0
  -21.9930   -4.4360   23.8620 C   0  0  0  0  0  3  0  0  0  0  0  0
  -22.1850   -5.1940   22.6930 C   0  0  0  0  0  0  0  0  0  0  0  0
  -22.7170   -4.6080   21.5930 F   0  0  0  0  0  0  0  0  0  0  0  0
  -21.2320   -4.3000   26.1220 F   0  0  0  0  0  0  0  0  0  0  0  0
  -23.0180  -13.8650   21.0100 C   0  0  0  0  0  0  0  0  0  0  0  0
  -22.2530  -13.1910   21.8600 N   0  0  0  0  0  0  0  0  0  0  0  0
  -22.6010  -14.8740   20.4390 O   0  0  0  0  0  0  0  0  0  0  0  0
  -22.6030  -12.3780   22.3430 H   0  0  0  0  0  0  0  0  0  0  0  0
  -21.3050  -13.4940   22.0330 H   0  0  0  0  0  0  0  0  0  0  0  0
  -25.6680  -15.5290   20.2750 N   0  0  0  0  0  0  0  0  0  0  0  0
  -24.8990  -16.1870   20.3420 H   0  0  0  0  0  0  0  0  0  0  0  0
  -26.5390  -15.9650   20.0000 H   0  0  0  0  0  0  0  0  0  0  0  0
  1  3  1  0
  2  5  1  0
  3  5  2  0
  4  1  2  0
  4  6  1  0
  5  8  1  0
  6  2  2  0
  7  4  1  0
  9  6  1  0
  9 11  1  0
 10 21  2  0
 11 16  1  0
 12 20  1  0
 12 22  1  0
 13 19  1  0
 13 15  1  0
 14 20  1  0
 15 14  1  0
 16 15  2  0
 17 18  1  0
 17 11  2  0
 18 13  2  0
 19 12  1  0
 20 10  1  0
 22 24  2  0
 23 22  1  0
 25 23  1  0
 26 35  2  0
 26 31  1  0
 27 23  1  0
 27 31  1  0
 28 27  1  0
 29 30  1  0
 29 28  1  0
 30 26  1  0
 31 32  2  0
 32 33  1  0
 34 33  2  0
 35 34  1  0
 36 10  1  0
 36 41  1  0
 36 37  1  0
 37 40  1  1
 37 38  1  0
 39 37  1  0
 41 44  1  0
 42 46  1  0
 42 41  1  0
 43 42  2  0
 46 45  1  0
 48 46  1  0
 48 49  1  0
 48 47  1  0
 50  3  1  0
 50 51  2  0
 52 54  1  0
 53 52  1  0
 53 54  1  0
 54 55  1  0
 54 51  1  1
 55 61  1  0
 55 62  2  0
 56 61  1  0
 57 58  1  0
 57 56  1  0
 59 58  1  0
 59 66  1  0
 59 60  1  0
 61 60  1  0
 63 64  2  0
 64 65  1  0
 64 83  1  0
 65 68  1  0
 66 63  1  0
 66 67  1  0
 67 65  2  0
 68 69  1  0
 69 70  2  0
 71 74  1  0
 71 70  1  0
 72 71  2  0
 73 72  1  0
 73 68  2  0
 74 75  1  0
 75 80  2  0
 75 76  1  0
 76 77  2  0
 77 78  1  0
 78 82  1  0
 79 78  2  0
 80 79  1  0
 81 80  1  0
 83 84  1  0
 84 87  1  0
 84 86  1  0
 85 83  2  0
 88 89  1  0
 88 63  1  0
 90 88  1  0
M  ISO  4   6 101   9 101  54 100  55 100
M  END
>  <TORSDO>  (37) 
F 19

>  <SCORE>  (37) 
-14.037

>  <name>  (37) 
36

>  <ligand_id>  (37) 
36

>  <original_smiles>  (37) 
[H]c1c([H])c([H])c2c(c1[H])C([H])([H])C([H])([H])C([H])([H])C2([H])N([H])C(=O)C1([H])N(C(=O)C([H])(N([H])C(=O)C([H])(N([H])C([H])([H])[H])C([H])([H])[H])C(C([H])([H])[H])(C([H])([H])[H])C([H])([H])[H])C([H])([H])c2c([H])c(Oc3c([H])c(C([H])([H])[H])c(C([H])([H])C([H])([H])C4(C(=O)N5C([H])([H])C([H])([H])C([H])([H])C([H])(n6nc(-c7c([H])c([H])c(Oc8c([H])c([H])c(F)c([H])c8F)c([H])c7[H])c(C(=O)N([H])[H])c6N([H])[H])C5([H])[H])C([H])([H])C4([H])[H])c([H])c3C([H])([H])[H])c([H])c([H])c2C1([H])[H]

>  <smiles>  (37) 
[H]c1c([H])c([H])c2c(c1[H])C([H])([H])C([H])([H])C([H])([H])C2([H])N([H])C(=O)C1([H])N(C(=O)C([H])(N([H])C(=O)C([H])(N([H])C([H])([H])[H])C([H])([H])[H])C(C([H])([H])[H])(C([H])([H])[H])C([H])([H])[H])C([H])([H])c2c([H])c(Oc3c([H])c(C([H])([H])[H])c(C([H])([H])C([H])([H])C4(C(=O)N5C([H])([H])C([H])([H])C([H])([H])C([H])(n6nc(-c7c([H])c([H])c(Oc8c([H])c([H])c(F)c([H])c8F)c([H])c7[H])c(C(=O)N([H])[H])c6N([H])[H])C5([H])[H])C([H])([H])C4([H])[H])c([H])c3C([H])([H])[H])c([H])c([H])c2C1([H])[H]

$$$$
37:0:0
     RDKit          3D

 98107  0  0  1  0  0  0  0  0999 V2000
  -30.8820  -23.6780   22.6480 C   0  0  0  0  0  3  0  0  0  0  0  0
  -30.2250  -24.5490   21.7530 C   0  0  0  0  0  0  0  0  0  0  0  0
  -29.1770  -24.0500   20.9380 C   0  0  0  0  0  0  0  0  0  0  0  0
  -30.5110  -22.3210   22.7450 C   0  0  0  0  0  0  0  0  0  0  0  0
  -28.9110  -22.6580   20.9090 C   0  0  0  0  0  0  0  0  0  0  0  0
  -29.5360  -21.8000   21.8510 C   0  0  0  0  0  0  0  0  0  0  0  0
  -30.6490  -25.9780   21.6820 C   0  0  0  0  0  0  0  0  0  0  0  0
  -28.2970  -25.0080   20.1300 C   0  0  0  0  0  2  0  0  0  0  0  0
  -29.8480  -26.8860   20.7460 C   0  0  0  0  0  2  0  0  0  0  0  0
  -28.3720  -26.4710   20.6090 C   0  0  2  0  0  0  0  0  0  0  0  0
  -27.9560  -22.0960   19.8560 C   0  0  0  0  0  1  0  0  0  0  0  0
  -29.1510  -20.3260   21.9030 C   0  0  0  0  0  1  0  0  0  0  0  0
  -27.6300  -26.6570   21.9670 C   0  0  0  0  0  1  0  0  0  0  0  0
  -31.6090  -26.4440   22.3040 O   0  0  0  0  0  0  0  0  0  0  0  0
  -27.8670  -27.2900   19.5350 O   0  0  0  0  0  0  0  0  0  0  0  0
  -24.1970  -32.0340   23.3140 C   0  0  0  0  0  0  0  0  0  0  0  0
  -26.6770  -27.9540   19.7060 C   0  0  0  0  0  0  0  0  0  0  0  0
  -22.8900  -30.7690   21.6320 C   0  0  0  0  0  3  0  0  0  0  0  0
  -24.2580  -29.3770   19.9890 C   0  0  0  0  0  0  0  0  0  0  0  0
  -25.3850  -31.1950   21.2960 C   0  0  0  0  0  2  0  0  0  0  0  0
  -25.4410  -29.8890   20.5360 C   0  0  0  0  0  0  0  0  0  0  0  0
  -26.6530  -29.1940   20.3760 C   0  0  0  0  0  3  0  0  0  0  0  0
  -25.4840  -27.4430   19.1520 C   0  0  0  0  0  3  0  0  0  0  0  0
  -24.2730  -28.1530   19.2910 C   0  0  0  0  0  3  0  0  0  0  0  0
  -23.0120  -30.2110   20.1870 C   0  0  0  0  0  2  0  0  0  0  0  0
  -24.1780  -31.3420   22.1390 N   0  0  0  0  0  0  0  0  0  0  0  0
  -23.1540  -32.2430   23.9490 O   0  0  0  0  0  0  0  0  0  0  0  0
  -22.3160  -29.6590   22.5430 C   0  0  0  0  0  0  0  0  0  0  0  0
  -20.9970  -29.4280   22.4370 N   0  0  0  0  0  0  0  0  0  0  0  0
  -23.0490  -29.0100   23.2920 O   0  0  0  0  0  0  0  0  0  0  0  0
  -20.4620  -30.0110   21.8090 H   0  0  0  0  0  0  0  0  0  0  0  0
  -17.7000  -28.0340   22.9010 C   0  0  0  0  0  0  0  0  0  0  0  0
  -20.2430  -28.4070   23.1650 C   0  0  0  0  0  3  0  0  0  0  0  0
  -20.4130  -27.0180   22.5110 C   0  0  0  0  0  2  0  0  0  0  0  0
  -19.3170  -26.6930   21.4910 C   0  0  0  0  0  2  0  0  0  0  0  0
  -17.9360  -26.7320   22.1530 C   0  0  0  0  0  2  0  0  0  0  0  0
  -18.7820  -28.8280   23.3620 C   0  0  0  0  0  0  0  0  0  0  0  0
  -18.5070  -30.0460   24.0190 C   0  0  0  0  0  3  0  0  0  0  0  0
  -17.1820  -30.4700   24.2250 C   0  0  0  0  0  3  0  0  0  0  0  0
  -16.1130  -29.6740   23.7800 C   0  0  0  0  0  3  0  0  0  0  0  0
  -16.3720  -28.4580   23.1230 C   0  0  0  0  0  3  0  0  0  0  0  0
  -25.5210  -32.6220   23.8990 C   0  0  0  0  0  3  0  0  0  0  0  0
  -25.2840  -34.0410   24.1910 N   0  0  0  0  0  0  0  0  0  0  0  0
  -25.7080  -35.0560   23.4260 C   0  0  0  0  0  0  0  0  0  0  0  0
  -26.4130  -34.8930   22.4260 O   0  0  0  0  0  0  0  0  0  0  0  0
  -24.6680  -34.2470   24.9640 H   0  0  0  0  0  0  0  0  0  0  0  0
  -24.1260  -36.9490   22.9390 C   0  0  0  0  0  1  0  0  0  0  0  0
  -25.2810  -36.4790   23.8370 C   0  0  0  0  0  3  0  0  0  0  0  0
  -27.4210  -37.2230   24.7840 C   0  0  0  0  0  1  0  0  0  0  0  0
  -26.3840  -37.4630   23.7830 N   0  0  0  0  0  0  0  0  0  0  0  0
  -26.0310  -38.4080   23.9130 H   0  0  0  0  0  0  0  0  0  0  0  0
  -26.0250  -31.8630   25.1880 C   0  0  1  0  0  0  0  0  0  0  0  0
  -24.9260  -31.6520   26.2540 C   0  0  0  0  0  1  0  0  0  0  0  0
  -26.6020  -30.4760   24.8130 C   0  0  0  0  0  1  0  0  0  0  0  0
  -27.1750  -32.6600   25.8480 C   0  0  0  0  0  1  0  0  0  0  0  0
  -31.2020  -21.4640   23.8100 C   0  0  0  0  0  2  0  0  0  0  0  0
  -31.7810  -20.1300   23.2940 C   0  0  0  0  0  2  0  0  0  0  0  0
  -32.2080  -20.1840   21.8200 C   0  0  0  0  0  2  0  0  0  0  0  0
  -32.5830  -18.8220   21.2320 C   0  0  0  0  0  2  0  0  0  0  0  0
  -31.4540  -17.7810   21.3490 C   0  0  0  0  0  2  0  0  0  0  0  0
  -31.7870  -16.5040   20.5790 C   0  0  0  0  0  2  0  0  0  0  0  0
  -30.7090  -15.4000   20.6860 C   0  0  0  0  0  2  0  0  0  0  0  0
  -31.0690  -14.1660   19.8430 C   0  0  0  0  0  0  0  0  0  0  0  0
  -30.7130  -11.8280   19.1550 C   0  0  0  0  0  2  0  0  0  0  0  0
  -29.7340  -11.7260   17.9750 C   0  0  0  0  0  2  0  0  0  0  0  0
  -28.2880  -11.6360   18.4870 C   0  0  0  0  0  2  0  0  0  0  0  0
  -27.9560  -12.7680   19.4950 C   0  0  0  0  0  3  0  0  0  0  0  0
  -29.0390  -12.8720   20.5940 C   0  0  0  0  0  2  0  0  0  0  0  0
  -30.3540  -13.0170   19.9450 N   0  0  0  0  0  0  0  0  0  0  0  0
  -32.0420  -14.2540   19.0890 O   0  0  0  0  0  0  0  0  0  0  0  0
  -25.6800  -13.5520   20.4110 C   0  0  0  0  0  0  0  0  0  0  0  0
  -24.5660  -12.8620   20.8120 C   0  0  0  0  0  0  0  0  0  0  0  0
  -24.8890  -11.4780   20.6690 C   0  0  0  0  0  0  0  0  0  0  0  0
  -26.6180  -12.5930   20.0610 N   0  0  0  0  0  0  0  0  0  0  0  0
  -26.1480  -11.3360   20.2670 N   0  0  0  0  0  0  0  0  0  0  0  0
  -24.0590  -10.2780   20.8450 C   0  0  0  0  0  0  0  0  0  0  0  0
  -24.3690   -9.3050   21.8200 C   0  0  0  0  0  3  0  0  0  0  0  0
  -23.5500   -8.1650   21.9820 C   0  0  0  0  0  3  0  0  0  0  0  0
  -22.4060   -7.9940   21.1660 C   0  0  0  0  0  0  0  0  0  0  0  0
  -22.1150   -8.9550   20.1830 C   0  0  0  0  0  3  0  0  0  0  0  0
  -22.9330  -10.0860   20.0200 C   0  0  0  0  0  3  0  0  0  0  0  0
  -21.5640   -6.9090   21.2330 O   0  0  0  0  0  0  0  0  0  0  0  0
  -21.3040   -6.2760   22.4210 C   0  0  0  0  0  0  0  0  0  0  0  0
  -20.7180   -6.9500   23.5150 C   0  0  0  0  0  3  0  0  0  0  0  0
  -20.4050   -6.2410   24.6920 C   0  0  0  0  0  3  0  0  0  0  0  0
  -20.6660   -4.8610   24.7740 C   0  0  0  0  0  0  0  0  0  0  0  0
  -21.2430   -4.1860   23.6840 C   0  0  0  0  0  3  0  0  0  0  0  0
  -21.5590   -4.8920   22.5100 C   0  0  0  0  0  0  0  0  0  0  0  0
  -22.0960   -4.2350   21.4540 F   0  0  0  0  0  0  0  0  0  0  0  0
  -20.3570   -4.1780   25.9020 F   0  0  0  0  0  0  0  0  0  0  0  0
  -23.2440  -13.4480   21.2120 C   0  0  0  0  0  0  0  0  0  0  0  0
  -22.5180  -12.7770   22.1020 N   0  0  0  0  0  0  0  0  0  0  0  0
  -22.8650  -14.5340   20.7750 O   0  0  0  0  0  0  0  0  0  0  0  0
  -22.8390  -11.9010   22.4860 H   0  0  0  0  0  0  0  0  0  0  0  0
  -21.6290  -13.1510   22.4040 H   0  0  0  0  0  0  0  0  0  0  0  0
  -25.9670  -14.9060   20.2930 N   0  0  0  0  0  0  0  0  0  0  0  0
  -25.2890  -15.6340   20.4900 H   0  0  0  0  0  0  0  0  0  0  0  0
  -26.8450  -15.2660   19.9400 H   0  0  0  0  0  0  0  0  0  0  0  0
  1  4  1  0
  2  1  2  0
  3  2  1  0
  4 56  1  0
  5  3  2  0
  5  6  1  0
  6 12  1  0
  6  4  2  0
  7  2  1  0
  7 14  2  0
  8 10  1  0
  8  3  1  0
  9  7  1  0
 10  9  1  0
 10 13  1  1
 11  5  1  0
 15 17  1  0
 15 10  1  0
 16 27  2  0
 17 22  1  0
 18 26  1  0
 18 28  1  0
 19 25  1  0
 19 21  1  0
 20 26  1  0
 21 20  1  0
 22 21  2  0
 23 24  1  0
 23 17  2  0
 24 19  2  0
 25 18  1  0
 26 16  1  0
 28 30  2  0
 29 28  1  0
 31 29  1  0
 32 41  2  0
 32 37  1  0
 33 29  1  0
 33 37  1  0
 34 33  1  0
 35 36  1  0
 35 34  1  0
 36 32  1  0
 37 38  2  0
 38 39  1  0
 40 39  2  0
 41 40  1  0
 42 16  1  0
 42 43  1  0
 42 52  1  0
 43 46  1  0
 44 48  1  0
 44 43  1  0
 45 44  2  0
 48 47  1  0
 50 48  1  0
 50 51  1  0
 50 49  1  0
 52 55  1  1
 52 53  1  0
 54 52  1  0
 57 56  1  0
 58 57  1  0
 59 60  1  0
 59 58  1  0
 61 62  1  0
 61 60  1  0
 63 69  1  0
 63 62  1  0
 64 69  1  0
 65 66  1  0
 65 64  1  0
 67 66  1  0
 67 74  1  0
 67 68  1  0
 69 68  1  0
 70 63  2  0
 71 72  2  0
 72 91  1  0
 73 72  1  0
 73 76  1  0
 74 75  1  0
 74 71  1  0
 75 73  2  0
 76 77  1  0
 77 78  2  0
 79 82  1  0
 79 78  1  0
 80 79  2  0
 81 80  1  0
 81 76  2  0
 82 83  1  0
 83 88  2  0
 83 84  1  0
 84 85  2  0
 85 86  1  0
 86 90  1  0
 87 86  2  0
 88 87  1  0
 89 88  1  0
 91 92  1  0
 92 95  1  0
 92 94  1  0
 93 91  2  0
 96 71  1  0
 96 97  1  0
 98 96  1  0
M  ISO  4  10 101  15 101  62 100  63 100
M  END
>  <TORSDO>  (38) 
F 23

>  <SCORE>  (38) 
-10.279

>  <name>  (38) 
37

>  <ligand_id>  (38) 
37

>  <original_smiles>  (38) 
[H]c1c([H])c([H])c2c(c1[H])C([H])([H])C([H])([H])C([H])([H])C2([H])N([H])C(=O)C1([H])N(C(=O)C([H])(N([H])C(=O)C([H])(N([H])C([H])([H])[H])C([H])([H])[H])C(C([H])([H])[H])(C([H])([H])[H])C([H])([H])[H])C([H])([H])c2c([H])c(OC3(C([H])([H])[H])C([H])([H])C(=O)c4c([H])c(C([H])([H])C([H])([H])C([H])([H])C([H])([H])C([H])([H])C([H])([H])C([H])([H])C(=O)N5C([H])([H])C([H])([H])C([H])([H])C([H])(n6nc(-c7c([H])c([H])c(Oc8c([H])c([H])c(F)c([H])c8F)c([H])c7[H])c(C(=O)N([H])[H])c6N([H])[H])C5([H])[H])c(C([H])([H])[H])c(C([H])([H])[H])c4C3([H])[H])c([H])c([H])c2C1([H])[H]

>  <smiles>  (38) 
[H]c1c([H])c([H])c2c(c1[H])C([H])([H])C([H])([H])C([H])([H])C2([H])N([H])C(=O)C1([H])N(C(=O)C([H])(N([H])C(=O)C([H])(N([H])C([H])([H])[H])C([H])([H])[H])C(C([H])([H])[H])(C([H])([H])[H])C([H])([H])[H])C([H])([H])c2c([H])c(OC3(C([H])([H])[H])C([H])([H])C(=O)c4c([H])c(C([H])([H])C([H])([H])C([H])([H])C([H])([H])C([H])([H])C([H])([H])C([H])([H])C(=O)N5C([H])([H])C([H])([H])C([H])([H])C([H])(n6nc(-c7c([H])c([H])c(Oc8c([H])c([H])c(F)c([H])c8F)c([H])c7[H])c(C(=O)N([H])[H])c6N([H])[H])C5([H])[H])c(C([H])([H])[H])c(C([H])([H])[H])c4C3([H])[H])c([H])c([H])c2C1([H])[H]

$$$$
38:0:0
     RDKit          3D

 90 98  0  0  1  0  0  0  0  0999 V2000
  -29.0910  -22.2890   21.9710 C   0  0  0  0  0  3  0  0  0  0  0  0
  -28.7520  -24.7490   21.9730 C   0  0  0  0  0  3  0  0  0  0  0  0
  -29.0840  -23.5410   22.6340 C   0  0  0  0  0  0  0  0  0  0  0  0
  -28.7490  -22.1450   20.6130 C   0  0  0  0  0  0  0  0  0  0  0  0
  -28.4230  -23.4570   19.9450 C   0  0  0  0  0  0  0  0  0  0  0  0
  -28.4200  -24.8100   20.6050 C   0  0  0  0  0  0  0  0  0  0  0  0
  -29.4410  -23.5970   24.1070 C   0  0  0  0  0  1  0  0  0  0  0  0
  -28.0570  -23.4140   18.4750 C   0  0  0  0  0  1  0  0  0  0  0  0
  -28.3140  -26.1800   20.0540 O   0  0  0  0  0  0  0  0  0  0  0  0
  -24.6480  -31.8670   23.1850 C   0  0  0  0  0  0  0  0  0  0  0  0
  -27.2300  -27.1340   20.1570 C   0  0  0  0  0  0  0  0  0  0  0  0
  -23.4490  -30.4670   21.5490 C   0  0  0  0  0  3  0  0  0  0  0  0
  -24.8980  -28.8850   20.1300 C   0  0  0  0  0  0  0  0  0  0  0  0
  -26.0030  -30.7330   21.3790 C   0  0  0  0  0  2  0  0  0  0  0  0
  -26.0790  -29.3330   20.7370 C   0  0  0  0  0  0  0  0  0  0  0  0
  -27.2460  -28.4740   20.7310 C   0  0  0  0  0  3  0  0  0  0  0  0
  -26.0220  -26.7900   19.5190 C   0  0  0  0  0  3  0  0  0  0  0  0
  -24.8820  -27.6270   19.5080 C   0  0  0  0  0  3  0  0  0  0  0  0
  -23.6710  -29.7860   20.1720 C   0  0  0  0  0  2  0  0  0  0  0  0
  -24.7210  -31.0460   22.0920 N   0  0  0  0  0  0  0  0  0  0  0  0
  -23.5620  -32.1480   23.7160 O   0  0  0  0  0  0  0  0  0  0  0  0
  -22.7730  -29.4600   22.5120 C   0  0  0  0  0  0  0  0  0  0  0  0
  -21.4480  -29.2750   22.3780 N   0  0  0  0  0  0  0  0  0  0  0  0
  -23.4460  -28.8480   23.3460 O   0  0  0  0  0  0  0  0  0  0  0  0
  -20.9620  -29.8200   21.6800 H   0  0  0  0  0  0  0  0  0  0  0  0
  -18.0830  -28.0110   22.8410 C   0  0  0  0  0  0  0  0  0  0  0  0
  -20.6320  -28.3320   23.1480 C   0  0  0  0  0  3  0  0  0  0  0  0
  -20.7730  -26.8940   22.5980 C   0  0  0  0  0  2  0  0  0  0  0  0
  -19.6960  -26.5330   21.5690 C   0  0  0  0  0  2  0  0  0  0  0  0
  -18.3010  -26.6560   22.1870 C   0  0  0  0  0  2  0  0  0  0  0  0
  -19.1780  -28.8040   23.2780 C   0  0  0  0  0  0  0  0  0  0  0  0
  -18.9200  -30.0670   23.8520 C   0  0  0  0  0  3  0  0  0  0  0  0
  -17.6020  -30.5400   23.9920 C   0  0  0  0  0  3  0  0  0  0  0  0
  -16.5220  -29.7460   23.5700 C   0  0  0  0  0  3  0  0  0  0  0  0
  -16.7640  -28.4830   23.0000 C   0  0  0  0  0  3  0  0  0  0  0  0
  -25.9250  -32.5070   23.8100 C   0  0  0  0  0  3  0  0  0  0  0  0
  -26.4450  -31.7350   25.0860 C   0  0  1  0  0  0  0  0  0  0  0  0
  -25.3530  -31.4930   26.1560 C   0  0  0  0  0  1  0  0  0  0  0  0
  -27.0300  -30.3580   24.6960 C   0  0  0  0  0  1  0  0  0  0  0  0
  -27.5930  -32.5310   25.7480 C   0  0  0  0  0  1  0  0  0  0  0  0
  -25.6060  -33.9030   24.1520 N   0  0  0  0  0  0  0  0  0  0  0  0
  -25.9260  -34.9660   23.4030 C   0  0  0  0  0  0  0  0  0  0  0  0
  -26.5860  -34.8770   22.3650 O   0  0  0  0  0  0  0  0  0  0  0  0
  -25.0150  -34.0450   24.9580 H   0  0  0  0  0  0  0  0  0  0  0  0
  -24.1830  -36.7560   23.0900 C   0  0  0  0  0  1  0  0  0  0  0  0
  -25.4380  -36.3490   23.8800 C   0  0  0  0  0  3  0  0  0  0  0  0
  -27.5770  -37.2420   24.6910 C   0  0  0  0  0  1  0  0  0  0  0  0
  -26.4640  -37.4090   23.7620 N   0  0  0  0  0  0  0  0  0  0  0  0
  -26.0540  -38.3260   23.9200 H   0  0  0  0  0  0  0  0  0  0  0  0
  -28.5400  -20.5650   20.1030 C   0  0  0  0  0  2  0  0  0  0  0  0
  -29.5990  -19.2270   19.9230 C   0  0  0  0  0  2  0  0  0  0  0  0
  -29.7110  -17.7260   20.7400 C   0  0  0  0  0  2  0  0  0  0  0  0
  -30.4020  -15.0380   20.1180 C   0  0  0  0  0  0  0  0  0  0  0  0
  -30.2950  -12.6910   19.1240 C   0  0  0  0  0  2  0  0  0  0  0  0
  -29.3150  -12.6220   17.9300 C   0  0  0  0  0  2  0  0  0  0  0  0
  -27.8690  -12.3910   18.4130 C   0  0  0  0  0  2  0  0  0  0  0  0
  -27.4920  -13.3020   19.6110 C   0  0  0  0  0  3  0  0  0  0  0  0
  -28.5880  -13.3190   20.6940 C   0  0  0  0  0  2  0  0  0  0  0  0
  -29.8200  -13.7710   20.0340 N   0  0  0  0  0  0  0  0  0  0  0  0
  -31.6180  -15.1070   19.9080 O   0  0  0  0  0  0  0  0  0  0  0  0
  -29.5840  -16.2140   20.2230 N   0  0  0  0  0  0  0  0  0  0  0  0
  -28.6140  -15.9440   20.1580 H   0  0  0  0  0  0  0  0  0  0  0  0
  -25.1340  -13.8580   20.4290 C   0  0  0  0  0  0  0  0  0  0  0  0
  -24.0890  -13.0730   20.8300 C   0  0  0  0  0  0  0  0  0  0  0  0
  -24.5650  -11.7260   20.7850 C   0  0  0  0  0  0  0  0  0  0  0  0
  -26.1770  -12.9890   20.1540 N   0  0  0  0  0  0  0  0  0  0  0  0
  -25.8470  -11.7020   20.4370 N   0  0  0  0  0  0  0  0  0  0  0  0
  -23.8550  -10.4580   20.9930 C   0  0  0  0  0  0  0  0  0  0  0  0
  -24.3170   -9.4950   21.9180 C   0  0  0  0  0  3  0  0  0  0  0  0
  -23.6050   -8.2930   22.1150 C   0  0  0  0  0  3  0  0  0  0  0  0
  -22.4160   -8.0450   21.3890 C   0  0  0  0  0  0  0  0  0  0  0  0
  -21.9730   -8.9960   20.4530 C   0  0  0  0  0  3  0  0  0  0  0  0
  -22.6860  -10.1900   20.2540 C   0  0  0  0  0  3  0  0  0  0  0  0
  -21.6720   -6.8940   21.4950 O   0  0  0  0  0  0  0  0  0  0  0  0
  -21.6580   -6.1520   22.6490 C   0  0  0  0  0  0  0  0  0  0  0  0
  -21.2540   -6.7020   23.8840 C   0  0  0  0  0  3  0  0  0  0  0  0
  -21.1880   -5.8850   25.0310 C   0  0  0  0  0  3  0  0  0  0  0  0
  -21.5150   -4.5190   24.9440 C   0  0  0  0  0  0  0  0  0  0  0  0
  -21.9130   -3.9680   23.7130 C   0  0  0  0  0  3  0  0  0  0  0  0
  -21.9810   -4.7820   22.5680 C   0  0  0  0  0  0  0  0  0  0  0  0
  -22.3450   -4.2410   21.3800 F   0  0  0  0  0  0  0  0  0  0  0  0
  -21.4450   -3.7320   26.0430 F   0  0  0  0  0  0  0  0  0  0  0  0
  -22.6950  -13.5380   21.1370 C   0  0  0  0  0  0  0  0  0  0  0  0
  -21.9960  -12.8370   22.0220 N   0  0  0  0  0  0  0  0  0  0  0  0
  -22.2360  -14.5590   20.6260 O   0  0  0  0  0  0  0  0  0  0  0  0
  -22.3820  -12.0120   22.4570 H   0  0  0  0  0  0  0  0  0  0  0  0
  -21.0620  -13.1310   22.2700 H   0  0  0  0  0  0  0  0  0  0  0  0
  -25.2760  -15.2310   20.2460 N   0  0  0  0  0  0  0  0  0  0  0  0
  -24.4980  -15.8680   20.3770 H   0  0  0  0  0  0  0  0  0  0  0  0
  -26.0910  -15.6810   19.8540 H   0  0  0  0  0  0  0  0  0  0  0  0
  1  3  1  0
  2  3  2  0
  3  7  1  0
  4  1  2  0
  5  6  2  0
  5  4  1  0
  6  2  1  0
  8  5  1  0
  9 11  1  0
  9  6  1  0
 10 21  2  0
 11 16  1  0
 12 20  1  0
 12 22  1  0
 13 19  1  0
 13 15  1  0
 14 20  1  0
 15 14  1  0
 16 15  2  0
 17 11  2  0
 18 17  1  0
 18 13  2  0
 19 12  1  0
 20 10  1  0
 22 24  2  0
 23 22  1  0
 25 23  1  0
 26 35  2  0
 26 31  1  0
 27 23  1  0
 27 31  1  0
 28 27  1  0
 29 30  1  0
 29 28  1  0
 30 26  1  0
 31 32  2  0
 32 33  1  0
 34 33  2  0
 35 34  1  0
 36 10  1  0
 36 41  1  0
 36 37  1  0
 37 40  1  1
 37 38  1  0
 39 37  1  0
 41 44  1  0
 42 46  1  0
 42 41  1  0
 43 42  2  0
 46 45  1  0
 48 46  1  0
 48 49  1  0
 48 47  1  0
 50  4  1  0
 51 50  1  0
 51 52  1  0
 53 61  1  0
 54 59  1  0
 55 56  1  0
 55 54  1  0
 57 56  1  0
 57 66  1  0
 57 58  1  0
 59 53  1  0
 59 58  1  0
 60 53  2  0
 61 52  1  0
 62 61  1  0
 63 64  2  0
 64 83  1  0
 65 64  1  0
 65 68  1  0
 66 63  1  0
 66 67  1  0
 67 65  2  0
 68 69  1  0
 69 70  2  0
 71 74  1  0
 71 70  1  0
 72 71  2  0
 73 72  1  0
 73 68  2  0
 74 75  1  0
 75 76  1  0
 76 77  2  0
 78 77  1  0
 78 82  1  0
 79 78  2  0
 80 75  2  0
 80 79  1  0
 81 80  1  0
 83 84  1  0
 84 87  1  0
 84 86  1  0
 85 83  2  0
 88 89  1  0
 88 63  1  0
 90 88  1  0
M  ISO  4   6 101   9 101  53 100  61 100
M  END
>  <TORSDO>  (39) 
F 19

>  <SCORE>  (39) 
-15.034

>  <name>  (39) 
38

>  <ligand_id>  (39) 
38

>  <original_smiles>  (39) 
[H]c1c([H])c([H])c2c(c1[H])C([H])([H])C([H])([H])C([H])([H])C2([H])N([H])C(=O)C1([H])N(C(=O)C([H])(N([H])C(=O)C([H])(N([H])C([H])([H])[H])C([H])([H])[H])C(C([H])([H])[H])(C([H])([H])[H])C([H])([H])[H])C([H])([H])c2c([H])c(Oc3c([H])c(C([H])([H])[H])c([H])c(C([H])([H])C([H])([H])C([H])([H])N([H])C(=O)N4C([H])([H])C([H])([H])C([H])([H])C([H])(n5nc(-c6c([H])c([H])c(Oc7c([H])c([H])c(F)c([H])c7F)c([H])c6[H])c(C(=O)N([H])[H])c5N([H])[H])C4([H])[H])c3C([H])([H])[H])c([H])c([H])c2C1([H])[H]

>  <smiles>  (39) 
[H]c1c([H])c([H])c2c(c1[H])C([H])([H])C([H])([H])C([H])([H])C2([H])N([H])C(=O)C1([H])N(C(=O)C([H])(N([H])C(=O)C([H])(N([H])C([H])([H])[H])C([H])([H])[H])C(C([H])([H])[H])(C([H])([H])[H])C([H])([H])[H])C([H])([H])c2c([H])c(Oc3c([H])c(C([H])([H])[H])c([H])c(C([H])([H])C([H])([H])C([H])([H])N([H])C(=O)N4C([H])([H])C([H])([H])C([H])([H])C([H])(n5nc(-c6c([H])c([H])c(Oc7c([H])c([H])c(F)c([H])c7F)c([H])c6[H])c(C(=O)N([H])[H])c5N([H])[H])C4([H])[H])c3C([H])([H])[H])c([H])c([H])c2C1([H])[H]

$$$$
39:0:0
     RDKit          3D

 90 98  0  0  1  0  0  0  0  0999 V2000
  -30.0330  -16.9630   20.1050 C   0  0  0  0  0  0  0  0  0  0  0  0
  -29.6100  -17.1670   18.7500 C   0  0  0  0  0  0  0  0  0  0  0  0
  -29.9390  -18.3140   20.8540 C   0  0  0  0  0  0  0  0  0  0  0  0
  -28.9300  -18.3420   18.2910 C   0  0  0  0  0  0  0  0  0  0  0  0
  -28.7990  -19.5360   19.0690 C   0  0  0  0  0  0  0  0  0  0  0  0
  -29.3790  -19.6720   20.3610 C   0  0  0  0  0  0  0  0  0  0  0  0
  -29.9760  -16.1430   17.6760 C   0  0  0  0  0  1  0  0  0  0  0  0
  -30.4540  -18.3220   22.2800 C   0  0  0  0  0  1  0  0  0  0  0  0
  -28.3010  -18.3420   16.8850 C   0  0  0  0  0  1  0  0  0  0  0  0
  -28.0090  -20.7130   18.4910 C   0  0  0  0  0  1  0  0  0  0  0  0
  -30.7260  -15.4560   20.4650 C   0  0  0  0  0  0  0  0  0  0  0  0
  -30.7110  -13.0140   19.5730 C   0  0  0  0  0  2  0  0  0  0  0  0
  -29.8200  -12.7360   18.3330 C   0  0  0  0  0  2  0  0  0  0  0  0
  -28.3400  -12.5560   18.7160 C   0  0  0  0  0  2  0  0  0  0  0  0
  -27.8650  -13.5250   19.8280 C   0  0  0  0  0  3  0  0  0  0  0  0
  -28.8880  -13.6690   20.9700 C   0  0  0  0  0  2  0  0  0  0  0  0
  -30.1370  -14.1610   20.3660 N   0  0  0  0  0  0  0  0  0  0  0  0
  -31.9640  -15.3950   20.4570 O   0  0  0  0  0  0  0  0  0  0  0  0
  -25.4750  -14.0680   20.5350 C   0  0  0  0  0  0  0  0  0  0  0  0
  -24.4060  -13.2820   20.8630 C   0  0  0  0  0  0  0  0  0  0  0  0
  -24.8810  -11.9340   20.8380 C   0  0  0  0  0  0  0  0  0  0  0  0
  -26.5290  -13.2010   20.3120 N   0  0  0  0  0  0  0  0  0  0  0  0
  -26.1820  -11.9120   20.5700 N   0  0  0  0  0  0  0  0  0  0  0  0
  -24.1550  -10.6650   20.9890 C   0  0  0  0  0  0  0  0  0  0  0  0
  -24.5530   -9.6920   21.9310 C   0  0  0  0  0  3  0  0  0  0  0  0
  -23.8250   -8.4910   22.0750 C   0  0  0  0  0  3  0  0  0  0  0  0
  -22.6830   -8.2550   21.2720 C   0  0  0  0  0  0  0  0  0  0  0  0
  -22.3040   -9.2160   20.3190 C   0  0  0  0  0  3  0  0  0  0  0  0
  -23.0340  -10.4080   20.1750 C   0  0  0  0  0  3  0  0  0  0  0  0
  -21.9270   -7.1100   21.3250 O   0  0  0  0  0  0  0  0  0  0  0  0
  -21.8360   -6.3610   22.4680 C   0  0  0  0  0  0  0  0  0  0  0  0
  -21.3380   -6.9010   23.6760 C   0  0  0  0  0  3  0  0  0  0  0  0
  -21.1920   -6.0740   24.8080 C   0  0  0  0  0  3  0  0  0  0  0  0
  -21.5340   -4.7110   24.7340 C   0  0  0  0  0  0  0  0  0  0  0  0
  -22.0270   -4.1720   23.5330 C   0  0  0  0  0  3  0  0  0  0  0  0
  -22.1740   -4.9930   22.4040 C   0  0  0  0  0  0  0  0  0  0  0  0
  -22.6280   -4.4630   21.2410 F   0  0  0  0  0  0  0  0  0  0  0  0
  -21.3900   -3.9160   25.8210 F   0  0  0  0  0  0  0  0  0  0  0  0
  -22.9990  -13.7510   21.0830 C   0  0  0  0  0  0  0  0  0  0  0  0
  -22.2510  -13.0710   21.9430 N   0  0  0  0  0  0  0  0  0  0  0  0
  -22.5670  -14.7620   20.5280 O   0  0  0  0  0  0  0  0  0  0  0  0
  -22.6140  -12.2590   22.4220 H   0  0  0  0  0  0  0  0  0  0  0  0
  -21.3040  -13.3710   22.1240 H   0  0  0  0  0  0  0  0  0  0  0  0
  -25.6290  -15.4420   20.3810 N   0  0  0  0  0  0  0  0  0  0  0  0
  -24.8490  -16.0790   20.5040 H   0  0  0  0  0  0  0  0  0  0  0  0
  -26.4830  -15.9080   20.0950 H   0  0  0  0  0  0  0  0  0  0  0  0
  -29.1720  -21.2270   21.1420 C   0  0  0  0  0  2  0  0  0  0  0  0
  -29.2660  -22.9550   20.6210 C   0  0  0  0  0  3  0  0  0  0  0  0
  -28.4300  -24.4600   21.1280 C   0  0  0  0  0  3  0  0  0  0  0  0
  -28.6250  -26.0700   20.8700 O   0  0  0  0  0  0  0  0  0  0  0  0
  -24.7600  -32.0670   23.3480 C   0  0  0  0  0  0  0  0  0  0  0  0
  -27.5740  -27.1140   20.7540 C   0  0  0  0  0  0  0  0  0  0  0  0
  -23.6890  -30.5730   21.7110 C   0  0  0  0  0  3  0  0  0  0  0  0
  -25.2470  -28.9260   20.4690 C   0  0  0  0  0  0  0  0  0  0  0  0
  -26.2550  -30.8300   21.7100 C   0  0  0  0  0  2  0  0  0  0  0  0
  -26.3880  -29.3920   21.1340 C   0  0  0  0  0  0  0  0  0  0  0  0
  -27.5510  -28.5080   21.2470 C   0  0  0  0  0  3  0  0  0  0  0  0
  -26.4010  -26.7870   20.0410 C   0  0  0  0  0  3  0  0  0  0  0  0
  -25.2770  -27.6400   19.9030 C   0  0  0  0  0  3  0  0  0  0  0  0
  -24.0120  -29.8240   20.3890 C   0  0  0  0  0  2  0  0  0  0  0  0
  -24.9180  -31.1870   22.3080 N   0  0  0  0  0  0  0  0  0  0  0  0
  -23.6370  -32.3610   23.7890 O   0  0  0  0  0  0  0  0  0  0  0  0
  -22.9530  -29.6120   22.6820 C   0  0  0  0  0  0  0  0  0  0  0  0
  -21.6340  -29.4260   22.4900 N   0  0  0  0  0  0  0  0  0  0  0  0
  -23.5790  -29.0310   23.5720 O   0  0  0  0  0  0  0  0  0  0  0  0
  -21.1850  -29.9430   21.7460 H   0  0  0  0  0  0  0  0  0  0  0  0
  -18.2280  -28.2540   22.9080 C   0  0  0  0  0  0  0  0  0  0  0  0
  -20.7770  -28.5170   23.2580 C   0  0  0  0  0  3  0  0  0  0  0  0
  -20.8920  -27.0680   22.7280 C   0  0  0  0  0  2  0  0  0  0  0  0
  -19.8270  -26.7210   21.6840 C   0  0  0  0  0  2  0  0  0  0  0  0
  -18.4230  -26.8880   22.2720 C   0  0  0  0  0  2  0  0  0  0  0  0
  -19.3330  -29.0260   23.3540 C   0  0  0  0  0  0  0  0  0  0  0  0
  -19.0970  -30.3040   23.9080 C   0  0  0  0  0  3  0  0  0  0  0  0
  -17.7880  -30.8090   24.0180 C   0  0  0  0  0  3  0  0  0  0  0  0
  -16.6980  -30.0370   23.5850 C   0  0  0  0  0  3  0  0  0  0  0  0
  -16.9170  -28.7610   23.0370 C   0  0  0  0  0  3  0  0  0  0  0  0
  -25.9830  -32.7600   24.0230 C   0  0  0  0  0  3  0  0  0  0  0  0
  -26.4260  -32.0600   25.3670 C   0  0  1  0  0  0  0  0  0  0  0  0
  -25.2570  -31.7960   26.3460 C   0  0  0  0  0  1  0  0  0  0  0  0
  -27.1150  -30.7050   25.0870 C   0  0  0  0  0  1  0  0  0  0  0  0
  -27.4650  -32.9410   26.0990 C   0  0  0  0  0  1  0  0  0  0  0  0
  -25.6210  -34.1650   24.2790 N   0  0  0  0  0  0  0  0  0  0  0  0
  -25.9690  -35.2000   23.5060 C   0  0  0  0  0  0  0  0  0  0  0  0
  -26.6920  -35.0760   22.5140 O   0  0  0  0  0  0  0  0  0  0  0  0
  -24.9830  -34.3320   25.0430 H   0  0  0  0  0  0  0  0  0  0  0  0
  -24.2150  -36.9420   23.0210 C   0  0  0  0  0  1  0  0  0  0  0  0
  -25.4340  -36.5950   23.8910 C   0  0  0  0  0  3  0  0  0  0  0  0
  -27.5110  -37.5710   24.7650 C   0  0  0  0  0  1  0  0  0  0  0  0
  -26.4450  -37.6690   23.7730 N   0  0  0  0  0  0  0  0  0  0  0  0
  -26.0080  -38.5830   23.8650 H   0  0  0  0  0  0  0  0  0  0  0  0
  1 11  1  0
  1  3  1  0
  2  1  2  0
  3  8  1  0
  4  2  1  0
  4  5  2  0
  5  6  1  0
  6  3  2  0
  6 47  1  0
  7  2  1  0
  9  4  1  0
 10  5  1  0
 12 17  1  0
 13 14  1  0
 13 12  1  0
 15 14  1  0
 15 22  1  0
 15 16  1  0
 17 11  1  0
 17 16  1  0
 18 11  2  0
 19 20  2  0
 20 39  1  0
 21 20  1  0
 21 24  1  0
 22 19  1  0
 22 23  1  0
 23 21  2  0
 24 25  1  0
 25 26  2  0
 27 30  1  0
 27 26  1  0
 28 27  2  0
 29 28  1  0
 29 24  2  0
 30 31  1  0
 31 32  1  0
 32 33  2  0
 34 33  1  0
 34 38  1  0
 35 34  2  0
 36 31  2  0
 36 35  1  0
 37 36  1  0
 39 40  1  0
 40 43  1  0
 40 42  1  0
 41 39  2  0
 44 45  1  0
 44 19  1  0
 46 44  1  0
 48 49  2  0
 48 47  1  0
 50 49  1  0
 51 62  2  0
 52 50  1  0
 52 57  1  0
 53 61  1  0
 53 63  1  0
 54 56  1  0
 55 61  1  0
 56 57  2  0
 56 55  1  0
 58 52  2  0
 59 58  1  0
 59 54  2  0
 60 54  1  0
 60 53  1  0
 61 51  1  0
 63 65  2  0
 64 63  1  0
 66 64  1  0
 67 76  2  0
 67 72  1  0
 68 64  1  0
 68 72  1  0
 69 68  1  0
 70 71  1  0
 70 69  1  0
 71 67  1  0
 72 73  2  0
 73 74  1  0
 75 74  2  0
 76 75  1  0
 77 51  1  0
 77 82  1  0
 77 78  1  0
 78 81  1  1
 78 79  1  0
 80 78  1  0
 82 85  1  0
 83 87  1  0
 83 82  1  0
 84 83  2  0
 87 86  1  0
 89 90  1  0
 89 87  1  0
 89 88  1  0
M  ISO  4   1 100  11 100  49 101  50 101
M  END
>  <TORSDO>  (40) 
F 19

>  <SCORE>  (40) 
-14.129

>  <name>  (40) 
39

>  <ligand_id>  (40) 
39

>  <original_smiles>  (40) 
[H]c1c([H])c([H])c2c(c1[H])C([H])([H])C([H])([H])C([H])([H])C2([H])N([H])C(=O)C1([H])N(C(=O)C([H])(N([H])C(=O)C([H])(N([H])C([H])([H])[H])C([H])([H])[H])C(C([H])([H])[H])(C([H])([H])[H])C([H])([H])[H])C([H])([H])c2c([H])c(OC([H])([H])C([H])([H])C([H])([H])c3c(C([H])([H])[H])c(C(=O)N4C([H])([H])C([H])([H])C([H])([H])C([H])(n5nc(-c6c([H])c([H])c(Oc7c([H])c([H])c(F)c([H])c7F)c([H])c6[H])c(C(=O)N([H])[H])c5N([H])[H])C4([H])[H])c(C([H])([H])[H])c(C([H])([H])[H])c3C([H])([H])[H])c([H])c([H])c2C1([H])[H]

>  <smiles>  (40) 
[H]c1c([H])c([H])c2c(c1[H])C([H])([H])C([H])([H])C([H])([H])C2([H])N([H])C(=O)C1([H])N(C(=O)C([H])(N([H])C(=O)C([H])(N([H])C([H])([H])[H])C([H])([H])[H])C(C([H])([H])[H])(C([H])([H])[H])C([H])([H])[H])C([H])([H])c2c([H])c(OC([H])([H])C([H])([H])C([H])([H])c3c(C([H])([H])[H])c(C(=O)N4C([H])([H])C([H])([H])C([H])([H])C([H])(n5nc(-c6c([H])c([H])c(Oc7c([H])c([H])c(F)c([H])c7F)c([H])c6[H])c(C(=O)N([H])[H])c5N([H])[H])C4([H])[H])c(C([H])([H])[H])c(C([H])([H])[H])c3C([H])([H])[H])c([H])c([H])c2C1([H])[H]

$$$$
40:0:0
     RDKit          3D

 91100  0  0  1  0  0  0  0  0999 V2000
  -27.5170  -21.1870   19.5070 C   0  0  0  0  0  3  0  0  0  0  0  0
  -29.0700  -22.9110   20.1620 C   0  0  0  0  0  3  0  0  0  0  0  0
  -26.8510  -23.6330   19.6580 C   0  0  0  0  0  3  0  0  0  0  0  0
  -28.8380  -21.3460   19.9520 C   0  0  0  0  0  0  0  0  0  0  0  0
  -26.5800  -22.2530   19.3940 C   0  0  0  0  0  0  0  0  0  0  0  0
  -28.1180  -24.1770   20.0000 C   0  0  0  0  0  0  0  0  0  0  0  0
  -25.1780  -21.8840   18.9600 C   0  0  0  0  0  1  0  0  0  0  0  0
  -29.9100  -17.2980   19.8610 C   0  0  0  0  0  3  0  0  0  0  0  0
  -30.1380  -18.5220   19.1980 C   0  0  0  0  0  3  0  0  0  0  0  0
  -29.1530  -18.3140   20.9160 C   0  0  0  0  0  2  0  0  0  0  0  0
  -29.7050  -19.7700   20.2420 C   0  0  2  0  0  0  0  0  0  0  0  0
  -30.9630  -20.2650   20.9850 C   0  0  0  0  0  1  0  0  0  0  0  0
  -30.5690  -15.7330   19.7580 C   0  0  0  0  0  0  0  0  0  0  0  0
  -30.5140  -13.2090   18.9700 C   0  0  0  0  0  2  0  0  0  0  0  0
  -29.5490  -12.8890   17.7970 C   0  0  0  0  0  2  0  0  0  0  0  0
  -28.1420  -12.5620   18.3180 C   0  0  0  0  0  2  0  0  0  0  0  0
  -27.7170  -13.5400   19.4410 C   0  0  0  0  0  3  0  0  0  0  0  0
  -28.8240  -13.8290   20.4860 C   0  0  0  0  0  2  0  0  0  0  0  0
  -29.9880  -14.3990   19.7730 N   0  0  0  0  0  0  0  0  0  0  0  0
  -31.7700  -15.6000   19.4600 O   0  0  0  0  0  0  0  0  0  0  0  0
  -25.4270  -14.0360   20.4190 C   0  0  0  0  0  0  0  0  0  0  0  0
  -24.3990  -13.2410   20.8330 C   0  0  0  0  0  0  0  0  0  0  0  0
  -24.8590  -11.8940   20.7060 C   0  0  0  0  0  0  0  0  0  0  0  0
  -26.4440  -13.1790   20.0470 N   0  0  0  0  0  0  0  0  0  0  0  0
  -26.1250  -11.8790   20.2920 N   0  0  0  0  0  0  0  0  0  0  0  0
  -24.1420  -10.6250   20.8960 C   0  0  0  0  0  0  0  0  0  0  0  0
  -24.5690   -9.6730   21.8460 C   0  0  0  0  0  3  0  0  0  0  0  0
  -23.8490   -8.4730   22.0330 C   0  0  0  0  0  3  0  0  0  0  0  0
  -22.6890   -8.2150   21.2650 C   0  0  0  0  0  0  0  0  0  0  0  0
  -22.2790   -9.1560   20.3050 C   0  0  0  0  0  3  0  0  0  0  0  0
  -23.0000  -10.3480   20.1180 C   0  0  0  0  0  3  0  0  0  0  0  0
  -21.9430   -7.0650   21.3560 O   0  0  0  0  0  0  0  0  0  0  0  0
  -21.7890   -6.3980   22.5450 C   0  0  0  0  0  0  0  0  0  0  0  0
  -21.1780   -7.0010   23.6660 C   0  0  0  0  0  3  0  0  0  0  0  0
  -20.9750   -6.2540   24.8440 C   0  0  0  0  0  3  0  0  0  0  0  0
  -21.3800   -4.9070   24.9030 C   0  0  0  0  0  0  0  0  0  0  0  0
  -21.9840   -4.3030   23.7870 C   0  0  0  0  0  3  0  0  0  0  0  0
  -22.1870   -5.0480   22.6110 C   0  0  0  0  0  0  0  0  0  0  0  0
  -22.7510   -4.4550   21.5310 F   0  0  0  0  0  0  0  0  0  0  0  0
  -21.1780   -4.1880   26.0320 F   0  0  0  0  0  0  0  0  0  0  0  0
  -23.0290  -13.7080   21.2260 C   0  0  0  0  0  0  0  0  0  0  0  0
  -22.3670  -12.9830   22.1200 N   0  0  0  0  0  0  0  0  0  0  0  0
  -22.5570  -14.7540   20.7790 O   0  0  0  0  0  0  0  0  0  0  0  0
  -22.7710  -12.1480   22.5180 H   0  0  0  0  0  0  0  0  0  0  0  0
  -21.4470  -13.2740   22.4180 H   0  0  0  0  0  0  0  0  0  0  0  0
  -25.5720  -15.4130   20.2950 N   0  0  0  0  0  0  0  0  0  0  0  0
  -24.8120  -16.0480   20.5150 H   0  0  0  0  0  0  0  0  0  0  0  0
  -26.3960  -15.8830   19.9420 H   0  0  0  0  0  0  0  0  0  0  0  0
  -30.9100  -18.8210   18.1400 O   0  0  0  0  0  0  0  0  0  0  0  0
  -30.8560  -19.7590   17.9950 H   0  0  0  0  0  0  0  0  0  0  0  0
  -28.2320  -25.7700   20.1220 O   0  0  0  0  0  0  0  0  0  0  0  0
  -24.6640  -31.8570   23.2370 C   0  0  0  0  0  0  0  0  0  0  0  0
  -27.2410  -26.9530   20.0880 C   0  0  0  0  0  0  0  0  0  0  0  0
  -23.4880  -30.5040   21.5610 C   0  0  0  0  0  3  0  0  0  0  0  0
  -24.9550  -28.9450   20.0890 C   0  0  0  0  0  0  0  0  0  0  0  0
  -26.0670  -30.6880   21.4430 C   0  0  0  0  0  2  0  0  0  0  0  0
  -26.1400  -29.2830   20.7490 C   0  0  0  0  0  0  0  0  0  0  0  0
  -27.2600  -28.3110   20.7330 C   0  0  0  0  0  3  0  0  0  0  0  0
  -26.0520  -26.8560   19.3160 C   0  0  0  0  0  3  0  0  0  0  0  0
  -24.9430  -27.7540   19.3480 C   0  0  0  0  0  3  0  0  0  0  0  0
  -23.7310  -29.8670   20.1660 C   0  0  0  0  0  2  0  0  0  0  0  0
  -24.7640  -31.0450   22.1340 N   0  0  0  0  0  0  0  0  0  0  0  0
  -23.5700  -32.1210   23.7610 O   0  0  0  0  0  0  0  0  0  0  0  0
  -22.7870  -29.4790   22.4930 C   0  0  0  0  0  0  0  0  0  0  0  0
  -21.4600  -29.3040   22.3460 N   0  0  0  0  0  0  0  0  0  0  0  0
  -23.4480  -28.8440   23.3170 O   0  0  0  0  0  0  0  0  0  0  0  0
  -20.9760  -29.8610   21.6550 H   0  0  0  0  0  0  0  0  0  0  0  0
  -18.0760  -28.0900   22.8450 C   0  0  0  0  0  0  0  0  0  0  0  0
  -20.6410  -28.3400   23.0930 C   0  0  0  0  0  3  0  0  0  0  0  0
  -20.7290  -26.9210   22.4770 C   0  0  0  0  0  2  0  0  0  0  0  0
  -19.6200  -26.6340   21.4540 C   0  0  0  0  0  2  0  0  0  0  0  0
  -18.2400  -26.7800   22.0990 C   0  0  0  0  0  2  0  0  0  0  0  0
  -19.2020  -28.8310   23.2900 C   0  0  0  0  0  0  0  0  0  0  0  0
  -18.9940  -30.0670   23.9360 C   0  0  0  0  0  3  0  0  0  0  0  0
  -17.6890  -30.5600   24.1420 C   0  0  0  0  0  3  0  0  0  0  0  0
  -16.5780  -29.8130   23.7200 C   0  0  0  0  0  3  0  0  0  0  0  0
  -16.7730  -28.5810   23.0730 C   0  0  0  0  0  3  0  0  0  0  0  0
  -25.9220  -32.5000   23.8980 C   0  0  0  0  0  3  0  0  0  0  0  0
  -25.6000  -33.9040   24.2180 N   0  0  0  0  0  0  0  0  0  0  0  0
  -25.9240  -34.9620   23.4660 C   0  0  0  0  0  0  0  0  0  0  0  0
  -26.5820  -34.8590   22.4250 O   0  0  0  0  0  0  0  0  0  0  0  0
  -24.9970  -34.0540   25.0160 H   0  0  0  0  0  0  0  0  0  0  0  0
  -24.1750  -36.7580   23.1730 C   0  0  0  0  0  1  0  0  0  0  0  0
  -25.4480  -36.3560   23.9360 C   0  0  0  0  0  3  0  0  0  0  0  0
  -27.5960  -37.2750   24.6940 C   0  0  0  0  0  1  0  0  0  0  0  0
  -26.4700  -37.4140   23.7740 N   0  0  0  0  0  0  0  0  0  0  0  0
  -26.0630  -38.3340   23.9120 H   0  0  0  0  0  0  0  0  0  0  0  0
  -26.3880  -31.7450   25.2030 C   0  0  1  0  0  0  0  0  0  0  0  0
  -25.2610  -31.5320   26.2420 C   0  0  0  0  0  1  0  0  0  0  0  0
  -26.9650  -30.3590   24.8540 C   0  0  0  0  0  1  0  0  0  0  0  0
  -27.5270  -32.5370   25.8850 C   0  0  0  0  0  1  0  0  0  0  0  0
  1  4  1  0
  3  6  2  0
  4  2  2  0
  4 11  1  0
  5  1  2  0
  5  3  1  0
  6 51  1  0
  6  2  1  0
  7  5  1  0
  8 13  1  0
  8 10  1  0
  9 49  1  0
  9  8  1  0
  9 11  1  0
 11 10  1  0
 11 12  1  1
 13 19  1  0
 14 19  1  0
 15 16  1  0
 15 14  1  0
 17 16  1  0
 17 24  1  0
 17 18  1  0
 19 18  1  0
 20 13  2  0
 21 22  2  0
 22 41  1  0
 23 22  1  0
 23 26  1  0
 24 25  1  0
 24 21  1  0
 25 23  2  0
 26 27  1  0
 27 28  2  0
 29 32  1  0
 29 28  1  0
 30 29  2  0
 31 30  1  0
 31 26  2  0
 32 33  1  0
 33 38  2  0
 33 34  1  0
 34 35  2  0
 35 36  1  0
 36 40  1  0
 37 36  2  0
 38 37  1  0
 39 38  1  0
 41 42  1  0
 42 45  1  0
 42 44  1  0
 43 41  2  0
 46 21  1  0
 46 47  1  0
 48 46  1  0
 50 49  1  0
 52 63  2  0
 53 51  1  0
 53 58  1  0
 54 62  1  0
 54 64  1  0
 55 61  1  0
 55 57  1  0
 56 62  1  0
 57 56  1  0
 58 57  2  0
 59 60  1  0
 59 53  2  0
 60 55  2  0
 61 54  1  0
 62 52  1  0
 64 66  2  0
 65 64  1  0
 67 65  1  0
 68 77  2  0
 68 73  1  0
 69 65  1  0
 69 73  1  0
 70 69  1  0
 71 72  1  0
 71 70  1  0
 72 68  1  0
 73 74  2  0
 74 75  1  0
 76 75  2  0
 77 76  1  0
 78 52  1  0
 78 79  1  0
 78 88  1  0
 79 82  1  0
 80 84  1  0
 80 79  1  0
 81 80  2  0
 84 83  1  0
 86 87  1  0
 86 84  1  0
 86 85  1  0
 88 91  1  1
 88 89  1  0
 90 88  1  0
M  ISO  4   6 101   8 100  13 100  51 101
M  END
>  <TORSDO>  (41) 
F 18

>  <SCORE>  (41) 
-15.187

>  <name>  (41) 
40

>  <ligand_id>  (41) 
40

>  <original_smiles>  (41) 
[H]OC1=C(C(=O)N2C([H])([H])C([H])([H])C([H])([H])C([H])(n3nc(-c4c([H])c([H])c(Oc5c([H])c([H])c(F)c([H])c5F)c([H])c4[H])c(C(=O)N([H])[H])c3N([H])[H])C2([H])[H])C([H])([H])C1(c1c([H])c(Oc2c([H])c([H])c3c(c2[H])C([H])([H])N(C(=O)C([H])(N([H])C(=O)C([H])(N([H])C([H])([H])[H])C([H])([H])[H])C(C([H])([H])[H])(C([H])([H])[H])C([H])([H])[H])C([H])(C(=O)N([H])C2([H])c4c([H])c([H])c([H])c([H])c4C([H])([H])C([H])([H])C2([H])[H])C3([H])[H])c([H])c(C([H])([H])[H])c1[H])C([H])([H])[H]

>  <smiles>  (41) 
[H]OC1=C(C(=O)N2C([H])([H])C([H])([H])C([H])([H])C([H])(n3nc(-c4c([H])c([H])c(Oc5c([H])c([H])c(F)c([H])c5F)c([H])c4[H])c(C(=O)N([H])[H])c3N([H])[H])C2([H])[H])C([H])([H])C1(c1c([H])c(Oc2c([H])c([H])c3c(c2[H])C([H])([H])N(C(=O)C([H])(N([H])C(=O)C([H])(N([H])C([H])([H])[H])C([H])([H])[H])C(C([H])([H])[H])(C([H])([H])[H])C([H])([H])[H])C([H])(C(=O)N([H])C2([H])c4c([H])c([H])c([H])c([H])c4C([H])([H])C([H])([H])C2([H])[H])C3([H])[H])c([H])c(C([H])([H])[H])c1[H])C([H])([H])[H]

$$$$
41:0:0
     RDKit          3D

 92101  0  0  1  0  0  0  0  0999 V2000
  -26.1470  -21.6130   17.9840 C   0  0  0  0  0  3  0  0  0  0  0  0
  -27.1860  -21.0780   18.7540 C   0  0  0  0  0  3  0  0  0  0  0  0
  -26.9060  -23.8200   18.5770 C   0  0  0  0  0  3  0  0  0  0  0  0
  -26.0130  -22.9940   17.8730 C   0  0  0  0  0  0  0  0  0  0  0  0
  -28.1000  -21.8320   19.5480 C   0  0  0  0  0  0  0  0  0  0  0  0
  -27.8600  -23.3600   19.5280 C   0  0  0  0  0  0  0  0  0  0  0  0
  -24.9160  -23.5800   17.0090 C   0  0  0  0  0  1  0  0  0  0  0  0
  -29.1590  -20.7460   20.2630 C   0  0  0  0  0  2  0  0  0  0  0  0
  -30.6350  -15.2450   20.1000 C   0  0  0  0  0  0  0  0  0  0  0  0
  -30.5720  -12.8550   19.1680 C   0  0  0  0  0  2  0  0  0  0  0  0
  -29.6220  -12.6850   17.9590 C   0  0  0  0  0  2  0  0  0  0  0  0
  -28.1940  -12.3690   18.4490 C   0  0  0  0  0  2  0  0  0  0  0  0
  -27.7500  -13.3450   19.5690 C   0  0  0  0  0  3  0  0  0  0  0  0
  -28.8190  -13.4580   20.6740 C   0  0  0  0  0  2  0  0  0  0  0  0
  -30.0450  -13.9620   20.0360 N   0  0  0  0  0  0  0  0  0  0  0  0
  -31.8530  -15.2280   19.8610 O   0  0  0  0  0  0  0  0  0  0  0  0
  -30.3210  -17.8700   20.1450 C   0  0  0  0  0  0  0  0  0  0  0  0
  -28.0010  -18.1800   20.3560 C   0  0  0  0  0  2  0  0  0  0  0  0
  -28.4210  -16.6750   20.2840 C   0  0  0  0  0  2  0  0  0  0  0  0
  -29.1910  -19.0440   19.8770 C   0  0  0  0  0  3  0  0  0  0  0  0
  -29.8900  -16.5120   20.1970 N   0  0  0  0  0  0  0  0  0  0  0  0
  -31.5030  -18.2070   20.2410 O   0  0  0  0  0  0  0  0  0  0  0  0
  -25.4240  -13.9440   20.4550 C   0  0  0  0  0  0  0  0  0  0  0  0
  -24.3740  -13.1800   20.8780 C   0  0  0  0  0  0  0  0  0  0  0  0
  -24.8170  -11.8300   20.7900 C   0  0  0  0  0  0  0  0  0  0  0  0
  -26.4400  -13.0570   20.1300 N   0  0  0  0  0  0  0  0  0  0  0  0
  -26.0900  -11.7750   20.4020 N   0  0  0  0  0  0  0  0  0  0  0  0
  -24.0810  -10.5790   20.9790 C   0  0  0  0  0  0  0  0  0  0  0  0
  -24.5260   -9.6040   21.8950 C   0  0  0  0  0  3  0  0  0  0  0  0
  -23.7990   -8.4080   22.0770 C   0  0  0  0  0  3  0  0  0  0  0  0
  -22.6110   -8.1830   21.3350 C   0  0  0  0  0  0  0  0  0  0  0  0
  -22.1870   -9.1480   20.4050 C   0  0  0  0  0  3  0  0  0  0  0  0
  -22.9170  -10.3340   20.2260 C   0  0  0  0  0  3  0  0  0  0  0  0
  -21.8490   -7.0430   21.4280 O   0  0  0  0  0  0  0  0  0  0  0  0
  -21.7810   -6.3140   22.5900 C   0  0  0  0  0  0  0  0  0  0  0  0
  -21.3080   -6.8710   23.7960 C   0  0  0  0  0  3  0  0  0  0  0  0
  -21.1900   -6.0620   24.9470 C   0  0  0  0  0  3  0  0  0  0  0  0
  -21.5370   -4.7000   24.8870 C   0  0  0  0  0  0  0  0  0  0  0  0
  -22.0020   -4.1410   23.6820 C   0  0  0  0  0  3  0  0  0  0  0  0
  -22.1280   -4.9470   22.5390 C   0  0  0  0  0  0  0  0  0  0  0  0
  -22.5590   -4.4030   21.3750 F   0  0  0  0  0  0  0  0  0  0  0  0
  -21.4100   -3.9220   25.9860 F   0  0  0  0  0  0  0  0  0  0  0  0
  -23.0010  -13.6800   21.2240 C   0  0  0  0  0  0  0  0  0  0  0  0
  -22.2890  -12.9750   22.0960 N   0  0  0  0  0  0  0  0  0  0  0  0
  -22.5660  -14.7270   20.7530 O   0  0  0  0  0  0  0  0  0  0  0  0
  -22.6610  -12.1470   22.5370 H   0  0  0  0  0  0  0  0  0  0  0  0
  -21.3520  -13.2720   22.3180 H   0  0  0  0  0  0  0  0  0  0  0  0
  -25.5650  -15.3160   20.2960 N   0  0  0  0  0  0  0  0  0  0  0  0
  -24.7110  -15.8600   20.3370 H   0  0  0  0  0  0  0  0  0  0  0  0
  -26.3060  -15.7630   19.7810 H   0  0  0  0  0  0  0  0  0  0  0  0
  -28.4090  -24.6710   20.3850 C   0  0  0  0  0  2  0  0  0  0  0  0
  -28.2640  -26.2280   20.0730 O   0  0  0  0  0  0  0  0  0  0  0  0
  -24.6220  -31.9180   23.2070 C   0  0  0  0  0  0  0  0  0  0  0  0
  -27.1540  -27.1650   20.1750 C   0  0  0  0  0  0  0  0  0  0  0  0
  -23.4150  -30.5350   21.5720 C   0  0  0  0  0  3  0  0  0  0  0  0
  -24.8490  -28.9720   20.1430 C   0  0  0  0  0  0  0  0  0  0  0  0
  -25.9780  -30.7970   21.3880 C   0  0  0  0  0  2  0  0  0  0  0  0
  -26.0420  -29.4060   20.7260 C   0  0  0  0  0  0  0  0  0  0  0  0
  -27.2030  -28.5310   20.6920 C   0  0  0  0  0  3  0  0  0  0  0  0
  -25.8920  -26.8120   19.6540 C   0  0  0  0  0  3  0  0  0  0  0  0
  -24.7930  -27.6940   19.5840 C   0  0  0  0  0  3  0  0  0  0  0  0
  -23.6360  -29.8860   20.1850 C   0  0  0  0  0  2  0  0  0  0  0  0
  -24.6960  -31.0990   22.1130 N   0  0  0  0  0  0  0  0  0  0  0  0
  -23.5380  -32.1970   23.7390 O   0  0  0  0  0  0  0  0  0  0  0  0
  -22.7480  -29.5080   22.5210 C   0  0  0  0  0  0  0  0  0  0  0  0
  -21.4190  -29.3330   22.4070 N   0  0  0  0  0  0  0  0  0  0  0  0
  -23.4310  -28.8720   23.3280 O   0  0  0  0  0  0  0  0  0  0  0  0
  -20.9260  -29.8990   21.7330 H   0  0  0  0  0  0  0  0  0  0  0  0
  -18.0430  -28.1400   22.9340 C   0  0  0  0  0  0  0  0  0  0  0  0
  -20.6040  -28.3890   23.1720 C   0  0  0  0  0  3  0  0  0  0  0  0
  -20.6920  -26.9620   22.5800 C   0  0  0  0  0  2  0  0  0  0  0  0
  -19.5790  -26.6560   21.5720 C   0  0  0  0  0  2  0  0  0  0  0  0
  -18.2040  -26.8010   22.2310 C   0  0  0  0  0  2  0  0  0  0  0  0
  -19.1670  -28.8940   23.3590 C   0  0  0  0  0  0  0  0  0  0  0  0
  -18.9580  -30.1520   23.9690 C   0  0  0  0  0  3  0  0  0  0  0  0
  -17.6580  -30.6590   24.1490 C   0  0  0  0  0  3  0  0  0  0  0  0
  -16.5480  -29.9010   23.7410 C   0  0  0  0  0  3  0  0  0  0  0  0
  -16.7390  -28.6410   23.1430 C   0  0  0  0  0  3  0  0  0  0  0  0
  -25.8990  -32.5580   23.8340 C   0  0  0  0  0  3  0  0  0  0  0  0
  -25.5900  -33.9590   24.1590 N   0  0  0  0  0  0  0  0  0  0  0  0
  -25.9110  -35.0170   23.4000 C   0  0  0  0  0  0  0  0  0  0  0  0
  -26.5770  -34.9180   22.3660 O   0  0  0  0  0  0  0  0  0  0  0  0
  -25.0230  -34.1220   24.9780 H   0  0  0  0  0  0  0  0  0  0  0  0
  -24.1790  -36.8010   23.0460 C   0  0  0  0  0  1  0  0  0  0  0  0
  -25.4150  -36.3960   23.8640 C   0  0  0  0  0  3  0  0  0  0  0  0
  -27.5350  -37.2830   24.7270 C   0  0  0  0  0  1  0  0  0  0  0  0
  -26.4420  -37.4580   23.7720 N   0  0  0  0  0  0  0  0  0  0  0  0
  -26.0300  -38.3770   23.9190 H   0  0  0  0  0  0  0  0  0  0  0  0
  -26.4040  -31.7990   25.1250 C   0  0  1  0  0  0  0  0  0  0  0  0
  -25.2960  -31.5750   26.1760 C   0  0  0  0  0  1  0  0  0  0  0  0
  -26.9770  -30.4140   24.7500 C   0  0  0  0  0  1  0  0  0  0  0  0
  -27.5430  -32.5930   25.8060 C   0  0  0  0  0  1  0  0  0  0  0  0
  1  2  1  0
  2  5  2  0
  3  6  2  0
  4  1  2  0
  4  3  1  0
  5  8  1  0
  6  5  1  0
  6 51  1  0
  7  4  1  0
  9 21  1  0
 10 15  1  0
 11 12  1  0
 11 10  1  0
 13 12  1  0
 13 26  1  0
 13 14  1  0
 15  9  1  0
 15 14  1  0
 16  9  2  0
 17 21  1  0
 17 22  2  0
 19 18  1  0
 20 17  1  0
 20  8  1  0
 20 18  1  0
 21 19  1  0
 23 24  2  0
 24 43  1  0
 25 24  1  0
 25 28  1  0
 26 27  1  0
 26 23  1  0
 27 25  2  0
 28 29  1  0
 29 30  2  0
 31 34  1  0
 31 30  1  0
 32 31  2  0
 33 32  1  0
 33 28  2  0
 34 35  1  0
 35 36  1  0
 36 37  2  0
 38 37  1  0
 38 42  1  0
 39 38  2  0
 40 35  2  0
 40 39  1  0
 41 40  1  0
 43 44  1  0
 44 47  1  0
 44 46  1  0
 45 43  2  0
 48 49  1  0
 48 23  1  0
 50 48  1  0
 52 54  1  0
 52 51  1  0
 53 64  2  0
 54 59  1  0
 55 63  1  0
 55 65  1  0
 56 62  1  0
 56 58  1  0
 57 63  1  0
 58 57  1  0
 59 58  2  0
 60 54  2  0
 61 60  1  0
 61 56  2  0
 62 55  1  0
 63 53  1  0
 65 67  2  0
 66 65  1  0
 68 66  1  0
 69 78  2  0
 69 74  1  0
 70 66  1  0
 70 74  1  0
 71 70  1  0
 72 73  1  0
 72 71  1  0
 73 69  1  0
 74 75  2  0
 75 76  1  0
 77 76  2  0
 78 77  1  0
 79 53  1  0
 79 80  1  0
 79 89  1  0
 80 83  1  0
 81 85  1  0
 81 80  1  0
 82 81  2  0
 85 84  1  0
 87 85  1  0
 87 88  1  0
 87 86  1  0
 89 92  1  1
 89 90  1  0
 91 89  1  0
M  ISO  4   9 100  21 100  51 101  52 101
M  END
>  <TORSDO>  (42) 
F 18

>  <SCORE>  (42) 
-15.494

>  <name>  (42) 
41

>  <ligand_id>  (42) 
41

>  <original_smiles>  (42) 
[H]c1c([H])c([H])c2c(c1[H])C([H])([H])C([H])([H])C([H])([H])C2([H])N([H])C(=O)C1([H])N(C(=O)C([H])(N([H])C(=O)C([H])(N([H])C([H])([H])[H])C([H])([H])[H])C(C([H])([H])[H])(C([H])([H])[H])C([H])([H])[H])C([H])([H])c2c([H])c(OC([H])([H])c3c([H])c(C([H])([H])[H])c([H])c([H])c3C([H])([H])C3([H])C(=O)N(C(=O)N4C([H])([H])C([H])([H])C([H])([H])C([H])(n5nc(-c6c([H])c([H])c(Oc7c([H])c([H])c(F)c([H])c7F)c([H])c6[H])c(C(=O)N([H])[H])c5N([H])[H])C4([H])[H])C([H])([H])C3([H])[H])c([H])c([H])c2C1([H])[H]

>  <smiles>  (42) 
[H]c1c([H])c([H])c2c(c1[H])C([H])([H])C([H])([H])C([H])([H])C2([H])N([H])C(=O)C1([H])N(C(=O)C([H])(N([H])C(=O)C([H])(N([H])C([H])([H])[H])C([H])([H])[H])C(C([H])([H])[H])(C([H])([H])[H])C([H])([H])[H])C([H])([H])c2c([H])c(OC([H])([H])c3c([H])c(C([H])([H])[H])c([H])c([H])c3C([H])([H])C3([H])C(=O)N(C(=O)N4C([H])([H])C([H])([H])C([H])([H])C([H])(n5nc(-c6c([H])c([H])c(Oc7c([H])c([H])c(F)c([H])c7F)c([H])c6[H])c(C(=O)N([H])[H])c5N([H])[H])C4([H])[H])C([H])([H])C3([H])[H])c([H])c([H])c2C1([H])[H]

$$$$
42:0:0
     RDKit          3D

 91 99  0  0  1  0  0  0  0  0999 V2000
  -30.1330  -16.8310   20.0740 C   0  0  0  0  0  0  0  0  0  0  0  0
  -29.8830  -17.5210   18.8100 C   0  0  0  0  0  0  0  0  0  0  0  0
  -29.9920  -17.8160   21.1430 C   0  0  0  0  0  0  0  0  0  0  0  0
  -29.5510  -18.9590   18.6410 C   0  0  0  0  0  0  0  0  0  0  0  0
  -29.5930  -19.2440   20.9670 C   0  0  0  0  0  0  0  0  0  0  0  0
  -29.3250  -19.9180   19.7030 C   0  0  0  0  0  0  0  0  0  0  0  0
  -29.9550  -16.6610   17.5480 C   0  0  0  0  0  1  0  0  0  0  0  0
  -29.4330  -19.5330   17.2320 C   0  0  0  0  0  1  0  0  0  0  0  0
  -29.4390  -20.1200   22.2080 C   0  0  0  0  0  1  0  0  0  0  0  0
  -30.7640  -15.2910   20.1700 C   0  0  0  0  0  0  0  0  0  0  0  0
  -30.6610  -12.8220   19.4900 C   0  0  0  0  0  2  0  0  0  0  0  0
  -29.7760  -12.6000   18.2380 C   0  0  0  0  0  2  0  0  0  0  0  0
  -28.3050  -12.4010   18.6410 C   0  0  0  0  0  2  0  0  0  0  0  0
  -27.8480  -13.4240   19.7100 C   0  0  0  0  0  3  0  0  0  0  0  0
  -28.8680  -13.6140   20.8460 C   0  0  0  0  0  2  0  0  0  0  0  0
  -30.1410  -14.0230   20.2360 N   0  0  0  0  0  0  0  0  0  0  0  0
  -31.9800  -15.2160   19.9560 O   0  0  0  0  0  0  0  0  0  0  0  0
  -25.4970  -14.0400   20.4860 C   0  0  0  0  0  0  0  0  0  0  0  0
  -24.4140  -13.2880   20.8430 C   0  0  0  0  0  0  0  0  0  0  0  0
  -24.8400  -11.9250   20.7860 C   0  0  0  0  0  0  0  0  0  0  0  0
  -26.5120  -13.1390   20.2190 N   0  0  0  0  0  0  0  0  0  0  0  0
  -26.1290  -11.8600   20.4690 N   0  0  0  0  0  0  0  0  0  0  0  0
  -24.0740  -10.6810   20.9530 C   0  0  0  0  0  0  0  0  0  0  0  0
  -24.4740   -9.6860   21.8720 C   0  0  0  0  0  3  0  0  0  0  0  0
  -23.7100   -8.5090   22.0300 C   0  0  0  0  0  3  0  0  0  0  0  0
  -22.5310   -8.3200   21.2690 C   0  0  0  0  0  0  0  0  0  0  0  0
  -22.1510   -9.3040   20.3410 C   0  0  0  0  0  3  0  0  0  0  0  0
  -22.9140  -10.4720   20.1820 C   0  0  0  0  0  3  0  0  0  0  0  0
  -21.7410   -7.1980   21.3360 O   0  0  0  0  0  0  0  0  0  0  0  0
  -21.6580   -6.4430   22.4780 C   0  0  0  0  0  0  0  0  0  0  0  0
  -21.2480   -6.9960   23.7100 C   0  0  0  0  0  3  0  0  0  0  0  0
  -21.1110   -6.1680   24.8430 C   0  0  0  0  0  3  0  0  0  0  0  0
  -21.3750   -4.7890   24.7450 C   0  0  0  0  0  0  0  0  0  0  0  0
  -21.7790   -4.2350   23.5180 C   0  0  0  0  0  3  0  0  0  0  0  0
  -21.9190   -5.0600   22.3870 C   0  0  0  0  0  0  0  0  0  0  0  0
  -22.2860   -4.5170   21.2010 F   0  0  0  0  0  0  0  0  0  0  0  0
  -21.2370   -3.9920   25.8310 F   0  0  0  0  0  0  0  0  0  0  0  0
  -23.0320  -13.8020   21.1220 C   0  0  0  0  0  0  0  0  0  0  0  0
  -22.2860  -13.1160   21.9810 N   0  0  0  0  0  0  0  0  0  0  0  0
  -22.6250  -14.8450   20.6150 O   0  0  0  0  0  0  0  0  0  0  0  0
  -22.6320  -12.2710   22.4120 H   0  0  0  0  0  0  0  0  0  0  0  0
  -21.3590  -13.4420   22.2120 H   0  0  0  0  0  0  0  0  0  0  0  0
  -25.7030  -15.4080   20.3400 N   0  0  0  0  0  0  0  0  0  0  0  0
  -24.9610  -16.0860   20.4760 H   0  0  0  0  0  0  0  0  0  0  0  0
  -26.5720  -15.8310   20.0400 H   0  0  0  0  0  0  0  0  0  0  0  0
  -31.7770  -17.5390   22.9480 C   0  0  0  0  0  1  0  0  0  0  0  0
  -30.3080  -17.3300   22.5590 C   0  0  0  0  0  2  0  0  0  0  0  0
  -28.5640  -21.4440   19.4890 C   0  0  0  0  0  2  0  0  0  0  0  0
  -29.0550  -23.1140   19.4810 C   0  0  0  0  0  3  0  0  0  0  0  0
  -28.0500  -24.5230   19.2210 C   0  0  0  0  0  3  0  0  0  0  0  0
  -28.2870  -26.1000   19.3910 O   0  0  0  0  0  0  0  0  0  0  0  0
  -24.6280  -31.5560   22.9020 C   0  0  0  0  0  0  0  0  0  0  0  0
  -27.2210  -27.1050   19.4260 C   0  0  0  0  0  0  0  0  0  0  0  0
  -23.4070  -30.2370   21.2180 C   0  0  0  0  0  3  0  0  0  0  0  0
  -24.8440  -28.8140   19.6180 C   0  0  0  0  0  0  0  0  0  0  0  0
  -25.9450  -30.5920   20.9650 C   0  0  0  0  0  2  0  0  0  0  0  0
  -26.0380  -29.2460   20.2080 C   0  0  0  0  0  0  0  0  0  0  0  0
  -27.2240  -28.4120   20.0910 C   0  0  0  0  0  3  0  0  0  0  0  0
  -25.9930  -26.8020   18.7990 C   0  0  0  0  0  3  0  0  0  0  0  0
  -24.8380  -27.6120   18.8930 C   0  0  0  0  0  3  0  0  0  0  0  0
  -23.5900  -29.6650   19.7860 C   0  0  0  0  0  2  0  0  0  0  0  0
  -24.6840  -30.8160   21.7510 N   0  0  0  0  0  0  0  0  0  0  0  0
  -23.5580  -31.7610   23.4950 O   0  0  0  0  0  0  0  0  0  0  0  0
  -22.8020  -29.1430   22.1370 C   0  0  0  0  0  0  0  0  0  0  0  0
  -21.4770  -28.9280   22.0530 N   0  0  0  0  0  0  0  0  0  0  0  0
  -23.5300  -28.4900   22.8890 O   0  0  0  0  0  0  0  0  0  0  0  0
  -20.9420  -29.5110   21.4250 H   0  0  0  0  0  0  0  0  0  0  0  0
  -18.1770  -27.5250   22.5880 C   0  0  0  0  0  0  0  0  0  0  0  0
  -20.7280  -27.9050   22.7870 C   0  0  0  0  0  3  0  0  0  0  0  0
  -20.8790  -26.5170   22.1210 C   0  0  0  0  0  2  0  0  0  0  0  0
  -19.7590  -26.2010   21.1220 C   0  0  0  0  0  2  0  0  0  0  0  0
  -18.3950  -26.2340   21.8180 C   0  0  0  0  0  2  0  0  0  0  0  0
  -19.2700  -28.3180   23.0290 C   0  0  0  0  0  0  0  0  0  0  0  0
  -19.0080  -29.5250   23.7140 C   0  0  0  0  0  3  0  0  0  0  0  0
  -17.6870  -29.9430   23.9540 C   0  0  0  0  0  3  0  0  0  0  0  0
  -16.6080  -29.1490   23.5260 C   0  0  0  0  0  3  0  0  0  0  0  0
  -16.8540  -27.9410   22.8510 C   0  0  0  0  0  3  0  0  0  0  0  0
  -25.9070  -32.1970   23.5230 C   0  0  0  0  0  3  0  0  0  0  0  0
  -26.5200  -31.3440   24.7040 C   0  0  1  0  0  0  0  0  0  0  0  0
  -25.4960  -30.9690   25.8020 C   0  0  0  0  0  1  0  0  0  0  0  0
  -27.1340  -30.0290   24.1730 C   0  0  0  0  0  1  0  0  0  0  0  0
  -27.6750  -32.1290   25.3690 C   0  0  0  0  0  1  0  0  0  0  0  0
  -25.5490  -33.5440   24.0020 N   0  0  0  0  0  0  0  0  0  0  0  0
  -25.7900  -34.6820   23.3350 C   0  0  0  0  0  0  0  0  0  0  0  0
  -26.4010  -34.7090   22.2630 O   0  0  0  0  0  0  0  0  0  0  0  0
  -24.9940  -33.5920   24.8430 H   0  0  0  0  0  0  0  0  0  0  0  0
  -23.9600  -36.4110   23.2690 C   0  0  0  0  0  1  0  0  0  0  0  0
  -25.2740  -35.9980   23.9520 C   0  0  0  0  0  3  0  0  0  0  0  0
  -27.4210  -36.9190   24.7100 C   0  0  0  0  0  1  0  0  0  0  0  0
  -26.2450  -37.1100   23.8650 N   0  0  0  0  0  0  0  0  0  0  0  0
  -25.8100  -37.9920   24.1210 H   0  0  0  0  0  0  0  0  0  0  0  0
  1 10  1  0
  1  3  1  0
  2  1  2  0
  3 47  1  0
  4  2  1  0
  4  6  2  0
  5  3  2  0
  5  9  1  0
  6  5  1  0
  7  2  1  0
  8  4  1  0
 10 16  1  0
 11 16  1  0
 12 13  1  0
 12 11  1  0
 14 13  1  0
 14 21  1  0
 14 15  1  0
 16 15  1  0
 17 10  2  0
 18 19  2  0
 19 38  1  0
 20 19  1  0
 20 23  1  0
 21 22  1  0
 21 18  1  0
 22 20  2  0
 23 24  1  0
 24 25  2  0
 26 29  1  0
 26 25  1  0
 27 26  2  0
 28 27  1  0
 28 23  2  0
 29 30  1  0
 30 31  1  0
 31 32  2  0
 33 32  1  0
 33 37  1  0
 34 33  2  0
 35 30  2  0
 35 34  1  0
 36 35  1  0
 38 39  1  0
 39 42  1  0
 39 41  1  0
 40 38  2  0
 43 44  1  0
 43 18  1  0
 45 43  1  0
 47 46  1  0
 48  6  1  0
 49 48  1  0
 50 51  1  0
 50 49  2  0
 51 53  1  0
 52 63  2  0
 53 58  1  0
 54 62  1  0
 54 64  1  0
 55 61  1  0
 55 57  1  0
 56 62  1  0
 57 56  1  0
 58 57  2  0
 59 60  1  0
 59 53  2  0
 60 55  2  0
 61 54  1  0
 62 52  1  0
 64 66  2  0
 65 64  1  0
 67 65  1  0
 68 77  2  0
 68 73  1  0
 69 65  1  0
 69 73  1  0
 70 69  1  0
 71 72  1  0
 71 70  1  0
 72 68  1  0
 73 74  2  0
 74 75  1  0
 76 75  2  0
 77 76  1  0
 78 52  1  0
 78 83  1  0
 78 79  1  0
 79 82  1  1
 79 80  1  0
 81 79  1  0
 83 86  1  0
 84 88  1  0
 84 83  1  0
 85 84  2  0
 88 87  1  0
 90 88  1  0
 90 91  1  0
 90 89  1  0
M  ISO  4   1 100  10 100  50 101  51 101
M  END
>  <TORSDO>  (43) 
F 20

>  <SCORE>  (43) 
-10.679

>  <name>  (43) 
42

>  <ligand_id>  (43) 
42

>  <original_smiles>  (43) 
[H]c1c([H])c([H])c2c(c1[H])C([H])([H])C([H])([H])C([H])([H])C2([H])N([H])C(=O)C1([H])N(C(=O)C([H])(N([H])C(=O)C([H])(N([H])C([H])([H])[H])C([H])([H])[H])C(C([H])([H])[H])(C([H])([H])[H])C([H])([H])[H])C([H])([H])c2c([H])c(OC([H])([H])C([H])([H])C([H])([H])c3c(C([H])([H])[H])c(C([H])([H])[H])c(C(=O)N4C([H])([H])C([H])([H])C([H])([H])C([H])(n5nc(-c6c([H])c([H])c(Oc7c([H])c([H])c(F)c([H])c7F)c([H])c6[H])c(C(=O)N([H])[H])c5N([H])[H])C4([H])[H])c(C([H])([H])C([H])([H])[H])c3C([H])([H])[H])c([H])c([H])c2C1([H])[H]

>  <smiles>  (43) 
[H]c1c([H])c([H])c2c(c1[H])C([H])([H])C([H])([H])C([H])([H])C2([H])N([H])C(=O)C1([H])N(C(=O)C([H])(N([H])C(=O)C([H])(N([H])C([H])([H])[H])C([H])([H])[H])C(C([H])([H])[H])(C([H])([H])[H])C([H])([H])[H])C([H])([H])c2c([H])c(OC([H])([H])C([H])([H])C([H])([H])c3c(C([H])([H])[H])c(C([H])([H])[H])c(C(=O)N4C([H])([H])C([H])([H])C([H])([H])C([H])(n5nc(-c6c([H])c([H])c(Oc7c([H])c([H])c(F)c([H])c7F)c([H])c6[H])c(C(=O)N([H])[H])c5N([H])[H])C4([H])[H])c(C([H])([H])C([H])([H])[H])c3C([H])([H])[H])c([H])c([H])c2C1([H])[H]

$$$$
43:0:0
     RDKit          3D

 90 98  0  0  1  0  0  0  0  0999 V2000
  -29.8450  -20.4450   19.5890 C   0  0  0  0  0  0  0  0  0  0  0  0
  -30.4650  -20.7270   18.5620 O   0  0  0  0  0  0  0  0  0  0  0  0
  -29.3740  -17.5030   22.1040 C   0  0  0  0  0  3  0  0  0  0  0  0
  -29.3590  -18.7500   21.4480 C   0  0  0  0  0  3  0  0  0  0  0  0
  -29.8680  -16.3300   21.4960 C   0  0  0  0  0  3  0  0  0  0  0  0
  -29.8570  -18.9160   20.1400 C   0  0  0  0  0  0  0  0  0  0  0  0
  -30.3490  -16.2960   20.1690 C   0  0  0  0  0  0  0  0  0  0  0  0
  -30.3490  -17.6450   19.5110 C   0  0  0  0  0  0  0  0  0  0  0  0
  -30.9600  -14.9040   19.6240 C   0  0  0  0  0  0  0  0  0  0  0  0
  -30.6460  -12.6230   18.5640 C   0  0  0  0  0  2  0  0  0  0  0  0
  -29.5830  -12.7050   17.4440 C   0  0  0  0  0  2  0  0  0  0  0  0
  -28.1670  -12.4990   18.0170 C   0  0  0  0  0  2  0  0  0  0  0  0
  -27.9300  -13.3360   19.3000 C   0  0  0  0  0  3  0  0  0  0  0  0
  -29.1030  -13.2150   20.2880 C   0  0  0  0  0  2  0  0  0  0  0  0
  -30.3210  -13.6590   19.5920 N   0  0  0  0  0  0  0  0  0  0  0  0
  -32.0790  -14.9450   19.1010 O   0  0  0  0  0  0  0  0  0  0  0  0
  -25.6650  -13.9050   20.3500 C   0  0  0  0  0  0  0  0  0  0  0  0
  -24.6350  -13.1250   20.8000 C   0  0  0  0  0  0  0  0  0  0  0  0
  -25.0650  -11.7720   20.6380 C   0  0  0  0  0  0  0  0  0  0  0  0
  -26.6520  -13.0270   19.9350 N   0  0  0  0  0  0  0  0  0  0  0  0
  -26.3080  -11.7350   20.1710 N   0  0  0  0  0  0  0  0  0  0  0  0
  -24.3390  -10.5110   20.8440 C   0  0  0  0  0  0  0  0  0  0  0  0
  -24.7910   -9.5370   21.7610 C   0  0  0  0  0  3  0  0  0  0  0  0
  -24.0650   -8.3430   21.9540 C   0  0  0  0  0  3  0  0  0  0  0  0
  -22.8720   -8.1120   21.2270 C   0  0  0  0  0  0  0  0  0  0  0  0
  -22.4400   -9.0730   20.2960 C   0  0  0  0  0  3  0  0  0  0  0  0
  -23.1670  -10.2600   20.1030 C   0  0  0  0  0  3  0  0  0  0  0  0
  -22.1170   -6.9690   21.3270 O   0  0  0  0  0  0  0  0  0  0  0  0
  -22.0020   -6.2820   22.5100 C   0  0  0  0  0  0  0  0  0  0  0  0
  -21.4970   -6.8930   23.6790 C   0  0  0  0  0  3  0  0  0  0  0  0
  -21.3330   -6.1330   24.8550 C   0  0  0  0  0  3  0  0  0  0  0  0
  -21.6610   -4.7640   24.8600 C   0  0  0  0  0  0  0  0  0  0  0  0
  -22.1580   -4.1540   23.6950 C   0  0  0  0  0  3  0  0  0  0  0  0
  -22.3240   -4.9100   22.5230 C   0  0  0  0  0  0  0  0  0  0  0  0
  -22.7830   -4.3130   21.3970 F   0  0  0  0  0  0  0  0  0  0  0  0
  -21.4960   -4.0320   25.9870 F   0  0  0  0  0  0  0  0  0  0  0  0
  -23.2910  -13.6050   21.2630 C   0  0  0  0  0  0  0  0  0  0  0  0
  -22.6670  -12.8850   22.1890 N   0  0  0  0  0  0  0  0  0  0  0  0
  -22.8050  -14.6510   20.8360 O   0  0  0  0  0  0  0  0  0  0  0  0
  -23.0760  -12.0380   22.5540 H   0  0  0  0  0  0  0  0  0  0  0  0
  -21.7700  -13.1890   22.5410 H   0  0  0  0  0  0  0  0  0  0  0  0
  -25.8410  -15.2800   20.2370 N   0  0  0  0  0  0  0  0  0  0  0  0
  -25.1220  -15.9490   20.4920 H   0  0  0  0  0  0  0  0  0  0  0  0
  -26.6870  -15.7210   19.8970 H   0  0  0  0  0  0  0  0  0  0  0  0
  -32.3680  -18.1160   18.0250 C   0  0  0  0  0  1  0  0  0  0  0  0
  -30.8850  -17.7250   18.0840 C   0  0  0  0  0  2  0  0  0  0  0  0
  -29.0550  -21.7270   20.2590 C   0  0  0  0  0  2  0  0  0  0  0  0
  -29.3660  -23.3450   19.9130 C   0  0  0  0  0  3  0  0  0  0  0  0
  -28.3640  -24.6250   20.3220 C   0  0  0  0  0  3  0  0  0  0  0  0
  -28.6490  -26.1490   20.2080 O   0  0  0  0  0  0  0  0  0  0  0  0
  -24.9930  -31.8240   23.1780 C   0  0  0  0  0  0  0  0  0  0  0  0
  -27.5820  -27.1120   20.1740 C   0  0  0  0  0  0  0  0  0  0  0  0
  -23.7940  -30.4070   21.5590 C   0  0  0  0  0  3  0  0  0  0  0  0
  -25.2430  -28.8310   20.1430 C   0  0  0  0  0  0  0  0  0  0  0  0
  -26.3450  -30.6890   21.3790 C   0  0  0  0  0  2  0  0  0  0  0  0
  -26.4230  -29.2910   20.7420 C   0  0  0  0  0  0  0  0  0  0  0  0
  -27.5950  -28.4460   20.7430 C   0  0  0  0  0  3  0  0  0  0  0  0
  -26.3800  -26.7570   19.5230 C   0  0  0  0  0  3  0  0  0  0  0  0
  -25.2340  -27.5780   19.5170 C   0  0  0  0  0  3  0  0  0  0  0  0
  -24.0120  -29.7180   20.1860 C   0  0  0  0  0  2  0  0  0  0  0  0
  -25.0650  -30.9950   22.0930 N   0  0  0  0  0  0  0  0  0  0  0  0
  -23.9070  -32.1080   23.7070 O   0  0  0  0  0  0  0  0  0  0  0  0
  -23.1280  -29.4030   22.5330 C   0  0  0  0  0  0  0  0  0  0  0  0
  -21.7990  -29.2330   22.4220 N   0  0  0  0  0  0  0  0  0  0  0  0
  -23.8100  -28.7800   23.3510 O   0  0  0  0  0  0  0  0  0  0  0  0
  -21.3040  -29.7890   21.7370 H   0  0  0  0  0  0  0  0  0  0  0  0
  -18.4220  -28.0400   22.9700 C   0  0  0  0  0  0  0  0  0  0  0  0
  -20.9840  -28.3030   23.2090 C   0  0  0  0  0  3  0  0  0  0  0  0
  -21.0800  -26.8660   22.6430 C   0  0  0  0  0  2  0  0  0  0  0  0
  -19.9660  -26.5350   21.6440 C   0  0  0  0  0  2  0  0  0  0  0  0
  -18.5920  -26.6860   22.3010 C   0  0  0  0  0  2  0  0  0  0  0  0
  -19.5460  -28.8060   23.3820 C   0  0  0  0  0  0  0  0  0  0  0  0
  -19.3330  -30.0710   23.9710 C   0  0  0  0  0  3  0  0  0  0  0  0
  -18.0300  -30.5720   24.1500 C   0  0  0  0  0  3  0  0  0  0  0  0
  -16.9220  -29.8050   23.7530 C   0  0  0  0  0  3  0  0  0  0  0  0
  -17.1180  -28.5410   23.1700 C   0  0  0  0  0  3  0  0  0  0  0  0
  -26.2700  -32.4740   23.7930 C   0  0  0  0  0  3  0  0  0  0  0  0
  -25.9470  -33.8720   24.1200 N   0  0  0  0  0  0  0  0  0  0  0  0
  -26.2700  -34.9290   23.3620 C   0  0  0  0  0  0  0  0  0  0  0  0
  -26.9360  -34.8300   22.3290 O   0  0  0  0  0  0  0  0  0  0  0  0
  -25.3530  -34.0230   24.9220 H   0  0  0  0  0  0  0  0  0  0  0  0
  -24.5210  -36.7100   23.0300 C   0  0  0  0  0  1  0  0  0  0  0  0
  -25.7760  -36.3150   23.8250 C   0  0  0  0  0  3  0  0  0  0  0  0
  -27.9130  -37.2200   24.6280 C   0  0  0  0  0  1  0  0  0  0  0  0
  -26.7980  -37.3760   23.6980 N   0  0  0  0  0  0  0  0  0  0  0  0
  -26.3860  -38.2930   23.8470 H   0  0  0  0  0  0  0  0  0  0  0  0
  -26.7980  -31.7140   25.0720 C   0  0  1  0  0  0  0  0  0  0  0  0
  -25.7100  -31.4650   26.1420 C   0  0  0  0  0  1  0  0  0  0  0  0
  -27.4000  -30.3420   24.6910 C   0  0  0  0  0  1  0  0  0  0  0  0
  -27.9360  -32.5290   25.7300 C   0  0  0  0  0  1  0  0  0  0  0  0
  1  6  1  0
  1 47  1  0
  2  1  2  0
  4  3  2  0
  5  3  1  0
  6  4  1  0
  7  5  2  0
  8  6  2  0
  8  7  1  0
  9  7  1  0
 10 15  1  0
 11 12  1  0
 11 10  1  0
 13 12  1  0
 13 20  1  0
 13 14  1  0
 15  9  1  0
 15 14  1  0
 16  9  2  0
 17 18  2  0
 18 37  1  0
 19 18  1  0
 19 22  1  0
 20 21  1  0
 20 17  1  0
 21 19  2  0
 22 23  1  0
 23 24  2  0
 25 28  1  0
 25 24  1  0
 26 25  2  0
 27 26  1  0
 27 22  2  0
 28 29  1  0
 29 34  2  0
 29 30  1  0
 30 31  2  0
 31 32  1  0
 32 36  1  0
 33 32  2  0
 34 33  1  0
 35 34  1  0
 37 38  1  0
 38 41  1  0
 38 40  1  0
 39 37  2  0
 42 17  1  0
 42 43  1  0
 44 42  1  0
 45 46  1  0
 46  8  1  0
 48 47  1  0
 48 49  2  0
 50 49  1  0
 51 62  2  0
 52 50  1  0
 52 57  1  0
 53 61  1  0
 53 63  1  0
 54 60  1  0
 54 56  1  0
 55 61  1  0
 56 57  2  0
 56 55  1  0
 58 52  2  0
 59 58  1  0
 59 54  2  0
 60 53  1  0
 61 51  1  0
 63 65  2  0
 64 63  1  0
 66 64  1  0
 67 76  2  0
 67 72  1  0
 68 64  1  0
 68 72  1  0
 69 68  1  0
 70 71  1  0
 70 69  1  0
 71 67  1  0
 72 73  2  0
 73 74  1  0
 75 74  2  0
 76 75  1  0
 77 51  1  0
 77 78  1  0
 77 87  1  0
 78 81  1  0
 79 83  1  0
 79 78  1  0
 80 79  2  0
 83 82  1  0
 85 83  1  0
 85 86  1  0
 85 84  1  0
 87 90  1  1
 87 88  1  0
 89 87  1  0
M  ISO  4   7 100   9 100  49 101  50 101
M  END
>  <TORSDO>  (44) 
F 21

>  <SCORE>  (44) 
-10.701

>  <name>  (44) 
43

>  <ligand_id>  (44) 
43

>  <original_smiles>  (44) 
[H]c1c([H])c(C(=O)N2C([H])([H])C([H])([H])C([H])([H])C([H])(n3nc(-c4c([H])c([H])c(Oc5c([H])c([H])c(F)c([H])c5F)c([H])c4[H])c(C(=O)N([H])[H])c3N([H])[H])C2([H])[H])c(C([H])([H])C([H])([H])[H])c(C(=O)C([H])([H])C([H])([H])C([H])([H])Oc2c([H])c([H])c3c(c2[H])C([H])([H])N(C(=O)C([H])(N([H])C(=O)C([H])(N([H])C([H])([H])[H])C([H])([H])[H])C(C([H])([H])[H])(C([H])([H])[H])C([H])([H])[H])C([H])(C(=O)N([H])C2([H])c4c([H])c([H])c([H])c([H])c4C([H])([H])C([H])([H])C2([H])[H])C3([H])[H])c1[H]

>  <smiles>  (44) 
[H]c1c([H])c(C(=O)N2C([H])([H])C([H])([H])C([H])([H])C([H])(n3nc(-c4c([H])c([H])c(Oc5c([H])c([H])c(F)c([H])c5F)c([H])c4[H])c(C(=O)N([H])[H])c3N([H])[H])C2([H])[H])c(C([H])([H])C([H])([H])[H])c(C(=O)C([H])([H])C([H])([H])C([H])([H])Oc2c([H])c([H])c3c(c2[H])C([H])([H])N(C(=O)C([H])(N([H])C(=O)C([H])(N([H])C([H])([H])[H])C([H])([H])[H])C(C([H])([H])[H])(C([H])([H])[H])C([H])([H])[H])C([H])(C(=O)N([H])C2([H])c4c([H])c([H])c([H])c([H])c4C([H])([H])C([H])([H])C2([H])[H])C3([H])[H])c1[H]

$$$$
44:0:0
     RDKit          3D

 96104  0  0  1  0  0  0  0  0999 V2000
  -30.4110  -23.5300   18.3530 C   0  0  0  0  0  3  0  0  0  0  0  0
  -29.8070  -24.4470   17.4680 C   0  0  0  0  0  0  0  0  0  0  0  0
  -30.5270  -23.8170   19.7260 C   0  0  0  0  0  0  0  0  0  0  0  0
  -29.2600  -25.6530   17.9780 C   0  0  0  0  0  0  0  0  0  0  0  0
  -29.8020  -24.9290   20.2470 C   0  0  0  0  0  0  0  0  0  0  0  0
  -29.1180  -25.8310   19.3830 C   0  0  0  0  0  0  0  0  0  0  0  0
  -29.8000  -24.1310   15.9730 C   0  0  0  0  0  1  0  0  0  0  0  0
  -28.9010  -26.7640   17.0050 C   0  0  0  0  0  1  0  0  0  0  0  0
  -29.7690  -25.2040   21.7460 C   0  0  0  0  0  1  0  0  0  0  0  0
  -28.6000  -26.9820   19.9680 O   0  0  0  0  0  0  0  0  0  0  0  0
  -24.5960  -31.8680   23.2170 C   0  0  0  0  0  0  0  0  0  0  0  0
  -27.3020  -27.4800   20.0310 C   0  0  0  0  0  0  0  0  0  0  0  0
  -23.3660  -30.4490   21.5920 C   0  0  0  0  0  3  0  0  0  0  0  0
  -24.8190  -28.8890   20.1610 C   0  0  0  0  0  0  0  0  0  0  0  0
  -25.8830  -30.8090   21.3730 C   0  0  0  0  0  2  0  0  0  0  0  0
  -25.9690  -29.4330   20.7410 C   0  0  0  0  0  0  0  0  0  0  0  0
  -27.1850  -28.7240   20.6900 C   0  0  0  0  0  3  0  0  0  0  0  0
  -26.1300  -26.9270   19.4560 C   0  0  0  0  0  3  0  0  0  0  0  0
  -24.8930  -27.6280   19.5300 C   0  0  0  0  0  3  0  0  0  0  0  0
  -23.5590  -29.7330   20.2220 C   0  0  0  0  0  2  0  0  0  0  0  0
  -24.6320  -31.0580   22.1180 N   0  0  0  0  0  0  0  0  0  0  0  0
  -23.5240  -32.1460   23.7690 O   0  0  0  0  0  0  0  0  0  0  0  0
  -22.7290  -29.4410   22.5700 C   0  0  0  0  0  0  0  0  0  0  0  0
  -21.4020  -29.2600   22.4510 N   0  0  0  0  0  0  0  0  0  0  0  0
  -23.4200  -28.8260   23.3840 O   0  0  0  0  0  0  0  0  0  0  0  0
  -20.9070  -29.8170   21.7710 H   0  0  0  0  0  0  0  0  0  0  0  0
  -18.0400  -28.0640   22.9480 C   0  0  0  0  0  0  0  0  0  0  0  0
  -20.5930  -28.3260   23.2250 C   0  0  0  0  0  3  0  0  0  0  0  0
  -20.7000  -26.8920   22.6580 C   0  0  0  0  0  2  0  0  0  0  0  0
  -19.6020  -26.5600   21.6400 C   0  0  0  0  0  2  0  0  0  0  0  0
  -18.2200  -26.7080   22.2820 C   0  0  0  0  0  2  0  0  0  0  0  0
  -19.1560  -28.8310   23.3730 C   0  0  0  0  0  0  0  0  0  0  0  0
  -18.9330  -30.1030   23.9460 C   0  0  0  0  0  3  0  0  0  0  0  0
  -17.6280  -30.6030   24.1030 C   0  0  0  0  0  3  0  0  0  0  0  0
  -16.5260  -29.8290   23.6980 C   0  0  0  0  0  3  0  0  0  0  0  0
  -16.7330  -28.5620   23.1250 C   0  0  0  0  0  3  0  0  0  0  0  0
  -25.8940  -32.4950   23.8220 C   0  0  0  0  0  3  0  0  0  0  0  0
  -25.5930  -33.8890   24.1730 N   0  0  0  0  0  0  0  0  0  0  0  0
  -25.9100  -34.9490   23.4180 C   0  0  0  0  0  0  0  0  0  0  0  0
  -26.5590  -34.8560   22.3740 O   0  0  0  0  0  0  0  0  0  0  0  0
  -25.0170  -34.0350   24.9890 H   0  0  0  0  0  0  0  0  0  0  0  0
  -24.1590  -36.7290   23.1220 C   0  0  0  0  0  1  0  0  0  0  0  0
  -25.4260  -36.3310   23.8970 C   0  0  0  0  0  3  0  0  0  0  0  0
  -27.5770  -37.2190   24.6780 C   0  0  0  0  0  1  0  0  0  0  0  0
  -26.4480  -37.3930   23.7670 N   0  0  0  0  0  0  0  0  0  0  0  0
  -26.0410  -38.3080   23.9430 H   0  0  0  0  0  0  0  0  0  0  0  0
  -26.4420  -31.7120   25.0800 C   0  0  1  0  0  0  0  0  0  0  0  0
  -25.3700  -31.4530   26.1660 C   0  0  0  0  0  1  0  0  0  0  0  0
  -27.0160  -30.3410   24.6550 C   0  0  0  0  0  1  0  0  0  0  0  0
  -27.6070  -32.4960   25.7330 C   0  0  0  0  0  1  0  0  0  0  0  0
  -31.4320  -22.9370   20.6120 C   0  0  0  0  0  3  0  0  0  0  0  0
  -32.8260  -22.5680   20.0280 C   0  0  0  0  0  3  0  0  0  0  0  0
  -33.6630  -21.5520   20.8490 C   0  0  0  0  0  2  0  0  0  0  0  0
  -33.9110  -20.1670   20.2030 C   0  0  0  0  0  2  0  0  0  0  0  0
  -32.6740  -19.2910   19.9220 C   0  0  0  0  0  2  0  0  0  0  0  0
  -32.0390  -18.6420   21.1680 C   0  0  0  0  0  2  0  0  0  0  0  0
  -31.1940  -17.4140   20.7880 C   0  0  0  0  0  2  0  0  0  0  0  0
  -30.9700  -16.3730   21.9170 C   0  0  0  0  0  2  0  0  0  0  0  0
  -30.6870  -14.3650   20.4660 C   0  0  0  0  0  0  0  0  0  0  0  0
  -30.2620  -12.3140   19.1700 C   0  0  0  0  0  2  0  0  0  0  0  0
  -29.3140  -12.5970   17.9910 C   0  0  0  0  0  2  0  0  0  0  0  0
  -27.8400  -12.4630   18.4270 C   0  0  0  0  0  2  0  0  0  0  0  0
  -27.5390  -13.2440   19.7330 C   0  0  0  0  0  3  0  0  0  0  0  0
  -28.6070  -12.9670   20.8190 C   0  0  0  0  0  2  0  0  0  0  0  0
  -29.9350  -13.2590   20.2490 N   0  0  0  0  0  0  0  0  0  0  0  0
  -31.7170  -14.6050   19.8300 O   0  0  0  0  0  0  0  0  0  0  0  0
  -30.2690  -15.1780   21.4460 N   0  0  0  0  0  0  0  0  0  0  0  0
  -29.4370  -14.8930   21.9420 H   0  0  0  0  0  0  0  0  0  0  0  0
  -25.1300  -13.8320   20.4450 C   0  0  0  0  0  0  0  0  0  0  0  0
  -24.0770  -13.0510   20.8240 C   0  0  0  0  0  0  0  0  0  0  0  0
  -24.5500  -11.7010   20.7970 C   0  0  0  0  0  0  0  0  0  0  0  0
  -26.1870  -12.9610   20.2190 N   0  0  0  0  0  0  0  0  0  0  0  0
  -25.8390  -11.6740   20.4830 N   0  0  0  0  0  0  0  0  0  0  0  0
  -23.8410  -10.4330   20.9960 C   0  0  0  0  0  0  0  0  0  0  0  0
  -24.3020   -9.4730   21.9230 C   0  0  0  0  0  3  0  0  0  0  0  0
  -23.6010   -8.2640   22.1110 C   0  0  0  0  0  3  0  0  0  0  0  0
  -22.4210   -8.0060   21.3730 C   0  0  0  0  0  0  0  0  0  0  0  0
  -21.9790   -8.9580   20.4380 C   0  0  0  0  0  3  0  0  0  0  0  0
  -22.6800  -10.1590   20.2470 C   0  0  0  0  0  3  0  0  0  0  0  0
  -21.6780   -6.8530   21.4740 O   0  0  0  0  0  0  0  0  0  0  0  0
  -21.6700   -6.1010   22.6220 C   0  0  0  0  0  0  0  0  0  0  0  0
  -21.2780   -6.6430   23.8660 C   0  0  0  0  0  3  0  0  0  0  0  0
  -21.2210   -5.8200   25.0080 C   0  0  0  0  0  3  0  0  0  0  0  0
  -21.5340   -4.4510   24.9070 C   0  0  0  0  0  0  0  0  0  0  0  0
  -21.9130   -3.9060   23.6680 C   0  0  0  0  0  3  0  0  0  0  0  0
  -21.9790   -4.7280   22.5300 C   0  0  0  0  0  0  0  0  0  0  0  0
  -22.3240   -4.1930   21.3350 F   0  0  0  0  0  0  0  0  0  0  0  0
  -21.4700   -3.6580   26.0020 F   0  0  0  0  0  0  0  0  0  0  0  0
  -22.6730  -13.5080   21.1080 C   0  0  0  0  0  0  0  0  0  0  0  0
  -21.9660  -12.8070   21.9810 N   0  0  0  0  0  0  0  0  0  0  0  0
  -22.2200  -14.5330   20.5940 O   0  0  0  0  0  0  0  0  0  0  0  0
  -22.3420  -11.9810   22.4250 H   0  0  0  0  0  0  0  0  0  0  0  0
  -21.0230  -13.0920   22.2090 H   0  0  0  0  0  0  0  0  0  0  0  0
  -25.2870  -15.2090   20.2550 N   0  0  0  0  0  0  0  0  0  0  0  0
  -24.5320  -15.8720   20.3800 H   0  0  0  0  0  0  0  0  0  0  0  0
  -26.1440  -15.6450   19.9370 H   0  0  0  0  0  0  0  0  0  0  0  0
  1  3  1  0
  2  4  1  0
  2  1  2  0
  3  5  2  0
  3 51  1  0
  4  6  2  0
  5  9  1  0
  6 10  1  0
  6  5  1  0
  7  2  1  0
  8  4  1  0
 10 12  1  0
 11 22  2  0
 12 17  1  0
 13 21  1  0
 13 23  1  0
 14 20  1  0
 14 16  1  0
 15 21  1  0
 16 15  1  0
 17 16  2  0
 18 19  1  0
 18 12  2  0
 19 14  2  0
 20 13  1  0
 21 11  1  0
 23 25  2  0
 24 23  1  0
 26 24  1  0
 27 36  2  0
 27 32  1  0
 28 24  1  0
 28 32  1  0
 29 28  1  0
 30 31  1  0
 30 29  1  0
 31 27  1  0
 32 33  2  0
 33 34  1  0
 35 34  2  0
 36 35  1  0
 37 11  1  0
 37 38  1  0
 37 47  1  0
 38 41  1  0
 39 43  1  0
 39 38  1  0
 40 39  2  0
 43 42  1  0
 45 43  1  0
 45 46  1  0
 45 44  1  0
 47 50  1  1
 47 48  1  0
 49 47  1  0
 52 51  2  0
 52 53  1  0
 54 53  1  0
 55 54  1  0
 55 56  1  0
 57 56  1  0
 57 58  1  0
 59 67  1  0
 60 65  1  0
 61 62  1  0
 61 60  1  0
 63 62  1  0
 63 72  1  0
 63 64  1  0
 65 59  1  0
 65 64  1  0
 66 59  2  0
 67 58  1  0
 67 68  1  0
 69 70  2  0
 70 89  1  0
 71 70  1  0
 71 74  1  0
 72 69  1  0
 72 73  1  0
 73 71  2  0
 74 75  1  0
 75 76  2  0
 77 80  1  0
 77 76  1  0
 78 77  2  0
 79 78  1  0
 79 74  2  0
 80 81  1  0
 81 82  1  0
 82 83  2  0
 84 83  1  0
 84 88  1  0
 85 84  2  0
 86 81  2  0
 86 85  1  0
 87 86  1  0
 89 90  1  0
 90 93  1  0
 90 92  1  0
 91 89  2  0
 94 95  1  0
 94 69  1  0
 96 94  1  0
M  ISO  4   6 101  10 101  59 100  67 100
M  END
>  <TORSDO>  (45) 
F 24

>  <SCORE>  (45) 
-12.456

>  <name>  (45) 
44

>  <ligand_id>  (45) 
44

>  <original_smiles>  (45) 
[H]c1c([H])c([H])c2c(c1[H])C([H])([H])C([H])([H])C([H])([H])C2([H])N([H])C(=O)C1([H])N(C(=O)C([H])(N([H])C(=O)C([H])(N([H])C([H])([H])[H])C([H])([H])[H])C(C([H])([H])[H])(C([H])([H])[H])C([H])([H])[H])C([H])([H])c2c([H])c(Oc3c(C([H])([H])[H])c(C([H])([H])[H])c([H])c(C([H])([H])C([H])([H])C([H])([H])C([H])([H])C([H])([H])C([H])([H])C([H])([H])C([H])([H])N([H])C(=O)N4C([H])([H])C([H])([H])C([H])([H])C([H])(n5nc(-c6c([H])c([H])c(Oc7c([H])c([H])c(F)c([H])c7F)c([H])c6[H])c(C(=O)N([H])[H])c5N([H])[H])C4([H])[H])c3C([H])([H])[H])c([H])c([H])c2C1([H])[H]

>  <smiles>  (45) 
[H]c1c([H])c([H])c2c(c1[H])C([H])([H])C([H])([H])C([H])([H])C2([H])N([H])C(=O)C1([H])N(C(=O)C([H])(N([H])C(=O)C([H])(N([H])C([H])([H])[H])C([H])([H])[H])C(C([H])([H])[H])(C([H])([H])[H])C([H])([H])[H])C([H])([H])c2c([H])c(Oc3c(C([H])([H])[H])c(C([H])([H])[H])c([H])c(C([H])([H])C([H])([H])C([H])([H])C([H])([H])C([H])([H])C([H])([H])C([H])([H])C([H])([H])N([H])C(=O)N4C([H])([H])C([H])([H])C([H])([H])C([H])(n5nc(-c6c([H])c([H])c(Oc7c([H])c([H])c(F)c([H])c7F)c([H])c6[H])c(C(=O)N([H])[H])c5N([H])[H])C4([H])[H])c3C([H])([H])[H])c([H])c([H])c2C1([H])[H]

$$$$
45:0:0
     RDKit          3D

 94 92  0  0  1  0  0  0  0  0999 V2000
  -26.0800  -28.7130   17.7250 C   0  0  0  0  0  3  0  0  0  0  0  0
  -25.2200  -29.3940   19.0150 C   0  0  0  0  0  3  0  0  0  0  0  0
  -25.1030  -28.3920   20.7970 C   0  0  0  0  0  3  0  0  0  0  0  0
  -26.8260  -27.2340   17.7410 C   0  0  0  0  0  0  0  0  0  0  0  0
  -26.8920  -26.1560   18.9800 C   0  0  0  0  0  1  0  0  0  0  0  0
  -25.9040  -26.9310   20.9210 C   0  0  0  0  0  3  0  0  0  0  0  0
  -24.4810  -30.3860   18.4200 C   0  0  0  0  0  2  0  0  0  0  0  0
  -24.6180  -28.6360   21.4140 C   0  0  0  0  0  2  0  0  0  0  0  0
  -24.5020  -30.2870   19.8090 C   0  0  0  0  0  2  0  0  0  0  0  0
  -26.2790  -26.1510   15.5390 C   0  0  0  0  0  1  0  0  0  0  0  0
  -27.3800  -26.7710   16.4090 C   0  0  0  0  0  2  0  0  0  0  0  0
  -26.4910  -26.5300   22.0070 O   0  0  0  0  0  0  0  0  0  0  0  0
  -24.4300  -31.5640   23.0310 C   0  0  0  0  0  0  0  0  0  0  0  0
  -26.9560  -25.8590   21.1380 C   0  0  2  0  0  0  0  0  0  0  0  0
  -22.8430  -29.9940   21.3460 C   0  0  0  0  0  1  0  0  0  0  0  0
  -24.5690  -27.0630   19.1030 C   0  0  0  0  0  1  0  0  0  0  0  0
  -26.5060  -30.1790   21.0190 C   0  0  0  0  0 15  0  0  0  0  0  0
  -26.9730  -28.3030   19.7210 C   0  0  0  0  0  1  0  0  0  0  0  0
  -27.9150  -27.2850   20.5670 C   0  0  0  0  0  2  0  0  0  0  0  0
  -25.4630  -24.8130   20.6340 C   0  0  0  0  0  3  0  0  0  0  0  0
  -24.3280  -25.5830   19.6550 C   0  0  0  0  0  3  0  0  0  0  0  0
  -22.8790  -28.3080   19.7880 C   0  0  0  0  0 15  0  0  0  0  0  0
  -24.6380  -30.8500   21.8880 N   0  0  0  0  0  1  0  0  0  0  0  0
  -23.2970  -31.8060   23.4850 O   0  0  0  0  0  0  0  0  0  0  0  0
  -22.1310  -29.2760   22.5160 C   0  0  0  0  0  0  0  0  0  0  0  0
  -20.8360  -29.0710   22.3210 N   0  0  0  0  0  0  0  0  0  0  0  0
  -22.7630  -28.7240   23.4250 O   0  0  0  0  0  0  0  0  0  0  0  0
  -20.3900  -29.5180   21.5320 H   0  0  0  0  0  0  0  0  0  0  0  0
  -17.4770  -28.0750   22.7760 C   0  0  0  0  0  0  0  0  0  0  0  0
  -20.0210  -28.1580   23.0930 C   0  0  0  0  0  3  0  0  0  0  0  0
  -20.0570  -26.7400   22.4790 C   0  0  0  0  0  2  0  0  0  0  0  0
  -18.9570  -26.5120   21.4380 C   0  0  0  0  0  2  0  0  0  0  0  0
  -17.5760  -26.7330   22.0680 C   0  0  0  0  0  2  0  0  0  0  0  0
  -18.6290  -28.7470   23.2470 C   0  0  0  0  0  0  0  0  0  0  0  0
  -18.5020  -30.0150   23.8540 C   0  0  0  0  0  3  0  0  0  0  0  0
  -17.2370  -30.6080   24.0060 C   0  0  0  0  0  3  0  0  0  0  0  0
  -16.0890  -29.9280   23.5640 C   0  0  0  0  0  3  0  0  0  0  0  0
  -16.2090  -28.6640   22.9560 C   0  0  0  0  0  3  0  0  0  0  0  0
  -25.6370  -32.1310   23.7910 C   0  0  0  0  0  3  0  0  0  0  0  0
  -26.0220  -31.3080   25.0770 C   0  0  1  0  0  0  0  0  0  0  0  0
  -24.8660  -31.0960   26.0830 C   0  0  0  0  0  1  0  0  0  0  0  0
  -26.5640  -29.9160   24.7010 C   0  0  0  0  0  1  0  0  0  0  0  0
  -27.1710  -32.0450   25.8040 C   0  0  0  0  0  1  0  0  0  0  0  0
  -25.2910  -33.5110   24.1580 N   0  0  0  0  0  0  0  0  0  0  0  0
  -25.6270  -34.5820   23.4330 C   0  0  0  0  0  0  0  0  0  0  0  0
  -26.3180  -34.4990   22.4160 O   0  0  0  0  0  0  0  0  0  0  0  0
  -24.6870  -33.6370   24.9560 H   0  0  0  0  0  0  0  0  0  0  0  0
  -23.9300  -36.4080   23.0810 C   0  0  0  0  0  1  0  0  0  0  0  0
  -25.1380  -35.9590   23.9200 C   0  0  0  0  0  3  0  0  0  0  0  0
  -27.2630  -36.7750   24.8430 C   0  0  0  0  0  1  0  0  0  0  0  0
  -26.1890  -36.9990   23.8760 N   0  0  0  0  0  0  0  0  0  0  0  0
  -25.7940  -37.9190   24.0500 H   0  0  0  0  0  0  0  0  0  0  0  0
  -27.7370  -24.1300   18.8660 C   0  0  0  0  0 15  0  0  0  0  0  0
  -27.8880  -21.8910   19.3860 C   0  0  0  0  0 15  0  0  0  0  0  0
  -30.3500  -20.2190   19.3020 C   0  0  0  0  0  1  0  0  0  0  0  0
  -28.8770  -19.8160   19.2390 C   0  0  0  0  0  1  0  0  0  0  0  0
  -29.7860  -16.2210   19.7100 C   0  0  0  0  0  0  0  0  0  0  0  0
  -30.1570  -13.4600   19.1120 C   0  0  0  0  0  2  0  0  0  0  0  0
  -29.3140  -12.6480   18.0630 C   0  0  0  0  0  2  0  0  0  0  0  0
  -28.0110  -12.1170   18.6680 C   0  0  0  0  0  2  0  0  0  0  0  0
  -27.4290  -13.1630   19.6290 C   0  0  0  0  0  3  0  0  0  0  0  0
  -28.4590  -13.8440   20.5860 C   0  0  0  0  0  2  0  0  0  0  0  0
  -29.4010  -14.7040   19.7520 N   0  0  0  0  0  0  0  0  0  0  0  0
  -31.0350  -16.0460   19.5970 O   0  0  0  0  0  0  0  0  0  0  0  0
  -28.9880  -17.7850   19.6240 N   0  0  0  0  0  2  0  0  0  0  0  0
  -28.0260  -17.5210   19.7990 H   0  0  0  0  0  0  0  0  0  0  0  0
  -25.1380  -13.5890   20.5870 C   0  0  0  0  0  0  0  0  0  0  0  0
  -24.1200  -12.7810   20.9970 C   0  0  0  0  0  0  0  0  0  0  0  0
  -24.6110  -11.4420   20.9060 C   0  0  0  0  0  0  0  0  0  0  0  0
  -26.1850  -12.7510   20.2650 N   0  0  0  0  0  0  0  0  0  0  0  0
  -25.8860  -11.4440   20.5150 N   0  0  0  0  0  0  0  0  0  0  0  0
  -23.9070  -10.1660   21.1110 C   0  0  0  0  0  0  0  0  0  0  0  0
  -24.3600   -9.2100   22.0460 C   0  0  0  0  0  3  0  0  0  0  0  0
  -23.6480   -8.0060   22.2460 C   0  0  0  0  0  3  0  0  0  0  0  0
  -22.4670   -7.7490   21.5120 C   0  0  0  0  0  0  0  0  0  0  0  0
  -22.0310   -8.6920   20.5640 C   0  0  0  0  0  3  0  0  0  0  0  0
  -22.7440   -9.8860   20.3630 C   0  0  0  0  0  3  0  0  0  0  0  0
  -21.7250   -6.5960   21.6210 O   0  0  0  0  0  0  0  0  0  0  0  0
  -21.6660   -5.8850   22.7940 C   0  0  0  0  0  0  0  0  0  0  0  0
  -21.2060   -6.4680   23.9950 C   0  0  0  0  0  3  0  0  0  0  0  0
  -21.0930   -5.6840   25.1610 C   0  0  0  0  0  3  0  0  0  0  0  0
  -21.4320   -4.3190   25.1260 C   0  0  0  0  0  0  0  0  0  0  0  0
  -21.8860   -3.7340   23.9300 C   0  0  0  0  0  3  0  0  0  0  0  0
  -22.0000   -4.5170   22.7670 C   0  0  0  0  0  0  0  0  0  0  0  0
  -22.4160   -3.9440   21.6120 F   0  0  0  0  0  0  0  0  0  0  0  0
  -21.3190   -3.5630   26.2440 F   0  0  0  0  0  0  0  0  0  0  0  0
  -22.7320  -13.2320   21.3460 C   0  0  0  0  0  0  0  0  0  0  0  0
  -22.0650  -12.5180   22.2440 N   0  0  0  0  0  0  0  0  0  0  0  0
  -22.2560  -14.2580   20.8600 O   0  0  0  0  0  0  0  0  0  0  0  0
  -22.4660  -11.6880   22.6550 H   0  0  0  0  0  0  0  0  0  0  0  0
  -21.1360  -12.8030   22.5240 H   0  0  0  0  0  0  0  0  0  0  0  0
  -25.2600  -14.9650   20.4160 N   0  0  0  0  0  0  0  0  0  0  0  0
  -24.4860  -15.6010   20.5750 H   0  0  0  0  0  0  0  0  0  0  0  0
  -26.0760  -15.4200   20.0310 H   0  0  0  0  0  0  0  0  0  0  0  0
  1  4  2  0
  1  2  1  0
  2  9  1  0
  3  8  2  0
  4  5  1  0
  6  3  1  0
  6 14  1  0
  6 12  1  0
  7  2  1  0
  7  9  1  0
 10 11  1  0
 11  4  1  0
 13 24  2  0
 14 19  1  6
 14 12  1  0
 15 25  1  0
 16 21  1  0
 18 19  1  0
 20 14  1  0
 21 20  2  0
 23 13  1  0
 25 27  2  0
 26 25  1  0
 28 26  1  0
 29 38  2  0
 29 34  1  0
 30 26  1  0
 30 34  1  0
 31 30  1  0
 32 33  1  0
 32 31  1  0
 33 29  1  0
 34 35  2  0
 35 36  1  0
 37 36  2  0
 38 37  1  0
 39 13  1  0
 39 44  1  0
 39 40  1  0
 40 43  1  1
 40 41  1  0
 42 40  1  0
 44 47  1  0
 45 49  1  0
 45 44  1  0
 46 45  2  0
 49 48  1  0
 51 49  1  0
 51 52  1  0
 51 50  1  0
 56 55  1  0
 57 63  1  0
 58 63  1  0
 59 60  1  0
 59 58  1  0
 61 60  1  0
 61 70  1  0
 61 62  1  0
 63 62  1  0
 64 57  2  0
 65 57  1  0
 65 66  1  0
 67 68  2  0
 68 87  1  0
 69 68  1  0
 69 72  1  0
 70 71  1  0
 70 67  1  0
 71 69  2  0
 72 73  1  0
 73 74  2  0
 75 78  1  0
 75 74  1  0
 76 75  2  0
 77 76  1  0
 77 72  2  0
 78 79  1  0
 79 80  1  0
 80 81  2  0
 82 81  1  0
 82 86  1  0
 83 82  2  0
 84 79  2  0
 84 83  1  0
 85 84  1  0
 87 88  1  0
 88 91  1  0
 88 90  1  0
 89 87  2  0
 92 93  1  0
 92 67  1  0
 94 92  1  0
M  ISO  4   6 101  12 101  57 100  65 100
M  END
>  <TORSDO>  (46) 
F 20

>  <SCORE>  (46) 
-14.943

>  <name>  (46) 
45

>  <ligand_id>  (46) 
45

>  <original_smiles>  (46) 
[H]c1c([H])c([H])c2c(c1[H])C([H])([H])C([H])([H])C([H])([H])C2([H])N([H])C(=O)C1([H])N(C(=O)C([H])(N([H])C(=O)C([H])(N([H])C([H])([H])[H])C([H])([H])[H])C(C([H])([H])[H])(C([H])([H])[H])C([H])([H])[H])C([H])([H])c2c([H])c(Oc3c4c(c([H])c(C([H])([H])C([H])([H])[H])c3C([H])([H])C([H])([H])C([H])(N([H])C(=O)N3C([H])([H])C([H])([H])C([H])([H])C([H])(n5nc(-c6c([H])c([H])c(Oc7c([H])c([H])c(F)c([H])c7F)c([H])c6[H])c(C(=O)N([H])[H])c5N([H])[H])C3([H])[H])C([H])([H])[H])C([H])([H])C([H])([H])C4([H])[H])c([H])c([H])c2C1([H])[H]

>  <smiles>  (46) 
[H]c1c([H])c([H])c2c(c1[H])C([H])([H])C([H])([H])C([H])([H])C2([H])N([H])C(=O)C1([H])N(C(=O)C([H])(N([H])C(=O)C([H])(N([H])C([H])([H])[H])C([H])([H])[H])C(C([H])([H])[H])(C([H])([H])[H])C([H])([H])[H])C([H])([H])c2c([H])c(Oc3c4c(c([H])c(C([H])([H])C([H])([H])[H])c3C([H])([H])C([H])([H])C([H])(N([H])C(=O)N3C([H])([H])C([H])([H])C([H])([H])C([H])(n5nc(-c6c([H])c([H])c(Oc7c([H])c([H])c(F)c([H])c7F)c([H])c6[H])c(C(=O)N([H])[H])c5N([H])[H])C3([H])[H])C([H])([H])[H])C([H])([H])C([H])([H])C4([H])[H])c([H])c([H])c2C1([H])[H]

$$$$
46:0:0
     RDKit          3D

 92100  0  0  1  0  0  0  0  0999 V2000
  -30.8180  -27.1230   17.6040 C   0  0  0  0  0  3  0  0  0  0  0  0
  -29.8340  -27.3070   18.5900 C   0  0  0  0  0  3  0  0  0  0  0  0
  -30.6660  -24.7180   17.9310 C   0  0  0  0  0  3  0  0  0  0  0  0
  -31.2360  -25.8260   17.2700 C   0  0  0  0  0  0  0  0  0  0  0  0
  -29.6840  -24.8650   18.9430 C   0  0  0  0  0  0  0  0  0  0  0  0
  -29.2460  -26.2120   19.2620 C   0  0  0  0  0  0  0  0  0  0  0  0
  -32.3080  -25.6160   16.2150 C   0  0  0  0  0  1  0  0  0  0  0  0
  -28.3530  -26.5370   20.2750 O   0  0  0  0  0  0  0  0  0  0  0  0
  -24.6050  -31.8790   23.2370 C   0  0  0  0  0  0  0  0  0  0  0  0
  -27.2780  -27.4110   20.1270 C   0  0  0  0  0  0  0  0  0  0  0  0
  -23.4100  -30.4730   21.5920 C   0  0  0  0  0  3  0  0  0  0  0  0
  -24.8760  -28.9510   20.1490 C   0  0  0  0  0  0  0  0  0  0  0  0
  -25.9380  -30.8330   21.3970 C   0  0  0  0  0  2  0  0  0  0  0  0
  -26.0350  -29.4630   20.7440 C   0  0  0  0  0  0  0  0  0  0  0  0
  -27.2330  -28.6990   20.7400 C   0  0  0  0  0  3  0  0  0  0  0  0
  -26.1020  -26.9360   19.5100 C   0  0  0  0  0  3  0  0  0  0  0  0
  -24.9110  -27.6890   19.5260 C   0  0  0  0  0  3  0  0  0  0  0  0
  -23.6240  -29.8050   20.2100 C   0  0  0  0  0  2  0  0  0  0  0  0
  -24.6690  -31.0750   22.1360 N   0  0  0  0  0  0  0  0  0  0  0  0
  -23.5190  -32.1420   23.7740 O   0  0  0  0  0  0  0  0  0  0  0  0
  -22.7620  -29.4470   22.5520 C   0  0  0  0  0  0  0  0  0  0  0  0
  -21.4340  -29.2610   22.4320 N   0  0  0  0  0  0  0  0  0  0  0  0
  -23.4490  -28.8260   23.3640 O   0  0  0  0  0  0  0  0  0  0  0  0
  -20.9320  -29.8230   21.7560 H   0  0  0  0  0  0  0  0  0  0  0  0
  -18.0670  -28.0450   22.9440 C   0  0  0  0  0  0  0  0  0  0  0  0
  -20.6270  -28.3130   23.2070 C   0  0  0  0  0  3  0  0  0  0  0  0
  -20.7330  -26.8810   22.6310 C   0  0  0  0  0  2  0  0  0  0  0  0
  -19.6300  -26.5570   21.6200 C   0  0  0  0  0  2  0  0  0  0  0  0
  -18.2480  -26.6970   22.2640 C   0  0  0  0  0  2  0  0  0  0  0  0
  -19.1850  -28.8080   23.3730 C   0  0  0  0  0  0  0  0  0  0  0  0
  -18.9610  -30.0700   23.9660 C   0  0  0  0  0  3  0  0  0  0  0  0
  -17.6560  -30.5640   24.1340 C   0  0  0  0  0  3  0  0  0  0  0  0
  -16.5510  -29.7960   23.7260 C   0  0  0  0  0  3  0  0  0  0  0  0
  -16.7580  -28.5380   23.1350 C   0  0  0  0  0  3  0  0  0  0  0  0
  -25.8820  -32.5230   23.8560 C   0  0  0  0  0  3  0  0  0  0  0  0
  -25.5680  -33.9210   24.1790 N   0  0  0  0  0  0  0  0  0  0  0  0
  -25.9040  -34.9710   23.4180 C   0  0  0  0  0  0  0  0  0  0  0  0
  -26.5810  -34.8630   22.3920 O   0  0  0  0  0  0  0  0  0  0  0  0
  -24.9790  -34.0860   24.9830 H   0  0  0  0  0  0  0  0  0  0  0  0
  -24.1790  -36.7550   23.0380 C   0  0  0  0  0  1  0  0  0  0  0  0
  -25.4110  -36.3620   23.8670 C   0  0  0  0  0  3  0  0  0  0  0  0
  -27.5380  -37.2440   24.7190 C   0  0  0  0  0  1  0  0  0  0  0  0
  -26.4450  -37.4160   23.7650 N   0  0  0  0  0  0  0  0  0  0  0  0
  -26.0360  -38.3350   23.9140 H   0  0  0  0  0  0  0  0  0  0  0  0
  -26.4040  -31.7620   25.1350 C   0  0  1  0  0  0  0  0  0  0  0  0
  -25.3130  -31.5240   26.2050 C   0  0  0  0  0  1  0  0  0  0  0  0
  -26.9920  -30.3900   24.7380 C   0  0  0  0  0  1  0  0  0  0  0  0
  -27.5520  -32.5640   25.7910 C   0  0  0  0  0  1  0  0  0  0  0  0
  -29.0880  -23.5350   19.5140 C   0  0  0  0  0  3  0  0  0  0  0  0
  -30.0550  -22.3340   19.9350 C   0  0  0  0  0  3  0  0  0  0  0  0
  -29.3820  -20.9500   20.3280 C   0  0  0  0  0  3  0  0  0  0  0  0
  -30.3310  -19.6930   20.5090 C   0  0  0  0  0  3  0  0  0  0  0  0
  -29.6720  -18.2920   20.8550 C   0  0  0  0  0  3  0  0  0  0  0  0
  -30.6710  -17.0730   20.9180 C   0  0  0  0  0  3  0  0  0  0  0  0
  -30.7210  -14.5820   20.4840 C   0  0  0  0  0  0  0  0  0  0  0  0
  -30.3960  -12.3880   19.3750 C   0  0  0  0  0  2  0  0  0  0  0  0
  -29.4870  -12.5730   18.1430 C   0  0  0  0  0  2  0  0  0  0  0  0
  -28.0040  -12.4530   18.5470 C   0  0  0  0  0  2  0  0  0  0  0  0
  -27.6500  -13.2810   19.8130 C   0  0  0  0  0  3  0  0  0  0  0  0
  -28.6970  -13.0930   20.9350 C   0  0  0  0  0  2  0  0  0  0  0  0
  -30.0210  -13.4100   20.3740 N   0  0  0  0  0  0  0  0  0  0  0  0
  -31.8590  -14.6920   20.0200 O   0  0  0  0  0  0  0  0  0  0  0  0
  -30.0890  -15.6920   20.9630 N   0  0  0  0  0  0  0  0  0  0  0  0
  -29.1740  -15.5710   21.3780 H   0  0  0  0  0  0  0  0  0  0  0  0
  -25.2430  -13.8620   20.4940 C   0  0  0  0  0  0  0  0  0  0  0  0
  -24.1760  -13.0870   20.8600 C   0  0  0  0  0  0  0  0  0  0  0  0
  -24.6450  -11.7360   20.8430 C   0  0  0  0  0  0  0  0  0  0  0  0
  -26.2950  -12.9890   20.2810 N   0  0  0  0  0  0  0  0  0  0  0  0
  -25.9410  -11.7060   20.5490 N   0  0  0  0  0  0  0  0  0  0  0  0
  -23.9270  -10.4700   21.0410 C   0  0  0  0  0  0  0  0  0  0  0  0
  -24.3590   -9.5150   21.9890 C   0  0  0  0  0  3  0  0  0  0  0  0
  -23.6420   -8.3140   22.1740 C   0  0  0  0  0  3  0  0  0  0  0  0
  -22.4790   -8.0570   21.4120 C   0  0  0  0  0  0  0  0  0  0  0  0
  -22.0640   -9.0000   20.4560 C   0  0  0  0  0  3  0  0  0  0  0  0
  -22.7810  -10.1940   20.2680 C   0  0  0  0  0  3  0  0  0  0  0  0
  -21.7350   -6.9070   21.5020 O   0  0  0  0  0  0  0  0  0  0  0  0
  -21.6870   -6.1690   22.6580 C   0  0  0  0  0  0  0  0  0  0  0  0
  -21.2410   -6.7280   23.8750 C   0  0  0  0  0  3  0  0  0  0  0  0
  -21.1430   -5.9190   25.0260 C   0  0  0  0  0  3  0  0  0  0  0  0
  -21.4750   -4.5520   24.9570 C   0  0  0  0  0  0  0  0  0  0  0  0
  -21.9110   -3.9940   23.7430 C   0  0  0  0  0  3  0  0  0  0  0  0
  -22.0120   -4.8000   22.5950 C   0  0  0  0  0  0  0  0  0  0  0  0
  -22.4130   -4.2520   21.4230 F   0  0  0  0  0  0  0  0  0  0  0  0
  -21.3720   -3.7740   26.0590 F   0  0  0  0  0  0  0  0  0  0  0  0
  -22.7720  -13.5550   21.1140 C   0  0  0  0  0  0  0  0  0  0  0  0
  -22.0460  -12.8590   21.9820 N   0  0  0  0  0  0  0  0  0  0  0  0
  -22.3310  -14.5740   20.5830 O   0  0  0  0  0  0  0  0  0  0  0  0
  -22.4170  -12.0350   22.4300 H   0  0  0  0  0  0  0  0  0  0  0  0
  -21.1010  -13.1460   22.1940 H   0  0  0  0  0  0  0  0  0  0  0  0
  -25.4090  -15.2310   20.3050 N   0  0  0  0  0  0  0  0  0  0  0  0
  -24.6540  -15.9030   20.3900 H   0  0  0  0  0  0  0  0  0  0  0  0
  -26.2770  -15.6490   19.9960 H   0  0  0  0  0  0  0  0  0  0  0  0
  1  2  1  0
  2  6  2  0
  3  5  2  0
  4  1  2  0
  4  3  1  0
  5  6  1  0
  5 49  1  0
  6  8  1  0
  7  4  1  0
  9 20  2  0
 10  8  1  0
 10 15  1  0
 11 19  1  0
 11 21  1  0
 12 18  1  0
 12 14  1  0
 13 19  1  0
 14 13  1  0
 15 14  2  0
 16 17  1  0
 16 10  2  0
 17 12  2  0
 18 11  1  0
 19  9  1  0
 21 23  2  0
 22 21  1  0
 24 22  1  0
 25 34  2  0
 25 30  1  0
 26 22  1  0
 26 30  1  0
 27 26  1  0
 28 29  1  0
 28 27  1  0
 29 25  1  0
 30 31  2  0
 31 32  1  0
 33 32  2  0
 34 33  1  0
 35  9  1  0
 35 36  1  0
 35 45  1  0
 36 39  1  0
 37 41  1  0
 37 36  1  0
 38 37  2  0
 41 40  1  0
 43 41  1  0
 43 44  1  0
 43 42  1  0
 45 48  1  1
 45 46  1  0
 47 45  1  0
 49 50  2  0
 50 51  1  0
 51 52  2  0
 52 53  1  0
 53 54  2  0
 54 63  1  0
 55 63  1  0
 56 61  1  0
 57 58  1  0
 57 56  1  0
 59 58  1  0
 59 68  1  0
 59 60  1  0
 61 55  1  0
 61 60  1  0
 62 55  2  0
 63 64  1  0
 65 66  2  0
 66 85  1  0
 67 66  1  0
 67 70  1  0
 68 65  1  0
 68 69  1  0
 69 67  2  0
 70 71  1  0
 71 72  2  0
 73 76  1  0
 73 72  1  0
 74 73  2  0
 75 74  1  0
 75 70  2  0
 76 77  1  0
 77 78  1  0
 78 79  2  0
 80 79  1  0
 80 84  1  0
 81 80  2  0
 82 77  2  0
 82 81  1  0
 83 82  1  0
 85 86  1  0
 86 89  1  0
 86 88  1  0
 87 85  2  0
 90 91  1  0
 90 65  1  0
 92 90  1  0
M  ISO  4   6 101   8 101  55 100  63 100
M  END
>  <TORSDO>  (47) 
F 22

>  <SCORE>  (47) 
-13.036

>  <name>  (47) 
46

>  <ligand_id>  (47) 
46

>  <original_smiles>  (47) 
[H]c1c([H])c([H])c2c(c1[H])C([H])([H])C([H])([H])C([H])([H])C2([H])N([H])C(=O)C1([H])N(C(=O)C([H])(N([H])C(=O)C([H])(N([H])C([H])([H])[H])C([H])([H])[H])C(C([H])([H])[H])(C([H])([H])[H])C([H])([H])[H])C([H])([H])c2c([H])c(Oc3c([H])c([H])c(C([H])([H])[H])c([H])c3C([H])([H])C([H])([H])C([H])([H])C([H])([H])C([H])([H])C([H])([H])N([H])C(=O)N3C([H])([H])C([H])([H])C([H])([H])C([H])(n4nc(-c5c([H])c([H])c(Oc6c([H])c([H])c(F)c([H])c6F)c([H])c5[H])c(C(=O)N([H])[H])c4N([H])[H])C3([H])[H])c([H])c([H])c2C1([H])[H]

>  <smiles>  (47) 
[H]c1c([H])c([H])c2c(c1[H])C([H])([H])C([H])([H])C([H])([H])C2([H])N([H])C(=O)C1([H])N(C(=O)C([H])(N([H])C(=O)C([H])(N([H])C([H])([H])[H])C([H])([H])[H])C(C([H])([H])[H])(C([H])([H])[H])C([H])([H])[H])C([H])([H])c2c([H])c(Oc3c([H])c([H])c(C([H])([H])[H])c([H])c3C([H])([H])C([H])([H])C([H])([H])C([H])([H])C([H])([H])C([H])([H])N([H])C(=O)N3C([H])([H])C([H])([H])C([H])([H])C([H])(n4nc(-c5c([H])c([H])c(Oc6c([H])c([H])c(F)c([H])c6F)c([H])c5[H])c(C(=O)N([H])[H])c4N([H])[H])C3([H])[H])c([H])c([H])c2C1([H])[H]

$$$$
47:0:0
     RDKit          3D

 94104  0  0  1  0  0  0  0  0999 V2000
  -28.6520  -22.2130   18.4870 C   0  0  0  0  0  3  0  0  0  0  0  0
  -28.8990  -22.2340   19.8760 C   0  0  0  0  0  0  0  0  0  0  0  0
  -28.7230  -23.5980   20.4670 C   0  0  0  0  0  0  0  0  0  0  0  0
  -28.3470  -23.3710   17.7330 C   0  0  0  0  0  0  0  0  0  0  0  0
  -28.3210  -24.6750   18.3180 C   0  0  0  0  0  0  0  0  0  0  0  0
  -28.4130  -24.8680   19.7280 C   0  0  0  0  0  0  0  0  0  0  0  0
  -29.3400  -20.8310   20.5910 C   0  0  0  0  0  0  0  0  0  0  0  0
  -29.4830  -21.0030   22.1140 C   0  0  0  0  0  2  0  0  0  0  0  0
  -30.1750  -24.0650   22.6410 C   0  0  0  0  0  2  0  0  0  0  0  0
  -29.8340  -23.0810   23.7630 C   0  0  0  0  0  2  0  0  0  0  0  0
  -28.8550  -23.6510   21.9700 C   0  0  0  0  0  3  0  0  0  0  0  0
  -28.9520  -22.3190   22.7550 C   0  0  0  0  0  3  0  0  0  0  0  0
  -28.0700  -23.1850   16.2410 C   0  0  0  0  0  1  0  0  0  0  0  0
  -28.2790  -25.8870   17.3870 C   0  0  0  0  0  1  0  0  0  0  0  0
  -29.5840  -19.5930   20.0470 N   0  0  0  0  0  0  0  0  0  0  0  0
  -28.3710  -26.2660   20.2270 O   0  0  0  0  0  0  0  0  0  0  0  0
  -24.6760  -31.8940   23.2680 C   0  0  0  0  0  0  0  0  0  0  0  0
  -27.2930  -27.2380   20.1580 C   0  0  0  0  0  0  0  0  0  0  0  0
  -23.4840  -30.5170   21.6130 C   0  0  0  0  0  3  0  0  0  0  0  0
  -24.9440  -28.9740   20.1580 C   0  0  0  0  0  0  0  0  0  0  0  0
  -26.0350  -30.8060   21.4390 C   0  0  0  0  0  2  0  0  0  0  0  0
  -26.1210  -29.4210   20.7670 C   0  0  0  0  0  0  0  0  0  0  0  0
  -27.2920  -28.5700   20.7520 C   0  0  0  0  0  3  0  0  0  0  0  0
  -26.0810  -26.8860   19.5280 C   0  0  0  0  0  3  0  0  0  0  0  0
  -24.9370  -27.7180   19.5240 C   0  0  0  0  0  3  0  0  0  0  0  0
  -23.7070  -29.8590   20.2250 C   0  0  0  0  0  2  0  0  0  0  0  0
  -24.7540  -31.0940   22.1620 N   0  0  0  0  0  0  0  0  0  0  0  0
  -23.5850  -32.1610   23.7980 O   0  0  0  0  0  0  0  0  0  0  0  0
  -22.8160  -29.4930   22.5630 C   0  0  0  0  0  0  0  0  0  0  0  0
  -21.4870  -29.3190   22.4370 N   0  0  0  0  0  0  0  0  0  0  0  0
  -23.4950  -28.8550   23.3720 O   0  0  0  0  0  0  0  0  0  0  0  0
  -20.9990  -29.8920   21.7600 H   0  0  0  0  0  0  0  0  0  0  0  0
  -18.1130  -28.0860   22.9210 C   0  0  0  0  0  0  0  0  0  0  0  0
  -20.6700  -28.3650   23.1920 C   0  0  0  0  0  3  0  0  0  0  0  0
  -20.7850  -26.9440   22.5980 C   0  0  0  0  0  2  0  0  0  0  0  0
  -19.6840  -26.6280   21.5800 C   0  0  0  0  0  2  0  0  0  0  0  0
  -18.3000  -26.7510   22.2240 C   0  0  0  0  0  2  0  0  0  0  0  0
  -19.2260  -28.8520   23.3600 C   0  0  0  0  0  0  0  0  0  0  0  0
  -18.9960  -30.1030   23.9730 C   0  0  0  0  0  3  0  0  0  0  0  0
  -17.6860  -30.5850   24.1580 C   0  0  0  0  0  3  0  0  0  0  0  0
  -16.5870  -29.8180   23.7280 C   0  0  0  0  0  3  0  0  0  0  0  0
  -16.8050  -28.5700   23.1160 C   0  0  0  0  0  3  0  0  0  0  0  0
  -25.9470  -32.5340   23.9060 C   0  0  0  0  0  3  0  0  0  0  0  0
  -25.6270  -33.9330   24.2410 N   0  0  0  0  0  0  0  0  0  0  0  0
  -25.9320  -34.9900   23.4790 C   0  0  0  0  0  0  0  0  0  0  0  0
  -26.5750  -34.8930   22.4320 O   0  0  0  0  0  0  0  0  0  0  0  0
  -25.0580  -34.0830   25.0610 H   0  0  0  0  0  0  0  0  0  0  0  0
  -24.1700  -36.7680   23.1800 C   0  0  0  0  0  1  0  0  0  0  0  0
  -25.4440  -36.3780   23.9460 C   0  0  0  0  0  3  0  0  0  0  0  0
  -27.5920  -37.3050   24.6970 C   0  0  0  0  0  1  0  0  0  0  0  0
  -26.4590  -37.4430   23.7860 N   0  0  0  0  0  0  0  0  0  0  0  0
  -26.0460  -38.3610   23.9310 H   0  0  0  0  0  0  0  0  0  0  0  0
  -26.4420  -31.7630   25.1930 C   0  0  1  0  0  0  0  0  0  0  0  0
  -25.3370  -31.5290   26.2490 C   0  0  0  0  0  1  0  0  0  0  0  0
  -27.0300  -30.3830   24.8150 C   0  0  0  0  0  1  0  0  0  0  0  0
  -27.5790  -32.5580   25.8740 C   0  0  0  0  0  1  0  0  0  0  0  0
  -30.2890  -18.2790   20.6600 C   0  0  0  0  0  2  0  0  0  0  0  0
  -29.8670  -16.6520   20.2970 C   0  0  0  0  0  2  0  0  0  0  0  0
  -30.7660  -15.2140   20.3380 C   0  0  0  0  0  0  0  0  0  0  0  0
  -30.7190  -12.8200   19.4430 C   0  0  0  0  0  2  0  0  0  0  0  0
  -29.8070  -12.7500   18.1900 C   0  0  0  0  0  2  0  0  0  0  0  0
  -28.3350  -12.5430   18.5920 C   0  0  0  0  0  2  0  0  0  0  0  0
  -27.9050  -13.4770   19.7520 C   0  0  0  0  0  3  0  0  0  0  0  0
  -28.9370  -13.5030   20.8960 C   0  0  0  0  0  2  0  0  0  0  0  0
  -30.2200  -13.9220   20.3210 N   0  0  0  0  0  0  0  0  0  0  0  0
  -31.9870  -15.2680   20.1390 O   0  0  0  0  0  0  0  0  0  0  0  0
  -25.5240  -14.0730   20.4840 C   0  0  0  0  0  0  0  0  0  0  0  0
  -24.4440  -13.3030   20.8170 C   0  0  0  0  0  0  0  0  0  0  0  0
  -24.8870  -11.9460   20.7560 C   0  0  0  0  0  0  0  0  0  0  0  0
  -26.5550  -13.1830   20.2260 N   0  0  0  0  0  0  0  0  0  0  0  0
  -26.1810  -11.8980   20.4590 N   0  0  0  0  0  0  0  0  0  0  0  0
  -24.1350  -10.6930   20.9070 C   0  0  0  0  0  0  0  0  0  0  0  0
  -24.5150   -9.7060   21.8450 C   0  0  0  0  0  3  0  0  0  0  0  0
  -23.7600   -8.5200   21.9800 C   0  0  0  0  0  3  0  0  0  0  0  0
  -22.6160   -8.3110   21.1710 C   0  0  0  0  0  0  0  0  0  0  0  0
  -22.2610   -9.2840   20.2180 C   0  0  0  0  0  3  0  0  0  0  0  0
  -23.0170  -10.4610   20.0830 C   0  0  0  0  0  3  0  0  0  0  0  0
  -21.8360   -7.1800   21.2160 O   0  0  0  0  0  0  0  0  0  0  0  0
  -21.6800   -6.4570   22.3720 C   0  0  0  0  0  0  0  0  0  0  0  0
  -21.1270   -7.0310   23.5390 C   0  0  0  0  0  3  0  0  0  0  0  0
  -20.9200   -6.2350   24.6850 C   0  0  0  0  0  3  0  0  0  0  0  0
  -21.2570   -4.8680   24.6640 C   0  0  0  0  0  0  0  0  0  0  0  0
  -21.8050   -4.2950   23.5000 C   0  0  0  0  0  3  0  0  0  0  0  0
  -22.0120   -5.0850   22.3590 C   0  0  0  0  0  0  0  0  0  0  0  0
  -22.5200   -4.5220   21.2350 F   0  0  0  0  0  0  0  0  0  0  0  0
  -21.0500   -4.1040   25.7610 F   0  0  0  0  0  0  0  0  0  0  0  0
  -23.0540  -13.7960   21.0820 C   0  0  0  0  0  0  0  0  0  0  0  0
  -22.3050  -13.0990   21.9310 N   0  0  0  0  0  0  0  0  0  0  0  0
  -22.6370  -14.8330   20.5700 O   0  0  0  0  0  0  0  0  0  0  0  0
  -22.6540  -12.2570   22.3640 H   0  0  0  0  0  0  0  0  0  0  0  0
  -21.3720  -13.4110   22.1540 H   0  0  0  0  0  0  0  0  0  0  0  0
  -25.7150  -15.4430   20.3490 N   0  0  0  0  0  0  0  0  0  0  0  0
  -24.9590  -16.1080   20.4690 H   0  0  0  0  0  0  0  0  0  0  0  0
  -26.5720  -15.8710   20.0210 H   0  0  0  0  0  0  0  0  0  0  0  0
  1  2  1  0
  2  3  2  0
  2  7  1  0
  3 11  1  0
  4  5  1  0
  4  1  2  0
  5  6  2  0
  6 16  1  0
  6  3  1  0
  7  8  1  0
  9 10  1  0
 11  9  1  0
 11 12  1  0
 12  8  1  0
 12 10  1  0
 13  4  1  0
 14  5  1  0
 15  7  2  0
 15 57  1  0
 17 28  2  0
 18 16  1  0
 18 23  1  0
 19 27  1  0
 19 29  1  0
 20 26  1  0
 20 22  1  0
 21 27  1  0
 22 21  1  0
 23 22  2  0
 24 18  2  0
 25 24  1  0
 25 20  2  0
 26 19  1  0
 27 17  1  0
 29 31  2  0
 30 29  1  0
 32 30  1  0
 33 42  2  0
 33 38  1  0
 34 30  1  0
 34 38  1  0
 35 34  1  0
 36 37  1  0
 36 35  1  0
 37 33  1  0
 38 39  2  0
 39 40  1  0
 41 40  2  0
 42 41  1  0
 43 17  1  0
 43 44  1  0
 43 53  1  0
 44 47  1  0
 45 49  1  0
 45 44  1  0
 46 45  2  0
 49 48  1  0
 51 52  1  0
 51 49  1  0
 51 50  1  0
 53 56  1  1
 53 54  1  0
 55 53  1  0
 58 59  1  0
 58 57  1  0
 60 65  1  0
 61 62  1  0
 61 60  1  0
 63 62  1  0
 63 70  1  0
 63 64  1  0
 65 59  1  0
 65 64  1  0
 66 59  2  0
 67 68  2  0
 68 87  1  0
 69 68  1  0
 69 72  1  0
 70 71  1  0
 70 67  1  0
 71 69  2  0
 72 73  1  0
 73 74  2  0
 75 78  1  0
 75 74  1  0
 76 75  2  0
 77 76  1  0
 77 72  2  0
 78 79  1  0
 79 80  1  0
 80 81  2  0
 82 81  1  0
 82 86  1  0
 83 82  2  0
 84 79  2  0
 84 83  1  0
 85 84  1  0
 87 88  1  0
 88 91  1  0
 88 90  1  0
 89 87  2  0
 92 93  1  0
 92 67  1  0
 94 92  1  0
M  ISO  4   6 101  16 101  58 100  59 100
M  END
>  <TORSDO>  (48) 
F 18

>  <SCORE>  (48) 
-14.172

>  <name>  (48) 
47

>  <ligand_id>  (48) 
47

>  <original_smiles>  (48) 
[H]c1c([H])c([H])c2c(c1[H])C([H])([H])C([H])([H])C([H])([H])C2([H])N([H])C(=O)C1([H])N(C(=O)C([H])(N([H])C(=O)C([H])(N([H])C([H])([H])[H])C([H])([H])[H])C(C([H])([H])[H])(C([H])([H])[H])C([H])([H])[H])C([H])([H])c2c([H])c(Oc3c(C([H])([H])[H])c(C([H])([H])[H])c([H])c4c3C3([H])C([H])([H])C([H])([H])C3([H])C([H])([H])C4=NC([H])([H])C([H])([H])C(=O)N3C([H])([H])C([H])([H])C([H])([H])C([H])(n4nc(-c5c([H])c([H])c(Oc6c([H])c([H])c(F)c([H])c6F)c([H])c5[H])c(C(=O)N([H])[H])c4N([H])[H])C3([H])[H])c([H])c([H])c2C1([H])[H]

>  <smiles>  (48) 
[H]c1c([H])c([H])c2c(c1[H])C([H])([H])C([H])([H])C([H])([H])C2([H])N([H])C(=O)C1([H])N(C(=O)C([H])(N([H])C(=O)C([H])(N([H])C([H])([H])[H])C([H])([H])[H])C(C([H])([H])[H])(C([H])([H])[H])C([H])([H])[H])C([H])([H])c2c([H])c(Oc3c(C([H])([H])[H])c(C([H])([H])[H])c([H])c4c3C3([H])C([H])([H])C([H])([H])C3([H])C([H])([H])C4=NC([H])([H])C([H])([H])C(=O)N3C([H])([H])C([H])([H])C([H])([H])C([H])(n4nc(-c5c([H])c([H])c(Oc6c([H])c([H])c(F)c([H])c6F)c([H])c5[H])c(C(=O)N([H])[H])c4N([H])[H])C3([H])[H])c([H])c([H])c2C1([H])[H]

$$$$
48:0:0
     RDKit          3D

 93100  0  0  1  0  0  0  0  0999 V2000
  -22.0280  -25.0950   22.2320 C   0  0  0  0  0  3  0  0  0  0  0  0
  -20.7520  -26.2390   22.0890 C   0  0  0  0  0  2  0  0  0  0  0  0
  -22.9820  -27.4680   20.1860 C   0  0  0  0  0  2  0  0  0  0  0  0
  -23.5440  -25.2080   21.5430 C   0  0  0  0  0  0  0  0  0  0  0  0
  -21.3710  -27.7130   20.6710 C   0  0  0  0  0  3  0  0  0  0  0  0
  -24.1670  -26.4860   20.7610 C   0  0  0  0  0  3  0  0  0  0  0  0
  -20.6670  -28.7740   19.7430 C   0  0  0  0  0  1  0  0  0  0  0  0
  -24.4810  -23.8370   21.7330 C   0  0  0  0  0  0  0  0  0  0  0  0
  -24.0250  -23.0000   22.5180 O   0  0  0  0  0  0  0  0  0  0  0  0
  -25.9430  -23.2990   21.0820 C   0  0  0  0  0  2  0  0  0  0  0  0
  -26.3240  -21.6650   20.5870 C   0  0  0  0  0  3  0  0  0  0  0  0
  -27.8240  -20.8150   20.3360 C   0  0  0  0  0  3  0  0  0  0  0  0
  -28.1040  -19.1270   20.0040 C   0  0  0  0  0  3  0  0  0  0  0  0
  -29.5900  -18.2190   19.8910 C   0  0  0  0  0  3  0  0  0  0  0  0
  -30.8020  -15.5910   19.7730 C   0  0  0  0  0  0  0  0  0  0  0  0
  -30.9390  -13.1690   18.9500 C   0  0  0  0  0  2  0  0  0  0  0  0
  -29.9710  -12.9770   17.7520 C   0  0  0  0  0  2  0  0  0  0  0  0
  -28.5270  -12.7680   18.2420 C   0  0  0  0  0  2  0  0  0  0  0  0
  -28.1420  -13.7910   19.3330 C   0  0  0  0  0  3  0  0  0  0  0  0
  -29.1760  -13.8210   20.4660 C   0  0  0  0  0  2  0  0  0  0  0  0
  -30.4070  -14.2580   19.8240 N   0  0  0  0  0  0  0  0  0  0  0  0
  -31.9780  -15.7780   19.4060 O   0  0  0  0  0  0  0  0  0  0  0  0
  -29.7910  -16.6150   19.9910 N   0  0  0  0  0  0  0  0  0  0  0  0
  -28.9350  -16.1780   20.3010 H   0  0  0  0  0  0  0  0  0  0  0  0
  -25.8550  -14.5260   20.1650 C   0  0  0  0  0  0  0  0  0  0  0  0
  -24.7630  -13.8130   20.5720 C   0  0  0  0  0  0  0  0  0  0  0  0
  -25.1380  -12.4360   20.4930 C   0  0  0  0  0  0  0  0  0  0  0  0
  -26.8140  -13.5810   19.8590 N   0  0  0  0  0  0  0  0  0  0  0  0
  -26.4030  -12.3200   20.1230 N   0  0  0  0  0  0  0  0  0  0  0  0
  -24.3480  -11.2180   20.6820 C   0  0  0  0  0  0  0  0  0  0  0  0
  -24.7340  -10.2270   21.6100 C   0  0  0  0  0  3  0  0  0  0  0  0
  -23.9470   -9.0690   21.7830 C   0  0  0  0  0  3  0  0  0  0  0  0
  -22.7610   -8.8990   21.0260 C   0  0  0  0  0  0  0  0  0  0  0  0
  -22.3990   -9.8770   20.0840 C   0  0  0  0  0  3  0  0  0  0  0  0
  -23.1860  -11.0260   19.9090 C   0  0  0  0  0  3  0  0  0  0  0  0
  -21.9470   -7.7960   21.1090 O   0  0  0  0  0  0  0  0  0  0  0  0
  -21.7870   -7.1100   22.2860 C   0  0  0  0  0  0  0  0  0  0  0  0
  -21.3490   -7.7480   23.4670 C   0  0  0  0  0  3  0  0  0  0  0  0
  -21.1300   -6.9910   24.6360 C   0  0  0  0  0  3  0  0  0  0  0  0
  -21.3400   -5.5990   24.6240 C   0  0  0  0  0  0  0  0  0  0  0  0
  -21.7710   -4.9610   23.4470 C   0  0  0  0  0  3  0  0  0  0  0  0
  -21.9910   -5.7160   22.2810 C   0  0  0  0  0  0  0  0  0  0  0  0
  -22.3860   -5.0950   21.1430 F   0  0  0  0  0  0  0  0  0  0  0  0
  -21.1220   -4.8700   25.7430 F   0  0  0  0  0  0  0  0  0  0  0  0
  -23.4140  -14.3720   20.9090 C   0  0  0  0  0  0  0  0  0  0  0  0
  -22.6900  -13.7140   21.8070 N   0  0  0  0  0  0  0  0  0  0  0  0
  -23.0190  -15.4280   20.4170 O   0  0  0  0  0  0  0  0  0  0  0  0
  -23.0270  -12.8590   22.2230 H   0  0  0  0  0  0  0  0  0  0  0  0
  -21.7830  -14.0670   22.0740 H   0  0  0  0  0  0  0  0  0  0  0  0
  -26.1060  -15.8840   19.9950 N   0  0  0  0  0  0  0  0  0  0  0  0
  -25.3640  -16.5670   20.1010 H   0  0  0  0  0  0  0  0  0  0  0  0
  -26.8640  -16.2190   19.4160 H   0  0  0  0  0  0  0  0  0  0  0  0
  -25.7920  -26.7840   20.9010 O   0  0  0  0  0  0  0  0  0  0  0  0
  -24.7170  -32.4780   23.4960 C   0  0  0  0  0  0  0  0  0  0  0  0
  -26.7420  -27.8160   20.5120 C   0  0  0  0  0  3  0  0  0  0  0  0
  -23.7000  -31.2170   21.6700 C   0  0  0  0  0  3  0  0  0  0  0  0
  -25.2550  -29.9120   20.0710 C   0  0  0  0  0  0  0  0  0  0  0  0
  -26.2290  -31.4450   21.7730 C   0  0  0  0  0  2  0  0  0  0  0  0
  -26.2580  -30.1230   21.0050 C   0  0  0  0  0  3  0  0  0  0  0  0
  -27.0910  -29.0060   21.2530 C   0  0  0  0  0  2  0  0  0  0  0  0
  -26.4620  -27.9930   19.1910 C   0  0  0  0  0  2  0  0  0  0  0  0
  -25.4210  -28.9130   19.0820 C   0  0  0  0  0  3  0  0  0  0  0  0
  -24.0340  -30.7740   20.2040 C   0  0  0  0  0  2  0  0  0  0  0  0
  -24.8970  -31.8000   22.3240 N   0  0  0  0  0  0  0  0  0  0  0  0
  -23.5840  -32.6790   23.9680 O   0  0  0  0  0  0  0  0  0  0  0  0
  -23.1960  -30.1570   22.6640 C   0  0  0  0  0  0  0  0  0  0  0  0
  -21.9300  -30.1300   23.0240 N   0  0  0  0  0  0  0  0  0  0  0  0
  -24.0100  -29.4620   23.2780 O   0  0  0  0  0  0  0  0  0  0  0  0
  -21.2720  -30.7860   22.6260 H   0  0  0  0  0  0  0  0  0  0  0  0
  -18.5170  -28.6360   22.6510 C   0  0  0  0  0  0  0  0  0  0  0  0
  -21.3900  -28.9290   23.6500 C   0  0  0  0  0  3  0  0  0  0  0  0
  -22.3830  -27.5390   22.8250 C   0  0  0  0  0  1  0  0  0  0  0  0
  -20.2760  -26.4070   20.6020 C   0  0  0  0  0  2  0  0  0  0  0  0
  -18.5860  -27.3900   21.2810 C   0  0  0  0  0  1  0  0  0  0  0  0
  -19.6690  -29.2320   23.5370 C   0  0  0  0  0  0  0  0  0  0  0  0
  -19.3680  -30.3910   24.3330 C   0  0  0  0  0  3  0  0  0  0  0  0
  -18.0980  -30.9700   24.4900 C   0  0  0  0  0  3  0  0  0  0  0  0
  -17.0150  -30.3540   23.8530 C   0  0  0  0  0  3  0  0  0  0  0  0
  -17.2300  -29.2400   22.9810 C   0  0  0  0  0  3  0  0  0  0  0  0
  -25.9190  -33.0500   24.2730 C   0  0  0  0  0  3  0  0  0  0  0  0
  -25.5120  -34.4030   24.6680 N   0  0  0  0  0  0  0  0  0  0  0  0
  -25.8350  -35.5040   23.9880 C   0  0  0  0  0  0  0  0  0  0  0  0
  -26.6090  -35.4920   23.0270 O   0  0  0  0  0  0  0  0  0  0  0  0
  -24.8320  -34.4740   25.4090 H   0  0  0  0  0  0  0  0  0  0  0  0
  -24.0840  -37.2460   23.5040 C   0  0  0  0  0  1  0  0  0  0  0  0
  -25.2120  -36.8300   24.4600 C   0  0  0  0  0  3  0  0  0  0  0  0
  -27.1870  -37.6940   25.6320 C   0  0  0  0  0  1  0  0  0  0  0  0
  -26.1990  -37.9230   24.5810 N   0  0  0  0  0  0  0  0  0  0  0  0
  -25.7330  -38.8060   24.7700 H   0  0  0  0  0  0  0  0  0  0  0  0
  -26.3260  -32.2020   25.5390 C   0  0  1  0  0  0  0  0  0  0  0  0
  -25.1420  -31.8230   26.4580 C   0  0  0  0  0  1  0  0  0  0  0  0
  -27.0370  -30.8890   25.1370 C   0  0  0  0  0  1  0  0  0  0  0  0
  -27.3440  -33.0120   26.3730 C   0  0  0  0  0  1  0  0  0  0  0  0
  2  1  1  0
  3  5  1  0
  3  6  1  0
  4  8  1  0
  4  1  2  0
  5  7  1  0
  6 53  1  0
  6  4  1  0
  8  9  2  0
 10  8  1  0
 11 10  1  0
 12 11  2  0
 13 12  1  0
 14 23  1  0
 14 13  2  0
 15 21  1  0
 15 23  1  0
 16 21  1  0
 17 18  1  0
 17 16  1  0
 19 18  1  0
 19 28  1  0
 19 20  1  0
 21 20  1  0
 22 15  2  0
 23 24  1  0
 25 26  2  0
 26 45  1  0
 27 26  1  0
 27 30  1  0
 28 29  1  0
 28 25  1  0
 29 27  2  0
 30 31  1  0
 31 32  2  0
 33 36  1  0
 33 32  1  0
 34 33  2  0
 35 34  1  0
 35 30  2  0
 36 37  1  0
 37 38  1  0
 38 39  2  0
 40 39  1  0
 40 44  1  0
 41 40  2  0
 42 37  2  0
 42 41  1  0
 43 42  1  0
 45 46  1  0
 46 49  1  0
 46 48  1  0
 47 45  2  0
 50 51  1  0
 50 25  1  0
 52 50  1  0
 54 65  2  0
 55 53  1  0
 55 60  1  0
 56 64  1  0
 56 66  1  0
 57 63  1  0
 57 59  1  0
 58 64  1  0
 59 60  1  0
 59 58  1  0
 61 55  1  0
 62 61  1  0
 62 57  2  0
 63 56  1  0
 64 54  1  0
 66 67  1  0
 66 68  2  0
 67 71  1  0
 69 67  1  0
 70 79  2  0
 70 75  1  0
 71 72  1  0
 73  5  1  0
 73  2  1  0
 74 70  1  0
 75 71  1  0
 75 76  2  0
 76 77  1  0
 78 77  2  0
 79 78  1  0
 80 54  1  0
 80 81  1  0
 80 90  1  0
 81 84  1  0
 82 86  1  0
 82 81  1  0
 83 82  2  0
 86 85  1  0
 86 88  1  0
 88 89  1  0
 88 87  1  0
 90 93  1  1
 90 91  1  0
 92 90  1  0
M  ISO  4   6 101  15 100  23 100  53 101
M  END
>  <TORSDO>  (49) 
F 22

>  <SCORE>  (49) 
-10.014

>  <name>  (49) 
48

>  <ligand_id>  (49) 
48

>  <original_smiles>  (49) 
[H]c1c([H])c([H])c2c(c1[H])C([H])([H])C([H])([H])C([H])([H])C2([H])N([H])C(=O)C1([H])N(C(=O)C([H])(N([H])C(=O)C([H])(N([H])C([H])([H])[H])C([H])([H])[H])C(C([H])([H])[H])(C([H])([H])[H])C([H])([H])[H])C([H])([H])c2c([H])c(Oc3c([H])c(C([H])([H])[H])c([H])c([H])c3C(=O)C([H])([H])C([H])([H])C([H])([H])C([H])([H])C([H])([H])N([H])C(=O)N3C([H])([H])C([H])([H])C([H])([H])C([H])(n4nc(-c5c([H])c([H])c(Oc6c([H])c([H])c(F)c([H])c6F)c([H])c5[H])c(C(=O)N([H])[H])c4N([H])[H])C3([H])[H])c([H])c([H])c2C1([H])[H]

>  <smiles>  (49) 
[H]c1c([H])c([H])c2c(c1[H])C([H])([H])C([H])([H])C([H])([H])C2([H])N([H])C(=O)C1([H])N(C(=O)C([H])(N([H])C(=O)C([H])(N([H])C([H])([H])[H])C([H])([H])[H])C(C([H])([H])[H])(C([H])([H])[H])C([H])([H])[H])C([H])([H])c2c([H])c(Oc3c([H])c(C([H])([H])[H])c([H])c([H])c3C(=O)C([H])([H])C([H])([H])C([H])([H])C([H])([H])C([H])([H])N([H])C(=O)N3C([H])([H])C([H])([H])C([H])([H])C([H])(n4nc(-c5c([H])c([H])c(Oc6c([H])c([H])c(F)c([H])c6F)c([H])c5[H])c(C(=O)N([H])[H])c4N([H])[H])C3([H])[H])c([H])c([H])c2C1([H])[H]

$$$$
49:0:0
     RDKit          3D

 99107  0  0  1  0  0  0  0  0999 V2000
  -29.8140  -19.8890   20.2760 C   0  0  0  0  0  3  0  0  0  0  0  0
  -31.3390  -20.1990   20.3700 C   0  0  0  0  0  2  0  0  0  0  0  0
  -32.9340  -22.0410   16.7630 C   0  0  0  0  0  3  0  0  0  0  0  0
  -32.2420  -22.1950   19.0940 C   0  0  0  0  0  3  0  0  0  0  0  0
  -32.7180  -22.8120   17.9240 C   0  0  0  0  0  0  0  0  0  0  0  0
  -32.6760  -20.6560   16.7700 C   0  0  0  0  0  0  0  0  0  0  0  0
  -31.9300  -20.8180   19.1060 C   0  0  0  0  0  0  0  0  0  0  0  0
  -32.1790  -20.0440   17.9460 C   0  0  0  0  0  0  0  0  0  0  0  0
  -32.9730  -24.3040   17.9230 C   0  0  0  0  0  1  0  0  0  0  0  0
  -31.9460  -18.7010   17.9630 O   0  0  0  0  0  0  0  0  0  0  0  0
  -32.1370  -18.2930   17.1270 H   0  0  0  0  0  0  0  0  0  0  0  0
  -32.9640  -19.8380   15.5170 C   0  0  0  0  0  2  0  0  0  0  0  0
  -32.0110  -18.4530   13.6010 C   0  0  0  0  0  1  0  0  0  0  0  0
  -31.7010  -19.4490   14.7270 C   0  0  0  0  0  2  0  0  0  0  0  0
  -28.9660  -21.1340   20.8430 C   0  0  0  0  0  2  0  0  0  0  0  0
  -28.8390  -22.4690   19.9650 C   0  0  0  0  0  2  0  0  0  0  0  0
  -28.4470  -23.8670   20.6370 C   0  0  0  0  0  3  0  0  0  0  0  0
  -28.4840  -25.1580   19.6970 C   0  0  0  0  0  3  0  0  0  0  0  0
  -28.3790  -26.5220   20.2670 O   0  0  0  0  0  0  0  0  0  0  0  0
  -24.6080  -31.8800   23.2380 C   0  0  0  0  0  0  0  0  0  0  0  0
  -27.2280  -27.3190   20.1940 C   0  0  0  0  0  0  0  0  0  0  0  0
  -23.4050  -30.4810   21.5970 C   0  0  0  0  0  3  0  0  0  0  0  0
  -24.8570  -28.9270   20.1760 C   0  0  0  0  0  0  0  0  0  0  0  0
  -25.9440  -30.7990   21.4180 C   0  0  0  0  0  2  0  0  0  0  0  0
  -26.0220  -29.4200   20.7720 C   0  0  0  0  0  0  0  0  0  0  0  0
  -27.2060  -28.6270   20.7710 C   0  0  0  0  0  3  0  0  0  0  0  0
  -26.0320  -26.8680   19.5890 C   0  0  0  0  0  3  0  0  0  0  0  0
  -24.8640  -27.6560   19.5770 C   0  0  0  0  0  3  0  0  0  0  0  0
  -23.6200  -29.8030   20.2190 C   0  0  0  0  0  2  0  0  0  0  0  0
  -24.6720  -31.0700   22.1410 N   0  0  0  0  0  0  0  0  0  0  0  0
  -23.5240  -32.1620   23.7710 O   0  0  0  0  0  0  0  0  0  0  0  0
  -22.7410  -29.4670   22.5600 C   0  0  0  0  0  0  0  0  0  0  0  0
  -21.4150  -29.2850   22.4270 N   0  0  0  0  0  0  0  0  0  0  0  0
  -23.4170  -28.8450   23.3840 O   0  0  0  0  0  0  0  0  0  0  0  0
  -20.9300  -29.8420   21.7360 H   0  0  0  0  0  0  0  0  0  0  0  0
  -18.0380  -28.0890   22.9060 C   0  0  0  0  0  0  0  0  0  0  0  0
  -20.5940  -28.3510   23.1990 C   0  0  0  0  0  3  0  0  0  0  0  0
  -20.7020  -26.9170   22.6310 C   0  0  0  0  0  2  0  0  0  0  0  0
  -19.6090  -26.5900   21.6100 C   0  0  0  0  0  2  0  0  0  0  0  0
  -18.2210  -26.7370   22.2390 C   0  0  0  0  0  2  0  0  0  0  0  0
  -19.1530  -28.8540   23.3410 C   0  0  0  0  0  0  0  0  0  0  0  0
  -18.9270  -30.1200   23.9230 C   0  0  0  0  0  3  0  0  0  0  0  0
  -17.6210  -30.6200   24.0780 C   0  0  0  0  0  3  0  0  0  0  0  0
  -16.5200  -29.8510   23.6620 C   0  0  0  0  0  3  0  0  0  0  0  0
  -16.7300  -28.5890   23.0780 C   0  0  0  0  0  3  0  0  0  0  0  0
  -25.8900  -32.5120   23.8610 C   0  0  0  0  0  3  0  0  0  0  0  0
  -26.4010  -31.7420   25.1410 C   0  0  1  0  0  0  0  0  0  0  0  0
  -25.3050  -31.5100   26.2080 C   0  0  0  0  0  1  0  0  0  0  0  0
  -26.9820  -30.3630   24.7520 C   0  0  0  0  0  1  0  0  0  0  0  0
  -27.5510  -32.5350   25.8040 C   0  0  0  0  0  1  0  0  0  0  0  0
  -25.5800  -33.9130   24.1900 N   0  0  0  0  0  0  0  0  0  0  0  0
  -25.9160  -34.9650   23.4310 C   0  0  0  0  0  0  0  0  0  0  0  0
  -26.5870  -34.8600   22.4020 O   0  0  0  0  0  0  0  0  0  0  0  0
  -24.9840  -34.0660   24.9900 H   0  0  0  0  0  0  0  0  0  0  0  0
  -24.1890  -36.7590   23.0790 C   0  0  0  0  0  1  0  0  0  0  0  0
  -25.4300  -36.3540   23.8900 C   0  0  0  0  0  3  0  0  0  0  0  0
  -27.5660  -37.2390   24.7140 C   0  0  0  0  0  1  0  0  0  0  0  0
  -26.4630  -37.4070   23.7730 N   0  0  0  0  0  0  0  0  0  0  0  0
  -26.0570  -38.3280   23.9180 H   0  0  0  0  0  0  0  0  0  0  0  0
  -29.4900  -18.4330   20.8860 C   0  0  0  0  0  3  0  0  0  0  0  0
  -30.2620  -17.1650   20.2810 C   0  0  0  0  0  3  0  0  0  0  0  0
  -30.6170  -14.6370   20.3880 C   0  0  0  0  0  0  0  0  0  0  0  0
  -30.3610  -12.4050   19.3340 C   0  0  0  0  0  2  0  0  0  0  0  0
  -29.4280  -12.5520   18.1140 C   0  0  0  0  0  2  0  0  0  0  0  0
  -27.9540  -12.4020   18.5400 C   0  0  0  0  0  2  0  0  0  0  0  0
  -27.6000  -13.2620   19.7850 C   0  0  0  0  0  3  0  0  0  0  0  0
  -28.6570  -13.1170   20.9030 C   0  0  0  0  0  2  0  0  0  0  0  0
  -29.9640  -13.4330   20.3200 N   0  0  0  0  0  0  0  0  0  0  0  0
  -31.7820  -14.7430   19.9980 O   0  0  0  0  0  0  0  0  0  0  0  0
  -29.8760  -15.7580   20.6730 N   0  0  0  0  0  0  0  0  0  0  0  0
  -28.9270  -15.6050   20.9760 H   0  0  0  0  0  0  0  0  0  0  0  0
  -25.2080  -13.8600   20.5000 C   0  0  0  0  0  0  0  0  0  0  0  0
  -24.1430  -13.0890   20.8750 C   0  0  0  0  0  0  0  0  0  0  0  0
  -24.6040  -11.7370   20.8500 C   0  0  0  0  0  0  0  0  0  0  0  0
  -26.2520  -12.9790   20.2700 N   0  0  0  0  0  0  0  0  0  0  0  0
  -25.8940  -11.6970   20.5400 N   0  0  0  0  0  0  0  0  0  0  0  0
  -23.8780  -10.4740   21.0450 C   0  0  0  0  0  0  0  0  0  0  0  0
  -24.3150   -9.5050   21.9740 C   0  0  0  0  0  3  0  0  0  0  0  0
  -23.5890   -8.3090   22.1570 C   0  0  0  0  0  3  0  0  0  0  0  0
  -22.4100   -8.0740   21.4090 C   0  0  0  0  0  0  0  0  0  0  0  0
  -21.9910   -9.0320   20.4700 C   0  0  0  0  0  3  0  0  0  0  0  0
  -22.7190  -10.2200   20.2850 C   0  0  0  0  0  3  0  0  0  0  0  0
  -21.6540   -6.9300   21.5020 O   0  0  0  0  0  0  0  0  0  0  0  0
  -21.6200   -6.1810   22.6500 C   0  0  0  0  0  0  0  0  0  0  0  0
  -21.2170   -6.7310   23.8870 C   0  0  0  0  0  3  0  0  0  0  0  0
  -21.1300   -5.9090   25.0280 C   0  0  0  0  0  3  0  0  0  0  0  0
  -21.4350   -4.5370   24.9330 C   0  0  0  0  0  0  0  0  0  0  0  0
  -21.8300   -3.9860   23.7020 C   0  0  0  0  0  3  0  0  0  0  0  0
  -21.9190   -4.8060   22.5620 C   0  0  0  0  0  0  0  0  0  0  0  0
  -22.2800   -4.2660   21.3740 F   0  0  0  0  0  0  0  0  0  0  0  0
  -21.3430   -3.7450   26.0270 F   0  0  0  0  0  0  0  0  0  0  0  0
  -22.7450  -13.5690   21.1460 C   0  0  0  0  0  0  0  0  0  0  0  0
  -22.0170  -12.8720   22.0110 N   0  0  0  0  0  0  0  0  0  0  0  0
  -22.3090  -14.5930   20.6260 O   0  0  0  0  0  0  0  0  0  0  0  0
  -22.3820  -12.0420   22.4540 H   0  0  0  0  0  0  0  0  0  0  0  0
  -21.0800  -13.1740   22.2340 H   0  0  0  0  0  0  0  0  0  0  0  0
  -25.3740  -15.2300   20.3140 N   0  0  0  0  0  0  0  0  0  0  0  0
  -24.6080  -15.8860   20.4100 H   0  0  0  0  0  0  0  0  0  0  0  0
  -26.2160  -15.6570   19.9450 H   0  0  0  0  0  0  0  0  0  0  0  0
  1  2  1  0
  1 15  1  0
  1 60  1  0
  3  6  2  0
  3  5  1  0
  4  7  1  0
  5  4  2  0
  6  8  1  0
  7  2  1  0
  8 10  1  0
  8  7  2  0
  9  5  1  0
 11 10  1  0
 12  6  1  0
 13 14  1  0
 14 12  1  0
 16 17  1  0
 16 15  1  0
 18 19  1  0
 18 17  2  0
 20 31  2  0
 21 19  1  0
 21 26  1  0
 22 30  1  0
 22 32  1  0
 23 29  1  0
 23 25  1  0
 24 30  1  0
 25 24  1  0
 26 25  2  0
 27 21  2  0
 28 27  1  0
 28 23  2  0
 29 22  1  0
 30 20  1  0
 32 34  2  0
 33 32  1  0
 35 33  1  0
 36 45  2  0
 36 41  1  0
 37 33  1  0
 37 41  1  0
 38 37  1  0
 39 40  1  0
 39 38  1  0
 40 36  1  0
 41 42  2  0
 42 43  1  0
 44 43  2  0
 45 44  1  0
 46 20  1  0
 46 51  1  0
 46 47  1  0
 47 50  1  1
 47 48  1  0
 49 47  1  0
 51 54  1  0
 52 56  1  0
 52 51  1  0
 53 52  2  0
 56 55  1  0
 58 56  1  0
 58 59  1  0
 58 57  1  0
 61 70  1  0
 61 60  2  0
 62 70  1  0
 63 68  1  0
 64 65  1  0
 64 63  1  0
 66 65  1  0
 66 75  1  0
 66 67  1  0
 68 62  1  0
 68 67  1  0
 69 62  2  0
 70 71  1  0
 72 73  2  0
 73 92  1  0
 74 73  1  0
 74 77  1  0
 75 72  1  0
 75 76  1  0
 76 74  2  0
 77 78  1  0
 78 79  2  0
 80 83  1  0
 80 79  1  0
 81 80  2  0
 82 81  1  0
 82 77  2  0
 83 84  1  0
 84 85  1  0
 85 86  2  0
 87 86  1  0
 87 91  1  0
 88 87  2  0
 89 84  2  0
 89 88  1  0
 90 89  1  0
 92 93  1  0
 93 96  1  0
 93 95  1  0
 94 92  2  0
 97 98  1  0
 97 72  1  0
 99 97  1  0
M  ISO  4  18 101  19 101  62 100  70 100
M  END
>  <TORSDO>  (50) 
F 27

>  <SCORE>  (50) 
-11.850

>  <name>  (50) 
49

>  <ligand_id>  (50) 
49

>  <original_smiles>  (50) 
[H]Oc1c(C([H])([H])C([H])([H])C([H])([H])[H])c([H])c(C([H])([H])[H])c([H])c1C([H])([H])C([H])(C([H])([H])C([H])([H])N([H])C(=O)N1C([H])([H])C([H])([H])C([H])([H])C([H])(n2nc(-c3c([H])c([H])c(Oc4c([H])c([H])c(F)c([H])c4F)c([H])c3[H])c(C(=O)N([H])[H])c2N([H])[H])C1([H])[H])C([H])([H])C([H])([H])C([H])([H])C([H])([H])Oc1c([H])c([H])c2c(c1[H])C([H])([H])N(C(=O)C([H])(N([H])C(=O)C([H])(N([H])C([H])([H])[H])C([H])([H])[H])C(C([H])([H])[H])(C([H])([H])[H])C([H])([H])[H])C([H])(C(=O)N([H])C1([H])c3c([H])c([H])c([H])c([H])c3C([H])([H])C([H])([H])C1([H])[H])C2([H])[H]

>  <smiles>  (50) 
[H]Oc1c(C([H])([H])C([H])([H])C([H])([H])[H])c([H])c(C([H])([H])[H])c([H])c1C([H])([H])C([H])(C([H])([H])C([H])([H])N([H])C(=O)N1C([H])([H])C([H])([H])C([H])([H])C([H])(n2nc(-c3c([H])c([H])c(Oc4c([H])c([H])c(F)c([H])c4F)c([H])c3[H])c(C(=O)N([H])[H])c2N([H])[H])C1([H])[H])C([H])([H])C([H])([H])C([H])([H])C([H])([H])Oc1c([H])c([H])c2c(c1[H])C([H])([H])N(C(=O)C([H])(N([H])C(=O)C([H])(N([H])C([H])([H])[H])C([H])([H])[H])C(C([H])([H])[H])(C([H])([H])[H])C([H])([H])[H])C([H])(C(=O)N([H])C1([H])c3c([H])c([H])c([H])c([H])c3C([H])([H])C([H])([H])C1([H])[H])C2([H])[H]

$$$$
50:0:0
     RDKit          3D

 90 98  0  0  1  0  0  0  0  0999 V2000
  -27.3770  -21.4570   20.4760 C   0  0  0  0  0  3  0  0  0  0  0  0
  -26.4650  -22.5170   20.6880 C   0  0  0  0  0  3  0  0  0  0  0  0
  -28.7470  -21.6560   20.2480 C   0  0  0  0  0  0  0  0  0  0  0  0
  -29.0260  -23.1920   20.1190 C   0  0  0  0  0  0  0  0  0  0  0  0
  -26.7790  -23.9070   20.6550 C   0  0  0  0  0  0  0  0  0  0  0  0
  -28.0530  -24.4140   20.2540 C   0  0  0  0  0  0  0  0  0  0  0  0
  -30.4730  -23.5610   19.8670 C   0  0  0  0  0  1  0  0  0  0  0  0
  -25.2950  -24.5900   22.3620 C   0  0  0  0  0  1  0  0  0  0  0  0
  -25.7900  -24.7720   21.0420 O   0  0  0  0  0  0  0  0  0  0  0  0
  -28.2310  -25.9670   20.1430 O   0  0  0  0  0  0  0  0  0  0  0  0
  -24.5490  -31.9140   23.1530 C   0  0  0  0  0  0  0  0  0  0  0  0
  -27.2370  -27.1070   20.0840 C   0  0  0  0  0  0  0  0  0  0  0  0
  -23.4160  -30.5390   21.4580 C   0  0  0  0  0  3  0  0  0  0  0  0
  -24.9250  -28.9990   20.0180 C   0  0  0  0  0  0  0  0  0  0  0  0
  -25.9840  -30.7770   21.3850 C   0  0  0  0  0  2  0  0  0  0  0  0
  -26.0870  -29.3810   20.6990 C   0  0  0  0  0  0  0  0  0  0  0  0
  -27.2300  -28.4520   20.7230 C   0  0  0  0  0  3  0  0  0  0  0  0
  -26.0790  -26.9400   19.2870 C   0  0  0  0  0  3  0  0  0  0  0  0
  -24.9490  -27.7990   19.2910 C   0  0  0  0  0  3  0  0  0  0  0  0
  -23.6880  -29.8980   20.0680 C   0  0  0  0  0  2  0  0  0  0  0  0
  -24.6700  -31.1050   22.0510 N   0  0  0  0  0  0  0  0  0  0  0  0
  -23.4440  -32.1750   23.6570 O   0  0  0  0  0  0  0  0  0  0  0  0
  -22.7190  -29.5070   22.3840 C   0  0  0  0  0  0  0  0  0  0  0  0
  -21.3940  -29.3230   22.2300 N   0  0  0  0  0  0  0  0  0  0  0  0
  -23.3770  -28.8750   23.2130 O   0  0  0  0  0  0  0  0  0  0  0  0
  -20.9140  -29.8850   21.5400 H   0  0  0  0  0  0  0  0  0  0  0  0
  -18.0140  -28.0850   22.6960 C   0  0  0  0  0  0  0  0  0  0  0  0
  -20.5740  -28.3530   22.9640 C   0  0  0  0  0  3  0  0  0  0  0  0
  -20.6800  -26.9460   22.3320 C   0  0  0  0  0  2  0  0  0  0  0  0
  -19.5770  -26.6600   21.3080 C   0  0  0  0  0  2  0  0  0  0  0  0
  -18.1970  -26.7680   21.9600 C   0  0  0  0  0  2  0  0  0  0  0  0
  -19.1310  -28.8370   23.1540 C   0  0  0  0  0  0  0  0  0  0  0  0
  -18.9020  -30.0670   23.8060 C   0  0  0  0  0  3  0  0  0  0  0  0
  -17.5940  -30.5480   24.0040 C   0  0  0  0  0  3  0  0  0  0  0  0
  -16.4950  -29.7950   23.5600 C   0  0  0  0  0  3  0  0  0  0  0  0
  -16.7050  -28.5650   22.9120 C   0  0  0  0  0  3  0  0  0  0  0  0
  -25.7950  -32.5660   23.8270 C   0  0  0  0  0  3  0  0  0  0  0  0
  -26.2590  -31.8090   25.1330 C   0  0  1  0  0  0  0  0  0  0  0  0
  -25.1190  -31.5660   26.1500 C   0  0  0  0  0  1  0  0  0  0  0  0
  -26.8760  -30.4350   24.7900 C   0  0  0  0  0  1  0  0  0  0  0  0
  -27.3660  -32.6230   25.8420 C   0  0  0  0  0  1  0  0  0  0  0  0
  -25.4580  -33.9650   24.1460 N   0  0  0  0  0  0  0  0  0  0  0  0
  -25.8000  -35.0290   23.4050 C   0  0  0  0  0  0  0  0  0  0  0  0
  -26.4940  -34.9340   22.3890 O   0  0  0  0  0  0  0  0  0  0  0  0
  -24.8400  -34.1100   24.9320 H   0  0  0  0  0  0  0  0  0  0  0  0
  -24.0770  -36.8250   23.0210 C   0  0  0  0  0  1  0  0  0  0  0  0
  -25.2970  -36.4140   23.8610 C   0  0  0  0  0  3  0  0  0  0  0  0
  -27.3960  -37.3140   24.7660 C   0  0  0  0  0  1  0  0  0  0  0  0
  -26.3280  -37.4720   23.7820 N   0  0  0  0  0  0  0  0  0  0  0  0
  -25.9130  -38.3910   23.9100 H   0  0  0  0  0  0  0  0  0  0  0  0
  -29.6920  -20.1630   20.4230 C   0  0  0  0  0  2  0  0  0  0  0  0
  -29.6610  -18.4780   19.7150 C   0  0  0  0  0  2  0  0  0  0  0  0
  -30.6260  -15.6150   20.0030 C   0  0  0  0  0  0  0  0  0  0  0  0
  -30.6270  -13.1400   19.1730 C   0  0  0  0  0  2  0  0  0  0  0  0
  -29.6870  -12.9140   17.9600 C   0  0  0  0  0  2  0  0  0  0  0  0
  -28.2530  -12.6190   18.4310 C   0  0  0  0  0  2  0  0  0  0  0  0
  -27.8160  -13.5780   19.5660 C   0  0  0  0  0  3  0  0  0  0  0  0
  -28.8860  -13.7520   20.6690 C   0  0  0  0  0  2  0  0  0  0  0  0
  -30.0970  -14.2830   20.0180 N   0  0  0  0  0  0  0  0  0  0  0  0
  -31.8050  -15.6380   19.6210 O   0  0  0  0  0  0  0  0  0  0  0  0
  -29.8570  -16.8740   20.2480 N   0  0  0  0  0  0  0  0  0  0  0  0
  -29.0070  -16.6020   20.7230 H   0  0  0  0  0  0  0  0  0  0  0  0
  -25.4620  -14.1070   20.3850 C   0  0  0  0  0  0  0  0  0  0  0  0
  -24.4170  -13.3190   20.7790 C   0  0  0  0  0  0  0  0  0  0  0  0
  -24.8930  -11.9720   20.7250 C   0  0  0  0  0  0  0  0  0  0  0  0
  -26.5040  -13.2430   20.1050 N   0  0  0  0  0  0  0  0  0  0  0  0
  -26.1770  -11.9520   20.3760 N   0  0  0  0  0  0  0  0  0  0  0  0
  -24.1800  -10.7040   20.9260 C   0  0  0  0  0  0  0  0  0  0  0  0
  -24.6030   -9.7610   21.8890 C   0  0  0  0  0  3  0  0  0  0  0  0
  -23.8850   -8.5600   22.0780 C   0  0  0  0  0  3  0  0  0  0  0  0
  -22.7310   -8.2930   21.3040 C   0  0  0  0  0  0  0  0  0  0  0  0
  -22.3270   -9.2240   20.3320 C   0  0  0  0  0  3  0  0  0  0  0  0
  -23.0460  -10.4160   20.1400 C   0  0  0  0  0  3  0  0  0  0  0  0
  -21.9880   -7.1400   21.4000 O   0  0  0  0  0  0  0  0  0  0  0  0
  -21.8710   -6.4560   22.5840 C   0  0  0  0  0  0  0  0  0  0  0  0
  -21.2920   -7.0440   23.7300 C   0  0  0  0  0  3  0  0  0  0  0  0
  -21.1260   -6.2810   24.9040 C   0  0  0  0  0  3  0  0  0  0  0  0
  -21.5310   -4.9340   24.9330 C   0  0  0  0  0  0  0  0  0  0  0  0
  -22.1040   -4.3450   23.7900 C   0  0  0  0  0  3  0  0  0  0  0  0
  -22.2690   -5.1040   22.6180 C   0  0  0  0  0  0  0  0  0  0  0  0
  -22.8020   -4.5260   21.5150 F   0  0  0  0  0  0  0  0  0  0  0  0
  -21.3660   -4.1990   26.0580 F   0  0  0  0  0  0  0  0  0  0  0  0
  -23.0240  -13.7840   21.0900 C   0  0  0  0  0  0  0  0  0  0  0  0
  -22.3300  -13.0890   21.9820 N   0  0  0  0  0  0  0  0  0  0  0  0
  -22.5630  -14.8030   20.5750 O   0  0  0  0  0  0  0  0  0  0  0  0
  -22.7160  -12.2670   22.4210 H   0  0  0  0  0  0  0  0  0  0  0  0
  -21.3960  -13.3850   22.2310 H   0  0  0  0  0  0  0  0  0  0  0  0
  -25.6080  -15.4810   20.2130 N   0  0  0  0  0  0  0  0  0  0  0  0
  -24.8340  -16.1230   20.3440 H   0  0  0  0  0  0  0  0  0  0  0  0
  -26.4320  -15.9280   19.8350 H   0  0  0  0  0  0  0  0  0  0  0  0
  1  2  1  0
  3 51  1  0
  3  1  2  0
  4  3  1  0
  4  6  2  0
  5  2  2  0
  5  9  1  0
  6  5  1  0
  7  4  1  0
  9  8  1  0
 10  6  1  0
 11 22  2  0
 12 10  1  0
 12 17  1  0
 13 21  1  0
 13 23  1  0
 14 20  1  0
 14 16  1  0
 15 21  1  0
 16 17  2  0
 16 15  1  0
 18 19  1  0
 18 12  2  0
 19 14  2  0
 20 13  1  0
 21 11  1  0
 23 25  2  0
 24 23  1  0
 26 24  1  0
 27 36  2  0
 27 32  1  0
 28 24  1  0
 28 32  1  0
 29 28  1  0
 30 31  1  0
 30 29  1  0
 31 27  1  0
 32 33  2  0
 33 34  1  0
 35 34  2  0
 36 35  1  0
 37 11  1  0
 37 42  1  0
 37 38  1  0
 38 41  1  1
 38 39  1  0
 40 38  1  0
 42 45  1  0
 43 47  1  0
 43 42  1  0
 44 43  2  0
 47 46  1  0
 49 47  1  0
 49 50  1  0
 49 48  1  0
 52 61  1  0
 52 51  1  0
 53 59  1  0
 53 61  1  0
 54 59  1  0
 55 56  1  0
 55 54  1  0
 57 56  1  0
 57 66  1  0
 57 58  1  0
 59 58  1  0
 60 53  2  0
 61 62  1  0
 63 64  2  0
 64 83  1  0
 65 64  1  0
 65 68  1  0
 66 67  1  0
 66 63  1  0
 67 65  2  0
 68 69  1  0
 69 70  2  0
 71 74  1  0
 71 70  1  0
 72 71  2  0
 73 72  1  0
 73 68  2  0
 74 75  1  0
 75 80  2  0
 75 76  1  0
 76 77  2  0
 77 78  1  0
 78 82  1  0
 79 78  2  0
 80 79  1  0
 81 80  1  0
 83 84  1  0
 84 87  1  0
 84 86  1  0
 85 83  2  0
 88 89  1  0
 88 63  1  0
 90 88  1  0
M  ISO  4   6 101  10 101  53 100  61 100
M  END
>  <TORSDO>  (51) 
F 19

>  <SCORE>  (51) 
-14.708

>  <name>  (51) 
50

>  <ligand_id>  (51) 
50

>  <original_smiles>  (51) 
[H]c1c([H])c([H])c2c(c1[H])C([H])([H])C([H])([H])C([H])([H])C2([H])N([H])C(=O)C1([H])N(C(=O)C([H])(N([H])C(=O)C([H])(N([H])C([H])([H])[H])C([H])([H])[H])C(C([H])([H])[H])(C([H])([H])[H])C([H])([H])[H])C([H])([H])c2c([H])c(Oc3c(OC([H])([H])[H])c([H])c([H])c(C([H])([H])C([H])([H])N([H])C(=O)N4C([H])([H])C([H])([H])C([H])([H])C([H])(n5nc(-c6c([H])c([H])c(Oc7c([H])c([H])c(F)c([H])c7F)c([H])c6[H])c(C(=O)N([H])[H])c5N([H])[H])C4([H])[H])c3C([H])([H])[H])c([H])c([H])c2C1([H])[H]

>  <smiles>  (51) 
[H]c1c([H])c([H])c2c(c1[H])C([H])([H])C([H])([H])C([H])([H])C2([H])N([H])C(=O)C1([H])N(C(=O)C([H])(N([H])C(=O)C([H])(N([H])C([H])([H])[H])C([H])([H])[H])C(C([H])([H])[H])(C([H])([H])[H])C([H])([H])[H])C([H])([H])c2c([H])c(Oc3c(OC([H])([H])[H])c([H])c([H])c(C([H])([H])C([H])([H])N([H])C(=O)N4C([H])([H])C([H])([H])C([H])([H])C([H])(n5nc(-c6c([H])c([H])c(Oc7c([H])c([H])c(F)c([H])c7F)c([H])c6[H])c(C(=O)N([H])[H])c5N([H])[H])C4([H])[H])c3C([H])([H])[H])c([H])c([H])c2C1([H])[H]

$$$$
51:0:0
     RDKit          3D

 92100  0  0  1  0  0  0  0  0999 V2000
  -27.0900  -24.7970   21.0440 C   0  0  0  0  0  3  0  0  0  0  0  0
  -26.6990  -23.4640   21.2960 C   0  0  0  0  0  0  0  0  0  0  0  0
  -27.4750  -22.3420   20.8750 C   0  0  0  0  0  0  0  0  0  0  0  0
  -28.7300  -22.5100   20.2080 C   0  0  0  0  0  0  0  0  0  0  0  0
  -29.0730  -23.9520   19.9580 C   0  0  0  0  0  0  0  0  0  0  0  0
  -28.2590  -25.1470   20.3450 C   0  0  0  0  0  0  0  0  0  0  0  0
  -25.3930  -23.2860   22.0610 C   0  0  0  0  0  1  0  0  0  0  0  0
  -26.9410  -20.9460   21.1750 C   0  0  0  0  0  1  0  0  0  0  0  0
  -30.3880  -24.2290   19.2540 C   0  0  0  0  0  1  0  0  0  0  0  0
  -28.5180  -26.5940   20.1690 O   0  0  0  0  0  0  0  0  0  0  0  0
  -24.9000  -32.0840   23.5710 C   0  0  0  0  0  0  0  0  0  0  0  0
  -27.4950  -27.6190   20.1950 C   0  0  0  0  0  0  0  0  0  0  0  0
  -23.7230  -30.8510   21.7890 C   0  0  0  0  0  3  0  0  0  0  0  0
  -25.1890  -29.3930   20.2590 C   0  0  0  0  0  0  0  0  0  0  0  0
  -26.2830  -31.0990   21.7060 C   0  0  0  0  0  2  0  0  0  0  0  0
  -26.3580  -29.7660   20.9380 C   0  0  0  0  0  0  0  0  0  0  0  0
  -27.5110  -28.8930   20.8980 C   0  0  0  0  0  3  0  0  0  0  0  0
  -26.3140  -27.3670   19.4660 C   0  0  0  0  0  3  0  0  0  0  0  0
  -25.1800  -28.2070   19.5100 C   0  0  0  0  0  3  0  0  0  0  0  0
  -23.9690  -30.2960   20.3610 C   0  0  0  0  0  2  0  0  0  0  0  0
  -24.9870  -31.3620   22.4120 N   0  0  0  0  0  0  0  0  0  0  0  0
  -23.8060  -32.3340   24.0980 O   0  0  0  0  0  0  0  0  0  0  0  0
  -23.0160  -29.7700   22.6450 C   0  0  0  0  0  0  0  0  0  0  0  0
  -21.6930  -29.6080   22.4580 N   0  0  0  0  0  0  0  0  0  0  0  0
  -23.6590  -29.0820   23.4400 O   0  0  0  0  0  0  0  0  0  0  0  0
  -21.2300  -30.2160   21.7970 H   0  0  0  0  0  0  0  0  0  0  0  0
  -18.2970  -28.3860   22.7650 C   0  0  0  0  0  0  0  0  0  0  0  0
  -20.8480  -28.6140   23.1240 C   0  0  0  0  0  3  0  0  0  0  0  0
  -20.9620  -27.2340   22.4350 C   0  0  0  0  0  2  0  0  0  0  0  0
  -19.8900  -27.0030   21.3660 C   0  0  0  0  0  2  0  0  0  0  0  0
  -18.4900  -27.0990   21.9810 C   0  0  0  0  0  2  0  0  0  0  0  0
  -19.4040  -29.1050   23.2880 C   0  0  0  0  0  0  0  0  0  0  0  0
  -19.1690  -30.3130   23.9810 C   0  0  0  0  0  3  0  0  0  0  0  0
  -17.8600  -30.8000   24.1550 C   0  0  0  0  0  3  0  0  0  0  0  0
  -16.7670  -30.0780   23.6470 C   0  0  0  0  0  3  0  0  0  0  0  0
  -16.9860  -28.8720   22.9570 C   0  0  0  0  0  3  0  0  0  0  0  0
  -26.1700  -32.6480   24.2770 C   0  0  0  0  0  3  0  0  0  0  0  0
  -26.5900  -31.8180   25.5520 C   0  0  1  0  0  0  0  0  0  0  0  0
  -25.4330  -31.5860   26.5520 C   0  0  0  0  0  1  0  0  0  0  0  0
  -27.1460  -30.4320   25.1510 C   0  0  0  0  0  1  0  0  0  0  0  0
  -27.7290  -32.5490   26.3010 C   0  0  0  0  0  1  0  0  0  0  0  0
  -25.8960  -34.0460   24.6430 N   0  0  0  0  0  0  0  0  0  0  0  0
  -26.2820  -35.1140   23.9320 C   0  0  0  0  0  0  0  0  0  0  0  0
  -26.9730  -35.0220   22.9140 O   0  0  0  0  0  0  0  0  0  0  0  0
  -25.2860  -34.1930   25.4340 H   0  0  0  0  0  0  0  0  0  0  0  0
  -24.6130  -36.9720   23.6150 C   0  0  0  0  0  1  0  0  0  0  0  0
  -25.8320  -36.5030   24.4260 C   0  0  0  0  0  3  0  0  0  0  0  0
  -27.9780  -37.3040   25.3130 C   0  0  0  0  0  1  0  0  0  0  0  0
  -26.8970  -37.5270   24.3570 N   0  0  0  0  0  0  0  0  0  0  0  0
  -26.5160  -38.4560   24.5200 H   0  0  0  0  0  0  0  0  0  0  0  0
  -29.6910  -21.1820   19.8360 C   0  0  0  0  0  3  0  0  0  0  0  0
  -29.3960  -19.4940   19.9540 C   0  0  0  0  0  3  0  0  0  0  0  0
  -31.7470  -18.6040   20.6220 C   0  0  0  0  0  1  0  0  0  0  0  0
  -30.5190  -18.2320   19.7720 C   0  0  0  0  0  3  0  0  0  0  0  0
  -30.9900  -15.4930   19.8240 C   0  0  0  0  0  0  0  0  0  0  0  0
  -30.9070  -13.1020   18.9760 C   0  0  0  0  0  2  0  0  0  0  0  0
  -29.9380  -12.9790   17.7760 C   0  0  0  0  0  2  0  0  0  0  0  0
  -28.5010  -12.7310   18.2670 C   0  0  0  0  0  2  0  0  0  0  0  0
  -28.0990  -13.6830   19.4240 C   0  0  0  0  0  3  0  0  0  0  0  0
  -29.1900  -13.7840   20.5120 C   0  0  0  0  0  2  0  0  0  0  0  0
  -30.4230  -14.2160   19.8430 N   0  0  0  0  0  0  0  0  0  0  0  0
  -32.1720  -15.5600   19.4740 O   0  0  0  0  0  0  0  0  0  0  0  0
  -30.2100  -16.6810   19.9930 N   0  0  0  0  0  0  0  0  0  0  0  0
  -29.2530  -16.4860   20.2450 H   0  0  0  0  0  0  0  0  0  0  0  0
  -25.7500  -14.2040   20.2880 C   0  0  0  0  0  0  0  0  0  0  0  0
  -24.7160  -13.4040   20.6920 C   0  0  0  0  0  0  0  0  0  0  0  0
  -25.2000  -12.0630   20.6120 C   0  0  0  0  0  0  0  0  0  0  0  0
  -26.7930  -13.3500   19.9810 N   0  0  0  0  0  0  0  0  0  0  0  0
  -26.4770  -12.0550   20.2410 N   0  0  0  0  0  0  0  0  0  0  0  0
  -24.5040  -10.7850   20.8100 C   0  0  0  0  0  0  0  0  0  0  0  0
  -24.8960   -9.8760   21.8160 C   0  0  0  0  0  3  0  0  0  0  0  0
  -24.1960   -8.6640   21.9990 C   0  0  0  0  0  3  0  0  0  0  0  0
  -23.0890   -8.3510   21.1750 C   0  0  0  0  0  0  0  0  0  0  0  0
  -22.7170   -9.2490   20.1580 C   0  0  0  0  0  3  0  0  0  0  0  0
  -23.4180  -10.4530   19.9730 C   0  0  0  0  0  3  0  0  0  0  0  0
  -22.3660   -7.1860   21.2620 O   0  0  0  0  0  0  0  0  0  0  0  0
  -22.1080   -6.5890   22.4700 C   0  0  0  0  0  0  0  0  0  0  0  0
  -21.4170   -7.2620   23.5010 C   0  0  0  0  0  3  0  0  0  0  0  0
  -21.1120   -6.5870   24.7010 C   0  0  0  0  0  3  0  0  0  0  0  0
  -21.4860   -5.2410   24.8670 C   0  0  0  0  0  0  0  0  0  0  0  0
  -22.1690   -4.5680   23.8390 C   0  0  0  0  0  3  0  0  0  0  0  0
  -22.4750   -5.2390   22.6420 C   0  0  0  0  0  0  0  0  0  0  0  0
  -23.1140   -4.5790   21.6470 F   0  0  0  0  0  0  0  0  0  0  0  0
  -21.1860   -4.5900   26.0160 F   0  0  0  0  0  0  0  0  0  0  0  0
  -23.3260  -13.8530   21.0350 C   0  0  0  0  0  0  0  0  0  0  0  0
  -22.6540  -13.1370   21.9300 N   0  0  0  0  0  0  0  0  0  0  0  0
  -22.8460  -14.8740   20.5460 O   0  0  0  0  0  0  0  0  0  0  0  0
  -23.0570  -12.3110   22.3470 H   0  0  0  0  0  0  0  0  0  0  0  0
  -21.7230  -13.4190   22.2010 H   0  0  0  0  0  0  0  0  0  0  0  0
  -25.8810  -15.5810   20.1290 N   0  0  0  0  0  0  0  0  0  0  0  0
  -25.1040  -16.2150   20.2830 H   0  0  0  0  0  0  0  0  0  0  0  0
  -26.6920  -16.0400   19.7370 H   0  0  0  0  0  0  0  0  0  0  0  0
  1  2  1  0
  2  7  1  0
  3  8  1  0
  3  2  2  0
  4  3  1  0
  5  4  2  0
  5  6  1  0
  6  1  2  0
  9  5  1  0
 10 12  1  0
 10  6  1  0
 11 22  2  0
 12 17  1  0
 13 21  1  0
 13 23  1  0
 14 20  1  0
 14 16  1  0
 15 21  1  0
 16 15  1  0
 17 16  2  0
 18 19  1  0
 18 12  2  0
 19 14  2  0
 20 13  1  0
 21 11  1  0
 23 25  2  0
 24 23  1  0
 26 24  1  0
 27 36  2  0
 27 32  1  0
 28 24  1  0
 28 32  1  0
 29 28  1  0
 30 31  1  0
 30 29  1  0
 31 27  1  0
 32 33  2  0
 33 34  1  0
 35 34  2  0
 36 35  1  0
 37 11  1  0
 37 42  1  0
 37 38  1  0
 38 41  1  1
 38 39  1  0
 40 38  1  0
 42 45  1  0
 43 47  1  0
 43 42  1  0
 44 43  2  0
 47 46  1  0
 49 47  1  0
 49 50  1  0
 49 48  1  0
 51 52  2  0
 51  4  1  0
 54 52  1  0
 54 63  1  0
 54 53  1  0
 55 61  1  0
 55 63  1  0
 56 61  1  0
 57 58  1  0
 57 56  1  0
 59 58  1  0
 59 68  1  0
 59 60  1  0
 61 60  1  0
 62 55  2  0
 63 64  1  0
 65 66  2  0
 66 85  1  0
 67 66  1  0
 67 70  1  0
 68 69  1  0
 68 65  1  0
 69 67  2  0
 70 71  1  0
 71 72  2  0
 73 76  1  0
 73 72  1  0
 74 73  2  0
 75 74  1  0
 75 70  2  0
 76 77  1  0
 77 82  2  0
 77 78  1  0
 78 79  2  0
 79 80  1  0
 80 84  1  0
 81 80  2  0
 82 81  1  0
 83 82  1  0
 85 86  1  0
 86 89  1  0
 86 88  1  0
 87 85  2  0
 90 91  1  0
 90 65  1  0
 92 90  1  0
M  ISO  4   6 101  10 101  55 100  63 100
M  END
>  <TORSDO>  (52) 
F 19

>  <SCORE>  (52) 
-11.773

>  <name>  (52) 
51

>  <ligand_id>  (52) 
51

>  <original_smiles>  (52) 
[H]c1c([H])c([H])c2c(c1[H])C([H])([H])C([H])([H])C([H])([H])C2([H])N([H])C(=O)C1([H])N(C(=O)C([H])(N([H])C(=O)C([H])(N([H])C([H])([H])[H])C([H])([H])[H])C(C([H])([H])[H])(C([H])([H])[H])C([H])([H])[H])C([H])([H])c2c([H])c(Oc3c([H])c(C([H])([H])[H])c(C([H])([H])[H])c(C([H])([H])C([H])([H])C([H])(N([H])C(=O)N4C([H])([H])C([H])([H])C([H])([H])C([H])(n5nc(-c6c([H])c([H])c(Oc7c([H])c([H])c(F)c([H])c7F)c([H])c6[H])c(C(=O)N([H])[H])c5N([H])[H])C4([H])[H])C([H])([H])[H])c3C([H])([H])[H])c([H])c([H])c2C1([H])[H]

>  <smiles>  (52) 
[H]c1c([H])c([H])c2c(c1[H])C([H])([H])C([H])([H])C([H])([H])C2([H])N([H])C(=O)C1([H])N(C(=O)C([H])(N([H])C(=O)C([H])(N([H])C([H])([H])[H])C([H])([H])[H])C(C([H])([H])[H])(C([H])([H])[H])C([H])([H])[H])C([H])([H])c2c([H])c(Oc3c([H])c(C([H])([H])[H])c(C([H])([H])[H])c(C([H])([H])C([H])([H])C([H])(N([H])C(=O)N4C([H])([H])C([H])([H])C([H])([H])C([H])(n5nc(-c6c([H])c([H])c(Oc7c([H])c([H])c(F)c([H])c7F)c([H])c6[H])c(C(=O)N([H])[H])c5N([H])[H])C4([H])[H])C([H])([H])[H])c3C([H])([H])[H])c([H])c([H])c2C1([H])[H]

$$$$
52:0:0
     RDKit          3D

 94103  0  0  1  0  0  0  0  0999 V2000
  -28.7270  -23.6160   22.6190 C   0  0  0  0  0  3  0  0  0  0  0  0
  -29.1190  -24.8200   23.2230 C   0  0  0  0  0  3  0  0  0  0  0  0
  -28.4600  -23.5580   21.2380 C   0  0  0  0  0  0  0  0  0  0  0  0
  -29.2100  -26.0020   22.4630 C   0  0  0  0  0  0  0  0  0  0  0  0
  -28.5920  -24.7380   20.4520 C   0  0  0  0  0  0  0  0  0  0  0  0
  -28.9030  -25.9830   21.0780 C   0  0  0  0  0  0  0  0  0  0  0  0
  -29.6430  -27.2740   23.1650 C   0  0  0  0  0  1  0  0  0  0  0  0
  -28.4100  -24.6620   18.9440 C   0  0  0  0  0  1  0  0  0  0  0  0
  -28.9130  -27.1650   20.3600 O   0  0  0  0  0  0  0  0  0  0  0  0
  -24.6710  -32.0260   23.3830 C   0  0  0  0  0  0  0  0  0  0  0  0
  -27.7270  -27.8660   20.3090 C   0  0  0  0  0  0  0  0  0  0  0  0
  -23.6440  -30.6460   21.6050 C   0  0  0  0  0  3  0  0  0  0  0  0
  -25.2630  -29.2480   20.2160 C   0  0  0  0  0  0  0  0  0  0  0  0
  -26.1550  -31.1380   21.5880 C   0  0  0  0  0  2  0  0  0  0  0  0
  -26.3510  -29.8050   20.8990 C   0  0  0  0  0  0  0  0  0  0  0  0
  -27.5890  -29.1260   20.9360 C   0  0  0  0  0  3  0  0  0  0  0  0
  -26.6250  -27.3280   19.6130 C   0  0  0  0  0  3  0  0  0  0  0  0
  -25.3950  -28.0090   19.5660 C   0  0  0  0  0  3  0  0  0  0  0  0
  -23.9750  -30.0400   20.2150 C   0  0  0  0  0  2  0  0  0  0  0  0
  -24.8380  -31.2820   22.2520 N   0  0  0  0  0  0  0  0  0  0  0  0
  -23.5450  -32.2210   23.8610 O   0  0  0  0  0  0  0  0  0  0  0  0
  -22.9870  -29.5520   22.4750 C   0  0  0  0  0  0  0  0  0  0  0  0
  -21.6770  -29.3320   22.2680 N   0  0  0  0  0  0  0  0  0  0  0  0
  -23.6500  -28.9060   23.2900 O   0  0  0  0  0  0  0  0  0  0  0  0
  -21.2030  -29.9080   21.5860 H   0  0  0  0  0  0  0  0  0  0  0  0
  -18.3070  -28.0750   22.6020 C   0  0  0  0  0  0  0  0  0  0  0  0
  -20.8570  -28.3260   22.9410 C   0  0  0  0  0  3  0  0  0  0  0  0
  -20.9820  -26.9510   22.2500 C   0  0  0  0  0  2  0  0  0  0  0  0
  -19.9010  -26.7050   21.1920 C   0  0  0  0  0  2  0  0  0  0  0  0
  -18.5070  -26.7870   21.8210 C   0  0  0  0  0  2  0  0  0  0  0  0
  -19.4110  -28.8060   23.1150 C   0  0  0  0  0  0  0  0  0  0  0  0
  -19.1720  -30.0150   23.8040 C   0  0  0  0  0  3  0  0  0  0  0  0
  -17.8600  -30.4930   23.9860 C   0  0  0  0  0  3  0  0  0  0  0  0
  -16.7700  -29.7570   23.4900 C   0  0  0  0  0  3  0  0  0  0  0  0
  -16.9940  -28.5500   22.8040 C   0  0  0  0  0  3  0  0  0  0  0  0
  -25.8820  -32.6850   24.1140 C   0  0  0  0  0  3  0  0  0  0  0  0
  -26.2780  -31.9460   25.4510 C   0  0  1  0  0  0  0  0  0  0  0  0
  -25.0830  -31.6910   26.3980 C   0  0  0  0  0  1  0  0  0  0  0  0
  -26.9410  -30.5840   25.1440 C   0  0  0  0  0  1  0  0  0  0  0  0
  -27.3260  -32.7850   26.2220 C   0  0  0  0  0  1  0  0  0  0  0  0
  -25.5290  -34.0850   24.3780 N   0  0  0  0  0  0  0  0  0  0  0  0
  -25.9000  -35.1200   23.6110 C   0  0  0  0  0  0  0  0  0  0  0  0
  -26.6450  -34.9960   22.6350 O   0  0  0  0  0  0  0  0  0  0  0  0
  -24.8780  -34.2550   25.1300 H   0  0  0  0  0  0  0  0  0  0  0  0
  -24.1680  -36.8620   23.0790 C   0  0  0  0  0  1  0  0  0  0  0  0
  -25.3580  -36.5120   23.9860 C   0  0  0  0  0  3  0  0  0  0  0  0
  -27.4130  -37.4690   24.9280 C   0  0  0  0  0  1  0  0  0  0  0  0
  -26.3770  -37.5810   23.9050 N   0  0  0  0  0  0  0  0  0  0  0  0
  -25.9450  -38.4980   23.9910 H   0  0  0  0  0  0  0  0  0  0  0  0
  -27.9750  -22.2220   20.6720 C   0  0  0  0  0  2  0  0  0  0  0  0
  -29.0580  -21.1250   20.6030 C   0  0  0  0  0  2  0  0  0  0  0  0
  -28.4800  -19.6950   20.7390 C   0  0  0  0  0  2  0  0  0  0  0  0
  -31.2850  -14.7070   19.9490 C   0  0  0  0  0  0  0  0  0  0  0  0
  -30.9600  -12.4430   19.0430 C   0  0  0  0  0  2  0  0  0  0  0  0
  -29.9770  -12.5070   17.8580 C   0  0  0  0  0  2  0  0  0  0  0  0
  -28.5230  -12.3860   18.3540 C   0  0  0  0  0  2  0  0  0  0  0  0
  -28.2090  -13.3440   19.5340 C   0  0  0  0  0  3  0  0  0  0  0  0
  -29.3070  -13.2720   20.6160 C   0  0  0  0  0  2  0  0  0  0  0  0
  -30.6010  -13.5300   19.9670 N   0  0  0  0  0  0  0  0  0  0  0  0
  -32.4090  -14.8040   19.4430 O   0  0  0  0  0  0  0  0  0  0  0  0
  -29.6340  -17.9810   19.2360 C   0  0  0  0  0  2  0  0  0  0  0  0
  -29.3290  -17.4260   21.6420 C   0  0  0  0  0  2  0  0  0  0  0  0
  -30.7320  -16.9080   19.1610 C   0  0  0  0  0  2  0  0  0  0  0  0
  -30.4550  -16.3720   21.5260 C   0  0  0  0  0  2  0  0  0  0  0  0
  -29.5480  -18.5820   20.6460 C   0  0  0  0  0  3  0  0  0  0  0  0
  -30.5550  -15.8320   20.1590 N   0  0  0  0  0  0  0  0  0  0  0  0
  -25.8870  -13.9870   20.4360 C   0  0  0  0  0  0  0  0  0  0  0  0
  -24.8210  -13.2310   20.8430 C   0  0  0  0  0  0  0  0  0  0  0  0
  -25.2350  -11.8680   20.7210 C   0  0  0  0  0  0  0  0  0  0  0  0
  -26.8850  -13.0870   20.0950 N   0  0  0  0  0  0  0  0  0  0  0  0
  -26.4990  -11.8050   20.3240 N   0  0  0  0  0  0  0  0  0  0  0  0
  -24.4830  -10.6210   20.9050 C   0  0  0  0  0  0  0  0  0  0  0  0
  -24.8690   -9.6590   21.8660 C   0  0  0  0  0  3  0  0  0  0  0  0
  -24.1180   -8.4770   22.0360 C   0  0  0  0  0  3  0  0  0  0  0  0
  -22.9680   -8.2450   21.2450 C   0  0  0  0  0  0  0  0  0  0  0  0
  -22.6010   -9.1940   20.2750 C   0  0  0  0  0  3  0  0  0  0  0  0
  -23.3520  -10.3680   20.1030 C   0  0  0  0  0  3  0  0  0  0  0  0
  -22.1930   -7.1130   21.3240 O   0  0  0  0  0  0  0  0  0  0  0  0
  -21.9820   -6.4650   22.5150 C   0  0  0  0  0  0  0  0  0  0  0  0
  -21.4270   -7.1250   23.6330 C   0  0  0  0  0  3  0  0  0  0  0  0
  -21.1630   -6.4050   24.8150 C   0  0  0  0  0  3  0  0  0  0  0  0
  -21.4430   -5.0270   24.8790 C   0  0  0  0  0  0  0  0  0  0  0  0
  -21.9910   -4.3670   23.7640 C   0  0  0  0  0  3  0  0  0  0  0  0
  -22.2560   -5.0850   22.5850 C   0  0  0  0  0  0  0  0  0  0  0  0
  -22.7640   -4.4410   21.5070 F   0  0  0  0  0  0  0  0  0  0  0  0
  -21.1830   -4.3320   26.0120 F   0  0  0  0  0  0  0  0  0  0  0  0
  -23.4620  -13.7360   21.2300 C   0  0  0  0  0  0  0  0  0  0  0  0
  -22.7880  -13.0440   22.1430 N   0  0  0  0  0  0  0  0  0  0  0  0
  -23.0080  -14.7790   20.7590 O   0  0  0  0  0  0  0  0  0  0  0  0
  -23.1690  -12.2000   22.5450 H   0  0  0  0  0  0  0  0  0  0  0  0
  -21.8790  -13.3640   22.4440 H   0  0  0  0  0  0  0  0  0  0  0  0
  -26.0860  -15.3580   20.3100 N   0  0  0  0  0  0  0  0  0  0  0  0
  -25.3560  -16.0340   20.5090 H   0  0  0  0  0  0  0  0  0  0  0  0
  -26.9420  -15.7850   19.9780 H   0  0  0  0  0  0  0  0  0  0  0  0
  1  2  1  0
  3  1  2  0
  4  7  1  0
  4  2  2  0
  5  6  2  0
  5  3  1  0
  6  4  1  0
  8  5  1  0
  9  6  1  0
 10 21  2  0
 11  9  1  0
 11 16  1  0
 12 20  1  0
 12 22  1  0
 13 15  1  0
 14 20  1  0
 15 16  2  0
 15 14  1  0
 17 11  2  0
 18 17  1  0
 18 13  2  0
 19 13  1  0
 19 12  1  0
 20 10  1  0
 22 24  2  0
 23 22  1  0
 25 23  1  0
 26 35  2  0
 26 31  1  0
 27 23  1  0
 27 31  1  0
 28 27  1  0
 29 30  1  0
 29 28  1  0
 30 26  1  0
 31 32  2  0
 32 33  1  0
 34 33  2  0
 35 34  1  0
 36 10  1  0
 36 41  1  0
 36 37  1  0
 37 40  1  1
 37 38  1  0
 39 37  1  0
 41 44  1  0
 42 46  1  0
 42 41  1  0
 43 42  2  0
 46 45  1  0
 48 46  1  0
 48 49  1  0
 48 47  1  0
 50  3  1  0
 51 50  1  0
 51 52  1  0
 53 59  1  0
 53 66  1  0
 54 59  1  0
 55 56  1  0
 55 54  1  0
 57 56  1  0
 57 70  1  0
 57 58  1  0
 59 58  1  0
 60 53  2  0
 61 65  1  0
 63 61  1  0
 63 66  1  0
 64 62  1  0
 65 52  1  0
 65 62  1  0
 66 64  1  0
 67 68  2  0
 68 87  1  0
 69 68  1  0
 69 72  1  0
 70 71  1  0
 70 67  1  0
 71 69  2  0
 72 73  1  0
 73 74  2  0
 75 78  1  0
 75 74  1  0
 76 75  2  0
 77 76  1  0
 77 72  2  0
 78 79  1  0
 79 84  2  0
 79 80  1  0
 80 81  2  0
 81 82  1  0
 82 86  1  0
 83 82  2  0
 84 83  1  0
 85 84  1  0
 87 88  1  0
 88 91  1  0
 88 90  1  0
 89 87  2  0
 92 67  1  0
 92 93  1  0
 94 92  1  0
M  ISO  4   6 101   9 101  53 100  66 100
M  END
>  <TORSDO>  (53) 
F 19

>  <SCORE>  (53) 
-12.933

>  <name>  (53) 
52

>  <ligand_id>  (53) 
52

>  <original_smiles>  (53) 
[H]c1c([H])c([H])c2c(c1[H])C([H])([H])C([H])([H])C([H])([H])C2([H])N([H])C(=O)C1([H])N(C(=O)C([H])(N([H])C(=O)C([H])(N([H])C([H])([H])[H])C([H])([H])[H])C(C([H])([H])[H])(C([H])([H])[H])C([H])([H])[H])C([H])([H])c2c([H])c(Oc3c(C([H])([H])[H])c([H])c([H])c(C([H])([H])C([H])([H])C([H])([H])C4([H])C([H])([H])C([H])([H])N(C(=O)N5C([H])([H])C([H])([H])C([H])([H])C([H])(n6nc(-c7c([H])c([H])c(Oc8c([H])c([H])c(F)c([H])c8F)c([H])c7[H])c(C(=O)N([H])[H])c6N([H])[H])C5([H])[H])C([H])([H])C4([H])[H])c3C([H])([H])[H])c([H])c([H])c2C1([H])[H]

>  <smiles>  (53) 
[H]c1c([H])c([H])c2c(c1[H])C([H])([H])C([H])([H])C([H])([H])C2([H])N([H])C(=O)C1([H])N(C(=O)C([H])(N([H])C(=O)C([H])(N([H])C([H])([H])[H])C([H])([H])[H])C(C([H])([H])[H])(C([H])([H])[H])C([H])([H])[H])C([H])([H])c2c([H])c(Oc3c(C([H])([H])[H])c([H])c([H])c(C([H])([H])C([H])([H])C([H])([H])C4([H])C([H])([H])C([H])([H])N(C(=O)N5C([H])([H])C([H])([H])C([H])([H])C([H])(n6nc(-c7c([H])c([H])c(Oc8c([H])c([H])c(F)c([H])c8F)c([H])c7[H])c(C(=O)N([H])[H])c6N([H])[H])C5([H])[H])C([H])([H])C4([H])[H])c3C([H])([H])[H])c([H])c([H])c2C1([H])[H]

$$$$
53:0:0
     RDKit          3D

 92101  0  0  1  0  0  0  0  0999 V2000
  -30.4240  -17.7100   21.4300 C   0  0  0  0  0  3  0  0  0  0  0  0
  -29.0070  -21.0640   20.0710 C   0  0  0  0  0  3  0  0  0  0  0  0
  -30.2380  -21.5480   22.0330 C   0  0  0  0  0  3  0  0  0  0  0  0
  -30.0900  -19.1360   21.3020 C   0  0  0  0  0  0  0  0  0  0  0  0
  -29.2950  -19.6140   20.2270 C   0  0  0  0  0  0  0  0  0  0  0  0
  -30.0010  -16.6520   20.5350 C   0  0  0  0  0  0  0  0  0  0  0  0
  -29.4630  -22.1110   20.9670 C   0  0  0  0  0  0  0  0  0  0  0  0
  -30.5530  -20.1510   22.2040 C   0  0  0  0  0  0  0  0  0  0  0  0
  -28.8480  -18.5910   19.3190 C   0  0  0  0  0  0  0  0  0  0  0  0
  -29.2240  -17.1790   19.4340 C   0  0  0  0  0  0  0  0  0  0  0  0
  -31.4290  -19.7630   23.3920 C   0  0  0  0  0  1  0  0  0  0  0  0
  -27.9470  -19.0750   18.1800 C   0  0  0  0  0  1  0  0  0  0  0  0
  -28.8830  -16.2230   18.2870 C   0  0  0  0  0  1  0  0  0  0  0  0
  -30.6190  -15.1560   20.5720 C   0  0  0  0  0  0  0  0  0  0  0  0
  -30.4330  -12.8050   19.6470 C   0  0  0  0  0  2  0  0  0  0  0  0
  -29.5540  -12.7260   18.3780 C   0  0  0  0  0  2  0  0  0  0  0  0
  -28.0630  -12.5920   18.7400 C   0  0  0  0  0  2  0  0  0  0  0  0
  -27.6270  -13.5030   19.9220 C   0  0  0  0  0  3  0  0  0  0  0  0
  -28.6500  -13.5600   21.0690 C   0  0  0  0  0  2  0  0  0  0  0  0
  -29.9460  -13.9340   20.4930 N   0  0  0  0  0  0  0  0  0  0  0  0
  -31.8400  -15.1030   20.4200 O   0  0  0  0  0  0  0  0  0  0  0  0
  -25.2230  -14.0610   20.5830 C   0  0  0  0  0  0  0  0  0  0  0  0
  -24.1540  -13.2760   20.9140 C   0  0  0  0  0  0  0  0  0  0  0  0
  -24.6350  -11.9320   20.9100 C   0  0  0  0  0  0  0  0  0  0  0  0
  -26.2830  -13.1910   20.3880 N   0  0  0  0  0  0  0  0  0  0  0  0
  -25.9360  -11.9070   20.6560 N   0  0  0  0  0  0  0  0  0  0  0  0
  -23.9160  -10.6610   21.0770 C   0  0  0  0  0  0  0  0  0  0  0  0
  -24.3150   -9.7040   22.0370 C   0  0  0  0  0  3  0  0  0  0  0  0
  -23.5890   -8.5030   22.1950 C   0  0  0  0  0  3  0  0  0  0  0  0
  -22.4510   -8.2510   21.3930 C   0  0  0  0  0  0  0  0  0  0  0  0
  -22.0730   -9.1960   20.4220 C   0  0  0  0  0  3  0  0  0  0  0  0
  -22.7990  -10.3880   20.2620 C   0  0  0  0  0  3  0  0  0  0  0  0
  -21.7010   -7.1010   21.4580 O   0  0  0  0  0  0  0  0  0  0  0  0
  -21.6070   -6.3660   22.6140 C   0  0  0  0  0  0  0  0  0  0  0  0
  -21.0650   -6.9080   23.7990 C   0  0  0  0  0  3  0  0  0  0  0  0
  -20.9230   -6.0980   24.9430 C   0  0  0  0  0  3  0  0  0  0  0  0
  -21.3140   -4.7470   24.9020 C   0  0  0  0  0  0  0  0  0  0  0  0
  -21.8510   -4.2040   23.7230 C   0  0  0  0  0  3  0  0  0  0  0  0
  -21.9950   -5.0120   22.5800 C   0  0  0  0  0  0  0  0  0  0  0  0
  -22.4910   -4.4780   21.4380 F   0  0  0  0  0  0  0  0  0  0  0  0
  -21.1740   -3.9650   25.9990 F   0  0  0  0  0  0  0  0  0  0  0  0
  -22.7410  -13.7400   21.1210 C   0  0  0  0  0  0  0  0  0  0  0  0
  -21.9890  -13.0480   21.9720 N   0  0  0  0  0  0  0  0  0  0  0  0
  -22.3150  -14.7510   20.5690 O   0  0  0  0  0  0  0  0  0  0  0  0
  -22.3540  -12.2330   22.4430 H   0  0  0  0  0  0  0  0  0  0  0  0
  -21.0390  -13.3420   22.1550 H   0  0  0  0  0  0  0  0  0  0  0  0
  -25.3790  -15.4330   20.4030 N   0  0  0  0  0  0  0  0  0  0  0  0
  -24.6070  -16.0830   20.4970 H   0  0  0  0  0  0  0  0  0  0  0  0
  -26.2460  -15.8870   20.1470 H   0  0  0  0  0  0  0  0  0  0  0  0
  -29.3850  -23.7770   20.8550 C   0  0  0  0  0  3  0  0  0  0  0  0
  -28.2310  -24.8590   20.2660 C   0  0  0  0  0  3  0  0  0  0  0  0
  -28.3580  -26.4100   20.3930 O   0  0  0  0  0  0  0  0  0  0  0  0
  -24.5680  -31.9870   23.2990 C   0  0  0  0  0  0  0  0  0  0  0  0
  -27.2600  -27.3420   20.2910 C   0  0  0  0  0  0  0  0  0  0  0  0
  -23.3940  -30.5660   21.6560 C   0  0  0  0  0  3  0  0  0  0  0  0
  -24.8780  -29.0210   20.2310 C   0  0  0  0  0  0  0  0  0  0  0  0
  -25.9350  -30.8950   21.4840 C   0  0  0  0  0  2  0  0  0  0  0  0
  -26.0430  -29.5020   20.8410 C   0  0  0  0  0  0  0  0  0  0  0  0
  -27.2290  -28.6770   20.8560 C   0  0  0  0  0  3  0  0  0  0  0  0
  -26.0760  -26.9620   19.6200 C   0  0  0  0  0  3  0  0  0  0  0  0
  -24.9100  -27.7670   19.5960 C   0  0  0  0  0  3  0  0  0  0  0  0
  -23.6300  -29.8900   20.2770 C   0  0  0  0  0  2  0  0  0  0  0  0
  -24.6520  -31.1700   22.2040 N   0  0  0  0  0  0  0  0  0  0  0  0
  -23.4770  -32.2480   23.8290 O   0  0  0  0  0  0  0  0  0  0  0  0
  -22.7340  -29.5490   22.6200 C   0  0  0  0  0  0  0  0  0  0  0  0
  -21.4130  -29.3380   22.4810 N   0  0  0  0  0  0  0  0  0  0  0  0
  -23.4120  -28.9520   23.4580 O   0  0  0  0  0  0  0  0  0  0  0  0
  -20.9220  -29.8680   21.7740 H   0  0  0  0  0  0  0  0  0  0  0  0
  -18.0680  -28.0300   22.9410 C   0  0  0  0  0  0  0  0  0  0  0  0
  -20.6120  -28.3810   23.2500 C   0  0  0  0  0  3  0  0  0  0  0  0
  -20.7740  -26.9500   22.6920 C   0  0  0  0  0  2  0  0  0  0  0  0
  -19.7040  -26.5790   21.6640 C   0  0  0  0  0  2  0  0  0  0  0  0
  -18.3060  -26.6810   22.2820 C   0  0  0  0  0  2  0  0  0  0  0  0
  -19.1530  -28.8330   23.3830 C   0  0  0  0  0  0  0  0  0  0  0  0
  -18.8820  -30.0890   23.9680 C   0  0  0  0  0  3  0  0  0  0  0  0
  -17.5590  -30.5490   24.1100 C   0  0  0  0  0  3  0  0  0  0  0  0
  -16.4880  -29.7420   23.6870 C   0  0  0  0  0  3  0  0  0  0  0  0
  -16.7420  -28.4840   23.1120 C   0  0  0  0  0  3  0  0  0  0  0  0
  -25.8320  -32.6480   23.9280 C   0  0  0  0  0  3  0  0  0  0  0  0
  -25.5130  -34.0560   24.2050 N   0  0  0  0  0  0  0  0  0  0  0  0
  -25.8220  -35.0830   23.4010 C   0  0  0  0  0  0  0  0  0  0  0  0
  -26.4770  -34.9480   22.3640 O   0  0  0  0  0  0  0  0  0  0  0  0
  -24.9260  -34.2330   25.0070 H   0  0  0  0  0  0  0  0  0  0  0  0
  -24.0610  -36.8430   23.0340 C   0  0  0  0  0  1  0  0  0  0  0  0
  -25.3340  -36.4860   23.8170 C   0  0  0  0  0  3  0  0  0  0  0  0
  -27.4750  -37.4480   24.5420 C   0  0  0  0  0  1  0  0  0  0  0  0
  -26.3480  -37.5460   23.6180 N   0  0  0  0  0  0  0  0  0  0  0  0
  -25.9340  -38.4670   23.7280 H   0  0  0  0  0  0  0  0  0  0  0  0
  -26.3180  -31.9260   25.2430 C   0  0  1  0  0  0  0  0  0  0  0  0
  -25.1990  -31.7140   26.2910 C   0  0  0  0  0  1  0  0  0  0  0  0
  -26.9170  -30.5410   24.9140 C   0  0  0  0  0  1  0  0  0  0  0  0
  -27.4510  -32.7430   25.9060 C   0  0  0  0  0  1  0  0  0  0  0  0
  2  5  2  0
  2  7  1  0
  3  8  1  0
  4  1  1  0
  4  8  2  0
  5  4  1  0
  6 14  1  0
  6  1  2  0
  7  3  2  0
  8 11  1  0
  9 10  2  0
  9  5  1  0
 10  6  1  0
 12  9  1  0
 13 10  1  0
 15 20  1  0
 16 17  1  0
 16 15  1  0
 18 17  1  0
 18 25  1  0
 18 19  1  0
 20 14  1  0
 20 19  1  0
 21 14  2  0
 22 23  2  0
 23 42  1  0
 24 23  1  0
 24 27  1  0
 25 22  1  0
 25 26  1  0
 26 24  2  0
 27 28  1  0
 28 29  2  0
 30 33  1  0
 30 29  1  0
 31 30  2  0
 32 31  1  0
 32 27  2  0
 33 34  1  0
 34 35  1  0
 35 36  2  0
 37 36  1  0
 37 41  1  0
 38 37  2  0
 39 34  2  0
 39 38  1  0
 40 39  1  0
 42 43  1  0
 43 46  1  0
 43 45  1  0
 44 42  2  0
 47 48  1  0
 47 22  1  0
 49 47  1  0
 50  7  1  0
 51 52  1  0
 51 50  2  0
 53 64  2  0
 54 52  1  0
 54 59  1  0
 55 63  1  0
 55 65  1  0
 56 62  1  0
 56 58  1  0
 57 63  1  0
 58 59  2  0
 58 57  1  0
 60 54  2  0
 61 60  1  0
 61 56  2  0
 62 55  1  0
 63 53  1  0
 65 67  2  0
 66 65  1  0
 68 66  1  0
 69 78  2  0
 69 74  1  0
 70 66  1  0
 70 74  1  0
 71 70  1  0
 72 73  1  0
 72 71  1  0
 73 69  1  0
 74 75  2  0
 75 76  1  0
 77 76  2  0
 78 77  1  0
 79 53  1  0
 79 80  1  0
 79 89  1  0
 80 83  1  0
 81 85  1  0
 81 80  1  0
 82 81  2  0
 85 84  1  0
 87 88  1  0
 87 85  1  0
 87 86  1  0
 89 92  1  1
 89 90  1  0
 91 89  1  0
M  ISO  4   6 100  14 100  51 101  52 101
M  END
>  <TORSDO>  (54) 
F 18

>  <SCORE>  (54) 
-14.116

>  <name>  (54) 
53

>  <ligand_id>  (54) 
53

>  <original_smiles>  (54) 
[H]c1c([H])c([H])c2c(c1[H])C([H])([H])C([H])([H])C([H])([H])C2([H])N([H])C(=O)C1([H])N(C(=O)C([H])(N([H])C(=O)C([H])(N([H])C([H])([H])[H])C([H])([H])[H])C(C([H])([H])[H])(C([H])([H])[H])C([H])([H])[H])C([H])([H])c2c([H])c(OC([H])([H])C([H])([H])c3c([H])c(C([H])([H])[H])c4c([H])c(C(=O)N5C([H])([H])C([H])([H])C([H])([H])C([H])(n6nc(-c7c([H])c([H])c(Oc8c([H])c([H])c(F)c([H])c8F)c([H])c7[H])c(C(=O)N([H])[H])c6N([H])[H])C5([H])[H])c(C([H])([H])[H])c(C([H])([H])[H])c4c3[H])c([H])c([H])c2C1([H])[H]

>  <smiles>  (54) 
[H]c1c([H])c([H])c2c(c1[H])C([H])([H])C([H])([H])C([H])([H])C2([H])N([H])C(=O)C1([H])N(C(=O)C([H])(N([H])C(=O)C([H])(N([H])C([H])([H])[H])C([H])([H])[H])C(C([H])([H])[H])(C([H])([H])[H])C([H])([H])[H])C([H])([H])c2c([H])c(OC([H])([H])C([H])([H])c3c([H])c(C([H])([H])[H])c4c([H])c(C(=O)N5C([H])([H])C([H])([H])C([H])([H])C([H])(n6nc(-c7c([H])c([H])c(Oc8c([H])c([H])c(F)c([H])c8F)c([H])c7[H])c(C(=O)N([H])[H])c6N([H])[H])C5([H])[H])c(C([H])([H])[H])c(C([H])([H])[H])c4c3[H])c([H])c([H])c2C1([H])[H]

$$$$
54:0:0
     RDKit          3D

 86 93  0  0  1  0  0  0  0  0999 V2000
  -29.0070  -23.4420   20.3670 C   0  0  0  0  0  3  0  0  0  0  0  0
  -29.5340  -23.5870   21.5850 F   0  0  0  0  0  0  0  0  0  0  0  0
  -28.5680  -21.8270   20.2620 C   0  0  0  0  0  3  0  0  0  0  0  0
  -29.5960  -20.5110   20.3810 C   0  0  0  0  0  3  0  0  0  0  0  0
  -29.1340  -18.9010   20.3920 C   0  0  0  0  0  3  0  0  0  0  0  0
  -30.1990  -17.6120   20.4070 C   0  0  0  0  0  3  0  0  0  0  0  0
  -30.5470  -14.9250   20.3460 C   0  0  0  0  0  0  0  0  0  0  0  0
  -30.4020  -12.5970   19.3870 C   0  0  0  0  0  2  0  0  0  0  0  0
  -29.4710  -12.5850   18.1540 C   0  0  0  0  0  2  0  0  0  0  0  0
  -28.0040  -12.3870   18.5810 C   0  0  0  0  0  2  0  0  0  0  0  0
  -27.6020  -13.3000   19.7690 C   0  0  0  0  0  3  0  0  0  0  0  0
  -28.6570  -13.2860   20.8970 C   0  0  0  0  0  2  0  0  0  0  0  0
  -29.9350  -13.6800   20.2930 N   0  0  0  0  0  0  0  0  0  0  0  0
  -31.7460  -14.9940   20.0570 O   0  0  0  0  0  0  0  0  0  0  0  0
  -29.7850  -16.1030   20.5080 N   0  0  0  0  0  0  0  0  0  0  0  0
  -28.8090  -15.9380   20.7010 H   0  0  0  0  0  0  0  0  0  0  0  0
  -25.2130  -13.8670   20.4930 C   0  0  0  0  0  0  0  0  0  0  0  0
  -24.1510  -13.0860   20.8600 C   0  0  0  0  0  0  0  0  0  0  0  0
  -24.6250  -11.7380   20.8370 C   0  0  0  0  0  0  0  0  0  0  0  0
  -26.2630  -12.9960   20.2620 N   0  0  0  0  0  0  0  0  0  0  0  0
  -25.9180  -11.7110   20.5350 N   0  0  0  0  0  0  0  0  0  0  0  0
  -23.9060  -10.4710   21.0250 C   0  0  0  0  0  0  0  0  0  0  0  0
  -24.3350   -9.5120   21.9690 C   0  0  0  0  0  3  0  0  0  0  0  0
  -23.6150   -8.3100   22.1460 C   0  0  0  0  0  3  0  0  0  0  0  0
  -22.4520   -8.0600   21.3790 C   0  0  0  0  0  0  0  0  0  0  0  0
  -22.0440   -9.0080   20.4240 C   0  0  0  0  0  3  0  0  0  0  0  0
  -22.7650  -10.2000   20.2450 C   0  0  0  0  0  3  0  0  0  0  0  0
  -21.7040   -6.9110   21.4640 O   0  0  0  0  0  0  0  0  0  0  0  0
  -21.6410   -6.1780   22.6220 C   0  0  0  0  0  0  0  0  0  0  0  0
  -21.1830   -6.7370   23.8340 C   0  0  0  0  0  3  0  0  0  0  0  0
  -21.0690   -5.9310   24.9840 C   0  0  0  0  0  3  0  0  0  0  0  0
  -21.4030   -4.5640   24.9220 C   0  0  0  0  0  0  0  0  0  0  0  0
  -21.8540   -4.0040   23.7140 C   0  0  0  0  0  3  0  0  0  0  0  0
  -21.9700   -4.8090   22.5670 C   0  0  0  0  0  0  0  0  0  0  0  0
  -22.3850   -4.2590   21.4000 F   0  0  0  0  0  0  0  0  0  0  0  0
  -21.2860   -3.7860   26.0230 F   0  0  0  0  0  0  0  0  0  0  0  0
  -22.7490  -13.5530   21.1200 C   0  0  0  0  0  0  0  0  0  0  0  0
  -22.0230  -12.8580   21.9880 N   0  0  0  0  0  0  0  0  0  0  0  0
  -22.3060  -14.5720   20.5890 O   0  0  0  0  0  0  0  0  0  0  0  0
  -22.3960  -12.0360   22.4390 H   0  0  0  0  0  0  0  0  0  0  0  0
  -21.0810  -13.1540   22.2050 H   0  0  0  0  0  0  0  0  0  0  0  0
  -25.3660  -15.2390   20.3100 N   0  0  0  0  0  0  0  0  0  0  0  0
  -24.5890  -15.8840   20.4090 H   0  0  0  0  0  0  0  0  0  0  0  0
  -26.2050  -15.6820   19.9580 H   0  0  0  0  0  0  0  0  0  0  0  0
  -27.9570  -24.7260   20.1430 C   0  0  0  0  0  2  0  0  0  0  0  0
  -28.2520  -26.2430   20.2560 O   0  0  0  0  0  0  0  0  0  0  0  0
  -24.6400  -31.8990   23.2530 C   0  0  0  0  0  0  0  0  0  0  0  0
  -27.1880  -27.2100   20.1970 C   0  0  0  0  0  0  0  0  0  0  0  0
  -23.4270  -30.5160   21.6130 C   0  0  0  0  0  3  0  0  0  0  0  0
  -24.8620  -28.9440   20.1790 C   0  0  0  0  0  0  0  0  0  0  0  0
  -25.9810  -30.7750   21.4410 C   0  0  0  0  0  2  0  0  0  0  0  0
  -26.0450  -29.3900   20.7820 C   0  0  0  0  0  0  0  0  0  0  0  0
  -27.2100  -28.5400   20.7720 C   0  0  0  0  0  3  0  0  0  0  0  0
  -25.9760  -26.8560   19.5610 C   0  0  0  0  0  3  0  0  0  0  0  0
  -24.8400  -27.6900   19.5530 C   0  0  0  0  0  3  0  0  0  0  0  0
  -23.6380  -29.8420   20.2310 C   0  0  0  0  0  2  0  0  0  0  0  0
  -24.7020  -31.0850   22.1570 N   0  0  0  0  0  0  0  0  0  0  0  0
  -23.5570  -32.1870   23.7860 O   0  0  0  0  0  0  0  0  0  0  0  0
  -22.7490  -29.5070   22.5740 C   0  0  0  0  0  0  0  0  0  0  0  0
  -21.4220  -29.3340   22.4450 N   0  0  0  0  0  0  0  0  0  0  0  0
  -23.4190  -28.8830   23.4010 O   0  0  0  0  0  0  0  0  0  0  0  0
  -20.9380  -29.8910   21.7540 H   0  0  0  0  0  0  0  0  0  0  0  0
  -18.0410  -28.1230   22.9290 C   0  0  0  0  0  0  0  0  0  0  0  0
  -20.5980  -28.3980   23.2140 C   0  0  0  0  0  3  0  0  0  0  0  0
  -20.7090  -26.9620   22.6500 C   0  0  0  0  0  2  0  0  0  0  0  0
  -19.6160  -26.6290   21.6290 C   0  0  0  0  0  2  0  0  0  0  0  0
  -18.2290  -26.7710   22.2620 C   0  0  0  0  0  2  0  0  0  0  0  0
  -19.1530  -28.8950   23.3620 C   0  0  0  0  0  0  0  0  0  0  0  0
  -18.9240  -30.1590   23.9460 C   0  0  0  0  0  3  0  0  0  0  0  0
  -17.6150  -30.6520   24.1030 C   0  0  0  0  0  3  0  0  0  0  0  0
  -16.5170  -29.8800   23.6840 C   0  0  0  0  0  3  0  0  0  0  0  0
  -16.7320  -28.6170   23.1030 C   0  0  0  0  0  3  0  0  0  0  0  0
  -25.9240  -32.5260   23.8780 C   0  0  0  0  0  3  0  0  0  0  0  0
  -25.6180  -33.9240   24.2150 N   0  0  0  0  0  0  0  0  0  0  0  0
  -25.9290  -34.9810   23.4530 C   0  0  0  0  0  0  0  0  0  0  0  0
  -26.5720  -34.8820   22.4050 O   0  0  0  0  0  0  0  0  0  0  0  0
  -25.0420  -34.0760   25.0310 H   0  0  0  0  0  0  0  0  0  0  0  0
  -24.1780  -36.7690   23.1740 C   0  0  0  0  0  1  0  0  0  0  0  0
  -25.4550  -36.3690   23.9300 C   0  0  0  0  0  3  0  0  0  0  0  0
  -27.6190  -37.2700   24.6650 C   0  0  0  0  0  1  0  0  0  0  0  0
  -26.4760  -37.4280   23.7700 N   0  0  0  0  0  0  0  0  0  0  0  0
  -26.0700  -38.3460   23.9330 H   0  0  0  0  0  0  0  0  0  0  0  0
  -26.4340  -31.7500   25.1550 C   0  0  1  0  0  0  0  0  0  0  0  0
  -25.3390  -31.5240   26.2240 C   0  0  0  0  0  1  0  0  0  0  0  0
  -27.0060  -30.3670   24.7700 C   0  0  0  0  0  1  0  0  0  0  0  0
  -27.5880  -32.5380   25.8170 C   0  0  0  0  0  1  0  0  0  0  0  0
  1  2  1  0
  3  1  1  0
  3  4  2  0
  4  5  1  0
  5  6  2  0
  6 15  1  0
  7 15  1  0
  8 13  1  0
  9 10  1  0
  9  8  1  0
 11 10  1  0
 11 20  1  0
 11 12  1  0
 13  7  1  0
 13 12  1  0
 14  7  2  0
 15 16  1  0
 17 18  2  0
 18 37  1  0
 19 18  1  0
 19 22  1  0
 20 17  1  0
 20 21  1  0
 21 19  2  0
 22 23  1  0
 23 24  2  0
 25 28  1  0
 25 24  1  0
 26 25  2  0
 27 26  1  0
 27 22  2  0
 28 29  1  0
 29 30  1  0
 30 31  2  0
 32 31  1  0
 32 36  1  0
 33 32  2  0
 34 29  2  0
 34 33  1  0
 35 34  1  0
 37 38  1  0
 38 41  1  0
 38 40  1  0
 39 37  2  0
 42 43  1  0
 42 17  1  0
 44 42  1  0
 45 46  1  0
 45  1  1  0
 47 58  2  0
 48 46  1  0
 48 53  1  0
 49 57  1  0
 49 59  1  0
 50 56  1  0
 50 52  1  0
 51 57  1  0
 52 51  1  0
 53 52  2  0
 54 48  2  0
 55 54  1  0
 55 50  2  0
 56 49  1  0
 57 47  1  0
 59 61  2  0
 60 59  1  0
 62 60  1  0
 63 72  2  0
 63 68  1  0
 64 60  1  0
 64 68  1  0
 65 64  1  0
 66 67  1  0
 66 65  1  0
 67 63  1  0
 68 69  2  0
 69 70  1  0
 71 70  2  0
 72 71  1  0
 73 47  1  0
 73 74  1  0
 73 83  1  0
 74 77  1  0
 75 79  1  0
 75 74  1  0
 76 75  2  0
 79 78  1  0
 81 79  1  0
 81 82  1  0
 81 80  1  0
 83 86  1  1
 83 84  1  0
 85 83  1  0
M  ISO  4   7 100  15 100  45 101  46 101
M  END
>  <TORSDO>  (55) 
F 21

>  <SCORE>  (55) 
-13.225

>  <name>  (55) 
54

>  <ligand_id>  (55) 
54

>  <original_smiles>  (55) 
[H]c1c([H])c([H])c2c(c1[H])C([H])([H])C([H])([H])C([H])([H])C2([H])N([H])C(=O)C1([H])N(C(=O)C([H])(N([H])C(=O)C([H])(N([H])C([H])([H])[H])C([H])([H])[H])C(C([H])([H])[H])(C([H])([H])[H])C([H])([H])[H])C([H])([H])c2c([H])c(OC([H])([H])C([H])(F)C([H])([H])C([H])([H])C([H])([H])C([H])([H])N([H])C(=O)N3C([H])([H])C([H])([H])C([H])([H])C([H])(n4nc(-c5c([H])c([H])c(Oc6c([H])c([H])c(F)c([H])c6F)c([H])c5[H])c(C(=O)N([H])[H])c4N([H])[H])C3([H])[H])c([H])c([H])c2C1([H])[H]

>  <smiles>  (55) 
[H]c1c([H])c([H])c2c(c1[H])C([H])([H])C([H])([H])C([H])([H])C2([H])N([H])C(=O)C1([H])N(C(=O)C([H])(N([H])C(=O)C([H])(N([H])C([H])([H])[H])C([H])([H])[H])C(C([H])([H])[H])(C([H])([H])[H])C([H])([H])[H])C([H])([H])c2c([H])c(OC([H])([H])C([H])(F)C([H])([H])C([H])([H])C([H])([H])C([H])([H])N([H])C(=O)N3C([H])([H])C([H])([H])C([H])([H])C([H])(n4nc(-c5c([H])c([H])c(Oc6c([H])c([H])c(F)c([H])c6F)c([H])c5[H])c(C(=O)N([H])[H])c4N([H])[H])C3([H])[H])c([H])c([H])c2C1([H])[H]

$$$$
55:0:0
     RDKit          3D

 92100  0  0  1  0  0  0  0  0999 V2000
  -28.5770  -24.2240   21.4280 C   0  0  0  0  0  3  0  0  0  0  0  0
  -28.9020  -22.8120   21.4840 C   0  0  0  0  0  0  0  0  0  0  0  0
  -28.9780  -21.9590   20.3300 C   0  0  0  0  0  0  0  0  0  0  0  0
  -28.5920  -22.6580   19.1240 C   0  0  0  0  0  0  0  0  0  0  0  0
  -28.2710  -24.0890   19.0830 C   0  0  0  0  0  0  0  0  0  0  0  0
  -28.2780  -24.9490   20.2340 C   0  0  0  0  0  0  0  0  0  0  0  0
  -29.2460  -22.2390   22.8470 C   0  0  0  0  0  1  0  0  0  0  0  0
  -27.9800  -24.7560   17.7440 C   0  0  0  0  0  1  0  0  0  0  0  0
  -27.2550  -21.0130   17.7430 C   0  0  0  0  0  1  0  0  0  0  0  0
  -28.5330  -21.8530   17.8240 C   0  0  0  0  0  2  0  0  0  0  0  0
  -28.2440  -26.4040   20.1720 O   0  0  0  0  0  0  0  0  0  0  0  0
  -24.5460  -31.9170   23.2620 C   0  0  0  0  0  0  0  0  0  0  0  0
  -27.1150  -27.2780   20.1810 C   0  0  0  0  0  0  0  0  0  0  0  0
  -23.3320  -30.5350   21.6160 C   0  0  0  0  0  3  0  0  0  0  0  0
  -24.7690  -28.9680   20.1750 C   0  0  0  0  0  0  0  0  0  0  0  0
  -25.8770  -30.8190   21.4290 C   0  0  0  0  0  2  0  0  0  0  0  0
  -25.9450  -29.4320   20.7760 C   0  0  0  0  0  0  0  0  0  0  0  0
  -27.1180  -28.6020   20.7630 C   0  0  0  0  0  3  0  0  0  0  0  0
  -25.9140  -26.8880   19.5560 C   0  0  0  0  0  3  0  0  0  0  0  0
  -24.7620  -27.7060   19.5520 C   0  0  0  0  0  3  0  0  0  0  0  0
  -23.5410  -29.8620   20.2320 C   0  0  0  0  0  2  0  0  0  0  0  0
  -24.6050  -31.1120   22.1570 N   0  0  0  0  0  0  0  0  0  0  0  0
  -23.4650  -32.1960   23.8030 O   0  0  0  0  0  0  0  0  0  0  0  0
  -22.6630  -29.5220   22.5750 C   0  0  0  0  0  0  0  0  0  0  0  0
  -21.3470  -29.2980   22.4070 N   0  0  0  0  0  0  0  0  0  0  0  0
  -23.3300  -28.9370   23.4320 O   0  0  0  0  0  0  0  0  0  0  0  0
  -20.8660  -29.8200   21.6870 H   0  0  0  0  0  0  0  0  0  0  0  0
  -18.0050  -27.9620   22.7910 C   0  0  0  0  0  0  0  0  0  0  0  0
  -20.5350  -28.3470   23.1690 C   0  0  0  0  0  3  0  0  0  0  0  0
  -20.7270  -26.9060   22.6410 C   0  0  0  0  0  2  0  0  0  0  0  0
  -19.6890  -26.5070   21.5880 C   0  0  0  0  0  2  0  0  0  0  0  0
  -18.2730  -26.6050   22.1620 C   0  0  0  0  0  2  0  0  0  0  0  0
  -19.0680  -28.7860   23.2490 C   0  0  0  0  0  0  0  0  0  0  0  0
  -18.7640  -30.0520   23.7960 C   0  0  0  0  0  3  0  0  0  0  0  0
  -17.4320  -30.4960   23.8890 C   0  0  0  0  0  3  0  0  0  0  0  0
  -16.3840  -29.6700   23.4480 C   0  0  0  0  0  3  0  0  0  0  0  0
  -16.6710  -28.4050   22.9050 C   0  0  0  0  0  3  0  0  0  0  0  0
  -25.8320  -32.5430   23.8850 C   0  0  0  0  0  3  0  0  0  0  0  0
  -26.3300  -31.7820   25.1750 C   0  0  1  0  0  0  0  0  0  0  0  0
  -25.2230  -31.5680   26.2340 C   0  0  0  0  0  1  0  0  0  0  0  0
  -26.9040  -30.3950   24.8050 C   0  0  0  0  0  1  0  0  0  0  0  0
  -27.4790  -32.5750   25.8400 C   0  0  0  0  0  1  0  0  0  0  0  0
  -25.5360  -33.9490   24.2030 N   0  0  0  0  0  0  0  0  0  0  0  0
  -25.8450  -34.9910   23.4210 C   0  0  0  0  0  0  0  0  0  0  0  0
  -26.4790  -34.8690   22.3690 O   0  0  0  0  0  0  0  0  0  0  0  0
  -24.9750  -34.1190   25.0260 H   0  0  0  0  0  0  0  0  0  0  0  0
  -24.1130  -36.7850   23.0990 C   0  0  0  0  0  1  0  0  0  0  0  0
  -25.3800  -36.3890   23.8740 C   0  0  0  0  0  3  0  0  0  0  0  0
  -27.5340  -37.2880   24.6340 C   0  0  0  0  0  1  0  0  0  0  0  0
  -26.4110  -37.4360   23.7110 N   0  0  0  0  0  0  0  0  0  0  0  0
  -26.0120  -38.3610   23.8440 H   0  0  0  0  0  0  0  0  0  0  0  0
  -29.7280  -20.4880   20.3640 C   0  0  0  0  0  2  0  0  0  0  0  0
  -29.1220  -18.9430   20.4000 C   0  0  0  0  0  3  0  0  0  0  0  0
  -30.1660  -17.6410   20.4040 C   0  0  0  0  0  3  0  0  0  0  0  0
  -30.5270  -14.9710   20.2430 C   0  0  0  0  0  0  0  0  0  0  0  0
  -30.3590  -12.6850   19.2040 C   0  0  0  0  0  2  0  0  0  0  0  0
  -29.3830  -12.7220   18.0070 C   0  0  0  0  0  2  0  0  0  0  0  0
  -27.9330  -12.5020   18.4780 C   0  0  0  0  0  2  0  0  0  0  0  0
  -27.5710  -13.3650   19.7180 C   0  0  0  0  0  3  0  0  0  0  0  0
  -28.6660  -13.3120   20.8050 C   0  0  0  0  0  2  0  0  0  0  0  0
  -29.9210  -13.7270   20.1690 N   0  0  0  0  0  0  0  0  0  0  0  0
  -31.7180  -15.0600   19.9320 O   0  0  0  0  0  0  0  0  0  0  0  0
  -29.7550  -16.1330   20.4480 N   0  0  0  0  0  0  0  0  0  0  0  0
  -28.7820  -15.9540   20.6420 H   0  0  0  0  0  0  0  0  0  0  0  0
  -25.1990  -13.8910   20.5300 C   0  0  0  0  0  0  0  0  0  0  0  0
  -24.1590  -13.0890   20.9140 C   0  0  0  0  0  0  0  0  0  0  0  0
  -24.6450  -11.7480   20.8440 C   0  0  0  0  0  0  0  0  0  0  0  0
  -26.2510  -13.0360   20.2460 N   0  0  0  0  0  0  0  0  0  0  0  0
  -25.9270  -11.7410   20.5000 N   0  0  0  0  0  0  0  0  0  0  0  0
  -23.9440  -10.4700   21.0260 C   0  0  0  0  0  0  0  0  0  0  0  0
  -24.3670   -9.5270   21.9880 C   0  0  0  0  0  3  0  0  0  0  0  0
  -23.6640   -8.3150   22.1590 C   0  0  0  0  0  3  0  0  0  0  0  0
  -22.5250   -8.0360   21.3670 C   0  0  0  0  0  0  0  0  0  0  0  0
  -22.1220   -8.9690   20.3950 C   0  0  0  0  0  3  0  0  0  0  0  0
  -22.8250  -10.1730   20.2230 C   0  0  0  0  0  3  0  0  0  0  0  0
  -21.7950   -6.8750   21.4450 O   0  0  0  0  0  0  0  0  0  0  0  0
  -21.6680   -6.1830   22.6240 C   0  0  0  0  0  0  0  0  0  0  0  0
  -21.0260   -6.7440   23.7510 C   0  0  0  0  0  3  0  0  0  0  0  0
  -20.8550   -5.9730   24.9180 C   0  0  0  0  0  3  0  0  0  0  0  0
  -21.3120   -4.6420   24.9580 C   0  0  0  0  0  0  0  0  0  0  0  0
  -21.9460   -4.0810   23.8360 C   0  0  0  0  0  3  0  0  0  0  0  0
  -22.1200   -4.8500   22.6710 C   0  0  0  0  0  0  0  0  0  0  0  0
  -22.7100   -4.2970   21.5850 F   0  0  0  0  0  0  0  0  0  0  0  0
  -21.1410   -3.9000   26.0770 F   0  0  0  0  0  0  0  0  0  0  0  0
  -22.7610  -13.5380   21.2290 C   0  0  0  0  0  0  0  0  0  0  0  0
  -22.0710  -12.8170   22.1060 N   0  0  0  0  0  0  0  0  0  0  0  0
  -22.2900  -14.5610   20.7330 O   0  0  0  0  0  0  0  0  0  0  0  0
  -22.4650  -11.9890   22.5280 H   0  0  0  0  0  0  0  0  0  0  0  0
  -21.1340  -13.0980   22.3600 H   0  0  0  0  0  0  0  0  0  0  0  0
  -25.3310  -15.2680   20.3750 N   0  0  0  0  0  0  0  0  0  0  0  0
  -24.5490  -15.8990   20.5180 H   0  0  0  0  0  0  0  0  0  0  0  0
  -26.1490  -15.7300   19.9990 H   0  0  0  0  0  0  0  0  0  0  0  0
  1  2  1  0
  2  7  1  0
  3 52  1  0
  3  2  2  0
  4  3  1  0
  5  4  2  0
  5  6  1  0
  6  1  2  0
  8  5  1  0
  9 10  1  0
 10  4  1  0
 11 13  1  0
 11  6  1  0
 12 23  2  0
 13 18  1  0
 14 22  1  0
 14 24  1  0
 15 21  1  0
 15 17  1  0
 16 22  1  0
 17 16  1  0
 18 17  2  0
 19 13  2  0
 20 19  1  0
 20 15  2  0
 21 14  1  0
 22 12  1  0
 24 26  2  0
 25 24  1  0
 27 25  1  0
 28 37  2  0
 28 33  1  0
 29 25  1  0
 29 33  1  0
 30 29  1  0
 31 32  1  0
 31 30  1  0
 32 28  1  0
 33 34  2  0
 34 35  1  0
 36 35  2  0
 37 36  1  0
 38 12  1  0
 38 43  1  0
 38 39  1  0
 39 42  1  1
 39 40  1  0
 41 39  1  0
 43 46  1  0
 44 48  1  0
 44 43  1  0
 45 44  2  0
 48 47  1  0
 50 51  1  0
 50 48  1  0
 50 49  1  0
 52 53  1  0
 53 54  2  0
 54 63  1  0
 55 63  1  0
 56 61  1  0
 57 58  1  0
 57 56  1  0
 59 58  1  0
 59 68  1  0
 59 60  1  0
 61 55  1  0
 61 60  1  0
 62 55  2  0
 63 64  1  0
 65 66  2  0
 66 85  1  0
 67 66  1  0
 67 70  1  0
 68 69  1  0
 68 65  1  0
 69 67  2  0
 70 71  1  0
 71 72  2  0
 73 76  1  0
 73 72  1  0
 74 73  2  0
 75 74  1  0
 75 70  2  0
 76 77  1  0
 77 82  2  0
 77 78  1  0
 78 79  2  0
 79 80  1  0
 80 84  1  0
 81 80  2  0
 82 81  1  0
 83 82  1  0
 85 86  1  0
 86 89  1  0
 86 88  1  0
 87 85  2  0
 90 91  1  0
 90 65  1  0
 92 90  1  0
M  ISO  4   6 101  11 101  55 100  63 100
M  END
>  <TORSDO>  (56) 
F 20

>  <SCORE>  (56) 
-13.916

>  <name>  (56) 
55

>  <ligand_id>  (56) 
55

>  <original_smiles>  (56) 
[H]c1c([H])c([H])c2c(c1[H])C([H])([H])C([H])([H])C([H])([H])C2([H])N([H])C(=O)C1([H])N(C(=O)C([H])(N([H])C(=O)C([H])(N([H])C([H])([H])[H])C([H])([H])[H])C(C([H])([H])[H])(C([H])([H])[H])C([H])([H])[H])C([H])([H])c2c([H])c(Oc3c([H])c(C([H])([H])[H])c(C([H])([H])C([H])([H])C([H])([H])N([H])C(=O)N4C([H])([H])C([H])([H])C([H])([H])C([H])(n5nc(-c6c([H])c([H])c(Oc7c([H])c([H])c(F)c([H])c7F)c([H])c6[H])c(C(=O)N([H])[H])c5N([H])[H])C4([H])[H])c(C([H])([H])C([H])([H])[H])c3C([H])([H])[H])c([H])c([H])c2C1([H])[H]

>  <smiles>  (56) 
[H]c1c([H])c([H])c2c(c1[H])C([H])([H])C([H])([H])C([H])([H])C2([H])N([H])C(=O)C1([H])N(C(=O)C([H])(N([H])C(=O)C([H])(N([H])C([H])([H])[H])C([H])([H])[H])C(C([H])([H])[H])(C([H])([H])[H])C([H])([H])[H])C([H])([H])c2c([H])c(Oc3c([H])c(C([H])([H])[H])c(C([H])([H])C([H])([H])C([H])([H])N([H])C(=O)N4C([H])([H])C([H])([H])C([H])([H])C([H])(n5nc(-c6c([H])c([H])c(Oc7c([H])c([H])c(F)c([H])c7F)c([H])c6[H])c(C(=O)N([H])[H])c5N([H])[H])C4([H])[H])c(C([H])([H])C([H])([H])[H])c3C([H])([H])[H])c([H])c([H])c2C1([H])[H]

$$$$
56:0:0
     RDKit          3D

101111  0  0  1  0  0  0  0  0999 V2000
  -30.5160  -23.6480   16.0850 C   0  0  0  0  0  3  0  0  0  0  0  0
  -29.4320  -23.7380   16.9670 C   0  0  0  0  0  0  0  0  0  0  0  0
  -29.1720  -22.6920   17.8910 C   0  0  0  0  0  0  0  0  0  0  0  0
  -31.2530  -22.4640   15.9800 C   0  0  0  0  0  0  0  0  0  0  0  0
  -29.7740  -21.4120   17.6570 C   0  0  0  0  0  0  0  0  0  0  0  0
  -30.8030  -21.3040   16.6630 C   0  0  0  0  0  0  0  0  0  0  0  0
  -28.5240  -24.9410   16.8090 C   0  0  0  0  0  2  0  0  0  0  0  0
  -28.2480  -22.8980   19.1090 C   0  0  0  0  0  2  0  0  0  0  0  0
  -28.7730  -26.0410   17.8270 C   0  0  0  0  0  2  0  0  0  0  0  0
  -27.7470  -24.3170   19.5180 C   0  0  0  0  0  2  0  0  0  0  0  0
  -28.6580  -25.5700   19.2830 C   0  0  0  0  0  3  0  0  0  0  0  0
  -32.4840  -22.4740   15.0820 C   0  0  0  0  0  1  0  0  0  0  0  0
  -28.4310  -26.7400   20.1090 O   0  0  0  0  0  0  0  0  0  0  0  0
  -24.6580  -31.9290   23.2240 C   0  0  0  0  0  0  0  0  0  0  0  0
  -27.2500  -27.4750   20.0830 C   0  0  0  0  0  0  0  0  0  0  0  0
  -23.4300  -30.5260   21.6040 C   0  0  0  0  0  3  0  0  0  0  0  0
  -24.8620  -29.0070   20.1480 C   0  0  0  0  0  0  0  0  0  0  0  0
  -25.9560  -30.8820   21.3740 C   0  0  0  0  0  2  0  0  0  0  0  0
  -26.0270  -29.5110   20.7340 C   0  0  0  0  0  0  0  0  0  0  0  0
  -27.2180  -28.7430   20.7180 C   0  0  0  0  0  3  0  0  0  0  0  0
  -26.0650  -27.0250   19.4610 C   0  0  0  0  0  3  0  0  0  0  0  0
  -24.8740  -27.7620   19.5120 C   0  0  0  0  0  3  0  0  0  0  0  0
  -23.6190  -29.8620   20.2160 C   0  0  0  0  0  2  0  0  0  0  0  0
  -24.7000  -31.1260   22.1250 N   0  0  0  0  0  0  0  0  0  0  0  0
  -23.5840  -32.1990   23.7780 O   0  0  0  0  0  0  0  0  0  0  0  0
  -22.7990  -29.4940   22.5670 C   0  0  0  0  0  0  0  0  0  0  0  0
  -21.4750  -29.2990   22.4560 N   0  0  0  0  0  0  0  0  0  0  0  0
  -23.4980  -28.8740   23.3750 O   0  0  0  0  0  0  0  0  0  0  0  0
  -20.9670  -29.8560   21.7820 H   0  0  0  0  0  0  0  0  0  0  0  0
  -18.1240  -28.0560   22.9790 C   0  0  0  0  0  0  0  0  0  0  0  0
  -20.6790  -28.3550   23.2390 C   0  0  0  0  0  3  0  0  0  0  0  0
  -20.8000  -26.9200   22.6760 C   0  0  0  0  0  2  0  0  0  0  0  0
  -19.7000  -26.5710   21.6680 C   0  0  0  0  0  2  0  0  0  0  0  0
  -18.3180  -26.7020   22.3170 C   0  0  0  0  0  2  0  0  0  0  0  0
  -19.2320  -28.8380   23.3980 C   0  0  0  0  0  0  0  0  0  0  0  0
  -18.9980  -30.1040   23.9750 C   0  0  0  0  0  3  0  0  0  0  0  0
  -17.6880  -30.5900   24.1390 C   0  0  0  0  0  3  0  0  0  0  0  0
  -16.5920  -29.8060   23.7380 C   0  0  0  0  0  3  0  0  0  0  0  0
  -16.8120  -28.5410   23.1620 C   0  0  0  0  0  3  0  0  0  0  0  0
  -25.9510  -32.5650   23.8180 C   0  0  0  0  0  3  0  0  0  0  0  0
  -25.6360  -33.9550   24.1750 N   0  0  0  0  0  0  0  0  0  0  0  0
  -25.9370  -35.0190   23.4190 C   0  0  0  0  0  0  0  0  0  0  0  0
  -26.5850  -34.9360   22.3720 O   0  0  0  0  0  0  0  0  0  0  0  0
  -25.0590  -34.0930   24.9920 H   0  0  0  0  0  0  0  0  0  0  0  0
  -24.1830  -36.7960   23.1270 C   0  0  0  0  0  1  0  0  0  0  0  0
  -25.4460  -36.3960   23.9060 C   0  0  0  0  0  3  0  0  0  0  0  0
  -27.5900  -37.2900   24.7000 C   0  0  0  0  0  1  0  0  0  0  0  0
  -26.4630  -37.4620   23.7860 N   0  0  0  0  0  0  0  0  0  0  0  0
  -26.0500  -38.3740   23.9610 H   0  0  0  0  0  0  0  0  0  0  0  0
  -26.5100  -31.7800   25.0670 C   0  0  1  0  0  0  0  0  0  0  0  0
  -25.4490  -31.5130   26.1600 C   0  0  0  0  0  1  0  0  0  0  0  0
  -27.0970  -30.4150   24.6370 C   0  0  0  0  0  1  0  0  0  0  0  0
  -27.6680  -32.5780   25.7100 C   0  0  0  0  0  1  0  0  0  0  0  0
  -29.1940  -20.1480   18.3460 C   0  0  0  0  0  2  0  0  0  0  0  0
  -29.9980  -19.4750   19.5040 C   0  0  0  0  0  2  0  0  0  0  0  0
  -30.7710  -14.6220   20.6360 C   0  0  0  0  0  0  0  0  0  0  0  0
  -30.4630  -12.3820   19.7290 C   0  0  0  0  0  2  0  0  0  0  0  0
  -29.5860  -12.4750   18.4630 C   0  0  0  0  0  2  0  0  0  0  0  0
  -28.0970  -12.3830   18.8330 C   0  0  0  0  0  2  0  0  0  0  0  0
  -27.6870  -13.3180   20.0040 C   0  0  0  0  0  3  0  0  0  0  0  0
  -28.7000  -13.2700   21.1700 C   0  0  0  0  0  2  0  0  0  0  0  0
  -30.0440  -13.4760   20.6120 N   0  0  0  0  0  0  0  0  0  0  0  0
  -31.9760  -14.6190   20.8630 O   0  0  0  0  0  0  0  0  0  0  0  0
  -32.3600  -16.5700   18.5080 C   0  0  0  0  0  2  0  0  0  0  0  0
  -31.9630  -17.8340   19.2800 C   0  0  0  0  0  2  0  0  0  0  0  0
  -31.2090  -15.5370   18.4500 C   0  0  0  0  0  2  0  0  0  0  0  0
  -29.7780  -16.8380   20.0140 C   0  0  0  0  0  2  0  0  0  0  0  0
  -30.4370  -18.0090   19.2070 C   0  0  0  0  0  3  0  0  0  0  0  0
  -30.3800  -15.5130   19.6860 N   0  0  0  0  0  0  0  0  0  0  0  0
  -25.2520  -13.9230   20.5790 C   0  0  0  0  0  0  0  0  0  0  0  0
  -24.1680  -13.1510   20.8970 C   0  0  0  0  0  0  0  0  0  0  0  0
  -24.6370  -11.8030   20.9340 C   0  0  0  0  0  0  0  0  0  0  0  0
  -26.3160  -13.0450   20.4370 N   0  0  0  0  0  0  0  0  0  0  0  0
  -25.9470  -11.7670   20.7160 N   0  0  0  0  0  0  0  0  0  0  0  0
  -23.9060  -10.5390   21.1060 C   0  0  0  0  0  0  0  0  0  0  0  0
  -24.2990   -9.5820   22.0670 C   0  0  0  0  0  3  0  0  0  0  0  0
  -23.5680   -8.3850   22.2280 C   0  0  0  0  0  3  0  0  0  0  0  0
  -22.4280   -8.1370   21.4260 C   0  0  0  0  0  0  0  0  0  0  0  0
  -22.0540   -9.0830   20.4560 C   0  0  0  0  0  3  0  0  0  0  0  0
  -22.7870  -10.2700   20.2930 C   0  0  0  0  0  3  0  0  0  0  0  0
  -21.6730   -6.9900   21.4940 O   0  0  0  0  0  0  0  0  0  0  0  0
  -21.5940   -6.2460   22.6450 C   0  0  0  0  0  0  0  0  0  0  0  0
  -21.1580   -6.8060   23.8650 C   0  0  0  0  0  3  0  0  0  0  0  0
  -21.0230   -5.9920   25.0070 C   0  0  0  0  0  3  0  0  0  0  0  0
  -21.3200   -4.6170   24.9300 C   0  0  0  0  0  0  0  0  0  0  0  0
  -21.7520   -4.0570   23.7140 C   0  0  0  0  0  3  0  0  0  0  0  0
  -21.8860   -4.8690   22.5750 C   0  0  0  0  0  0  0  0  0  0  0  0
  -22.2800   -4.3190   21.4020 F   0  0  0  0  0  0  0  0  0  0  0  0
  -21.1860   -3.8320   26.0240 F   0  0  0  0  0  0  0  0  0  0  0  0
  -22.7530  -13.6250   21.0620 C   0  0  0  0  0  0  0  0  0  0  0  0
  -21.9720  -12.9490   21.8970 N   0  0  0  0  0  0  0  0  0  0  0  0
  -22.3450  -14.6320   20.4850 O   0  0  0  0  0  0  0  0  0  0  0  0
  -22.3100  -12.1350   22.3880 H   0  0  0  0  0  0  0  0  0  0  0  0
  -21.0210  -13.2540   22.0500 H   0  0  0  0  0  0  0  0  0  0  0  0
  -25.4160  -15.2890   20.3760 N   0  0  0  0  0  0  0  0  0  0  0  0
  -24.6360  -15.9360   20.4180 H   0  0  0  0  0  0  0  0  0  0  0  0
  -26.2860  -15.7340   20.1080 H   0  0  0  0  0  0  0  0  0  0  0  0
  -31.4210  -19.9670   16.2530 C   0  0  0  0  0  2  0  0  0  0  0  0
  -30.9210  -19.4480   14.8890 C   0  0  0  0  0  2  0  0  0  0  0  0
  -31.4080  -17.8810   12.9260 C   0  0  0  0  0  1  0  0  0  0  0  0
  -31.8230  -18.3360   14.3290 C   0  0  0  0  0  2  0  0  0  0  0  0
  1  2  1  0
  2  3  2  0
  3  8  1  0
  4  1  2  0
  4  6  1  0
  5  3  1  0
  5 54  1  0
  6  5  2  0
  7  2  1  0
  7  9  1  0
  8 10  1  0
  9 11  1  0
 11 10  1  0
 11 13  1  0
 12  4  1  0
 14 25  2  0
 15 13  1  0
 15 20  1  0
 16 24  1  0
 16 26  1  0
 17 23  1  0
 17 19  1  0
 18 24  1  0
 19 18  1  0
 20 19  2  0
 21 22  1  0
 21 15  2  0
 22 17  2  0
 23 16  1  0
 24 14  1  0
 26 28  2  0
 27 26  1  0
 29 27  1  0
 30 39  2  0
 30 35  1  0
 31 27  1  0
 31 35  1  0
 32 31  1  0
 33 34  1  0
 33 32  1  0
 34 30  1  0
 35 36  2  0
 36 37  1  0
 38 37  2  0
 39 38  1  0
 40 14  1  0
 40 41  1  0
 40 50  1  0
 41 44  1  0
 42 46  1  0
 42 41  1  0
 43 42  2  0
 46 45  1  0
 48 46  1  0
 48 49  1  0
 48 47  1  0
 50 53  1  1
 50 51  1  0
 52 50  1  0
 54 55  1  0
 56 63  2  0
 57 62  1  0
 58 59  1  0
 58 57  1  0
 60 59  1  0
 60 73  1  0
 60 61  1  0
 62 56  1  0
 62 61  1  0
 64 65  1  0
 66 64  1  0
 66 69  1  0
 68 65  1  0
 68 55  1  0
 68 67  1  0
 69 67  1  0
 69 56  1  0
 70 71  2  0
 71 72  1  0
 71 90  1  0
 72 75  1  0
 73 70  1  0
 73 74  1  0
 74 72  2  0
 75 76  1  0
 76 77  2  0
 78 81  1  0
 78 77  1  0
 79 78  2  0
 80 79  1  0
 80 75  2  0
 81 82  1  0
 82 83  1  0
 83 84  2  0
 85 84  1  0
 85 89  1  0
 86 85  2  0
 87 82  2  0
 87 86  1  0
 88 87  1  0
 90 91  1  0
 91 94  1  0
 91 93  1  0
 92 90  2  0
 95 96  1  0
 95 70  1  0
 97 95  1  0
 98  6  1  0
 99 98  1  0
100101  1  0
101 99  1  0
M  ISO  4  11 101  13 101  56 100  69 100
M  END
>  <TORSDO>  (57) 
F 21

>  <SCORE>  (57) 
-13.559

>  <name>  (57) 
56

>  <ligand_id>  (57) 
56

>  <original_smiles>  (57) 
[H]c1c([H])c([H])c2c(c1[H])C([H])([H])C([H])([H])C([H])([H])C2([H])N([H])C(=O)C1([H])N(C(=O)C([H])(N([H])C(=O)C([H])(N([H])C([H])([H])[H])C([H])([H])[H])C(C([H])([H])[H])(C([H])([H])[H])C([H])([H])[H])C([H])([H])c2c([H])c(OC3([H])C([H])([H])C([H])([H])c4c([H])c(C([H])([H])[H])c(C([H])([H])C([H])([H])C([H])([H])C([H])([H])[H])c(C([H])([H])C([H])([H])C5([H])C([H])([H])N(C(=O)N6C([H])([H])C([H])([H])C([H])([H])C([H])(n7nc(-c8c([H])c([H])c(Oc9c([H])c([H])c(F)c([H])c9F)c([H])c8[H])c(C(=O)N([H])[H])c7N([H])[H])C6([H])[H])C([H])([H])C([H])([H])C5([H])[H])c4C([H])([H])C3([H])[H])c([H])c([H])c2C1([H])[H]

>  <smiles>  (57) 
[H]c1c([H])c([H])c2c(c1[H])C([H])([H])C([H])([H])C([H])([H])C2([H])N([H])C(=O)C1([H])N(C(=O)C([H])(N([H])C(=O)C([H])(N([H])C([H])([H])[H])C([H])([H])[H])C(C([H])([H])[H])(C([H])([H])[H])C([H])([H])[H])C([H])([H])c2c([H])c(OC3([H])C([H])([H])C([H])([H])c4c([H])c(C([H])([H])[H])c(C([H])([H])C([H])([H])C([H])([H])C([H])([H])[H])c(C([H])([H])C([H])([H])C5([H])C([H])([H])N(C(=O)N6C([H])([H])C([H])([H])C([H])([H])C([H])(n7nc(-c8c([H])c([H])c(Oc9c([H])c([H])c(F)c([H])c9F)c([H])c8[H])c(C(=O)N([H])[H])c7N([H])[H])C6([H])[H])C([H])([H])C([H])([H])C5([H])[H])c4C([H])([H])C3([H])[H])c([H])c([H])c2C1([H])[H]

$$$$
57:0:0
     RDKit          3D

 91 99  0  0  1  0  0  0  0  0999 V2000
  -28.1720  -22.8030   20.7370 C   0  0  0  0  0  3  0  0  0  0  0  0
  -29.9410  -24.8520   20.1320 C   0  0  0  0  0  3  0  0  0  0  0  0
  -29.4990  -22.4350   20.3820 C   0  0  0  0  0  0  0  0  0  0  0  0
  -27.7270  -24.1650   20.7990 C   0  0  0  0  0  0  0  0  0  0  0  0
  -30.4020  -23.5110   20.1390 C   0  0  0  0  0  0  0  0  0  0  0  0
  -28.6010  -25.2300   20.3840 C   0  0  0  0  0  0  0  0  0  0  0  0
  -26.3220  -24.3970   21.3530 C   0  0  0  0  0  1  0  0  0  0  0  0
  -31.8880  -23.2610   19.8870 C   0  0  0  0  0  1  0  0  0  0  0  0
  -29.9270  -20.9750   20.1530 C   0  0  0  0  0  0  0  0  0  0  0  0
  -30.6790  -20.6640   19.2260 O   0  0  0  0  0  0  0  0  0  0  0  0
  -29.4700  -19.8220   21.0880 C   0  0  0  0  0  2  0  0  0  0  0  0
  -29.3140  -18.3800   20.4470 C   0  0  0  0  0  2  0  0  0  0  0  0
  -30.4360  -17.2830   20.6160 C   0  0  0  0  0  2  0  0  0  0  0  0
  -29.8660  -15.8280   20.8530 C   0  0  0  0  0  2  0  0  0  0  0  0
  -30.6590  -14.5710   20.3540 C   0  0  0  0  0  0  0  0  0  0  0  0
  -30.3990  -12.3770   19.2210 C   0  0  0  0  0  2  0  0  0  0  0  0
  -29.4550  -12.5750   18.0170 C   0  0  0  0  0  2  0  0  0  0  0  0
  -27.9760  -12.4370   18.4440 C   0  0  0  0  0  2  0  0  0  0  0  0
  -27.6310  -13.2690   19.7080 C   0  0  0  0  0  3  0  0  0  0  0  0
  -28.6980  -13.0640   20.8080 C   0  0  0  0  0  2  0  0  0  0  0  0
  -30.0210  -13.3700   20.2430 N   0  0  0  0  0  0  0  0  0  0  0  0
  -31.8080  -14.7310   19.9280 O   0  0  0  0  0  0  0  0  0  0  0  0
  -25.2320  -13.8790   20.4130 C   0  0  0  0  0  0  0  0  0  0  0  0
  -24.1630  -13.1070   20.7920 C   0  0  0  0  0  0  0  0  0  0  0  0
  -24.6270  -11.7550   20.7780 C   0  0  0  0  0  0  0  0  0  0  0  0
  -26.2790  -12.9950   20.1940 N   0  0  0  0  0  0  0  0  0  0  0  0
  -25.9180  -11.7150   20.4680 N   0  0  0  0  0  0  0  0  0  0  0  0
  -23.8990  -10.4940   20.9790 C   0  0  0  0  0  0  0  0  0  0  0  0
  -24.3320   -9.5380   21.9230 C   0  0  0  0  0  3  0  0  0  0  0  0
  -23.6090   -8.3420   22.1160 C   0  0  0  0  0  3  0  0  0  0  0  0
  -22.4370   -8.0920   21.3650 C   0  0  0  0  0  0  0  0  0  0  0  0
  -22.0170   -9.0380   20.4140 C   0  0  0  0  0  3  0  0  0  0  0  0
  -22.7410  -10.2260   20.2200 C   0  0  0  0  0  3  0  0  0  0  0  0
  -21.6820   -6.9480   21.4700 O   0  0  0  0  0  0  0  0  0  0  0  0
  -21.6420   -6.2130   22.6260 C   0  0  0  0  0  0  0  0  0  0  0  0
  -21.2230   -6.7760   23.8510 C   0  0  0  0  0  3  0  0  0  0  0  0
  -21.1340   -5.9700   25.0040 C   0  0  0  0  0  3  0  0  0  0  0  0
  -21.4440   -4.5990   24.9310 C   0  0  0  0  0  0  0  0  0  0  0  0
  -21.8540   -4.0340   23.7120 C   0  0  0  0  0  3  0  0  0  0  0  0
  -21.9480   -4.8370   22.5620 C   0  0  0  0  0  0  0  0  0  0  0  0
  -22.3240   -4.2840   21.3830 F   0  0  0  0  0  0  0  0  0  0  0  0
  -21.3480   -3.8210   26.0350 F   0  0  0  0  0  0  0  0  0  0  0  0
  -22.7660  -13.5870   21.0590 C   0  0  0  0  0  0  0  0  0  0  0  0
  -22.0320  -12.9030   21.9300 N   0  0  0  0  0  0  0  0  0  0  0  0
  -22.3260  -14.6030   20.5200 O   0  0  0  0  0  0  0  0  0  0  0  0
  -22.3880  -12.0820   22.3980 H   0  0  0  0  0  0  0  0  0  0  0  0
  -21.0910  -13.2100   22.1390 H   0  0  0  0  0  0  0  0  0  0  0  0
  -25.4000  -15.2470   20.2210 N   0  0  0  0  0  0  0  0  0  0  0  0
  -24.6450  -15.9150   20.3170 H   0  0  0  0  0  0  0  0  0  0  0  0
  -26.2640  -15.6700   19.9050 H   0  0  0  0  0  0  0  0  0  0  0  0
  -28.3790  -26.6190   20.2370 O   0  0  0  0  0  0  0  0  0  0  0  0
  -24.5950  -31.8740   23.2350 C   0  0  0  0  0  0  0  0  0  0  0  0
  -27.1940  -27.3460   20.1980 C   0  0  0  0  0  0  0  0  0  0  0  0
  -23.3840  -30.4780   21.5840 C   0  0  0  0  0  3  0  0  0  0  0  0
  -24.8300  -28.9320   20.1470 C   0  0  0  0  0  0  0  0  0  0  0  0
  -25.9140  -30.8060   21.3960 C   0  0  0  0  0  2  0  0  0  0  0  0
  -25.9850  -29.4260   20.7630 C   0  0  0  0  0  0  0  0  0  0  0  0
  -27.1640  -28.6370   20.7900 C   0  0  0  0  0  3  0  0  0  0  0  0
  -26.0420  -26.9070   19.5090 C   0  0  0  0  0  3  0  0  0  0  0  0
  -24.8590  -27.6800   19.5060 C   0  0  0  0  0  3  0  0  0  0  0  0
  -23.5950  -29.8080   20.1960 C   0  0  0  0  0  2  0  0  0  0  0  0
  -24.6500  -31.0700   22.1300 N   0  0  0  0  0  0  0  0  0  0  0  0
  -23.5150  -32.1470   23.7750 O   0  0  0  0  0  0  0  0  0  0  0  0
  -22.7290  -29.4590   22.5470 C   0  0  0  0  0  0  0  0  0  0  0  0
  -21.4020  -29.2840   22.4290 N   0  0  0  0  0  0  0  0  0  0  0  0
  -23.4140  -28.8270   23.3560 O   0  0  0  0  0  0  0  0  0  0  0  0
  -20.9110  -29.8450   21.7470 H   0  0  0  0  0  0  0  0  0  0  0  0
  -18.0290  -28.0910   22.9390 C   0  0  0  0  0  0  0  0  0  0  0  0
  -20.5880  -28.3450   23.1990 C   0  0  0  0  0  3  0  0  0  0  0  0
  -20.6860  -26.9160   22.6170 C   0  0  0  0  0  2  0  0  0  0  0  0
  -19.5800  -26.6000   21.6050 C   0  0  0  0  0  2  0  0  0  0  0  0
  -18.2000  -26.7440   22.2550 C   0  0  0  0  0  2  0  0  0  0  0  0
  -19.1520  -28.8490   23.3670 C   0  0  0  0  0  0  0  0  0  0  0  0
  -18.9380  -30.1080   23.9720 C   0  0  0  0  0  3  0  0  0  0  0  0
  -17.6340  -30.6110   24.1440 C   0  0  0  0  0  3  0  0  0  0  0  0
  -16.5270  -29.8530   23.7290 C   0  0  0  0  0  3  0  0  0  0  0  0
  -16.7250  -28.5930   23.1340 C   0  0  0  0  0  3  0  0  0  0  0  0
  -25.8850  -32.5020   23.8520 C   0  0  0  0  0  3  0  0  0  0  0  0
  -25.5780  -33.9010   24.1830 N   0  0  0  0  0  0  0  0  0  0  0  0
  -25.9130  -34.9550   23.4270 C   0  0  0  0  0  0  0  0  0  0  0  0
  -26.5790  -34.8510   22.3920 O   0  0  0  0  0  0  0  0  0  0  0  0
  -24.9890  -34.0560   24.9890 H   0  0  0  0  0  0  0  0  0  0  0  0
  -24.1860  -36.7520   23.0770 C   0  0  0  0  0  1  0  0  0  0  0  0
  -25.4300  -36.3460   23.8850 C   0  0  0  0  0  3  0  0  0  0  0  0
  -27.5710  -37.2200   24.7100 C   0  0  0  0  0  1  0  0  0  0  0  0
  -26.4670  -37.3960   23.7700 N   0  0  0  0  0  0  0  0  0  0  0  0
  -26.0640  -38.3150   23.9190 H   0  0  0  0  0  0  0  0  0  0  0  0
  -26.4000  -31.7320   25.1270 C   0  0  1  0  0  0  0  0  0  0  0  0
  -25.3130  -31.4960   26.2010 C   0  0  0  0  0  1  0  0  0  0  0  0
  -26.9770  -30.3530   24.7300 C   0  0  0  0  0  1  0  0  0  0  0  0
  -27.5530  -32.5230   25.7840 C   0  0  0  0  0  1  0  0  0  0  0  0
  1  4  1  0
  2  5  2  0
  2  6  1  0
  3  1  2  0
  4  7  1  0
  5  3  1  0
  6  4  2  0
  8  5  1  0
  9  3  1  0
  9 11  1  0
 10  9  2  0
 12 13  1  0
 12 11  1  0
 13 14  1  0
 15 14  1  0
 16 21  1  0
 17 18  1  0
 17 16  1  0
 19 18  1  0
 19 26  1  0
 19 20  1  0
 21 15  1  0
 21 20  1  0
 22 15  2  0
 23 24  2  0
 24 43  1  0
 25 24  1  0
 25 28  1  0
 26 23  1  0
 26 27  1  0
 27 25  2  0
 28 29  1  0
 29 30  2  0
 31 34  1  0
 31 30  1  0
 32 31  2  0
 33 32  1  0
 33 28  2  0
 34 35  1  0
 35 36  1  0
 36 37  2  0
 38 37  1  0
 38 42  1  0
 39 38  2  0
 40 35  2  0
 40 39  1  0
 41 40  1  0
 43 44  1  0
 44 47  1  0
 44 46  1  0
 45 43  2  0
 48 49  1  0
 48 23  1  0
 50 48  1  0
 51  6  1  0
 52 63  2  0
 53 51  1  0
 53 58  1  0
 54 62  1  0
 54 64  1  0
 55 61  1  0
 55 57  1  0
 56 62  1  0
 57 58  2  0
 57 56  1  0
 59 53  2  0
 60 59  1  0
 60 55  2  0
 61 54  1  0
 62 52  1  0
 64 66  2  0
 65 64  1  0
 67 65  1  0
 68 77  2  0
 68 73  1  0
 69 65  1  0
 69 73  1  0
 70 69  1  0
 71 72  1  0
 71 70  1  0
 72 68  1  0
 73 74  2  0
 74 75  1  0
 76 75  2  0
 77 76  1  0
 78 52  1  0
 78 79  1  0
 78 88  1  0
 79 82  1  0
 80 84  1  0
 80 79  1  0
 81 80  2  0
 84 83  1  0
 86 84  1  0
 86 87  1  0
 86 85  1  0
 88 91  1  1
 88 89  1  0
 90 88  1  0
M  ISO  4   6 101  14 100  15 100  51 101
M  END
>  <TORSDO>  (58) 
F 21

>  <SCORE>  (58) 
-13.499

>  <name>  (58) 
57

>  <ligand_id>  (58) 
57

>  <original_smiles>  (58) 
[H]c1c([H])c([H])c2c(c1[H])C([H])([H])C([H])([H])C([H])([H])C2([H])N([H])C(=O)C1([H])N(C(=O)C([H])(N([H])C(=O)C([H])(N([H])C([H])([H])[H])C([H])([H])[H])C(C([H])([H])[H])(C([H])([H])[H])C([H])([H])[H])C([H])([H])c2c([H])c(Oc3c([H])c(C([H])([H])[H])c(C(=O)C([H])([H])C([H])([H])C([H])([H])C([H])([H])C(=O)N4C([H])([H])C([H])([H])C([H])([H])C([H])(n5nc(-c6c([H])c([H])c(Oc7c([H])c([H])c(F)c([H])c7F)c([H])c6[H])c(C(=O)N([H])[H])c5N([H])[H])C4([H])[H])c([H])c3C([H])([H])[H])c([H])c([H])c2C1([H])[H]

>  <smiles>  (58) 
[H]c1c([H])c([H])c2c(c1[H])C([H])([H])C([H])([H])C([H])([H])C2([H])N([H])C(=O)C1([H])N(C(=O)C([H])(N([H])C(=O)C([H])(N([H])C([H])([H])[H])C([H])([H])[H])C(C([H])([H])[H])(C([H])([H])[H])C([H])([H])[H])C([H])([H])c2c([H])c(Oc3c([H])c(C([H])([H])[H])c(C(=O)C([H])([H])C([H])([H])C([H])([H])C([H])([H])C(=O)N4C([H])([H])C([H])([H])C([H])([H])C([H])(n5nc(-c6c([H])c([H])c(Oc7c([H])c([H])c(F)c([H])c7F)c([H])c6[H])c(C(=O)N([H])[H])c5N([H])[H])C4([H])[H])c([H])c3C([H])([H])[H])c([H])c([H])c2C1([H])[H]

$$$$
58:0:0
     RDKit          3D

 93102  0  0  1  0  0  0  0  0999 V2000
  -29.9600  -21.0440   21.4650 C   0  0  0  0  0  3  0  0  0  0  0  0
  -30.4070  -19.9130   22.1010 C   0  0  0  0  0  0  0  0  0  0  0  0
  -30.5580  -22.3770   21.6910 C   0  0  0  0  0  0  0  0  0  0  0  0
  -30.0850  -23.5820   21.2570 C   0  0  0  0  0  3  0  0  0  0  0  0
  -31.5110  -20.0330   23.1710 C   0  0  0  0  0  2  0  0  0  0  0  0
  -31.8920  -22.3890   22.4180 C   0  0  0  0  0  2  0  0  0  0  0  0
  -31.8090  -21.4630   23.6290 C   0  0  0  0  0  2  0  0  0  0  0  0
  -30.2880  -17.4160   22.5440 C   0  0  0  0  0  3  0  0  0  0  0  0
  -30.3580  -16.0880   22.0580 C   0  0  0  0  0  3  0  0  0  0  0  0
  -29.7250  -18.2100   20.3270 C   0  0  0  0  0  3  0  0  0  0  0  0
  -30.0790  -18.5100   21.6630 C   0  0  0  0  0  0  0  0  0  0  0  0
  -30.1790  -15.8080   20.6860 C   0  0  0  0  0  0  0  0  0  0  0  0
  -29.7730  -16.8800   19.8330 C   0  0  0  0  0  0  0  0  0  0  0  0
  -29.4600  -16.6760   18.3490 C   0  0  0  0  0  1  0  0  0  0  0  0
  -30.7370  -14.5200   20.1080 C   0  0  0  0  0  0  0  0  0  0  0  0
  -30.3060  -12.4010   18.9460 C   0  0  0  0  0  2  0  0  0  0  0  0
  -29.3240  -12.6580   17.7880 C   0  0  0  0  0  2  0  0  0  0  0  0
  -27.8680  -12.5380   18.2790 C   0  0  0  0  0  2  0  0  0  0  0  0
  -27.6030  -13.3250   19.5930 C   0  0  0  0  0  3  0  0  0  0  0  0
  -28.7170  -13.1030   20.6440 C   0  0  0  0  0  2  0  0  0  0  0  0
  -30.0070  -13.3770   20.0070 N   0  0  0  0  0  0  0  0  0  0  0  0
  -31.8490  -14.6300   19.5870 O   0  0  0  0  0  0  0  0  0  0  0  0
  -25.2350  -13.8890   20.4360 C   0  0  0  0  0  0  0  0  0  0  0  0
  -24.1960  -13.1020   20.8470 C   0  0  0  0  0  0  0  0  0  0  0  0
  -24.6660  -11.7540   20.7690 C   0  0  0  0  0  0  0  0  0  0  0  0
  -26.2780  -13.0240   20.1370 N   0  0  0  0  0  0  0  0  0  0  0  0
  -25.9400  -11.7330   20.3930 N   0  0  0  0  0  0  0  0  0  0  0  0
  -23.9560  -10.4830   20.9660 C   0  0  0  0  0  0  0  0  0  0  0  0
  -24.4150   -9.5190   21.8930 C   0  0  0  0  0  3  0  0  0  0  0  0
  -23.7060   -8.3120   22.0810 C   0  0  0  0  0  3  0  0  0  0  0  0
  -22.5250   -8.0580   21.3440 C   0  0  0  0  0  0  0  0  0  0  0  0
  -22.0870   -9.0120   20.4080 C   0  0  0  0  0  3  0  0  0  0  0  0
  -22.7940  -10.2100   20.2180 C   0  0  0  0  0  3  0  0  0  0  0  0
  -21.7850   -6.9040   21.4410 O   0  0  0  0  0  0  0  0  0  0  0  0
  -21.7180   -6.1890   22.6100 C   0  0  0  0  0  0  0  0  0  0  0  0
  -21.2580   -6.7680   23.8130 C   0  0  0  0  0  3  0  0  0  0  0  0
  -21.1360   -5.9780   24.9730 C   0  0  0  0  0  3  0  0  0  0  0  0
  -21.4690   -4.6110   24.9340 C   0  0  0  0  0  0  0  0  0  0  0  0
  -21.9250   -4.0320   23.7360 C   0  0  0  0  0  3  0  0  0  0  0  0
  -22.0480   -4.8190   22.5790 C   0  0  0  0  0  0  0  0  0  0  0  0
  -22.4640   -4.2500   21.4220 F   0  0  0  0  0  0  0  0  0  0  0  0
  -21.3480   -3.8510   26.0480 F   0  0  0  0  0  0  0  0  0  0  0  0
  -22.8110  -13.5600   21.2010 C   0  0  0  0  0  0  0  0  0  0  0  0
  -22.1320  -12.8580   22.1010 N   0  0  0  0  0  0  0  0  0  0  0  0
  -22.3380  -14.5850   20.7090 O   0  0  0  0  0  0  0  0  0  0  0  0
  -22.5250  -12.0350   22.5360 H   0  0  0  0  0  0  0  0  0  0  0  0
  -21.2020  -13.1550   22.3630 H   0  0  0  0  0  0  0  0  0  0  0  0
  -25.3750  -15.2660   20.2680 N   0  0  0  0  0  0  0  0  0  0  0  0
  -24.5990  -15.9060   20.4000 H   0  0  0  0  0  0  0  0  0  0  0  0
  -26.2020  -15.7240   19.9070 H   0  0  0  0  0  0  0  0  0  0  0  0
  -28.7980  -23.9910   20.5360 C   0  0  0  0  0  2  0  0  0  0  0  0
  -28.1760  -25.3250   21.0820 C   0  0  0  0  0  2  0  0  0  0  0  0
  -28.4100  -26.5630   20.3340 O   0  0  0  0  0  0  0  0  0  0  0  0
  -24.5880  -31.8750   23.2010 C   0  0  0  0  0  0  0  0  0  0  0  0
  -27.2930  -27.3800   20.2370 C   0  0  0  0  0  0  0  0  0  0  0  0
  -23.4130  -30.4460   21.5640 C   0  0  0  0  0  3  0  0  0  0  0  0
  -24.8950  -28.9010   20.1740 C   0  0  0  0  0  0  0  0  0  0  0  0
  -25.9400  -30.8210   21.3810 C   0  0  0  0  0  2  0  0  0  0  0  0
  -26.0490  -29.4400   20.7590 C   0  0  0  0  0  0  0  0  0  0  0  0
  -27.2570  -28.6940   20.7780 C   0  0  0  0  0  3  0  0  0  0  0  0
  -26.1260  -26.8760   19.6220 C   0  0  0  0  0  3  0  0  0  0  0  0
  -24.9310  -27.6180   19.6000 C   0  0  0  0  0  3  0  0  0  0  0  0
  -23.6440  -29.7530   20.1950 C   0  0  0  0  0  2  0  0  0  0  0  0
  -24.6650  -31.0630   22.1080 N   0  0  0  0  0  0  0  0  0  0  0  0
  -23.4960  -32.1460   23.7230 O   0  0  0  0  0  0  0  0  0  0  0  0
  -22.7590  -29.4290   22.5280 C   0  0  0  0  0  0  0  0  0  0  0  0
  -21.4410  -29.2180   22.3760 N   0  0  0  0  0  0  0  0  0  0  0  0
  -23.4370  -28.8330   23.3690 O   0  0  0  0  0  0  0  0  0  0  0  0
  -20.9520  -29.7650   21.6800 H   0  0  0  0  0  0  0  0  0  0  0  0
  -18.0880  -27.9320   22.7910 C   0  0  0  0  0  0  0  0  0  0  0  0
  -20.6250  -28.2720   23.1380 C   0  0  0  0  0  3  0  0  0  0  0  0
  -20.7860  -26.8310   22.6030 C   0  0  0  0  0  2  0  0  0  0  0  0
  -19.7310  -26.4510   21.5600 C   0  0  0  0  0  2  0  0  0  0  0  0
  -18.3240  -26.5700   22.1550 C   0  0  0  0  0  2  0  0  0  0  0  0
  -19.1690  -28.7360   23.2370 C   0  0  0  0  0  0  0  0  0  0  0  0
  -18.8970  -30.0040   23.7910 C   0  0  0  0  0  3  0  0  0  0  0  0
  -17.5750  -30.4760   23.8980 C   0  0  0  0  0  3  0  0  0  0  0  0
  -16.5060  -29.6710   23.4680 C   0  0  0  0  0  3  0  0  0  0  0  0
  -16.7620  -28.3990   22.9250 C   0  0  0  0  0  3  0  0  0  0  0  0
  -25.8620  -32.5230   23.8300 C   0  0  0  0  0  3  0  0  0  0  0  0
  -26.3770  -31.7620   25.1120 C   0  0  1  0  0  0  0  0  0  0  0  0
  -25.2720  -31.5170   26.1660 C   0  0  0  0  0  1  0  0  0  0  0  0
  -26.9840  -30.3930   24.7260 C   0  0  0  0  0  1  0  0  0  0  0  0
  -27.5100  -32.5730   25.7830 C   0  0  0  0  0  1  0  0  0  0  0  0
  -25.5310  -33.9180   24.1540 N   0  0  0  0  0  0  0  0  0  0  0  0
  -25.8600  -34.9730   23.3990 C   0  0  0  0  0  0  0  0  0  0  0  0
  -26.5470  -34.8770   22.3780 O   0  0  0  0  0  0  0  0  0  0  0  0
  -24.9210  -34.0690   24.9440 H   0  0  0  0  0  0  0  0  0  0  0  0
  -24.1170  -36.7410   23.0170 C   0  0  0  0  0  1  0  0  0  0  0  0
  -25.3500  -36.3570   23.8480 C   0  0  0  0  0  3  0  0  0  0  0  0
  -27.4640  -37.2640   24.7080 C   0  0  0  0  0  1  0  0  0  0  0  0
  -26.3740  -37.4210   23.7470 N   0  0  0  0  0  0  0  0  0  0  0  0
  -25.9580  -38.3380   23.8840 H   0  0  0  0  0  0  0  0  0  0  0  0
  1  3  1  0
  1  2  2  0
  2  5  1  0
  3  6  1  0
  4  3  2  0
  5  7  1  0
  6  7  1  0
  9  8  1  0
 10 11  1  0
 11  2  1  0
 11  8  2  0
 12  9  2  0
 13 10  2  0
 13 12  1  0
 14 13  1  0
 15 12  1  0
 16 21  1  0
 17 18  1  0
 17 16  1  0
 19 18  1  0
 19 26  1  0
 19 20  1  0
 21 15  1  0
 21 20  1  0
 22 15  2  0
 23 24  2  0
 24 43  1  0
 25 24  1  0
 25 28  1  0
 26 27  1  0
 26 23  1  0
 27 25  2  0
 28 29  1  0
 29 30  2  0
 31 34  1  0
 31 30  1  0
 32 31  2  0
 33 32  1  0
 33 28  2  0
 34 35  1  0
 35 36  1  0
 36 37  2  0
 38 37  1  0
 38 42  1  0
 39 38  2  0
 40 35  2  0
 40 39  1  0
 41 40  1  0
 43 44  1  0
 44 47  1  0
 44 46  1  0
 45 43  2  0
 48 49  1  0
 48 23  1  0
 50 48  1  0
 51 52  1  0
 51  4  1  0
 53 52  1  0
 54 65  2  0
 55 53  1  0
 55 60  1  0
 56 64  1  0
 56 66  1  0
 57 63  1  0
 57 59  1  0
 58 64  1  0
 59 60  2  0
 59 58  1  0
 61 55  2  0
 62 61  1  0
 62 57  2  0
 63 56  1  0
 64 54  1  0
 66 68  2  0
 67 66  1  0
 69 67  1  0
 70 79  2  0
 70 75  1  0
 71 67  1  0
 71 75  1  0
 72 71  1  0
 73 74  1  0
 73 72  1  0
 74 70  1  0
 75 76  2  0
 76 77  1  0
 78 77  2  0
 79 78  1  0
 80 54  1  0
 80 85  1  0
 80 81  1  0
 81 84  1  1
 81 82  1  0
 83 81  1  0
 85 88  1  0
 86 90  1  0
 86 85  1  0
 87 86  2  0
 90 89  1  0
 92 90  1  0
 92 93  1  0
 92 91  1  0
M  ISO  4  12 100  15 100  52 101  53 101
M  END
>  <TORSDO>  (59) 
F 19

>  <SCORE>  (59) 
-12.741

>  <name>  (59) 
58

>  <ligand_id>  (59) 
58

>  <original_smiles>  (59) 
[H]C1=C(c2c([H])c([H])c(C(=O)N3C([H])([H])C([H])([H])C([H])([H])C([H])(n4nc(-c5c([H])c([H])c(Oc6c([H])c([H])c(F)c([H])c6F)c([H])c5[H])c(C(=O)N([H])[H])c4N([H])[H])C3([H])[H])c(C([H])([H])[H])c2[H])C([H])([H])C([H])([H])C([H])([H])C1=C([H])C([H])([H])C([H])([H])Oc1c([H])c([H])c2c(c1[H])C([H])([H])N(C(=O)C([H])(N([H])C(=O)C([H])(N([H])C([H])([H])[H])C([H])([H])[H])C(C([H])([H])[H])(C([H])([H])[H])C([H])([H])[H])C([H])(C(=O)N([H])C1([H])c3c([H])c([H])c([H])c([H])c3C([H])([H])C([H])([H])C1([H])[H])C2([H])[H]

>  <smiles>  (59) 
[H]C1=C(c2c([H])c([H])c(C(=O)N3C([H])([H])C([H])([H])C([H])([H])C([H])(n4nc(-c5c([H])c([H])c(Oc6c([H])c([H])c(F)c([H])c6F)c([H])c5[H])c(C(=O)N([H])[H])c4N([H])[H])C3([H])[H])c(C([H])([H])[H])c2[H])C([H])([H])C([H])([H])C([H])([H])C1=C([H])C([H])([H])C([H])([H])Oc1c([H])c([H])c2c(c1[H])C([H])([H])N(C(=O)C([H])(N([H])C(=O)C([H])(N([H])C([H])([H])[H])C([H])([H])[H])C(C([H])([H])[H])(C([H])([H])[H])C([H])([H])[H])C([H])(C(=O)N([H])C1([H])c3c([H])c([H])c([H])c([H])c3C([H])([H])C([H])([H])C1([H])[H])C2([H])[H]

$$$$
59:0:0
     RDKit          3D

 91 99  0  0  1  0  0  0  0  0999 V2000
  -28.8610  -22.9770   17.8220 C   0  0  0  0  0  3  0  0  0  0  0  0
  -29.0990  -21.7320   18.4740 C   0  0  0  0  0  0  0  0  0  0  0  0
  -28.5160  -24.2090   18.4350 C   0  0  0  0  0  0  0  0  0  0  0  0
  -28.8850  -21.5500   19.8700 C   0  0  0  0  0  0  0  0  0  0  0  0
  -28.5160  -22.9380   20.5020 C   0  0  0  0  0  0  0  0  0  0  0  0
  -28.3290  -24.3400   19.8310 C   0  0  0  0  0  0  0  0  0  0  0  0
  -28.4470  -25.4310   17.5310 C   0  0  0  0  0  1  0  0  0  0  0  0
  -28.3320  -22.9170   22.0070 C   0  0  0  0  0  1  0  0  0  0  0  0
  -30.2520  -20.9380   16.2720 C   0  0  0  0  0  1  0  0  0  0  0  0
  -29.6360  -20.5740   17.6320 C   0  0  0  0  0  2  0  0  0  0  0  0
  -28.2070  -25.8070   20.3230 O   0  0  0  0  0  0  0  0  0  0  0  0
  -24.6810  -31.8460   23.1780 C   0  0  0  0  0  0  0  0  0  0  0  0
  -27.2040  -26.9190   20.1790 C   0  0  0  0  0  0  0  0  0  0  0  0
  -23.4740  -30.4380   21.5580 C   0  0  0  0  0  3  0  0  0  0  0  0
  -24.9110  -28.8210   20.1270 C   0  0  0  0  0  0  0  0  0  0  0  0
  -26.0400  -30.6400   21.3920 C   0  0  0  0  0  2  0  0  0  0  0  0
  -26.1020  -29.2250   20.7420 C   0  0  0  0  0  0  0  0  0  0  0  0
  -27.2370  -28.2920   20.7480 C   0  0  0  0  0  3  0  0  0  0  0  0
  -25.9770  -26.6710   19.5250 C   0  0  0  0  0  3  0  0  0  0  0  0
  -24.8730  -27.5650   19.4990 C   0  0  0  0  0  3  0  0  0  0  0  0
  -23.6930  -29.7460   20.1820 C   0  0  0  0  0  2  0  0  0  0  0  0
  -24.7540  -31.0050   22.0950 N   0  0  0  0  0  0  0  0  0  0  0  0
  -23.5960  -32.1390   23.7080 O   0  0  0  0  0  0  0  0  0  0  0  0
  -22.7890  -29.4500   22.5380 C   0  0  0  0  0  0  0  0  0  0  0  0
  -21.4570  -29.2870   22.4300 N   0  0  0  0  0  0  0  0  0  0  0  0
  -23.4640  -28.8290   23.3630 O   0  0  0  0  0  0  0  0  0  0  0  0
  -20.9660  -29.8390   21.7390 H   0  0  0  0  0  0  0  0  0  0  0  0
  -18.0820  -28.0660   22.9740 C   0  0  0  0  0  0  0  0  0  0  0  0
  -20.6420  -28.3540   23.2180 C   0  0  0  0  0  3  0  0  0  0  0  0
  -20.7490  -26.9160   22.6570 C   0  0  0  0  0  2  0  0  0  0  0  0
  -19.6430  -26.5750   21.6520 C   0  0  0  0  0  2  0  0  0  0  0  0
  -18.2640  -26.7150   22.3060 C   0  0  0  0  0  2  0  0  0  0  0  0
  -19.1980  -28.8430   23.3870 C   0  0  0  0  0  0  0  0  0  0  0  0
  -18.9710  -30.1060   23.9770 C   0  0  0  0  0  3  0  0  0  0  0  0
  -17.6640  -30.5940   24.1550 C   0  0  0  0  0  3  0  0  0  0  0  0
  -16.5620  -29.8160   23.7570 C   0  0  0  0  0  3  0  0  0  0  0  0
  -16.7720  -28.5540   23.1710 C   0  0  0  0  0  3  0  0  0  0  0  0
  -25.9570  -32.4940   23.7950 C   0  0  0  0  0  3  0  0  0  0  0  0
  -26.4800  -31.7360   25.0780 C   0  0  1  0  0  0  0  0  0  0  0  0
  -25.3920  -31.5100   26.1550 C   0  0  0  0  0  1  0  0  0  0  0  0
  -27.0660  -30.3560   24.7040 C   0  0  0  0  0  1  0  0  0  0  0  0
  -27.6310  -32.5380   25.7280 C   0  0  0  0  0  1  0  0  0  0  0  0
  -25.6370  -33.8920   24.1340 N   0  0  0  0  0  0  0  0  0  0  0  0
  -25.9600  -34.9590   23.3900 C   0  0  0  0  0  0  0  0  0  0  0  0
  -26.6210  -34.8710   22.3520 O   0  0  0  0  0  0  0  0  0  0  0  0
  -25.0460  -34.0320   24.9400 H   0  0  0  0  0  0  0  0  0  0  0  0
  -24.2310  -36.7650   23.0780 C   0  0  0  0  0  1  0  0  0  0  0  0
  -25.4780  -36.3430   23.8710 C   0  0  0  0  0  3  0  0  0  0  0  0
  -27.6180  -37.2240   24.6980 C   0  0  0  0  0  1  0  0  0  0  0  0
  -26.5090  -37.4000   23.7660 N   0  0  0  0  0  0  0  0  0  0  0  0
  -26.1000  -38.3170   23.9300 H   0  0  0  0  0  0  0  0  0  0  0  0
  -28.9980  -19.8810   20.5080 C   0  0  0  0  0  3  0  0  0  0  0  0
  -29.7870  -18.2990   19.9800 C   0  0  0  0  0  3  0  0  0  0  0  0
  -30.3950  -15.3680   20.2390 C   0  0  0  0  0  0  0  0  0  0  0  0
  -30.3970  -12.8980   19.3990 C   0  0  0  0  0  2  0  0  0  0  0  0
  -29.4890  -12.6810   18.1600 C   0  0  0  0  0  2  0  0  0  0  0  0
  -28.0370  -12.4030   18.5860 C   0  0  0  0  0  2  0  0  0  0  0  0
  -27.5760  -13.3600   19.7160 C   0  0  0  0  0  3  0  0  0  0  0  0
  -28.6150  -13.5240   20.8470 C   0  0  0  0  0  2  0  0  0  0  0  0
  -29.8420  -14.0470   20.2210 N   0  0  0  0  0  0  0  0  0  0  0  0
  -31.6030  -15.3620   19.9580 O   0  0  0  0  0  0  0  0  0  0  0  0
  -29.6340  -16.6550   20.3790 N   0  0  0  0  0  0  0  0  0  0  0  0
  -28.6880  -16.4480   20.6630 H   0  0  0  0  0  0  0  0  0  0  0  0
  -25.2020  -13.9160   20.4580 C   0  0  0  0  0  0  0  0  0  0  0  0
  -24.1390  -13.1420   20.8300 C   0  0  0  0  0  0  0  0  0  0  0  0
  -24.6080  -11.7920   20.8070 C   0  0  0  0  0  0  0  0  0  0  0  0
  -26.2450  -13.0410   20.2180 N   0  0  0  0  0  0  0  0  0  0  0  0
  -25.9000  -11.7570   20.4960 N   0  0  0  0  0  0  0  0  0  0  0  0
  -23.8800  -10.5300   21.0030 C   0  0  0  0  0  0  0  0  0  0  0  0
  -24.3030   -9.5640   21.9430 C   0  0  0  0  0  3  0  0  0  0  0  0
  -23.5680   -8.3730   22.1250 C   0  0  0  0  0  3  0  0  0  0  0  0
  -22.3970   -8.1370   21.3670 C   0  0  0  0  0  0  0  0  0  0  0  0
  -21.9940   -9.0900   20.4140 C   0  0  0  0  0  3  0  0  0  0  0  0
  -22.7300  -10.2730   20.2300 C   0  0  0  0  0  3  0  0  0  0  0  0
  -21.6380   -6.9940   21.4560 O   0  0  0  0  0  0  0  0  0  0  0  0
  -21.5760   -6.2580   22.6120 C   0  0  0  0  0  0  0  0  0  0  0  0
  -21.1350   -6.8190   23.8310 C   0  0  0  0  0  3  0  0  0  0  0  0
  -21.0190   -6.0090   24.9780 C   0  0  0  0  0  3  0  0  0  0  0  0
  -21.3380   -4.6390   24.9100 C   0  0  0  0  0  0  0  0  0  0  0  0
  -21.7740   -4.0780   23.6960 C   0  0  0  0  0  3  0  0  0  0  0  0
  -21.8910   -4.8840   22.5510 C   0  0  0  0  0  0  0  0  0  0  0  0
  -22.2890   -4.3330   21.3790 F   0  0  0  0  0  0  0  0  0  0  0  0
  -21.2220   -3.8600   26.0100 F   0  0  0  0  0  0  0  0  0  0  0  0
  -22.7420  -13.6230   21.0900 C   0  0  0  0  0  0  0  0  0  0  0  0
  -22.0050  -12.9320   21.9510 N   0  0  0  0  0  0  0  0  0  0  0  0
  -22.3130  -14.6500   20.5650 O   0  0  0  0  0  0  0  0  0  0  0  0
  -22.3650  -12.1080   22.4060 H   0  0  0  0  0  0  0  0  0  0  0  0
  -21.0660  -13.2380   22.1630 H   0  0  0  0  0  0  0  0  0  0  0  0
  -25.3630  -15.2870   20.2740 N   0  0  0  0  0  0  0  0  0  0  0  0
  -24.5890  -15.9340   20.3690 H   0  0  0  0  0  0  0  0  0  0  0  0
  -26.1960  -15.7180   19.8940 H   0  0  0  0  0  0  0  0  0  0  0  0
  1  3  2  0
  1  2  1  0
  2  4  2  0
  3  6  1  0
  4  5  1  0
  4 52  1  0
  5  8  1  0
  6 11  1  0
  6  5  2  0
  7  3  1  0
  9 10  1  0
 10  2  1  0
 12 23  2  0
 13 11  1  0
 13 18  1  0
 14 22  1  0
 14 24  1  0
 15 21  1  0
 15 17  1  0
 16 22  1  0
 17 18  2  0
 17 16  1  0
 19 13  2  0
 20 19  1  0
 20 15  2  0
 21 14  1  0
 22 12  1  0
 24 26  2  0
 25 24  1  0
 27 25  1  0
 28 37  2  0
 28 33  1  0
 29 25  1  0
 29 33  1  0
 30 29  1  0
 31 32  1  0
 31 30  1  0
 32 28  1  0
 33 34  2  0
 34 35  1  0
 36 35  2  0
 37 36  1  0
 38 12  1  0
 38 43  1  0
 38 39  1  0
 39 42  1  1
 39 40  1  0
 41 39  1  0
 43 46  1  0
 44 48  1  0
 44 43  1  0
 45 44  2  0
 48 47  1  0
 50 48  1  0
 50 51  1  0
 50 49  1  0
 53 62  1  0
 53 52  2  0
 54 62  1  0
 55 60  1  0
 56 57  1  0
 56 55  1  0
 58 57  1  0
 58 67  1  0
 58 59  1  0
 60 54  1  0
 60 59  1  0
 61 54  2  0
 62 63  1  0
 64 65  2  0
 65 84  1  0
 66 65  1  0
 66 69  1  0
 67 64  1  0
 67 68  1  0
 68 66  2  0
 69 70  1  0
 70 71  2  0
 72 75  1  0
 72 71  1  0
 73 72  2  0
 74 73  1  0
 74 69  2  0
 75 76  1  0
 76 77  1  0
 77 78  2  0
 79 78  1  0
 79 83  1  0
 80 79  2  0
 81 76  2  0
 81 80  1  0
 82 81  1  0
 84 85  1  0
 85 88  1  0
 85 87  1  0
 86 84  2  0
 89 90  1  0
 89 64  1  0
 91 89  1  0
M  ISO  4   6 101  11 101  54 100  62 100
M  END
>  <TORSDO>  (60) 
F 19

>  <SCORE>  (60) 
-15.319

>  <name>  (60) 
59

>  <ligand_id>  (60) 
59

>  <original_smiles>  (60) 
[H]c1c([H])c([H])c2c(c1[H])C([H])([H])C([H])([H])C([H])([H])C2([H])N([H])C(=O)C1([H])N(C(=O)C([H])(N([H])C(=O)C([H])(N([H])C([H])([H])[H])C([H])([H])[H])C(C([H])([H])[H])(C([H])([H])[H])C([H])([H])[H])C([H])([H])c2c([H])c(Oc3c(C([H])([H])[H])c([H])c(C([H])([H])C([H])([H])[H])c(C([H])([H])C([H])([H])N([H])C(=O)N4C([H])([H])C([H])([H])C([H])([H])C([H])(n5nc(-c6c([H])c([H])c(Oc7c([H])c([H])c(F)c([H])c7F)c([H])c6[H])c(C(=O)N([H])[H])c5N([H])[H])C4([H])[H])c3C([H])([H])[H])c([H])c([H])c2C1([H])[H]

>  <smiles>  (60) 
[H]c1c([H])c([H])c2c(c1[H])C([H])([H])C([H])([H])C([H])([H])C2([H])N([H])C(=O)C1([H])N(C(=O)C([H])(N([H])C(=O)C([H])(N([H])C([H])([H])[H])C([H])([H])[H])C(C([H])([H])[H])(C([H])([H])[H])C([H])([H])[H])C([H])([H])c2c([H])c(Oc3c(C([H])([H])[H])c([H])c(C([H])([H])C([H])([H])[H])c(C([H])([H])C([H])([H])N([H])C(=O)N4C([H])([H])C([H])([H])C([H])([H])C([H])(n5nc(-c6c([H])c([H])c(Oc7c([H])c([H])c(F)c([H])c7F)c([H])c6[H])c(C(=O)N([H])[H])c5N([H])[H])C4([H])[H])c3C([H])([H])[H])c([H])c([H])c2C1([H])[H]

$$$$
60:0:0
     RDKit          3D

 94103  0  0  1  0  0  0  0  0999 V2000
  -30.6810  -17.9980   21.8740 C   0  0  0  0  0  3  0  0  0  0  0  0
  -29.8990  -19.0710   19.5050 C   0  0  0  0  0  0  0  0  0  0  0  0
  -29.7300  -17.4430   19.7480 C   0  0  0  0  0  0  0  0  0  0  0  0
  -31.0470  -19.6780   20.1320 C   0  0  0  0  0  0  0  0  0  0  0  0
  -29.6320  -17.3970   21.1560 C   0  0  0  0  0  0  0  0  0  0  0  0
  -31.5220  -18.9660   21.2840 C   0  0  0  0  0  0  0  0  0  0  0  0
  -28.8330  -20.4950   19.5570 C   0  0  0  0  0  0  0  0  0  0  0  0
  -30.6230  -22.1350   18.9380 C   0  0  0  0  0  2  0  0  0  0  0  0
  -31.5270  -21.1830   19.8450 C   0  0  1  0  0  0  0  0  0  0  0  0
  -29.0840  -22.2570   19.1690 C   0  0  1  0  0  0  0  0  0  0  0  0
  -28.6780  -16.5050   21.9180 C   0  0  0  0  0  1  0  0  0  0  0  0
  -32.7730  -19.2830   22.0890 C   0  0  0  0  0  1  0  0  0  0  0  0
  -31.6830  -22.0040   21.1520 C   0  0  0  0  0  1  0  0  0  0  0  0
  -32.8790  -21.1240   19.0990 C   0  0  0  0  0  1  0  0  0  0  0  0
  -28.4400  -22.3340   17.7640 C   0  0  0  0  0  1  0  0  0  0  0  0
  -27.6700  -20.2530   19.8890 O   0  0  0  0  0  0  0  0  0  0  0  0
  -30.4610  -15.8750   19.2820 C   0  0  0  0  0  0  0  0  0  0  0  0
  -30.5600  -13.3040   18.4970 C   0  0  0  0  0  2  0  0  0  0  0  0
  -29.5370  -12.8720   17.3990 C   0  0  0  0  0  2  0  0  0  0  0  0
  -28.1790  -12.4900   18.0100 C   0  0  0  0  0  2  0  0  0  0  0  0
  -27.7840  -13.4830   19.1220 C   0  0  0  0  0  3  0  0  0  0  0  0
  -28.9350  -13.7850   20.1000 C   0  0  0  0  0  2  0  0  0  0  0  0
  -30.0170  -14.4690   19.3440 N   0  0  0  0  0  0  0  0  0  0  0  0
  -31.6100  -15.8540   18.7970 O   0  0  0  0  0  0  0  0  0  0  0  0
  -25.5780  -13.9870   20.2790 C   0  0  0  0  0  0  0  0  0  0  0  0
  -24.5710  -13.1970   20.7520 C   0  0  0  0  0  0  0  0  0  0  0  0
  -25.0000  -11.8470   20.5550 C   0  0  0  0  0  0  0  0  0  0  0  0
  -26.5500  -13.1250   19.8080 N   0  0  0  0  0  0  0  0  0  0  0  0
  -26.2280  -11.8240   20.0410 N   0  0  0  0  0  0  0  0  0  0  0  0
  -24.2820  -10.5830   20.7670 C   0  0  0  0  0  0  0  0  0  0  0  0
  -24.7930   -9.5720   21.6100 C   0  0  0  0  0  3  0  0  0  0  0  0
  -24.0700   -8.3770   21.8150 C   0  0  0  0  0  3  0  0  0  0  0  0
  -22.8220   -8.1840   21.1780 C   0  0  0  0  0  0  0  0  0  0  0  0
  -22.3280   -9.1830   20.3240 C   0  0  0  0  0  3  0  0  0  0  0  0
  -23.0500  -10.3700   20.1160 C   0  0  0  0  0  3  0  0  0  0  0  0
  -22.0630   -7.0430   21.2980 O   0  0  0  0  0  0  0  0  0  0  0  0
  -21.9240   -6.3920   22.4970 C   0  0  0  0  0  0  0  0  0  0  0  0
  -21.3890   -7.0340   23.6350 C   0  0  0  0  0  3  0  0  0  0  0  0
  -21.1980   -6.3090   24.8280 C   0  0  0  0  0  3  0  0  0  0  0  0
  -21.5330   -4.9430   24.8840 C   0  0  0  0  0  0  0  0  0  0  0  0
  -22.0620   -4.3000   23.7500 C   0  0  0  0  0  3  0  0  0  0  0  0
  -22.2540   -5.0230   22.5600 C   0  0  0  0  0  0  0  0  0  0  0  0
  -22.7430   -4.3950   21.4630 F   0  0  0  0  0  0  0  0  0  0  0  0
  -21.3450   -4.2430   26.0270 F   0  0  0  0  0  0  0  0  0  0  0  0
  -23.2410  -13.6690   21.2630 C   0  0  0  0  0  0  0  0  0  0  0  0
  -22.6580  -12.9490   22.2140 N   0  0  0  0  0  0  0  0  0  0  0  0
  -22.7340  -14.7120   20.8520 O   0  0  0  0  0  0  0  0  0  0  0  0
  -23.0860  -12.1060   22.5670 H   0  0  0  0  0  0  0  0  0  0  0  0
  -21.7720  -13.2460   22.5960 H   0  0  0  0  0  0  0  0  0  0  0  0
  -25.7410  -15.3670   20.1790 N   0  0  0  0  0  0  0  0  0  0  0  0
  -25.0170  -16.0170   20.4630 H   0  0  0  0  0  0  0  0  0  0  0  0
  -26.5360  -15.8230   19.7510 H   0  0  0  0  0  0  0  0  0  0  0  0
  -28.4290  -23.9930   19.7900 C   0  0  0  0  0  2  0  0  0  0  0  0
  -28.4060  -25.7330   19.4660 O   0  0  0  0  0  0  0  0  0  0  0  0
  -24.5410  -31.5850   22.8850 C   0  0  0  0  0  0  0  0  0  0  0  0
  -27.3560  -26.8790   19.5610 C   0  0  0  0  0  0  0  0  0  0  0  0
  -23.4510  -30.2790   21.1120 C   0  0  0  0  0  3  0  0  0  0  0  0
  -24.9980  -28.8100   19.6120 C   0  0  0  0  0  0  0  0  0  0  0  0
  -26.0230  -30.5400   21.0640 C   0  0  0  0  0  2  0  0  0  0  0  0
  -26.1650  -29.1680   20.2980 C   0  0  0  0  0  0  0  0  0  0  0  0
  -27.3300  -28.2350   20.2350 C   0  0  0  0  0  3  0  0  0  0  0  0
  -26.1420  -26.7300   18.8440 C   0  0  0  0  0  3  0  0  0  0  0  0
  -25.0240  -27.6200   18.8650 C   0  0  0  0  0  3  0  0  0  0  0  0
  -23.7500  -29.7050   19.6980 C   0  0  0  0  0  2  0  0  0  0  0  0
  -24.6930  -30.8300   21.7420 N   0  0  0  0  0  0  0  0  0  0  0  0
  -23.4250  -31.7950   23.3910 O   0  0  0  0  0  0  0  0  0  0  0  0
  -22.7570  -29.1950   21.9820 C   0  0  0  0  0  0  0  0  0  0  0  0
  -21.4190  -29.0720   21.8910 N   0  0  0  0  0  0  0  0  0  0  0  0
  -23.4350  -28.4660   22.7110 O   0  0  0  0  0  0  0  0  0  0  0  0
  -20.9220  -29.7100   21.2880 H   0  0  0  0  0  0  0  0  0  0  0  0
  -18.0230  -27.9340   22.5130 C   0  0  0  0  0  0  0  0  0  0  0  0
  -20.6080  -28.0540   22.5740 C   0  0  0  0  0  3  0  0  0  0  0  0
  -20.5800  -26.7340   21.7690 C   0  0  0  0  0  2  0  0  0  0  0  0
  -19.3800  -26.6300   20.8220 C   0  0  0  0  0  2  0  0  0  0  0  0
  -18.0690  -26.7160   21.6060 C   0  0  0  0  0  2  0  0  0  0  0  0
  -19.2140  -28.5730   22.9540 C   0  0  0  0  0  0  0  0  0  0  0  0
  -19.1110  -29.7180   23.7730 C   0  0  0  0  0  3  0  0  0  0  0  0
  -17.8520  -30.2250   24.1480 C   0  0  0  0  0  3  0  0  0  0  0  0
  -16.6780  -29.5830   23.7170 C   0  0  0  0  0  3  0  0  0  0  0  0
  -16.7650  -28.4390   22.9060 C   0  0  0  0  0  3  0  0  0  0  0  0
  -25.7590  -32.2330   23.6090 C   0  0  0  0  0  3  0  0  0  0  0  0
  -25.4010  -33.6200   23.9640 N   0  0  0  0  0  0  0  0  0  0  0  0
  -25.7670  -34.7120   23.2800 C   0  0  0  0  0  0  0  0  0  0  0  0
  -26.4990  -34.6590   22.2890 O   0  0  0  0  0  0  0  0  0  0  0  0
  -24.7540  -33.7330   24.7310 H   0  0  0  0  0  0  0  0  0  0  0  0
  -24.0560  -36.5240   22.8990 C   0  0  0  0  0  1  0  0  0  0  0  0
  -25.2430  -36.0800   23.7690 C   0  0  0  0  0  3  0  0  0  0  0  0
  -27.2970  -36.9540   24.7970 C   0  0  0  0  0  1  0  0  0  0  0  0
  -26.2740  -37.1420   23.7720 N   0  0  0  0  0  0  0  0  0  0  0  0
  -25.8510  -38.0560   23.9100 H   0  0  0  0  0  0  0  0  0  0  0  0
  -26.1970  -31.4460   24.9070 C   0  0  1  0  0  0  0  0  0  0  0  0
  -25.0370  -31.1790   25.8960 C   0  0  0  0  0  1  0  0  0  0  0  0
  -26.8210  -30.0800   24.5450 C   0  0  0  0  0  1  0  0  0  0  0  0
  -27.2900  -32.2410   25.6580 C   0  0  0  0  0  1  0  0  0  0  0  0
  2  7  1  0
  2  3  2  3
  2  4  1  0
  3  5  1  0
  4  6  2  0
  5  1  2  0
  5 11  1  0
  6  1  1  0
  6 12  1  0
  7 16  2  0
  8 10  1  0
  8  9  1  0
  9  4  1  0
  9 13  1  1
 10 15  1  6
 10  7  1  0
 10 53  1  0
 14  9  1  0
 17 23  1  0
 17  3  1  0
 18 23  1  0
 19 20  1  0
 19 18  1  0
 21 20  1  0
 21 28  1  0
 21 22  1  0
 23 22  1  0
 24 17  2  0
 25 26  2  0
 26 45  1  0
 27 26  1  0
 27 30  1  0
 28 29  1  0
 28 25  1  0
 29 27  2  0
 30 31  1  0
 31 32  2  0
 33 36  1  0
 33 32  1  0
 34 33  2  0
 35 34  1  0
 35 30  2  0
 36 37  1  0
 37 42  2  0
 37 38  1  0
 38 39  2  0
 39 40  1  0
 40 44  1  0
 41 40  2  0
 42 41  1  0
 43 42  1  0
 45 46  1  0
 46 48  1  0
 46 49  1  0
 47 45  2  0
 50 25  1  0
 50 51  1  0
 52 50  1  0
 54 56  1  0
 54 53  1  0
 55 66  2  0
 56 61  1  0
 57 65  1  0
 57 67  1  0
 58 64  1  0
 58 60  1  0
 59 65  1  0
 60 59  1  0
 61 60  2  0
 62 63  1  0
 62 56  2  0
 63 58  2  0
 64 57  1  0
 65 55  1  0
 67 69  2  0
 68 67  1  0
 70 68  1  0
 71 80  2  0
 71 76  1  0
 72 68  1  0
 72 76  1  0
 73 72  1  0
 74 75  1  0
 74 73  1  0
 75 71  1  0
 76 77  2  0
 77 78  1  0
 79 78  2  0
 80 79  1  0
 81 55  1  0
 81 82  1  0
 81 91  1  0
 82 85  1  0
 83 87  1  0
 83 82  1  0
 84 83  2  0
 87 86  1  0
 87 89  1  0
 89 90  1  0
 89 88  1  0
 91 94  1  1
 91 92  1  0
 93 91  1  0
M  ISO  4   3 100  17 100  53 101  54 101
M  END
>  <TORSDO>  (61) 
F 17

>  <SCORE>  (61) 
-13.331

>  <name>  (61) 
60

>  <ligand_id>  (61) 
60

>  <original_smiles>  (61) 
[H]c1c([H])c([H])c2c(c1[H])C([H])([H])C([H])([H])C([H])([H])C2([H])N([H])C(=O)C1([H])N(C(=O)C([H])(N([H])C(=O)C([H])(N([H])C([H])([H])[H])C([H])([H])[H])C(C([H])([H])[H])(C([H])([H])[H])C([H])([H])[H])C([H])([H])c2c([H])c(OC([H])([H])C3(C([H])([H])[H])C(=O)c4c(C(=O)N5C([H])([H])C([H])([H])C([H])([H])C([H])(n6nc(-c7c([H])c([H])c(Oc8c([H])c([H])c(F)c([H])c8F)c([H])c7[H])c(C(=O)N([H])[H])c6N([H])[H])C5([H])[H])c(C([H])([H])[H])c([H])c(C([H])([H])[H])c4C(C([H])([H])[H])(C([H])([H])[H])C3([H])[H])c([H])c([H])c2C1([H])[H]

>  <smiles>  (61) 
[H]c1c([H])c([H])c2c(c1[H])C([H])([H])C([H])([H])C([H])([H])C2([H])N([H])C(=O)C1([H])N(C(=O)C([H])(N([H])C(=O)C([H])(N([H])C([H])([H])[H])C([H])([H])[H])C(C([H])([H])[H])(C([H])([H])[H])C([H])([H])[H])C([H])([H])c2c([H])c(OC([H])([H])C3(C([H])([H])[H])C(=O)c4c(C(=O)N5C([H])([H])C([H])([H])C([H])([H])C([H])(n6nc(-c7c([H])c([H])c(Oc8c([H])c([H])c(F)c([H])c8F)c([H])c7[H])c(C(=O)N([H])[H])c6N([H])[H])C5([H])[H])c(C([H])([H])[H])c([H])c(C([H])([H])[H])c4C(C([H])([H])[H])(C([H])([H])[H])C3([H])[H])c([H])c([H])c2C1([H])[H]

$$$$
61:0:0
     RDKit          3D

 91 99  0  0  1  0  0  0  0  0999 V2000
  -29.4500  -22.4270   18.6220 C   0  0  0  0  0  3  0  0  0  0  0  0
  -29.6330  -23.6760   17.9790 C   0  0  0  0  0  0  0  0  0  0  0  0
  -28.8020  -22.2860   19.8610 C   0  0  0  0  0  0  0  0  0  0  0  0
  -29.1680  -24.8970   18.5570 C   0  0  0  0  0  0  0  0  0  0  0  0
  -28.3320  -23.5780   20.4420 C   0  0  0  0  0  0  0  0  0  0  0  0
  -28.4980  -24.9210   19.8090 C   0  0  0  0  0  0  0  0  0  0  0  0
  -29.4150  -26.2400   17.8720 C   0  0  0  0  0  1  0  0  0  0  0  0
  -27.6330  -23.5280   21.7850 C   0  0  0  0  0  1  0  0  0  0  0  0
  -29.4260  -23.8150   15.4430 C   0  0  0  0  0  1  0  0  0  0  0  0
  -30.3690  -23.6460   16.6420 C   0  0  0  0  0  2  0  0  0  0  0  0
  -28.2780  -26.2580   20.3770 O   0  0  0  0  0  0  0  0  0  0  0  0
  -24.5480  -31.8780   23.2250 C   0  0  0  0  0  0  0  0  0  0  0  0
  -27.1940  -27.1910   20.2230 C   0  0  0  0  0  0  0  0  0  0  0  0
  -23.3710  -30.4680   21.5780 C   0  0  0  0  0  3  0  0  0  0  0  0
  -24.8430  -28.8980   20.1630 C   0  0  0  0  0  0  0  0  0  0  0  0
  -25.9190  -30.7580   21.4300 C   0  0  0  0  0  2  0  0  0  0  0  0
  -26.0080  -29.3660   20.7820 C   0  0  0  0  0  0  0  0  0  0  0  0
  -27.1780  -28.5240   20.7990 C   0  0  0  0  0  3  0  0  0  0  0  0
  -26.0060  -26.8130   19.5640 C   0  0  0  0  0  3  0  0  0  0  0  0
  -24.8540  -27.6370   19.5390 C   0  0  0  0  0  3  0  0  0  0  0  0
  -23.6060  -29.7830   20.2020 C   0  0  0  0  0  2  0  0  0  0  0  0
  -24.6320  -31.0570   22.1340 N   0  0  0  0  0  0  0  0  0  0  0  0
  -23.4560  -32.1570   23.7450 O   0  0  0  0  0  0  0  0  0  0  0  0
  -22.6920  -29.4620   22.5400 C   0  0  0  0  0  0  0  0  0  0  0  0
  -21.3660  -29.2840   22.4060 N   0  0  0  0  0  0  0  0  0  0  0  0
  -23.3620  -28.8420   23.3700 O   0  0  0  0  0  0  0  0  0  0  0  0
  -20.8820  -29.8370   21.7110 H   0  0  0  0  0  0  0  0  0  0  0  0
  -17.9860  -28.0770   22.8950 C   0  0  0  0  0  0  0  0  0  0  0  0
  -20.5440  -28.3450   23.1730 C   0  0  0  0  0  3  0  0  0  0  0  0
  -20.6500  -26.9150   22.5970 C   0  0  0  0  0  2  0  0  0  0  0  0
  -19.5540  -26.5900   21.5780 C   0  0  0  0  0  2  0  0  0  0  0  0
  -18.1690  -26.7300   22.2160 C   0  0  0  0  0  2  0  0  0  0  0  0
  -19.1020  -28.8430   23.3300 C   0  0  0  0  0  0  0  0  0  0  0  0
  -18.8760  -30.1030   23.9260 C   0  0  0  0  0  3  0  0  0  0  0  0
  -17.5680  -30.5980   24.0900 C   0  0  0  0  0  3  0  0  0  0  0  0
  -16.4680  -29.8300   23.6710 C   0  0  0  0  0  3  0  0  0  0  0  0
  -16.6780  -28.5720   23.0790 C   0  0  0  0  0  3  0  0  0  0  0  0
  -25.8180  -32.5240   23.8620 C   0  0  0  0  0  3  0  0  0  0  0  0
  -25.5010  -33.9280   24.1710 N   0  0  0  0  0  0  0  0  0  0  0  0
  -25.8520  -34.9760   23.4140 C   0  0  0  0  0  0  0  0  0  0  0  0
  -26.5430  -34.8640   22.3980 O   0  0  0  0  0  0  0  0  0  0  0  0
  -24.8900  -34.0890   24.9580 H   0  0  0  0  0  0  0  0  0  0  0  0
  -24.1490  -36.7820   23.0010 C   0  0  0  0  0  1  0  0  0  0  0  0
  -25.3610  -36.3710   23.8530 C   0  0  0  0  0  3  0  0  0  0  0  0
  -27.4690  -37.2510   24.7540 C   0  0  0  0  0  1  0  0  0  0  0  0
  -26.4040  -37.4160   23.7690 N   0  0  0  0  0  0  0  0  0  0  0  0
  -25.9980  -38.3400   23.8920 H   0  0  0  0  0  0  0  0  0  0  0  0
  -26.3110  -31.7740   25.1610 C   0  0  1  0  0  0  0  0  0  0  0  0
  -25.1980  -31.5530   26.2120 C   0  0  0  0  0  1  0  0  0  0  0  0
  -26.9030  -30.3910   24.8050 C   0  0  0  0  0  1  0  0  0  0  0  0
  -27.4470  -32.5810   25.8320 C   0  0  0  0  0  1  0  0  0  0  0  0
  -28.5410  -20.7230   20.3430 C   0  0  0  0  0  2  0  0  0  0  0  0
  -29.6390  -19.4380   20.3940 C   0  0  0  0  0  2  0  0  0  0  0  0
  -29.3830  -17.8090   19.9840 C   0  0  0  0  0  2  0  0  0  0  0  0
  -29.8260  -16.4030   20.8180 C   0  0  0  0  0  2  0  0  0  0  0  0
  -30.4950  -14.9930   20.2340 C   0  0  0  0  0  0  0  0  0  0  0  0
  -30.3710  -12.6460   19.2660 C   0  0  0  0  0  2  0  0  0  0  0  0
  -29.4080  -12.6310   18.0550 C   0  0  0  0  0  2  0  0  0  0  0  0
  -27.9570  -12.4050   18.5180 C   0  0  0  0  0  2  0  0  0  0  0  0
  -27.5810  -13.3010   19.7280 C   0  0  0  0  0  3  0  0  0  0  0  0
  -28.6640  -13.2880   20.8260 C   0  0  0  0  0  2  0  0  0  0  0  0
  -29.9230  -13.7190   20.2040 N   0  0  0  0  0  0  0  0  0  0  0  0
  -31.6410  -15.0720   19.7790 O   0  0  0  0  0  0  0  0  0  0  0  0
  -25.2130  -13.8420   20.5340 C   0  0  0  0  0  0  0  0  0  0  0  0
  -24.1680  -13.0500   20.9220 C   0  0  0  0  0  0  0  0  0  0  0  0
  -24.6460  -11.7050   20.8620 C   0  0  0  0  0  0  0  0  0  0  0  0
  -26.2590  -12.9800   20.2550 N   0  0  0  0  0  0  0  0  0  0  0  0
  -25.9290  -11.6880   20.5170 N   0  0  0  0  0  0  0  0  0  0  0  0
  -23.9380  -10.4330   21.0570 C   0  0  0  0  0  0  0  0  0  0  0  0
  -24.3840   -9.4730   21.9930 C   0  0  0  0  0  3  0  0  0  0  0  0
  -23.6750   -8.2680   22.1760 C   0  0  0  0  0  3  0  0  0  0  0  0
  -22.5030   -8.0120   21.4240 C   0  0  0  0  0  0  0  0  0  0  0  0
  -22.0750   -8.9600   20.4770 C   0  0  0  0  0  3  0  0  0  0  0  0
  -22.7870  -10.1570   20.2930 C   0  0  0  0  0  3  0  0  0  0  0  0
  -21.7630   -6.8570   21.5170 O   0  0  0  0  0  0  0  0  0  0  0  0
  -21.7150   -6.1250   22.6750 C   0  0  0  0  0  0  0  0  0  0  0  0
  -21.2260   -6.6710   23.8820 C   0  0  0  0  0  3  0  0  0  0  0  0
  -21.1290   -5.8620   25.0320 C   0  0  0  0  0  3  0  0  0  0  0  0
  -21.5090   -4.5080   24.9750 C   0  0  0  0  0  0  0  0  0  0  0  0
  -21.9900   -3.9610   23.7730 C   0  0  0  0  0  3  0  0  0  0  0  0
  -22.0880   -4.7670   22.6250 C   0  0  0  0  0  0  0  0  0  0  0  0
  -22.5320   -4.2290   21.4640 F   0  0  0  0  0  0  0  0  0  0  0  0
  -21.4080   -3.7280   26.0780 F   0  0  0  0  0  0  0  0  0  0  0  0
  -22.7740  -13.5080   21.2350 C   0  0  0  0  0  0  0  0  0  0  0  0
  -22.0740  -12.7900   22.1070 N   0  0  0  0  0  0  0  0  0  0  0  0
  -22.3140  -14.5380   20.7440 O   0  0  0  0  0  0  0  0  0  0  0  0
  -22.4610  -11.9570   22.5250 H   0  0  0  0  0  0  0  0  0  0  0  0
  -21.1400  -13.0790   22.3610 H   0  0  0  0  0  0  0  0  0  0  0  0
  -25.3570  -15.2170   20.3700 N   0  0  0  0  0  0  0  0  0  0  0  0
  -24.5900  -15.8630   20.5160 H   0  0  0  0  0  0  0  0  0  0  0  0
  -26.2000  -15.6710   20.0390 H   0  0  0  0  0  0  0  0  0  0  0  0
  1  3  1  0
  2  4  1  0
  2  1  2  0
  3 52  1  0
  3  5  2  0
  4  6  2  0
  5  8  1  0
  6 11  1  0
  6  5  1  0
  7  4  1  0
  9 10  1  0
 10  2  1  0
 12 23  2  0
 13 11  1  0
 13 18  1  0
 14 22  1  0
 14 24  1  0
 15 21  1  0
 15 17  1  0
 16 22  1  0
 17 18  2  0
 17 16  1  0
 19 13  2  0
 20 19  1  0
 20 15  2  0
 21 14  1  0
 22 12  1  0
 24 26  2  0
 25 24  1  0
 27 25  1  0
 28 37  2  0
 28 33  1  0
 29 25  1  0
 29 33  1  0
 30 29  1  0
 31 32  1  0
 31 30  1  0
 32 28  1  0
 33 34  2  0
 34 35  1  0
 36 35  2  0
 37 36  1  0
 38 12  1  0
 38 39  1  0
 38 48  1  0
 39 42  1  0
 40 44  1  0
 40 39  1  0
 41 40  2  0
 44 43  1  0
 46 44  1  0
 46 47  1  0
 46 45  1  0
 48 51  1  1
 48 49  1  0
 50 48  1  0
 52 53  1  0
 54 53  1  0
 54 55  1  0
 56 55  1  0
 57 62  1  0
 58 59  1  0
 58 57  1  0
 60 59  1  0
 60 67  1  0
 60 61  1  0
 62 56  1  0
 62 61  1  0
 63 56  2  0
 64 65  2  0
 65 84  1  0
 66 65  1  0
 66 69  1  0
 67 68  1  0
 67 64  1  0
 68 66  2  0
 69 70  1  0
 70 71  2  0
 72 75  1  0
 72 71  1  0
 73 72  2  0
 74 73  1  0
 74 69  2  0
 75 76  1  0
 76 77  1  0
 77 78  2  0
 79 78  1  0
 79 83  1  0
 80 79  2  0
 81 76  2  0
 81 80  1  0
 82 81  1  0
 84 85  1  0
 85 88  1  0
 85 87  1  0
 86 84  2  0
 89 90  1  0
 89 64  1  0
 91 89  1  0
M  ISO  4   6 101  11 101  55 100  56 100
M  END
>  <TORSDO>  (62) 
F 21

>  <SCORE>  (62) 
-14.042

>  <name>  (62) 
61

>  <ligand_id>  (62) 
61

>  <original_smiles>  (62) 
[H]c1c([H])c([H])c2c(c1[H])C([H])([H])C([H])([H])C([H])([H])C2([H])N([H])C(=O)C1([H])N(C(=O)C([H])(N([H])C(=O)C([H])(N([H])C([H])([H])[H])C([H])([H])[H])C(C([H])([H])[H])(C([H])([H])[H])C([H])([H])[H])C([H])([H])c2c([H])c(Oc3c(C([H])([H])[H])c(C([H])([H])C([H])([H])[H])c([H])c(C([H])([H])C([H])([H])C([H])([H])C([H])([H])C(=O)N4C([H])([H])C([H])([H])C([H])([H])C([H])(n5nc(-c6c([H])c([H])c(Oc7c([H])c([H])c(F)c([H])c7F)c([H])c6[H])c(C(=O)N([H])[H])c5N([H])[H])C4([H])[H])c3C([H])([H])[H])c([H])c([H])c2C1([H])[H]

>  <smiles>  (62) 
[H]c1c([H])c([H])c2c(c1[H])C([H])([H])C([H])([H])C([H])([H])C2([H])N([H])C(=O)C1([H])N(C(=O)C([H])(N([H])C(=O)C([H])(N([H])C([H])([H])[H])C([H])([H])[H])C(C([H])([H])[H])(C([H])([H])[H])C([H])([H])[H])C([H])([H])c2c([H])c(Oc3c(C([H])([H])[H])c(C([H])([H])C([H])([H])[H])c([H])c(C([H])([H])C([H])([H])C([H])([H])C([H])([H])C(=O)N4C([H])([H])C([H])([H])C([H])([H])C([H])(n5nc(-c6c([H])c([H])c(Oc7c([H])c([H])c(F)c([H])c7F)c([H])c6[H])c(C(=O)N([H])[H])c5N([H])[H])C4([H])[H])c3C([H])([H])[H])c([H])c([H])c2C1([H])[H]

$$$$
62:0:0
     RDKit          3D

 93102  0  0  1  0  0  0  0  0999 V2000
  -27.6790  -22.7270   21.4610 C   0  0  0  0  0  3  0  0  0  0  0  0
  -26.8620  -23.2020   22.4850 C   0  0  0  0  0  3  0  0  0  0  0  0
  -26.6980  -25.3100   21.3300 C   0  0  0  0  0  3  0  0  0  0  0  0
  -28.0560  -23.4580   20.3080 C   0  0  0  0  0  0  0  0  0  0  0  0
  -26.3760  -24.5100   22.4340 C   0  0  0  0  0  0  0  0  0  0  0  0
  -27.4490  -24.9190   20.1850 C   0  0  0  0  0  0  0  0  0  0  0  0
  -30.4630  -23.0390   19.3940 C   0  0  0  0  0  1  0  0  0  0  0  0
  -29.0830  -22.3710   19.5120 C   0  0  0  0  0  3  0  0  0  0  0  0
  -30.7990  -15.7670   19.9980 C   0  0  0  0  0  0  0  0  0  0  0  0
  -30.7040  -13.3400   19.1580 C   0  0  0  0  0  2  0  0  0  0  0  0
  -29.7640  -13.1010   17.9580 C   0  0  0  0  0  2  0  0  0  0  0  0
  -28.3350  -12.8070   18.4460 C   0  0  0  0  0  2  0  0  0  0  0  0
  -27.8910  -13.7730   19.5760 C   0  0  0  0  0  3  0  0  0  0  0  0
  -28.9740  -13.9930   20.6580 C   0  0  0  0  0  2  0  0  0  0  0  0
  -30.1670  -14.4990   19.9600 N   0  0  0  0  0  0  0  0  0  0  0  0
  -32.0160  -15.6850   19.7850 O   0  0  0  0  0  0  0  0  0  0  0  0
  -28.3980  -19.3490   20.0250 C   0  0  0  0  0  3  0  0  0  0  0  0
  -30.6310  -19.9070   20.4250 C   0  0  0  0  0  3  0  0  0  0  0  0
  -28.8110  -17.7190   19.8840 C   0  0  0  0  0  2  0  0  0  0  0  0
  -31.1070  -18.3770   20.0310 C   0  0  0  0  0  3  0  0  0  0  0  0
  -29.3870  -20.5920   19.6920 C   0  0  0  0  0  0  0  0  0  0  0  0
  -30.2140  -17.1290   20.0920 N   0  0  0  0  0  0  0  0  0  0  0  0
  -25.5590  -14.2560   20.4860 C   0  0  0  0  0  0  0  0  0  0  0  0
  -24.5220  -13.4440   20.8560 C   0  0  0  0  0  0  0  0  0  0  0  0
  -24.9910  -12.1040   20.7030 C   0  0  0  0  0  0  0  0  0  0  0  0
  -26.5940  -13.4090   20.1330 N   0  0  0  0  0  0  0  0  0  0  0  0
  -26.2670  -12.1040   20.3300 N   0  0  0  0  0  0  0  0  0  0  0  0
  -24.2770  -10.8250   20.8340 C   0  0  0  0  0  0  0  0  0  0  0  0
  -24.7150   -9.8200   21.7250 C   0  0  0  0  0  3  0  0  0  0  0  0
  -23.9990   -8.6090   21.8470 C   0  0  0  0  0  3  0  0  0  0  0  0
  -22.8290   -8.3950   21.0800 C   0  0  0  0  0  0  0  0  0  0  0  0
  -22.4110   -9.3890   20.1780 C   0  0  0  0  0  3  0  0  0  0  0  0
  -23.1270  -10.5910   20.0530 C   0  0  0  0  0  3  0  0  0  0  0  0
  -22.0830   -7.2420   21.1170 O   0  0  0  0  0  0  0  0  0  0  0  0
  -21.9450   -6.5100   22.2700 C   0  0  0  0  0  0  0  0  0  0  0  0
  -21.3840   -7.0630   23.4430 C   0  0  0  0  0  3  0  0  0  0  0  0
  -21.1990   -6.2550   24.5830 C   0  0  0  0  0  3  0  0  0  0  0  0
  -21.5650   -4.8960   24.5510 C   0  0  0  0  0  0  0  0  0  0  0  0
  -22.1200   -4.3430   23.3830 C   0  0  0  0  0  3  0  0  0  0  0  0
  -22.3050   -5.1480   22.2450 C   0  0  0  0  0  0  0  0  0  0  0  0
  -22.8210   -4.6050   21.1160 F   0  0  0  0  0  0  0  0  0  0  0  0
  -21.3790   -4.1180   25.6430 F   0  0  0  0  0  0  0  0  0  0  0  0
  -23.1370  -13.8920   21.2230 C   0  0  0  0  0  0  0  0  0  0  0  0
  -22.4610  -13.1380   22.0840 N   0  0  0  0  0  0  0  0  0  0  0  0
  -22.6680  -14.9410   20.7870 O   0  0  0  0  0  0  0  0  0  0  0  0
  -22.8610  -12.2940   22.4640 H   0  0  0  0  0  0  0  0  0  0  0  0
  -21.5320  -13.4130   22.3740 H   0  0  0  0  0  0  0  0  0  0  0  0
  -25.7000  -15.6380   20.3880 N   0  0  0  0  0  0  0  0  0  0  0  0
  -24.9240  -16.2690   20.5540 H   0  0  0  0  0  0  0  0  0  0  0  0
  -26.5100  -16.1030   19.9970 H   0  0  0  0  0  0  0  0  0  0  0  0
  -24.4820  -24.3060   23.8750 C   0  0  0  0  0  1  0  0  0  0  0  0
  -25.5900  -25.0710   23.4120 O   0  0  0  0  0  0  0  0  0  0  0  0
  -27.4160  -26.1420   19.2860 O   0  0  0  0  0  0  0  0  0  0  0  0
  -24.4930  -32.0300   23.0130 C   0  0  0  0  0  0  0  0  0  0  0  0
  -26.4970  -27.3040   19.4370 C   0  0  0  0  0  0  0  0  0  0  0  0
  -23.0730  -30.8070   21.4170 C   0  0  0  0  0  3  0  0  0  0  0  0
  -24.2910  -29.2470   19.7560 C   0  0  0  0  0  0  0  0  0  0  0  0
  -25.6180  -30.9220   21.0230 C   0  0  0  0  0  2  0  0  0  0  0  0
  -25.5530  -29.5630   20.2780 C   0  0  0  0  0  0  0  0  0  0  0  0
  -26.6510  -28.6100   20.1050 C   0  0  0  0  0  3  0  0  0  0  0  0
  -25.2110  -27.1370   18.8790 C   0  0  0  0  0  3  0  0  0  0  0  0
  -24.1390  -28.0470   19.0430 C   0  0  0  0  0  3  0  0  0  0  0  0
  -23.1290  -30.2090   19.9840 C   0  0  0  0  0  2  0  0  0  0  0  0
  -24.4210  -31.2780   21.8690 N   0  0  0  0  0  0  0  0  0  0  0  0
  -23.4770  -32.3290   23.6620 O   0  0  0  0  0  0  0  0  0  0  0  0
  -22.4270  -29.7780   22.3820 C   0  0  0  0  0  0  0  0  0  0  0  0
  -21.1010  -29.5660   22.2710 N   0  0  0  0  0  0  0  0  0  0  0  0
  -23.1240  -29.1700   23.1980 O   0  0  0  0  0  0  0  0  0  0  0  0
  -20.5920  -30.1150   21.5930 H   0  0  0  0  0  0  0  0  0  0  0  0
  -17.7710  -28.2260   22.8010 C   0  0  0  0  0  0  0  0  0  0  0  0
  -20.3220  -28.5940   23.0440 C   0  0  0  0  0  3  0  0  0  0  0  0
  -20.4720  -27.1670   22.4650 C   0  0  0  0  0  2  0  0  0  0  0  0
  -19.3770  -26.8050   21.4570 C   0  0  0  0  0  2  0  0  0  0  0  0
  -17.9960  -26.8910   22.1110 C   0  0  0  0  0  2  0  0  0  0  0  0
  -18.8620  -29.0330   23.2260 C   0  0  0  0  0  0  0  0  0  0  0  0
  -18.5950  -30.2780   23.8350 C   0  0  0  0  0  3  0  0  0  0  0  0
  -17.2720  -30.7200   24.0230 C   0  0  0  0  0  3  0  0  0  0  0  0
  -16.1970  -29.9130   23.6110 C   0  0  0  0  0  3  0  0  0  0  0  0
  -16.4470  -28.6680   23.0090 C   0  0  0  0  0  3  0  0  0  0  0  0
  -25.8520  -32.5670   23.5550 C   0  0  0  0  0  3  0  0  0  0  0  0
  -25.6300  -33.9340   24.0570 N   0  0  0  0  0  0  0  0  0  0  0  0
  -25.9700  -35.0560   23.4070 C   0  0  0  0  0  0  0  0  0  0  0  0
  -26.5660  -35.0440   22.3280 O   0  0  0  0  0  0  0  0  0  0  0  0
  -25.0970  -34.0170   24.9090 H   0  0  0  0  0  0  0  0  0  0  0  0
  -24.3390  -36.9760   23.3730 C   0  0  0  0  0  1  0  0  0  0  0  0
  -25.5930  -36.4050   24.0560 C   0  0  0  0  0  3  0  0  0  0  0  0
  -27.8140  -37.0730   24.8680 C   0  0  0  0  0  1  0  0  0  0  0  0
  -26.6810  -37.4070   24.0070 N   0  0  0  0  0  0  0  0  0  0  0  0
  -26.3400  -38.3270   24.2730 H   0  0  0  0  0  0  0  0  0  0  0  0
  -26.4660  -31.6620   24.6940 C   0  0  1  0  0  0  0  0  0  0  0  0
  -25.4870  -31.3680   25.8550 C   0  0  0  0  0  1  0  0  0  0  0  0
  -26.9400  -30.3050   24.1280 C   0  0  0  0  0  1  0  0  0  0  0  0
  -27.7180  -32.3490   25.2880 C   0  0  0  0  0  1  0  0  0  0  0  0
  1  2  1  0
  3  5  1  0
  4  1  2  0
  5  2  2  0
  5 52  1  0
  6  4  1  0
  6  3  2  0
  8  7  1  0
  8 21  1  0
  8  4  1  0
  9 22  1  0
 10 15  1  0
 11 12  1  0
 11 10  1  0
 13 12  1  0
 13 26  1  0
 13 14  1  0
 15  9  1  0
 15 14  1  0
 16  9  2  0
 19 17  1  0
 19 22  1  0
 20 22  1  0
 20 18  2  0
 21 17  2  0
 21 18  1  0
 23 24  2  0
 24 43  1  0
 25 28  1  0
 25 24  1  0
 26 27  1  0
 26 23  1  0
 27 25  2  0
 28 29  1  0
 29 30  2  0
 31 34  1  0
 31 30  1  0
 32 31  2  0
 33 32  1  0
 33 28  2  0
 34 35  1  0
 35 36  1  0
 36 37  2  0
 38 37  1  0
 38 42  1  0
 39 38  2  0
 40 35  2  0
 40 39  1  0
 41 40  1  0
 43 44  1  0
 44 47  1  0
 44 46  1  0
 45 43  2  0
 48 23  1  0
 48 49  1  0
 50 48  1  0
 52 51  1  0
 53 55  1  0
 53  6  1  0
 54 65  2  0
 55 60  1  0
 56 64  1  0
 56 66  1  0
 57 63  1  0
 57 59  1  0
 58 64  1  0
 59 58  1  0
 60 59  2  0
 61 62  1  0
 61 55  2  0
 62 57  2  0
 63 56  1  0
 64 54  1  0
 66 68  2  0
 67 66  1  0
 69 67  1  0
 70 79  2  0
 70 75  1  0
 71 67  1  0
 71 75  1  0
 72 71  1  0
 73 74  1  0
 73 72  1  0
 74 70  1  0
 75 76  2  0
 76 77  1  0
 78 77  2  0
 79 78  1  0
 80 54  1  0
 80 81  1  0
 80 90  1  0
 81 84  1  0
 82 86  1  0
 82 81  1  0
 83 82  2  0
 86 85  1  0
 88 86  1  0
 88 89  1  0
 88 87  1  0
 90 93  1  1
 90 91  1  0
 92 90  1  0
M  ISO  4   6 101   9 100  22 100  53 101
M  END
>  <TORSDO>  (63) 
F 18

>  <SCORE>  (63) 
-12.359

>  <name>  (63) 
62

>  <ligand_id>  (63) 
62

>  <original_smiles>  (63) 
[H]c1c([H])c([H])c2c(c1[H])C([H])([H])C([H])([H])C([H])([H])C2([H])N([H])C(=O)C1([H])N(C(=O)C([H])(N([H])C(=O)C([H])(N([H])C([H])([H])[H])C([H])([H])[H])C(C([H])([H])[H])(C([H])([H])[H])C([H])([H])[H])C([H])([H])c2c([H])c(Oc3c([H])c(OC([H])([H])[H])c([H])c([H])c3C([H])(C([H])([H])[H])C3([H])C([H])([H])C([H])([H])N(C(=O)N4C([H])([H])C([H])([H])C([H])([H])C([H])(n5nc(-c6c([H])c([H])c(Oc7c([H])c([H])c(F)c([H])c7F)c([H])c6[H])c(C(=O)N([H])[H])c5N([H])[H])C4([H])[H])C([H])([H])C3([H])[H])c([H])c([H])c2C1([H])[H]

>  <smiles>  (63) 
[H]c1c([H])c([H])c2c(c1[H])C([H])([H])C([H])([H])C([H])([H])C2([H])N([H])C(=O)C1([H])N(C(=O)C([H])(N([H])C(=O)C([H])(N([H])C([H])([H])[H])C([H])([H])[H])C(C([H])([H])[H])(C([H])([H])[H])C([H])([H])[H])C([H])([H])c2c([H])c(Oc3c([H])c(OC([H])([H])[H])c([H])c([H])c3C([H])(C([H])([H])[H])C3([H])C([H])([H])C([H])([H])N(C(=O)N4C([H])([H])C([H])([H])C([H])([H])C([H])(n5nc(-c6c([H])c([H])c(Oc7c([H])c([H])c(F)c([H])c7F)c([H])c6[H])c(C(=O)N([H])[H])c5N([H])[H])C4([H])[H])C([H])([H])C3([H])[H])c([H])c([H])c2C1([H])[H]

$$$$
63:0:0
     RDKit          3D

 95104  0  0  1  0  0  0  0  0999 V2000
  -29.1140  -23.0570   20.4910 C   0  0  0  0  0  3  0  0  0  0  0  0
  -28.6890  -23.1240   17.8460 C   0  0  0  0  0  0  0  0  0  0  0  0
  -28.6760  -24.3700   18.5320 C   0  0  0  0  0  0  0  0  0  0  0  0
  -29.3170  -21.6820   19.7640 C   0  0  0  0  0  0  0  0  0  0  0  0
  -28.9160  -21.8280   18.4080 C   0  0  0  0  0  0  0  0  0  0  0  0
  -28.6700  -24.4640   19.9650 C   0  0  0  0  0  0  0  0  0  0  0  0
  -28.6500  -23.3610   16.3540 C   0  0  0  0  0  2  0  0  0  0  0  0
  -29.3220  -24.7170   16.2140 C   0  0  0  0  0  2  0  0  0  0  0  0
  -28.9620  -25.5000   17.5000 C   0  0  1  0  0  0  0  0  0  0  0  0
  -27.7940  -26.4300   17.1140 C   0  0  0  0  0  1  0  0  0  0  0  0
  -30.1630  -26.3640   17.9250 C   0  0  0  0  0  1  0  0  0  0  0  0
  -30.1150  -20.2280   16.7540 C   0  0  0  0  0  1  0  0  0  0  0  0
  -28.8180  -20.6010   17.4970 C   0  0  0  0  0  2  0  0  0  0  0  0
  -28.5120  -25.8690   20.6250 O   0  0  0  0  0  0  0  0  0  0  0  0
  -24.7130  -31.9360   23.2870 C   0  0  0  0  0  0  0  0  0  0  0  0
  -27.4570  -26.9460   20.5530 C   0  0  0  0  0  0  0  0  0  0  0  0
  -23.5940  -30.4390   21.6900 C   0  0  0  0  0  3  0  0  0  0  0  0
  -25.1080  -28.7910   20.3980 C   0  0  0  0  0  0  0  0  0  0  0  0
  -26.1660  -30.6930   21.5950 C   0  0  0  0  0  2  0  0  0  0  0  0
  -26.2830  -29.2520   21.0020 C   0  0  0  0  0  0  0  0  0  0  0  0
  -27.4550  -28.3550   21.0370 C   0  0  0  0  0  3  0  0  0  0  0  0
  -26.2000  -26.6160   20.0060 C   0  0  0  0  0  3  0  0  0  0  0  0
  -25.0910  -27.4900   19.8800 C   0  0  0  0  0  3  0  0  0  0  0  0
  -23.8750  -29.6940   20.3590 C   0  0  0  0  0  2  0  0  0  0  0  0
  -24.8460  -31.0510   22.2450 N   0  0  0  0  0  0  0  0  0  0  0  0
  -23.6020  -32.2260   23.7620 O   0  0  0  0  0  0  0  0  0  0  0  0
  -22.8910  -29.4780   22.6840 C   0  0  0  0  0  0  0  0  0  0  0  0
  -21.5740  -29.2540   22.5120 N   0  0  0  0  0  0  0  0  0  0  0  0
  -23.5380  -28.9310   23.5800 O   0  0  0  0  0  0  0  0  0  0  0  0
  -21.1050  -29.7420   21.7610 H   0  0  0  0  0  0  0  0  0  0  0  0
  -18.2320  -27.8940   22.9130 C   0  0  0  0  0  0  0  0  0  0  0  0
  -20.7540  -28.3300   23.3040 C   0  0  0  0  0  3  0  0  0  0  0  0
  -20.9660  -26.8670   22.8510 C   0  0  0  0  0  2  0  0  0  0  0  0
  -19.9490  -26.4060   21.8020 C   0  0  0  0  0  2  0  0  0  0  0  0
  -18.5240  -26.5140   22.3500 C   0  0  0  0  0  2  0  0  0  0  0  0
  -19.2780  -28.7530   23.3470 C   0  0  0  0  0  0  0  0  0  0  0  0
  -18.9500  -30.0370   23.8330 C   0  0  0  0  0  3  0  0  0  0  0  0
  -17.6110  -30.4660   23.8890 C   0  0  0  0  0  3  0  0  0  0  0  0
  -16.5790  -29.6080   23.4690 C   0  0  0  0  0  3  0  0  0  0  0  0
  -16.8900  -28.3250   22.9890 C   0  0  0  0  0  3  0  0  0  0  0  0
  -25.9500  -32.6390   23.9240 C   0  0  0  0  0  3  0  0  0  0  0  0
  -26.4610  -31.9210   25.2340 C   0  0  1  0  0  0  0  0  0  0  0  0
  -25.3430  -31.6340   26.2660 C   0  0  0  0  0  1  0  0  0  0  0  0
  -27.1400  -30.5750   24.8970 C   0  0  0  0  0  1  0  0  0  0  0  0
  -27.5400  -32.7900   25.9230 C   0  0  0  0  0  1  0  0  0  0  0  0
  -25.5750  -34.0320   24.2290 N   0  0  0  0  0  0  0  0  0  0  0  0
  -25.8820  -35.0930   23.4710 C   0  0  0  0  0  0  0  0  0  0  0  0
  -26.5730  -35.0030   22.4530 O   0  0  0  0  0  0  0  0  0  0  0  0
  -24.9600  -34.1690   25.0190 H   0  0  0  0  0  0  0  0  0  0  0  0
  -24.1120  -36.8350   23.0600 C   0  0  0  0  0  1  0  0  0  0  0  0
  -25.3410  -36.4700   23.9080 C   0  0  0  0  0  3  0  0  0  0  0  0
  -27.4140  -37.4340   24.8070 C   0  0  0  0  0  1  0  0  0  0  0  0
  -26.3440  -37.5550   23.8200 N   0  0  0  0  0  0  0  0  0  0  0  0
  -25.9040  -38.4630   23.9390 H   0  0  0  0  0  0  0  0  0  0  0  0
  -30.1620  -20.1520   20.1300 C   0  0  0  0  0  2  0  0  0  0  0  0
  -30.0720  -18.2340   22.0070 C   0  0  0  0  0  1  0  0  0  0  0  0
  -29.7720  -18.3950   20.5090 C   0  0  0  0  0  0  0  0  0  0  0  0
  -30.7570  -15.5240   19.8880 C   0  0  0  0  0  0  0  0  0  0  0  0
  -30.6340  -13.1130   18.8740 C   0  0  0  0  0  2  0  0  0  0  0  0
  -29.6190  -12.9450   17.7160 C   0  0  0  0  0  2  0  0  0  0  0  0
  -28.2050  -12.6620   18.2580 C   0  0  0  0  0  2  0  0  0  0  0  0
  -27.8500  -13.5940   19.4440 C   0  0  0  0  0  3  0  0  0  0  0  0
  -28.9830  -13.7080   20.4830 C   0  0  0  0  0  2  0  0  0  0  0  0
  -30.1540  -14.2350   19.7610 N   0  0  0  0  0  0  0  0  0  0  0  0
  -31.9880  -15.4790   19.7470 O   0  0  0  0  0  0  0  0  0  0  0  0
  -29.9900  -16.8170   19.8900 N   0  0  0  0  0  4  0  0  0  0  0  0
  -29.0750  -16.5380   19.5630 H   0  0  0  0  0  0  0  0  0  0  0  0
  -25.5620  -14.1830   20.3920 C   0  0  0  0  0  0  0  0  0  0  0  0
  -24.5070  -13.4190   20.8100 C   0  0  0  0  0  0  0  0  0  0  0  0
  -24.9350  -12.0610   20.7070 C   0  0  0  0  0  0  0  0  0  0  0  0
  -26.5590  -13.2890   20.0460 N   0  0  0  0  0  0  0  0  0  0  0  0
  -26.2020  -12.0040   20.3060 N   0  0  0  0  0  0  0  0  0  0  0  0
  -24.1880  -10.8110   20.9070 C   0  0  0  0  0  0  0  0  0  0  0  0
  -24.5770   -9.8640   21.8790 C   0  0  0  0  0  3  0  0  0  0  0  0
  -23.8290   -8.6820   22.0650 C   0  0  0  0  0  3  0  0  0  0  0  0
  -22.6780   -8.4390   21.2800 C   0  0  0  0  0  0  0  0  0  0  0  0
  -22.3070   -9.3740   20.2980 C   0  0  0  0  0  3  0  0  0  0  0  0
  -23.0560  -10.5490   20.1100 C   0  0  0  0  0  3  0  0  0  0  0  0
  -21.9030   -7.3080   21.3760 O   0  0  0  0  0  0  0  0  0  0  0  0
  -21.7130   -6.6630   22.5720 C   0  0  0  0  0  0  0  0  0  0  0  0
  -21.1090   -7.3020   23.6760 C   0  0  0  0  0  3  0  0  0  0  0  0
  -20.8710   -6.5820   24.8630 C   0  0  0  0  0  3  0  0  0  0  0  0
  -21.2250   -5.2220   24.9470 C   0  0  0  0  0  0  0  0  0  0  0  0
  -21.8190   -4.5810   23.8460 C   0  0  0  0  0  3  0  0  0  0  0  0
  -22.0600   -5.3000   22.6600 C   0  0  0  0  0  0  0  0  0  0  0  0
  -22.6150   -4.6700   21.5960 F   0  0  0  0  0  0  0  0  0  0  0  0
  -20.9890   -4.5270   26.0840 F   0  0  0  0  0  0  0  0  0  0  0  0
  -23.1430  -13.9230   21.1820 C   0  0  0  0  0  0  0  0  0  0  0  0
  -22.4620  -13.2360   22.0910 N   0  0  0  0  0  0  0  0  0  0  0  0
  -22.6920  -14.9620   20.7000 O   0  0  0  0  0  0  0  0  0  0  0  0
  -22.8410  -12.4000   22.5110 H   0  0  0  0  0  0  0  0  0  0  0  0
  -21.5450  -13.5520   22.3720 H   0  0  0  0  0  0  0  0  0  0  0  0
  -25.7480  -15.5560   20.2460 N   0  0  0  0  0  0  0  0  0  0  0  0
  -25.0100  -16.2250   20.4340 H   0  0  0  0  0  0  0  0  0  0  0  0
  -26.5830  -15.9860   19.8720 H   0  0  0  0  0  0  0  0  0  0  0  0
  2  5  2  0
  2  3  1  0
  3  6  2  0
  4 55  1  0
  4  1  2  0
  5  4  1  0
  6  1  1  0
  6 14  1  0
  7  2  1  0
  8  7  1  0
  8  9  1  0
  9 11  1  1
  9  3  1  0
 10  9  1  0
 12 13  1  0
 13  5  1  0
 15 26  2  0
 16 14  1  0
 16 21  1  0
 17 25  1  0
 17 27  1  0
 18 20  1  0
 19 25  1  0
 20 21  2  0
 20 19  1  0
 22 16  2  0
 23 22  1  0
 23 18  2  0
 24 18  1  0
 24 17  1  0
 25 15  1  0
 27 29  2  0
 28 27  1  0
 30 28  1  0
 31 40  2  0
 31 36  1  0
 32 28  1  0
 32 36  1  0
 33 32  1  0
 34 35  1  0
 34 33  1  0
 35 31  1  0
 36 37  2  0
 37 38  1  0
 39 38  2  0
 40 39  1  0
 41 15  1  0
 41 46  1  0
 41 42  1  0
 42 45  1  1
 42 43  1  0
 44 42  1  0
 46 49  1  0
 47 51  1  0
 47 46  1  0
 48 47  2  0
 51 50  1  0
 53 51  1  0
 53 54  1  0
 53 52  1  0
 55 57  1  0
 57 56  1  0
 58 66  1  0
 59 64  1  0
 60 61  1  0
 60 59  1  0
 62 61  1  0
 62 71  1  0
 62 63  1  0
 64 58  1  0
 64 63  1  0
 65 58  2  0
 66 57  2  3
 67 66  1  0
 68 69  2  0
 69 88  1  0
 70 69  1  0
 70 73  1  0
 71 72  1  0
 71 68  1  0
 72 70  2  0
 73 74  1  0
 74 75  2  0
 76 79  1  0
 76 75  1  0
 77 76  2  0
 78 77  1  0
 78 73  2  0
 79 80  1  0
 80 85  2  0
 80 81  1  0
 81 82  2  0
 82 83  1  0
 83 87  1  0
 84 83  2  0
 85 84  1  0
 86 85  1  0
 88 89  1  0
 89 92  1  0
 89 91  1  0
 90 88  2  0
 93 68  1  0
 93 94  1  0
 95 93  1  0
M  ISO  4   6 101  14 101  58 100  66 100
M  END
>  <TORSDO>  (64) 
F 19

>  <SCORE>  (64) 
-13.968

>  <name>  (64) 
63

>  <ligand_id>  (64) 
63

>  <original_smiles>  (64) 
[H]c1c([H])c([H])c2c(c1[H])C([H])([H])C([H])([H])C([H])([H])C2([H])N([H])C(=O)C1([H])N(C(=O)C([H])(N([H])C(=O)C([H])(N([H])C([H])([H])[H])C([H])([H])[H])C(C([H])([H])[H])(C([H])([H])[H])C([H])([H])[H])C([H])([H])c2c([H])c(Oc3c([H])c(C([H])([H])C([H])(N([H])C(=O)N4C([H])([H])C([H])([H])C([H])([H])C([H])(n5nc(-c6c([H])c([H])c(Oc7c([H])c([H])c(F)c([H])c7F)c([H])c6[H])c(C(=O)N([H])[H])c5N([H])[H])C4([H])[H])C([H])([H])[H])c(C([H])([H])C([H])([H])[H])c4c3C(C([H])([H])[H])(C([H])([H])[H])C([H])([H])C4([H])[H])c([H])c([H])c2C1([H])[H]

>  <smiles>  (64) 
[H]c1c([H])c([H])c2c(c1[H])C([H])([H])C([H])([H])C([H])([H])C2([H])N([H])C(=O)C1([H])N(C(=O)C([H])(N([H])C(=O)C([H])(N([H])C([H])([H])[H])C([H])([H])[H])C(C([H])([H])[H])(C([H])([H])[H])C([H])([H])[H])C([H])([H])c2c([H])c(Oc3c([H])c(C([H])([H])C([H])(N([H])C(=O)N4C([H])([H])C([H])([H])C([H])([H])C([H])(n5nc(-c6c([H])c([H])c(Oc7c([H])c([H])c(F)c([H])c7F)c([H])c6[H])c(C(=O)N([H])[H])c5N([H])[H])C4([H])[H])C([H])([H])[H])c(C([H])([H])C([H])([H])[H])c4c3C(C([H])([H])[H])(C([H])([H])[H])C([H])([H])C4([H])[H])c([H])c([H])c2C1([H])[H]

$$$$
64:0:0
     RDKit          3D

 93101  0  0  1  0  0  0  0  0999 V2000
  -29.4320  -26.5690   16.4990 C   0  0  0  0  0  3  0  0  0  0  0  0
  -30.1710  -25.3730   16.5130 C   0  0  0  0  0  3  0  0  0  0  0  0
  -28.8370  -27.0400   17.6820 C   0  0  0  0  0  3  0  0  0  0  0  0
  -30.3070  -24.6240   17.7030 C   0  0  0  0  0  0  0  0  0  0  0  0
  -29.7310  -25.1180   18.9090 C   0  0  0  0  0  0  0  0  0  0  0  0
  -28.9780  -26.3190   18.8900 C   0  0  0  0  0  0  0  0  0  0  0  0
  -29.9330  -24.4040   20.2430 C   0  0  0  0  0  1  0  0  0  0  0  0
  -31.1090  -23.3700   17.6250 C   0  0  0  0  0  0  0  0  0  0  0  0
  -32.2700  -23.3360   17.2060 O   0  0  0  0  0  0  0  0  0  0  0  0
  -30.3870  -22.0640   17.9710 C   0  0  0  0  0  2  0  0  0  0  0  0
  -31.1000  -21.2050   19.0370 C   0  0  0  0  0  2  0  0  0  0  0  0
  -30.3950  -19.8560   19.2430 C   0  0  0  0  0  2  0  0  0  0  0  0
  -31.0520  -18.9770   20.3170 C   0  0  0  0  0  2  0  0  0  0  0  0
  -30.3690  -17.6050   20.4210 C   0  0  0  0  0  2  0  0  0  0  0  0
  -30.9770  -16.6940   21.5050 C   0  0  0  0  0  2  0  0  0  0  0  0
  -30.3160  -15.2950   21.5660 C   0  0  0  0  0  2  0  0  0  0  0  0
  -30.7220  -14.3340   20.4300 C   0  0  0  0  0  0  0  0  0  0  0  0
  -30.3040  -12.2960   19.0930 C   0  0  0  0  0  2  0  0  0  0  0  0
  -29.3260  -12.5700   17.9350 C   0  0  0  0  0  2  0  0  0  0  0  0
  -27.8670  -12.4340   18.4100 C   0  0  0  0  0  2  0  0  0  0  0  0
  -27.5890  -13.2270   19.7150 C   0  0  0  0  0  3  0  0  0  0  0  0
  -28.6690  -12.9170   20.7790 C   0  0  0  0  0  2  0  0  0  0  0  0
  -29.9860  -13.2180   20.1930 N   0  0  0  0  0  0  0  0  0  0  0  0
  -31.7330  -14.6010   19.7720 O   0  0  0  0  0  0  0  0  0  0  0  0
  -25.2020  -13.8560   20.4530 C   0  0  0  0  0  0  0  0  0  0  0  0
  -24.1360  -13.0910   20.8410 C   0  0  0  0  0  0  0  0  0  0  0  0
  -24.5880  -11.7360   20.8070 C   0  0  0  0  0  0  0  0  0  0  0  0
  -26.2400  -12.9680   20.2140 N   0  0  0  0  0  0  0  0  0  0  0  0
  -25.8730  -11.6870   20.4790 N   0  0  0  0  0  0  0  0  0  0  0  0
  -23.8600  -10.4780   21.0120 C   0  0  0  0  0  0  0  0  0  0  0  0
  -24.3150   -9.5040   21.9280 C   0  0  0  0  0  3  0  0  0  0  0  0
  -23.5860   -8.3110   22.1210 C   0  0  0  0  0  3  0  0  0  0  0  0
  -22.3900   -8.0840   21.4000 C   0  0  0  0  0  0  0  0  0  0  0  0
  -21.9560   -9.0470   20.4720 C   0  0  0  0  0  3  0  0  0  0  0  0
  -22.6840  -10.2320   20.2770 C   0  0  0  0  0  3  0  0  0  0  0  0
  -21.6310   -6.9430   21.5040 O   0  0  0  0  0  0  0  0  0  0  0  0
  -21.6240   -6.1860   22.6480 C   0  0  0  0  0  0  0  0  0  0  0  0
  -21.2670   -6.7300   23.9010 C   0  0  0  0  0  3  0  0  0  0  0  0
  -21.2060   -5.9000   25.0380 C   0  0  0  0  0  3  0  0  0  0  0  0
  -21.4910   -4.5260   24.9230 C   0  0  0  0  0  0  0  0  0  0  0  0
  -21.8420   -3.9810   23.6760 C   0  0  0  0  0  3  0  0  0  0  0  0
  -21.9050   -4.8090   22.5410 C   0  0  0  0  0  0  0  0  0  0  0  0
  -22.2210   -4.2740   21.3360 F   0  0  0  0  0  0  0  0  0  0  0  0
  -21.4260   -3.7270   26.0130 F   0  0  0  0  0  0  0  0  0  0  0  0
  -22.7440  -13.5750   21.1380 C   0  0  0  0  0  0  0  0  0  0  0  0
  -22.0310  -12.8850   22.0210 N   0  0  0  0  0  0  0  0  0  0  0  0
  -22.3000  -14.6000   20.6230 O   0  0  0  0  0  0  0  0  0  0  0  0
  -22.4020  -12.0560   22.4590 H   0  0  0  0  0  0  0  0  0  0  0  0
  -21.1000  -13.1930   22.2640 H   0  0  0  0  0  0  0  0  0  0  0  0
  -25.3720  -15.2250   20.2670 N   0  0  0  0  0  0  0  0  0  0  0  0
  -24.6180  -15.8910   20.3910 H   0  0  0  0  0  0  0  0  0  0  0  0
  -26.2300  -15.6550   19.9430 H   0  0  0  0  0  0  0  0  0  0  0  0
  -28.4480  -26.7850   20.0720 O   0  0  0  0  0  0  0  0  0  0  0  0
  -24.6550  -31.8950   23.2140 C   0  0  0  0  0  0  0  0  0  0  0  0
  -27.2680  -27.4860   20.0850 C   0  0  0  0  0  0  0  0  0  0  0  0
  -23.4240  -30.4900   21.5890 C   0  0  0  0  0  3  0  0  0  0  0  0
  -24.8600  -28.9480   20.1510 C   0  0  0  0  0  0  0  0  0  0  0  0
  -25.9420  -30.8590   21.3510 C   0  0  0  0  0  2  0  0  0  0  0  0
  -26.0210  -29.4870   20.7170 C   0  0  0  0  0  0  0  0  0  0  0  0
  -27.2270  -28.7600   20.6870 C   0  0  0  0  0  3  0  0  0  0  0  0
  -26.0890  -26.9390   19.5360 C   0  0  0  0  0  3  0  0  0  0  0  0
  -24.8850  -27.6690   19.5640 C   0  0  0  0  0  3  0  0  0  0  0  0
  -23.6140  -29.8010   20.2100 C   0  0  0  0  0  2  0  0  0  0  0  0
  -24.6930  -31.0960   22.1110 N   0  0  0  0  0  0  0  0  0  0  0  0
  -23.5830  -32.1690   23.7690 O   0  0  0  0  0  0  0  0  0  0  0  0
  -22.7860  -29.4740   22.5620 C   0  0  0  0  0  0  0  0  0  0  0  0
  -21.4610  -29.2880   22.4490 N   0  0  0  0  0  0  0  0  0  0  0  0
  -23.4790  -28.8540   23.3730 O   0  0  0  0  0  0  0  0  0  0  0  0
  -20.9650  -29.8390   21.7630 H   0  0  0  0  0  0  0  0  0  0  0  0
  -18.0970  -28.0800   22.9740 C   0  0  0  0  0  0  0  0  0  0  0  0
  -20.6530  -28.3530   23.2310 C   0  0  0  0  0  3  0  0  0  0  0  0
  -20.7620  -26.9180   22.6650 C   0  0  0  0  0  2  0  0  0  0  0  0
  -19.6570  -26.5810   21.6580 C   0  0  0  0  0  2  0  0  0  0  0  0
  -18.2770  -26.7270   22.3070 C   0  0  0  0  0  2  0  0  0  0  0  0
  -19.2140  -28.8500   23.3920 C   0  0  0  0  0  0  0  0  0  0  0  0
  -18.9940  -30.1180   23.9750 C   0  0  0  0  0  3  0  0  0  0  0  0
  -17.6880  -30.6170   24.1400 C   0  0  0  0  0  3  0  0  0  0  0  0
  -16.5850  -29.8430   23.7400 C   0  0  0  0  0  3  0  0  0  0  0  0
  -16.7900  -28.5770   23.1640 C   0  0  0  0  0  3  0  0  0  0  0  0
  -25.9520  -32.5270   23.8130 C   0  0  0  0  0  3  0  0  0  0  0  0
  -25.6480  -33.9230   24.1550 N   0  0  0  0  0  0  0  0  0  0  0  0
  -25.9700  -34.9780   23.3940 C   0  0  0  0  0  0  0  0  0  0  0  0
  -26.6260  -34.8780   22.3530 O   0  0  0  0  0  0  0  0  0  0  0  0
  -25.0680  -34.0730   24.9670 H   0  0  0  0  0  0  0  0  0  0  0  0
  -24.2360  -36.7690   23.0650 C   0  0  0  0  0  1  0  0  0  0  0  0
  -25.4860  -36.3640   23.8620 C   0  0  0  0  0  3  0  0  0  0  0  0
  -27.6310  -37.2420   24.6720 C   0  0  0  0  0  1  0  0  0  0  0  0
  -26.5170  -37.4190   23.7440 N   0  0  0  0  0  0  0  0  0  0  0  0
  -26.1110  -38.3370   23.9070 H   0  0  0  0  0  0  0  0  0  0  0  0
  -26.4980  -31.7480   25.0720 C   0  0  1  0  0  0  0  0  0  0  0  0
  -25.4300  -31.4970   26.1620 C   0  0  0  0  0  1  0  0  0  0  0  0
  -27.0760  -30.3750   24.6560 C   0  0  0  0  0  1  0  0  0  0  0  0
  -27.6620  -32.5390   25.7150 C   0  0  0  0  0  1  0  0  0  0  0  0
  1  2  2  0
  1  3  1  0
  2  4  1  0
  3  6  2  0
  4  5  2  0
  5  7  1  0
  6  5  1  0
  6 53  1  0
  8  4  1  0
  8 10  1  0
  9  8  2  0
 10 11  1  0
 11 12  1  0
 12 13  1  0
 13 14  1  0
 14 15  1  0
 15 16  1  0
 17 16  1  0
 18 23  1  0
 19 20  1  0
 19 18  1  0
 21 20  1  0
 21 28  1  0
 21 22  1  0
 23 17  1  0
 23 22  1  0
 24 17  2  0
 25 26  2  0
 26 45  1  0
 27 26  1  0
 27 30  1  0
 28 25  1  0
 28 29  1  0
 29 27  2  0
 30 31  1  0
 31 32  2  0
 33 36  1  0
 33 32  1  0
 34 33  2  0
 35 34  1  0
 35 30  2  0
 36 37  1  0
 37 38  1  0
 38 39  2  0
 40 39  1  0
 40 44  1  0
 41 40  2  0
 42 37  2  0
 42 41  1  0
 43 42  1  0
 45 46  1  0
 46 49  1  0
 46 48  1  0
 47 45  2  0
 50 51  1  0
 50 25  1  0
 52 50  1  0
 53 55  1  0
 54 65  2  0
 55 60  1  0
 56 64  1  0
 56 66  1  0
 57 63  1  0
 57 59  1  0
 58 64  1  0
 59 58  1  0
 60 59  2  0
 61 62  1  0
 61 55  2  0
 62 57  2  0
 63 56  1  0
 64 54  1  0
 66 68  2  0
 67 66  1  0
 69 67  1  0
 70 79  2  0
 70 75  1  0
 71 67  1  0
 71 75  1  0
 72 71  1  0
 73 74  1  0
 73 72  1  0
 74 70  1  0
 75 76  2  0
 76 77  1  0
 78 77  2  0
 79 78  1  0
 80 54  1  0
 80 81  1  0
 80 90  1  0
 81 84  1  0
 82 86  1  0
 82 81  1  0
 83 82  2  0
 86 85  1  0
 88 86  1  0
 88 89  1  0
 88 87  1  0
 90 93  1  1
 90 91  1  0
 92 90  1  0
M  ISO  4   6 101  16 100  17 100  53 101
M  END
>  <TORSDO>  (65) 
F 24

>  <SCORE>  (65) 
-12.309

>  <name>  (65) 
64

>  <ligand_id>  (65) 
64

>  <original_smiles>  (65) 
[H]c1c([H])c(Oc2c([H])c([H])c3c(c2[H])C([H])([H])N(C(=O)C([H])(N([H])C(=O)C([H])(N([H])C([H])([H])[H])C([H])([H])[H])C(C([H])([H])[H])(C([H])([H])[H])C([H])([H])[H])C([H])(C(=O)N([H])C2([H])c4c([H])c([H])c([H])c([H])c4C([H])([H])C([H])([H])C2([H])[H])C3([H])[H])c(C([H])([H])[H])c(C(=O)C([H])([H])C([H])([H])C([H])([H])C([H])([H])C([H])([H])C([H])([H])C([H])([H])C(=O)N2C([H])([H])C([H])([H])C([H])([H])C([H])(n3nc(-c4c([H])c([H])c(Oc5c([H])c([H])c(F)c([H])c5F)c([H])c4[H])c(C(=O)N([H])[H])c3N([H])[H])C2([H])[H])c1[H]

>  <smiles>  (65) 
[H]c1c([H])c(Oc2c([H])c([H])c3c(c2[H])C([H])([H])N(C(=O)C([H])(N([H])C(=O)C([H])(N([H])C([H])([H])[H])C([H])([H])[H])C(C([H])([H])[H])(C([H])([H])[H])C([H])([H])[H])C([H])(C(=O)N([H])C2([H])c4c([H])c([H])c([H])c([H])c4C([H])([H])C([H])([H])C2([H])[H])C3([H])[H])c(C([H])([H])[H])c(C(=O)C([H])([H])C([H])([H])C([H])([H])C([H])([H])C([H])([H])C([H])([H])C([H])([H])C(=O)N2C([H])([H])C([H])([H])C([H])([H])C([H])(n3nc(-c4c([H])c([H])c(Oc5c([H])c([H])c(F)c([H])c5F)c([H])c4[H])c(C(=O)N([H])[H])c3N([H])[H])C2([H])[H])c1[H]

$$$$
65:0:0
     RDKit          3D

 89 97  0  0  1  0  0  0  0  0999 V2000
  -28.0810  -21.6410   21.3170 C   0  0  0  0  0  3  0  0  0  0  0  0
  -27.4540  -22.7770   21.8900 C   0  0  0  0  0  3  0  0  0  0  0  0
  -28.8410  -21.6690   20.1290 C   0  0  0  0  0  0  0  0  0  0  0  0
  -27.5030  -24.1100   21.3890 C   0  0  0  0  0  0  0  0  0  0  0  0
  -28.8560  -23.1570   19.6120 C   0  0  0  0  0  0  0  0  0  0  0  0
  -28.1910  -24.4670   20.1940 C   0  0  0  0  0  0  0  0  0  0  0  0
  -26.8120  -25.1670   22.2350 C   0  0  0  0  0  1  0  0  0  0  0  0
  -29.6630  -23.3480   18.3460 C   0  0  0  0  0  1  0  0  0  0  0  0
  -28.2370  -25.9990   19.8450 O   0  0  0  0  0  0  0  0  0  0  0  0
  -24.6740  -31.9370   23.1340 C   0  0  0  0  0  0  0  0  0  0  0  0
  -27.2170  -27.1230   19.9160 C   0  0  0  0  0  0  0  0  0  0  0  0
  -23.4560  -30.5640   21.4950 C   0  0  0  0  0  3  0  0  0  0  0  0
  -24.8900  -29.0110   19.9870 C   0  0  0  0  0  0  0  0  0  0  0  0
  -26.0180  -30.8000   21.2870 C   0  0  0  0  0  2  0  0  0  0  0  0
  -26.0920  -29.4010   20.5940 C   0  0  0  0  0  0  0  0  0  0  0  0
  -27.2430  -28.4800   20.5360 C   0  0  0  0  0  3  0  0  0  0  0  0
  -25.9840  -26.9120   19.2540 C   0  0  0  0  0  3  0  0  0  0  0  0
  -24.8650  -27.7880   19.2970 C   0  0  0  0  0  3  0  0  0  0  0  0
  -23.6600  -29.9180   20.0950 C   0  0  0  0  0  2  0  0  0  0  0  0
  -24.7390  -31.1290   22.0240 N   0  0  0  0  0  0  0  0  0  0  0  0
  -23.5960  -32.1940   23.6930 O   0  0  0  0  0  0  0  0  0  0  0  0
  -22.8050  -29.5340   22.4550 C   0  0  0  0  0  0  0  0  0  0  0  0
  -21.4760  -29.3400   22.3570 N   0  0  0  0  0  0  0  0  0  0  0  0
  -23.5020  -28.9120   23.2600 O   0  0  0  0  0  0  0  0  0  0  0  0
  -20.9630  -29.8940   21.6850 H   0  0  0  0  0  0  0  0  0  0  0  0
  -18.1370  -28.0350   22.9310 C   0  0  0  0  0  0  0  0  0  0  0  0
  -20.6950  -28.3650   23.1280 C   0  0  0  0  0  3  0  0  0  0  0  0
  -20.8180  -26.9500   22.5180 C   0  0  0  0  0  2  0  0  0  0  0  0
  -19.6970  -26.6210   21.5260 C   0  0  0  0  0  2  0  0  0  0  0  0
  -18.3310  -26.7100   22.2110 C   0  0  0  0  0  2  0  0  0  0  0  0
  -19.2460  -28.8190   23.3470 C   0  0  0  0  0  0  0  0  0  0  0  0
  -19.0080  -30.0550   23.9860 C   0  0  0  0  0  3  0  0  0  0  0  0
  -17.6940  -30.5090   24.2090 C   0  0  0  0  0  3  0  0  0  0  0  0
  -16.6010  -29.7240   23.8050 C   0  0  0  0  0  3  0  0  0  0  0  0
  -16.8230  -28.4880   23.1710 C   0  0  0  0  0  3  0  0  0  0  0  0
  -25.9510  -32.5880   23.7460 C   0  0  0  0  0  3  0  0  0  0  0  0
  -25.6270  -33.9840   24.0940 N   0  0  0  0  0  0  0  0  0  0  0  0
  -25.9400  -35.0560   23.3530 C   0  0  0  0  0  0  0  0  0  0  0  0
  -26.5920  -34.9730   22.3090 O   0  0  0  0  0  0  0  0  0  0  0  0
  -25.0410  -34.1200   24.9040 H   0  0  0  0  0  0  0  0  0  0  0  0
  -24.1990  -36.8540   23.0630 C   0  0  0  0  0  1  0  0  0  0  0  0
  -25.4560  -36.4370   23.8430 C   0  0  0  0  0  3  0  0  0  0  0  0
  -27.5970  -37.3280   24.6560 C   0  0  0  0  0  1  0  0  0  0  0  0
  -26.4800  -37.4990   23.7290 N   0  0  0  0  0  0  0  0  0  0  0  0
  -26.0700  -38.4140   23.8910 H   0  0  0  0  0  0  0  0  0  0  0  0
  -26.4830  -31.8260   25.0230 C   0  0  1  0  0  0  0  0  0  0  0  0
  -25.3990  -31.5810   26.1010 C   0  0  0  0  0  1  0  0  0  0  0  0
  -27.0780  -30.4520   24.6430 C   0  0  0  0  0  1  0  0  0  0  0  0
  -27.6280  -32.6350   25.6760 C   0  0  0  0  0  1  0  0  0  0  0  0
  -29.6030  -20.1010   19.6520 C   0  0  0  0  0  2  0  0  0  0  0  0
  -29.1280  -18.3340   19.7920 C   0  0  0  0  0  0  0  0  0  0  0  0
  -27.6380  -18.4440   20.0560 C   0  0  0  0  0  1  0  0  0  0  0  0
  -29.4150  -16.9080   19.7570 N   0  0  0  0  0  0  0  0  0  0  0  0
  -30.4010  -15.7050   19.5520 C   0  0  0  0  0  0  0  0  0  0  0  0
  -30.5360  -13.1520   18.9290 C   0  0  0  0  0  2  0  0  0  0  0  0
  -29.5610  -12.7590   17.7830 C   0  0  0  0  0  2  0  0  0  0  0  0
  -28.1490  -12.4670   18.3190 C   0  0  0  0  0  2  0  0  0  0  0  0
  -27.7100  -13.5100   19.3740 C   0  0  0  0  0  3  0  0  0  0  0  0
  -28.8060  -13.8080   20.4170 C   0  0  0  0  0  2  0  0  0  0  0  0
  -29.9770  -14.3380   19.6900 N   0  0  0  0  0  0  0  0  0  0  0  0
  -31.5820  -15.7610   19.1800 O   0  0  0  0  0  0  0  0  0  0  0  0
  -25.4300  -14.0760   20.3640 C   0  0  0  0  0  0  0  0  0  0  0  0
  -24.3870  -13.3110   20.7960 C   0  0  0  0  0  0  0  0  0  0  0  0
  -24.8130  -11.9530   20.6660 C   0  0  0  0  0  0  0  0  0  0  0  0
  -26.4240  -13.1920   19.9870 N   0  0  0  0  0  0  0  0  0  0  0  0
  -26.0690  -11.9020   20.2330 N   0  0  0  0  0  0  0  0  0  0  0  0
  -24.0700  -10.7010   20.8690 C   0  0  0  0  0  0  0  0  0  0  0  0
  -24.5050   -9.7230   21.7890 C   0  0  0  0  0  3  0  0  0  0  0  0
  -23.7590   -8.5390   21.9800 C   0  0  0  0  0  3  0  0  0  0  0  0
  -22.5650   -8.3260   21.2520 C   0  0  0  0  0  0  0  0  0  0  0  0
  -22.1470   -9.2940   20.3230 C   0  0  0  0  0  3  0  0  0  0  0  0
  -22.8930  -10.4680   20.1290 C   0  0  0  0  0  3  0  0  0  0  0  0
  -21.7920   -7.1940   21.3530 O   0  0  0  0  0  0  0  0  0  0  0  0
  -21.6880   -6.4950   22.5280 C   0  0  0  0  0  0  0  0  0  0  0  0
  -21.1730   -7.0860   23.7040 C   0  0  0  0  0  3  0  0  0  0  0  0
  -21.0200   -6.3130   24.8710 C   0  0  0  0  0  3  0  0  0  0  0  0
  -21.3700   -4.9500   24.8650 C   0  0  0  0  0  0  0  0  0  0  0  0
  -21.8760   -4.3580   23.6950 C   0  0  0  0  0  3  0  0  0  0  0  0
  -22.0310   -5.1270   22.5290 C   0  0  0  0  0  0  0  0  0  0  0  0
  -22.5010   -4.5480   21.3980 F   0  0  0  0  0  0  0  0  0  0  0  0
  -21.2130   -4.2050   25.9840 F   0  0  0  0  0  0  0  0  0  0  0  0
  -23.0340  -13.8110   21.2100 C   0  0  0  0  0  0  0  0  0  0  0  0
  -22.3680  -13.1040   22.1170 N   0  0  0  0  0  0  0  0  0  0  0  0
  -22.5800  -14.8660   20.7680 O   0  0  0  0  0  0  0  0  0  0  0  0
  -22.7480  -12.2510   22.4990 H   0  0  0  0  0  0  0  0  0  0  0  0
  -21.4650  -13.4250   22.4370 H   0  0  0  0  0  0  0  0  0  0  0  0
  -25.6110  -15.4470   20.2270 N   0  0  0  0  0  0  0  0  0  0  0  0
  -24.8910  -16.1250   20.4470 H   0  0  0  0  0  0  0  0  0  0  0  0
  -26.4600  -15.8630   19.8630 H   0  0  0  0  0  0  0  0  0  0  0  0
  1  2  1  0
  3  1  2  0
  4  2  2  0
  4  7  1  0
  5  3  1  0
  5  6  2  0
  6  4  1  0
  8  5  1  0
  9 11  1  0
  9  6  1  0
 10 21  2  0
 11 16  1  0
 12 20  1  0
 12 22  1  0
 13 19  1  0
 13 15  1  0
 14 20  1  0
 15 14  1  0
 16 15  2  0
 17 18  1  0
 17 11  2  0
 18 13  2  0
 19 12  1  0
 20 10  1  0
 22 24  2  0
 23 22  1  0
 25 23  1  0
 26 35  2  0
 26 31  1  0
 27 23  1  0
 27 31  1  0
 28 27  1  0
 29 30  1  0
 29 28  1  0
 30 26  1  0
 31 32  2  0
 32 33  1  0
 34 33  2  0
 35 34  1  0
 36 10  1  0
 36 37  1  0
 36 46  1  0
 37 40  1  0
 38 42  1  0
 38 37  1  0
 39 38  2  0
 42 41  1  0
 44 42  1  0
 44 45  1  0
 44 43  1  0
 46 49  1  1
 46 47  1  0
 48 46  1  0
 50 51  1  0
 50  3  1  0
 51 52  1  0
 53 51  2  0
 54 60  1  0
 54 53  1  0
 55 60  1  0
 56 57  1  0
 56 55  1  0
 58 57  1  0
 58 65  1  0
 58 59  1  0
 60 59  1  0
 61 54  2  0
 62 63  2  0
 63 82  1  0
 64 63  1  0
 64 67  1  0
 65 66  1  0
 65 62  1  0
 66 64  2  0
 67 68  1  0
 68 69  2  0
 70 73  1  0
 70 69  1  0
 71 70  2  0
 72 71  1  0
 72 67  2  0
 73 74  1  0
 74 79  2  0
 74 75  1  0
 75 76  2  0
 77 76  1  0
 77 81  1  0
 78 77  2  0
 79 78  1  0
 80 79  1  0
 82 83  1  0
 83 86  1  0
 83 85  1  0
 84 82  2  0
 87 62  1  0
 87 88  1  0
 89 87  1  0
M  ISO  4   6 101   9 101  53 100  54 100
M  END
>  <TORSDO>  (66) 
F 18

>  <SCORE>  (66) 
-15.093

>  <name>  (66) 
65

>  <ligand_id>  (66) 
65

>  <original_smiles>  (66) 
[H]c1c([H])c([H])c2c(c1[H])C([H])([H])C([H])([H])C([H])([H])C2([H])N([H])C(=O)C1([H])N(C(=O)C([H])(N([H])C(=O)C([H])(N([H])C([H])([H])[H])C([H])([H])[H])C(C([H])([H])[H])(C([H])([H])[H])C([H])([H])[H])C([H])([H])c2c([H])c(Oc3c(C([H])([H])[H])c([H])c([H])c(C([H])([H])C(=NC(=O)N4C([H])([H])C([H])([H])C([H])([H])C([H])(n5nc(-c6c([H])c([H])c(Oc7c([H])c([H])c(F)c([H])c7F)c([H])c6[H])c(C(=O)N([H])[H])c5N([H])[H])C4([H])[H])C([H])([H])[H])c3C([H])([H])[H])c([H])c([H])c2C1([H])[H]

>  <smiles>  (66) 
[H]c1c([H])c([H])c2c(c1[H])C([H])([H])C([H])([H])C([H])([H])C2([H])N([H])C(=O)C1([H])N(C(=O)C([H])(N([H])C(=O)C([H])(N([H])C([H])([H])[H])C([H])([H])[H])C(C([H])([H])[H])(C([H])([H])[H])C([H])([H])[H])C([H])([H])c2c([H])c(Oc3c(C([H])([H])[H])c([H])c([H])c(C([H])([H])C(=NC(=O)N4C([H])([H])C([H])([H])C([H])([H])C([H])(n5nc(-c6c([H])c([H])c(Oc7c([H])c([H])c(F)c([H])c7F)c([H])c6[H])c(C(=O)N([H])[H])c5N([H])[H])C4([H])[H])C([H])([H])[H])c3C([H])([H])[H])c([H])c([H])c2C1([H])[H]

$$$$
66:0:0
     RDKit          3D

 91100  0  0  1  0  0  0  0  0999 V2000
  -28.2540  -22.0540   19.1990 C   0  0  0  0  0  3  0  0  0  0  0  0
  -28.0300  -23.5260   19.1850 C   0  0  0  0  0  3  0  0  0  0  0  0
  -29.0700  -22.1880   21.3390 C   0  0  0  0  0  3  0  0  0  0  0  0
  -28.7920  -21.2290   20.2780 C   0  0  0  0  0  0  0  0  0  0  0  0
  -28.8610  -23.6650   21.3270 C   0  0  0  0  0  0  0  0  0  0  0  0
  -28.2800  -24.4770   20.2600 C   0  0  0  0  0  0  0  0  0  0  0  0
  -29.3400  -24.4300   22.5460 C   0  0  0  0  0  1  0  0  0  0  0  0
  -28.2430  -26.0060   20.2300 O   0  0  0  0  0  0  0  0  0  0  0  0
  -24.6290  -31.8950   23.2270 C   0  0  0  0  0  0  0  0  0  0  0  0
  -27.1700  -27.0240   20.2270 C   0  0  0  0  0  0  0  0  0  0  0  0
  -23.4240  -30.4910   21.6010 C   0  0  0  0  0  3  0  0  0  0  0  0
  -24.8610  -28.8700   20.1880 C   0  0  0  0  0  0  0  0  0  0  0  0
  -25.9870  -30.7020   21.4420 C   0  0  0  0  0  2  0  0  0  0  0  0
  -26.0490  -29.2900   20.8000 C   0  0  0  0  0  0  0  0  0  0  0  0
  -27.1960  -28.3850   20.7950 C   0  0  0  0  0  3  0  0  0  0  0  0
  -25.9510  -26.7390   19.5750 C   0  0  0  0  0  3  0  0  0  0  0  0
  -24.8320  -27.6140   19.5590 C   0  0  0  0  0  3  0  0  0  0  0  0
  -23.6440  -29.7920   20.2300 C   0  0  0  0  0  2  0  0  0  0  0  0
  -24.7010  -31.0570   22.1420 N   0  0  0  0  0  0  0  0  0  0  0  0
  -23.5420  -32.1920   23.7510 O   0  0  0  0  0  0  0  0  0  0  0  0
  -22.7300  -29.5060   22.5750 C   0  0  0  0  0  0  0  0  0  0  0  0
  -21.4000  -29.3420   22.4510 N   0  0  0  0  0  0  0  0  0  0  0  0
  -23.3950  -28.8880   23.4110 O   0  0  0  0  0  0  0  0  0  0  0  0
  -20.9200  -29.8900   21.7520 H   0  0  0  0  0  0  0  0  0  0  0  0
  -18.0170  -28.1370   22.9580 C   0  0  0  0  0  0  0  0  0  0  0  0
  -20.5750  -28.4110   23.2290 C   0  0  0  0  0  3  0  0  0  0  0  0
  -20.6820  -26.9730   22.6700 C   0  0  0  0  0  2  0  0  0  0  0  0
  -19.5850  -26.6370   21.6560 C   0  0  0  0  0  2  0  0  0  0  0  0
  -18.2000  -26.7830   22.2930 C   0  0  0  0  0  2  0  0  0  0  0  0
  -19.1310  -28.9090   23.3820 C   0  0  0  0  0  0  0  0  0  0  0  0
  -18.9030  -30.1750   23.9630 C   0  0  0  0  0  3  0  0  0  0  0  0
  -17.5950  -30.6680   24.1250 C   0  0  0  0  0  3  0  0  0  0  0  0
  -16.4960  -29.8950   23.7150 C   0  0  0  0  0  3  0  0  0  0  0  0
  -16.7070  -28.6300   23.1360 C   0  0  0  0  0  3  0  0  0  0  0  0
  -25.9060  -32.5340   23.8530 C   0  0  0  0  0  3  0  0  0  0  0  0
  -25.5940  -33.9360   24.1860 N   0  0  0  0  0  0  0  0  0  0  0  0
  -25.9140  -34.9930   23.4290 C   0  0  0  0  0  0  0  0  0  0  0  0
  -26.5660  -34.8930   22.3860 O   0  0  0  0  0  0  0  0  0  0  0  0
  -25.0090  -34.0870   24.9950 H   0  0  0  0  0  0  0  0  0  0  0  0
  -24.1790  -36.7940   23.1210 C   0  0  0  0  0  1  0  0  0  0  0  0
  -25.4390  -36.3840   23.9010 C   0  0  0  0  0  3  0  0  0  0  0  0
  -27.5910  -37.2750   24.6850 C   0  0  0  0  0  1  0  0  0  0  0  0
  -26.4690  -37.4380   23.7630 N   0  0  0  0  0  0  0  0  0  0  0  0
  -26.0660  -38.3590   23.9130 H   0  0  0  0  0  0  0  0  0  0  0  0
  -26.4140  -31.7710   25.1390 C   0  0  1  0  0  0  0  0  0  0  0  0
  -25.3150  -31.5470   26.2050 C   0  0  0  0  0  1  0  0  0  0  0  0
  -26.9910  -30.3860   24.7680 C   0  0  0  0  0  1  0  0  0  0  0  0
  -27.5650  -32.5660   25.7970 C   0  0  0  0  0  1  0  0  0  0  0  0
  -28.7810  -19.4830   20.3620 C   0  0  0  0  0  2  0  0  0  0  0  0
  -31.8390  -19.2210   19.9390 C   0  0  0  0  0  2  0  0  0  0  0  0
  -31.2280  -18.4640   21.1150 C   0  0  0  0  0  2  0  0  0  0  0  0
  -30.9250  -18.3870   19.0430 C   0  0  0  0  0  2  0  0  0  0  0  0
  -29.9800  -18.1770   20.2500 C   0  0  2  0  0  0  0  0  0  0  0  0
  -30.4050  -15.2630   20.2170 C   0  0  0  0  0  0  0  0  0  0  0  0
  -30.3250  -12.8530   19.2890 C   0  0  0  0  0  2  0  0  0  0  0  0
  -29.3670  -12.6900   18.0840 C   0  0  0  0  0  2  0  0  0  0  0  0
  -27.9320  -12.4190   18.5640 C   0  0  0  0  0  2  0  0  0  0  0  0
  -27.5210  -13.3560   19.7280 C   0  0  0  0  0  3  0  0  0  0  0  0
  -28.6030  -13.4720   20.8210 C   0  0  0  0  0  2  0  0  0  0  0  0
  -29.8170  -13.9730   20.1590 N   0  0  0  0  0  0  0  0  0  0  0  0
  -31.6170  -15.2470   19.9630 O   0  0  0  0  0  0  0  0  0  0  0  0
  -29.6650  -16.5390   20.3550 N   0  0  0  0  0  0  0  0  0  0  0  0
  -28.6880  -16.3580   20.5360 H   0  0  0  0  0  0  0  0  0  0  0  0
  -25.1690  -13.8880   20.5600 C   0  0  0  0  0  0  0  0  0  0  0  0
  -24.1220  -13.0980   20.9440 C   0  0  0  0  0  0  0  0  0  0  0  0
  -24.5960  -11.7530   20.8770 C   0  0  0  0  0  0  0  0  0  0  0  0
  -26.2100  -13.0250   20.2720 N   0  0  0  0  0  0  0  0  0  0  0  0
  -25.8790  -11.7330   20.5310 N   0  0  0  0  0  0  0  0  0  0  0  0
  -23.8840  -10.4830   21.0630 C   0  0  0  0  0  0  0  0  0  0  0  0
  -24.3420   -9.5040   21.9730 C   0  0  0  0  0  3  0  0  0  0  0  0
  -23.6250   -8.3000   22.1510 C   0  0  0  0  0  3  0  0  0  0  0  0
  -22.4370   -8.0670   21.4190 C   0  0  0  0  0  0  0  0  0  0  0  0
  -21.9970   -9.0340   20.4990 C   0  0  0  0  0  3  0  0  0  0  0  0
  -22.7140  -10.2290   20.3190 C   0  0  0  0  0  3  0  0  0  0  0  0
  -21.6900   -6.9160   21.5060 O   0  0  0  0  0  0  0  0  0  0  0  0
  -21.6630   -6.1600   22.6510 C   0  0  0  0  0  0  0  0  0  0  0  0
  -21.2270   -6.6940   23.8840 C   0  0  0  0  0  3  0  0  0  0  0  0
  -21.1500   -5.8640   25.0210 C   0  0  0  0  0  3  0  0  0  0  0  0
  -21.4960   -4.5030   24.9260 C   0  0  0  0  0  0  0  0  0  0  0  0
  -21.9230   -3.9690   23.6970 C   0  0  0  0  0  3  0  0  0  0  0  0
  -22.0030   -4.7960   22.5620 C   0  0  0  0  0  0  0  0  0  0  0  0
  -22.3960   -4.2720   21.3770 F   0  0  0  0  0  0  0  0  0  0  0  0
  -21.4140   -3.7040   26.0160 F   0  0  0  0  0  0  0  0  0  0  0  0
  -22.7290  -13.5610   21.2550 C   0  0  0  0  0  0  0  0  0  0  0  0
  -22.0290  -12.8530   22.1330 N   0  0  0  0  0  0  0  0  0  0  0  0
  -22.2720  -14.5890   20.7550 O   0  0  0  0  0  0  0  0  0  0  0  0
  -22.4110  -12.0230   22.5610 H   0  0  0  0  0  0  0  0  0  0  0  0
  -21.0940  -13.1440   22.3800 H   0  0  0  0  0  0  0  0  0  0  0  0
  -25.3160  -15.2630   20.4000 N   0  0  0  0  0  0  0  0  0  0  0  0
  -24.5450  -15.9060   20.5460 H   0  0  0  0  0  0  0  0  0  0  0  0
  -26.1350  -15.7130   20.0150 H   0  0  0  0  0  0  0  0  0  0  0  0
  1  4  1  0
  2  1  2  0
  2  6  1  0
  4 49  1  0
  4  3  2  0
  5  3  1  0
  5  7  1  0
  6  5  2  0
  8  6  1  0
  9 20  2  0
 10  8  1  0
 10 15  1  0
 11 19  1  0
 11 21  1  0
 12 18  1  0
 12 14  1  0
 13 19  1  0
 14 13  1  0
 15 14  2  0
 16 10  2  0
 17 16  1  0
 17 12  2  0
 18 11  1  0
 19  9  1  0
 21 23  2  0
 22 21  1  0
 24 22  1  0
 25 34  2  0
 25 30  1  0
 26 22  1  0
 26 30  1  0
 27 26  1  0
 28 29  1  0
 28 27  1  0
 29 25  1  0
 30 31  2  0
 31 32  1  0
 33 32  2  0
 34 33  1  0
 35  9  1  0
 35 36  1  0
 35 45  1  0
 36 39  1  0
 37 41  1  0
 37 36  1  0
 38 37  2  0
 41 40  1  0
 43 41  1  0
 43 44  1  0
 43 42  1  0
 45 48  1  1
 45 46  1  0
 47 45  1  0
 50 51  1  0
 52 50  1  0
 52 53  1  0
 53 62  1  0
 53 49  1  6
 53 51  1  0
 54 62  1  0
 55 60  1  0
 56 57  1  0
 56 55  1  0
 58 57  1  0
 58 67  1  0
 58 59  1  0
 60 54  1  0
 60 59  1  0
 61 54  2  0
 62 63  1  0
 64 65  2  0
 65 84  1  0
 66 65  1  0
 66 69  1  0
 67 68  1  0
 67 64  1  0
 68 66  2  0
 69 70  1  0
 70 71  2  0
 72 75  1  0
 72 71  1  0
 73 72  2  0
 74 73  1  0
 74 69  2  0
 75 76  1  0
 76 77  1  0
 77 78  2  0
 79 78  1  0
 79 83  1  0
 80 79  2  0
 81 76  2  0
 81 80  1  0
 82 81  1  0
 84 85  1  0
 85 88  1  0
 85 87  1  0
 86 84  2  0
 89 90  1  0
 89 64  1  0
 91 89  1  0
M  ISO  4   6 101   8 101  54 100  62 100
M  END
>  <TORSDO>  (67) 
F 18

>  <SCORE>  (67) 
-15.821

>  <name>  (67) 
66

>  <ligand_id>  (67) 
66

>  <original_smiles>  (67) 
[H]c1c([H])c([H])c2c(c1[H])C([H])([H])C([H])([H])C([H])([H])C2([H])N([H])C(=O)C1([H])N(C(=O)C([H])(N([H])C(=O)C([H])(N([H])C([H])([H])[H])C([H])([H])[H])C(C([H])([H])[H])(C([H])([H])[H])C([H])([H])[H])C([H])([H])c2c([H])c(Oc3c([H])c([H])c(C([H])([H])C4(N([H])C(=O)N5C([H])([H])C([H])([H])C([H])([H])C([H])(n6nc(-c7c([H])c([H])c(Oc8c([H])c([H])c(F)c([H])c8F)c([H])c7[H])c(C(=O)N([H])[H])c6N([H])[H])C5([H])[H])C([H])([H])C([H])([H])C4([H])[H])c([H])c3C([H])([H])[H])c([H])c([H])c2C1([H])[H]

>  <smiles>  (67) 
[H]c1c([H])c([H])c2c(c1[H])C([H])([H])C([H])([H])C([H])([H])C2([H])N([H])C(=O)C1([H])N(C(=O)C([H])(N([H])C(=O)C([H])(N([H])C([H])([H])[H])C([H])([H])[H])C(C([H])([H])[H])(C([H])([H])[H])C([H])([H])[H])C([H])([H])c2c([H])c(Oc3c([H])c([H])c(C([H])([H])C4(N([H])C(=O)N5C([H])([H])C([H])([H])C([H])([H])C([H])(n6nc(-c7c([H])c([H])c(Oc8c([H])c([H])c(F)c([H])c8F)c([H])c7[H])c(C(=O)N([H])[H])c6N([H])[H])C5([H])[H])C([H])([H])C([H])([H])C4([H])[H])c([H])c3C([H])([H])[H])c([H])c([H])c2C1([H])[H]

$$$$
67:0:0
     RDKit          3D

 91100  0  0  1  0  0  0  0  0999 V2000
  -29.8760  -18.6500   20.9480 C   0  0  0  0  0  3  0  0  0  0  0  0
  -29.3010  -20.0690   20.6490 C   0  0  0  0  0  0  0  0  0  0  0  0
  -29.6610  -17.2840   20.2640 C   0  0  0  0  0  0  0  0  0  0  0  0
  -28.4750  -20.2130   19.5060 C   0  0  0  0  0  0  0  0  0  0  0  0
  -28.8350  -17.6280   19.1140 C   0  0  0  0  0  0  0  0  0  0  0  0
  -28.2830  -18.9620   18.7710 C   0  0  0  0  0  0  0  0  0  0  0  0
  -29.6010  -21.5380   21.3340 C   0  0  0  0  0  0  0  0  0  0  0  0
  -27.7320  -21.6450   19.1580 C   0  0  0  0  0  2  0  0  0  0  0  0
  -28.6630  -22.9650   21.5110 C   0  0  0  0  0  2  0  0  0  0  0  0
  -28.3200  -23.2050   19.1640 C   0  0  0  0  0  2  0  0  0  0  0  0
  -28.0780  -24.1750   20.4370 C   0  0  0  0  0  3  0  0  0  0  0  0
  -28.5480  -16.5140   18.1050 C   0  0  0  0  0  1  0  0  0  0  0  0
  -27.4120  -19.0200   17.5030 C   0  0  0  0  0  1  0  0  0  0  0  0
  -30.6990  -21.6310   21.8860 O   0  0  0  0  0  0  0  0  0  0  0  0
  -30.3960  -15.7040   20.4660 C   0  0  0  0  0  0  0  0  0  0  0  0
  -30.5100  -13.1870   19.6640 C   0  0  0  0  0  2  0  0  0  0  0  0
  -29.6640  -12.8140   18.4130 C   0  0  0  0  0  2  0  0  0  0  0  0
  -28.2030  -12.5140   18.7920 C   0  0  0  0  0  2  0  0  0  0  0  0
  -27.6580  -13.4900   19.8630 C   0  0  0  0  0  3  0  0  0  0  0  0
  -28.6510  -13.7740   21.0070 C   0  0  0  0  0  2  0  0  0  0  0  0
  -29.8680  -14.3540   20.4020 N   0  0  0  0  0  0  0  0  0  0  0  0
  -31.6370  -15.6400   20.4360 O   0  0  0  0  0  0  0  0  0  0  0  0
  -25.2540  -13.9880   20.5220 C   0  0  0  0  0  0  0  0  0  0  0  0
  -24.1980  -13.1890   20.8530 C   0  0  0  0  0  0  0  0  0  0  0  0
  -24.7010  -11.8500   20.8640 C   0  0  0  0  0  0  0  0  0  0  0  0
  -26.3280  -13.1380   20.3360 N   0  0  0  0  0  0  0  0  0  0  0  0
  -26.0080  -11.8470   20.6120 N   0  0  0  0  0  0  0  0  0  0  0  0
  -23.9990  -10.5720   21.0380 C   0  0  0  0  0  0  0  0  0  0  0  0
  -24.3970   -9.6400   22.0210 C   0  0  0  0  0  3  0  0  0  0  0  0
  -23.6910   -8.4280   22.1840 C   0  0  0  0  0  3  0  0  0  0  0  0
  -22.5740   -8.1400   21.3640 C   0  0  0  0  0  0  0  0  0  0  0  0
  -22.1980   -9.0610   20.3720 C   0  0  0  0  0  3  0  0  0  0  0  0
  -22.9030  -10.2650   20.2060 C   0  0  0  0  0  3  0  0  0  0  0  0
  -21.8420   -6.9800   21.4370 O   0  0  0  0  0  0  0  0  0  0  0  0
  -21.7210   -6.2750   22.6090 C   0  0  0  0  0  0  0  0  0  0  0  0
  -21.1390   -6.8440   23.7630 C   0  0  0  0  0  3  0  0  0  0  0  0
  -20.9710   -6.0630   24.9240 C   0  0  0  0  0  3  0  0  0  0  0  0
  -21.3720   -4.7150   24.9300 C   0  0  0  0  0  0  0  0  0  0  0  0
  -21.9470   -4.1450   23.7800 C   0  0  0  0  0  3  0  0  0  0  0  0
  -22.1180   -4.9230   22.6220 C   0  0  0  0  0  0  0  0  0  0  0  0
  -22.6510   -4.3630   21.5090 F   0  0  0  0  0  0  0  0  0  0  0  0
  -21.2050   -3.9610   26.0430 F   0  0  0  0  0  0  0  0  0  0  0  0
  -22.7760  -13.6310   21.0450 C   0  0  0  0  0  0  0  0  0  0  0  0
  -22.0270  -12.9370   21.8930 N   0  0  0  0  0  0  0  0  0  0  0  0
  -22.3380  -14.6300   20.4750 O   0  0  0  0  0  0  0  0  0  0  0  0
  -22.3930  -12.1300   22.3770 H   0  0  0  0  0  0  0  0  0  0  0  0
  -21.0710  -13.2160   22.0640 H   0  0  0  0  0  0  0  0  0  0  0  0
  -25.3890  -15.3620   20.3330 N   0  0  0  0  0  0  0  0  0  0  0  0
  -24.6040  -16.0000   20.4080 H   0  0  0  0  0  0  0  0  0  0  0  0
  -26.2520  -15.8240   20.0770 H   0  0  0  0  0  0  0  0  0  0  0  0
  -28.2160  -25.8830   20.4750 O   0  0  0  0  0  0  0  0  0  0  0  0
  -24.6650  -32.0530   23.2920 C   0  0  0  0  0  0  0  0  0  0  0  0
  -27.2100  -27.0220   20.3960 C   0  0  0  0  0  0  0  0  0  0  0  0
  -23.4770  -30.6320   21.6740 C   0  0  0  0  0  3  0  0  0  0  0  0
  -24.9280  -28.9760   20.2930 C   0  0  0  0  0  0  0  0  0  0  0  0
  -26.0500  -30.8050   21.5420 C   0  0  0  0  0  2  0  0  0  0  0  0
  -26.1160  -29.3690   20.9170 C   0  0  0  0  0  0  0  0  0  0  0  0
  -27.2470  -28.4190   20.9360 C   0  0  0  0  0  3  0  0  0  0  0  0
  -25.9870  -26.8020   19.7220 C   0  0  0  0  0  3  0  0  0  0  0  0
  -24.8950  -27.7150   19.6710 C   0  0  0  0  0  3  0  0  0  0  0  0
  -23.7150  -29.9150   20.3150 C   0  0  0  0  0  2  0  0  0  0  0  0
  -24.7530  -31.1940   22.2220 N   0  0  0  0  0  0  0  0  0  0  0  0
  -23.5720  -32.3600   23.7990 O   0  0  0  0  0  0  0  0  0  0  0  0
  -22.7630  -29.6650   22.6570 C   0  0  0  0  0  0  0  0  0  0  0  0
  -21.4370  -29.4910   22.5150 N   0  0  0  0  0  0  0  0  0  0  0  0
  -23.4150  -29.0690   23.5170 O   0  0  0  0  0  0  0  0  0  0  0  0
  -20.9610  -30.0250   21.8020 H   0  0  0  0  0  0  0  0  0  0  0  0
  -18.0520  -28.2670   23.0090 C   0  0  0  0  0  0  0  0  0  0  0  0
  -20.6070  -28.5660   23.2980 C   0  0  0  0  0  3  0  0  0  0  0  0
  -20.7270  -27.1200   22.7650 C   0  0  0  0  0  2  0  0  0  0  0  0
  -19.6430  -26.7610   21.7420 C   0  0  0  0  0  2  0  0  0  0  0  0
  -18.2510  -26.9050   22.3640 C   0  0  0  0  0  2  0  0  0  0  0  0
  -19.1570  -29.0530   23.4330 C   0  0  0  0  0  0  0  0  0  0  0  0
  -18.9140  -30.3230   24.0000 C   0  0  0  0  0  3  0  0  0  0  0  0
  -17.6020  -30.8090   24.1440 C   0  0  0  0  0  3  0  0  0  0  0  0
  -16.5110  -30.0220   23.7340 C   0  0  0  0  0  3  0  0  0  0  0  0
  -16.7380  -28.7530   23.1720 C   0  0  0  0  0  3  0  0  0  0  0  0
  -25.9310  -32.7080   23.9240 C   0  0  0  0  0  3  0  0  0  0  0  0
  -25.6190  -34.1190   24.2190 N   0  0  0  0  0  0  0  0  0  0  0  0
  -25.9310  -35.1580   23.4310 C   0  0  0  0  0  0  0  0  0  0  0  0
  -26.5720  -35.0280   22.3860 O   0  0  0  0  0  0  0  0  0  0  0  0
  -25.0500  -34.2920   25.0330 H   0  0  0  0  0  0  0  0  0  0  0  0
  -24.1770  -36.9380   23.1150 C   0  0  0  0  0  1  0  0  0  0  0  0
  -25.4610  -36.5610   23.8700 C   0  0  0  0  0  3  0  0  0  0  0  0
  -27.6230  -37.4950   24.5670 C   0  0  0  0  0  1  0  0  0  0  0  0
  -26.4790  -37.6150   23.6670 N   0  0  0  0  0  0  0  0  0  0  0  0
  -26.0730  -38.5380   23.7910 H   0  0  0  0  0  0  0  0  0  0  0  0
  -26.4140  -31.9770   25.2370 C   0  0  1  0  0  0  0  0  0  0  0  0
  -25.2930  -31.7670   26.2840 C   0  0  0  0  0  1  0  0  0  0  0  0
  -27.0130  -30.5900   24.9110 C   0  0  0  0  0  1  0  0  0  0  0  0
  -27.5440  -32.7940   25.9060 C   0  0  0  0  0  1  0  0  0  0  0  0
  2  1  1  0
  2  7  1  0
  3 15  1  0
  3  1  2  0
  4  2  2  0
  5  3  1  0
  6  5  2  0
  6  4  1  0
  7  9  1  0
  7 14  2  0
  8 10  1  0
  8  4  1  0
 10 11  1  0
 11 51  1  0
 11  9  1  0
 12  5  1  0
 13  6  1  0
 16 21  1  0
 17 18  1  0
 17 16  1  0
 19 18  1  0
 19 26  1  0
 19 20  1  0
 21 15  1  0
 21 20  1  0
 22 15  2  0
 23 24  2  0
 24 25  1  0
 24 43  1  0
 25 28  1  0
 26 23  1  0
 26 27  1  0
 27 25  2  0
 28 29  1  0
 29 30  2  0
 31 34  1  0
 31 30  1  0
 32 31  2  0
 33 32  1  0
 33 28  2  0
 34 35  1  0
 35 40  2  0
 35 36  1  0
 36 37  2  0
 37 38  1  0
 38 42  1  0
 39 38  2  0
 40 39  1  0
 41 40  1  0
 43 44  1  0
 44 47  1  0
 44 46  1  0
 45 43  2  0
 48 49  1  0
 48 23  1  0
 50 48  1  0
 52 63  2  0
 53 51  1  0
 53 58  1  0
 54 62  1  0
 54 64  1  0
 55 61  1  0
 55 57  1  0
 56 62  1  0
 57 58  2  0
 57 56  1  0
 59 53  2  0
 60 59  1  0
 60 55  2  0
 61 54  1  0
 62 52  1  0
 64 66  2  0
 65 64  1  0
 67 65  1  0
 68 77  2  0
 68 73  1  0
 69 65  1  0
 69 73  1  0
 70 69  1  0
 71 72  1  0
 71 70  1  0
 72 68  1  0
 73 74  2  0
 74 75  1  0
 76 75  2  0
 77 76  1  0
 78 52  1  0
 78 79  1  0
 78 88  1  0
 79 82  1  0
 80 84  1  0
 80 79  1  0
 81 80  2  0
 84 83  1  0
 86 87  1  0
 86 84  1  0
 86 85  1  0
 88 91  1  1
 88 89  1  0
 90 88  1  0
M  ISO  4   3 100  11 101  15 100  51 101
M  END
>  <TORSDO>  (68) 
F 16

>  <SCORE>  (68) 
-15.853

>  <name>  (68) 
67

>  <ligand_id>  (68) 
67

>  <original_smiles>  (68) 
[H]c1c([H])c([H])c2c(c1[H])C([H])([H])C([H])([H])C([H])([H])C2([H])N([H])C(=O)C1([H])N(C(=O)C([H])(N([H])C(=O)C([H])(N([H])C([H])([H])[H])C([H])([H])[H])C(C([H])([H])[H])(C([H])([H])[H])C([H])([H])[H])C([H])([H])c2c([H])c(OC3([H])C([H])([H])C(=O)c4c([H])c(C(=O)N5C([H])([H])C([H])([H])C([H])([H])C([H])(n6nc(-c7c([H])c([H])c(Oc8c([H])c([H])c(F)c([H])c8F)c([H])c7[H])c(C(=O)N([H])[H])c6N([H])[H])C5([H])[H])c(C([H])([H])[H])c(C([H])([H])[H])c4C([H])([H])C3([H])[H])c([H])c([H])c2C1([H])[H]

>  <smiles>  (68) 
[H]c1c([H])c([H])c2c(c1[H])C([H])([H])C([H])([H])C([H])([H])C2([H])N([H])C(=O)C1([H])N(C(=O)C([H])(N([H])C(=O)C([H])(N([H])C([H])([H])[H])C([H])([H])[H])C(C([H])([H])[H])(C([H])([H])[H])C([H])([H])[H])C([H])([H])c2c([H])c(OC3([H])C([H])([H])C(=O)c4c([H])c(C(=O)N5C([H])([H])C([H])([H])C([H])([H])C([H])(n6nc(-c7c([H])c([H])c(Oc8c([H])c([H])c(F)c([H])c8F)c([H])c7[H])c(C(=O)N([H])[H])c6N([H])[H])C5([H])[H])c(C([H])([H])[H])c(C([H])([H])[H])c4C([H])([H])C3([H])[H])c([H])c([H])c2C1([H])[H]

$$$$
68:0:0
     RDKit          3D

 96105  0  0  1  0  0  0  0  0999 V2000
  -29.6570  -23.2020   19.9620 C   0  0  0  0  0  3  0  0  0  0  0  0
  -29.4920  -24.5870   19.7060 C   0  0  0  0  0  0  0  0  0  0  0  0
  -28.7700  -22.5060   20.8150 C   0  0  0  0  0  0  0  0  0  0  0  0
  -27.5940  -24.6530   21.2290 C   0  0  0  0  0  0  0  0  0  0  0  0
  -28.4750  -25.3470   20.3400 C   0  0  0  0  0  0  0  0  0  0  0  0
  -27.7290  -23.2510   21.4170 C   0  0  0  0  0  0  0  0  0  0  0  0
  -30.4480  -25.2740   18.7510 C   0  0  0  0  0  1  0  0  0  0  0  0
  -26.5260  -25.3740   22.0430 C   0  0  0  0  0  1  0  0  0  0  0  0
  -26.8640  -22.6090   22.2410 F   0  0  0  0  0  0  0  0  0  0  0  0
  -28.4710  -26.7200   20.1020 O   0  0  0  0  0  0  0  0  0  0  0  0
  -24.5650  -31.8110   23.1800 C   0  0  0  0  0  0  0  0  0  0  0  0
  -27.3080  -27.4620   20.0470 C   0  0  0  0  0  0  0  0  0  0  0  0
  -23.4030  -30.4380   21.4850 C   0  0  0  0  0  3  0  0  0  0  0  0
  -24.8980  -28.9500   20.0410 C   0  0  0  0  0  0  0  0  0  0  0  0
  -25.9260  -30.8280   21.3340 C   0  0  0  0  0  2  0  0  0  0  0  0
  -26.0380  -29.4710   20.6670 C   0  0  0  0  0  0  0  0  0  0  0  0
  -27.2460  -28.7280   20.6730 C   0  0  0  0  0  3  0  0  0  0  0  0
  -26.1630  -26.9710   19.3840 C   0  0  0  0  0  3  0  0  0  0  0  0
  -24.9570  -27.7020   19.3950 C   0  0  0  0  0  3  0  0  0  0  0  0
  -23.6430  -29.7900   20.0970 C   0  0  0  0  0  2  0  0  0  0  0  0
  -24.6490  -31.0380   22.0600 N   0  0  0  0  0  0  0  0  0  0  0  0
  -23.4690  -32.0610   23.7060 O   0  0  0  0  0  0  0  0  0  0  0  0
  -22.7440  -29.3880   22.4070 C   0  0  0  0  0  0  0  0  0  0  0  0
  -21.4190  -29.2140   22.2640 N   0  0  0  0  0  0  0  0  0  0  0  0
  -23.4190  -28.7320   23.2060 O   0  0  0  0  0  0  0  0  0  0  0  0
  -20.9360  -29.7860   21.5850 H   0  0  0  0  0  0  0  0  0  0  0  0
  -18.0340  -28.0430   22.7260 C   0  0  0  0  0  0  0  0  0  0  0  0
  -20.5940  -28.2550   22.9950 C   0  0  0  0  0  3  0  0  0  0  0  0
  -20.6750  -26.8520   22.3490 C   0  0  0  0  0  2  0  0  0  0  0  0
  -19.5640  -26.5940   21.3270 C   0  0  0  0  0  2  0  0  0  0  0  0
  -18.1880  -26.7260   21.9860 C   0  0  0  0  0  2  0  0  0  0  0  0
  -19.1640  -28.7710   23.1870 C   0  0  0  0  0  0  0  0  0  0  0  0
  -18.9630  -30.0100   23.8350 C   0  0  0  0  0  3  0  0  0  0  0  0
  -17.6640  -30.5210   24.0240 C   0  0  0  0  0  3  0  0  0  0  0  0
  -16.5490  -29.7890   23.5780 C   0  0  0  0  0  3  0  0  0  0  0  0
  -16.7350  -28.5500   22.9360 C   0  0  0  0  0  3  0  0  0  0  0  0
  -25.8310  -32.4350   23.8440 C   0  0  0  0  0  3  0  0  0  0  0  0
  -26.3090  -31.6510   25.1270 C   0  0  1  0  0  0  0  0  0  0  0  0
  -25.1840  -31.4020   26.1590 C   0  0  0  0  0  1  0  0  0  0  0  0
  -26.8930  -30.2750   24.7300 C   0  0  0  0  0  1  0  0  0  0  0  0
  -27.4530  -32.4250   25.8250 C   0  0  0  0  0  1  0  0  0  0  0  0
  -25.5200  -33.8320   24.1760 N   0  0  0  0  0  0  0  0  0  0  0  0
  -25.8800  -34.8850   23.4320 C   0  0  0  0  0  0  0  0  0  0  0  0
  -26.5840  -34.7780   22.4210 O   0  0  0  0  0  0  0  0  0  0  0  0
  -24.9040  -33.9890   24.9620 H   0  0  0  0  0  0  0  0  0  0  0  0
  -24.1660  -36.6730   23.0230 C   0  0  0  0  0  1  0  0  0  0  0  0
  -25.3840  -36.2740   23.8720 C   0  0  0  0  0  3  0  0  0  0  0  0
  -27.4960  -37.1480   24.7650 C   0  0  0  0  0  1  0  0  0  0  0  0
  -26.4220  -37.3230   23.7910 N   0  0  0  0  0  0  0  0  0  0  0  0
  -26.0190  -38.2450   23.9280 H   0  0  0  0  0  0  0  0  0  0  0  0
  -28.9740  -21.0270   21.2280 C   0  0  0  0  0  2  0  0  0  0  0  0
  -29.7530  -20.0390   20.2880 C   0  0  0  0  0  2  0  0  0  0  0  0
  -30.3340  -15.9930   19.8560 C   0  0  0  0  0  0  0  0  0  0  0  0
  -30.5430  -16.7830   18.7620 C   0  0  0  0  0  0  0  0  0  0  0  0
  -29.5900  -16.6210   21.0360 C   0  0  0  0  0  2  0  0  0  0  0  0
  -29.8610  -18.1440   18.5230 C   0  0  0  0  0  2  0  0  0  0  0  0
  -28.5430  -17.7100   20.6590 C   0  0  0  0  0  2  0  0  0  0  0  0
  -28.9920  -18.8080   19.6400 C   0  0  1  0  0  0  0  0  0  0  0  0
  -31.5480  -16.4900   17.6500 C   0  0  0  0  0  1  0  0  0  0  0  0
  -27.7340  -19.3960   18.9450 C   0  0  0  0  0  1  0  0  0  0  0  0
  -31.1280  -14.7340   20.0130 C   0  0  0  0  0  0  0  0  0  0  0  0
  -30.8450  -12.3990   19.2420 C   0  0  0  0  0  2  0  0  0  0  0  0
  -29.9030  -12.3320   18.0160 C   0  0  0  0  0  2  0  0  0  0  0  0
  -28.4270  -12.2930   18.4450 C   0  0  0  0  0  2  0  0  0  0  0  0
  -28.0730  -13.3260   19.5400 C   0  0  0  0  0  3  0  0  0  0  0  0
  -29.1210  -13.3310   20.6710 C   0  0  0  0  0  2  0  0  0  0  0  0
  -30.4400  -13.5520   20.0670 N   0  0  0  0  0  0  0  0  0  0  0  0
  -32.3400  -14.7360   19.7930 O   0  0  0  0  0  0  0  0  0  0  0  0
  -25.7250  -14.0390   20.2980 C   0  0  0  0  0  0  0  0  0  0  0  0
  -24.6330  -13.3180   20.6890 C   0  0  0  0  0  0  0  0  0  0  0  0
  -25.0310  -11.9460   20.6660 C   0  0  0  0  0  0  0  0  0  0  0  0
  -26.7260  -13.1100   20.0590 N   0  0  0  0  0  0  0  0  0  0  0  0
  -26.3150  -11.8500   20.3500 N   0  0  0  0  0  0  0  0  0  0  0  0
  -24.2520  -10.7200   20.8820 C   0  0  0  0  0  0  0  0  0  0  0  0
  -24.6430   -9.7570   21.8370 C   0  0  0  0  0  3  0  0  0  0  0  0
  -23.8730   -8.5920   22.0360 C   0  0  0  0  0  3  0  0  0  0  0  0
  -22.6920   -8.3840   21.2820 C   0  0  0  0  0  0  0  0  0  0  0  0
  -22.3190   -9.3380   20.3200 C   0  0  0  0  0  3  0  0  0  0  0  0
  -23.0910  -10.4940   20.1210 C   0  0  0  0  0  3  0  0  0  0  0  0
  -21.8900   -7.2760   21.3940 O   0  0  0  0  0  0  0  0  0  0  0  0
  -21.7850   -6.5790   22.5710 C   0  0  0  0  0  0  0  0  0  0  0  0
  -21.3510   -7.1960   23.7650 C   0  0  0  0  0  3  0  0  0  0  0  0
  -21.1910   -6.4250   24.9340 C   0  0  0  0  0  3  0  0  0  0  0  0
  -21.4510   -5.0420   24.9060 C   0  0  0  0  0  0  0  0  0  0  0  0
  -21.8770   -4.4270   23.7180 C   0  0  0  0  0  3  0  0  0  0  0  0
  -22.0430   -5.1940   22.5510 C   0  0  0  0  0  0  0  0  0  0  0  0
  -22.4350   -4.5950   21.4000 F   0  0  0  0  0  0  0  0  0  0  0  0
  -21.2890   -4.2990   26.0270 F   0  0  0  0  0  0  0  0  0  0  0  0
  -23.2610  -13.8600   20.9620 C   0  0  0  0  0  0  0  0  0  0  0  0
  -22.5180  -13.2250   21.8580 N   0  0  0  0  0  0  0  0  0  0  0  0
  -22.8570  -14.8840   20.4110 O   0  0  0  0  0  0  0  0  0  0  0  0
  -22.8560  -12.3980   22.3270 H   0  0  0  0  0  0  0  0  0  0  0  0
  -21.5980  -13.5770   22.0800 H   0  0  0  0  0  0  0  0  0  0  0  0
  -25.9370  -15.4010   20.1010 N   0  0  0  0  0  0  0  0  0  0  0  0
  -25.1880  -16.0760   20.2010 H   0  0  0  0  0  0  0  0  0  0  0  0
  -26.7930  -15.8050   19.7430 H   0  0  0  0  0  0  0  0  0  0  0  0
  1  3  1  0
  2  1  2  0
  2  5  1  0
  3 51  1  0
  3  6  2  0
  4  6  1  0
  4  8  1  0
  5  4  2  0
  6  9  1  0
  7  2  1  0
 10  5  1  0
 11 22  2  0
 12 10  1  0
 12 17  1  0
 13 21  1  0
 13 23  1  0
 14 20  1  0
 14 16  1  0
 15 21  1  0
 16 17  2  0
 16 15  1  0
 18 19  1  0
 18 12  2  0
 19 14  2  0
 20 13  1  0
 21 11  1  0
 23 25  2  0
 24 23  1  0
 26 24  1  0
 27 36  2  0
 27 32  1  0
 28 24  1  0
 28 32  1  0
 29 28  1  0
 30 31  1  0
 30 29  1  0
 31 27  1  0
 32 33  2  0
 33 34  1  0
 35 34  2  0
 36 35  1  0
 37 11  1  0
 37 42  1  0
 37 38  1  0
 38 41  1  1
 38 39  1  0
 40 38  1  0
 42 45  1  0
 43 47  1  0
 43 42  1  0
 44 43  2  0
 47 46  1  0
 49 47  1  0
 49 50  1  0
 49 48  1  0
 52 51  1  0
 53 61  1  0
 53 55  1  0
 54 53  2  0
 56 54  1  0
 56 58  1  0
 57 55  1  0
 58 60  1  6
 58 52  1  0
 58 57  1  0
 59 54  1  0
 61 67  1  0
 62 67  1  0
 63 64  1  0
 63 62  1  0
 65 64  1  0
 65 72  1  0
 65 66  1  0
 67 66  1  0
 68 61  2  0
 69 70  2  0
 70 89  1  0
 71 70  1  0
 71 74  1  0
 72 69  1  0
 72 73  1  0
 73 71  2  0
 74 75  1  0
 75 76  2  0
 77 80  1  0
 77 76  1  0
 78 77  2  0
 79 78  1  0
 79 74  2  0
 80 81  1  0
 81 82  1  0
 82 83  2  0
 84 83  1  0
 84 88  1  0
 85 84  2  0
 86 81  2  0
 86 85  1  0
 87 86  1  0
 89 90  1  0
 90 93  1  0
 90 92  1  0
 91 89  2  0
 94 95  1  0
 94 69  1  0
 96 94  1  0
M  ISO  4   5 101  10 101  53 100  61 100
M  END
>  <TORSDO>  (69) 
F 19

>  <SCORE>  (69) 
-14.331

>  <name>  (69) 
68

>  <ligand_id>  (69) 
68

>  <original_smiles>  (69) 
[H]c1c([H])c([H])c2c(c1[H])C([H])([H])C([H])([H])C([H])([H])C2([H])N([H])C(=O)C1([H])N(C(=O)C([H])(N([H])C(=O)C([H])(N([H])C([H])([H])[H])C([H])([H])[H])C(C([H])([H])[H])(C([H])([H])[H])C([H])([H])[H])C([H])([H])c2c([H])c(Oc3c(C([H])([H])[H])c([H])c(C([H])([H])C([H])([H])C4(C([H])([H])[H])C([H])([H])C(C([H])([H])[H])=C(C(=O)N5C([H])([H])C([H])([H])C([H])([H])C([H])(n6nc(-c7c([H])c([H])c(Oc8c([H])c([H])c(F)c([H])c8F)c([H])c7[H])c(C(=O)N([H])[H])c6N([H])[H])C5([H])[H])C([H])([H])C4([H])[H])c(F)c3C([H])([H])[H])c([H])c([H])c2C1([H])[H]

>  <smiles>  (69) 
[H]c1c([H])c([H])c2c(c1[H])C([H])([H])C([H])([H])C([H])([H])C2([H])N([H])C(=O)C1([H])N(C(=O)C([H])(N([H])C(=O)C([H])(N([H])C([H])([H])[H])C([H])([H])[H])C(C([H])([H])[H])(C([H])([H])[H])C([H])([H])[H])C([H])([H])c2c([H])c(Oc3c(C([H])([H])[H])c([H])c(C([H])([H])C([H])([H])C4(C([H])([H])[H])C([H])([H])C(C([H])([H])[H])=C(C(=O)N5C([H])([H])C([H])([H])C([H])([H])C([H])(n6nc(-c7c([H])c([H])c(Oc8c([H])c([H])c(F)c([H])c8F)c([H])c7[H])c(C(=O)N([H])[H])c6N([H])[H])C5([H])[H])C([H])([H])C4([H])[H])c(F)c3C([H])([H])[H])c([H])c([H])c2C1([H])[H]

$$$$
69:0:0
     RDKit          3D

 93102  0  0  1  0  0  0  0  0999 V2000
  -29.0360  -23.7150   19.8320 C   0  0  0  0  0  3  0  0  0  0  0  0
  -28.6620  -24.3560   20.9600 C   0  0  0  0  0  0  0  0  0  0  0  0
  -29.0240  -22.1860   19.6260 C   0  0  0  0  0  2  0  0  0  0  0  0
  -28.1870  -23.5410   22.1540 C   0  0  0  0  0  2  0  0  0  0  0  0
  -27.6980  -22.1290   21.7670 C   0  0  0  0  0  2  0  0  0  0  0  0
  -27.9380  -19.9860   20.4930 C   0  0  0  0  0  2  0  0  0  0  0  0
  -29.9330  -20.8940   21.7010 C   0  0  0  0  0  2  0  0  0  0  0  0
  -28.8260  -18.8370   19.9480 C   0  0  0  0  0  2  0  0  0  0  0  0
  -30.7520  -19.6990   21.1260 C   0  0  0  0  0  2  0  0  0  0  0  0
  -28.6740  -21.3080   20.8800 C   0  0  1  0  0  0  0  0  0  0  0  0
  -29.9150  -18.4840   20.8960 N   0  0  2  0  0  4  0  0  0  0  0  0
  -29.4910  -18.2680   21.7850 H   0  0  0  0  0  0  0  0  0  0  0  0
  -30.0510  -26.3120   21.7970 C   0  0  0  0  0  1  0  0  0  0  0  0
  -28.7130  -25.8890   21.1820 C   0  0  0  0  0  3  0  0  0  0  0  0
  -28.4960  -26.7010   20.0090 O   0  0  0  0  0  0  0  0  0  0  0  0
  -24.6060  -31.8490   23.1390 C   0  0  0  0  0  0  0  0  0  0  0  0
  -27.3490  -27.4720   20.0310 C   0  0  0  0  0  0  0  0  0  0  0  0
  -23.4390  -30.4450   21.4700 C   0  0  0  0  0  3  0  0  0  0  0  0
  -24.9330  -28.9490   20.0380 C   0  0  0  0  0  0  0  0  0  0  0  0
  -25.9610  -30.8460   21.3000 C   0  0  0  0  0  2  0  0  0  0  0  0
  -26.0780  -29.4820   20.6460 C   0  0  0  0  0  0  0  0  0  0  0  0
  -27.2910  -28.7490   20.6440 C   0  0  0  0  0  3  0  0  0  0  0  0
  -26.1920  -26.9600   19.4140 C   0  0  0  0  0  3  0  0  0  0  0  0
  -24.9860  -27.6880   19.4190 C   0  0  0  0  0  3  0  0  0  0  0  0
  -23.6730  -29.7860   20.0850 C   0  0  0  0  0  2  0  0  0  0  0  0
  -24.6860  -31.0620   22.0280 N   0  0  0  0  0  0  0  0  0  0  0  0
  -23.5150  -32.0950   23.6740 O   0  0  0  0  0  0  0  0  0  0  0  0
  -22.7970  -29.4020   22.4130 C   0  0  0  0  0  0  0  0  0  0  0  0
  -21.4740  -29.2080   22.2830 N   0  0  0  0  0  0  0  0  0  0  0  0
  -23.4870  -28.7710   23.2190 O   0  0  0  0  0  0  0  0  0  0  0  0
  -20.9780  -29.7700   21.6060 H   0  0  0  0  0  0  0  0  0  0  0  0
  -18.1120  -27.9770   22.7700 C   0  0  0  0  0  0  0  0  0  0  0  0
  -20.6680  -28.2480   23.0370 C   0  0  0  0  0  3  0  0  0  0  0  0
  -20.7800  -26.8300   22.4300 C   0  0  0  0  0  2  0  0  0  0  0  0
  -19.6760  -26.5220   21.4130 C   0  0  0  0  0  2  0  0  0  0  0  0
  -18.2950  -26.6430   22.0650 C   0  0  0  0  0  2  0  0  0  0  0  0
  -19.2270  -28.7370   23.2120 C   0  0  0  0  0  0  0  0  0  0  0  0
  -19.0010  -29.9860   23.8310 C   0  0  0  0  0  3  0  0  0  0  0  0
  -17.6940  -30.4750   24.0110 C   0  0  0  0  0  3  0  0  0  0  0  0
  -16.5940  -29.7110   23.5860 C   0  0  0  0  0  3  0  0  0  0  0  0
  -16.8030  -28.4640   22.9720 C   0  0  0  0  0  3  0  0  0  0  0  0
  -25.8750  -32.4950   23.7760 C   0  0  0  0  0  3  0  0  0  0  0  0
  -26.4000  -31.7160   25.0440 C   0  0  1  0  0  0  0  0  0  0  0  0
  -25.3060  -31.4460   26.1020 C   0  0  0  0  0  1  0  0  0  0  0  0
  -27.0100  -30.3550   24.6360 C   0  0  0  0  0  1  0  0  0  0  0  0
  -27.5330  -32.5220   25.7230 C   0  0  0  0  0  1  0  0  0  0  0  0
  -25.5400  -33.8830   24.1200 N   0  0  0  0  0  0  0  0  0  0  0  0
  -25.8600  -34.9500   23.3760 C   0  0  0  0  0  0  0  0  0  0  0  0
  -26.5390  -34.8720   22.3490 O   0  0  0  0  0  0  0  0  0  0  0  0
  -24.9370  -34.0180   24.9190 H   0  0  0  0  0  0  0  0  0  0  0  0
  -24.1070  -36.7190   23.0240 C   0  0  0  0  0  1  0  0  0  0  0  0
  -25.3440  -36.3250   23.8460 C   0  0  0  0  0  3  0  0  0  0  0  0
  -27.4510  -37.2340   24.7190 C   0  0  0  0  0  1  0  0  0  0  0  0
  -26.3600  -37.3950   23.7610 N   0  0  0  0  0  0  0  0  0  0  0  0
  -25.9370  -38.3070   23.9130 H   0  0  0  0  0  0  0  0  0  0  0  0
  -30.7080  -17.2640   20.4970 C   0  0  0  0  0  2  0  0  0  0  0  0
  -30.0970  -15.8780   20.9170 C   0  0  0  0  0  2  0  0  0  0  0  0
  -30.8040  -14.6320   20.2950 C   0  0  0  0  0  0  0  0  0  0  0  0
  -30.4980  -12.4680   19.1250 C   0  0  0  0  0  2  0  0  0  0  0  0
  -29.5380  -12.6800   17.9350 C   0  0  0  0  0  2  0  0  0  0  0  0
  -28.0710  -12.5360   18.3840 C   0  0  0  0  0  2  0  0  0  0  0  0
  -27.7530  -13.3640   19.6580 C   0  0  0  0  0  3  0  0  0  0  0  0
  -28.8260  -13.1460   20.7480 C   0  0  0  0  0  2  0  0  0  0  0  0
  -30.1400  -13.4480   20.1650 N   0  0  0  0  0  0  0  0  0  0  0  0
  -31.9310  -14.7880   19.8160 O   0  0  0  0  0  0  0  0  0  0  0  0
  -25.3670  -13.9760   20.4010 C   0  0  0  0  0  0  0  0  0  0  0  0
  -24.3020  -13.2050   20.7850 C   0  0  0  0  0  0  0  0  0  0  0  0
  -24.7600  -11.8530   20.7500 C   0  0  0  0  0  0  0  0  0  0  0  0
  -26.4060  -13.0910   20.1570 N   0  0  0  0  0  0  0  0  0  0  0  0
  -26.0470  -11.8110   20.4250 N   0  0  0  0  0  0  0  0  0  0  0  0
  -24.0340  -10.5920   20.9500 C   0  0  0  0  0  0  0  0  0  0  0  0
  -24.4590   -9.6380   21.9000 C   0  0  0  0  0  3  0  0  0  0  0  0
  -23.7340   -8.4410   22.0870 C   0  0  0  0  0  3  0  0  0  0  0  0
  -22.5690   -8.1910   21.3220 C   0  0  0  0  0  0  0  0  0  0  0  0
  -22.1640   -9.1340   20.3620 C   0  0  0  0  0  3  0  0  0  0  0  0
  -22.8900  -10.3220   20.1740 C   0  0  0  0  0  3  0  0  0  0  0  0
  -21.8160   -7.0460   21.4170 O   0  0  0  0  0  0  0  0  0  0  0  0
  -21.7320   -6.3350   22.5880 C   0  0  0  0  0  0  0  0  0  0  0  0
  -21.2460   -6.9160   23.7790 C   0  0  0  0  0  3  0  0  0  0  0  0
  -21.1120   -6.1300   24.9410 C   0  0  0  0  0  3  0  0  0  0  0  0
  -21.4510   -4.7640   24.9120 C   0  0  0  0  0  0  0  0  0  0  0  0
  -21.9300   -4.1830   23.7250 C   0  0  0  0  0  3  0  0  0  0  0  0
  -22.0670   -4.9650   22.5650 C   0  0  0  0  0  0  0  0  0  0  0  0
  -22.5090   -4.3960   21.4180 F   0  0  0  0  0  0  0  0  0  0  0  0
  -21.3150   -4.0070   26.0260 F   0  0  0  0  0  0  0  0  0  0  0  0
  -22.9090  -13.6860   21.0730 C   0  0  0  0  0  0  0  0  0  0  0  0
  -22.1890  -12.9900   21.9470 N   0  0  0  0  0  0  0  0  0  0  0  0
  -22.4670  -14.7130   20.5590 O   0  0  0  0  0  0  0  0  0  0  0  0
  -22.5580  -12.1590   22.3840 H   0  0  0  0  0  0  0  0  0  0  0  0
  -21.2550  -13.2950   22.1820 H   0  0  0  0  0  0  0  0  0  0  0  0
  -25.5330  -15.3450   20.2190 N   0  0  0  0  0  0  0  0  0  0  0  0
  -24.7650  -15.9980   20.3270 H   0  0  0  0  0  0  0  0  0  0  0  0
  -26.3710  -15.7750   19.8510 H   0  0  0  0  0  0  0  0  0  0  0  0
  1  2  2  0
  2 14  1  0
  2  4  1  0
  3  1  1  0
  5  4  1  0
 10  6  1  6
  8  6  1  0
  8 11  1  0
  9  7  1  0
 10  3  1  0
 10  7  1  0
 10  5  1  0
 11  9  1  0
 11 12  1  1
 14 13  1  0
 15 17  1  0
 15 14  1  0
 16 27  2  0
 17 22  1  0
 18 26  1  0
 18 28  1  0
 19 25  1  0
 19 21  1  0
 20 26  1  0
 21 20  1  0
 22 21  2  0
 23 24  1  0
 23 17  2  0
 24 19  2  0
 25 18  1  0
 26 16  1  0
 28 30  2  0
 29 28  1  0
 31 29  1  0
 32 41  2  0
 32 37  1  0
 33 29  1  0
 33 37  1  0
 34 33  1  0
 35 36  1  0
 35 34  1  0
 36 32  1  0
 37 38  2  0
 38 39  1  0
 40 39  2  0
 41 40  1  0
 42 16  1  0
 42 47  1  0
 42 43  1  0
 43 46  1  1
 43 44  1  0
 45 43  1  0
 47 50  1  0
 48 52  1  0
 48 47  1  0
 49 48  2  0
 52 51  1  0
 54 52  1  0
 54 55  1  0
 54 53  1  0
 56 11  1  0
 56 57  1  0
 58 57  1  0
 59 64  1  0
 60 61  1  0
 60 59  1  0
 62 61  1  0
 62 69  1  0
 62 63  1  0
 64 58  1  0
 64 63  1  0
 65 58  2  0
 66 67  2  0
 67 86  1  0
 68 67  1  0
 68 71  1  0
 69 66  1  0
 69 70  1  0
 70 68  2  0
 71 72  1  0
 72 73  2  0
 74 77  1  0
 74 73  1  0
 75 74  2  0
 76 75  1  0
 76 71  2  0
 77 78  1  0
 78 79  1  0
 79 80  2  0
 81 80  1  0
 81 85  1  0
 82 81  2  0
 83 78  2  0
 83 82  1  0
 84 83  1  0
 86 87  1  0
 87 90  1  0
 87 89  1  0
 88 86  2  0
 91 92  1  0
 91 66  1  0
 93 91  1  0
M  ISO  4  14 101  15 101  57 100  58 100
M  END
>  <TORSDO>  (70) 
F 19

>  <SCORE>  (70) 
-14.228

>  <name>  (70) 
69

>  <ligand_id>  (70) 
69

>  <original_smiles>  (70) 
[H]C1=C(C([H])(Oc2c([H])c([H])c3c(c2[H])C([H])([H])N(C(=O)C([H])(N([H])C(=O)C([H])(N([H])C([H])([H])[H])C([H])([H])[H])C(C([H])([H])[H])(C([H])([H])[H])C([H])([H])[H])C([H])(C(=O)N([H])C2([H])c4c([H])c([H])c([H])c([H])c4C([H])([H])C([H])([H])C2([H])[H])C3([H])[H])C([H])([H])[H])C([H])([H])C([H])([H])C2(C1([H])[H])C([H])([H])C([H])([H])[N+]([H])(C([H])([H])C([H])([H])C(=O)N1C([H])([H])C([H])([H])C([H])([H])C([H])(n3nc(-c4c([H])c([H])c(Oc5c([H])c([H])c(F)c([H])c5F)c([H])c4[H])c(C(=O)N([H])[H])c3N([H])[H])C1([H])[H])C([H])([H])C2([H])[H]

>  <smiles>  (70) 
[H]C1=C(C([H])(Oc2c([H])c([H])c3c(c2[H])C([H])([H])N(C(=O)C([H])(N([H])C(=O)C([H])(N([H])C([H])([H])[H])C([H])([H])[H])C(C([H])([H])[H])(C([H])([H])[H])C([H])([H])[H])C([H])(C(=O)N([H])C2([H])c4c([H])c([H])c([H])c([H])c4C([H])([H])C([H])([H])C2([H])[H])C3([H])[H])C([H])([H])[H])C([H])([H])C([H])([H])C2(C1([H])[H])C([H])([H])C([H])([H])[N+]([H])(C([H])([H])C([H])([H])C(=O)N1C([H])([H])C([H])([H])C([H])([H])C([H])(n3nc(-c4c([H])c([H])c(Oc5c([H])c([H])c(F)c([H])c5F)c([H])c4[H])c(C(=O)N([H])[H])c3N([H])[H])C1([H])[H])C([H])([H])C2([H])[H]

$$$$
70:0:0
     RDKit          3D

 94102  0  0  1  0  0  0  0  0999 V2000
  -27.6890  -21.8260   20.6130 C   0  0  0  0  0  3  0  0  0  0  0  0
  -27.8840  -20.5000   21.0330 C   0  0  0  0  0  3  0  0  0  0  0  0
  -26.9370  -19.7190   18.9220 C   0  0  0  0  0  3  0  0  0  0  0  0
  -27.1310  -22.1140   19.3390 C   0  0  0  0  0  0  0  0  0  0  0  0
  -27.6120  -19.4610   20.1400 C   0  0  0  0  0  0  0  0  0  0  0  0
  -26.6670  -21.0470   18.5170 C   0  0  0  0  0  0  0  0  0  0  0  0
  -26.0200  -21.2350   17.1440 C   0  0  0  0  0  1  0  0  0  0  0  0
  -27.2990  -23.4900   18.8120 C   0  0  0  0  0  0  0  0  0  0  0  0
  -27.3920  -23.7280   17.6050 O   0  0  0  0  0  0  0  0  0  0  0  0
  -27.2280  -24.6720   19.7760 C   0  0  0  0  0  2  0  0  0  0  0  0
  -28.5570  -25.3130   20.3690 C   0  0  0  0  0  2  0  0  0  0  0  0
  -28.8140  -26.7640   20.4600 O   0  0  0  0  0  0  0  0  0  0  0  0
  -24.8490  -32.0010   23.3950 C   0  0  0  0  0  0  0  0  0  0  0  0
  -27.7370  -27.6310   20.3910 C   0  0  0  0  0  0  0  0  0  0  0  0
  -23.7700  -30.5490   21.7260 C   0  0  0  0  0  3  0  0  0  0  0  0
  -25.3210  -29.1040   20.3380 C   0  0  0  0  0  0  0  0  0  0  0  0
  -26.2880  -30.9840   21.6450 C   0  0  0  0  0  2  0  0  0  0  0  0
  -26.4380  -29.6160   21.0120 C   0  0  0  0  0  0  0  0  0  0  0  0
  -27.6480  -28.8710   21.0740 C   0  0  0  0  0  3  0  0  0  0  0  0
  -26.6780  -27.3180   19.5290 C   0  0  0  0  0  3  0  0  0  0  0  0
  -25.4330  -27.9380   19.5850 C   0  0  0  0  0  3  0  0  0  0  0  0
  -24.0510  -29.9130   20.3450 C   0  0  0  0  0  2  0  0  0  0  0  0
  -24.9860  -31.1940   22.3100 N   0  0  0  0  0  0  0  0  0  0  0  0
  -23.7380  -32.2330   23.8830 O   0  0  0  0  0  0  0  0  0  0  0  0
  -23.1340  -29.4840   22.6520 C   0  0  0  0  0  0  0  0  0  0  0  0
  -21.8210  -29.2730   22.5110 N   0  0  0  0  0  0  0  0  0  0  0  0
  -23.8300  -28.8650   23.4690 O   0  0  0  0  0  0  0  0  0  0  0  0
  -21.3120  -29.8640   21.8620 H   0  0  0  0  0  0  0  0  0  0  0  0
  -18.4600  -27.9890   22.9440 C   0  0  0  0  0  0  0  0  0  0  0  0
  -21.0170  -28.2910   23.2420 C   0  0  0  0  0  3  0  0  0  0  0  0
  -21.1450  -26.8730   22.6350 C   0  0  0  0  0  2  0  0  0  0  0  0
  -20.0570  -26.5670   21.6100 C   0  0  0  0  0  2  0  0  0  0  0  0
  -18.6830  -26.6490   22.2650 C   0  0  0  0  0  2  0  0  0  0  0  0
  -19.5520  -28.7750   23.3860 C   0  0  0  0  0  0  0  0  0  0  0  0
  -19.2950  -30.0250   23.9680 C   0  0  0  0  0  3  0  0  0  0  0  0
  -17.9740  -30.4870   24.1350 C   0  0  0  0  0  3  0  0  0  0  0  0
  -16.8890  -29.7010   23.7040 C   0  0  0  0  0  3  0  0  0  0  0  0
  -17.1370  -28.4520   23.1040 C   0  0  0  0  0  3  0  0  0  0  0  0
  -26.0820  -32.6910   24.0420 C   0  0  0  0  0  3  0  0  0  0  0  0
  -25.7160  -34.0850   24.3140 N   0  0  0  0  0  0  0  0  0  0  0  0
  -26.0300  -35.1180   23.5240 C   0  0  0  0  0  0  0  0  0  0  0  0
  -26.7420  -35.0080   22.5210 O   0  0  0  0  0  0  0  0  0  0  0  0
  -25.0920  -34.2490   25.0920 H   0  0  0  0  0  0  0  0  0  0  0  0
  -24.2420  -36.8250   23.0570 C   0  0  0  0  0  1  0  0  0  0  0  0
  -25.4770  -36.5000   23.9150 C   0  0  0  0  0  3  0  0  0  0  0  0
  -27.5530  -37.5030   24.7600 C   0  0  0  0  0  1  0  0  0  0  0  0
  -26.4660  -37.5920   23.7890 N   0  0  0  0  0  0  0  0  0  0  0  0
  -26.0150  -38.4960   23.8980 H   0  0  0  0  0  0  0  0  0  0  0  0
  -26.5630  -31.9690   25.3610 C   0  0  1  0  0  0  0  0  0  0  0  0
  -25.4190  -31.6990   26.3690 C   0  0  0  0  0  1  0  0  0  0  0  0
  -27.2450  -30.6140   25.0450 C   0  0  0  0  0  1  0  0  0  0  0  0
  -27.6290  -32.8420   26.0770 C   0  0  0  0  0  1  0  0  0  0  0  0
  -28.2610  -18.1270   20.4000 C   0  0  0  0  0  2  0  0  0  0  0  0
  -29.4430  -17.9670   19.4220 C   0  0  0  0  0  2  0  0  0  0  0  0
  -30.7570  -15.8860   19.4320 C   0  0  0  0  0  3  0  0  0  0  0  0
  -30.5600  -17.1010   19.9540 C   0  0  0  0  0  0  0  0  0  0  0  0
  -31.6970  -14.8180   19.7370 C   0  0  0  0  0  0  0  0  0  0  0  0
  -31.3790  -12.4720   19.0720 C   0  0  0  0  0  2  0  0  0  0  0  0
  -30.4320  -12.4740   17.8470 C   0  0  0  0  0  2  0  0  0  0  0  0
  -28.9610  -12.4150   18.2990 C   0  0  0  0  0  2  0  0  0  0  0  0
  -28.6340  -13.4900   19.3480 C   0  0  0  0  0  3  0  0  0  0  0  0
  -29.7040  -13.5010   20.4860 C   0  0  0  0  0  2  0  0  0  0  0  0
  -31.0450  -13.6320   19.8910 N   0  0  0  0  0  0  0  0  0  0  0  0
  -32.9100  -14.9040   19.5070 O   0  0  0  0  0  0  0  0  0  0  0  0
  -26.3880  -14.4590   20.1320 C   0  0  0  0  0  0  0  0  0  0  0  0
  -25.2340  -13.8450   20.5110 C   0  0  0  0  0  0  0  0  0  0  0  0
  -25.4980  -12.4410   20.4570 C   0  0  0  0  0  0  0  0  0  0  0  0
  -27.2840  -13.4270   19.8670 N   0  0  0  0  0  0  0  0  0  0  0  0
  -26.7570  -12.2110   20.1300 N   0  0  0  0  0  0  0  0  0  0  0  0
  -24.6190  -11.2930   20.6390 C   0  0  0  0  0  0  0  0  0  0  0  0
  -24.9380  -10.2720   21.5620 C   0  0  0  0  0  3  0  0  0  0  0  0
  -24.0700   -9.1760   21.7300 C   0  0  0  0  0  3  0  0  0  0  0  0
  -22.8760   -9.0970   20.9760 C   0  0  0  0  0  0  0  0  0  0  0  0
  -22.5810  -10.1040   20.0410 C   0  0  0  0  0  3  0  0  0  0  0  0
  -23.4460  -11.1940   19.8670 C   0  0  0  0  0  3  0  0  0  0  0  0
  -21.9820   -8.0590   21.0590 O   0  0  0  0  0  0  0  0  0  0  0  0
  -21.8150   -7.3480   22.2200 C   0  0  0  0  0  0  0  0  0  0  0  0
  -21.4430   -7.9740   23.4290 C   0  0  0  0  0  3  0  0  0  0  0  0
  -21.2100   -7.1960   24.5810 C   0  0  0  0  0  3  0  0  0  0  0  0
  -21.3390   -5.7960   24.5240 C   0  0  0  0  0  0  0  0  0  0  0  0
  -21.7030   -5.1700   23.3180 C   0  0  0  0  0  3  0  0  0  0  0  0
  -21.9360   -5.9460   22.1680 C   0  0  0  0  0  0  0  0  0  0  0  0
  -22.2660   -5.3350   21.0040 F   0  0  0  0  0  0  0  0  0  0  0  0
  -21.1070   -5.0470   25.6290 F   0  0  0  0  0  0  0  0  0  0  0  0
  -23.9190  -14.5070   20.8030 C   0  0  0  0  0  0  0  0  0  0  0  0
  -23.1240  -13.9140   21.6810 N   0  0  0  0  0  0  0  0  0  0  0  0
  -23.6130  -15.5820   20.2870 O   0  0  0  0  0  0  0  0  0  0  0  0
  -23.3920  -13.0420   22.1090 H   0  0  0  0  0  0  0  0  0  0  0  0
  -22.2400  -14.3370   21.9260 H   0  0  0  0  0  0  0  0  0  0  0  0
  -26.7340  -15.8030   19.9670 N   0  0  0  0  0  0  0  0  0  0  0  0
  -26.0220  -16.5160   20.0790 H   0  0  0  0  0  0  0  0  0  0  0  0
  -27.5960  -16.1700   19.5820 H   0  0  0  0  0  0  0  0  0  0  0  0
  -31.3210  -17.7230   20.8750 O   0  0  0  0  0  0  0  0  0  0  0  0
  -31.1680  -18.6580   20.7980 H   0  0  0  0  0  0  0  0  0  0  0  0
  1  2  1  0
  3  5  1  0
  4  1  2  0
  5 53  1  0
  5  2  2  0
  6  3  2  0
  6  4  1  0
  7  6  1  0
  8  4  1  0
  8 10  1  0
  9  8  2  0
 10 11  1  0
 11 12  1  0
 13 24  2  0
 14 12  1  0
 14 19  1  0
 15 23  1  0
 15 25  1  0
 16 22  1  0
 16 18  1  0
 17 23  1  0
 18 19  2  0
 18 17  1  0
 20 21  1  0
 20 14  2  0
 21 16  2  0
 22 15  1  0
 23 13  1  0
 25 27  2  0
 26 25  1  0
 28 26  1  0
 29 38  2  0
 29 34  1  0
 30 26  1  0
 30 34  1  0
 31 30  1  0
 32 33  1  0
 32 31  1  0
 33 29  1  0
 34 35  2  0
 35 36  1  0
 37 36  2  0
 38 37  1  0
 39 13  1  0
 39 40  1  0
 39 49  1  0
 40 43  1  0
 41 45  1  0
 41 40  1  0
 42 41  2  0
 45 44  1  0
 47 48  1  0
 47 45  1  0
 47 46  1  0
 49 52  1  1
 49 50  1  0
 51 49  1  0
 54 56  1  0
 54 53  1  0
 55 57  1  0
 55 56  2  0
 56 93  1  0
 57 63  1  0
 58 63  1  0
 59 60  1  0
 59 58  1  0
 61 60  1  0
 61 68  1  0
 61 62  1  0
 63 62  1  0
 64 57  2  0
 65 66  2  0
 66 85  1  0
 67 66  1  0
 67 70  1  0
 68 69  1  0
 68 65  1  0
 69 67  2  0
 70 71  1  0
 71 72  2  0
 73 76  1  0
 73 72  1  0
 74 73  2  0
 75 74  1  0
 75 70  2  0
 76 77  1  0
 77 78  1  0
 78 79  2  0
 80 79  1  0
 80 84  1  0
 81 80  2  0
 82 77  2  0
 82 81  1  0
 83 82  1  0
 85 86  1  0
 86 89  1  0
 86 88  1  0
 87 85  2  0
 90 91  1  0
 90 65  1  0
 92 90  1  0
 94 93  1  0
M  ISO  4  11 101  12 101  55 100  57 100
M  END
>  <TORSDO>  (71) 
F 23

>  <SCORE>  (71) 
-11.002

>  <name>  (71) 
70

>  <ligand_id>  (71) 
70

>  <original_smiles>  (71) 
[H]OC(=C([H])C(=O)N1C([H])([H])C([H])([H])C([H])([H])C([H])(n2nc(-c3c([H])c([H])c(Oc4c([H])c([H])c(F)c([H])c4F)c([H])c3[H])c(C(=O)N([H])[H])c2N([H])[H])C1([H])[H])C([H])([H])C([H])([H])c1c([H])c([H])c(C(=O)C([H])([H])C([H])([H])Oc2c([H])c([H])c3c(c2[H])C([H])([H])N(C(=O)C([H])(N([H])C(=O)C([H])(N([H])C([H])([H])[H])C([H])([H])[H])C(C([H])([H])[H])(C([H])([H])[H])C([H])([H])[H])C([H])(C(=O)N([H])C2([H])c4c([H])c([H])c([H])c([H])c4C([H])([H])C([H])([H])C2([H])[H])C3([H])[H])c(C([H])([H])[H])c1[H]

>  <smiles>  (71) 
[H]OC(=C([H])C(=O)N1C([H])([H])C([H])([H])C([H])([H])C([H])(n2nc(-c3c([H])c([H])c(Oc4c([H])c([H])c(F)c([H])c4F)c([H])c3[H])c(C(=O)N([H])[H])c2N([H])[H])C1([H])[H])C([H])([H])C([H])([H])c1c([H])c([H])c(C(=O)C([H])([H])C([H])([H])Oc2c([H])c([H])c3c(c2[H])C([H])([H])N(C(=O)C([H])(N([H])C(=O)C([H])(N([H])C([H])([H])[H])C([H])([H])[H])C(C([H])([H])[H])(C([H])([H])[H])C([H])([H])[H])C([H])(C(=O)N([H])C2([H])c4c([H])c([H])c([H])c([H])c4C([H])([H])C([H])([H])C2([H])[H])C3([H])[H])c(C([H])([H])[H])c1[H]

$$$$
71:0:0
     RDKit          3D

 87 93  0  0  1  0  0  0  0  0999 V2000
  -27.6910  -22.2490   19.6230 C   0  0  0  0  0  3  0  0  0  0  0  0
  -28.0010  -20.7080   19.5780 C   0  0  0  0  0  3  0  0  0  0  0  0
  -28.4450  -23.4680   20.1390 C   0  0  0  0  0  0  0  0  0  0  0  0
  -29.1790  -19.8390   19.9990 C   0  0  0  0  0  3  0  0  0  0  0  0
  -29.6030  -22.5240   20.5420 C   0  0  0  0  0  0  0  0  0  0  0  0
  -30.7860  -23.2580   21.1400 C   0  0  0  0  0  1  0  0  0  0  0  0
  -29.8920  -21.0220   20.5070 N   0  0  0  0  0  0  0  0  0  0  0  0
  -27.9190  -17.4680   19.7810 C   0  0  0  0  0  1  0  0  0  0  0  0
  -29.4530  -17.7700   21.7430 C   0  0  0  0  0  1  0  0  0  0  0  0
  -29.3510  -17.8380   20.2050 C   0  0  0  0  0  2  0  0  0  0  0  0
  -30.2150  -16.0540   19.7870 C   0  0  0  0  0  2  0  0  0  0  0  0
  -30.3740  -13.4240   18.9060 C   0  0  0  0  0  2  0  0  0  0  0  0
  -29.4130  -12.9110   17.7780 C   0  0  0  0  0  2  0  0  0  0  0  0
  -28.0550  -12.4700   18.3390 C   0  0  0  0  0  2  0  0  0  0  0  0
  -27.5900  -13.4500   19.4320 C   0  0  0  0  0  3  0  0  0  0  0  0
  -28.6940  -13.8540   20.4510 C   0  0  0  0  0  2  0  0  0  0  0  0
  -29.7750  -14.6030   19.7330 N   0  0  0  0  0  0  0  0  0  0  0  0
  -31.4210  -15.9570   19.4500 O   0  0  0  0  0  1  0  0  0  0  0  0
  -25.3120  -13.9200   20.4400 C   0  0  0  0  0  0  0  0  0  0  0  0
  -24.2890  -13.1240   20.8640 C   0  0  0  0  0  0  0  0  0  0  0  0
  -24.7540  -11.7780   20.7320 C   0  0  0  0  0  0  0  0  0  0  0  0
  -26.3310  -13.0680   20.0620 N   0  0  0  0  0  0  0  0  0  0  0  0
  -26.0140  -11.7660   20.3000 N   0  0  0  0  0  0  0  0  0  0  0  0
  -24.0380  -10.5100   20.9320 C   0  0  0  0  0  0  0  0  0  0  0  0
  -24.5020   -9.5320   21.8400 C   0  0  0  0  0  3  0  0  0  0  0  0
  -23.7800   -8.3340   22.0360 C   0  0  0  0  0  3  0  0  0  0  0  0
  -22.5780   -8.1050   21.3240 C   0  0  0  0  0  0  0  0  0  0  0  0
  -22.1300   -9.0720   20.4060 C   0  0  0  0  0  3  0  0  0  0  0  0
  -22.8530  -10.2610   20.2100 C   0  0  0  0  0  3  0  0  0  0  0  0
  -21.8250   -6.9590   21.4290 O   0  0  0  0  0  0  0  0  0  0  0  0
  -21.7680   -6.2400   22.5960 C   0  0  0  0  0  0  0  0  0  0  0  0
  -21.3290   -6.8200   23.8070 C   0  0  0  0  0  3  0  0  0  0  0  0
  -21.2200   -6.0270   24.9680 C   0  0  0  0  0  3  0  0  0  0  0  0
  -21.5380   -4.6560   24.9180 C   0  0  0  0  0  0  0  0  0  0  0  0
  -21.9680   -4.0770   23.7120 C   0  0  0  0  0  3  0  0  0  0  0  0
  -22.0800   -4.8670   22.5540 C   0  0  0  0  0  0  0  0  0  0  0  0
  -22.4760   -4.2980   21.3890 F   0  0  0  0  0  0  0  0  0  0  0  0
  -21.4240   -3.8940   26.0300 F   0  0  0  0  0  0  0  0  0  0  0  0
  -22.9230  -13.5890   21.2720 C   0  0  0  0  0  0  0  0  0  0  0  0
  -22.2750  -12.8690   22.1760 N   0  0  0  0  0  0  0  0  0  0  0  0
  -22.4450  -14.6320   20.8220 O   0  0  0  0  0  0  0  0  0  0  0  0
  -22.6810  -12.0280   22.5610 H   0  0  0  0  0  0  0  0  0  0  0  0
  -21.3600  -13.1590   22.4920 H   0  0  0  0  0  0  0  0  0  0  0  0
  -25.4480  -15.2970   20.3100 N   0  0  0  0  0  0  0  0  0  0  0  0
  -24.6940  -15.9380   20.5270 H   0  0  0  0  0  0  0  0  0  0  0  0
  -26.2610  -15.7560   19.9240 H   0  0  0  0  0  0  0  0  0  0  0  0
  -28.2850  -25.1810   20.1760 O   0  0  0  0  0  0  0  0  0  0  0  0
  -24.7140  -31.7450   23.1100 C   0  0  0  0  0  0  0  0  0  0  0  0
  -27.2900  -26.4710   20.1590 C   0  0  0  0  0  0  0  0  0  0  0  0
  -23.5610  -30.3430   21.4560 C   0  0  0  0  0  3  0  0  0  0  0  0
  -25.0330  -28.6540   20.0720 C   0  0  0  0  0  0  0  0  0  0  0  0
  -26.1510  -30.4200   21.3990 C   0  0  0  0  0  2  0  0  0  0  0  0
  -26.2240  -28.9630   20.7390 C   0  0  0  0  0  0  0  0  0  0  0  0
  -27.3190  -27.9080   20.7430 C   0  0  0  0  0  3  0  0  0  0  0  0
  -26.0630  -26.4380   19.4250 C   0  0  0  0  0  3  0  0  0  0  0  0
  -25.0080  -27.4210   19.3900 C   0  0  0  0  0  3  0  0  0  0  0  0
  -23.8340  -29.6310   20.0940 C   0  0  0  0  0  2  0  0  0  0  0  0
  -24.8350  -30.8760   22.0400 N   0  0  0  0  0  0  0  0  0  0  0  0
  -23.6090  -32.0500   23.5940 O   0  0  0  0  0  0  0  0  0  0  0  0
  -22.8120  -29.3810   22.4210 C   0  0  0  0  0  0  0  0  0  0  0  0
  -21.4790  -29.2340   22.2790 N   0  0  0  0  0  0  0  0  0  0  0  0
  -23.4480  -28.7620   23.2760 O   0  0  0  0  0  0  0  0  0  0  0  0
  -21.0110  -29.7840   21.5740 H   0  0  0  0  0  0  0  0  0  0  0  0
  -18.0910  -27.9820   22.7330 C   0  0  0  0  0  0  0  0  0  0  0  0
  -20.6430  -28.2940   23.0410 C   0  0  0  0  0  3  0  0  0  0  0  0
  -20.7740  -26.8570   22.4830 C   0  0  0  0  0  2  0  0  0  0  0  0
  -19.6990  -26.5130   21.4460 C   0  0  0  0  0  2  0  0  0  0  0  0
  -18.3030  -26.6370   22.0610 C   0  0  0  0  0  2  0  0  0  0  0  0
  -19.1880  -28.7690   23.1770 C   0  0  0  0  0  0  0  0  0  0  0  0
  -18.9320  -30.0220   23.7720 C   0  0  0  0  0  3  0  0  0  0  0  0
  -17.6130  -30.4940   23.9200 C   0  0  0  0  0  3  0  0  0  0  0  0
  -16.5320  -29.7080   23.4860 C   0  0  0  0  0  3  0  0  0  0  0  0
  -16.7720  -28.4540   22.8980 C   0  0  0  0  0  3  0  0  0  0  0  0
  -25.9560  -32.4090   23.7790 C   0  0  0  0  0  3  0  0  0  0  0  0
  -25.6140  -33.8070   24.1210 N   0  0  0  0  0  0  0  0  0  0  0  0
  -25.9390  -34.8880   23.3970 C   0  0  0  0  0  0  0  0  0  0  0  0
  -26.6080  -34.8120   22.3640 O   0  0  0  0  0  0  0  0  0  0  0  0
  -25.0140  -33.9370   24.9230 H   0  0  0  0  0  0  0  0  0  0  0  0
  -24.1870  -36.6820   23.1180 C   0  0  0  0  0  1  0  0  0  0  0  0
  -25.4490  -36.2670   23.8920 C   0  0  0  0  0  3  0  0  0  0  0  0
  -27.5860  -37.1740   24.6980 C   0  0  0  0  0  1  0  0  0  0  0  0
  -26.4690  -37.3340   23.7720 N   0  0  0  0  0  0  0  0  0  0  0  0
  -26.0550  -38.2500   23.9290 H   0  0  0  0  0  0  0  0  0  0  0  0
  -26.4340  -31.6520   25.0810 C   0  0  1  0  0  0  0  0  0  0  0  0
  -25.3110  -31.4270   26.1210 C   0  0  0  0  0  1  0  0  0  0  0  0
  -27.0300  -30.2690   24.7390 C   0  0  0  0  0  1  0  0  0  0  0  0
  -27.5650  -32.4550   25.7680 C   0  0  0  0  0  1  0  0  0  0  0  0
  1  3  1  0
  2  1  2  0
  2  4  1  0
  3 47  1  0
  3  5  2  0
  4  7  2  0
  5  6  1  0
  7  5  1  0
  8 10  1  0
 10  9  1  0
 12 17  1  0
 13 14  1  0
 13 12  1  0
 15 14  1  0
 15 22  1  0
 15 16  1  0
 17 11  1  0
 17 16  1  0
 18 11  1  0
 19 20  2  0
 20 39  1  0
 21 20  1  0
 21 24  1  0
 22 23  1  0
 22 19  1  0
 23 21  2  0
 24 25  1  0
 25 26  2  0
 27 30  1  0
 27 26  1  0
 28 27  2  0
 29 28  1  0
 29 24  2  0
 30 31  1  0
 31 32  1  0
 32 33  2  0
 34 33  1  0
 34 38  1  0
 35 34  2  0
 36 31  2  0
 36 35  1  0
 37 36  1  0
 39 40  1  0
 40 43  1  0
 40 42  1  0
 41 39  2  0
 44 19  1  0
 44 45  1  0
 46 44  1  0
 48 59  2  0
 49 47  1  0
 49 54  1  0
 50 58  1  0
 50 60  1  0
 51 57  1  0
 51 53  1  0
 52 58  1  0
 53 54  2  0
 53 52  1  0
 55 49  2  0
 56 55  1  0
 56 51  2  0
 57 50  1  0
 58 48  1  0
 60 62  2  0
 61 60  1  0
 63 61  1  0
 64 73  2  0
 64 69  1  0
 65 61  1  0
 65 69  1  0
 66 65  1  0
 67 68  1  0
 67 66  1  0
 68 64  1  0
 69 70  2  0
 70 71  1  0
 72 71  2  0
 73 72  1  0
 74 48  1  0
 74 75  1  0
 74 84  1  0
 75 78  1  0
 76 80  1  0
 76 75  1  0
 77 76  2  0
 80 79  1  0
 82 80  1  0
 82 83  1  0
 82 81  1  0
 84 87  1  1
 84 85  1  0
 86 84  1  0
M  ISO  4   3 101  10 100  11 100  47 101
M  END
>  <TORSDO>  (72) 
F 17

>  <SCORE>  (72) 
-15.881

>  <name>  (72) 
71

>  <ligand_id>  (72) 
71

>  <original_smiles>  (72) 
[H]c1c(C(C(=O)N2C([H])([H])C([H])([H])C([H])([H])C([H])(n3nc(-c4c([H])c([H])c(Oc5c([H])c([H])c(F)c([H])c5F)c([H])c4[H])c(C(=O)N([H])[H])c3N([H])[H])C2([H])[H])(C([H])([H])[H])C([H])([H])[H])nc(C([H])([H])[H])c(Oc2c([H])c([H])c3c(c2[H])C([H])([H])N(C(=O)C([H])(N([H])C(=O)C([H])(N([H])C([H])([H])[H])C([H])([H])[H])C(C([H])([H])[H])(C([H])([H])[H])C([H])([H])[H])C([H])(C(=O)N([H])C2([H])c4c([H])c([H])c([H])c([H])c4C([H])([H])C([H])([H])C2([H])[H])C3([H])[H])c1[H]

>  <smiles>  (72) 
[H]c1c(C(C(=O)N2C([H])([H])C([H])([H])C([H])([H])C([H])(n3nc(-c4c([H])c([H])c(Oc5c([H])c([H])c(F)c([H])c5F)c([H])c4[H])c(C(=O)N([H])[H])c3N([H])[H])C2([H])[H])(C([H])([H])[H])C([H])([H])[H])nc(C([H])([H])[H])c(Oc2c([H])c([H])c3c(c2[H])C([H])([H])N(C(=O)C([H])(N([H])C(=O)C([H])(N([H])C([H])([H])[H])C([H])([H])[H])C(C([H])([H])[H])(C([H])([H])[H])C([H])([H])[H])C([H])(C(=O)N([H])C2([H])c4c([H])c([H])c([H])c([H])c4C([H])([H])C([H])([H])C2([H])[H])C3([H])[H])c1[H]

$$$$
72:0:0
     RDKit          3D

 95104  0  0  1  0  0  0  0  0999 V2000
  -30.5470  -20.7420   19.0000 C   0  0  0  0  0  3  0  0  0  0  0  0
  -30.2150  -21.8420   18.1960 C   0  0  0  0  0  3  0  0  0  0  0  0
  -30.4580  -20.8140   20.4040 C   0  0  0  0  0  0  0  0  0  0  0  0
  -30.0140  -22.0240   21.0130 C   0  0  0  0  0  0  0  0  0  0  0  0
  -29.8090  -23.1760   20.1980 C   0  0  0  0  0  0  0  0  0  0  0  0
  -29.8840  -23.0760   18.7880 C   0  0  0  0  0  0  0  0  0  0  0  0
  -29.7720  -22.0850   22.5190 C   0  0  0  0  0  1  0  0  0  0  0  0
  -28.8520  -24.0470   16.8770 C   0  0  0  0  0  1  0  0  0  0  0  0
  -29.6760  -24.2030   18.0250 O   0  0  0  0  0  0  0  0  0  0  0  0
  -30.9280  -19.5990   21.2150 C   0  0  0  0  0  2  0  0  0  0  0  0
  -30.7330  -14.4180   20.1610 C   0  0  0  0  0  0  0  0  0  0  0  0
  -30.2900  -12.3420   18.9110 C   0  0  0  0  0  2  0  0  0  0  0  0
  -29.2780  -12.5880   17.7750 C   0  0  0  0  0  2  0  0  0  0  0  0
  -27.8300  -12.4530   18.2860 C   0  0  0  0  0  2  0  0  0  0  0  0
  -27.5770  -13.2390   19.6020 C   0  0  0  0  0  3  0  0  0  0  0  0
  -28.7000  -12.9830   20.6330 C   0  0  0  0  0  2  0  0  0  0  0  0
  -29.9900  -13.2880   19.9930 N   0  0  0  0  0  0  0  0  0  0  0  0
  -31.8440  -14.5700   19.6490 O   0  0  0  0  0  0  0  0  0  0  0  0
  -30.2560  -17.4190   22.4110 C   0  0  0  0  0  2  0  0  0  0  0  0
  -29.6800  -17.7250   19.9680 C   0  0  0  0  0  2  0  0  0  0  0  0
  -30.9580  -16.1530   21.8660 C   0  0  0  0  0  2  0  0  0  0  0  0
  -29.1850  -16.2770   20.1300 C   0  0  0  0  0  2  0  0  0  0  0  0
  -29.8960  -18.4470   21.3150 C   0  0  0  0  0  3  0  0  0  0  0  0
  -30.1560  -15.4330   20.8540 N   0  0  0  0  0  0  0  0  0  0  0  0
  -25.2350  -13.8590   20.4680 C   0  0  0  0  0  0  0  0  0  0  0  0
  -24.1800  -13.0880   20.8780 C   0  0  0  0  0  0  0  0  0  0  0  0
  -24.6240  -11.7350   20.7810 C   0  0  0  0  0  0  0  0  0  0  0  0
  -26.2550  -12.9710   20.1540 N   0  0  0  0  0  0  0  0  0  0  0  0
  -25.8940  -11.6880   20.4000 N   0  0  0  0  0  0  0  0  0  0  0  0
  -23.8990  -10.4750   20.9700 C   0  0  0  0  0  0  0  0  0  0  0  0
  -24.3460   -9.5020   21.8900 C   0  0  0  0  0  3  0  0  0  0  0  0
  -23.6220   -8.3040   22.0700 C   0  0  0  0  0  3  0  0  0  0  0  0
  -22.4390   -8.0700   21.3310 C   0  0  0  0  0  0  0  0  0  0  0  0
  -22.0140   -9.0320   20.3980 C   0  0  0  0  0  3  0  0  0  0  0  0
  -22.7360  -10.2220   20.2150 C   0  0  0  0  0  3  0  0  0  0  0  0
  -21.6840   -6.9260   21.4250 O   0  0  0  0  0  0  0  0  0  0  0  0
  -21.6050   -6.2070   22.5900 C   0  0  0  0  0  0  0  0  0  0  0  0
  -21.1320   -6.7800   23.7920 C   0  0  0  0  0  3  0  0  0  0  0  0
  -21.0050   -5.9850   24.9480 C   0  0  0  0  0  3  0  0  0  0  0  0
  -21.3380   -4.6190   24.9050 C   0  0  0  0  0  0  0  0  0  0  0  0
  -21.8020   -4.0440   23.7080 C   0  0  0  0  0  3  0  0  0  0  0  0
  -21.9320   -4.8350   22.5550 C   0  0  0  0  0  0  0  0  0  0  0  0
  -22.3600   -4.2710   21.3990 F   0  0  0  0  0  0  0  0  0  0  0  0
  -21.2110   -3.8540   26.0140 F   0  0  0  0  0  0  0  0  0  0  0  0
  -22.8040  -13.5710   21.2380 C   0  0  0  0  0  0  0  0  0  0  0  0
  -22.1210  -12.8610   22.1280 N   0  0  0  0  0  0  0  0  0  0  0  0
  -22.3450  -14.6080   20.7640 O   0  0  0  0  0  0  0  0  0  0  0  0
  -22.5060  -12.0250   22.5430 H   0  0  0  0  0  0  0  0  0  0  0  0
  -21.1940  -13.1560   22.4000 H   0  0  0  0  0  0  0  0  0  0  0  0
  -25.4070  -15.2340   20.3140 N   0  0  0  0  0  0  0  0  0  0  0  0
  -24.6680  -15.8990   20.5110 H   0  0  0  0  0  0  0  0  0  0  0  0
  -26.2450  -15.6690   19.9550 H   0  0  0  0  0  0  0  0  0  0  0  0
  -29.5870  -24.5680   20.7860 C   0  0  0  0  0  2  0  0  0  0  0  0
  -28.2150  -25.1790   20.4700 C   0  0  0  0  0  2  0  0  0  0  0  0
  -28.3920  -26.6020   20.4540 O   0  0  0  0  0  0  0  0  0  0  0  0
  -24.6340  -31.8900   23.2670 C   0  0  0  0  0  0  0  0  0  0  0  0
  -27.2520  -27.3560   20.3420 C   0  0  0  0  0  0  0  0  0  0  0  0
  -23.4420  -30.4700   21.6330 C   0  0  0  0  0  3  0  0  0  0  0  0
  -24.8970  -28.9020   20.2550 C   0  0  0  0  0  0  0  0  0  0  0  0
  -25.9720  -30.8050   21.4650 C   0  0  0  0  0  2  0  0  0  0  0  0
  -26.0500  -29.4200   20.8580 C   0  0  0  0  0  0  0  0  0  0  0  0
  -27.2340  -28.6540   20.8980 C   0  0  0  0  0  3  0  0  0  0  0  0
  -26.0900  -26.8620   19.7060 C   0  0  0  0  0  3  0  0  0  0  0  0
  -24.9130  -27.6250   19.6720 C   0  0  0  0  0  3  0  0  0  0  0  0
  -23.6650  -29.7760   20.2650 C   0  0  0  0  0  2  0  0  0  0  0  0
  -24.7010  -31.0690   22.1820 N   0  0  0  0  0  0  0  0  0  0  0  0
  -23.5460  -32.1810   23.7830 O   0  0  0  0  0  0  0  0  0  0  0  0
  -22.7730  -29.4650   22.5990 C   0  0  0  0  0  0  0  0  0  0  0  0
  -21.4580  -29.2580   22.4260 N   0  0  0  0  0  0  0  0  0  0  0  0
  -23.4350  -28.8760   23.4580 O   0  0  0  0  0  0  0  0  0  0  0  0
  -20.9870  -29.7870   21.7030 H   0  0  0  0  0  0  0  0  0  0  0  0
  -18.0910  -28.0100   22.8140 C   0  0  0  0  0  0  0  0  0  0  0  0
  -20.6260  -28.3360   23.1980 C   0  0  0  0  0  3  0  0  0  0  0  0
  -20.7880  -26.8850   22.6910 C   0  0  0  0  0  2  0  0  0  0  0  0
  -19.7440  -26.4930   21.6400 C   0  0  0  0  0  2  0  0  0  0  0  0
  -18.3300  -26.6360   22.2070 C   0  0  0  0  0  2  0  0  0  0  0  0
  -19.1710  -28.8120   23.2650 C   0  0  0  0  0  0  0  0  0  0  0  0
  -18.9000  -30.0950   23.7880 C   0  0  0  0  0  3  0  0  0  0  0  0
  -17.5800  -30.5750   23.8660 C   0  0  0  0  0  3  0  0  0  0  0  0
  -16.5120  -29.7700   23.4330 C   0  0  0  0  0  3  0  0  0  0  0  0
  -16.7690  -28.4880   22.9110 C   0  0  0  0  0  3  0  0  0  0  0  0
  -25.9130  -32.5250   23.8930 C   0  0  0  0  0  3  0  0  0  0  0  0
  -26.4270  -31.7570   25.1730 C   0  0  1  0  0  0  0  0  0  0  0  0
  -25.3320  -31.5120   26.2380 C   0  0  0  0  0  1  0  0  0  0  0  0
  -27.0190  -30.3840   24.7790 C   0  0  0  0  0  1  0  0  0  0  0  0
  -27.5680  -32.5590   25.8430 C   0  0  0  0  0  1  0  0  0  0  0  0
  -25.6000  -33.9240   24.2150 N   0  0  0  0  0  0  0  0  0  0  0  0
  -25.9210  -34.9710   23.4440 C   0  0  0  0  0  0  0  0  0  0  0  0
  -26.5850  -34.8620   22.4090 O   0  0  0  0  0  0  0  0  0  0  0  0
  -25.0120  -34.0820   25.0210 H   0  0  0  0  0  0  0  0  0  0  0  0
  -24.1740  -36.7460   23.0870 C   0  0  0  0  0  1  0  0  0  0  0  0
  -25.4260  -36.3600   23.8910 C   0  0  0  0  0  3  0  0  0  0  0  0
  -27.5610  -37.2700   24.6930 C   0  0  0  0  0  1  0  0  0  0  0  0
  -26.4480  -37.4200   23.7600 N   0  0  0  0  0  0  0  0  0  0  0  0
  -26.0350  -38.3370   23.9050 H   0  0  0  0  0  0  0  0  0  0  0  0
  1  3  1  0
  2  6  1  0
  2  1  2  0
  3  4  2  0
  3 10  1  0
  4  7  1  0
  5 53  1  0
  5  4  1  0
  6  5  2  0
  8  9  1  0
  9  6  1  0
 11 24  1  0
 12 17  1  0
 13 14  1  0
 13 12  1  0
 15 14  1  0
 15 28  1  0
 15 16  1  0
 17 11  1  0
 17 16  1  0
 18 11  2  0
 20 22  1  0
 20 23  1  0
 21 19  1  0
 22 24  1  0
 23 10  1  0
 23 19  1  0
 24 21  1  0
 25 26  2  0
 26 45  1  0
 27 26  1  0
 27 30  1  0
 28 29  1  0
 28 25  1  0
 29 27  2  0
 30 31  1  0
 31 32  2  0
 33 36  1  0
 33 32  1  0
 34 33  2  0
 35 34  1  0
 35 30  2  0
 36 37  1  0
 37 38  1  0
 38 39  2  0
 40 39  1  0
 40 44  1  0
 41 40  2  0
 42 37  2  0
 42 41  1  0
 43 42  1  0
 45 46  1  0
 46 49  1  0
 46 48  1  0
 47 45  2  0
 50 25  1  0
 50 51  1  0
 52 50  1  0
 54 53  1  0
 55 54  1  0
 56 67  2  0
 57 55  1  0
 57 62  1  0
 58 66  1  0
 58 68  1  0
 59 65  1  0
 59 61  1  0
 60 66  1  0
 61 62  2  0
 61 60  1  0
 63 57  2  0
 64 63  1  0
 64 59  2  0
 65 58  1  0
 66 56  1  0
 68 70  2  0
 69 68  1  0
 71 69  1  0
 72 81  2  0
 72 77  1  0
 73 69  1  0
 73 77  1  0
 74 73  1  0
 75 76  1  0
 75 74  1  0
 76 72  1  0
 77 78  2  0
 78 79  1  0
 80 79  2  0
 81 80  1  0
 82 56  1  0
 82 87  1  0
 82 83  1  0
 83 86  1  1
 83 84  1  0
 85 83  1  0
 87 90  1  0
 88 92  1  0
 88 87  1  0
 89 88  2  0
 92 91  1  0
 94 92  1  0
 94 95  1  0
 94 93  1  0
M  ISO  4  11 100  24 100  54 101  55 101
M  END
>  <TORSDO>  (73) 
F 20

>  <SCORE>  (73) 
-13.880

>  <name>  (73) 
72

>  <ligand_id>  (73) 
72

>  <original_smiles>  (73) 
[H]c1c([H])c([H])c2c(c1[H])C([H])([H])C([H])([H])C([H])([H])C2([H])N([H])C(=O)C1([H])N(C(=O)C([H])(N([H])C(=O)C([H])(N([H])C([H])([H])[H])C([H])([H])[H])C(C([H])([H])[H])(C([H])([H])[H])C([H])([H])[H])C([H])([H])c2c([H])c(OC([H])([H])C([H])([H])c3c(OC([H])([H])[H])c([H])c([H])c(C([H])([H])C4([H])C([H])([H])C([H])([H])N(C(=O)N5C([H])([H])C([H])([H])C([H])([H])C([H])(n6nc(-c7c([H])c([H])c(Oc8c([H])c([H])c(F)c([H])c8F)c([H])c7[H])c(C(=O)N([H])[H])c6N([H])[H])C5([H])[H])C([H])([H])C4([H])[H])c3C([H])([H])[H])c([H])c([H])c2C1([H])[H]

>  <smiles>  (73) 
[H]c1c([H])c([H])c2c(c1[H])C([H])([H])C([H])([H])C([H])([H])C2([H])N([H])C(=O)C1([H])N(C(=O)C([H])(N([H])C(=O)C([H])(N([H])C([H])([H])[H])C([H])([H])[H])C(C([H])([H])[H])(C([H])([H])[H])C([H])([H])[H])C([H])([H])c2c([H])c(OC([H])([H])C([H])([H])c3c(OC([H])([H])[H])c([H])c([H])c(C([H])([H])C4([H])C([H])([H])C([H])([H])N(C(=O)N5C([H])([H])C([H])([H])C([H])([H])C([H])(n6nc(-c7c([H])c([H])c(Oc8c([H])c([H])c(F)c([H])c8F)c([H])c7[H])c(C(=O)N([H])[H])c6N([H])[H])C5([H])[H])C([H])([H])C4([H])[H])c3C([H])([H])[H])c([H])c([H])c2C1([H])[H]

$$$$
73:0:0
     RDKit          3D

 91100  0  0  1  0  0  0  0  0999 V2000
  -28.5610  -18.8500   18.6770 C   0  0  0  0  0  3  0  0  0  0  0  0
  -28.7700  -20.0550   19.4210 C   0  0  0  0  0  0  0  0  0  0  0  0
  -29.8070  -17.1710   20.2250 C   0  0  0  0  0  0  0  0  0  0  0  0
  -29.4250  -19.8880   20.6200 C   0  0  0  0  0  0  0  0  0  0  0  0
  -29.0490  -17.5190   19.0310 C   0  0  0  0  0  0  0  0  0  0  0  0
  -29.9500  -18.4890   21.0080 C   0  0  0  0  0  0  0  0  0  0  0  0
  -28.3650  -21.5540   19.1320 C   0  0  0  0  0  0  0  0  0  0  0  0
  -29.3610  -21.4350   21.2260 C   0  0  0  0  0  2  0  0  0  0  0  0
  -28.9520  -22.6880   20.1240 C   0  0  1  0  0  0  0  0  0  0  0  0
  -28.7560  -16.4620   17.9790 C   0  0  0  0  0  1  0  0  0  0  0  0
  -30.7020  -18.4080   22.3200 C   0  0  0  0  0  1  0  0  0  0  0  0
  -30.3120  -23.1510   19.5610 C   0  0  0  0  0  1  0  0  0  0  0  0
  -27.6580  -21.8780   18.1750 O   0  0  0  0  0  0  0  0  0  0  0  0
  -30.5450  -15.6190   20.4030 C   0  0  0  0  0  0  0  0  0  0  0  0
  -30.6360  -13.1270   19.5870 C   0  0  0  0  0  2  0  0  0  0  0  0
  -29.7540  -12.7670   18.3620 C   0  0  0  0  0  2  0  0  0  0  0  0
  -28.3020  -12.4860   18.7780 C   0  0  0  0  0  2  0  0  0  0  0  0
  -27.7920  -13.4690   19.8600 C   0  0  0  0  0  3  0  0  0  0  0  0
  -28.8110  -13.7240   20.9830 C   0  0  0  0  0  2  0  0  0  0  0  0
  -30.0160  -14.2850   20.3470 N   0  0  0  0  0  0  0  0  0  0  0  0
  -31.7830  -15.5790   20.3180 O   0  0  0  0  0  0  0  0  0  0  0  0
  -25.4180  -13.9700   20.6260 C   0  0  0  0  0  0  0  0  0  0  0  0
  -24.3660  -13.1700   20.9700 C   0  0  0  0  0  0  0  0  0  0  0  0
  -24.8550  -11.8270   20.9130 C   0  0  0  0  0  0  0  0  0  0  0  0
  -26.4740  -13.1180   20.3670 N   0  0  0  0  0  0  0  0  0  0  0  0
  -26.1480  -11.8210   20.6090 N   0  0  0  0  0  0  0  0  0  0  0  0
  -24.1470  -10.5510   21.0690 C   0  0  0  0  0  0  0  0  0  0  0  0
  -24.5450   -9.5990   22.0320 C   0  0  0  0  0  3  0  0  0  0  0  0
  -23.8330   -8.3880   22.1800 C   0  0  0  0  0  3  0  0  0  0  0  0
  -22.7100   -8.1210   21.3600 C   0  0  0  0  0  0  0  0  0  0  0  0
  -22.3320   -9.0620   20.3860 C   0  0  0  0  0  3  0  0  0  0  0  0
  -23.0440  -10.2650   20.2390 C   0  0  0  0  0  3  0  0  0  0  0  0
  -21.9740   -6.9610   21.4130 O   0  0  0  0  0  0  0  0  0  0  0  0
  -21.8090   -6.2690   22.5860 C   0  0  0  0  0  0  0  0  0  0  0  0
  -21.1980   -6.8520   23.7170 C   0  0  0  0  0  3  0  0  0  0  0  0
  -20.9850   -6.0820   24.8780 C   0  0  0  0  0  3  0  0  0  0  0  0
  -21.3730   -4.7290   24.9060 C   0  0  0  0  0  0  0  0  0  0  0  0
  -21.9770   -4.1450   23.7790 C   0  0  0  0  0  3  0  0  0  0  0  0
  -22.1910   -4.9130   22.6210 C   0  0  0  0  0  0  0  0  0  0  0  0
  -22.7550   -4.3400   21.5300 F   0  0  0  0  0  0  0  0  0  0  0  0
  -21.1610   -3.9870   26.0190 F   0  0  0  0  0  0  0  0  0  0  0  0
  -22.9600  -13.6190   21.2330 C   0  0  0  0  0  0  0  0  0  0  0  0
  -22.2350  -12.9050   22.0860 N   0  0  0  0  0  0  0  0  0  0  0  0
  -22.5110  -14.6430   20.7170 O   0  0  0  0  0  0  0  0  0  0  0  0
  -22.6090  -12.0760   22.5260 H   0  0  0  0  0  0  0  0  0  0  0  0
  -21.2920  -13.1900   22.3060 H   0  0  0  0  0  0  0  0  0  0  0  0
  -25.5610  -15.3480   20.4800 N   0  0  0  0  0  0  0  0  0  0  0  0
  -24.7840  -15.9870   20.6080 H   0  0  0  0  0  0  0  0  0  0  0  0
  -26.4120  -15.8100   20.1880 H   0  0  0  0  0  0  0  0  0  0  0  0
  -28.0410  -24.2890   20.3490 C   0  0  0  0  0  2  0  0  0  0  0  0
  -28.2760  -25.9460   20.1540 O   0  0  0  0  0  0  0  0  0  0  0  0
  -24.7480  -31.9370   23.2930 C   0  0  0  0  0  0  0  0  0  0  0  0
  -27.2680  -27.0700   20.1630 C   0  0  0  0  0  0  0  0  0  0  0  0
  -23.5350  -30.5680   21.6450 C   0  0  0  0  0  3  0  0  0  0  0  0
  -24.9700  -28.9840   20.1740 C   0  0  0  0  0  0  0  0  0  0  0  0
  -26.1030  -30.7740   21.4710 C   0  0  0  0  0  2  0  0  0  0  0  0
  -26.1680  -29.3700   20.7890 C   0  0  0  0  0  0  0  0  0  0  0  0
  -27.3130  -28.4390   20.7490 C   0  0  0  0  0  3  0  0  0  0  0  0
  -26.0350  -26.8500   19.5080 C   0  0  0  0  0  3  0  0  0  0  0  0
  -24.9340  -27.7480   19.5110 C   0  0  0  0  0  3  0  0  0  0  0  0
  -23.7490  -29.9070   20.2550 C   0  0  0  0  0  2  0  0  0  0  0  0
  -24.8180  -31.1210   22.1880 N   0  0  0  0  0  0  0  0  0  0  0  0
  -23.6650  -32.2150   23.8320 O   0  0  0  0  0  0  0  0  0  0  0  0
  -22.8510  -29.5570   22.6030 C   0  0  0  0  0  0  0  0  0  0  0  0
  -21.5240  -29.3670   22.4710 N   0  0  0  0  0  0  0  0  0  0  0  0
  -23.5250  -28.9430   23.4350 O   0  0  0  0  0  0  0  0  0  0  0  0
  -21.0300  -29.9170   21.7820 H   0  0  0  0  0  0  0  0  0  0  0  0
  -18.1690  -28.0680   22.9490 C   0  0  0  0  0  0  0  0  0  0  0  0
  -20.7180  -28.4080   23.2350 C   0  0  0  0  0  3  0  0  0  0  0  0
  -20.8650  -26.9780   22.6640 C   0  0  0  0  0  2  0  0  0  0  0  0
  -19.7820  -26.6240   21.6380 C   0  0  0  0  0  2  0  0  0  0  0  0
  -18.3900  -26.7270   22.2710 C   0  0  0  0  0  2  0  0  0  0  0  0
  -19.2610  -28.8640   23.3870 C   0  0  0  0  0  0  0  0  0  0  0  0
  -18.9980  -30.1150   23.9850 C   0  0  0  0  0  3  0  0  0  0  0  0
  -17.6770  -30.5720   24.1500 C   0  0  0  0  0  3  0  0  0  0  0  0
  -16.6000  -29.7760   23.7240 C   0  0  0  0  0  3  0  0  0  0  0  0
  -16.8460  -28.5270   23.1280 C   0  0  0  0  0  3  0  0  0  0  0  0
  -26.0260  -32.5720   23.9200 C   0  0  0  0  0  3  0  0  0  0  0  0
  -25.7050  -33.9620   24.2940 N   0  0  0  0  0  0  0  0  0  0  0  0
  -26.0120  -35.0450   23.5670 C   0  0  0  0  0  0  0  0  0  0  0  0
  -26.6570  -34.9800   22.5170 O   0  0  0  0  0  0  0  0  0  0  0  0
  -25.1240  -34.0860   25.1100 H   0  0  0  0  0  0  0  0  0  0  0  0
  -24.2680  -36.8480   23.3230 C   0  0  0  0  0  1  0  0  0  0  0  0
  -25.5330  -36.4170   24.0840 C   0  0  0  0  0  3  0  0  0  0  0  0
  -27.6820  -37.2970   24.8880 C   0  0  0  0  0  1  0  0  0  0  0  0
  -26.5570  -37.4800   23.9730 N   0  0  0  0  0  0  0  0  0  0  0  0
  -26.1490  -38.3940   24.1530 H   0  0  0  0  0  0  0  0  0  0  0  0
  -26.5530  -31.7800   25.1810 C   0  0  1  0  0  0  0  0  0  0  0  0
  -25.4690  -31.5270   26.2560 C   0  0  0  0  0  1  0  0  0  0  0  0
  -27.1350  -30.4060   24.7770 C   0  0  0  0  0  1  0  0  0  0  0  0
  -27.7040  -32.5700   25.8470 C   0  0  0  0  0  1  0  0  0  0  0  0
  1  5  2  0
  1  2  1  0
  2  4  2  0
  3 14  1  0
  3  6  2  0
  4  6  1  0
  4  8  1  0
  5  3  1  0
  6 11  1  0
  7  2  1  0
  7  9  1  0
  9 12  1  6
  9 50  1  0
  9  8  1  0
 10  5  1  0
 13  7  2  0
 15 20  1  0
 16 17  1  0
 16 15  1  0
 18 17  1  0
 18 25  1  0
 18 19  1  0
 20 14  1  0
 20 19  1  0
 21 14  2  0
 22 23  2  0
 23 42  1  0
 24 23  1  0
 24 27  1  0
 25 26  1  0
 25 22  1  0
 26 24  2  0
 27 28  1  0
 28 29  2  0
 30 33  1  0
 30 29  1  0
 31 30  2  0
 32 31  1  0
 32 27  2  0
 33 34  1  0
 34 39  2  0
 34 35  1  0
 35 36  2  0
 36 37  1  0
 37 41  1  0
 38 37  2  0
 39 38  1  0
 40 39  1  0
 42 43  1  0
 43 46  1  0
 43 45  1  0
 44 42  2  0
 47 48  1  0
 47 22  1  0
 49 47  1  0
 51 53  1  0
 51 50  1  0
 52 63  2  0
 53 58  1  0
 54 62  1  0
 54 64  1  0
 55 61  1  0
 55 57  1  0
 56 62  1  0
 57 56  1  0
 58 57  2  0
 59 60  1  0
 59 53  2  0
 60 55  2  0
 61 54  1  0
 62 52  1  0
 64 66  2  0
 65 64  1  0
 67 65  1  0
 68 77  2  0
 68 73  1  0
 69 65  1  0
 69 73  1  0
 70 69  1  0
 71 72  1  0
 71 70  1  0
 72 68  1  0
 73 74  2  0
 74 75  1  0
 76 75  2  0
 77 76  1  0
 78 52  1  0
 78 79  1  0
 78 88  1  0
 79 82  1  0
 80 84  1  0
 80 79  1  0
 81 80  2  0
 84 83  1  0
 86 84  1  0
 86 87  1  0
 86 85  1  0
 88 91  1  1
 88 89  1  0
 90 88  1  0
M  ISO  4   3 100  14 100  50 101  51 101
M  END
>  <TORSDO>  (74) 
F 17

>  <SCORE>  (74) 
-15.386

>  <name>  (74) 
73

>  <ligand_id>  (74) 
73

>  <original_smiles>  (74) 
[H]c1c([H])c([H])c2c(c1[H])C([H])([H])C([H])([H])C([H])([H])C2([H])N([H])C(=O)C1([H])N(C(=O)C([H])(N([H])C(=O)C([H])(N([H])C([H])([H])[H])C([H])([H])[H])C(C([H])([H])[H])(C([H])([H])[H])C([H])([H])[H])C([H])([H])c2c([H])c(OC([H])([H])C3(C([H])([H])[H])C(=O)c4c([H])c(C([H])([H])[H])c(C(=O)N5C([H])([H])C([H])([H])C([H])([H])C([H])(n6nc(-c7c([H])c([H])c(Oc8c([H])c([H])c(F)c([H])c8F)c([H])c7[H])c(C(=O)N([H])[H])c6N([H])[H])C5([H])[H])c(C([H])([H])[H])c4C3([H])[H])c([H])c([H])c2C1([H])[H]

>  <smiles>  (74) 
[H]c1c([H])c([H])c2c(c1[H])C([H])([H])C([H])([H])C([H])([H])C2([H])N([H])C(=O)C1([H])N(C(=O)C([H])(N([H])C(=O)C([H])(N([H])C([H])([H])[H])C([H])([H])[H])C(C([H])([H])[H])(C([H])([H])[H])C([H])([H])[H])C([H])([H])c2c([H])c(OC([H])([H])C3(C([H])([H])[H])C(=O)c4c([H])c(C([H])([H])[H])c(C(=O)N5C([H])([H])C([H])([H])C([H])([H])C([H])(n6nc(-c7c([H])c([H])c(Oc8c([H])c([H])c(F)c([H])c8F)c([H])c7[H])c(C(=O)N([H])[H])c6N([H])[H])C5([H])[H])c(C([H])([H])[H])c4C3([H])[H])c([H])c([H])c2C1([H])[H]

$$$$
74:0:0
     RDKit          3D

 93102  0  0  1  0  0  0  0  0999 V2000
  -28.7800  -17.9100   19.5370 C   0  0  0  0  0  3  0  0  0  0  0  0
  -29.9330  -17.1320   20.0370 C   0  0  0  0  0  0  0  0  0  0  0  0
  -28.5900  -19.3960   19.5930 C   0  0  0  0  0  0  0  0  0  0  0  0
  -29.5790  -20.2950   20.0500 C   0  0  0  0  0  0  0  0  0  0  0  0
  -30.8370  -18.0950   20.6810 C   0  0  0  0  0  0  0  0  0  0  0  0
  -30.7000  -19.5840   20.6550 C   0  0  0  0  0  0  0  0  0  0  0  0
  -27.3610  -20.1890   19.0510 C   0  0  0  0  0  2  0  0  0  0  0  0
  -29.4030  -21.9340   19.7240 C   0  0  0  0  0  2  0  0  0  0  0  0
  -26.9730  -21.6750   19.6260 C   0  0  0  0  0  2  0  0  0  0  0  0
  -28.0250  -22.8530   20.0040 C   0  0  1  0  0  0  0  0  0  0  0  0
  -27.9730  -23.0460   21.5310 C   0  0  0  0  0  1  0  0  0  0  0  0
  -30.3850  -15.5380   19.7050 C   0  0  0  0  0  0  0  0  0  0  0  0
  -30.1880  -13.0920   18.8720 C   0  0  0  0  0  2  0  0  0  0  0  0
  -29.2030  -12.9140   17.6870 C   0  0  0  0  0  2  0  0  0  0  0  0
  -27.7890  -12.6560   18.2230 C   0  0  0  0  0  2  0  0  0  0  0  0
  -27.4220  -13.6220   19.3800 C   0  0  0  0  0  3  0  0  0  0  0  0
  -28.5410  -13.7890   20.4310 C   0  0  0  0  0  2  0  0  0  0  0  0
  -29.7420  -14.2650   19.7230 N   0  0  0  0  0  0  0  0  0  0  0  0
  -31.5460  -15.4310   19.2880 O   0  0  0  0  0  0  0  0  0  0  0  0
  -25.1510  -14.1560   20.3990 C   0  0  0  0  0  0  0  0  0  0  0  0
  -24.1100  -13.3710   20.8130 C   0  0  0  0  0  0  0  0  0  0  0  0
  -24.5400  -12.0200   20.6430 C   0  0  0  0  0  0  0  0  0  0  0  0
  -26.1430  -13.2840   19.9910 N   0  0  0  0  0  0  0  0  0  0  0  0
  -25.7960  -11.9870   20.2060 N   0  0  0  0  0  0  0  0  0  0  0  0
  -23.8050  -10.7600   20.8190 C   0  0  0  0  0  0  0  0  0  0  0  0
  -24.2890   -9.7330   21.6610 C   0  0  0  0  0  3  0  0  0  0  0  0
  -23.5520   -8.5400   21.8320 C   0  0  0  0  0  3  0  0  0  0  0  0
  -22.3170   -8.3650   21.1650 C   0  0  0  0  0  0  0  0  0  0  0  0
  -21.8490   -9.3810   20.3130 C   0  0  0  0  0  3  0  0  0  0  0  0
  -22.5860  -10.5660   20.1400 C   0  0  0  0  0  3  0  0  0  0  0  0
  -21.5440   -7.2320   21.2500 O   0  0  0  0  0  0  0  0  0  0  0  0
  -21.5630   -6.4310   22.3620 C   0  0  0  0  0  0  0  0  0  0  0  0
  -21.2120   -6.9210   23.6380 C   0  0  0  0  0  3  0  0  0  0  0  0
  -21.1780   -6.0480   24.7440 C   0  0  0  0  0  3  0  0  0  0  0  0
  -21.4840   -4.6840   24.5730 C   0  0  0  0  0  0  0  0  0  0  0  0
  -21.8270   -4.1920   23.3010 C   0  0  0  0  0  3  0  0  0  0  0  0
  -21.8640   -5.0630   22.1980 C   0  0  0  0  0  0  0  0  0  0  0  0
  -22.1770   -4.5810   20.9720 F   0  0  0  0  0  0  0  0  0  0  0  0
  -21.4420   -3.8420   25.6330 F   0  0  0  0  0  0  0  0  0  0  0  0
  -22.7600  -13.8530   21.2480 C   0  0  0  0  0  0  0  0  0  0  0  0
  -22.1150  -13.1290   22.1580 N   0  0  0  0  0  0  0  0  0  0  0  0
  -22.2920  -14.9100   20.8270 O   0  0  0  0  0  0  0  0  0  0  0  0
  -22.5100  -12.2730   22.5190 H   0  0  0  0  0  0  0  0  0  0  0  0
  -21.2130  -13.4300   22.4980 H   0  0  0  0  0  0  0  0  0  0  0  0
  -25.3330  -15.5300   20.3000 N   0  0  0  0  0  0  0  0  0  0  0  0
  -24.6090  -16.1970   20.5440 H   0  0  0  0  0  0  0  0  0  0  0  0
  -26.1840  -15.9660   19.9620 H   0  0  0  0  0  0  0  0  0  0  0  0
  -33.3880  -17.5700   20.8070 C   0  0  0  0  0  1  0  0  0  0  0  0
  -32.0020  -17.4640   21.4740 C   0  0  0  0  0  2  0  0  0  0  0  0
  -31.4860  -21.6000   22.1960 C   0  0  0  0  0  1  0  0  0  0  0  0
  -31.8530  -20.4390   21.2480 C   0  0  0  0  0  2  0  0  0  0  0  0
  -27.5550  -24.4830   19.3690 C   0  0  0  0  0  2  0  0  0  0  0  0
  -27.7320  -26.0890   19.6820 O   0  0  0  0  0  0  0  0  0  0  0  0
  -24.4620  -31.9330   23.0940 C   0  0  0  0  0  0  0  0  0  0  0  0
  -26.7270  -27.1920   19.6820 C   0  0  0  0  0  0  0  0  0  0  0  0
  -23.1270  -30.6130   21.4960 C   0  0  0  0  0  3  0  0  0  0  0  0
  -24.4470  -29.0790   19.8850 C   0  0  0  0  0  0  0  0  0  0  0  0
  -25.6750  -30.8280   21.1570 C   0  0  0  0  0  2  0  0  0  0  0  0
  -25.6800  -29.4500   20.4340 C   0  0  0  0  0  0  0  0  0  0  0  0
  -26.8110  -28.5270   20.3130 C   0  0  0  0  0  3  0  0  0  0  0  0
  -25.4650  -26.9820   19.0770 C   0  0  0  0  0  3  0  0  0  0  0  0
  -24.3640  -27.8680   19.1830 C   0  0  0  0  0  3  0  0  0  0  0  0
  -23.2380  -29.9950   20.0730 C   0  0  0  0  0  2  0  0  0  0  0  0
  -24.4440  -31.1540   21.9650 N   0  0  0  0  0  0  0  0  0  0  0  0
  -23.4210  -32.1990   23.7170 O   0  0  0  0  0  0  0  0  0  0  0  0
  -22.5180  -29.5720   22.4730 C   0  0  0  0  0  0  0  0  0  0  0  0
  -21.1920  -29.3550   22.4040 N   0  0  0  0  0  0  0  0  0  0  0  0
  -23.2440  -28.9620   23.2640 O   0  0  0  0  0  0  0  0  0  0  0  0
  -20.6580  -29.9020   21.7440 H   0  0  0  0  0  0  0  0  0  0  0  0
  -17.9020  -27.9300   22.9600 C   0  0  0  0  0  0  0  0  0  0  0  0
  -20.4410  -28.3720   23.1930 C   0  0  0  0  0  3  0  0  0  0  0  0
  -20.6330  -26.9440   22.6330 C   0  0  0  0  0  2  0  0  0  0  0  0
  -19.5450  -26.5380   21.6350 C   0  0  0  0  0  2  0  0  0  0  0  0
  -18.1630  -26.5920   22.2910 C   0  0  0  0  0  2  0  0  0  0  0  0
  -18.9700  -28.7740   23.3690 C   0  0  0  0  0  0  0  0  0  0  0  0
  -18.6680  -30.0230   23.9540 C   0  0  0  0  0  3  0  0  0  0  0  0
  -17.3310  -30.4270   24.1370 C   0  0  0  0  0  3  0  0  0  0  0  0
  -16.2780  -29.5830   23.7390 C   0  0  0  0  0  3  0  0  0  0  0  0
  -16.5670  -28.3370   23.1530 C   0  0  0  0  0  3  0  0  0  0  0  0
  -25.7860  -32.5410   23.6460 C   0  0  0  0  0  3  0  0  0  0  0  0
  -26.3760  -31.7390   24.8730 C   0  0  1  0  0  0  0  0  0  0  0  0
  -25.3590  -31.5090   26.0140 C   0  0  0  0  0  1  0  0  0  0  0  0
  -26.9080  -30.3540   24.4350 C   0  0  0  0  0  1  0  0  0  0  0  0
  -27.5800  -32.5080   25.4640 C   0  0  0  0  0  1  0  0  0  0  0  0
  -25.5120  -33.9350   24.0350 N   0  0  0  0  0  0  0  0  0  0  0  0
  -25.8530  -35.0150   23.3220 C   0  0  0  0  0  0  0  0  0  0  0  0
  -26.4990  -34.9430   22.2720 O   0  0  0  0  0  0  0  0  0  0  0  0
  -24.9400  -34.0650   24.8560 H   0  0  0  0  0  0  0  0  0  0  0  0
  -24.1730  -36.8770   23.0950 C   0  0  0  0  0  1  0  0  0  0  0  0
  -25.4160  -36.3960   23.8580 C   0  0  0  0  0  3  0  0  0  0  0  0
  -27.5870  -37.1920   24.6870 C   0  0  0  0  0  1  0  0  0  0  0  0
  -26.4740  -37.4260   23.7730 N   0  0  0  0  0  0  0  0  0  0  0  0
  -26.0920  -38.3480   23.9660 H   0  0  0  0  0  0  0  0  0  0  0  0
  1  3  2  0
  1  2  1  0
  2  5  2  0
  3  4  1  0
  4  6  2  0
  5 49  1  0
  6  5  1  0
  6 51  1  0
  7  3  1  0
  7  9  1  0
  8 10  1  0
  8  4  1  0
  9 10  1  0
 10 11  1  1
 12 18  1  0
 12  2  1  0
 13 18  1  0
 14 15  1  0
 14 13  1  0
 16 15  1  0
 16 23  1  0
 16 17  1  0
 18 17  1  0
 19 12  2  0
 20 21  2  0
 21 40  1  0
 22 21  1  0
 22 25  1  0
 23 24  1  0
 23 20  1  0
 24 22  2  0
 25 26  1  0
 26 27  2  0
 28 31  1  0
 28 27  1  0
 29 28  2  0
 30 29  1  0
 30 25  2  0
 31 32  1  0
 32 33  1  0
 33 34  2  0
 35 34  1  0
 35 39  1  0
 36 35  2  0
 37 32  2  0
 37 36  1  0
 38 37  1  0
 40 41  1  0
 41 44  1  0
 41 43  1  0
 42 40  2  0
 45 20  1  0
 45 46  1  0
 47 45  1  0
 48 49  1  0
 51 50  1  0
 52 53  1  0
 52 10  1  0
 53 55  1  0
 54 65  2  0
 55 60  1  0
 56 64  1  0
 56 66  1  0
 57 63  1  0
 57 59  1  0
 58 64  1  0
 59 58  1  0
 60 59  2  0
 61 62  1  0
 61 55  2  0
 62 57  2  0
 63 56  1  0
 64 54  1  0
 66 68  2  0
 67 66  1  0
 69 67  1  0
 70 79  2  0
 70 75  1  0
 71 67  1  0
 71 75  1  0
 72 71  1  0
 73 74  1  0
 73 72  1  0
 74 70  1  0
 75 76  2  0
 76 77  1  0
 78 77  2  0
 79 78  1  0
 80 54  1  0
 80 85  1  0
 80 81  1  0
 81 84  1  1
 81 82  1  0
 83 81  1  0
 85 88  1  0
 86 90  1  0
 86 85  1  0
 87 86  2  0
 90 89  1  0
 92 90  1  0
 92 93  1  0
 92 91  1  0
M  ISO  4   2 100  12 100  52 101  53 101
M  END
>  <TORSDO>  (75) 
F 19

>  <SCORE>  (75) 
-12.881

>  <name>  (75) 
74

>  <ligand_id>  (75) 
74

>  <original_smiles>  (75) 
[H]c1c([H])c([H])c2c(c1[H])C([H])([H])C([H])([H])C([H])([H])C2([H])N([H])C(=O)C1([H])N(C(=O)C([H])(N([H])C(=O)C([H])(N([H])C([H])([H])[H])C([H])([H])[H])C(C([H])([H])[H])(C([H])([H])[H])C([H])([H])[H])C([H])([H])c2c([H])c(OC([H])([H])C3(C([H])([H])[H])C([H])([H])c4c(C([H])([H])C([H])([H])[H])c(C([H])([H])C([H])([H])[H])c(C(=O)N5C([H])([H])C([H])([H])C([H])([H])C([H])(n6nc(-c7c([H])c([H])c(Oc8c([H])c([H])c(F)c([H])c8F)c([H])c7[H])c(C(=O)N([H])[H])c6N([H])[H])C5([H])[H])c([H])c4C([H])([H])C3([H])[H])c([H])c([H])c2C1([H])[H]

>  <smiles>  (75) 
[H]c1c([H])c([H])c2c(c1[H])C([H])([H])C([H])([H])C([H])([H])C2([H])N([H])C(=O)C1([H])N(C(=O)C([H])(N([H])C(=O)C([H])(N([H])C([H])([H])[H])C([H])([H])[H])C(C([H])([H])[H])(C([H])([H])[H])C([H])([H])[H])C([H])([H])c2c([H])c(OC([H])([H])C3(C([H])([H])[H])C([H])([H])c4c(C([H])([H])C([H])([H])[H])c(C([H])([H])C([H])([H])[H])c(C(=O)N5C([H])([H])C([H])([H])C([H])([H])C([H])(n6nc(-c7c([H])c([H])c(Oc8c([H])c([H])c(F)c([H])c8F)c([H])c7[H])c(C(=O)N([H])[H])c6N([H])[H])C5([H])[H])c([H])c4C([H])([H])C3([H])[H])c([H])c([H])c2C1([H])[H]

$$$$
75:0:0
     RDKit          3D

 92100  0  0  1  0  0  0  0  0999 V2000
  -30.0870  -17.3140   20.1200 C   0  0  0  0  0  0  0  0  0  0  0  0
  -30.0010  -18.2990   21.2230 C   0  0  0  0  0  0  0  0  0  0  0  0
  -29.7360  -18.1730   18.9570 C   0  0  0  0  0  0  0  0  0  0  0  0
  -29.4590  -19.6790   18.9050 C   0  0  0  0  0  0  0  0  0  0  0  0
  -29.6640  -19.7960   21.1710 C   0  0  0  0  0  0  0  0  0  0  0  0
  -29.3710  -20.6700   20.0030 C   0  0  0  0  0  0  0  0  0  0  0  0
  -30.2990  -17.6710   22.5790 C   0  0  0  0  0  1  0  0  0  0  0  0
  -29.3020  -20.3640   17.5480 C   0  0  0  0  0  1  0  0  0  0  0  0
  -30.7080  -15.6720   20.0850 C   0  0  0  0  0  0  0  0  0  0  0  0
  -30.7150  -13.1550   19.3060 C   0  0  0  0  0  2  0  0  0  0  0  0
  -29.8000  -12.8340   18.0950 C   0  0  0  0  0  2  0  0  0  0  0  0
  -28.3710  -12.5120   18.5630 C   0  0  0  0  0  2  0  0  0  0  0  0
  -27.8990  -13.5000   19.6570 C   0  0  0  0  0  3  0  0  0  0  0  0
  -28.9500  -13.7830   20.7520 C   0  0  0  0  0  2  0  0  0  0  0  0
  -30.1440  -14.3370   20.0870 N   0  0  0  0  0  0  0  0  0  0  0  0
  -31.9280  -15.5580   19.8810 O   0  0  0  0  0  0  0  0  0  0  0  0
  -25.5740  -14.0110   20.5470 C   0  0  0  0  0  0  0  0  0  0  0  0
  -24.5210  -13.2220   20.9070 C   0  0  0  0  0  0  0  0  0  0  0  0
  -24.9740  -11.8720   20.7800 C   0  0  0  0  0  0  0  0  0  0  0  0
  -26.5970  -13.1490   20.2090 N   0  0  0  0  0  0  0  0  0  0  0  0
  -26.2540  -11.8490   20.4180 N   0  0  0  0  0  0  0  0  0  0  0  0
  -24.2400  -10.6070   20.9230 C   0  0  0  0  0  0  0  0  0  0  0  0
  -24.6610   -9.6010   21.8210 C   0  0  0  0  0  3  0  0  0  0  0  0
  -23.9230   -8.4050   21.9560 C   0  0  0  0  0  3  0  0  0  0  0  0
  -22.7480   -8.2050   21.1940 C   0  0  0  0  0  0  0  0  0  0  0  0
  -22.3440   -9.2010   20.2860 C   0  0  0  0  0  3  0  0  0  0  0  0
  -23.0830  -10.3870   20.1480 C   0  0  0  0  0  3  0  0  0  0  0  0
  -21.9830   -7.0650   21.2410 O   0  0  0  0  0  0  0  0  0  0  0  0
  -21.8800   -6.3120   22.3830 C   0  0  0  0  0  0  0  0  0  0  0  0
  -21.3980   -6.8550   23.5940 C   0  0  0  0  0  3  0  0  0  0  0  0
  -21.2440   -6.0290   24.7250 C   0  0  0  0  0  3  0  0  0  0  0  0
  -21.5620   -4.6600   24.6460 C   0  0  0  0  0  0  0  0  0  0  0  0
  -22.0360   -4.1150   23.4390 C   0  0  0  0  0  3  0  0  0  0  0  0
  -22.1920   -4.9390   22.3110 C   0  0  0  0  0  0  0  0  0  0  0  0
  -22.6290   -4.4040   21.1440 F   0  0  0  0  0  0  0  0  0  0  0  0
  -21.4070   -3.8630   25.7290 F   0  0  0  0  0  0  0  0  0  0  0  0
  -23.1390  -13.6940   21.2520 C   0  0  0  0  0  0  0  0  0  0  0  0
  -22.4350  -12.9670   22.1080 N   0  0  0  0  0  0  0  0  0  0  0  0
  -22.6900  -14.7430   20.7930 O   0  0  0  0  0  0  0  0  0  0  0  0
  -22.8080  -12.1180   22.5060 H   0  0  0  0  0  0  0  0  0  0  0  0
  -21.5060  -13.2630   22.3750 H   0  0  0  0  0  0  0  0  0  0  0  0
  -25.7390  -15.3910   20.4480 N   0  0  0  0  0  0  0  0  0  0  0  0
  -24.9800  -16.0350   20.6410 H   0  0  0  0  0  0  0  0  0  0  0  0
  -26.5810  -15.8560   20.1340 H   0  0  0  0  0  0  0  0  0  0  0  0
  -30.8490  -17.3190   16.7890 C   0  0  0  0  0  1  0  0  0  0  0  0
  -29.5850  -17.3640   17.6610 C   0  0  0  0  0  2  0  0  0  0  0  0
  -29.6480  -20.5550   22.4940 C   0  0  0  0  0  2  0  0  0  0  0  0
  -31.0130  -21.7690   24.2710 C   0  0  0  0  0  1  0  0  0  0  0  0
  -31.0120  -21.1740   22.8590 C   0  0  0  0  0  2  0  0  0  0  0  0
  -29.3130  -22.5130   19.8950 C   0  0  0  0  0  3  0  0  0  0  0  0
  -28.1910  -24.0390   19.8080 C   0  0  0  0  0  3  0  0  0  0  0  0
  -28.3470  -25.7620   19.8810 O   0  0  0  0  0  0  0  0  0  0  0  0
  -24.7280  -31.7570   23.0880 C   0  0  0  0  0  0  0  0  0  0  0  0
  -27.3340  -26.9170   19.8770 C   0  0  0  0  0  0  0  0  0  0  0  0
  -23.5550  -30.4070   21.4010 C   0  0  0  0  0  3  0  0  0  0  0  0
  -25.0220  -28.8620   19.9100 C   0  0  0  0  0  0  0  0  0  0  0  0
  -26.1250  -30.6250   21.2640 C   0  0  0  0  0  2  0  0  0  0  0  0
  -26.2130  -29.2300   20.5480 C   0  0  0  0  0  0  0  0  0  0  0  0
  -27.3570  -28.2870   20.4980 C   0  0  0  0  0  3  0  0  0  0  0  0
  -26.1070  -26.7410   19.1930 C   0  0  0  0  0  3  0  0  0  0  0  0
  -25.0040  -27.6440   19.2090 C   0  0  0  0  0  3  0  0  0  0  0  0
  -23.7960  -29.7780   20.0000 C   0  0  0  0  0  2  0  0  0  0  0  0
  -24.8260  -30.9570   21.9720 N   0  0  0  0  0  0  0  0  0  0  0  0
  -23.6350  -32.0120   23.6190 O   0  0  0  0  0  0  0  0  0  0  0  0
  -22.8670  -29.3690   22.3290 C   0  0  0  0  0  0  0  0  0  0  0  0
  -21.5380  -29.1960   22.2060 N   0  0  0  0  0  0  0  0  0  0  0  0
  -23.5400  -28.7220   23.1350 O   0  0  0  0  0  0  0  0  0  0  0  0
  -21.0400  -29.7710   21.5410 H   0  0  0  0  0  0  0  0  0  0  0  0
  -18.1770  -27.9010   22.6720 C   0  0  0  0  0  0  0  0  0  0  0  0
  -20.7320  -28.2120   22.9410 C   0  0  0  0  0  3  0  0  0  0  0  0
  -20.8610  -26.8050   22.3120 C   0  0  0  0  0  2  0  0  0  0  0  0
  -19.7650  -26.5000   21.2870 C   0  0  0  0  0  2  0  0  0  0  0  0
  -18.3820  -26.5860   21.9380 C   0  0  0  0  0  2  0  0  0  0  0  0
  -19.2800  -28.6730   23.1280 C   0  0  0  0  0  0  0  0  0  0  0  0
  -19.0320  -29.9010   23.7780 C   0  0  0  0  0  3  0  0  0  0  0  0
  -17.7170  -30.3630   23.9710 C   0  0  0  0  0  3  0  0  0  0  0  0
  -16.6280  -29.5880   23.5310 C   0  0  0  0  0  3  0  0  0  0  0  0
  -16.8600  -28.3600   22.8880 C   0  0  0  0  0  3  0  0  0  0  0  0
  -25.9860  -32.4000   23.7440 C   0  0  0  0  0  3  0  0  0  0  0  0
  -25.6490  -33.7870   24.1210 N   0  0  0  0  0  0  0  0  0  0  0  0
  -25.9500  -34.8750   23.4010 C   0  0  0  0  0  0  0  0  0  0  0  0
  -26.5990  -34.8210   22.3540 O   0  0  0  0  0  0  0  0  0  0  0  0
  -25.0660  -33.9010   24.9360 H   0  0  0  0  0  0  0  0  0  0  0  0
  -24.1780  -36.6510   23.1740 C   0  0  0  0  0  1  0  0  0  0  0  0
  -25.4570  -36.2420   23.9210 C   0  0  0  0  0  3  0  0  0  0  0  0
  -27.6020  -37.1510   24.6990 C   0  0  0  0  0  1  0  0  0  0  0  0
  -26.4640  -37.3190   23.8010 N   0  0  0  0  0  0  0  0  0  0  0  0
  -26.0450  -38.2270   23.9860 H   0  0  0  0  0  0  0  0  0  0  0  0
  -26.4920  -31.6070   25.0140 C   0  0  1  0  0  0  0  0  0  0  0  0
  -25.3910  -31.3530   26.0710 C   0  0  0  0  0  1  0  0  0  0  0  0
  -27.0780  -30.2340   24.6150 C   0  0  0  0  0  1  0  0  0  0  0  0
  -27.6350  -32.3910   25.7010 C   0  0  0  0  0  1  0  0  0  0  0  0
  1  2  1  0
  2  7  1  0
  3  1  2  0
  4  3  1  0
  4  6  2  0
  5  2  2  0
  5 47  1  0
  6  5  1  0
  8  4  1  0
  9 15  1  0
  9  1  1  0
 10 15  1  0
 11 12  1  0
 11 10  1  0
 13 12  1  0
 13 20  1  0
 13 14  1  0
 15 14  1  0
 16  9  2  0
 17 18  2  0
 18 37  1  0
 19 18  1  0
 19 22  1  0
 20 21  1  0
 20 17  1  0
 21 19  2  0
 22 23  1  0
 23 24  2  0
 25 28  1  0
 25 24  1  0
 26 25  2  0
 27 26  1  0
 27 22  2  0
 28 29  1  0
 29 30  1  0
 30 31  2  0
 32 31  1  0
 32 36  1  0
 33 32  2  0
 34 29  2  0
 34 33  1  0
 35 34  1  0
 37 38  1  0
 38 41  1  0
 38 40  1  0
 39 37  2  0
 42 17  1  0
 42 43  1  0
 44 42  1  0
 45 46  1  0
 46  3  1  0
 47 49  1  0
 49 48  1  0
 50  6  1  0
 51 52  1  0
 51 50  2  0
 53 64  2  0
 54 52  1  0
 54 59  1  0
 55 63  1  0
 55 65  1  0
 56 62  1  0
 56 58  1  0
 57 63  1  0
 58 57  1  0
 59 58  2  0
 60 61  1  0
 60 54  2  0
 61 56  2  0
 62 55  1  0
 63 53  1  0
 65 67  2  0
 66 65  1  0
 68 66  1  0
 69 78  2  0
 69 74  1  0
 70 66  1  0
 70 74  1  0
 71 70  1  0
 72 73  1  0
 72 71  1  0
 73 69  1  0
 74 75  2  0
 75 76  1  0
 77 76  2  0
 78 77  1  0
 79 53  1  0
 79 80  1  0
 79 89  1  0
 80 83  1  0
 81 85  1  0
 81 80  1  0
 82 81  2  0
 85 84  1  0
 87 85  1  0
 87 88  1  0
 87 86  1  0
 89 92  1  1
 89 90  1  0
 91 89  1  0
M  ISO  4   1 100   9 100  51 101  52 101
M  END
>  <TORSDO>  (76) 
F 21

>  <SCORE>  (76) 
-13.391

>  <name>  (76) 
75

>  <ligand_id>  (76) 
75

>  <original_smiles>  (76) 
[H]c1c([H])c([H])c2c(c1[H])C([H])([H])C([H])([H])C([H])([H])C2([H])N([H])C(=O)C1([H])N(C(=O)C([H])(N([H])C(=O)C([H])(N([H])C([H])([H])[H])C([H])([H])[H])C(C([H])([H])[H])(C([H])([H])[H])C([H])([H])[H])C([H])([H])c2c([H])c(OC([H])([H])C([H])([H])c3c(C([H])([H])[H])c(C([H])([H])C([H])([H])[H])c(C(=O)N4C([H])([H])C([H])([H])C([H])([H])C([H])(n5nc(-c6c([H])c([H])c(Oc7c([H])c([H])c(F)c([H])c7F)c([H])c6[H])c(C(=O)N([H])[H])c5N([H])[H])C4([H])[H])c(C([H])([H])[H])c3C([H])([H])C([H])([H])C([H])([H])[H])c([H])c([H])c2C1([H])[H]

>  <smiles>  (76) 
[H]c1c([H])c([H])c2c(c1[H])C([H])([H])C([H])([H])C([H])([H])C2([H])N([H])C(=O)C1([H])N(C(=O)C([H])(N([H])C(=O)C([H])(N([H])C([H])([H])[H])C([H])([H])[H])C(C([H])([H])[H])(C([H])([H])[H])C([H])([H])[H])C([H])([H])c2c([H])c(OC([H])([H])C([H])([H])c3c(C([H])([H])[H])c(C([H])([H])C([H])([H])[H])c(C(=O)N4C([H])([H])C([H])([H])C([H])([H])C([H])(n5nc(-c6c([H])c([H])c(Oc7c([H])c([H])c(F)c([H])c7F)c([H])c6[H])c(C(=O)N([H])[H])c5N([H])[H])C4([H])[H])c(C([H])([H])[H])c3C([H])([H])C([H])([H])C([H])([H])[H])c([H])c([H])c2C1([H])[H]

$$$$
76:0:0
     RDKit          3D

 91 99  0  0  1  0  0  0  0  0999 V2000
  -27.9190  -24.6750   18.5760 C   0  0  0  0  0  3  0  0  0  0  0  0
  -28.6900  -23.6210   20.6020 C   0  0  0  0  0  3  0  0  0  0  0  0
  -27.9410  -23.4010   17.9520 C   0  0  0  0  0  0  0  0  0  0  0  0
  -28.7730  -22.2510   19.9960 C   0  0  0  0  0  0  0  0  0  0  0  0
  -28.2560  -24.8880   19.9320 C   0  0  0  0  0  0  0  0  0  0  0  0
  -28.3820  -22.2320   18.6300 C   0  0  0  0  0  0  0  0  0  0  0  0
  -27.4990  -23.3110   16.4950 C   0  0  0  0  0  1  0  0  0  0  0  0
  -28.4770  -21.0740   17.9160 O   0  0  0  0  0  0  0  0  0  0  0  0
  -28.2880  -21.1890   16.9890 H   0  0  0  0  0  0  0  0  0  0  0  0
  -28.2690  -26.2900   20.4240 O   0  0  0  0  0  0  0  0  0  0  0  0
  -24.6170  -32.0270   23.3920 C   0  0  0  0  0  0  0  0  0  0  0  0
  -27.2130  -27.2840   20.3570 C   0  0  0  0  0  0  0  0  0  0  0  0
  -23.4390  -30.6410   21.7320 C   0  0  0  0  0  3  0  0  0  0  0  0
  -24.8970  -29.0630   20.3260 C   0  0  0  0  0  0  0  0  0  0  0  0
  -26.0030  -30.8810   21.6170 C   0  0  0  0  0  2  0  0  0  0  0  0
  -26.0740  -29.4900   20.9540 C   0  0  0  0  0  0  0  0  0  0  0  0
  -27.2290  -28.6150   20.9550 C   0  0  0  0  0  3  0  0  0  0  0  0
  -25.9930  -26.9590   19.7260 C   0  0  0  0  0  3  0  0  0  0  0  0
  -24.8680  -27.8090   19.7060 C   0  0  0  0  0  3  0  0  0  0  0  0
  -23.6790  -29.9690   20.3560 C   0  0  0  0  0  2  0  0  0  0  0  0
  -24.7060  -31.2040   22.3030 N   0  0  0  0  0  0  0  0  0  0  0  0
  -23.5230  -32.3180   23.8990 O   0  0  0  0  0  0  0  0  0  0  0  0
  -22.7380  -29.6330   22.6780 C   0  0  0  0  0  0  0  0  0  0  0  0
  -21.4160  -29.4470   22.5070 N   0  0  0  0  0  0  0  0  0  0  0  0
  -23.3840  -29.0250   23.5340 O   0  0  0  0  0  0  0  0  0  0  0  0
  -20.9480  -29.9910   21.7970 H   0  0  0  0  0  0  0  0  0  0  0  0
  -18.0390  -28.1960   22.8970 C   0  0  0  0  0  0  0  0  0  0  0  0
  -20.5800  -28.5090   23.2610 C   0  0  0  0  0  3  0  0  0  0  0  0
  -20.7280  -27.0690   22.7180 C   0  0  0  0  0  2  0  0  0  0  0  0
  -19.6770  -26.7120   21.6630 C   0  0  0  0  0  2  0  0  0  0  0  0
  -18.2660  -26.8420   22.2450 C   0  0  0  0  0  2  0  0  0  0  0  0
  -19.1260  -28.9850   23.3570 C   0  0  0  0  0  0  0  0  0  0  0  0
  -18.8610  -30.2510   23.9260 C   0  0  0  0  0  3  0  0  0  0  0  0
  -17.5430  -30.7290   24.0360 C   0  0  0  0  0  3  0  0  0  0  0  0
  -16.4690  -29.9380   23.5900 C   0  0  0  0  0  3  0  0  0  0  0  0
  -16.7180  -28.6730   23.0280 C   0  0  0  0  0  3  0  0  0  0  0  0
  -25.8850  -32.6580   24.0420 C   0  0  0  0  0  3  0  0  0  0  0  0
  -26.3440  -31.9100   25.3550 C   0  0  1  0  0  0  0  0  0  0  0  0
  -25.2070  -31.7140   26.3850 C   0  0  0  0  0  1  0  0  0  0  0  0
  -26.9220  -30.5150   25.0260 C   0  0  0  0  0  1  0  0  0  0  0  0
  -27.4820  -32.7020   26.0400 C   0  0  0  0  0  1  0  0  0  0  0  0
  -25.5860  -34.0700   24.3370 N   0  0  0  0  0  0  0  0  0  0  0  0
  -25.9700  -35.1090   23.5820 C   0  0  0  0  0  0  0  0  0  0  0  0
  -26.6790  -34.9770   22.5810 O   0  0  0  0  0  0  0  0  0  0  0  0
  -24.9650  -34.2470   25.1150 H   0  0  0  0  0  0  0  0  0  0  0  0
  -24.3140  -36.9430   23.1150 C   0  0  0  0  0  1  0  0  0  0  0  0
  -25.4930  -36.5130   24.0030 C   0  0  0  0  0  3  0  0  0  0  0  0
  -27.5890  -37.3530   24.9670 C   0  0  0  0  0  1  0  0  0  0  0  0
  -26.5590  -37.5380   23.9480 N   0  0  0  0  0  0  0  0  0  0  0  0
  -26.1680  -38.4700   24.0580 H   0  0  0  0  0  0  0  0  0  0  0  0
  -29.3790  -20.8570   20.6960 C   0  0  0  0  0  2  0  0  0  0  0  0
  -29.1090  -19.2060   20.3160 C   0  0  0  0  0  3  0  0  0  0  0  0
  -30.0500  -17.8810   20.8240 C   0  0  0  0  0  3  0  0  0  0  0  0
  -30.5030  -15.1460   20.5580 C   0  0  0  0  0  0  0  0  0  0  0  0
  -30.4400  -12.8130   19.5550 C   0  0  0  0  0  2  0  0  0  0  0  0
  -29.5310  -12.7800   18.3030 C   0  0  0  0  0  2  0  0  0  0  0  0
  -28.0670  -12.5260   18.7050 C   0  0  0  0  0  2  0  0  0  0  0  0
  -27.6190  -13.4230   19.8900 C   0  0  0  0  0  3  0  0  0  0  0  0
  -28.6510  -13.4290   21.0340 C   0  0  0  0  0  2  0  0  0  0  0  0
  -29.9220  -13.8830   20.4560 N   0  0  0  0  0  0  0  0  0  0  0  0
  -31.7210  -15.2190   20.3610 O   0  0  0  0  0  0  0  0  0  0  0  0
  -29.7100  -16.3320   20.6720 N   0  0  0  0  0  0  0  0  0  0  0  0
  -28.7250  -16.1300   20.7420 H   0  0  0  0  0  0  0  0  0  0  0  0
  -25.2110  -13.9480   20.5740 C   0  0  0  0  0  0  0  0  0  0  0  0
  -24.1550  -13.1480   20.9140 C   0  0  0  0  0  0  0  0  0  0  0  0
  -24.6530  -11.8100   20.8970 C   0  0  0  0  0  0  0  0  0  0  0  0
  -26.2790  -13.0940   20.3600 N   0  0  0  0  0  0  0  0  0  0  0  0
  -25.9520  -11.8020   20.6200 N   0  0  0  0  0  0  0  0  0  0  0  0
  -23.9520  -10.5300   21.0650 C   0  0  0  0  0  0  0  0  0  0  0  0
  -24.3630   -9.5820   22.0290 C   0  0  0  0  0  3  0  0  0  0  0  0
  -23.6580   -8.3690   22.1870 C   0  0  0  0  0  3  0  0  0  0  0  0
  -22.5300   -8.0930   21.3780 C   0  0  0  0  0  0  0  0  0  0  0  0
  -22.1360   -9.0300   20.4060 C   0  0  0  0  0  3  0  0  0  0  0  0
  -22.8410  -10.2340   20.2500 C   0  0  0  0  0  3  0  0  0  0  0  0
  -21.8020   -6.9300   21.4390 O   0  0  0  0  0  0  0  0  0  0  0  0
  -21.6980   -6.2100   22.6020 C   0  0  0  0  0  0  0  0  0  0  0  0
  -21.1330   -6.7630   23.7720 C   0  0  0  0  0  3  0  0  0  0  0  0
  -20.9780   -5.9650   24.9240 C   0  0  0  0  0  3  0  0  0  0  0  0
  -21.3770   -4.6150   24.9050 C   0  0  0  0  0  0  0  0  0  0  0  0
  -21.9340   -4.0620   23.7390 C   0  0  0  0  0  3  0  0  0  0  0  0
  -22.0880   -4.8560   22.5890 C   0  0  0  0  0  0  0  0  0  0  0  0
  -22.6040   -4.3130   21.4610 F   0  0  0  0  0  0  0  0  0  0  0  0
  -21.2240   -3.8450   26.0060 F   0  0  0  0  0  0  0  0  0  0  0  0
  -22.7410  -13.5930   21.1470 C   0  0  0  0  0  0  0  0  0  0  0  0
  -22.0040  -12.8740   21.9870 N   0  0  0  0  0  0  0  0  0  0  0  0
  -22.2970  -14.6100   20.6170 O   0  0  0  0  0  0  0  0  0  0  0  0
  -22.3740  -12.0440   22.4290 H   0  0  0  0  0  0  0  0  0  0  0  0
  -21.0580  -13.1590   22.1920 H   0  0  0  0  0  0  0  0  0  0  0  0
  -25.3430  -15.3230   20.4020 N   0  0  0  0  0  0  0  0  0  0  0  0
  -24.5450  -15.9460   20.4740 H   0  0  0  0  0  0  0  0  0  0  0  0
  -26.1690  -15.7840   20.0440 H   0  0  0  0  0  0  0  0  0  0  0  0
  1  5  1  0
  3  1  2  0
  3  6  1  0
  4  2  1  0
  4 51  1  0
  5 10  1  0
  5  2  2  0
  6  4  2  0
  7  3  1  0
  8  6  1  0
  9  8  1  0
 11 22  2  0
 12 10  1  0
 12 17  1  0
 13 21  1  0
 13 23  1  0
 14 20  1  0
 14 16  1  0
 15 21  1  0
 16 17  2  0
 16 15  1  0
 18 12  2  0
 19 18  1  0
 19 14  2  0
 20 13  1  0
 21 11  1  0
 23 25  2  0
 24 23  1  0
 26 24  1  0
 27 36  2  0
 27 32  1  0
 28 24  1  0
 28 32  1  0
 29 28  1  0
 30 31  1  0
 30 29  1  0
 31 27  1  0
 32 33  2  0
 33 34  1  0
 35 34  2  0
 36 35  1  0
 37 11  1  0
 37 42  1  0
 37 38  1  0
 38 41  1  1
 38 39  1  0
 40 38  1  0
 42 45  1  0
 43 47  1  0
 43 42  1  0
 44 43  2  0
 47 46  1  0
 49 47  1  0
 49 50  1  0
 49 48  1  0
 52 51  1  0
 52 53  2  0
 54 62  1  0
 55 60  1  0
 56 57  1  0
 56 55  1  0
 58 57  1  0
 58 67  1  0
 58 59  1  0
 60 54  1  0
 60 59  1  0
 61 54  2  0
 62 63  1  0
 62 53  1  0
 64 65  2  0
 65 84  1  0
 66 65  1  0
 66 69  1  0
 67 64  1  0
 67 68  1  0
 68 66  2  0
 69 70  1  0
 70 71  2  0
 72 75  1  0
 72 71  1  0
 73 72  2  0
 74 73  1  0
 74 69  2  0
 75 76  1  0
 76 77  1  0
 77 78  2  0
 79 78  1  0
 79 83  1  0
 80 79  2  0
 81 76  2  0
 81 80  1  0
 82 81  1  0
 84 85  1  0
 85 88  1  0
 85 87  1  0
 86 84  2  0
 89 90  1  0
 89 64  1  0
 91 89  1  0
M  ISO  4   5 101  10 101  54 100  62 100
M  END
>  <TORSDO>  (77) 
F 20

>  <SCORE>  (77) 
-14.081

>  <name>  (77) 
76

>  <ligand_id>  (77) 
76

>  <original_smiles>  (77) 
[H]Oc1c(C([H])([H])[H])c([H])c(Oc2c([H])c([H])c3c(c2[H])C([H])([H])N(C(=O)C([H])(N([H])C(=O)C([H])(N([H])C([H])([H])[H])C([H])([H])[H])C(C([H])([H])[H])(C([H])([H])[H])C([H])([H])[H])C([H])(C(=O)N([H])C2([H])c4c([H])c([H])c([H])c([H])c4C([H])([H])C([H])([H])C2([H])[H])C3([H])[H])c([H])c1C([H])([H])C([H])([H])C([H])([H])N([H])C(=O)N1C([H])([H])C([H])([H])C([H])([H])C([H])(n2nc(-c3c([H])c([H])c(Oc4c([H])c([H])c(F)c([H])c4F)c([H])c3[H])c(C(=O)N([H])[H])c2N([H])[H])C1([H])[H]

>  <smiles>  (77) 
[H]Oc1c(C([H])([H])[H])c([H])c(Oc2c([H])c([H])c3c(c2[H])C([H])([H])N(C(=O)C([H])(N([H])C(=O)C([H])(N([H])C([H])([H])[H])C([H])([H])[H])C(C([H])([H])[H])(C([H])([H])[H])C([H])([H])[H])C([H])(C(=O)N([H])C2([H])c4c([H])c([H])c([H])c([H])c4C([H])([H])C([H])([H])C2([H])[H])C3([H])[H])c([H])c1C([H])([H])C([H])([H])C([H])([H])N([H])C(=O)N1C([H])([H])C([H])([H])C([H])([H])C([H])(n2nc(-c3c([H])c([H])c(Oc4c([H])c([H])c(F)c([H])c4F)c([H])c3[H])c(C(=O)N([H])[H])c2N([H])[H])C1([H])[H]

$$$$
77:0:0
     RDKit          3D

 90 98  0  0  1  0  0  0  0  0999 V2000
  -30.0940  -17.1390   19.1880 C   0  0  0  0  0  3  0  0  0  0  0  0
  -29.8610  -18.5610   19.1730 C   0  0  0  0  0  3  0  0  0  0  0  0
  -30.6990  -16.4210   20.2670 C   0  0  0  0  0  0  0  0  0  0  0  0
  -30.2150  -19.4150   20.2540 C   0  0  0  0  0  0  0  0  0  0  0  0
  -30.9800  -17.2640   21.4000 C   0  0  0  0  0  0  0  0  0  0  0  0
  -30.7270  -18.6970   21.3870 C   0  0  0  0  0  0  0  0  0  0  0  0
  -31.6520  -16.6790   22.6380 C   0  0  0  0  0  1  0  0  0  0  0  0
  -31.2620  -14.9620   20.0210 C   0  0  0  0  0  0  0  0  0  0  0  0
  -30.8780  -12.7050   19.0090 C   0  0  0  0  0  2  0  0  0  0  0  0
  -29.9330  -12.8380   17.7950 C   0  0  0  0  0  2  0  0  0  0  0  0
  -28.4710  -12.7110   18.2550 C   0  0  0  0  0  2  0  0  0  0  0  0
  -28.1610  -13.6130   19.4800 C   0  0  0  0  0  3  0  0  0  0  0  0
  -29.2330  -13.5120   20.5830 C   0  0  0  0  0  2  0  0  0  0  0  0
  -30.5330  -13.7870   19.9710 N   0  0  0  0  0  0  0  0  0  0  0  0
  -32.4380  -14.9200   19.6450 O   0  0  0  0  0  0  0  0  0  0  0  0
  -25.8320  -14.2940   20.3000 C   0  0  0  0  0  0  0  0  0  0  0  0
  -24.7450  -13.5630   20.6880 C   0  0  0  0  0  0  0  0  0  0  0  0
  -25.1430  -12.1910   20.6200 C   0  0  0  0  0  0  0  0  0  0  0  0
  -26.8230  -13.3720   20.0110 N   0  0  0  0  0  0  0  0  0  0  0  0
  -26.4200  -12.1020   20.2710 N   0  0  0  0  0  0  0  0  0  0  0  0
  -24.3620  -10.9610   20.8130 C   0  0  0  0  0  0  0  0  0  0  0  0
  -24.7400   -9.9840   21.7600 C   0  0  0  0  0  3  0  0  0  0  0  0
  -23.9630   -8.8190   21.9360 C   0  0  0  0  0  3  0  0  0  0  0  0
  -22.7930   -8.6230   21.1660 C   0  0  0  0  0  0  0  0  0  0  0  0
  -22.4320   -9.5880   20.2090 C   0  0  0  0  0  3  0  0  0  0  0  0
  -23.2090  -10.7450   20.0320 C   0  0  0  0  0  3  0  0  0  0  0  0
  -21.9880   -7.5120   21.2530 O   0  0  0  0  0  0  0  0  0  0  0  0
  -21.8300   -6.8290   22.4320 C   0  0  0  0  0  0  0  0  0  0  0  0
  -21.3530   -7.4620   23.6010 C   0  0  0  0  0  3  0  0  0  0  0  0
  -21.1410   -6.7080   24.7720 C   0  0  0  0  0  3  0  0  0  0  0  0
  -21.3940   -5.3230   24.7750 C   0  0  0  0  0  0  0  0  0  0  0  0
  -21.8620   -4.6910   23.6100 C   0  0  0  0  0  3  0  0  0  0  0  0
  -22.0780   -5.4420   22.4410 C   0  0  0  0  0  0  0  0  0  0  0  0
  -22.5110   -4.8250   21.3160 F   0  0  0  0  0  0  0  0  0  0  0  0
  -21.1800   -4.5960   25.8970 F   0  0  0  0  0  0  0  0  0  0  0  0
  -23.3800  -14.1000   21.0060 C   0  0  0  0  0  0  0  0  0  0  0  0
  -22.6520  -13.4350   21.8960 N   0  0  0  0  0  0  0  0  0  0  0  0
  -22.9710  -15.1440   20.5000 O   0  0  0  0  0  0  0  0  0  0  0  0
  -22.9960  -12.5870   22.3210 H   0  0  0  0  0  0  0  0  0  0  0  0
  -21.7370  -13.7790   22.1540 H   0  0  0  0  0  0  0  0  0  0  0  0
  -26.0650  -15.6570   20.1420 N   0  0  0  0  0  0  0  0  0  0  0  0
  -25.3400  -16.3520   20.2890 H   0  0  0  0  0  0  0  0  0  0  0  0
  -26.9420  -16.0520   19.8270 H   0  0  0  0  0  0  0  0  0  0  0  0
  -30.1440  -19.3860   23.5520 C   0  0  0  0  0  1  0  0  0  0  0  0
  -31.0820  -19.4390   22.4830 O   0  0  0  0  0  0  0  0  0  0  0  0
  -30.3220  -21.0300   20.1290 C   0  0  0  0  0  3  0  0  0  0  0  0
  -29.1470  -22.1210   19.8280 C   0  0  0  0  0  3  0  0  0  0  0  0
  -29.4740  -23.7250   20.0080 C   0  0  0  0  0  3  0  0  0  0  0  0
  -28.3720  -24.8960   19.7090 C   0  0  0  0  0  3  0  0  0  0  0  0
  -28.5960  -26.3860   19.9190 O   0  0  0  0  0  0  0  0  0  0  0  0
  -24.6360  -31.6290   23.0630 C   0  0  0  0  0  0  0  0  0  0  0  0
  -27.4820  -27.2710   19.8570 C   0  0  0  0  0  0  0  0  0  0  0  0
  -23.5210  -30.2440   21.3570 C   0  0  0  0  0  3  0  0  0  0  0  0
  -25.0610  -28.8320   19.8740 C   0  0  0  0  0  0  0  0  0  0  0  0
  -26.0510  -30.6810   21.2170 C   0  0  0  0  0  2  0  0  0  0  0  0
  -26.2060  -29.3320   20.5080 C   0  0  0  0  0  0  0  0  0  0  0  0
  -27.4210  -28.5680   20.4830 C   0  0  0  0  0  3  0  0  0  0  0  0
  -26.3110  -26.8550   19.1850 C   0  0  0  0  0  3  0  0  0  0  0  0
  -25.1220  -27.6060   19.1980 C   0  0  0  0  0  3  0  0  0  0  0  0
  -23.7840  -29.6470   19.9510 C   0  0  0  0  0  2  0  0  0  0  0  0
  -24.7540  -30.8680   21.9360 N   0  0  0  0  0  0  0  0  0  0  0  0
  -23.5340  -31.8290   23.5960 O   0  0  0  0  0  0  0  0  0  0  0  0
  -22.9010  -29.1550   22.2650 C   0  0  0  0  0  0  0  0  0  0  0  0
  -21.5830  -28.9300   22.1300 N   0  0  0  0  0  0  0  0  0  0  0  0
  -23.6020  -28.5190   23.0550 O   0  0  0  0  0  0  0  0  0  0  0  0
  -21.0750  -29.4920   21.4630 H   0  0  0  0  0  0  0  0  0  0  0  0
  -18.2590  -27.5580   22.5720 C   0  0  0  0  0  0  0  0  0  0  0  0
  -20.8040  -27.9220   22.8550 C   0  0  0  0  0  3  0  0  0  0  0  0
  -20.9690  -26.5240   22.2200 C   0  0  0  0  0  2  0  0  0  0  0  0
  -19.8840  -26.1980   21.1860 C   0  0  0  0  0  2  0  0  0  0  0  0
  -18.4960  -26.2510   21.8320 C   0  0  0  0  0  2  0  0  0  0  0  0
  -19.3420  -28.3510   23.0360 C   0  0  0  0  0  0  0  0  0  0  0  0
  -19.0670  -29.5730   23.6860 C   0  0  0  0  0  3  0  0  0  0  0  0
  -17.7400  -30.0050   23.8750 C   0  0  0  0  0  3  0  0  0  0  0  0
  -16.6710  -29.2090   23.4270 C   0  0  0  0  0  3  0  0  0  0  0  0
  -16.9310  -27.9860   22.7810 C   0  0  0  0  0  3  0  0  0  0  0  0
  -25.8740  -32.3040   23.7270 C   0  0  0  0  0  3  0  0  0  0  0  0
  -25.4980  -33.6810   24.0800 N   0  0  0  0  0  0  0  0  0  0  0  0
  -25.7860  -34.7630   23.3440 C   0  0  0  0  0  0  0  0  0  0  0  0
  -26.4650  -34.7080   22.3150 O   0  0  0  0  0  0  0  0  0  0  0  0
  -24.8950  -33.7930   24.8820 H   0  0  0  0  0  0  0  0  0  0  0  0
  -23.9710  -36.4770   23.0240 C   0  0  0  0  0  1  0  0  0  0  0  0
  -25.2350  -36.1210   23.8240 C   0  0  0  0  0  3  0  0  0  0  0  0
  -27.3300  -37.0950   24.6560 C   0  0  0  0  0  1  0  0  0  0  0  0
  -26.2160  -37.2240   23.7210 N   0  0  0  0  0  0  0  0  0  0  0  0
  -25.7690  -38.1230   23.8820 H   0  0  0  0  0  0  0  0  0  0  0  0
  -26.3930  -31.5290   25.0000 C   0  0  1  0  0  0  0  0  0  0  0  0
  -25.2890  -31.2320   26.0430 C   0  0  0  0  0  1  0  0  0  0  0  0
  -27.0310  -30.1790   24.5990 C   0  0  0  0  0  1  0  0  0  0  0  0
  -27.5060  -32.3520   25.6930 C   0  0  0  0  0  1  0  0  0  0  0  0
  1  3  1  0
  2  1  2  0
  2  4  1  0
  3  5  2  0
  4  6  2  0
  5  7  1  0
  6  5  1  0
  6 45  1  0
  8  3  1  0
  9 14  1  0
 10 11  1  0
 10  9  1  0
 12 11  1  0
 12 19  1  0
 12 13  1  0
 14  8  1  0
 14 13  1  0
 15  8  2  0
 16 17  2  0
 17 36  1  0
 18 17  1  0
 18 21  1  0
 19 20  1  0
 19 16  1  0
 20 18  2  0
 21 22  1  0
 22 23  2  0
 24 27  1  0
 24 23  1  0
 25 24  2  0
 26 25  1  0
 26 21  2  0
 27 28  1  0
 28 33  2  0
 28 29  1  0
 29 30  2  0
 30 31  1  0
 31 35  1  0
 32 31  2  0
 33 32  1  0
 34 33  1  0
 36 37  1  0
 37 40  1  0
 37 39  1  0
 38 36  2  0
 41 42  1  0
 41 16  1  0
 43 41  1  0
 45 44  1  0
 46  4  1  0
 47 48  1  0
 47 46  2  0
 49 50  1  0
 49 48  2  0
 51 62  2  0
 52 50  1  0
 52 57  1  0
 53 61  1  0
 53 63  1  0
 54 60  1  0
 54 56  1  0
 55 61  1  0
 56 55  1  0
 57 56  2  0
 58 59  1  0
 58 52  2  0
 59 54  2  0
 60 53  1  0
 61 51  1  0
 63 65  2  0
 64 63  1  0
 66 64  1  0
 67 76  2  0
 67 72  1  0
 68 64  1  0
 68 72  1  0
 69 68  1  0
 70 71  1  0
 70 69  1  0
 71 67  1  0
 72 73  2  0
 73 74  1  0
 75 74  2  0
 76 75  1  0
 77 51  1  0
 77 78  1  0
 77 87  1  0
 78 81  1  0
 79 83  1  0
 79 78  1  0
 80 79  2  0
 83 82  1  0
 85 83  1  0
 85 86  1  0
 85 84  1  0
 87 90  1  1
 87 88  1  0
 89 87  1  0
M  ISO  4   3 100   8 100  49 101  50 101
M  END
>  <TORSDO>  (78) 
F 21

>  <SCORE>  (78) 
-10.405

>  <name>  (78) 
77

>  <ligand_id>  (78) 
77

>  <original_smiles>  (78) 
[H]c1c([H])c([H])c2c(c1[H])C([H])([H])C([H])([H])C([H])([H])C2([H])N([H])C(=O)C1([H])N(C(=O)C([H])(N([H])C(=O)C([H])(N([H])C([H])([H])[H])C([H])([H])[H])C(C([H])([H])[H])(C([H])([H])[H])C([H])([H])[H])C([H])([H])c2c([H])c(OC([H])([H])C([H])([H])C([H])([H])C([H])([H])c3c([H])c([H])c(C(=O)N4C([H])([H])C([H])([H])C([H])([H])C([H])(n5nc(-c6c([H])c([H])c(Oc7c([H])c([H])c(F)c([H])c7F)c([H])c6[H])c(C(=O)N([H])[H])c5N([H])[H])C4([H])[H])c(C([H])([H])[H])c3OC([H])([H])[H])c([H])c([H])c2C1([H])[H]

>  <smiles>  (78) 
[H]c1c([H])c([H])c2c(c1[H])C([H])([H])C([H])([H])C([H])([H])C2([H])N([H])C(=O)C1([H])N(C(=O)C([H])(N([H])C(=O)C([H])(N([H])C([H])([H])[H])C([H])([H])[H])C(C([H])([H])[H])(C([H])([H])[H])C([H])([H])[H])C([H])([H])c2c([H])c(OC([H])([H])C([H])([H])C([H])([H])C([H])([H])c3c([H])c([H])c(C(=O)N4C([H])([H])C([H])([H])C([H])([H])C([H])(n5nc(-c6c([H])c([H])c(Oc7c([H])c([H])c(F)c([H])c7F)c([H])c6[H])c(C(=O)N([H])[H])c5N([H])[H])C4([H])[H])c(C([H])([H])[H])c3OC([H])([H])[H])c([H])c([H])c2C1([H])[H]

$$$$
78:0:0
     RDKit          3D

102110  0  0  1  0  0  0  0  0999 V2000
  -28.1060  -17.3080   22.0260 C   0  0  0  0  0  2  0  0  0  0  0  0
  -29.0910  -16.8460   23.1330 C   0  0  0  0  0  2  0  0  0  0  0  0
  -30.4750  -16.3770   22.6060 C   0  0  0  0  0  3  0  0  0  0  0  0
  -30.7390  -14.4550   20.8020 C   0  0  0  0  0  0  0  0  0  0  0  0
  -30.4610  -12.3710   19.4640 C   0  0  0  0  0  2  0  0  0  0  0  0
  -29.5330  -12.5300   18.2430 C   0  0  0  0  0  2  0  0  0  0  0  0
  -28.0570  -12.3360   18.6400 C   0  0  0  0  0  2  0  0  0  0  0  0
  -27.6640  -13.2040   19.8620 C   0  0  0  0  0  3  0  0  0  0  0  0
  -28.6790  -13.0040   21.0070 C   0  0  0  0  0  2  0  0  0  0  0  0
  -30.0370  -13.3210   20.5070 N   0  0  0  0  0  0  0  0  0  0  0  0
  -31.7880  -14.7710   20.2330 O   0  0  0  0  0  0  0  0  0  0  0  0
  -30.1750  -15.1760   21.7950 N   0  0  0  0  0  0  0  0  0  0  0  0
  -29.3480  -14.7120   22.1380 H   0  0  0  0  0  0  0  0  0  0  0  0
  -25.2580  -13.8140   20.5660 C   0  0  0  0  0  0  0  0  0  0  0  0
  -24.1850  -13.0450   20.9150 C   0  0  0  0  0  0  0  0  0  0  0  0
  -24.6370  -11.6890   20.8690 C   0  0  0  0  0  0  0  0  0  0  0  0
  -26.3000  -12.9300   20.3180 N   0  0  0  0  0  0  0  0  0  0  0  0
  -25.9280  -11.6460   20.5600 N   0  0  0  0  0  0  0  0  0  0  0  0
  -23.9040  -10.4300   21.0370 C   0  0  0  0  0  0  0  0  0  0  0  0
  -24.3600   -9.4230   21.9150 C   0  0  0  0  0  3  0  0  0  0  0  0
  -23.6290   -8.2250   22.0720 C   0  0  0  0  0  3  0  0  0  0  0  0
  -22.4280   -8.0270   21.3520 C   0  0  0  0  0  0  0  0  0  0  0  0
  -21.9920   -9.0240   20.4610 C   0  0  0  0  0  3  0  0  0  0  0  0
  -22.7230  -10.2140   20.3020 C   0  0  0  0  0  3  0  0  0  0  0  0
  -21.6630   -6.8900   21.4250 O   0  0  0  0  0  0  0  0  0  0  0  0
  -21.6840   -6.0750   22.5280 C   0  0  0  0  0  0  0  0  0  0  0  0
  -21.4020   -6.5640   23.8230 C   0  0  0  0  0  3  0  0  0  0  0  0
  -21.3660   -5.6790   24.9170 C   0  0  0  0  0  3  0  0  0  0  0  0
  -21.6050   -4.3050   24.7230 C   0  0  0  0  0  0  0  0  0  0  0  0
  -21.8810   -3.8150   23.4340 C   0  0  0  0  0  3  0  0  0  0  0  0
  -21.9200   -4.6970   22.3400 C   0  0  0  0  0  0  0  0  0  0  0  0
  -22.1650   -4.2160   21.0980 F   0  0  0  0  0  0  0  0  0  0  0  0
  -21.5620   -3.4520   25.7730 F   0  0  0  0  0  0  0  0  0  0  0  0
  -22.7850  -13.5230   21.1890 C   0  0  0  0  0  0  0  0  0  0  0  0
  -22.0480  -12.8250   22.0440 N   0  0  0  0  0  0  0  0  0  0  0  0
  -22.3540  -14.5550   20.6730 O   0  0  0  0  0  0  0  0  0  0  0  0
  -22.4010  -11.9860   22.4770 H   0  0  0  0  0  0  0  0  0  0  0  0
  -21.1100  -13.1280   22.2630 H   0  0  0  0  0  0  0  0  0  0  0  0
  -25.4340  -15.1900   20.4150 N   0  0  0  0  0  0  0  0  0  0  0  0
  -24.6820  -15.8560   20.5550 H   0  0  0  0  0  0  0  0  0  0  0  0
  -26.3030  -15.6250   20.1350 H   0  0  0  0  0  0  0  0  0  0  0  0
  -31.3230  -17.5330   21.9760 C   0  0  0  0  0  2  0  0  0  0  0  0
  -30.8550  -19.4320   23.5990 C   0  0  0  0  0  3  0  0  0  0  0  0
  -31.1090  -20.1560   24.7760 C   0  0  0  0  0  0  0  0  0  0  0  0
  -31.8110  -18.5700   23.0230 C   0  0  0  0  0  0  0  0  0  0  0  0
  -32.3950  -20.0900   25.3600 C   0  0  0  0  0  0  0  0  0  0  0  0
  -33.1540  -18.6630   23.4930 C   0  0  0  0  0  0  0  0  0  0  0  0
  -33.4380  -19.4010   24.6820 C   0  0  0  0  0  0  0  0  0  0  0  0
  -29.9640  -20.9350   25.4160 C   0  0  0  0  0  1  0  0  0  0  0  0
  -32.6510  -20.7110   26.7300 C   0  0  0  0  0  1  0  0  0  0  0  0
  -34.2990  -17.9890   22.7380 C   0  0  0  0  0  1  0  0  0  0  0  0
  -34.8620  -19.4600   25.2420 C   0  0  0  0  0  1  0  0  0  0  0  0
  -27.3890  -18.6430   22.2930 C   0  0  0  0  0  2  0  0  0  0  0  0
  -27.8680  -19.7740   21.3550 C   0  0  0  0  0  2  0  0  0  0  0  0
  -27.7950  -21.1730   21.9810 C   0  0  0  0  0  0  0  0  0  0  0  0
  -28.5790  -22.1150   21.4400 N   0  0  0  0  0  0  0  0  0  0  0  0
  -27.0580  -21.3940   22.9410 O   0  0  0  0  0  0  0  0  0  0  0  0
  -29.1110  -21.8590   20.6190 H   0  0  0  0  0  0  0  0  0  0  0  0
  -28.7270  -23.4920   21.9120 C   0  0  0  0  0  2  0  0  0  0  0  0
  -28.5970  -24.4840   20.7450 C   0  0  0  0  0  2  0  0  0  0  0  0
  -28.5300  -25.9340   21.2350 C   0  0  0  0  0  2  0  0  0  0  0  0
  -28.4100  -26.7820   20.1000 O   0  0  0  0  0  0  0  0  0  0  0  0
  -24.6090  -31.8730   23.2160 C   0  0  0  0  0  0  0  0  0  0  0  0
  -27.2500  -27.5020   20.1000 C   0  0  0  0  0  0  0  0  0  0  0  0
  -23.3970  -30.4950   21.5470 C   0  0  0  0  0  3  0  0  0  0  0  0
  -24.8540  -28.9700   20.1130 C   0  0  0  0  0  0  0  0  0  0  0  0
  -25.9170  -30.8610   21.3630 C   0  0  0  0  0  2  0  0  0  0  0  0
  -26.0040  -29.4980   20.7150 C   0  0  0  0  0  0  0  0  0  0  0  0
  -27.2040  -28.7650   20.7220 C   0  0  0  0  0  3  0  0  0  0  0  0
  -26.0940  -26.9700   19.5010 C   0  0  0  0  0  3  0  0  0  0  0  0
  -24.8890  -27.6970   19.5120 C   0  0  0  0  0  3  0  0  0  0  0  0
  -23.6110  -29.8280   20.1580 C   0  0  0  0  0  2  0  0  0  0  0  0
  -24.6570  -31.0900   22.1020 N   0  0  0  0  0  0  0  0  0  0  0  0
  -23.5300  -32.1380   23.7640 O   0  0  0  0  0  0  0  0  0  0  0  0
  -22.7410  -29.4650   22.4960 C   0  0  0  0  0  0  0  0  0  0  0  0
  -21.4150  -29.3020   22.3750 N   0  0  0  0  0  0  0  0  0  0  0  0
  -23.4220  -28.8200   23.2980 O   0  0  0  0  0  0  0  0  0  0  0  0
  -20.9270  -29.8830   21.7070 H   0  0  0  0  0  0  0  0  0  0  0  0
  -18.0260  -28.1380   22.8520 C   0  0  0  0  0  0  0  0  0  0  0  0
  -20.5870  -28.3650   23.1340 C   0  0  0  0  0  3  0  0  0  0  0  0
  -20.6730  -26.9380   22.5440 C   0  0  0  0  0  2  0  0  0  0  0  0
  -19.5700  -26.6390   21.5240 C   0  0  0  0  0  2  0  0  0  0  0  0
  -18.1880  -26.7940   22.1650 C   0  0  0  0  0  2  0  0  0  0  0  0
  -19.1520  -28.8830   23.2940 C   0  0  0  0  0  0  0  0  0  0  0  0
  -18.9450  -30.1450   23.8940 C   0  0  0  0  0  3  0  0  0  0  0  0
  -17.6460  -30.6590   24.0590 C   0  0  0  0  0  3  0  0  0  0  0  0
  -16.5350  -29.9110   23.6330 C   0  0  0  0  0  3  0  0  0  0  0  0
  -16.7260  -28.6530   23.0360 C   0  0  0  0  0  3  0  0  0  0  0  0
  -25.9030  -32.4860   23.8450 C   0  0  0  0  0  3  0  0  0  0  0  0
  -26.4470  -31.6600   25.0750 C   0  0  1  0  0  0  0  0  0  0  0  0
  -25.3780  -31.3700   26.1520 C   0  0  0  0  0  1  0  0  0  0  0  0
  -27.0220  -30.3040   24.6050 C   0  0  0  0  0  1  0  0  0  0  0  0
  -27.6090  -32.4250   25.7510 C   0  0  0  0  0  1  0  0  0  0  0  0
  -25.5920  -33.8650   24.2390 N   0  0  0  0  0  0  0  0  0  0  0  0
  -25.9040  -34.9500   23.5150 C   0  0  0  0  0  0  0  0  0  0  0  0
  -26.5570  -34.8960   22.4680 O   0  0  0  0  0  0  0  0  0  0  0  0
  -25.0210  -33.9820   25.0640 H   0  0  0  0  0  0  0  0  0  0  0  0
  -24.1480  -36.7270   23.2630 C   0  0  0  0  0  1  0  0  0  0  0  0
  -25.4120  -36.3120   24.0350 C   0  0  0  0  0  3  0  0  0  0  0  0
  -27.5580  -37.1810   24.8480 C   0  0  0  0  0  1  0  0  0  0  0  0
  -26.4290  -37.3830   23.9430 N   0  0  0  0  0  0  0  0  0  0  0  0
  -26.0180  -38.2890   24.1480 H   0  0  0  0  0  0  0  0  0  0  0  0
  1 53  1  0
  1  2  1  0
  3 42  1  0
  3  2  1  0
  4 12  1  0
  5 10  1  0
  6  7  1  0
  6  5  1  0
  8  7  1  0
  8 17  1  0
  8  9  1  0
 10  4  1  0
 10  9  1  0
 11  4  2  0
 12 13  1  0
 12  3  1  0
 14 15  2  0
 15 34  1  0
 16 15  1  0
 16 19  1  0
 17 18  1  0
 17 14  1  0
 18 16  2  0
 19 20  1  0
 20 21  2  0
 22 25  1  0
 22 21  1  0
 23 22  2  0
 24 23  1  0
 24 19  2  0
 25 26  1  0
 26 27  1  0
 27 28  2  0
 29 28  1  0
 29 33  1  0
 30 29  2  0
 31 26  2  0
 31 30  1  0
 32 31  1  0
 34 35  1  0
 35 38  1  0
 35 37  1  0
 36 34  2  0
 39 40  1  0
 39 14  1  0
 41 39  1  0
 42 45  1  0
 43 44  1  0
 44 46  2  0
 44 49  1  0
 45 47  1  0
 45 43  2  0
 46 50  1  0
 47 48  2  0
 48 52  1  0
 48 46  1  0
 51 47  1  0
 54 55  1  0
 54 53  1  0
 55 57  2  0
 56 59  1  0
 56 55  1  0
 58 56  1  0
 60 61  1  0
 60 59  1  0
 62 64  1  0
 62 61  1  0
 63 74  2  0
 64 69  1  0
 65 73  1  0
 65 75  1  0
 66 72  1  0
 66 68  1  0
 67 73  1  0
 68 69  2  0
 68 67  1  0
 70 71  1  0
 70 64  2  0
 71 66  2  0
 72 65  1  0
 73 63  1  0
 75 77  2  0
 76 75  1  0
 78 76  1  0
 79 88  2  0
 79 84  1  0
 80 76  1  0
 80 84  1  0
 81 80  1  0
 82 83  1  0
 82 81  1  0
 83 79  1  0
 84 85  2  0
 85 86  1  0
 87 86  2  0
 88 87  1  0
 89 63  1  0
 89 94  1  0
 89 90  1  0
 90 93  1  1
 90 91  1  0
 92 90  1  0
 94 97  1  0
 95 99  1  0
 95 94  1  0
 96 95  2  0
 99 98  1  0
101 99  1  0
101102  1  0
101100  1  0
M  ISO  4   4 100  12 100  61 101  62 101
M  END
>  <TORSDO>  (79) 
F 26

>  <SCORE>  (79) 
32.646

>  <name>  (79) 
78

>  <ligand_id>  (79) 
78

>  <original_smiles>  (79) 
[H]c1c([H])c([H])c2c(c1[H])C([H])([H])C([H])([H])C([H])([H])C2([H])N([H])C(=O)C1([H])N(C(=O)C([H])(N([H])C(=O)C([H])(N([H])C([H])([H])[H])C([H])([H])[H])C(C([H])([H])[H])(C([H])([H])[H])C([H])([H])[H])C([H])([H])c2c([H])c(OC([H])([H])C([H])([H])C([H])([H])N([H])C(=O)C([H])([H])C([H])([H])C([H])([H])C([H])([H])C([H])(N([H])C(=O)N3C([H])([H])C([H])([H])C([H])([H])C([H])(n4nc(-c5c([H])c([H])c(Oc6c([H])c([H])c(F)c([H])c6F)c([H])c5[H])c(C(=O)N([H])[H])c4N([H])[H])C3([H])[H])C([H])([H])c3c([H])c(C([H])([H])[H])c(C([H])([H])[H])c(C([H])([H])[H])c3C([H])([H])[H])c([H])c([H])c2C1([H])[H]

>  <smiles>  (79) 
[H]c1c([H])c([H])c2c(c1[H])C([H])([H])C([H])([H])C([H])([H])C2([H])N([H])C(=O)C1([H])N(C(=O)C([H])(N([H])C(=O)C([H])(N([H])C([H])([H])[H])C([H])([H])[H])C(C([H])([H])[H])(C([H])([H])[H])C([H])([H])[H])C([H])([H])c2c([H])c(OC([H])([H])C([H])([H])C([H])([H])N([H])C(=O)C([H])([H])C([H])([H])C([H])([H])C([H])([H])C([H])(N([H])C(=O)N3C([H])([H])C([H])([H])C([H])([H])C([H])(n4nc(-c5c([H])c([H])c(Oc6c([H])c([H])c(F)c([H])c6F)c([H])c5[H])c(C(=O)N([H])[H])c4N([H])[H])C3([H])[H])C([H])([H])c3c([H])c(C([H])([H])[H])c(C([H])([H])[H])c(C([H])([H])[H])c3C([H])([H])[H])c([H])c([H])c2C1([H])[H]

$$$$
79:0:0
     RDKit          3D

 95104  0  0  1  0  0  0  0  0999 V2000
  -29.1080  -19.8090   21.0050 C   0  0  0  0  0  3  0  0  0  0  0  0
  -29.8280  -19.9560   18.6720 C   0  0  0  0  0  3  0  0  0  0  0  0
  -29.7720  -21.9590   20.0440 C   0  0  0  0  0  0  0  0  0  0  0  0
  -29.3010  -21.1930   21.1100 C   0  0  0  0  0  0  0  0  0  0  0  0
  -29.4060  -19.1590   19.7910 C   0  0  0  0  0  0  0  0  0  0  0  0
  -30.0100  -21.3770   18.7700 C   0  0  0  0  0  0  0  0  0  0  0  0
  -29.9840  -23.3370   20.5360 C   0  0  0  0  0  0  0  0  0  0  0  0
  -29.0570  -22.0030   22.3570 C   0  0  0  0  0  3  0  0  0  0  0  0
  -29.6090  -23.4010   22.0150 C   0  0  0  0  0  3  0  0  0  0  0  0
  -30.4450  -24.3060   19.9310 O   0  0  0  0  0  0  0  0  0  0  0  0
  -30.4920  -22.1420   17.6750 N   0  0  0  0  0  0  0  0  0  0  0  0
  -31.4620  -22.4160   17.8190 H   0  0  0  0  0  0  0  0  0  0  0  0
  -29.7230  -23.3150   17.1930 C   0  0  0  0  0  2  0  0  0  0  0  0
  -30.0770  -24.6770   17.9020 C   0  0  0  0  0  2  0  0  0  0  0  0
  -29.5790  -25.8770   17.2680 O   0  0  0  0  0  0  0  0  0  0  0  0
  -26.1470  -28.7590   22.8820 C   0  0  0  0  0  0  0  0  0  0  0  0
  -28.4390  -26.4650   17.7910 C   0  0  0  0  0  0  0  0  0  0  0  0
  -24.7910  -28.3750   20.8490 C   0  0  0  0  0  3  0  0  0  0  0  0
  -26.0970  -27.7590   18.7420 C   0  0  0  0  0  0  0  0  0  0  0  0
  -27.3100  -28.7890   20.6710 C   0  0  0  0  0  2  0  0  0  0  0  0
  -27.3090  -27.9190   19.4260 C   0  0  0  0  0  0  0  0  0  0  0  0
  -28.4840  -27.2840   18.9490 C   0  0  0  0  0  3  0  0  0  0  0  0
  -27.2100  -26.3190   17.1170 C   0  0  0  0  0  3  0  0  0  0  0  0
  -26.0430  -26.9590   17.5850 C   0  0  0  0  0  3  0  0  0  0  0  0
  -24.8880  -28.4770   19.3030 C   0  0  0  0  0  2  0  0  0  0  0  0
  -26.1050  -28.6260   21.5250 N   0  0  0  0  0  0  0  0  0  0  0  0
  -25.1130  -28.7180   23.5620 O   0  0  0  0  0  0  0  0  0  0  0  0
  -24.1650  -27.0080   21.2140 C   0  0  0  0  0  0  0  0  0  0  0  0
  -22.8390  -26.8870   21.0380 N   0  0  0  0  0  0  0  0  0  0  0  0
  -24.8700  -26.0780   21.6150 O   0  0  0  0  0  0  0  0  0  0  0  0
  -22.3280  -27.6980   20.7150 H   0  0  0  0  0  0  0  0  0  0  0  0
  -19.4980  -25.5160   20.8720 C   0  0  0  0  0  0  0  0  0  0  0  0
  -22.0480  -25.6790   21.2710 C   0  0  0  0  0  3  0  0  0  0  0  0
  -22.1910  -24.6820   20.0970 C   0  0  0  0  0  2  0  0  0  0  0  0
  -21.1000  -24.8430   19.0320 C   0  0  0  0  0  2  0  0  0  0  0  0
  -19.7140  -24.6400   19.6500 C   0  0  0  0  0  2  0  0  0  0  0  0
  -20.5940  -26.0160   21.6240 C   0  0  0  0  0  0  0  0  0  0  0  0
  -20.3390  -26.8540   22.7300 C   0  0  0  0  0  3  0  0  0  0  0  0
  -19.0220  -27.1900   23.0920 C   0  0  0  0  0  3  0  0  0  0  0  0
  -17.9400  -26.6780   22.3550 C   0  0  0  0  0  3  0  0  0  0  0  0
  -18.1780  -25.8410   21.2510 C   0  0  0  0  0  3  0  0  0  0  0  0
  -27.4900  -28.9940   23.6420 C   0  0  0  0  0  3  0  0  0  0  0  0
  -27.2200  -29.9240   24.7460 N   0  0  0  0  0  0  0  0  0  0  0  0
  -27.4910  -31.2360   24.7210 C   0  0  0  0  0  0  0  0  0  0  0  0
  -28.0700  -31.7810   23.7770 O   0  0  0  0  0  0  0  0  0  0  0  0
  -26.7030  -29.5560   25.5320 H   0  0  0  0  0  0  0  0  0  0  0  0
  -25.7420  -32.8070   25.6110 C   0  0  0  0  0  1  0  0  0  0  0  0
  -27.0530  -32.0760   25.9380 C   0  0  0  0  0  3  0  0  0  0  0  0
  -29.2580  -32.4280   26.9590 C   0  0  0  0  0  1  0  0  0  0  0  0
  -28.0730  -33.0530   26.3750 N   0  0  0  0  0  0  0  0  0  0  0  0
  -27.6860  -33.6980   27.0590 H   0  0  0  0  0  0  0  0  0  0  0  0
  -28.1410  -27.6620   24.1820 C   0  0  1  0  0  0  0  0  0  0  0  0
  -27.1740  -26.7870   25.0120 C   0  0  0  0  0  1  0  0  0  0  0  0
  -28.6690  -26.8010   23.0110 C   0  0  0  0  0  1  0  0  0  0  0  0
  -29.3640  -27.9990   25.0680 C   0  0  0  0  0  1  0  0  0  0  0  0
  -29.1840  -17.6280   19.7390 C   0  0  0  0  0  3  0  0  0  0  0  0
  -29.9260  -16.7850   20.8410 C   0  0  0  0  0  3  0  0  0  0  0  0
  -30.4490  -14.2760   20.7350 C   0  0  0  0  0  0  0  0  0  0  0  0
  -30.4130  -11.8860   20.1030 C   0  0  0  0  0  2  0  0  0  0  0  0
  -29.5680  -11.7160   18.8230 C   0  0  0  0  0  2  0  0  0  0  0  0
  -28.0740  -11.5500   19.1710 C   0  0  0  0  0  2  0  0  0  0  0  0
  -27.5680  -12.6110   20.1870 C   0  0  0  0  0  3  0  0  0  0  0  0
  -28.5400  -12.7510   21.3810 C   0  0  0  0  0  2  0  0  0  0  0  0
  -29.8750  -13.0410   20.8370 N   0  0  0  0  0  0  0  0  0  0  0  0
  -31.6200  -14.4360   20.3860 O   0  0  0  0  0  0  0  0  0  0  0  0
  -29.6110  -15.3300   20.8750 N   0  0  0  0  0  0  0  0  0  0  0  0
  -28.6570  -15.0900   21.0950 H   0  0  0  0  0  0  0  0  0  0  0  0
  -25.1410  -13.2090   20.7930 C   0  0  0  0  0  0  0  0  0  0  0  0
  -24.0650  -12.4340   21.1360 C   0  0  0  0  0  0  0  0  0  0  0  0
  -24.5390  -11.0860   21.1530 C   0  0  0  0  0  0  0  0  0  0  0  0
  -26.2010  -12.3310   20.6210 N   0  0  0  0  0  0  0  0  0  0  0  0
  -25.8400  -11.0510   20.8980 N   0  0  0  0  0  0  0  0  0  0  0  0
  -23.8160   -9.8210   21.3400 C   0  0  0  0  0  0  0  0  0  0  0  0
  -24.2610   -8.8470   22.2590 C   0  0  0  0  0  3  0  0  0  0  0  0
  -23.5380   -7.6490   22.4360 C   0  0  0  0  0  3  0  0  0  0  0  0
  -22.3570   -7.4150   21.6940 C   0  0  0  0  0  0  0  0  0  0  0  0
  -21.9300   -8.3790   20.7630 C   0  0  0  0  0  3  0  0  0  0  0  0
  -22.6540   -9.5700   20.5830 C   0  0  0  0  0  3  0  0  0  0  0  0
  -21.6030   -6.2690   21.7820 O   0  0  0  0  0  0  0  0  0  0  0  0
  -21.6280   -5.4760   22.9020 C   0  0  0  0  0  0  0  0  0  0  0  0
  -21.2550   -5.9680   24.1720 C   0  0  0  0  0  3  0  0  0  0  0  0
  -21.2250   -5.0990   25.2830 C   0  0  0  0  0  3  0  0  0  0  0  0
  -21.5620   -3.7410   25.1230 C   0  0  0  0  0  0  0  0  0  0  0  0
  -21.9300   -3.2490   23.8580 C   0  0  0  0  0  3  0  0  0  0  0  0
  -21.9590   -4.1150   22.7500 C   0  0  0  0  0  0  0  0  0  0  0  0
  -22.2920   -3.6310   21.5280 F   0  0  0  0  0  0  0  0  0  0  0  0
  -21.5270   -2.9050   26.1860 F   0  0  0  0  0  0  0  0  0  0  0  0
  -22.6530  -12.9050   21.3400 C   0  0  0  0  0  0  0  0  0  0  0  0
  -21.8940  -12.2180   22.1880 N   0  0  0  0  0  0  0  0  0  0  0  0
  -22.2290  -13.9150   20.7810 O   0  0  0  0  0  0  0  0  0  0  0  0
  -22.2490  -11.4030   22.6660 H   0  0  0  0  0  0  0  0  0  0  0  0
  -20.9450  -12.5150   22.3660 H   0  0  0  0  0  0  0  0  0  0  0  0
  -25.3010  -14.5780   20.5970 N   0  0  0  0  0  0  0  0  0  0  0  0
  -24.5230  -15.2230   20.6810 H   0  0  0  0  0  0  0  0  0  0  0  0
  -26.1620  -15.0260   20.3130 H   0  0  0  0  0  0  0  0  0  0  0  0
  1  4  1  0
  2  6  2  0
  2  5  1  0
  3  7  1  0
  3  4  2  0
  4  8  1  0
  5  1  2  0
  6  3  1  0
  7  9  1  0
  9  8  2  0
 10  7  2  0
 11 12  1  0
 11  6  1  0
 13 11  1  0
 13 14  1  0
 15 17  1  0
 15 14  1  0
 16 27  2  0
 17 22  1  0
 18 28  1  0
 18 26  1  0
 19 25  1  0
 19 21  1  0
 20 26  1  0
 21 20  1  0
 22 21  2  0
 23 24  1  0
 23 17  2  0
 24 19  2  0
 25 18  1  0
 26 16  1  0
 28 30  2  0
 29 28  1  0
 31 29  1  0
 32 41  2  0
 32 37  1  0
 33 29  1  0
 33 37  1  0
 34 33  1  0
 35 36  1  0
 35 34  1  0
 36 32  1  0
 37 38  2  0
 38 39  1  0
 40 39  2  0
 41 40  1  0
 42 16  1  0
 42 52  1  0
 42 43  1  0
 43 46  1  0
 44 43  1  0
 44 48  1  0
 45 44  2  0
 48 47  1  0
 48 50  1  0
 50 49  1  0
 50 51  1  0
 52 53  1  1
 52 55  1  0
 54 52  1  0
 56  5  1  0
 56 57  2  0
 57 66  1  0
 58 64  1  0
 58 66  1  0
 59 64  1  0
 60 61  1  0
 60 59  1  0
 62 61  1  0
 62 71  1  0
 62 63  1  0
 64 63  1  0
 65 58  2  0
 66 67  1  0
 68 69  2  0
 69 70  1  0
 69 88  1  0
 70 73  1  0
 71 68  1  0
 71 72  1  0
 72 70  2  0
 73 74  1  0
 74 75  2  0
 76 79  1  0
 76 75  1  0
 77 76  2  0
 78 77  1  0
 78 73  2  0
 79 80  1  0
 80 81  1  0
 81 82  2  0
 83 82  1  0
 83 87  1  0
 84 83  2  0
 85 80  2  0
 85 84  1  0
 86 85  1  0
 88 89  1  0
 89 92  1  0
 89 91  1  0
 90 88  2  0
 93 94  1  0
 93 68  1  0
 95 93  1  0
M  ISO  4  14 101  15 101  58 100  66 100
M  END
>  <TORSDO>  (80) 
F 21

>  <SCORE>  (80) 
-9.478

>  <name>  (80) 
79

>  <ligand_id>  (80) 
79

>  <original_smiles>  (80) 
[H]c1c([H])c([H])c2c(c1[H])C([H])([H])C([H])([H])C([H])([H])C2([H])N([H])C(=O)C1([H])N(C(=O)C([H])(N([H])C(=O)C([H])(N([H])C([H])([H])[H])C([H])([H])[H])C(C([H])([H])[H])(C([H])([H])[H])C([H])([H])[H])C([H])([H])c2c([H])c(OC([H])([H])C([H])([H])N([H])c3c([H])c(C([H])([H])C([H])([H])N([H])C(=O)N4C([H])([H])C([H])([H])C([H])([H])C([H])(n5nc(-c6c([H])c([H])c(Oc7c([H])c([H])c(F)c([H])c7F)c([H])c6[H])c(C(=O)N([H])[H])c5N([H])[H])C4([H])[H])c([H])c4c3C(=O)C([H])([H])C4([H])[H])c([H])c([H])c2C1([H])[H]

>  <smiles>  (80) 
[H]c1c([H])c([H])c2c(c1[H])C([H])([H])C([H])([H])C([H])([H])C2([H])N([H])C(=O)C1([H])N(C(=O)C([H])(N([H])C(=O)C([H])(N([H])C([H])([H])[H])C([H])([H])[H])C(C([H])([H])[H])(C([H])([H])[H])C([H])([H])[H])C([H])([H])c2c([H])c(OC([H])([H])C([H])([H])N([H])c3c([H])c(C([H])([H])C([H])([H])N([H])C(=O)N4C([H])([H])C([H])([H])C([H])([H])C([H])(n5nc(-c6c([H])c([H])c(Oc7c([H])c([H])c(F)c([H])c7F)c([H])c6[H])c(C(=O)N([H])[H])c5N([H])[H])C4([H])[H])c([H])c4c3C(=O)C([H])([H])C4([H])[H])c([H])c([H])c2C1([H])[H]

$$$$
80:0:0
     RDKit          3D

 97105  0  0  1  0  0  0  0  0999 V2000
  -30.3280  -26.5290   23.8440 C   0  0  0  0  0  3  0  0  0  0  0  0
  -28.9780  -26.1590   23.7600 C   0  0  0  0  0  3  0  0  0  0  0  0
  -31.0490  -26.8810   22.6860 C   0  0  0  0  0  0  0  0  0  0  0  0
  -28.3180  -26.1570   22.5170 C   0  0  0  0  0  0  0  0  0  0  0  0
  -30.3750  -26.9590   21.4380 C   0  0  0  0  0  0  0  0  0  0  0  0
  -29.0030  -26.6080   21.3540 C   0  0  0  0  0  0  0  0  0  0  0  0
  -26.8800  -25.6640   22.4730 C   0  0  0  0  0  1  0  0  0  0  0  0
  -31.1180  -27.3930   20.1800 C   0  0  0  0  0  1  0  0  0  0  0  0
  -32.5620  -27.0530   22.8220 C   0  0  0  0  0  2  0  0  0  0  0  0
  -33.2540  -25.7540   23.3000 C   0  0  0  0  0  2  0  0  0  0  0  0
  -32.8500  -24.4990   22.4980 C   0  0  0  0  0  2  0  0  0  0  0  0
  -33.2590  -23.1700   23.1540 C   0  0  0  0  0  2  0  0  0  0  0  0
  -32.4090  -22.0190   22.5960 C   0  0  0  0  0  2  0  0  0  0  0  0
  -32.6770  -20.6520   23.2370 C   0  0  0  0  0  2  0  0  0  0  0  0
  -31.6630  -19.6180   22.7250 C   0  0  0  0  0  2  0  0  0  0  0  0
  -31.9940  -18.1740   23.1240 C   0  0  0  0  0  2  0  0  0  0  0  0
  -31.0380  -17.1650   22.4700 C   0  0  0  0  0  2  0  0  0  0  0  0
  -31.4860  -15.7140   22.6920 C   0  0  0  0  0  2  0  0  0  0  0  0
  -30.8230  -14.2820   20.7610 C   0  0  0  0  0  0  0  0  0  0  0  0
  -30.4100  -12.2890   19.3710 C   0  0  0  0  0  2  0  0  0  0  0  0
  -29.4720  -12.5420   18.1810 C   0  0  0  0  0  2  0  0  0  0  0  0
  -28.0020  -12.3860   18.6060 C   0  0  0  0  0  2  0  0  0  0  0  0
  -27.6660  -13.2040   19.8780 C   0  0  0  0  0  3  0  0  0  0  0  0
  -28.7020  -12.9470   20.9940 C   0  0  0  0  0  2  0  0  0  0  0  0
  -30.0550  -13.2060   20.4630 N   0  0  0  0  0  0  0  0  0  0  0  0
  -31.7530  -14.6790   20.0500 O   0  0  0  0  0  0  0  0  0  0  0  0
  -30.6230  -14.7670   21.9930 N   0  0  0  0  0  0  0  0  0  0  0  0
  -29.8790  -14.3390   22.5260 H   0  0  0  0  0  0  0  0  0  0  0  0
  -25.2590  -13.8160   20.5680 C   0  0  0  0  0  0  0  0  0  0  0  0
  -24.1850  -13.0440   20.9160 C   0  0  0  0  0  0  0  0  0  0  0  0
  -24.6390  -11.6900   20.8720 C   0  0  0  0  0  0  0  0  0  0  0  0
  -26.3040  -12.9330   20.3370 N   0  0  0  0  0  0  0  0  0  0  0  0
  -25.9320  -11.6490   20.5750 N   0  0  0  0  0  0  0  0  0  0  0  0
  -23.9050  -10.4290   21.0410 C   0  0  0  0  0  0  0  0  0  0  0  0
  -24.3610   -9.4210   21.9180 C   0  0  0  0  0  3  0  0  0  0  0  0
  -23.6290   -8.2240   22.0750 C   0  0  0  0  0  3  0  0  0  0  0  0
  -22.4270   -8.0280   21.3540 C   0  0  0  0  0  0  0  0  0  0  0  0
  -21.9910   -9.0250   20.4640 C   0  0  0  0  0  3  0  0  0  0  0  0
  -22.7230  -10.2130   20.3050 C   0  0  0  0  0  3  0  0  0  0  0  0
  -21.6640   -6.8880   21.4240 O   0  0  0  0  0  0  0  0  0  0  0  0
  -21.6850   -6.0730   22.5280 C   0  0  0  0  0  0  0  0  0  0  0  0
  -21.4010   -6.5640   23.8210 C   0  0  0  0  0  3  0  0  0  0  0  0
  -21.3660   -5.6790   24.9170 C   0  0  0  0  0  3  0  0  0  0  0  0
  -21.6050   -4.3060   24.7230 C   0  0  0  0  0  0  0  0  0  0  0  0
  -21.8820   -3.8140   23.4350 C   0  0  0  0  0  3  0  0  0  0  0  0
  -21.9190   -4.6960   22.3400 C   0  0  0  0  0  0  0  0  0  0  0  0
  -22.1660   -4.2150   21.0980 F   0  0  0  0  0  0  0  0  0  0  0  0
  -21.5630   -3.4540   25.7740 F   0  0  0  0  0  0  0  0  0  0  0  0
  -22.7870  -13.5240   21.1840 C   0  0  0  0  0  0  0  0  0  0  0  0
  -22.0510  -12.8220   22.0400 N   0  0  0  0  0  0  0  0  0  0  0  0
  -22.3550  -14.5550   20.6700 O   0  0  0  0  0  0  0  0  0  0  0  0
  -22.4130  -11.9870   22.4770 H   0  0  0  0  0  0  0  0  0  0  0  0
  -21.1130  -13.1250   22.2620 H   0  0  0  0  0  0  0  0  0  0  0  0
  -25.4340  -15.1880   20.4100 N   0  0  0  0  0  0  0  0  0  0  0  0
  -24.6750  -15.8510   20.5240 H   0  0  0  0  0  0  0  0  0  0  0  0
  -26.3000  -15.6250   20.1190 H   0  0  0  0  0  0  0  0  0  0  0  0
  -28.3650  -26.7110   20.1370 O   0  0  0  0  0  0  0  0  0  0  0  0
  -24.6080  -31.8710   23.2130 C   0  0  0  0  0  0  0  0  0  0  0  0
  -27.2370  -27.4900   20.0880 C   0  0  0  0  0  0  0  0  0  0  0  0
  -23.3930  -30.4940   21.5520 C   0  0  0  0  0  3  0  0  0  0  0  0
  -24.8420  -28.9700   20.1090 C   0  0  0  0  0  0  0  0  0  0  0  0
  -25.9130  -30.8580   21.3550 C   0  0  0  0  0  2  0  0  0  0  0  0
  -25.9950  -29.4980   20.7000 C   0  0  0  0  0  0  0  0  0  0  0  0
  -27.1980  -28.7680   20.6880 C   0  0  0  0  0  3  0  0  0  0  0  0
  -26.0770  -26.9700   19.4820 C   0  0  0  0  0  3  0  0  0  0  0  0
  -24.8750  -27.7030   19.4970 C   0  0  0  0  0  3  0  0  0  0  0  0
  -23.5980  -29.8250   20.1650 C   0  0  0  0  0  2  0  0  0  0  0  0
  -24.6560  -31.0870   22.0990 N   0  0  0  0  0  0  0  0  0  0  0  0
  -23.5290  -32.1410   23.7560 O   0  0  0  0  0  0  0  0  0  0  0  0
  -22.7380  -29.4660   22.5020 C   0  0  0  0  0  0  0  0  0  0  0  0
  -21.4110  -29.3030   22.3760 N   0  0  0  0  0  0  0  0  0  0  0  0
  -23.4180  -28.8190   23.3030 O   0  0  0  0  0  0  0  0  0  0  0  0
  -20.9240  -29.8810   21.7050 H   0  0  0  0  0  0  0  0  0  0  0  0
  -18.0260  -28.1390   22.8520 C   0  0  0  0  0  0  0  0  0  0  0  0
  -20.5850  -28.3660   23.1350 C   0  0  0  0  0  3  0  0  0  0  0  0
  -20.6730  -26.9400   22.5440 C   0  0  0  0  0  2  0  0  0  0  0  0
  -19.5700  -26.6390   21.5230 C   0  0  0  0  0  2  0  0  0  0  0  0
  -18.1890  -26.7940   22.1640 C   0  0  0  0  0  2  0  0  0  0  0  0
  -19.1510  -28.8840   23.2920 C   0  0  0  0  0  0  0  0  0  0  0  0
  -18.9440  -30.1450   23.8920 C   0  0  0  0  0  3  0  0  0  0  0  0
  -17.6450  -30.6590   24.0600 C   0  0  0  0  0  3  0  0  0  0  0  0
  -16.5340  -29.9100   23.6350 C   0  0  0  0  0  3  0  0  0  0  0  0
  -16.7250  -28.6520   23.0370 C   0  0  0  0  0  3  0  0  0  0  0  0
  -25.9000  -32.4840   23.8410 C   0  0  0  0  0  3  0  0  0  0  0  0
  -26.4440  -31.6610   25.0740 C   0  0  1  0  0  0  0  0  0  0  0  0
  -25.3730  -31.3700   26.1520 C   0  0  0  0  0  1  0  0  0  0  0  0
  -27.0270  -30.3040   24.6100 C   0  0  0  0  0  1  0  0  0  0  0  0
  -27.6040  -32.4340   25.7480 C   0  0  0  0  0  1  0  0  0  0  0  0
  -25.5840  -33.8640   24.2330 N   0  0  0  0  0  0  0  0  0  0  0  0
  -25.9030  -34.9500   23.5140 C   0  0  0  0  0  0  0  0  0  0  0  0
  -26.5630  -34.8950   22.4720 O   0  0  0  0  0  0  0  0  0  0  0  0
  -24.9860  -33.9780   25.0380 H   0  0  0  0  0  0  0  0  0  0  0  0
  -24.1480  -36.7340   23.2640 C   0  0  0  0  0  1  0  0  0  0  0  0
  -25.4110  -36.3130   24.0340 C   0  0  0  0  0  3  0  0  0  0  0  0
  -27.5580  -37.1830   24.8470 C   0  0  0  0  0  1  0  0  0  0  0  0
  -26.4290  -37.3820   23.9400 N   0  0  0  0  0  0  0  0  0  0  0  0
  -26.0190  -38.2890   24.1380 H   0  0  0  0  0  0  0  0  0  0  0  0
  2  1  1  0
  3  9  1  0
  3  1  2  0
  4  2  2  0
  5  3  1  0
  6  5  2  0
  6  4  1  0
  7  4  1  0
  8  5  1  0
  9 10  1  0
 11 12  1  0
 11 10  1  0
 13 12  1  0
 13 14  1  0
 15 16  1  0
 15 14  1  0
 17 18  1  0
 17 16  1  0
 19 27  1  0
 20 25  1  0
 21 22  1  0
 21 20  1  0
 23 22  1  0
 23 32  1  0
 23 24  1  0
 25 19  1  0
 25 24  1  0
 26 19  2  0
 27 28  1  0
 27 18  1  0
 29 30  2  0
 30 49  1  0
 31 30  1  0
 31 34  1  0
 32 29  1  0
 32 33  1  0
 33 31  2  0
 34 35  1  0
 35 36  2  0
 37 40  1  0
 37 36  1  0
 38 37  2  0
 39 38  1  0
 39 34  2  0
 40 41  1  0
 41 42  1  0
 42 43  2  0
 44 43  1  0
 44 48  1  0
 45 44  2  0
 46 41  2  0
 46 45  1  0
 47 46  1  0
 49 50  1  0
 50 53  1  0
 50 52  1  0
 51 49  2  0
 54 55  1  0
 54 29  1  0
 56 54  1  0
 57  6  1  0
 58 69  2  0
 59 57  1  0
 59 64  1  0
 60 68  1  0
 60 70  1  0
 61 67  1  0
 61 63  1  0
 62 68  1  0
 63 62  1  0
 64 63  2  0
 65 66  1  0
 65 59  2  0
 66 61  2  0
 67 60  1  0
 68 58  1  0
 70 72  2  0
 71 70  1  0
 73 71  1  0
 74 83  2  0
 74 79  1  0
 75 71  1  0
 75 79  1  0
 76 75  1  0
 77 78  1  0
 77 76  1  0
 78 74  1  0
 79 80  2  0
 80 81  1  0
 82 81  2  0
 83 82  1  0
 84 58  1  0
 84 89  1  0
 84 85  1  0
 85 88  1  1
 85 86  1  0
 87 85  1  0
 89 92  1  0
 90 94  1  0
 90 89  1  0
 91 90  2  0
 94 93  1  0
 96 94  1  0
 96 97  1  0
 96 95  1  0
M  ISO  4   6 101  19 100  27 100  57 101
M  END
>  <TORSDO>  (81) 
F 26

>  <SCORE>  (81) 
6.300

>  <name>  (81) 
80

>  <ligand_id>  (81) 
80

>  <original_smiles>  (81) 
[H]c1c([H])c([H])c2c(c1[H])C([H])([H])C([H])([H])C([H])([H])C2([H])N([H])C(=O)C1([H])N(C(=O)C([H])(N([H])C(=O)C([H])(N([H])C([H])([H])[H])C([H])([H])[H])C(C([H])([H])[H])(C([H])([H])[H])C([H])([H])[H])C([H])([H])c2c([H])c(Oc3c(C([H])([H])[H])c([H])c([H])c(C([H])([H])C([H])([H])C([H])([H])C([H])([H])C([H])([H])C([H])([H])C([H])([H])C([H])([H])C([H])([H])C([H])([H])N([H])C(=O)N4C([H])([H])C([H])([H])C([H])([H])C([H])(n5nc(-c6c([H])c([H])c(Oc7c([H])c([H])c(F)c([H])c7F)c([H])c6[H])c(C(=O)N([H])[H])c5N([H])[H])C4([H])[H])c3C([H])([H])[H])c([H])c([H])c2C1([H])[H]

>  <smiles>  (81) 
[H]c1c([H])c([H])c2c(c1[H])C([H])([H])C([H])([H])C([H])([H])C2([H])N([H])C(=O)C1([H])N(C(=O)C([H])(N([H])C(=O)C([H])(N([H])C([H])([H])[H])C([H])([H])[H])C(C([H])([H])[H])(C([H])([H])[H])C([H])([H])[H])C([H])([H])c2c([H])c(Oc3c(C([H])([H])[H])c([H])c([H])c(C([H])([H])C([H])([H])C([H])([H])C([H])([H])C([H])([H])C([H])([H])C([H])([H])C([H])([H])C([H])([H])C([H])([H])N([H])C(=O)N4C([H])([H])C([H])([H])C([H])([H])C([H])(n5nc(-c6c([H])c([H])c(Oc7c([H])c([H])c(F)c([H])c7F)c([H])c6[H])c(C(=O)N([H])[H])c5N([H])[H])C4([H])[H])c3C([H])([H])[H])c([H])c([H])c2C1([H])[H]

$$$$
81:0:0
     RDKit          3D

 97107  0  0  1  0  0  0  0  0999 V2000
  -28.3340  -24.7740   22.9150 C   0  0  0  0  0  3  0  0  0  0  0  0
  -29.0820  -22.7970   21.9960 C   0  0  0  0  0  3  0  0  0  0  0  0
  -29.1370  -23.4900   19.7390 C   0  0  0  0  0  3  0  0  0  0  0  0
  -29.0460  -23.6480   23.1420 C   0  0  0  0  0  0  0  0  0  0  0  0
  -29.8290  -23.3110   20.9890 C   0  0  0  0  0  3  0  0  0  0  0  0
  -28.3120  -24.6980   19.8540 C   0  0  0  0  0  3  0  0  0  0  0  0
  -27.8400  -21.9180   21.7660 C   0  0  0  0  0  2  0  0  0  0  0  0
  -27.4760  -21.6950   20.2810 C   0  0  0  0  0  2  0  0  0  0  0  0
  -28.7050  -21.9100   19.3770 C   0  0  1  0  0  0  0  0  0  0  0  0
  -29.8170  -23.3260   24.4110 C   0  0  0  0  0  1  0  0  0  0  0  0
  -31.1130  -24.0940   21.2530 C   0  0  0  0  0  1  0  0  0  0  0  0
  -28.2390  -21.9170   17.9150 C   0  0  0  0  0  1  0  0  0  0  0  0
  -27.3590  -25.0980   21.3960 S   0  0  0  0  0  0  0  0  0  0  0  0
  -30.2230  -17.7520   19.6440 C   0  0  0  0  0  0  0  0  0  0  0  0
  -30.2220  -16.3590   20.0140 C   0  0  0  0  0  3  0  0  0  0  0  0
  -31.1630  -18.5100   18.7140 C   0  0  0  0  0  2  0  0  0  0  0  0
  -30.5890  -19.9670   18.4340 C   0  0  0  0  0  2  0  0  0  0  0  0
  -29.2130  -18.9470   20.0540 C   0  0  0  0  0  3  0  0  0  0  0  0
  -29.7060  -20.4850   19.6130 C   0  0  0  0  0  3  0  0  0  0  0  0
  -28.8430  -18.8310   21.5420 C   0  0  0  0  0  1  0  0  0  0  0  0
  -31.1040  -15.1020   19.6890 C   0  0  0  0  0  0  0  0  0  0  0  0
  -30.9820  -12.7110   18.8180 C   0  0  0  0  0  2  0  0  0  0  0  0
  -29.9520  -12.6420   17.6640 C   0  0  0  0  0  2  0  0  0  0  0  0
  -28.5280  -12.4290   18.2070 C   0  0  0  0  0  2  0  0  0  0  0  0
  -28.2140  -13.3610   19.4040 C   0  0  0  0  0  3  0  0  0  0  0  0
  -29.3530  -13.3670   20.4420 C   0  0  0  0  0  2  0  0  0  0  0  0
  -30.5660  -13.8100   19.7430 N   0  0  0  0  0  0  0  0  0  0  0  0
  -32.2700  -15.1620   19.2710 O   0  0  0  0  0  0  0  0  0  0  0  0
  -25.9150  -13.9640   20.3400 C   0  0  0  0  0  0  0  0  0  0  0  0
  -24.8720  -13.2020   20.7800 C   0  0  0  0  0  0  0  0  0  0  0  0
  -25.3070  -11.8430   20.6830 C   0  0  0  0  0  0  0  0  0  0  0  0
  -26.9180  -13.0740   19.9980 N   0  0  0  0  0  0  0  0  0  0  0  0
  -26.5680  -11.7890   20.2710 N   0  0  0  0  0  0  0  0  0  0  0  0
  -24.5740  -10.5910   20.9060 C   0  0  0  0  0  0  0  0  0  0  0  0
  -24.9010   -9.7230   21.9730 C   0  0  0  0  0  3  0  0  0  0  0  0
  -24.1660   -8.5380   22.1840 C   0  0  0  0  0  3  0  0  0  0  0  0
  -23.0880   -8.2100   21.3250 C   0  0  0  0  0  0  0  0  0  0  0  0
  -22.7750   -9.0680   20.2550 C   0  0  0  0  0  3  0  0  0  0  0  0
  -23.5130  -10.2460   20.0450 C   0  0  0  0  0  3  0  0  0  0  0  0
  -22.3350   -7.0670   21.4350 O   0  0  0  0  0  0  0  0  0  0  0  0
  -21.9160   -6.5970   22.6530 C   0  0  0  0  0  0  0  0  0  0  0  0
  -21.1840   -7.4050   23.5530 C   0  0  0  0  0  3  0  0  0  0  0  0
  -20.7140   -6.8600   24.7660 C   0  0  0  0  0  3  0  0  0  0  0  0
  -20.9620   -5.5100   25.0740 C   0  0  0  0  0  0  0  0  0  0  0  0
  -21.6800   -4.7020   24.1760 C   0  0  0  0  0  3  0  0  0  0  0  0
  -22.1530   -5.2440   22.9670 C   0  0  0  0  0  0  0  0  0  0  0  0
  -22.8280   -4.4560   22.0970 F   0  0  0  0  0  0  0  0  0  0  0  0
  -20.5030   -4.9850   26.2350 F   0  0  0  0  0  0  0  0  0  0  0  0
  -23.5130  -13.6980   21.1770 C   0  0  0  0  0  0  0  0  0  0  0  0
  -22.8790  -13.0430   22.1420 N   0  0  0  0  0  0  0  0  0  0  0  0
  -23.0240  -14.7030   20.6620 O   0  0  0  0  0  0  0  0  0  0  0  0
  -23.2870  -12.2280   22.5740 H   0  0  0  0  0  0  0  0  0  0  0  0
  -21.9740  -13.3640   22.4560 H   0  0  0  0  0  0  0  0  0  0  0  0
  -26.0890  -15.3390   20.1790 N   0  0  0  0  0  0  0  0  0  0  0  0
  -25.3400  -15.9940   20.3720 H   0  0  0  0  0  0  0  0  0  0  0  0
  -26.9070  -15.7780   19.7760 H   0  0  0  0  0  0  0  0  0  0  0  0
  -28.4860  -26.0190   19.1790 O   0  0  0  0  0  0  0  0  0  0  0  0
  -25.3020  -31.3750   23.1830 C   0  0  0  0  0  0  0  0  0  0  0  0
  -27.5370  -27.1230   19.3110 C   0  0  0  0  0  0  0  0  0  0  0  0
  -23.9790  -30.3390   21.3780 C   0  0  0  0  0  3  0  0  0  0  0  0
  -25.3070  -28.9860   19.6370 C   0  0  0  0  0  0  0  0  0  0  0  0
  -26.5320  -30.5340   21.1410 C   0  0  0  0  0  2  0  0  0  0  0  0
  -26.5270  -29.2650   20.2660 C   0  0  0  0  0  0  0  0  0  0  0  0
  -27.6460  -28.3560   20.0840 C   0  0  0  0  0  3  0  0  0  0  0  0
  -26.3060  -26.9820   18.6320 C   0  0  0  0  0  3  0  0  0  0  0  0
  -25.2180  -27.8660   18.7960 C   0  0  0  0  0  3  0  0  0  0  0  0
  -24.1130  -29.8990   19.8950 C   0  0  0  0  0  2  0  0  0  0  0  0
  -25.2950  -30.7630   21.9590 N   0  0  0  0  0  0  0  0  0  0  0  0
  -24.2510  -31.5990   23.8030 O   0  0  0  0  0  0  0  0  0  0  0  0
  -23.2920  -29.2070   22.1830 C   0  0  0  0  0  0  0  0  0  0  0  0
  -21.9570  -29.0910   22.0630 N   0  0  0  0  0  0  0  0  0  0  0  0
  -23.9650  -28.4370   22.8750 O   0  0  0  0  0  0  0  0  0  0  0  0
  -21.4690  -29.7670   21.4890 H   0  0  0  0  0  0  0  0  0  0  0  0
  -18.5600  -27.8770   22.4090 C   0  0  0  0  0  0  0  0  0  0  0  0
  -21.1280  -28.0580   22.6940 C   0  0  0  0  0  3  0  0  0  0  0  0
  -21.2000  -26.7270   21.9060 C   0  0  0  0  0  2  0  0  0  0  0  0
  -20.0850  -26.5810   20.8630 C   0  0  0  0  0  2  0  0  0  0  0  0
  -18.7100  -26.6480   21.5310 C   0  0  0  0  0  2  0  0  0  0  0  0
  -19.6950  -28.5490   22.9440 C   0  0  0  0  0  0  0  0  0  0  0  0
  -19.4980  -29.7070   23.7280 C   0  0  0  0  0  3  0  0  0  0  0  0
  -18.2020  -30.1940   23.9840 C   0  0  0  0  0  3  0  0  0  0  0  0
  -17.0840  -29.5170   23.4670 C   0  0  0  0  0  3  0  0  0  0  0  0
  -17.2630  -28.3600   22.6870 C   0  0  0  0  0  3  0  0  0  0  0  0
  -26.6280  -31.8390   23.8570 C   0  0  0  0  0  3  0  0  0  0  0  0
  -26.4000  -33.1790   24.4220 N   0  0  0  0  0  0  0  0  0  0  0  0
  -26.7860  -34.3270   23.8490 C   0  0  0  0  0  0  0  0  0  0  0  0
  -27.4380  -34.3620   22.8000 O   0  0  0  0  0  0  0  0  0  0  0  0
  -25.8210  -33.2260   25.2470 H   0  0  0  0  0  0  0  0  0  0  0  0
  -25.1850  -36.2700   23.8180 C   0  0  0  0  0  1  0  0  0  0  0  0
  -26.3890  -35.6440   24.5420 C   0  0  0  0  0  3  0  0  0  0  0  0
  -28.5690  -36.2360   25.5080 C   0  0  0  0  0  1  0  0  0  0  0  0
  -27.4890  -36.6310   24.6090 N   0  0  0  0  0  0  0  0  0  0  0  0
  -27.1410  -37.5370   24.9100 H   0  0  0  0  0  0  0  0  0  0  0  0
  -27.1320  -30.8500   24.9800 C   0  0  1  0  0  0  0  0  0  0  0  0
  -26.0440  -30.4830   26.0160 C   0  0  0  0  0  1  0  0  0  0  0  0
  -27.6530  -29.5330   24.3590 C   0  0  0  0  0  1  0  0  0  0  0  0
  -28.3250  -31.4810   25.7370 C   0  0  0  0  0  1  0  0  0  0  0  0
  1  4  2  0
  2  7  1  0
  2  4  1  0
  3  6  1  0
  3  5  1  0
  4 10  1  0
  5 11  1  0
  5  2  1  0
  6 13  1  0
  8  7  1  0
  9 19  1  0
  9  3  1  0
  9  8  1  0
  9 12  1  6
 13  1  1  0
 14 15  2  0
 14 18  1  0
 16 14  1  0
 17 16  1  0
 17 19  1  0
 18 20  1  0
 19 18  1  0
 21 27  1  0
 21 15  1  0
 22 27  1  0
 23 24  1  0
 23 22  1  0
 24 25  1  0
 25 32  1  0
 25 26  1  0
 27 26  1  0
 28 21  2  0
 29 30  2  0
 30 49  1  0
 31 30  1  0
 31 34  1  0
 32 33  1  0
 32 29  1  0
 33 31  2  0
 34 35  1  0
 35 36  2  0
 37 40  1  0
 37 36  1  0
 38 37  2  0
 39 38  1  0
 39 34  2  0
 40 41  1  0
 41 46  2  0
 41 42  1  0
 42 43  2  0
 43 44  1  0
 44 48  1  0
 45 44  2  0
 46 45  1  0
 47 46  1  0
 49 50  1  0
 50 53  1  0
 50 52  1  0
 51 49  2  0
 54 29  1  0
 54 55  1  0
 56 54  1  0
 57 59  1  0
 57  6  1  0
 58 69  2  0
 58 84  1  0
 59 64  1  0
 60 68  1  0
 60 70  1  0
 61 67  1  0
 61 63  1  0
 62 68  1  0
 63 62  1  0
 64 63  2  0
 65 66  1  0
 65 59  2  0
 66 61  2  0
 67 60  1  0
 68 58  1  0
 70 72  2  0
 71 70  1  0
 71 75  1  0
 73 71  1  0
 74 83  2  0
 74 79  1  0
 75 79  1  0
 76 75  1  0
 77 78  1  0
 77 76  1  0
 78 74  1  0
 79 80  2  0
 80 81  1  0
 82 81  2  0
 83 82  1  0
 84 85  1  0
 84 94  1  0
 85 88  1  0
 86 85  1  0
 86 90  1  0
 87 86  2  0
 89 90  1  0
 90 92  1  0
 92 93  1  0
 92 91  1  0
 94 97  1  1
 94 95  1  0
 96 94  1  0
M  ISO  4   6 101  15 100  21 100  57 101
M  END
>  <TORSDO>  (82) 
F 17

>  <SCORE>  (82) 
-9.940

>  <name>  (82) 
81

>  <ligand_id>  (82) 
81

>  <original_smiles>  (82) 
[H]C1=C(C([H])([H])[H])C2=C(C([H])([H])[H])C(=C(Oc3c([H])c([H])c4c(c3[H])C([H])([H])N(C(=O)C([H])(N([H])C(=O)C([H])(N([H])C([H])([H])[H])C([H])([H])[H])C(C([H])([H])[H])(C([H])([H])[H])C([H])([H])[H])C([H])(C(=O)N([H])C3([H])c5c([H])c([H])c([H])c([H])c5C([H])([H])C([H])([H])C3([H])[H])C4([H])[H])S1)C(C([H])([H])[H])(C1([H])C([H])([H])C([H])([H])C(=C([H])C(=O)N3C([H])([H])C([H])([H])C([H])([H])C([H])(n4nc(-c5c([H])c([H])c(Oc6c([H])c([H])c(F)c([H])c6F)c([H])c5[H])c(C(=O)N([H])[H])c4N([H])[H])C3([H])[H])C1([H])C([H])([H])[H])C([H])([H])C2([H])[H]

>  <smiles>  (82) 
[H]C1=C(C([H])([H])[H])C2=C(C([H])([H])[H])C(=C(Oc3c([H])c([H])c4c(c3[H])C([H])([H])N(C(=O)C([H])(N([H])C(=O)C([H])(N([H])C([H])([H])[H])C([H])([H])[H])C(C([H])([H])[H])(C([H])([H])[H])C([H])([H])[H])C([H])(C(=O)N([H])C3([H])c5c([H])c([H])c([H])c([H])c5C([H])([H])C([H])([H])C3([H])[H])C4([H])[H])S1)C(C([H])([H])[H])(C1([H])C([H])([H])C([H])([H])C(=C([H])C(=O)N3C([H])([H])C([H])([H])C([H])([H])C([H])(n4nc(-c5c([H])c([H])c(Oc6c([H])c([H])c(F)c([H])c6F)c([H])c5[H])c(C(=O)N([H])[H])c4N([H])[H])C3([H])[H])C1([H])C([H])([H])[H])C([H])([H])C2([H])[H]

$$$$
82:0:0
     RDKit          3D

 96105  0  0  1  0  0  0  0  0999 V2000
  -30.6030  -24.1280   20.9900 C   0  0  0  0  0  3  0  0  0  0  0  0
  -31.4070  -23.1470   20.3800 C   0  0  0  0  0  3  0  0  0  0  0  0
  -28.7120  -22.5900   20.9470 C   0  0  0  0  0  3  0  0  0  0  0  0
  -29.2620  -23.8500   21.3230 C   0  0  0  0  0  0  0  0  0  0  0  0
  -30.9020  -21.8480   20.1540 C   0  0  0  0  0  0  0  0  0  0  0  0
  -29.5320  -21.5850   20.3750 C   0  0  0  0  0  0  0  0  0  0  0  0
  -29.0240  -20.3430   20.1290 F   0  0  0  0  0  0  0  0  0  0  0  0
  -28.5950  -25.8330   24.6210 C   0  0  0  0  0  2  0  0  0  0  0  0
  -27.2010  -26.3240   24.2050 C   0  0  0  0  0  2  0  0  0  0  0  0
  -29.4280  -25.3950   23.3920 C   0  0  0  0  0  2  0  0  0  0  0  0
  -27.2320  -26.9460   22.7910 C   0  0  0  0  0  2  0  0  0  0  0  0
  -28.5210  -24.8270   22.2490 C   0  0  0  0  0  3  0  0  0  0  0  0
  -27.5660  -25.9390   21.6360 C   0  0  0  0  0  3  0  0  0  0  0  0
  -27.8960  -26.6320   20.3570 O   0  0  0  0  0  0  0  0  0  0  0  0
  -24.3820  -31.8810   23.1410 C   0  0  0  0  0  0  0  0  0  0  0  0
  -26.8770  -27.4940   19.9910 C   0  0  0  0  0  0  0  0  0  0  0  0
  -23.1160  -30.5420   21.4800 C   0  0  0  0  0  3  0  0  0  0  0  0
  -24.5200  -29.0500   19.9500 C   0  0  0  0  0  0  0  0  0  0  0  0
  -25.6310  -30.9120   21.2060 C   0  0  0  0  0  2  0  0  0  0  0  0
  -25.6930  -29.5730   20.5060 C   0  0  0  0  0  0  0  0  0  0  0  0
  -26.8860  -28.8260   20.4610 C   0  0  0  0  0  3  0  0  0  0  0  0
  -25.7060  -27.0060   19.3690 C   0  0  0  0  0  3  0  0  0  0  0  0
  -24.5280  -27.7810   19.3400 C   0  0  0  0  0  3  0  0  0  0  0  0
  -23.2810  -29.9070   20.0720 C   0  0  0  0  0  2  0  0  0  0  0  0
  -24.4000  -31.1170   22.0100 N   0  0  0  0  0  0  0  0  0  0  0  0
  -23.3190  -32.1460   23.7210 O   0  0  0  0  0  0  0  0  0  0  0  0
  -22.4780  -29.5040   22.4280 C   0  0  0  0  0  0  0  0  0  0  0  0
  -21.1500  -29.3290   22.3060 N   0  0  0  0  0  0  0  0  0  0  0  0
  -23.1670  -28.8510   23.2170 O   0  0  0  0  0  0  0  0  0  0  0  0
  -20.6490  -29.9130   21.6500 H   0  0  0  0  0  0  0  0  0  0  0  0
  -17.7820  -28.1220   22.7990 C   0  0  0  0  0  0  0  0  0  0  0  0
  -20.3370  -28.3830   23.0740 C   0  0  0  0  0  3  0  0  0  0  0  0
  -20.4430  -26.9600   22.4820 C   0  0  0  0  0  2  0  0  0  0  0  0
  -19.3400  -26.6480   21.4650 C   0  0  0  0  0  2  0  0  0  0  0  0
  -17.9570  -26.7830   22.1080 C   0  0  0  0  0  2  0  0  0  0  0  0
  -18.8990  -28.8840   23.2360 C   0  0  0  0  0  0  0  0  0  0  0  0
  -18.6770  -30.1420   23.8350 C   0  0  0  0  0  3  0  0  0  0  0  0
  -17.3700  -30.6340   24.0130 C   0  0  0  0  0  3  0  0  0  0  0  0
  -16.2650  -29.8750   23.5890 C   0  0  0  0  0  3  0  0  0  0  0  0
  -16.4740  -28.6210   22.9880 C   0  0  0  0  0  3  0  0  0  0  0  0
  -25.6880  -32.4790   23.7460 C   0  0  0  0  0  3  0  0  0  0  0  0
  -25.4120  -33.8750   24.1020 N   0  0  0  0  0  0  0  0  0  0  0  0
  -25.7990  -34.9330   23.3810 C   0  0  0  0  0  0  0  0  0  0  0  0
  -26.4800  -34.8370   22.3540 O   0  0  0  0  0  0  0  0  0  0  0  0
  -24.7860  -34.0290   24.8800 H   0  0  0  0  0  0  0  0  0  0  0  0
  -24.1380  -36.7850   23.0490 C   0  0  0  0  0  1  0  0  0  0  0  0
  -25.3530  -36.3250   23.8670 C   0  0  0  0  0  3  0  0  0  0  0  0
  -27.5060  -37.1110   24.7470 C   0  0  0  0  0  1  0  0  0  0  0  0
  -26.4250  -37.3430   23.7930 N   0  0  0  0  0  0  0  0  0  0  0  0
  -26.0530  -38.2760   23.9560 H   0  0  0  0  0  0  0  0  0  0  0  0
  -26.2240  -31.6750   24.9920 C   0  0  1  0  0  0  0  0  0  0  0  0
  -25.1420  -31.4130   26.0680 C   0  0  0  0  0  1  0  0  0  0  0  0
  -26.7830  -30.3080   24.5380 C   0  0  0  0  0  1  0  0  0  0  0  0
  -27.4020  -32.4400   25.6390 C   0  0  0  0  0  1  0  0  0  0  0  0
  -31.8810  -20.7100   19.8890 C   0  0  0  0  0  2  0  0  0  0  0  0
  -32.3890  -20.1420   21.2410 C   0  0  0  0  0  2  0  0  0  0  0  0
  -32.4760  -18.6120   21.4120 C   0  0  0  0  0  2  0  0  0  0  0  0
  -31.1660  -17.8020   21.3650 C   0  0  0  0  0  2  0  0  0  0  0  0
  -31.4720  -16.3110   21.6600 C   0  0  0  0  0  2  0  0  0  0  0  0
  -30.3060  -15.3290   21.3470 C   0  0  0  0  0  2  0  0  0  0  0  0
  -30.5260  -14.4340   20.1070 C   0  0  0  0  0  0  0  0  0  0  0  0
  -30.1010  -12.3070   18.8960 C   0  0  0  0  0  2  0  0  0  0  0  0
  -29.0600  -12.4820   17.7750 C   0  0  0  0  0  2  0  0  0  0  0  0
  -27.6300  -12.3270   18.3300 C   0  0  0  0  0  2  0  0  0  0  0  0
  -27.3890  -13.1670   19.6170 C   0  0  0  0  0  3  0  0  0  0  0  0
  -28.5420  -12.9730   20.6350 C   0  0  0  0  0  2  0  0  0  0  0  0
  -29.8090  -13.2870   19.9580 N   0  0  0  0  0  0  0  0  0  0  0  0
  -31.4020  -14.7560   19.2960 O   0  0  0  0  0  0  0  0  0  0  0  0
  -25.0270  -13.7090   20.5090 C   0  0  0  0  0  0  0  0  0  0  0  0
  -24.0140  -12.9090   20.9540 C   0  0  0  0  0  0  0  0  0  0  0  0
  -24.5040  -11.5670   20.8720 C   0  0  0  0  0  0  0  0  0  0  0  0
  -26.0810  -12.8620   20.1970 N   0  0  0  0  0  0  0  0  0  0  0  0
  -25.7690  -11.5670   20.4670 N   0  0  0  0  0  0  0  0  0  0  0  0
  -23.8330  -10.2830   21.1060 C   0  0  0  0  0  0  0  0  0  0  0  0
  -24.3030   -9.3630   22.0690 C   0  0  0  0  0  3  0  0  0  0  0  0
  -23.6230   -8.1440   22.2900 C   0  0  0  0  0  3  0  0  0  0  0  0
  -22.4580   -7.8360   21.5480 C   0  0  0  0  0  0  0  0  0  0  0  0
  -22.0070   -8.7450   20.5740 C   0  0  0  0  0  3  0  0  0  0  0  0
  -22.6880   -9.9540   20.3520 C   0  0  0  0  0  3  0  0  0  0  0  0
  -21.7500   -6.6640   21.6760 O   0  0  0  0  0  0  0  0  0  0  0  0
  -21.6690   -5.9980   22.8720 C   0  0  0  0  0  0  0  0  0  0  0  0
  -21.1290   -6.6050   24.0280 C   0  0  0  0  0  3  0  0  0  0  0  0
  -21.0030   -5.8640   25.2200 C   0  0  0  0  0  3  0  0  0  0  0  0
  -21.4030   -4.5150   25.2540 C   0  0  0  0  0  0  0  0  0  0  0  0
  -21.9320   -3.9070   24.1020 C   0  0  0  0  0  3  0  0  0  0  0  0
  -22.0610   -4.6450   22.9170 C   0  0  0  0  0  0  0  0  0  0  0  0
  -22.5540   -4.0480   21.8040 F   0  0  0  0  0  0  0  0  0  0  0  0
  -21.2710   -3.8010   26.3960 F   0  0  0  0  0  0  0  0  0  0  0  0
  -22.6280  -13.3400   21.3460 C   0  0  0  0  0  0  0  0  0  0  0  0
  -21.9950  -12.6210   22.2620 N   0  0  0  0  0  0  0  0  0  0  0  0
  -22.1210  -14.3540   20.8680 O   0  0  0  0  0  0  0  0  0  0  0  0
  -22.4160  -11.7970   22.6650 H   0  0  0  0  0  0  0  0  0  0  0  0
  -21.0760  -12.9030   22.5750 H   0  0  0  0  0  0  0  0  0  0  0  0
  -25.1420  -15.0870   20.3310 N   0  0  0  0  0  0  0  0  0  0  0  0
  -24.3710  -15.7220   20.5100 H   0  0  0  0  0  0  0  0  0  0  0  0
  -25.9630  -15.5530   19.9670 H   0  0  0  0  0  0  0  0  0  0  0  0
  1  4  1  0
  2  1  2  0
  3  4  2  0
  5  6  2  0
  5  2  1  0
  6  3  1  0
  7  6  1  0
  9  8  1  0
 10  8  1  0
 11  9  1  0
 12  4  1  0
 12 10  1  0
 13 14  1  0
 13 12  1  0
 13 11  1  0
 15 26  2  0
 16 14  1  0
 16 21  1  0
 17 25  1  0
 17 27  1  0
 18 24  1  0
 18 20  1  0
 19 25  1  0
 20 19  1  0
 21 20  2  0
 22 16  2  0
 23 22  1  0
 23 18  2  0
 24 17  1  0
 25 15  1  0
 27 29  2  0
 28 27  1  0
 30 28  1  0
 31 40  2  0
 31 36  1  0
 32 28  1  0
 32 36  1  0
 33 32  1  0
 34 35  1  0
 34 33  1  0
 35 31  1  0
 36 37  2  0
 37 38  1  0
 39 38  2  0
 40 39  1  0
 41 15  1  0
 41 42  1  0
 41 51  1  0
 42 45  1  0
 43 47  1  0
 43 42  1  0
 44 43  2  0
 47 46  1  0
 49 47  1  0
 49 50  1  0
 49 48  1  0
 51 54  1  1
 51 52  1  0
 53 51  1  0
 55  5  1  0
 55 56  1  0
 56 57  1  0
 58 57  1  0
 58 59  1  0
 60 59  1  0
 61 60  1  0
 62 67  1  0
 63 64  1  0
 63 62  1  0
 65 64  1  0
 65 72  1  0
 65 66  1  0
 67 61  1  0
 67 66  1  0
 68 61  2  0
 69 70  2  0
 70 89  1  0
 71 70  1  0
 71 74  1  0
 72 73  1  0
 72 69  1  0
 73 71  2  0
 74 75  1  0
 75 76  2  0
 77 80  1  0
 77 76  1  0
 78 77  2  0
 79 78  1  0
 79 74  2  0
 80 81  1  0
 81 86  2  0
 81 82  1  0
 82 83  2  0
 83 84  1  0
 84 88  1  0
 85 84  2  0
 86 85  1  0
 87 86  1  0
 89 90  1  0
 90 93  1  0
 90 92  1  0
 91 89  2  0
 94 69  1  0
 94 95  1  0
 96 94  1  0
M  ISO  4  13 101  14 101  60 100  61 100
M  END
>  <TORSDO>  (83) 
F 23

>  <SCORE>  (83) 
-12.261

>  <name>  (83) 
82

>  <ligand_id>  (83) 
82

>  <original_smiles>  (83) 
[H]c1c([H])c([H])c2c(c1[H])C([H])([H])C([H])([H])C([H])([H])C2([H])N([H])C(=O)C1([H])N(C(=O)C([H])(N([H])C(=O)C([H])(N([H])C([H])([H])[H])C([H])([H])[H])C(C([H])([H])[H])(C([H])([H])[H])C([H])([H])[H])C([H])([H])c2c([H])c(OC3([H])C([H])([H])C([H])([H])C([H])([H])C([H])([H])C3([H])c3c([H])c([H])c(C([H])([H])C([H])([H])C([H])([H])C([H])([H])C([H])([H])C([H])([H])C(=O)N4C([H])([H])C([H])([H])C([H])([H])C([H])(n5nc(-c6c([H])c([H])c(Oc7c([H])c([H])c(F)c([H])c7F)c([H])c6[H])c(C(=O)N([H])[H])c5N([H])[H])C4([H])[H])c(F)c3[H])c([H])c([H])c2C1([H])[H]

>  <smiles>  (83) 
[H]c1c([H])c([H])c2c(c1[H])C([H])([H])C([H])([H])C([H])([H])C2([H])N([H])C(=O)C1([H])N(C(=O)C([H])(N([H])C(=O)C([H])(N([H])C([H])([H])[H])C([H])([H])[H])C(C([H])([H])[H])(C([H])([H])[H])C([H])([H])[H])C([H])([H])c2c([H])c(OC3([H])C([H])([H])C([H])([H])C([H])([H])C([H])([H])C3([H])c3c([H])c([H])c(C([H])([H])C([H])([H])C([H])([H])C([H])([H])C([H])([H])C([H])([H])C(=O)N4C([H])([H])C([H])([H])C([H])([H])C([H])(n5nc(-c6c([H])c([H])c(Oc7c([H])c([H])c(F)c([H])c7F)c([H])c6[H])c(C(=O)N([H])[H])c5N([H])[H])C4([H])[H])c(F)c3[H])c([H])c([H])c2C1([H])[H]

$$$$
83:0:0
     RDKit          3D

 94102  0  0  1  0  0  0  0  0999 V2000
  -30.1920  -25.8210   23.7960 C   0  0  0  0  0  3  0  0  0  0  0  0
  -30.3290  -27.1760   23.4450 C   0  0  0  0  0  3  0  0  0  0  0  0
  -29.5820  -24.9220   22.9000 C   0  0  0  0  0  3  0  0  0  0  0  0
  -29.8540  -27.6250   22.2020 C   0  0  0  0  0  3  0  0  0  0  0  0
  -29.0800  -25.3690   21.6520 C   0  0  0  0  0  0  0  0  0  0  0  0
  -29.2010  -26.7490   21.3100 C   0  0  0  0  0  0  0  0  0  0  0  0
  -28.5040  -24.3600   20.7110 C   0  0  0  0  0  0  0  0  0  0  0  0
  -28.6350  -24.4250   19.4880 O   0  0  0  0  0  0  0  0  0  0  0  0
  -27.6970  -23.1950   21.3100 C   0  0  0  0  0  2  0  0  0  0  0  0
  -28.4410  -21.8380   21.3640 C   0  0  0  0  0  2  0  0  0  0  0  0
  -27.6640  -20.6390   20.7620 C   0  0  0  0  0  2  0  0  0  0  0  0
  -27.5700  -20.6180   19.2210 C   0  0  0  0  0  2  0  0  0  0  0  0
  -28.9250  -20.6110   18.4890 C   0  0  0  0  0  2  0  0  0  0  0  0
  -29.8270  -19.3780   18.7280 C   0  0  0  0  0  2  0  0  0  0  0  0
  -31.3240  -19.7580   18.7370 C   0  0  0  0  0  2  0  0  0  0  0  0
  -32.3150  -18.7110   18.1940 C   0  0  0  0  0  2  0  0  0  0  0  0
  -32.6280  -17.4770   19.0770 C   0  0  0  0  0  2  0  0  0  0  0  0
  -33.5840  -16.5010   18.3380 C   0  0  0  0  0  0  0  0  0  0  0  0
  -33.8150  -14.2990   17.2550 C   0  0  0  0  0  2  0  0  0  0  0  0
  -32.6240  -14.1180   16.2930 C   0  0  0  0  0  2  0  0  0  0  0  0
  -31.4160  -13.5140   17.0370 C   0  0  0  0  0  2  0  0  0  0  0  0
  -31.0970  -14.2660   18.3550 C   0  0  0  0  0  3  0  0  0  0  0  0
  -32.3750  -14.4670   19.1970 C   0  0  0  0  0  2  0  0  0  0  0  0
  -33.3620  -15.1600   18.3580 N   0  0  0  0  0  0  0  0  0  0  0  0
  -34.4610  -16.9990   17.6260 O   0  0  0  0  0  0  0  0  0  0  0  0
  -28.8410  -14.1020   19.5770 C   0  0  0  0  0  0  0  0  0  0  0  0
  -28.1900  -13.0480   20.1620 C   0  0  0  0  0  0  0  0  0  0  0  0
  -29.0530  -11.9220   20.0150 C   0  0  0  0  0  0  0  0  0  0  0  0
  -30.0440  -13.5950   19.1130 N   0  0  0  0  0  0  0  0  0  0  0  0
  -30.1890  -12.2850   19.4310 N   0  0  0  0  0  0  0  0  0  0  0  0
  -28.8470  -10.5080   20.3510 C   0  0  0  0  0  0  0  0  0  0  0  0
  -29.8180   -9.7710   21.0610 C   0  0  0  0  0  3  0  0  0  0  0  0
  -29.5910   -8.4150   21.3870 C   0  0  0  0  0  3  0  0  0  0  0  0
  -28.3840   -7.7850   21.0000 C   0  0  0  0  0  0  0  0  0  0  0  0
  -27.4320   -8.5200   20.2750 C   0  0  0  0  0  3  0  0  0  0  0  0
  -27.6580   -9.8700   19.9510 C   0  0  0  0  0  3  0  0  0  0  0  0
  -28.0880   -6.4670   21.2460 O   0  0  0  0  0  0  0  0  0  0  0  0
  -28.6850   -5.7760   22.2670 C   0  0  0  0  0  0  0  0  0  0  0  0
  -28.6260   -6.2200   23.6080 C   0  0  0  0  0  3  0  0  0  0  0  0
  -29.1990   -5.4420   24.6330 C   0  0  0  0  0  3  0  0  0  0  0  0
  -29.8160   -4.2160   24.3250 C   0  0  0  0  0  0  0  0  0  0  0  0
  -29.8670   -3.7660   22.9940 C   0  0  0  0  0  3  0  0  0  0  0  0
  -29.3020   -4.5430   21.9690 C   0  0  0  0  0  0  0  0  0  0  0  0
  -29.3370   -4.0980   20.6930 F   0  0  0  0  0  0  0  0  0  0  0  0
  -30.3630   -3.4650   25.3090 F   0  0  0  0  0  0  0  0  0  0  0  0
  -26.8100  -13.0660   20.7520 C   0  0  0  0  0  0  0  0  0  0  0  0
  -26.5630  -12.2320   21.7590 N   0  0  0  0  0  0  0  0  0  0  0  0
  -25.9560  -13.8520   20.3520 O   0  0  0  0  0  0  0  0  0  0  0  0
  -27.2670  -11.5970   22.1010 H   0  0  0  0  0  0  0  0  0  0  0  0
  -25.6520  -12.2250   22.2000 H   0  0  0  0  0  0  0  0  0  0  0  0
  -28.5090  -15.4380   19.3850 N   0  0  0  0  0  0  0  0  0  0  0  0
  -27.6050  -15.8170   19.6440 H   0  0  0  0  0  0  0  0  0  0  0  0
  -29.1030  -16.1120   18.9190 H   0  0  0  0  0  0  0  0  0  0  0  0
  -28.7110  -27.2770   20.1340 O   0  0  0  0  0  0  0  0  0  0  0  0
  -24.7660  -32.1390   23.5500 C   0  0  0  0  0  0  0  0  0  0  0  0
  -27.5490  -28.0170   20.1880 C   0  0  0  0  0  0  0  0  0  0  0  0
  -23.6110  -30.8610   21.7690 C   0  0  0  0  0  3  0  0  0  0  0  0
  -25.1210  -29.4700   20.2520 C   0  0  0  0  0  0  0  0  0  0  0  0
  -26.1290  -31.2820   21.6550 C   0  0  0  0  0  2  0  0  0  0  0  0
  -26.2500  -29.9690   20.9100 C   0  0  0  0  0  0  0  0  0  0  0  0
  -27.4640  -29.2510   20.8740 C   0  0  0  0  0  3  0  0  0  0  0  0
  -26.4080  -27.5330   19.5180 C   0  0  0  0  0  3  0  0  0  0  0  0
  -25.1960  -28.2550   19.5470 C   0  0  0  0  0  3  0  0  0  0  0  0
  -23.8570  -30.2950   20.3410 C   0  0  0  0  0  2  0  0  0  0  0  0
  -24.8500  -31.4400   22.3830 N   0  0  0  0  0  0  0  0  0  0  0  0
  -23.6720  -32.3480   24.0940 O   0  0  0  0  0  0  0  0  0  0  0  0
  -22.9600  -29.7560   22.6290 C   0  0  0  0  0  0  0  0  0  0  0  0
  -21.6300  -29.6100   22.5120 N   0  0  0  0  0  0  0  0  0  0  0  0
  -23.6480  -29.0360   23.3570 O   0  0  0  0  0  0  0  0  0  0  0  0
  -21.1360  -30.2410   21.8980 H   0  0  0  0  0  0  0  0  0  0  0  0
  -18.2410  -28.4580   22.9830 C   0  0  0  0  0  0  0  0  0  0  0  0
  -20.8110  -28.6070   23.1940 C   0  0  0  0  0  3  0  0  0  0  0  0
  -20.8490  -27.2540   22.4450 C   0  0  0  0  0  2  0  0  0  0  0  0
  -19.7060  -27.0890   21.4410 C   0  0  0  0  0  2  0  0  0  0  0  0
  -18.3520  -27.1950   22.1460 C   0  0  0  0  0  2  0  0  0  0  0  0
  -19.3960  -29.1310   23.4620 C   0  0  0  0  0  0  0  0  0  0  0  0
  -19.2360  -30.3200   24.2070 C   0  0  0  0  0  3  0  0  0  0  0  0
  -17.9540  -30.8340   24.4780 C   0  0  0  0  0  3  0  0  0  0  0  0
  -16.8140  -30.1540   24.0170 C   0  0  0  0  0  3  0  0  0  0  0  0
  -16.9580  -28.9690   23.2750 C   0  0  0  0  0  3  0  0  0  0  0  0
  -26.0340  -32.7310   24.2450 C   0  0  0  0  0  3  0  0  0  0  0  0
  -26.5390  -31.8700   25.4660 C   0  0  1  0  0  0  0  0  0  0  0  0
  -25.4340  -31.5440   26.4960 C   0  0  0  0  0  1  0  0  0  0  0  0
  -27.1380  -30.5270   24.9820 C   0  0  0  0  0  1  0  0  0  0  0  0
  -27.6690  -32.6230   26.2080 C   0  0  0  0  0  1  0  0  0  0  0  0
  -25.7060  -34.0980   24.6700 N   0  0  0  0  0  0  0  0  0  0  0  0
  -26.0550  -35.2060   24.0010 C   0  0  0  0  0  0  0  0  0  0  0  0
  -26.7540  -35.1820   22.9830 O   0  0  0  0  0  0  0  0  0  0  0  0
  -25.0870  -34.1940   25.4620 H   0  0  0  0  0  0  0  0  0  0  0  0
  -24.3200  -37.0070   23.7400 C   0  0  0  0  0  1  0  0  0  0  0  0
  -25.5460  -36.5530   24.5470 C   0  0  0  0  0  3  0  0  0  0  0  0
  -27.6560  -37.3890   25.4810 C   0  0  0  0  0  1  0  0  0  0  0  0
  -26.5700  -37.6180   24.5320 N   0  0  0  0  0  0  0  0  0  0  0  0
  -26.1530  -38.5200   24.7430 H   0  0  0  0  0  0  0  0  0  0  0  0
  2  1  1  0
  3  1  2  0
  4  2  2  0
  5  3  1  0
  6  5  2  0
  6  4  1  0
  7  9  1  0
  7  5  1  0
  8  7  2  0
  9 10  1  0
 11 10  1  0
 12 11  1  0
 13 14  1  0
 13 12  1  0
 14 15  1  0
 16 15  1  0
 16 17  1  0
 18 24  1  0
 18 17  1  0
 19 24  1  0
 20 21  1  0
 20 19  1  0
 22 21  1  0
 22 29  1  0
 22 23  1  0
 24 23  1  0
 25 18  2  0
 26 27  2  0
 27 46  1  0
 28 27  1  0
 28 31  1  0
 29 30  1  0
 29 26  1  0
 30 28  2  0
 31 32  1  0
 32 33  2  0
 34 37  1  0
 34 33  1  0
 35 34  2  0
 36 35  1  0
 36 31  2  0
 37 38  1  0
 38 39  1  0
 39 40  2  0
 41 40  1  0
 41 45  1  0
 42 41  2  0
 43 38  2  0
 43 42  1  0
 44 43  1  0
 46 47  1  0
 47 49  1  0
 47 50  1  0
 48 46  2  0
 51 26  1  0
 51 52  1  0
 53 51  1  0
 54 56  1  0
 54  6  1  0
 55 66  2  0
 56 61  1  0
 57 65  1  0
 57 67  1  0
 58 64  1  0
 58 60  1  0
 59 65  1  0
 60 59  1  0
 61 60  2  0
 62 63  1  0
 62 56  2  0
 63 58  2  0
 64 57  1  0
 65 55  1  0
 67 69  2  0
 68 67  1  0
 70 68  1  0
 71 80  2  0
 71 76  1  0
 72 68  1  0
 72 76  1  0
 73 72  1  0
 74 75  1  0
 74 73  1  0
 75 71  1  0
 76 77  2  0
 77 78  1  0
 79 78  2  0
 80 79  1  0
 81 55  1  0
 81 86  1  0
 81 82  1  0
 82 85  1  1
 82 83  1  0
 84 82  1  0
 86 89  1  0
 87 91  1  0
 87 86  1  0
 88 87  2  0
 91 90  1  0
 93 91  1  0
 93 94  1  0
 93 92  1  0
M  ISO  4   6 101  17 100  18 100  54 101
M  END
>  <TORSDO>  (84) 
F 26

>  <SCORE>  (84) 
-1.753

>  <name>  (84) 
83

>  <ligand_id>  (84) 
83

>  <original_smiles>  (84) 
[H]c1c([H])c([H])c(C(=O)C([H])([H])C([H])([H])C([H])([H])C([H])([H])C([H])([H])C([H])([H])C([H])([H])C([H])([H])C([H])([H])C(=O)N2C([H])([H])C([H])([H])C([H])([H])C([H])(n3nc(-c4c([H])c([H])c(Oc5c([H])c([H])c(F)c([H])c5F)c([H])c4[H])c(C(=O)N([H])[H])c3N([H])[H])C2([H])[H])c(Oc2c([H])c([H])c3c(c2[H])C([H])([H])N(C(=O)C([H])(N([H])C(=O)C([H])(N([H])C([H])([H])[H])C([H])([H])[H])C(C([H])([H])[H])(C([H])([H])[H])C([H])([H])[H])C([H])(C(=O)N([H])C2([H])c4c([H])c([H])c([H])c([H])c4C([H])([H])C([H])([H])C2([H])[H])C3([H])[H])c1[H]

>  <smiles>  (84) 
[H]c1c([H])c([H])c(C(=O)C([H])([H])C([H])([H])C([H])([H])C([H])([H])C([H])([H])C([H])([H])C([H])([H])C([H])([H])C([H])([H])C(=O)N2C([H])([H])C([H])([H])C([H])([H])C([H])(n3nc(-c4c([H])c([H])c(Oc5c([H])c([H])c(F)c([H])c5F)c([H])c4[H])c(C(=O)N([H])[H])c3N([H])[H])C2([H])[H])c(Oc2c([H])c([H])c3c(c2[H])C([H])([H])N(C(=O)C([H])(N([H])C(=O)C([H])(N([H])C([H])([H])[H])C([H])([H])[H])C(C([H])([H])[H])(C([H])([H])[H])C([H])([H])[H])C([H])(C(=O)N([H])C2([H])c4c([H])c([H])c([H])c([H])c4C([H])([H])C([H])([H])C2([H])[H])C3([H])[H])c1[H]

$$$$
84:0:0
     RDKit          3D

 96105  0  0  1  0  0  0  0  0999 V2000
  -28.2000  -23.2290   18.5680 C   0  0  0  0  0  3  0  0  0  0  0  0
  -27.2600  -22.6790   19.4630 C   0  0  0  0  0  0  0  0  0  0  0  0
  -28.6640  -24.5510   18.7090 C   0  0  0  0  0  0  0  0  0  0  0  0
  -26.8430  -23.4600   20.5780 C   0  0  0  0  0  0  0  0  0  0  0  0
  -27.4000  -24.7530   20.7850 C   0  0  0  0  0  0  0  0  0  0  0  0
  -28.2340  -25.3500   19.7970 C   0  0  0  0  0  0  0  0  0  0  0  0
  -29.5580  -25.1060   17.6110 C   0  0  0  0  0  1  0  0  0  0  0  0
  -25.7390  -22.9760   21.5100 C   0  0  0  0  0  1  0  0  0  0  0  0
  -27.0500  -25.5490   22.0440 C   0  0  0  0  0  1  0  0  0  0  0  0
  -28.4810  -26.7210   19.8020 O   0  0  0  0  0  0  0  0  0  0  0  0
  -24.5490  -31.7500   23.0210 C   0  0  0  0  0  0  0  0  0  0  0  0
  -27.3500  -27.5200   19.7600 C   0  0  0  0  0  0  0  0  0  0  0  0
  -23.4010  -30.3510   21.3440 C   0  0  0  0  0  3  0  0  0  0  0  0
  -24.9100  -28.9470   19.8470 C   0  0  0  0  0  0  0  0  0  0  0  0
  -25.9150  -30.8190   21.1570 C   0  0  0  0  0  2  0  0  0  0  0  0
  -26.0510  -29.4740   20.4690 C   0  0  0  0  0  0  0  0  0  0  0  0
  -27.2750  -28.7640   20.4350 C   0  0  0  0  0  3  0  0  0  0  0  0
  -26.2010  -27.0440   19.0880 C   0  0  0  0  0  3  0  0  0  0  0  0
  -24.9820  -27.7340   19.1470 C   0  0  0  0  0  3  0  0  0  0  0  0
  -23.6290  -29.7390   19.9350 C   0  0  0  0  0  2  0  0  0  0  0  0
  -24.6370  -30.9880   21.8980 N   0  0  0  0  0  0  0  0  0  0  0  0
  -23.4560  -31.9540   23.5700 O   0  0  0  0  0  0  0  0  0  0  0  0
  -22.8030  -29.2650   22.2650 C   0  0  0  0  0  0  0  0  0  0  0  0
  -21.4830  -29.0420   22.1500 N   0  0  0  0  0  0  0  0  0  0  0  0
  -23.5240  -28.6280   23.0380 O   0  0  0  0  0  0  0  0  0  0  0  0
  -20.9660  -29.6110   21.4980 H   0  0  0  0  0  0  0  0  0  0  0  0
  -18.1520  -27.7420   22.6810 C   0  0  0  0  0  0  0  0  0  0  0  0
  -20.7120  -28.0490   22.8970 C   0  0  0  0  0  3  0  0  0  0  0  0
  -20.8320  -26.6520   22.2480 C   0  0  0  0  0  2  0  0  0  0  0  0
  -19.7090  -26.3510   21.2490 C   0  0  0  0  0  2  0  0  0  0  0  0
  -18.3430  -26.4300   21.9370 C   0  0  0  0  0  2  0  0  0  0  0  0
  -19.2650  -28.5080   23.1190 C   0  0  0  0  0  0  0  0  0  0  0  0
  -19.0340  -29.7360   23.7760 C   0  0  0  0  0  3  0  0  0  0  0  0
  -17.7240  -30.1970   24.0000 C   0  0  0  0  0  3  0  0  0  0  0  0
  -16.6260  -29.4260   23.5780 C   0  0  0  0  0  3  0  0  0  0  0  0
  -16.8420  -28.2010   22.9250 C   0  0  0  0  0  3  0  0  0  0  0  0
  -25.8060  -32.4190   23.6570 C   0  0  0  0  0  3  0  0  0  0  0  0
  -26.3470  -31.6480   24.9220 C   0  0  1  0  0  0  0  0  0  0  0  0
  -25.2590  -31.3470   25.9780 C   0  0  0  0  0  1  0  0  0  0  0  0
  -26.9860  -30.3010   24.5100 C   0  0  0  0  0  1  0  0  0  0  0  0
  -27.4640  -32.4750   25.6000 C   0  0  0  0  0  1  0  0  0  0  0  0
  -25.4430  -33.7980   24.0030 N   0  0  0  0  0  0  0  0  0  0  0  0
  -25.7890  -34.8780   23.2920 C   0  0  0  0  0  0  0  0  0  0  0  0
  -26.5190  -34.8170   22.2970 O   0  0  0  0  0  0  0  0  0  0  0  0
  -24.7980  -33.9190   24.7700 H   0  0  0  0  0  0  0  0  0  0  0  0
  -24.0440  -36.6400   22.8720 C   0  0  0  0  0  1  0  0  0  0  0  0
  -25.2390  -36.2440   23.7520 C   0  0  0  0  0  3  0  0  0  0  0  0
  -27.2980  -37.1470   24.7390 C   0  0  0  0  0  1  0  0  0  0  0  0
  -26.2530  -37.3210   23.7340 N   0  0  0  0  0  0  0  0  0  0  0  0
  -25.8210  -38.2280   23.8800 H   0  0  0  0  0  0  0  0  0  0  0  0
  -26.7250  -21.2640   19.1720 C   0  0  0  0  0  2  0  0  0  0  0  0
  -27.2640  -20.2150   20.1700 C   0  0  0  0  0  2  0  0  0  0  0  0
  -28.0700  -17.9350   20.7780 C   0  0  0  0  0  2  0  0  0  0  0  0
  -29.4410  -19.2730   19.0960 C   0  0  0  0  0  2  0  0  0  0  0  0
  -29.4060  -17.1790   20.8950 C   0  0  0  0  0  2  0  0  0  0  0  0
  -30.2450  -17.9980   18.6720 C   0  0  0  0  0  2  0  0  0  0  0  0
  -28.0230  -18.9760   19.6400 C   0  0  0  0  0  3  0  0  0  0  0  0
  -29.9910  -16.7260   19.5530 C   0  0  0  0  0  3  0  0  0  0  0  0
  -31.5980  -14.7130   19.2790 C   0  0  0  0  0  0  0  0  0  0  0  0
  -31.1440  -12.3950   18.5630 C   0  0  0  0  0  2  0  0  0  0  0  0
  -30.1260  -12.3790   17.4110 C   0  0  0  0  0  2  0  0  0  0  0  0
  -28.6980  -12.3160   17.9830 C   0  0  0  0  0  2  0  0  0  0  0  0
  -28.4600  -13.3590   19.1050 C   0  0  0  0  0  3  0  0  0  0  0  0
  -29.6070  -13.3880   20.1420 C   0  0  0  0  0  2  0  0  0  0  0  0
  -30.8610  -13.5690   19.4090 N   0  0  0  0  0  0  0  0  0  0  0  0
  -32.6960  -14.7140   18.7230 O   0  0  0  0  0  0  0  0  0  0  0  0
  -31.1750  -15.8770   19.8380 N   0  0  0  0  0  0  0  0  0  0  0  0
  -31.9810  -16.4510   20.0240 H   0  0  0  0  0  0  0  0  0  0  0  0
  -26.2610  -14.1530   20.1450 C   0  0  0  0  0  0  0  0  0  0  0  0
  -25.1820  -13.4690   20.6210 C   0  0  0  0  0  0  0  0  0  0  0  0
  -25.4920  -12.0760   20.4780 C   0  0  0  0  0  0  0  0  0  0  0  0
  -27.1660  -13.1890   19.7410 N   0  0  0  0  0  0  0  0  0  0  0  0
  -26.7210  -11.9330   20.0040 N   0  0  0  0  0  0  0  0  0  0  0  0
  -24.6720  -10.8780   20.7080 C   0  0  0  0  0  0  0  0  0  0  0  0
  -25.0240   -9.9290   21.6850 C   0  0  0  0  0  3  0  0  0  0  0  0
  -24.2210   -8.7890   21.9030 C   0  0  0  0  0  3  0  0  0  0  0  0
  -23.0370   -8.5910   21.1450 C   0  0  0  0  0  0  0  0  0  0  0  0
  -22.6930   -9.5440   20.1640 C   0  0  0  0  0  3  0  0  0  0  0  0
  -23.5110  -10.6690   19.9420 C   0  0  0  0  0  3  0  0  0  0  0  0
  -22.2140   -7.4940   21.2550 O   0  0  0  0  0  0  0  0  0  0  0  0
  -21.9950   -6.8820   22.4620 C   0  0  0  0  0  0  0  0  0  0  0  0
  -21.4660   -7.5830   23.5700 C   0  0  0  0  0  3  0  0  0  0  0  0
  -21.1900   -6.8970   24.7680 C   0  0  0  0  0  3  0  0  0  0  0  0
  -21.4380   -5.5150   24.8650 C   0  0  0  0  0  0  0  0  0  0  0  0
  -21.9630   -4.8170   23.7600 C   0  0  0  0  0  3  0  0  0  0  0  0
  -22.2330   -5.4970   22.5600 C   0  0  0  0  0  0  0  0  0  0  0  0
  -22.7150   -4.8160   21.4930 F   0  0  0  0  0  0  0  0  0  0  0  0
  -21.1610   -4.8510   26.0130 F   0  0  0  0  0  0  0  0  0  0  0  0
  -23.8730  -14.0570   21.0530 C   0  0  0  0  0  0  0  0  0  0  0  0
  -23.1810  -13.3700   21.9560 N   0  0  0  0  0  0  0  0  0  0  0  0
  -23.4730  -15.1320   20.6050 O   0  0  0  0  0  0  0  0  0  0  0  0
  -23.5270  -12.4810   22.3000 H   0  0  0  0  0  0  0  0  0  0  0  0
  -22.2970  -13.7360   22.2650 H   0  0  0  0  0  0  0  0  0  0  0  0
  -26.5560  -15.5010   19.9860 N   0  0  0  0  0  0  0  0  0  0  0  0
  -25.8650  -16.2090   20.1980 H   0  0  0  0  0  0  0  0  0  0  0  0
  -27.4040  -15.8600   19.5570 H   0  0  0  0  0  0  0  0  0  0  0  0
  1  3  2  0
  1  2  1  0
  2  4  2  0
  3  6  1  0
  4  5  1  0
  4  8  1  0
  5  9  1  0
  6 10  1  0
  6  5  2  0
  7  3  1  0
 11 22  2  0
 12 10  1  0
 12 17  1  0
 13 21  1  0
 13 23  1  0
 14 20  1  0
 14 16  1  0
 15 21  1  0
 16 15  1  0
 17 16  2  0
 18 19  1  0
 18 12  2  0
 19 14  2  0
 20 13  1  0
 21 11  1  0
 23 25  2  0
 24 23  1  0
 26 24  1  0
 27 36  2  0
 27 32  1  0
 28 24  1  0
 28 32  1  0
 29 28  1  0
 30 31  1  0
 30 29  1  0
 31 27  1  0
 32 33  2  0
 33 34  1  0
 35 34  2  0
 36 35  1  0
 37 11  1  0
 37 42  1  0
 37 38  1  0
 38 41  1  1
 38 39  1  0
 40 38  1  0
 42 45  1  0
 43 47  1  0
 43 42  1  0
 44 43  2  0
 47 46  1  0
 49 47  1  0
 49 50  1  0
 49 48  1  0
 51  2  1  0
 51 52  1  0
 53 55  1  0
 54 57  1  0
 56 54  1  0
 56 58  1  0
 57 52  1  0
 57 53  1  0
 58 67  1  0
 58 55  1  0
 59 65  1  0
 59 67  1  0
 60 65  1  0
 61 62  1  0
 61 60  1  0
 63 62  1  0
 63 72  1  0
 63 64  1  0
 65 64  1  0
 66 59  2  0
 67 68  1  0
 69 70  2  0
 70 89  1  0
 71 70  1  0
 71 74  1  0
 72 73  1  0
 72 69  1  0
 73 71  2  0
 74 75  1  0
 75 76  2  0
 77 80  1  0
 77 76  1  0
 78 77  2  0
 79 78  1  0
 79 74  2  0
 80 81  1  0
 81 86  2  0
 81 82  1  0
 82 83  2  0
 83 84  1  0
 84 88  1  0
 85 84  2  0
 86 85  1  0
 87 86  1  0
 89 90  1  0
 90 93  1  0
 90 92  1  0
 91 89  2  0
 94 69  1  0
 94 95  1  0
 96 94  1  0
M  ISO  4   6 101  10 101  59 100  67 100
M  END
>  <TORSDO>  (85) 
F 19

>  <SCORE>  (85) 
-11.760

>  <name>  (85) 
84

>  <ligand_id>  (85) 
84

>  <original_smiles>  (85) 
[H]c1c([H])c([H])c2c(c1[H])C([H])([H])C([H])([H])C([H])([H])C2([H])N([H])C(=O)C1([H])N(C(=O)C([H])(N([H])C(=O)C([H])(N([H])C([H])([H])[H])C([H])([H])[H])C(C([H])([H])[H])(C([H])([H])[H])C([H])([H])[H])C([H])([H])c2c([H])c(Oc3c(C([H])([H])[H])c([H])c(C([H])([H])C([H])([H])C4([H])C([H])([H])C([H])([H])C([H])(N([H])C(=O)N5C([H])([H])C([H])([H])C([H])([H])C([H])(n6nc(-c7c([H])c([H])c(Oc8c([H])c([H])c(F)c([H])c8F)c([H])c7[H])c(C(=O)N([H])[H])c6N([H])[H])C5([H])[H])C([H])([H])C4([H])[H])c(C([H])([H])[H])c3C([H])([H])[H])c([H])c([H])c2C1([H])[H]

>  <smiles>  (85) 
[H]c1c([H])c([H])c2c(c1[H])C([H])([H])C([H])([H])C([H])([H])C2([H])N([H])C(=O)C1([H])N(C(=O)C([H])(N([H])C(=O)C([H])(N([H])C([H])([H])[H])C([H])([H])[H])C(C([H])([H])[H])(C([H])([H])[H])C([H])([H])[H])C([H])([H])c2c([H])c(Oc3c(C([H])([H])[H])c([H])c(C([H])([H])C([H])([H])C4([H])C([H])([H])C([H])([H])C([H])(N([H])C(=O)N5C([H])([H])C([H])([H])C([H])([H])C([H])(n6nc(-c7c([H])c([H])c(Oc8c([H])c([H])c(F)c([H])c8F)c([H])c7[H])c(C(=O)N([H])[H])c6N([H])[H])C5([H])[H])C([H])([H])C4([H])[H])c(C([H])([H])[H])c3C([H])([H])[H])c([H])c([H])c2C1([H])[H]

$$$$
85:0:0
     RDKit          3D

 92101  0  0  1  0  0  0  0  0999 V2000
  -30.1780  -20.8200   21.1830 C   0  0  0  0  0  3  0  0  0  0  0  0
  -28.4500  -18.8100   20.1750 C   0  0  0  0  0  3  0  0  0  0  0  0
  -30.5240  -19.4420   21.2270 C   0  0  0  0  0  0  0  0  0  0  0  0
  -29.6560  -18.4320   20.8040 C   0  0  0  0  0  0  0  0  0  0  0  0
  -28.0990  -20.1970   20.0830 C   0  0  0  0  0  0  0  0  0  0  0  0
  -28.9200  -21.2230   20.6640 C   0  0  0  0  0  0  0  0  0  0  0  0
  -31.7930  -18.8530   21.7970 C   0  0  0  0  0  2  0  0  0  0  0  0
  -31.6930  -17.3360   21.4820 C   0  0  0  0  0  2  0  0  0  0  0  0
  -30.1870  -17.0460   21.2560 C   0  0  0  0  0  3  0  0  0  0  0  0
  -26.7900  -20.5510   19.3980 C   0  0  0  0  0  1  0  0  0  0  0  0
  -30.5040  -14.7030   20.1300 C   0  0  0  0  0  0  0  0  0  0  0  0
  -30.2040  -12.5430   18.9350 C   0  0  0  0  0  2  0  0  0  0  0  0
  -29.1950  -12.7340   17.7850 C   0  0  0  0  0  2  0  0  0  0  0  0
  -27.7520  -12.5330   18.2920 C   0  0  0  0  0  2  0  0  0  0  0  0
  -27.4580  -13.3400   19.5830 C   0  0  0  0  0  3  0  0  0  0  0  0
  -28.5770  -13.1410   20.6290 C   0  0  0  0  0  2  0  0  0  0  0  0
  -29.8490  -13.5100   19.9910 N   0  0  0  0  0  0  0  0  0  0  0  0
  -31.6460  -14.8580   19.6940 O   0  0  0  0  0  0  0  0  0  0  0  0
  -29.7750  -15.7410   20.6380 N   0  0  0  0  0  0  0  0  0  0  0  0
  -28.8200  -15.4910   20.8340 H   0  0  0  0  0  0  0  0  0  0  0  0
  -25.0940  -13.8840   20.4300 C   0  0  0  0  0  0  0  0  0  0  0  0
  -24.0590  -13.0860   20.8350 C   0  0  0  0  0  0  0  0  0  0  0  0
  -24.5430  -11.7440   20.7570 C   0  0  0  0  0  0  0  0  0  0  0  0
  -26.1400  -13.0260   20.1280 N   0  0  0  0  0  0  0  0  0  0  0  0
  -25.8170  -11.7350   20.3850 N   0  0  0  0  0  0  0  0  0  0  0  0
  -23.8470  -10.4670   20.9600 C   0  0  0  0  0  0  0  0  0  0  0  0
  -24.3100   -9.5150   21.8960 C   0  0  0  0  0  3  0  0  0  0  0  0
  -23.6170   -8.3000   22.0860 C   0  0  0  0  0  3  0  0  0  0  0  0
  -22.4450   -8.0270   21.3380 C   0  0  0  0  0  0  0  0  0  0  0  0
  -22.0020   -8.9670   20.3900 C   0  0  0  0  0  3  0  0  0  0  0  0
  -22.6980  -10.1730   20.2000 C   0  0  0  0  0  3  0  0  0  0  0  0
  -21.7200   -6.8630   21.4370 O   0  0  0  0  0  0  0  0  0  0  0  0
  -21.6660   -6.1490   22.6070 C   0  0  0  0  0  0  0  0  0  0  0  0
  -21.1770   -6.7160   23.8050 C   0  0  0  0  0  3  0  0  0  0  0  0
  -21.0720   -5.9240   24.9650 C   0  0  0  0  0  3  0  0  0  0  0  0
  -21.4450   -4.5670   24.9290 C   0  0  0  0  0  0  0  0  0  0  0  0
  -21.9270   -4.0000   23.7370 C   0  0  0  0  0  3  0  0  0  0  0  0
  -22.0330   -4.7890   22.5780 C   0  0  0  0  0  0  0  0  0  0  0  0
  -22.4780   -4.2340   21.4250 F   0  0  0  0  0  0  0  0  0  0  0  0
  -21.3350   -3.8020   26.0410 F   0  0  0  0  0  0  0  0  0  0  0  0
  -22.6680  -13.5320   21.1820 C   0  0  0  0  0  0  0  0  0  0  0  0
  -21.9960  -12.8040   22.0660 N   0  0  0  0  0  0  0  0  0  0  0  0
  -22.1880  -14.5580   20.7030 O   0  0  0  0  0  0  0  0  0  0  0  0
  -22.3990  -11.9710   22.4690 H   0  0  0  0  0  0  0  0  0  0  0  0
  -21.0650  -13.0820   22.3430 H   0  0  0  0  0  0  0  0  0  0  0  0
  -25.2310  -15.2620   20.2740 N   0  0  0  0  0  0  0  0  0  0  0  0
  -24.4660  -15.9020   20.4450 H   0  0  0  0  0  0  0  0  0  0  0  0
  -26.0560  -15.7170   19.9070 H   0  0  0  0  0  0  0  0  0  0  0  0
  -28.3750  -22.6640   20.9700 C   0  0  0  0  0  2  0  0  0  0  0  0
  -28.8670  -23.9730   20.2280 C   0  0  0  0  0  2  0  0  0  0  0  0
  -28.1760  -25.2860   20.7930 C   0  0  0  0  0  2  0  0  0  0  0  0
  -28.4060  -26.6030   20.1750 O   0  0  0  0  0  0  0  0  0  0  0  0
  -24.6220  -31.9230   23.2170 C   0  0  0  0  0  0  0  0  0  0  0  0
  -27.2920  -27.4430   20.1390 C   0  0  0  0  0  0  0  0  0  0  0  0
  -23.4370  -30.5190   21.5650 C   0  0  0  0  0  3  0  0  0  0  0  0
  -24.9100  -29.0010   20.1280 C   0  0  0  0  0  0  0  0  0  0  0  0
  -25.9670  -30.8780   21.3840 C   0  0  0  0  0  2  0  0  0  0  0  0
  -26.0680  -29.5070   20.7340 C   0  0  0  0  0  0  0  0  0  0  0  0
  -27.2660  -28.7370   20.7340 C   0  0  0  0  0  3  0  0  0  0  0  0
  -26.1220  -26.9880   19.4950 C   0  0  0  0  0  3  0  0  0  0  0  0
  -24.9380  -27.7450   19.4980 C   0  0  0  0  0  3  0  0  0  0  0  0
  -23.6610  -29.8550   20.1810 C   0  0  0  0  0  2  0  0  0  0  0  0
  -24.6940  -31.1220   22.1140 N   0  0  0  0  0  0  0  0  0  0  0  0
  -23.5340  -32.1840   23.7540 O   0  0  0  0  0  0  0  0  0  0  0  0
  -22.7860  -29.4890   22.5200 C   0  0  0  0  0  0  0  0  0  0  0  0
  -21.4630  -29.3000   22.3910 N   0  0  0  0  0  0  0  0  0  0  0  0
  -23.4720  -28.8650   23.3350 O   0  0  0  0  0  0  0  0  0  0  0  0
  -20.9690  -29.8520   21.7050 H   0  0  0  0  0  0  0  0  0  0  0  0
  -18.0970  -28.0840   22.8970 C   0  0  0  0  0  0  0  0  0  0  0  0
  -20.6530  -28.3470   23.1530 C   0  0  0  0  0  3  0  0  0  0  0  0
  -20.7590  -26.9250   22.5570 C   0  0  0  0  0  2  0  0  0  0  0  0
  -19.6530  -26.6140   21.5440 C   0  0  0  0  0  2  0  0  0  0  0  0
  -18.2750  -26.7450   22.2000 C   0  0  0  0  0  2  0  0  0  0  0  0
  -19.2150  -28.8440   23.3310 C   0  0  0  0  0  0  0  0  0  0  0  0
  -18.9950  -30.0980   23.9380 C   0  0  0  0  0  3  0  0  0  0  0  0
  -17.6900  -30.5920   24.1190 C   0  0  0  0  0  3  0  0  0  0  0  0
  -16.5870  -29.8300   23.7020 C   0  0  0  0  0  3  0  0  0  0  0  0
  -16.7900  -28.5770   23.0970 C   0  0  0  0  0  3  0  0  0  0  0  0
  -25.8980  -32.5640   23.8450 C   0  0  0  0  0  3  0  0  0  0  0  0
  -26.4150  -31.7960   25.1230 C   0  0  1  0  0  0  0  0  0  0  0  0
  -25.3200  -31.5490   26.1860 C   0  0  0  0  0  1  0  0  0  0  0  0
  -27.0110  -30.4260   24.7300 C   0  0  0  0  0  1  0  0  0  0  0  0
  -27.5560  -32.6010   25.7910 C   0  0  0  0  0  1  0  0  0  0  0  0
  -25.5770  -33.9610   24.1730 N   0  0  0  0  0  0  0  0  0  0  0  0
  -25.9090  -35.0170   23.4190 C   0  0  0  0  0  0  0  0  0  0  0  0
  -26.5890  -34.9210   22.3930 O   0  0  0  0  0  0  0  0  0  0  0  0
  -24.9750  -34.1110   24.9690 H   0  0  0  0  0  0  0  0  0  0  0  0
  -24.1820  -36.8060   23.0380 C   0  0  0  0  0  1  0  0  0  0  0  0
  -25.4090  -36.4020   23.8720 C   0  0  0  0  0  3  0  0  0  0  0  0
  -27.5230  -37.2930   24.7490 C   0  0  0  0  0  1  0  0  0  0  0  0
  -26.4410  -37.4590   23.7820 N   0  0  0  0  0  0  0  0  0  0  0  0
  -26.0300  -38.3790   23.9210 H   0  0  0  0  0  0  0  0  0  0  0  0
  1  3  1  0
  2  4  1  0
  3  7  1  0
  4  3  2  0
  4  9  1  0
  5  2  2  0
  5  6  1  0
  6 49  1  0
  6  1  2  0
  8  7  1  0
  9 19  1  0
  9  8  1  0
 10  5  1  0
 11 19  1  0
 12 17  1  0
 13 14  1  0
 13 12  1  0
 15 14  1  0
 15 24  1  0
 15 16  1  0
 17 11  1  0
 17 16  1  0
 18 11  2  0
 19 20  1  0
 21 22  2  0
 22 41  1  0
 23 22  1  0
 23 26  1  0
 24 25  1  0
 24 21  1  0
 25 23  2  0
 26 27  1  0
 27 28  2  0
 29 32  1  0
 29 28  1  0
 30 29  2  0
 31 30  1  0
 31 26  2  0
 32 33  1  0
 33 34  1  0
 34 35  2  0
 36 35  1  0
 36 40  1  0
 37 36  2  0
 38 33  2  0
 38 37  1  0
 39 38  1  0
 41 42  1  0
 42 45  1  0
 42 44  1  0
 43 41  2  0
 46 21  1  0
 46 47  1  0
 48 46  1  0
 50 51  1  0
 50 49  1  0
 52 51  1  0
 53 64  2  0
 54 52  1  0
 54 59  1  0
 55 63  1  0
 55 65  1  0
 56 62  1  0
 56 58  1  0
 57 63  1  0
 58 59  2  0
 58 57  1  0
 60 61  1  0
 60 54  2  0
 61 56  2  0
 62 55  1  0
 63 53  1  0
 65 67  2  0
 66 65  1  0
 68 66  1  0
 69 78  2  0
 69 74  1  0
 70 66  1  0
 70 74  1  0
 71 70  1  0
 72 73  1  0
 72 71  1  0
 73 69  1  0
 74 75  2  0
 75 76  1  0
 77 76  2  0
 78 77  1  0
 79 53  1  0
 79 84  1  0
 79 80  1  0
 80 83  1  1
 80 81  1  0
 82 80  1  0
 84 87  1  0
 85 89  1  0
 85 84  1  0
 86 85  2  0
 89 88  1  0
 91 89  1  0
 91 92  1  0
 91 90  1  0
M  ISO  4  11 100  19 100  51 101  52 101
M  END
>  <TORSDO>  (86) 
F 19

>  <SCORE>  (86) 
-14.011

>  <name>  (86) 
85

>  <ligand_id>  (86) 
85

>  <original_smiles>  (86) 
[H]c1c([H])c([H])c2c(c1[H])C([H])([H])C([H])([H])C([H])([H])C2([H])N([H])C(=O)C1([H])N(C(=O)C([H])(N([H])C(=O)C([H])(N([H])C([H])([H])[H])C([H])([H])[H])C(C([H])([H])[H])(C([H])([H])[H])C([H])([H])[H])C([H])([H])c2c([H])c(OC([H])([H])C([H])([H])C([H])([H])c3c([H])c4c(c([H])c3C([H])([H])[H])C([H])(N([H])C(=O)N3C([H])([H])C([H])([H])C([H])([H])C([H])(n5nc(-c6c([H])c([H])c(Oc7c([H])c([H])c(F)c([H])c7F)c([H])c6[H])c(C(=O)N([H])[H])c5N([H])[H])C3([H])[H])C([H])([H])C4([H])[H])c([H])c([H])c2C1([H])[H]

>  <smiles>  (86) 
[H]c1c([H])c([H])c2c(c1[H])C([H])([H])C([H])([H])C([H])([H])C2([H])N([H])C(=O)C1([H])N(C(=O)C([H])(N([H])C(=O)C([H])(N([H])C([H])([H])[H])C([H])([H])[H])C(C([H])([H])[H])(C([H])([H])[H])C([H])([H])[H])C([H])([H])c2c([H])c(OC([H])([H])C([H])([H])C([H])([H])c3c([H])c4c(c([H])c3C([H])([H])[H])C([H])(N([H])C(=O)N3C([H])([H])C([H])([H])C([H])([H])C([H])(n5nc(-c6c([H])c([H])c(Oc7c([H])c([H])c(F)c([H])c7F)c([H])c6[H])c(C(=O)N([H])[H])c5N([H])[H])C3([H])[H])C([H])([H])C4([H])[H])c([H])c([H])c2C1([H])[H]

$$$$
86:0:0
     RDKit          3D

 95 96  0  0  1  0  0  0  0  0999 V2000
  -26.9880  -23.3260   20.8480 C   0  0  0  0  0  3  0  0  0  0  0  0
  -25.9270  -22.5030   20.5840 C   0  0  0  0  0  2  0  0  0  0  0  0
  -23.9490  -23.6780   21.0380 C   0  0  0  0  0 15  0  0  0  0  0  0
  -19.4920  -27.0020   21.2920 C   0  0  0  0  0  1  0  0  0  0  0  0
  -20.5760  -29.0430   22.8550 C   0  0  0  0  0  2  0  0  0  0  0  0
  -20.7670  -25.6280   21.2190 C   0  0  0  0  0  3  0  0  0  0  0  0
  -22.0930  -28.2340   23.5320 C   0  0  0  0  0  0  0  0  0  0  0  0
  -22.7260  -26.6000   22.9770 C   0  0  0  0  0  0  0  0  0  0  0  0
  -22.4830  -25.3840   21.7240 C   0  0  0  0  0  2  0  0  0  0  0  0
  -20.1740  -30.4410   23.4080 C   0  0  0  0  0  1  0  0  0  0  0  0
  -20.2410  -24.4120   20.4970 C   0  0  0  0  0  1  0  0  0  0  0  0
  -22.4880  -28.7440   24.9050 C   0  0  0  0  0  1  0  0  0  0  0  0
  -23.8340  -26.0940   23.8770 C   0  0  0  0  0  1  0  0  0  0  0  0
  -27.0660  -24.7050   21.5200 C   0  0  0  0  0  2  0  0  0  0  0  0
  -27.8200  -25.9230   20.8640 C   0  0  0  0  0  2  0  0  0  0  0  0
  -29.2290  -26.4650   21.3450 C   0  0  0  0  0  2  0  0  0  0  0  0
  -29.5480  -27.8690   21.0350 O   0  0  0  0  0  0  0  0  0  0  0  0
  -31.7490  -26.9300   14.4160 C   0  0  0  0  0  0  0  0  0  0  0  0
  -30.6310  -28.0030   20.1990 C   0  0  0  0  0  0  0  0  0  0  0  0
  -33.4990  -26.8770   16.1700 C   0  0  0  0  0  3  0  0  0  0  0  0
  -32.8210  -27.7760   18.4520 C   0  0  0  0  0  0  0  0  0  0  0  0
  -31.4320  -28.3390   16.4530 C   0  0  0  0  0  2  0  0  0  0  0  0
  -31.5620  -28.1350   17.9510 C   0  0  0  0  0  0  0  0  0  0  0  0
  -30.4590  -28.2630   18.8240 C   0  0  0  0  0  3  0  0  0  0  0  0
  -31.9160  -27.7060   20.6990 C   0  0  0  0  0  3  0  0  0  0  0  0
  -33.0010  -27.5470   19.8280 C   0  0  0  0  0  3  0  0  0  0  0  0
  -33.9400  -27.6560   17.4430 C   0  0  0  0  0  2  0  0  0  0  0  0
  -32.1870  -27.3600   15.6360 N   0  0  0  0  0  0  0  0  0  0  0  0
  -32.4290  -26.1620   13.7230 O   0  0  0  0  0  0  0  0  0  0  0  0
  -33.3930  -25.4480   16.6400 C   0  0  0  0  0  0  0  0  0  0  0  0
  -34.5230  -24.8800   17.0950 N   0  0  0  0  0  0  0  0  0  0  0  0
  -32.2700  -24.9480   16.7420 O   0  0  0  0  0  0  0  0  0  0  0  0
  -35.4080  -25.3440   16.9610 H   0  0  0  0  0  0  0  0  0  0  0  0
  -36.8760  -23.2060   17.8970 C   0  0  0  0  0  3  0  0  0  0  0  0
  -34.4040  -23.8230   18.1110 C   0  0  0  0  0  3  0  0  0  0  0  0
  -34.8340  -24.1250   19.4920 C   0  0  0  0  0  2  0  0  0  0  0  0
  -36.0600  -23.4380   20.1490 C   0  0  0  0  0  2  0  0  0  0  0  0
  -37.3100  -23.3880   19.2990 C   0  0  0  0  0  2  0  0  0  0  0  0
  -35.2310  -22.6700   17.8760 C   0  0  0  0  0  2  0  0  0  0  0  0
  -35.1210  -20.5590   16.4780 C   0  0  0  0  0  1  0  0  0  0  0  0
  -36.7760  -20.3600   15.7650 C   0  0  0  0  0  2  0  0  0  0  0  0
  -38.0590  -21.3210   16.1060 C   0  0  0  0  0  3  0  0  0  0  0  0
  -38.0900  -22.5450   17.0740 C   0  0  0  0  0  3  0  0  0  0  0  0
  -30.4010  -27.4350   13.8160 C   0  0  0  0  0  3  0  0  0  0  0  0
  -30.5950  -27.5350   12.3650 N   0  0  0  0  0  0  0  0  0  0  0  0
  -31.0500  -28.6240   11.7380 C   0  0  0  0  0  0  0  0  0  0  0  0
  -31.2730  -29.6860   12.3250 O   0  0  0  0  0  0  0  0  0  0  0  0
  -30.4970  -26.6850   11.8320 H   0  0  0  0  0  0  0  0  0  0  0  0
  -32.7950  -28.4450    9.9330 C   0  0  0  0  0  1  0  0  0  0  0  0
  -31.2880  -28.5210   10.2190 C   0  0  0  0  0  3  0  0  0  0  0  0
  -29.2290  -29.5740    9.3900 C   0  0  0  0  0  1  0  0  0  0  0  0
  -30.6870  -29.6350    9.4550 N   0  0  0  0  0  0  0  0  0  0  0  0
  -31.0480  -29.6580    8.5060 H   0  0  0  0  0  0  0  0  0  0  0  0
  -29.1570  -26.5230   14.1490 C   0  0  1  0  0  0  0  0  0  0  0  0
  -29.3700  -25.0350   13.8120 C   0  0  0  0  0  1  0  0  0  0  0  0
  -28.7810  -26.6320   15.6470 C   0  0  0  0  0  1  0  0  0  0  0  0
  -27.9300  -27.0110   13.3490 C   0  0  0  0  0  1  0  0  0  0  0  0
  -27.1640  -20.6560   19.8740 C   0  0  0  0  0 15  0  0  0  0  0  0
  -28.6080  -18.6010   19.9290 C   0  0  0  0  0 15  0  0  0  0  0  0
  -30.0180  -16.7900   19.3670 C   0  0  0  0  0  2  0  0  0  0  0  0
  -31.1220  -14.0680   18.6280 C   0  0  0  0  0  2  0  0  0  0  0  0
  -30.4980  -12.9670   17.6320 C   0  0  0  0  0  2  0  0  0  0  0  0
  -29.1960  -12.3760   18.1670 C   0  0  0  0  0  2  0  0  0  0  0  0
  -28.5520  -13.5140   18.9540 C   0  0  0  0  0  3  0  0  0  0  0  0
  -29.4030  -14.1750   20.0490 C   0  0  0  0  0  2  0  0  0  0  0  0
  -30.1590  -15.2000   19.3400 N   0  0  0  0  0  0  0  0  0  0  0  0
  -31.2470  -16.8260   18.9370 O   0  0  0  0  0  1  0  0  0  0  0  0
  -26.4380  -14.2580   19.9440 C   0  0  0  0  0  0  0  0  0  0  0  0
  -25.3820  -13.5870   20.4610 C   0  0  0  0  0  0  0  0  0  0  0  0
  -25.6990  -12.1960   20.3430 C   0  0  0  0  0  0  0  0  0  0  0  0
  -27.2950  -13.2690   19.5260 N   0  0  0  0  0  0  0  0  0  0  0  0
  -26.9070  -12.0180   19.8360 N   0  0  0  0  0  0  0  0  0  0  0  0
  -24.8910  -11.0180   20.6150 C   0  0  0  0  0  0  0  0  0  0  0  0
  -25.2410  -10.0890   21.6180 C   0  0  0  0  0  3  0  0  0  0  0  0
  -24.4180   -8.9690   21.8580 C   0  0  0  0  0  3  0  0  0  0  0  0
  -23.2420   -8.7790   21.0940 C   0  0  0  0  0  0  0  0  0  0  0  0
  -22.9170   -9.6980   20.0810 C   0  0  0  0  0  3  0  0  0  0  0  0
  -23.7370  -10.8070   19.8390 C   0  0  0  0  0  3  0  0  0  0  0  0
  -22.3910   -7.7140   21.2460 O   0  0  0  0  0  0  0  0  0  0  0  0
  -22.0940   -7.2040   22.4820 C   0  0  0  0  0  0  0  0  0  0  0  0
  -21.5700   -8.0100   23.5170 C   0  0  0  0  0  3  0  0  0  0  0  0
  -21.2150   -7.4280   24.7490 C   0  0  0  0  0  3  0  0  0  0  0  0
  -21.3710   -6.0440   24.9460 C   0  0  0  0  0  0  0  0  0  0  0  0
  -21.8890   -5.2390   23.9160 C   0  0  0  0  0  3  0  0  0  0  0  0
  -22.2480   -5.8180   22.6860 C   0  0  0  0  0  0  0  0  0  0  0  0
  -22.7280   -5.0350   21.6890 F   0  0  0  0  0  0  0  0  0  0  0  0
  -21.0200   -5.4840   26.1270 F   0  0  0  0  0  0  0  0  0  0  0  0
  -24.1150  -14.2140   20.9340 C   0  0  0  0  0  0  0  0  0  0  0  0
  -23.4950  -13.6320   21.9500 N   0  0  0  0  0  0  0  0  0  0  0  0
  -23.7020  -15.2610   20.4350 O   0  0  0  0  0  0  0  0  0  0  0  0
  -23.8520  -12.7830   22.3640 H   0  0  0  0  0  0  0  0  0  0  0  0
  -22.6420  -14.0320   22.3150 H   0  0  0  0  0  0  0  0  0  0  0  0
  -26.7490  -15.6090   19.7790 N   0  0  0  0  0  0  0  0  0  0  0  0
  -26.1030  -16.3500   20.0250 H   0  0  0  0  0  0  0  0  0  0  0  0
  -27.5450  -15.9340   19.2490 H   0  0  0  0  0  0  0  0  0  0  0  0
  1 14  1  0
  2  1  2  0
  5 10  1  0
  5  7  1  0
  6  4  1  0
  6  9  1  0
  7 12  1  0
  8  7  2  0
  8 13  1  0
  9  8  1  0
 11  6  1  0
 15 16  1  0
 15 14  1  0
 17 16  1  0
 18 28  1  0
 19 25  1  0
 19 17  1  0
 20 30  1  0
 20 27  1  0
 21 26  1  0
 22 23  1  0
 23 21  2  0
 23 24  1  0
 24 19  2  0
 26 25  2  0
 27 21  1  0
 28 20  1  0
 28 22  1  0
 29 18  2  0
 30 32  2  0
 30 31  1  0
 33 31  1  0
 34 43  1  0
 34 38  1  0
 35 31  1  0
 35 36  1  0
 36 37  1  0
 38 37  1  0
 39 34  1  0
 39 35  1  0
 41 42  1  0
 41 40  1  0
 42 43  2  0
 44 54  1  0
 44 18  1  0
 45 44  1  0
 46 47  2  0
 46 45  1  0
 48 45  1  0
 50 49  1  0
 50 46  1  0
 51 52  1  0
 52 50  1  0
 53 52  1  0
 54 56  1  1
 55 54  1  0
 57 54  1  0
 61 66  1  0
 62 63  1  0
 62 61  1  0
 64 63  1  0
 64 71  1  0
 64 65  1  0
 66 60  1  0
 66 65  1  0
 67 60  1  0
 68 69  2  0
 69 88  1  0
 70 69  1  0
 70 73  1  0
 71 72  1  0
 71 68  1  0
 72 70  2  0
 73 74  1  0
 74 75  2  0
 76 79  1  0
 76 75  1  0
 77 76  2  0
 78 77  1  0
 78 73  2  0
 79 80  1  0
 80 85  2  0
 80 81  1  0
 81 82  2  0
 82 83  1  0
 83 87  1  0
 84 83  2  0
 85 84  1  0
 86 85  1  0
 88 89  1  0
 89 92  1  0
 89 91  1  0
 90 88  2  0
 93 68  1  0
 93 94  1  0
 95 93  1  0
M  ISO  4  16 101  17 101  59 100  60 100
M  END
>  <TORSDO>  (87) 
F 23

>  <SCORE>  (87) 
-6.126

>  <name>  (87) 
86

>  <ligand_id>  (87) 
86

>  <original_smiles>  (87) 
[H]C(=C(C([H])([H])c1c(C([H])([H])[H])c([H])c(C([H])([H])[H])c(C([H])([H])[H])c1C([H])([H])[H])C([H])([H])C([H])([H])C(=O)N1C([H])([H])C([H])([H])C([H])([H])C([H])(n2nc(-c3c([H])c([H])c(Oc4c([H])c([H])c(F)c([H])c4F)c([H])c3[H])c(C(=O)N([H])[H])c2N([H])[H])C1([H])[H])C([H])([H])C([H])([H])C([H])([H])Oc1c([H])c([H])c2c(c1[H])C([H])([H])N(C(=O)C([H])(N([H])C(=O)C([H])(N([H])C([H])([H])[H])C([H])([H])[H])C(C([H])([H])[H])(C([H])([H])[H])C([H])([H])[H])C([H])(C(=O)N([H])C1([H])c3c([H])c([H])c([H])c([H])c3C([H])([H])C([H])([H])C1([H])[H])C2([H])[H]

>  <smiles>  (87) 
[H]C(=C(C([H])([H])c1c(C([H])([H])[H])c([H])c(C([H])([H])[H])c(C([H])([H])[H])c1C([H])([H])[H])C([H])([H])C([H])([H])C(=O)N1C([H])([H])C([H])([H])C([H])([H])C([H])(n2nc(-c3c([H])c([H])c(Oc4c([H])c([H])c(F)c([H])c4F)c([H])c3[H])c(C(=O)N([H])[H])c2N([H])[H])C1([H])[H])C([H])([H])C([H])([H])C([H])([H])Oc1c([H])c([H])c2c(c1[H])C([H])([H])N(C(=O)C([H])(N([H])C(=O)C([H])(N([H])C([H])([H])[H])C([H])([H])[H])C(C([H])([H])[H])(C([H])([H])[H])C([H])([H])[H])C([H])(C(=O)N([H])C1([H])c3c([H])c([H])c([H])c([H])c3C([H])([H])C([H])([H])C1([H])[H])C2([H])[H]

$$$$
87:0:0
     RDKit          3D

100110  0  0  1  0  0  0  0  0999 V2000
  -31.0730  -19.8420   19.4110 C   0  0  0  0  0  3  0  0  0  0  0  0
  -31.8230  -21.4280   21.6090 C   0  0  0  0  0  3  0  0  0  0  0  0
  -31.0080  -21.2500   19.3140 C   0  0  0  0  0  0  0  0  0  0  0  0
  -31.4010  -22.0450   20.4130 C   0  0  0  0  0  0  0  0  0  0  0  0
  -31.4910  -19.2310   20.6130 C   0  0  0  0  0  0  0  0  0  0  0  0
  -31.8540  -20.0310   21.7140 C   0  0  0  0  0  0  0  0  0  0  0  0
  -30.5010  -21.8940   18.0370 C   0  0  0  0  0  2  0  0  0  0  0  0
  -31.3610  -23.5610   20.3790 C   0  0  0  0  0  2  0  0  0  0  0  0
  -29.9150  -23.2990   18.2880 C   0  0  0  0  0  2  0  0  0  0  0  0
  -32.0530  -24.6630   18.1570 C   0  0  0  0  0  2  0  0  0  0  0  0
  -30.4190  -26.4140   18.0540 C   0  0  0  0  0  2  0  0  0  0  0  0
  -30.8730  -24.2480   19.0710 C   0  0  2  0  0  0  0  0  0  0  0  0
  -30.2410  -25.6480   19.3810 C   0  0  1  0  0  0  0  0  0  0  0  0
  -31.0650  -26.4140   20.4730 C   0  0  0  0  0  1  0  0  0  0  0  0
  -32.6570  -26.8130   17.0700 C   0  0  0  0  0  1  0  0  0  0  0  0
  -31.5940  -25.8320   17.3730 N   0  0  1  0  0  4  0  0  0  0  0  0
  -32.2350  -19.4580   22.8810 F   0  0  0  0  0  0  0  0  0  0  0  0
  -31.2600  -25.4790   16.4890 H   0  0  0  0  0  0  0  0  0  0  0  0
  -31.5250  -17.7220   20.7440 C   0  0  0  0  0  2  0  0  0  0  0  0
  -30.1220  -17.1400   20.9960 C   0  0  0  0  0  2  0  0  0  0  0  0
  -30.0690  -15.8870   21.8990 C   0  0  0  0  0  2  0  0  0  0  0  0
  -31.0860  -14.7540   21.6330 C   0  0  0  0  0  2  0  0  0  0  0  0
  -31.1200  -14.1570   20.2170 C   0  0  0  0  0  0  0  0  0  0  0  0
  -30.5980  -12.1670   18.8440 C   0  0  0  0  0  2  0  0  0  0  0  0
  -29.6120  -12.4720   17.7080 C   0  0  0  0  0  2  0  0  0  0  0  0
  -28.1570  -12.3680   18.2050 C   0  0  0  0  0  2  0  0  0  0  0  0
  -27.9180  -13.1680   19.5130 C   0  0  0  0  0  3  0  0  0  0  0  0
  -29.0090  -12.8570   20.5640 C   0  0  0  0  0  2  0  0  0  0  0  0
  -30.3230  -13.0970   19.9470 N   0  0  0  0  0  0  0  0  0  0  0  0
  -32.0070  -14.5370   19.4440 O   0  0  0  0  0  0  0  0  0  0  0  0
  -25.5610  -13.8340   20.3080 C   0  0  0  0  0  0  0  0  0  0  0  0
  -24.4890  -13.0900   20.7150 C   0  0  0  0  0  0  0  0  0  0  0  0
  -24.9090  -11.7260   20.6540 C   0  0  0  0  0  0  0  0  0  0  0  0
  -26.5740  -12.9290   20.0370 N   0  0  0  0  0  0  0  0  0  0  0  0
  -26.1850  -11.6530   20.3000 N   0  0  0  0  0  0  0  0  0  0  0  0
  -24.1550  -10.4830   20.8630 C   0  0  0  0  0  0  0  0  0  0  0  0
  -24.5540   -9.5320   21.8280 C   0  0  0  0  0  3  0  0  0  0  0  0
  -23.8050   -8.3510   22.0230 C   0  0  0  0  0  3  0  0  0  0  0  0
  -22.6390   -8.1190   21.2530 C   0  0  0  0  0  0  0  0  0  0  0  0
  -22.2590   -9.0570   20.2780 C   0  0  0  0  0  3  0  0  0  0  0  0
  -23.0090  -10.2260   20.0810 C   0  0  0  0  0  3  0  0  0  0  0  0
  -21.8570   -6.9940   21.3580 O   0  0  0  0  0  0  0  0  0  0  0  0
  -21.7260   -6.3200   22.5430 C   0  0  0  0  0  0  0  0  0  0  0  0
  -21.2080   -6.9370   23.7040 C   0  0  0  0  0  3  0  0  0  0  0  0
  -21.0230   -6.1840   24.8800 C   0  0  0  0  0  3  0  0  0  0  0  0
  -21.3500   -4.8130   24.8990 C   0  0  0  0  0  0  0  0  0  0  0  0
  -21.8650   -4.1970   23.7450 C   0  0  0  0  0  3  0  0  0  0  0  0
  -22.0470   -4.9480   22.5700 C   0  0  0  0  0  0  0  0  0  0  0  0
  -22.5200   -4.3420   21.4530 F   0  0  0  0  0  0  0  0  0  0  0  0
  -21.1740   -4.0870   26.0280 F   0  0  0  0  0  0  0  0  0  0  0  0
  -23.1150  -13.6010   21.0490 C   0  0  0  0  0  0  0  0  0  0  0  0
  -22.4080  -12.9160   21.9390 N   0  0  0  0  0  0  0  0  0  0  0  0
  -22.6840  -14.6460   20.5640 O   0  0  0  0  0  0  0  0  0  0  0  0
  -22.7710  -12.0660   22.3420 H   0  0  0  0  0  0  0  0  0  0  0  0
  -21.4920  -13.2400   22.2160 H   0  0  0  0  0  0  0  0  0  0  0  0
  -25.7550  -15.2000   20.1270 N   0  0  0  0  0  0  0  0  0  0  0  0
  -25.0260  -15.8830   20.3010 H   0  0  0  0  0  0  0  0  0  0  0  0
  -26.5970  -15.6050   19.7350 H   0  0  0  0  0  0  0  0  0  0  0  0
  -28.7350  -25.6040   19.7920 C   0  0  0  0  0  2  0  0  0  0  0  0
  -28.4380  -26.8800   20.3200 O   0  0  0  0  0  0  0  0  0  0  0  0
  -24.5010  -31.9280   23.2240 C   0  0  0  0  0  0  0  0  0  0  0  0
  -27.1940  -27.4500   20.2870 C   0  0  0  0  0  0  0  0  0  0  0  0
  -23.2990  -30.4570   21.6330 C   0  0  0  0  0  3  0  0  0  0  0  0
  -24.7620  -28.8790   20.2640 C   0  0  0  0  0  0  0  0  0  0  0  0
  -25.8100  -30.8500   21.4050 C   0  0  0  0  0  2  0  0  0  0  0  0
  -25.9080  -29.4560   20.8230 C   0  0  0  0  0  0  0  0  0  0  0  0
  -27.1180  -28.7440   20.8350 C   0  0  0  0  0  3  0  0  0  0  0  0
  -26.0300  -26.8610   19.7410 C   0  0  0  0  0  3  0  0  0  0  0  0
  -24.8160  -27.5790   19.7250 C   0  0  0  0  0  3  0  0  0  0  0  0
  -23.5090  -29.7210   20.2780 C   0  0  0  0  0  2  0  0  0  0  0  0
  -24.5550  -31.0950   22.1460 N   0  0  0  0  0  0  0  0  0  0  0  0
  -23.4200  -32.2090   23.7600 O   0  0  0  0  0  0  0  0  0  0  0  0
  -22.6630  -29.4670   22.6320 C   0  0  0  0  0  0  0  0  0  0  0  0
  -21.3440  -29.2540   22.5010 N   0  0  0  0  0  0  0  0  0  0  0  0
  -23.3530  -28.8890   23.4750 O   0  0  0  0  0  0  0  0  0  0  0  0
  -20.8510  -29.7710   21.7860 H   0  0  0  0  0  0  0  0  0  0  0  0
  -17.9870  -28.0320   23.0170 C   0  0  0  0  0  0  0  0  0  0  0  0
  -20.5370  -28.3360   23.3010 C   0  0  0  0  0  3  0  0  0  0  0  0
  -20.6670  -26.8870   22.7800 C   0  0  0  0  0  2  0  0  0  0  0  0
  -19.5790  -26.5100   21.7690 C   0  0  0  0  0  2  0  0  0  0  0  0
  -18.1890  -26.6600   22.3970 C   0  0  0  0  0  2  0  0  0  0  0  0
  -19.0910  -28.8260   23.4270 C   0  0  0  0  0  0  0  0  0  0  0  0
  -18.8510  -30.1080   23.9640 C   0  0  0  0  0  3  0  0  0  0  0  0
  -17.5390  -30.5990   24.0990 C   0  0  0  0  0  3  0  0  0  0  0  0
  -16.4490  -29.8030   23.7070 C   0  0  0  0  0  3  0  0  0  0  0  0
  -16.6740  -28.5220   23.1720 C   0  0  0  0  0  3  0  0  0  0  0  0
  -25.7870  -32.5860   23.8170 C   0  0  0  0  0  3  0  0  0  0  0  0
  -25.4660  -33.9850   24.1280 N   0  0  0  0  0  0  0  0  0  0  0  0
  -25.8050  -35.0300   23.3600 C   0  0  0  0  0  0  0  0  0  0  0  0
  -26.4950  -34.9200   22.3420 O   0  0  0  0  0  0  0  0  0  0  0  0
  -24.8580  -34.1450   24.9190 H   0  0  0  0  0  0  0  0  0  0  0  0
  -24.0920  -36.8160   22.9230 C   0  0  0  0  0  1  0  0  0  0  0  0
  -25.2950  -36.4180   23.7920 C   0  0  0  0  0  3  0  0  0  0  0  0
  -27.3920  -37.3020   24.7130 C   0  0  0  0  0  1  0  0  0  0  0  0
  -26.3290  -37.4730   23.7260 N   0  0  0  0  0  0  0  0  0  0  0  0
  -25.9140  -38.3900   23.8670 H   0  0  0  0  0  0  0  0  0  0  0  0
  -26.3370  -31.8400   25.0950 C   0  0  1  0  0  0  0  0  0  0  0  0
  -25.2590  -31.5890   26.1760 C   0  0  0  0  0  1  0  0  0  0  0  0
  -26.9450  -30.4710   24.7060 C   0  0  0  0  0  1  0  0  0  0  0  0
  -27.4780  -32.6640   25.7370 C   0  0  0  0  0  1  0  0  0  0  0  0
  1  5  1  0
  2  6  1  0
  3  1  2  0
  3  4  1  0
  4  2  2  0
  5 19  1  0
  5  6  2  0
  6 17  1  0
  7  9  1  0
  7  3  1  0
  8  4  1  0
 12  9  1  6
 11 13  1  0
 12 10  1  0
 12 13  1  0
 12  8  1  0
 13 59  1  0
 13 14  1  1
 15 16  1  0
 16 11  1  0
 16 10  1  0
 16 18  1  6
 19 20  1  0
 20 21  1  0
 22 21  1  0
 23 22  1  0
 24 29  1  0
 25 26  1  0
 25 24  1  0
 27 26  1  0
 27 34  1  0
 27 28  1  0
 29 23  1  0
 29 28  1  0
 30 23  2  0
 31 32  2  0
 32 51  1  0
 33 32  1  0
 33 36  1  0
 34 35  1  0
 34 31  1  0
 35 33  2  0
 36 37  1  0
 37 38  2  0
 39 42  1  0
 39 38  1  0
 40 39  2  0
 41 40  1  0
 41 36  2  0
 42 43  1  0
 43 48  2  0
 43 44  1  0
 44 45  2  0
 45 46  1  0
 46 50  1  0
 47 46  2  0
 48 47  1  0
 49 48  1  0
 51 52  1  0
 52 55  1  0
 52 54  1  0
 53 51  2  0
 56 57  1  0
 56 31  1  0
 58 56  1  0
 59 60  1  0
 61 72  2  0
 62 60  1  0
 62 67  1  0
 63 71  1  0
 63 73  1  0
 64 70  1  0
 64 66  1  0
 65 71  1  0
 66 67  2  0
 66 65  1  0
 68 62  2  0
 69 68  1  0
 69 64  2  0
 70 63  1  0
 71 61  1  0
 73 75  2  0
 74 73  1  0
 76 74  1  0
 77 86  2  0
 77 82  1  0
 78 74  1  0
 78 82  1  0
 79 78  1  0
 80 81  1  0
 80 79  1  0
 81 77  1  0
 82 83  2  0
 83 84  1  0
 85 84  2  0
 86 85  1  0
 87 61  1  0
 87 88  1  0
 87 97  1  0
 88 91  1  0
 89 93  1  0
 89 88  1  0
 90 89  2  0
 93 92  1  0
 95 93  1  0
 95 96  1  0
 95 94  1  0
 97100  1  1
 97 98  1  0
 99 97  1  0
M  ISO  4  22 100  23 100  59 101  60 101
M  END
>  <TORSDO>  (88) 
F 21

>  <SCORE>  (88) 
-13.302

>  <name>  (88) 
87

>  <ligand_id>  (88) 
87

>  <original_smiles>  (88) 
[H]c1c([H])c([H])c2c(c1[H])C([H])([H])C([H])([H])C([H])([H])C2([H])N([H])C(=O)C1([H])N(C(=O)C([H])(N([H])C(=O)C([H])(N([H])C([H])([H])[H])C([H])([H])[H])C(C([H])([H])[H])(C([H])([H])[H])C([H])([H])[H])C([H])([H])c2c([H])c(OC([H])([H])C3(C([H])([H])[H])C4(C([H])([H])c5c([H])c(F)c(C([H])([H])C([H])([H])C([H])([H])C([H])([H])C(=O)N6C([H])([H])C([H])([H])C([H])([H])C([H])(n7nc(-c8c([H])c([H])c(Oc9c([H])c([H])c(F)c([H])c9F)c([H])c8[H])c(C(=O)N([H])[H])c7N([H])[H])C6([H])[H])c([H])c5C([H])([H])C4([H])[H])C([H])([H])[N+]([H])(C([H])([H])[H])C3([H])[H])c([H])c([H])c2C1([H])[H]

>  <smiles>  (88) 
[H]c1c([H])c([H])c2c(c1[H])C([H])([H])C([H])([H])C([H])([H])C2([H])N([H])C(=O)C1([H])N(C(=O)C([H])(N([H])C(=O)C([H])(N([H])C([H])([H])[H])C([H])([H])[H])C(C([H])([H])[H])(C([H])([H])[H])C([H])([H])[H])C([H])([H])c2c([H])c(OC([H])([H])C3(C([H])([H])[H])C4(C([H])([H])c5c([H])c(F)c(C([H])([H])C([H])([H])C([H])([H])C([H])([H])C(=O)N6C([H])([H])C([H])([H])C([H])([H])C([H])(n7nc(-c8c([H])c([H])c(Oc9c([H])c([H])c(F)c([H])c9F)c([H])c8[H])c(C(=O)N([H])[H])c7N([H])[H])C6([H])[H])c([H])c5C([H])([H])C4([H])[H])C([H])([H])[N+]([H])(C([H])([H])[H])C3([H])[H])c([H])c([H])c2C1([H])[H]

$$$$
88:0:0
     RDKit          3D

103112  0  0  1  0  0  0  0  0999 V2000
  -30.4830  -24.8650   20.5960 C   0  0  0  0  0  0  0  0  0  0  0  0
  -31.3440  -25.5680   20.0610 O   0  0  0  0  0  0  0  0  0  0  0  0
  -29.9130  -24.8710   23.0150 C   0  0  0  0  0  3  0  0  0  0  0  0
  -29.0720  -25.1880   24.0990 C   0  0  0  0  0  3  0  0  0  0  0  0
  -27.6440  -26.4400   22.5950 C   0  0  0  0  0  3  0  0  0  0  0  0
  -29.6330  -25.3510   21.7140 C   0  0  0  0  0  0  0  0  0  0  0  0
  -27.9160  -25.9550   23.8840 C   0  0  0  0  0  0  0  0  0  0  0  0
  -28.5140  -26.1920   21.4910 C   0  0  0  0  0  0  0  0  0  0  0  0
  -27.0400  -26.2350   24.9340 N   0  0  0  0  0  0  0  0  0  0  0  0
  -27.3260  -26.1180   25.9020 H   0  0  0  0  0  0  0  0  0  0  0  0
  -26.2880  -26.9050   24.8050 H   0  0  0  0  0  0  0  0  0  0  0  0
  -28.2830  -26.7240   20.2250 O   0  0  0  0  0  0  0  0  0  0  0  0
  -24.5190  -31.8910   23.2010 C   0  0  0  0  0  0  0  0  0  0  0  0
  -27.1720  -27.5140   20.0810 C   0  0  0  0  0  0  0  0  0  0  0  0
  -23.3140  -30.4940   21.5500 C   0  0  0  0  0  3  0  0  0  0  0  0
  -24.7720  -28.9810   20.0980 C   0  0  0  0  0  0  0  0  0  0  0  0
  -25.8280  -30.8830   21.3410 C   0  0  0  0  0  2  0  0  0  0  0  0
  -25.9250  -29.5270   20.6760 C   0  0  0  0  0  0  0  0  0  0  0  0
  -27.1360  -28.8060   20.6500 C   0  0  0  0  0  3  0  0  0  0  0  0
  -26.0130  -26.9770   19.4900 C   0  0  0  0  0  3  0  0  0  0  0  0
  -24.8100  -27.7100   19.4950 C   0  0  0  0  0  3  0  0  0  0  0  0
  -23.5170  -29.8220   20.1650 C   0  0  0  0  0  2  0  0  0  0  0  0
  -24.5740  -31.0990   22.0920 N   0  0  0  0  0  0  0  0  0  0  0  0
  -23.4370  -32.1550   23.7440 O   0  0  0  0  0  0  0  0  0  0  0  0
  -22.6700  -29.4620   22.5020 C   0  0  0  0  0  0  0  0  0  0  0  0
  -21.3450  -29.2850   22.3830 N   0  0  0  0  0  0  0  0  0  0  0  0
  -23.3600  -28.8230   23.3000 O   0  0  0  0  0  0  0  0  0  0  0  0
  -20.8520  -29.8550   21.7090 H   0  0  0  0  0  0  0  0  0  0  0  0
  -17.9700  -28.1220   22.9120 C   0  0  0  0  0  0  0  0  0  0  0  0
  -20.5310  -28.3420   23.1490 C   0  0  0  0  0  3  0  0  0  0  0  0
  -20.6080  -26.9230   22.5410 C   0  0  0  0  0  2  0  0  0  0  0  0
  -19.4860  -26.6310   21.5400 C   0  0  0  0  0  2  0  0  0  0  0  0
  -18.1170  -26.7850   22.2080 C   0  0  0  0  0  2  0  0  0  0  0  0
  -19.1030  -28.8630   23.3380 C   0  0  0  0  0  0  0  0  0  0  0  0
  -18.9100  -30.1190   23.9540 C   0  0  0  0  0  3  0  0  0  0  0  0
  -17.6130  -30.6350   24.1430 C   0  0  0  0  0  3  0  0  0  0  0  0
  -16.4940  -29.8900   23.7310 C   0  0  0  0  0  3  0  0  0  0  0  0
  -16.6720  -28.6350   23.1240 C   0  0  0  0  0  3  0  0  0  0  0  0
  -25.8060  -32.5200   23.8240 C   0  0  0  0  0  3  0  0  0  0  0  0
  -25.5010  -33.9130   24.1700 N   0  0  0  0  0  0  0  0  0  0  0  0
  -25.8340  -34.9720   23.4220 C   0  0  0  0  0  0  0  0  0  0  0  0
  -26.5050  -34.8780   22.3910 O   0  0  0  0  0  0  0  0  0  0  0  0
  -24.9280  -34.0560   24.9890 H   0  0  0  0  0  0  0  0  0  0  0  0
  -24.1230  -36.7720   23.0580 C   0  0  0  0  0  1  0  0  0  0  0  0
  -25.3460  -36.3570   23.8890 C   0  0  0  0  0  3  0  0  0  0  0  0
  -27.4650  -37.2220   24.7730 C   0  0  0  0  0  1  0  0  0  0  0  0
  -26.3880  -37.4050   23.8060 N   0  0  0  0  0  0  0  0  0  0  0  0
  -25.9900  -38.3310   23.9420 H   0  0  0  0  0  0  0  0  0  0  0  0
  -26.3350  -31.7320   25.0850 C   0  0  1  0  0  0  0  0  0  0  0  0
  -25.2510  -31.4800   26.1610 C   0  0  0  0  0  1  0  0  0  0  0  0
  -26.9190  -30.3660   24.6560 C   0  0  0  0  0  1  0  0  0  0  0  0
  -27.4890  -32.5180   25.7550 C   0  0  0  0  0  1  0  0  0  0  0  0
  -31.3000  -22.5600   19.9350 C   0  0  0  0  0  3  0  0  0  0  0  0
  -31.0340  -21.2090   19.6320 C   0  0  0  0  0  3  0  0  0  0  0  0
  -28.9140  -22.9610   20.1470 C   0  0  0  0  0  3  0  0  0  0  0  0
  -30.2380  -23.4440   20.2150 C   0  0  0  0  0  0  0  0  0  0  0  0
  -29.7080  -20.7210   19.5720 C   0  0  0  0  0  0  0  0  0  0  0  0
  -28.6320  -21.6190   19.8200 C   0  0  0  0  0  0  0  0  0  0  0  0
  -29.5020  -19.2560   19.2070 C   0  0  0  0  0  2  0  0  0  0  0  0
  -29.6680  -18.2900   20.4040 C   0  0  0  0  0  2  0  0  0  0  0  0
  -29.6540  -16.8130   19.9520 C   0  0  0  0  0  2  0  0  0  0  0  0
  -30.0100  -15.7660   21.0440 C   0  0  0  0  0  2  0  0  0  0  0  0
  -30.6550  -14.5060   20.4200 C   0  0  0  0  0  0  0  0  0  0  0  0
  -30.3350  -12.3580   19.2610 C   0  0  0  0  0  2  0  0  0  0  0  0
  -29.3950  -12.5860   18.0590 C   0  0  0  0  0  2  0  0  0  0  0  0
  -27.9200  -12.4510   18.4910 C   0  0  0  0  0  2  0  0  0  0  0  0
  -27.5930  -13.2820   19.7610 C   0  0  0  0  0  3  0  0  0  0  0  0
  -28.6490  -13.0370   20.8620 C   0  0  0  0  0  2  0  0  0  0  0  0
  -29.9740  -13.3350   20.2980 N   0  0  0  0  0  0  0  0  0  0  0  0
  -31.7760  -14.6620   19.9260 O   0  0  0  0  0  0  0  0  0  0  0  0
  -25.1990  -13.8910   20.4780 C   0  0  0  0  0  0  0  0  0  0  0  0
  -24.1340  -13.1180   20.8570 C   0  0  0  0  0  0  0  0  0  0  0  0
  -24.5950  -11.7670   20.8270 C   0  0  0  0  0  0  0  0  0  0  0  0
  -26.2430  -13.0090   20.2430 N   0  0  0  0  0  0  0  0  0  0  0  0
  -25.8820  -11.7280   20.5110 N   0  0  0  0  0  0  0  0  0  0  0  0
  -23.8700  -10.5040   21.0240 C   0  0  0  0  0  0  0  0  0  0  0  0
  -24.3090   -9.5400   21.9580 C   0  0  0  0  0  3  0  0  0  0  0  0
  -23.5840   -8.3430   22.1430 C   0  0  0  0  0  3  0  0  0  0  0  0
  -22.4080   -8.1040   21.3950 C   0  0  0  0  0  0  0  0  0  0  0  0
  -21.9870   -9.0580   20.4500 C   0  0  0  0  0  3  0  0  0  0  0  0
  -22.7120  -10.2460   20.2650 C   0  0  0  0  0  3  0  0  0  0  0  0
  -21.6550   -6.9600   21.4900 O   0  0  0  0  0  0  0  0  0  0  0  0
  -21.6140   -6.2170   22.6450 C   0  0  0  0  0  0  0  0  0  0  0  0
  -21.1910   -6.7730   23.8710 C   0  0  0  0  0  3  0  0  0  0  0  0
  -21.0980   -5.9590   25.0170 C   0  0  0  0  0  3  0  0  0  0  0  0
  -21.4160   -4.5890   24.9380 C   0  0  0  0  0  0  0  0  0  0  0  0
  -21.8320   -4.0340   23.7140 C   0  0  0  0  0  3  0  0  0  0  0  0
  -21.9260   -4.8450   22.5710 C   0  0  0  0  0  0  0  0  0  0  0  0
  -22.3070   -4.3000   21.3910 F   0  0  0  0  0  0  0  0  0  0  0  0
  -21.3190   -3.8060   26.0350 F   0  0  0  0  0  0  0  0  0  0  0  0
  -22.7390  -13.5960   21.1400 C   0  0  0  0  0  0  0  0  0  0  0  0
  -22.0200  -12.8990   22.0120 N   0  0  0  0  0  0  0  0  0  0  0  0
  -22.2970  -14.6230   20.6250 O   0  0  0  0  0  0  0  0  0  0  0  0
  -22.3910  -12.0650   22.4460 H   0  0  0  0  0  0  0  0  0  0  0  0
  -21.0860  -13.2020   22.2510 H   0  0  0  0  0  0  0  0  0  0  0  0
  -25.3590  -15.2610   20.2990 N   0  0  0  0  0  0  0  0  0  0  0  0
  -24.5940  -15.9140   20.4310 H   0  0  0  0  0  0  0  0  0  0  0  0
  -26.2100  -15.7100   19.9840 H   0  0  0  0  0  0  0  0  0  0  0  0
  -27.1600  -21.2410   19.7110 C   0  0  0  0  0  2  0  0  0  0  0  0
  -26.5160  -21.8580   18.4480 C   0  0  0  0  0  2  0  0  0  0  0  0
  -25.1370  -22.5060   18.6710 C   0  0  0  0  0  2  0  0  0  0  0  0
  -23.2970  -23.9300   17.5650 C   0  0  0  0  0  1  0  0  0  0  0  0
  -24.6900  -23.3020   17.4310 C   0  0  0  0  0  2  0  0  0  0  0  0
  1  6  1  0
  2  1  2  0
  3  4  1  0
  5  7  1  0
  6  3  2  0
  7  4  2  0
  7  9  1  0
  8  6  1  0
  8  5  2  0
  9 10  1  0
 11  9  1  0
 12  8  1  0
 13 24  2  0
 14 12  1  0
 14 19  1  0
 15 23  1  0
 15 25  1  0
 16 22  1  0
 16 18  1  0
 17 23  1  0
 18 17  1  0
 19 18  2  0
 20 21  1  0
 20 14  2  0
 21 16  2  0
 22 15  1  0
 23 13  1  0
 25 27  2  0
 26 25  1  0
 28 26  1  0
 29 38  2  0
 29 34  1  0
 30 26  1  0
 30 34  1  0
 31 30  1  0
 32 33  1  0
 32 31  1  0
 33 29  1  0
 34 35  2  0
 35 36  1  0
 37 36  2  0
 38 37  1  0
 39 13  1  0
 39 40  1  0
 39 49  1  0
 40 43  1  0
 41 45  1  0
 41 40  1  0
 42 41  2  0
 45 44  1  0
 47 45  1  0
 47 48  1  0
 47 46  1  0
 49 52  1  1
 49 50  1  0
 51 49  1  0
 53 56  1  0
 54 53  2  0
 55 56  2  0
 56  1  1  0
 57 54  1  0
 57 58  2  0
 58 55  1  0
 59 57  1  0
 59 60  1  0
 61 60  1  0
 61 62  1  0
 63 62  1  0
 64 69  1  0
 65 66  1  0
 65 64  1  0
 67 66  1  0
 67 74  1  0
 67 68  1  0
 69 63  1  0
 69 68  1  0
 70 63  2  0
 71 72  2  0
 72 91  1  0
 73 72  1  0
 73 76  1  0
 74 71  1  0
 74 75  1  0
 75 73  2  0
 76 77  1  0
 77 78  2  0
 79 82  1  0
 79 78  1  0
 80 79  2  0
 81 80  1  0
 81 76  2  0
 82 83  1  0
 83 84  1  0
 84 85  2  0
 86 85  1  0
 86 90  1  0
 87 86  2  0
 88 83  2  0
 88 87  1  0
 89 88  1  0
 91 92  1  0
 92 95  1  0
 92 94  1  0
 93 91  2  0
 96 97  1  0
 96 71  1  0
 98 96  1  0
 99 58  1  0
100101  1  0
100 99  1  0
103102  1  0
103101  1  0
M  ISO  4   8 101  12 101  62 100  63 100
M  END
>  <TORSDO>  (89) 
F 27

>  <SCORE>  (89) 
-12.009

>  <name>  (89) 
88

>  <ligand_id>  (89) 
88

>  <original_smiles>  (89) 
[H]c1c([H])c([H])c2c(c1[H])C([H])([H])C([H])([H])C([H])([H])C2([H])N([H])C(=O)C1([H])N(C(=O)C([H])(N([H])C(=O)C([H])(N([H])C([H])([H])[H])C([H])([H])[H])C(C([H])([H])[H])(C([H])([H])[H])C([H])([H])[H])C([H])([H])c2c([H])c(Oc3c([H])c(N([H])[H])c([H])c([H])c3C(=O)c3c([H])c([H])c(C([H])([H])C([H])([H])C([H])([H])C([H])([H])C(=O)N4C([H])([H])C([H])([H])C([H])([H])C([H])(n5nc(-c6c([H])c([H])c(Oc7c([H])c([H])c(F)c([H])c7F)c([H])c6[H])c(C(=O)N([H])[H])c5N([H])[H])C4([H])[H])c(C([H])([H])C([H])([H])C([H])([H])C([H])([H])C([H])([H])[H])c3[H])c([H])c([H])c2C1([H])[H]

>  <smiles>  (89) 
[H]c1c([H])c([H])c2c(c1[H])C([H])([H])C([H])([H])C([H])([H])C2([H])N([H])C(=O)C1([H])N(C(=O)C([H])(N([H])C(=O)C([H])(N([H])C([H])([H])[H])C([H])([H])[H])C(C([H])([H])[H])(C([H])([H])[H])C([H])([H])[H])C([H])([H])c2c([H])c(Oc3c([H])c(N([H])[H])c([H])c([H])c3C(=O)c3c([H])c([H])c(C([H])([H])C([H])([H])C([H])([H])C([H])([H])C(=O)N4C([H])([H])C([H])([H])C([H])([H])C([H])(n5nc(-c6c([H])c([H])c(Oc7c([H])c([H])c(F)c([H])c7F)c([H])c6[H])c(C(=O)N([H])[H])c5N([H])[H])C4([H])[H])c(C([H])([H])C([H])([H])C([H])([H])C([H])([H])C([H])([H])[H])c3[H])c([H])c([H])c2C1([H])[H]

$$$$
89:0:0
     RDKit          3D

 92101  0  0  1  0  0  0  0  0999 V2000
  -29.1110  -22.2770   18.9310 C   0  0  0  0  0  3  0  0  0  0  0  0
  -28.5320  -22.0950   21.1300 C   0  0  0  0  0  3  0  0  0  0  0  0
  -29.0590  -21.2980   20.0250 C   0  0  0  0  0  0  0  0  0  0  0  0
  -28.7950  -23.7280   18.9290 C   0  0  0  0  0  0  0  0  0  0  0  0
  -28.1730  -23.5540   21.1430 C   0  0  0  0  0  0  0  0  0  0  0  0
  -28.3010  -24.5180   20.0420 C   0  0  0  0  0  0  0  0  0  0  0  0
  -29.0650  -24.4850   17.6340 C   0  0  0  0  0  1  0  0  0  0  0  0
  -27.6230  -24.1020   22.4460 C   0  0  0  0  0  1  0  0  0  0  0  0
  -30.5330  -15.3860   20.5250 C   0  0  0  0  0  0  0  0  0  0  0  0
  -30.5090  -12.9310   19.6960 C   0  0  0  0  0  2  0  0  0  0  0  0
  -29.6410  -12.6550   18.4470 C   0  0  0  0  0  2  0  0  0  0  0  0
  -28.1860  -12.3750   18.8560 C   0  0  0  0  0  2  0  0  0  0  0  0
  -27.6720  -13.3910   19.9040 C   0  0  0  0  0  3  0  0  0  0  0  0
  -28.6750  -13.6240   21.0560 C   0  0  0  0  0  2  0  0  0  0  0  0
  -29.9150  -14.1090   20.4250 N   0  0  0  0  0  0  0  0  0  0  0  0
  -31.7730  -15.3000   20.5280 O   0  0  0  0  0  0  0  0  0  0  0  0
  -30.5050  -19.5240   18.8990 C   0  0  0  0  0  3  0  0  0  0  0  0
  -29.6190  -19.6740   19.9040 C   0  0  0  0  0  0  0  0  0  0  0  0
  -29.4590  -18.1420   20.6720 C   0  0  0  0  0  2  0  0  0  0  0  0
  -30.3000  -16.9630   18.6640 C   0  0  0  0  0  2  0  0  0  0  0  0
  -31.1820  -18.2240   18.4620 C   0  0  0  0  0  3  0  0  0  0  0  0
  -31.6160  -18.3390   16.9880 C   0  0  0  0  0  1  0  0  0  0  0  0
  -29.9350  -16.6720   20.0680 N   0  0  0  0  0  0  0  0  0  0  0  0
  -25.2740  -13.9440   20.5680 C   0  0  0  0  0  0  0  0  0  0  0  0
  -24.2020  -13.1630   20.8950 C   0  0  0  0  0  0  0  0  0  0  0  0
  -24.6790  -11.8160   20.9050 C   0  0  0  0  0  0  0  0  0  0  0  0
  -26.3310  -13.0720   20.3730 N   0  0  0  0  0  0  0  0  0  0  0  0
  -25.9830  -11.7880   20.6510 N   0  0  0  0  0  0  0  0  0  0  0  0
  -23.9540  -10.5480   21.0730 C   0  0  0  0  0  0  0  0  0  0  0  0
  -24.3520   -9.5920   22.0320 C   0  0  0  0  0  3  0  0  0  0  0  0
  -23.6260   -8.3920   22.1900 C   0  0  0  0  0  3  0  0  0  0  0  0
  -22.4880   -8.1420   21.3880 C   0  0  0  0  0  0  0  0  0  0  0  0
  -22.1080   -9.0870   20.4200 C   0  0  0  0  0  3  0  0  0  0  0  0
  -22.8350  -10.2770   20.2600 C   0  0  0  0  0  3  0  0  0  0  0  0
  -21.7360   -6.9950   21.4550 O   0  0  0  0  0  0  0  0  0  0  0  0
  -21.6420   -6.2610   22.6120 C   0  0  0  0  0  0  0  0  0  0  0  0
  -21.1270   -6.8130   23.8050 C   0  0  0  0  0  3  0  0  0  0  0  0
  -20.9860   -6.0040   24.9510 C   0  0  0  0  0  3  0  0  0  0  0  0
  -21.3480   -4.6440   24.9040 C   0  0  0  0  0  0  0  0  0  0  0  0
  -21.8510   -4.0900   23.7130 C   0  0  0  0  0  3  0  0  0  0  0  0
  -21.9940   -4.8970   22.5700 C   0  0  0  0  0  0  0  0  0  0  0  0
  -22.4640   -4.3550   21.4200 F   0  0  0  0  0  0  0  0  0  0  0  0
  -21.2010   -3.8650   25.9990 F   0  0  0  0  0  0  0  0  0  0  0  0
  -22.7870  -13.6310   21.0880 C   0  0  0  0  0  0  0  0  0  0  0  0
  -22.0260  -12.9520   21.9370 N   0  0  0  0  0  0  0  0  0  0  0  0
  -22.3680  -14.6400   20.5230 O   0  0  0  0  0  0  0  0  0  0  0  0
  -22.3750  -12.1410   22.4240 H   0  0  0  0  0  0  0  0  0  0  0  0
  -21.0770  -13.2520   22.1100 H   0  0  0  0  0  0  0  0  0  0  0  0
  -25.4320  -15.3150   20.3870 N   0  0  0  0  0  0  0  0  0  0  0  0
  -24.6570  -15.9640   20.4650 H   0  0  0  0  0  0  0  0  0  0  0  0
  -26.3000  -15.7600   20.1090 H   0  0  0  0  0  0  0  0  0  0  0  0
  -28.2430  -26.0520   20.0810 O   0  0  0  0  0  0  0  0  0  0  0  0
  -24.6140  -31.8870   23.1510 C   0  0  0  0  0  0  0  0  0  0  0  0
  -27.1700  -27.0710   20.0750 C   0  0  0  0  0  0  0  0  0  0  0  0
  -23.4080  -30.4920   21.5200 C   0  0  0  0  0  3  0  0  0  0  0  0
  -24.8450  -28.9030   20.0710 C   0  0  0  0  0  0  0  0  0  0  0  0
  -25.9620  -30.7350   21.3310 C   0  0  0  0  0  2  0  0  0  0  0  0
  -26.0350  -29.3260   20.6780 C   0  0  0  0  0  0  0  0  0  0  0  0
  -27.1860  -28.4270   20.6570 C   0  0  0  0  0  3  0  0  0  0  0  0
  -25.9480  -26.7840   19.4280 C   0  0  0  0  0  3  0  0  0  0  0  0
  -24.8260  -27.6530   19.4260 C   0  0  0  0  0  3  0  0  0  0  0  0
  -23.6240  -29.8160   20.1350 C   0  0  0  0  0  2  0  0  0  0  0  0
  -24.6840  -31.0640   22.0550 N   0  0  0  0  0  0  0  0  0  0  0  0
  -23.5320  -32.1580   23.6940 O   0  0  0  0  0  0  0  0  0  0  0  0
  -22.7380  -29.4830   22.4910 C   0  0  0  0  0  0  0  0  0  0  0  0
  -21.4070  -29.3100   22.3850 N   0  0  0  0  0  0  0  0  0  0  0  0
  -23.4190  -28.8580   23.3070 O   0  0  0  0  0  0  0  0  0  0  0  0
  -20.9050  -29.8700   21.7130 H   0  0  0  0  0  0  0  0  0  0  0  0
  -18.0380  -28.0790   22.9360 C   0  0  0  0  0  0  0  0  0  0  0  0
  -20.6000  -28.3610   23.1630 C   0  0  0  0  0  3  0  0  0  0  0  0
  -20.7030  -26.9340   22.5770 C   0  0  0  0  0  2  0  0  0  0  0  0
  -19.5870  -26.6110   21.5780 C   0  0  0  0  0  2  0  0  0  0  0  0
  -18.2140  -26.7380   22.2460 C   0  0  0  0  0  2  0  0  0  0  0  0
  -19.1570  -28.8490   23.3530 C   0  0  0  0  0  0  0  0  0  0  0  0
  -18.9340  -30.1000   23.9660 C   0  0  0  0  0  3  0  0  0  0  0  0
  -17.6270  -30.5840   24.1600 C   0  0  0  0  0  3  0  0  0  0  0  0
  -16.5230  -29.8130   23.7560 C   0  0  0  0  0  3  0  0  0  0  0  0
  -16.7310  -28.5620   23.1490 C   0  0  0  0  0  3  0  0  0  0  0  0
  -25.8880  -32.5360   23.7700 C   0  0  0  0  0  3  0  0  0  0  0  0
  -25.5620  -33.9300   24.1200 N   0  0  0  0  0  0  0  0  0  0  0  0
  -25.8830  -35.0030   23.3840 C   0  0  0  0  0  0  0  0  0  0  0  0
  -26.5440  -34.9240   22.3470 O   0  0  0  0  0  0  0  0  0  0  0  0
  -24.9680  -34.0610   24.9260 H   0  0  0  0  0  0  0  0  0  0  0  0
  -24.1540  -36.8070   23.0750 C   0  0  0  0  0  1  0  0  0  0  0  0
  -25.3950  -36.3830   23.8740 C   0  0  0  0  0  3  0  0  0  0  0  0
  -27.5260  -37.2640   24.7220 C   0  0  0  0  0  1  0  0  0  0  0  0
  -26.4260  -37.4410   23.7790 N   0  0  0  0  0  0  0  0  0  0  0  0
  -26.0180  -38.3590   23.9350 H   0  0  0  0  0  0  0  0  0  0  0  0
  -26.4170  -31.7640   25.0420 C   0  0  1  0  0  0  0  0  0  0  0  0
  -25.3360  -31.5180   26.1220 C   0  0  0  0  0  1  0  0  0  0  0  0
  -27.0020  -30.3890   24.6460 C   0  0  0  0  0  1  0  0  0  0  0  0
  -27.5700  -32.5610   25.6970 C   0  0  0  0  0  1  0  0  0  0  0  0
  1  3  1  0
  2  5  1  0
  3  2  2  0
  4  1  2  0
  4  6  1  0
  5  8  1  0
  6 52  1  0
  6  5  2  0
  7  4  1  0
  9 16  2  0
 10 15  1  0
 11 12  1  0
 11 10  1  0
 13 12  1  0
 13 27  1  0
 13 14  1  0
 15  9  1  0
 15 14  1  0
 17 18  2  0
 18  3  1  0
 18 19  1  0
 20 23  1  0
 21 22  1  0
 21 20  1  0
 21 17  1  0
 23  9  1  0
 23 19  1  0
 24 25  2  0
 25 26  1  0
 25 44  1  0
 26 29  1  0
 27 24  1  0
 27 28  1  0
 28 26  2  0
 29 30  1  0
 30 31  2  0
 32 35  1  0
 32 31  1  0
 33 32  2  0
 34 33  1  0
 34 29  2  0
 35 36  1  0
 36 37  1  0
 37 38  2  0
 39 38  1  0
 39 43  1  0
 40 39  2  0
 41 36  2  0
 41 40  1  0
 42 41  1  0
 44 45  1  0
 45 48  1  0
 45 47  1  0
 46 44  2  0
 49 50  1  0
 49 24  1  0
 51 49  1  0
 53 64  2  0
 54 52  1  0
 54 59  1  0
 55 63  1  0
 55 65  1  0
 56 62  1  0
 56 58  1  0
 57 63  1  0
 58 57  1  0
 59 58  2  0
 60 54  2  0
 61 60  1  0
 61 56  2  0
 62 55  1  0
 63 53  1  0
 65 67  2  0
 66 65  1  0
 68 66  1  0
 69 78  2  0
 69 74  1  0
 70 66  1  0
 70 74  1  0
 71 70  1  0
 72 73  1  0
 72 71  1  0
 73 69  1  0
 74 75  2  0
 75 76  1  0
 77 76  2  0
 78 77  1  0
 79 53  1  0
 79 80  1  0
 79 89  1  0
 80 83  1  0
 81 85  1  0
 81 80  1  0
 82 81  2  0
 85 84  1  0
 87 85  1  0
 87 88  1  0
 87 86  1  0
 89 92  1  1
 89 90  1  0
 91 89  1  0
M  ISO  4   6 101   9 100  23 100  52 101
M  END
>  <TORSDO>  (90) 
F 16

>  <SCORE>  (90) 
-15.659

>  <name>  (90) 
89

>  <ligand_id>  (90) 
89

>  <original_smiles>  (90) 
[H]C1=C(c2c([H])c(C([H])([H])[H])c(Oc3c([H])c([H])c4c(c3[H])C([H])([H])N(C(=O)C([H])(N([H])C(=O)C([H])(N([H])C([H])([H])[H])C([H])([H])[H])C(C([H])([H])[H])(C([H])([H])[H])C([H])([H])[H])C([H])(C(=O)N([H])C3([H])c5c([H])c([H])c([H])c([H])c5C([H])([H])C([H])([H])C3([H])[H])C4([H])[H])c(C([H])([H])[H])c2[H])C([H])([H])N(C(=O)N2C([H])([H])C([H])([H])C([H])([H])C([H])(n3nc(-c4c([H])c([H])c(Oc5c([H])c([H])c(F)c([H])c5F)c([H])c4[H])c(C(=O)N([H])[H])c3N([H])[H])C2([H])[H])C([H])([H])C1([H])C([H])([H])[H]

>  <smiles>  (90) 
[H]C1=C(c2c([H])c(C([H])([H])[H])c(Oc3c([H])c([H])c4c(c3[H])C([H])([H])N(C(=O)C([H])(N([H])C(=O)C([H])(N([H])C([H])([H])[H])C([H])([H])[H])C(C([H])([H])[H])(C([H])([H])[H])C([H])([H])[H])C([H])(C(=O)N([H])C3([H])c5c([H])c([H])c([H])c([H])c5C([H])([H])C([H])([H])C3([H])[H])C4([H])[H])c(C([H])([H])[H])c2[H])C([H])([H])N(C(=O)N2C([H])([H])C([H])([H])C([H])([H])C([H])(n3nc(-c4c([H])c([H])c(Oc5c([H])c([H])c(F)c([H])c5F)c([H])c4[H])c(C(=O)N([H])[H])c3N([H])[H])C2([H])[H])C([H])([H])C1([H])C([H])([H])[H]

$$$$
90:0:0
     RDKit          3D

 95 98  0  0  1  0  0  0  0  0999 V2000
  -27.9320  -14.5340   20.5970 C   0  0  0  0  0  3  0  0  0  0  0  0
  -28.2230  -14.9750   18.1080 C   0  0  0  0  0  3  0  0  0  0  0  0
  -27.7990  -12.9910   20.2290 C   0  0  0  0  0  3  0  0  0  0  0  0
  -27.9670  -13.1750   18.6370 C   0  0  0  0  0  3  0  0  0  0  0  0
  -28.1560  -16.0320   19.9680 C   0  0  0  0  0  0  0  0  0  0  0  0
  -28.3990  -16.7720   18.5810 C   0  0  0  0  0  3  0  0  0  0  0  0
  -28.1060  -11.1290   21.3600 C   0  0  0  0  0  2  0  0  0  0  0  0
  -28.2320  -11.0880   17.8740 C   0  0  0  0  0 15  0  0  0  0  0  0
  -29.7800   -9.4250   20.7860 C   0  0  0  0  0 15  0  0  0  0  0  0
  -28.1950  -17.0720   21.0760 C   0  0  0  0  0  1  0  0  0  0  0  0
  -30.1240   -9.5740   18.7120 N   0  0  0  0  0  2  0  0  0  0  0  0
  -30.4350  -10.5350   18.8500 H   0  0  0  0  0  0  0  0  0  0  0  0
  -28.7690  -19.1960   17.8700 C   0  0  0  0  0 15  0  0  0  0  0  0
  -29.2780  -21.5790   17.8970 O   0  0  0  0  0 15  0  0  0  0  0  0
  -26.6740  -28.1270   22.8330 C   0  0  0  0  0  0  0  0  0  0  0  0
  -28.8780  -23.3920   18.3010 C   0  0  0  0  0  2  0  0  0  0  0  0
  -25.6580  -27.3600   20.7430 C   0  0  0  0  0  3  0  0  0  0  0  0
  -27.1750  -26.2300   18.8540 C   0  0  0  0  0  3  0  0  0  0  0  0
  -28.2240  -27.2420   20.8250 C   0  0  0  0  0  2  0  0  0  0  0  0
  -28.2570  -26.0100   19.6950 C   0  0  0  0  0  0  0  0  0  0  0  0
  -29.0800  -24.6690   19.3810 C   0  0  0  0  0  3  0  0  0  0  0  0
  -28.0330  -24.2340   17.4480 C   0  0  0  0  0  3  0  0  0  0  0  0
  -27.2130  -25.4280   17.6930 C   0  0  0  0  0  3  0  0  0  0  0  0
  -26.0230  -27.2250   19.2180 C   0  0  0  0  0  2  0  0  0  0  0  0
  -26.8930  -27.6400   21.5380 N   0  0  0  0  0  0  0  0  0  0  0  0
  -25.5310  -28.1920   23.3320 O   0  0  0  0  0  0  0  0  0  0  0  0
  -24.9680  -26.0710   21.2680 C   0  0  0  0  0  0  0  0  0  0  0  0
  -23.7390  -25.7520   20.8190 N   0  0  0  0  0  0  0  0  0  0  0  0
  -25.5640  -25.3590   22.0800 O   0  0  0  0  0  0  0  0  0  0  0  0
  -23.2800  -26.3830   20.1770 H   0  0  0  0  0  0  0  0  0  0  0  0
  -20.8390  -23.7010   20.0360 C   0  0  0  0  0  0  0  0  0  0  0  0
  -23.0380  -24.5000   21.1380 C   0  0  0  0  0  3  0  0  0  0  0  0
  -23.7040  -23.3020   20.4200 C   0  0  0  0  0  2  0  0  0  0  0  0
  -23.0630  -22.9820   19.0660 C   0  0  0  0  0  2  0  0  0  0  0  0
  -21.5820  -22.6380   19.2450 C   0  0  0  0  0  2  0  0  0  0  0  0
  -21.5230  -24.5850   20.9120 C   0  0  0  0  0  0  0  0  0  0  0  0
  -20.7840  -25.5690   21.6050 C   0  0  0  0  0  3  0  0  0  0  0  0
  -19.3930  -25.6780   21.4320 C   0  0  0  0  0  3  0  0  0  0  0  0
  -18.7180  -24.7950   20.5710 C   0  0  0  0  0  3  0  0  0  0  0  0
  -19.4400  -23.8060   19.8810 C   0  0  0  0  0  3  0  0  0  0  0  0
  -27.8150  -28.6380   23.7740 C   0  0  0  0  0  3  0  0  0  0  0  0
  -27.2850  -28.7910   25.1580 N   0  0  0  0  0  0  0  0  0  0  0  0
  -27.2780  -29.9140   25.8940 C   0  0  0  0  0  0  0  0  0  0  0  0
  -27.7460  -30.9740   25.4750 O   0  0  0  0  0  0  0  0  0  0  0  0
  -26.8260  -27.9790   25.5440 H   0  0  0  0  0  0  0  0  0  0  0  0
  -25.2920  -30.5610   27.3250 C   0  0  0  0  0  1  0  0  0  0  0  0
  -26.6640  -29.8640   27.3170 C   0  0  0  0  0  3  0  0  0  0  0  0
  -28.7210  -29.7000   28.6590 C   0  0  0  0  0  1  0  0  0  0  0  0
  -27.5200  -30.4750   28.3620 N   0  0  0  0  0  0  0  0  0  0  0  0
  -27.0000  -30.5980   29.2270 H   0  0  0  0  0  0  0  0  0  0  0  0
  -29.0550  -27.6570   23.8270 C   0  0  1  0  0  0  0  0  0  0  0  0
  -28.6720  -26.1820   24.0970 C   0  0  0  0  0  1  0  0  0  0  0  0
  -29.8570  -27.6800   22.5150 C   0  0  0  0  0  1  0  0  0  0  0  0
  -30.0400  -28.1090   24.9320 C   0  0  0  0  0  1  0  0  0  0  0  0
  -31.7780   -9.6780   18.6940 C   0  0  0  0  0  2  0  0  0  0  0  0
  -33.0030   -9.5270   19.9860 C   0  0  0  0  0  2  0  0  0  0  0  0
  -34.5730   -8.8180   20.3210 C   0  0  0  0  0  2  0  0  0  0  0  0
  -35.4720   -8.2510   21.7050 C   0  0  0  0  0  2  0  0  0  0  0  0
  -35.8980   -6.7310   22.5200 C   0  0  0  0  0  2  0  0  0  0  0  0
  -35.3990   -5.8670   23.9120 C   0  0  0  0  0  0  0  0  0  0  0  0
  -33.6570   -4.6340   23.0370 C   0  0  0  0  0  2  0  0  0  0  0  0
  -33.4650   -5.4120   21.7290 C   0  0  0  0  0  2  0  0  0  0  0  0
  -32.7120   -6.6860   22.1070 C   0  0  0  0  0  2  0  0  0  0  0  0
  -33.2610   -7.5310   23.3730 C   0  0  0  0  0  3  0  0  0  0  0  0
  -33.1450   -6.5720   24.5150 C   0  0  0  0  0  2  0  0  0  0  0  0
  -34.1050   -5.5520   24.0830 N   0  0  0  0  0  0  0  0  0  0  0  0
  -36.1960   -5.2540   24.6360 O   0  0  0  0  0  0  0  0  0  0  0  0
  -33.3340  -10.1620   23.2490 C   0  0  0  0  0  3  0  0  0  0  0  0
  -32.2800  -10.8510   22.7580 C   0  0  2  0  0  0  0  0  0  0  0  0
  -31.3820   -9.9790   23.5200 C   0  0  0  0  0  2  0  0  0  0  0  0
  -32.9160   -8.8690   23.5550 N   0  0  0  0  0  0  0  0  0  0  0  0
  -32.0310   -9.0470   22.8800 N   0  0  0  0  0  0  0  0  0  0  0  0
  -28.8320  -10.1570   23.8670 C   0  0  0  0  0  2  0  0  0  0  0  0
  -27.7760   -9.1880   24.4150 C   0  0  0  0  0  2  0  0  0  0  0  0
  -26.6530   -8.4460   23.7760 C   0  0  0  0  0  3  0  0  0  0  0  0
  -26.1750   -8.6690   22.4560 C   0  0  0  0  0  0  0  0  0  0  0  0
  -26.9260   -9.6730   21.8560 C   0  0  0  0  0  3  0  0  0  0  0  0
  -27.8670  -10.4740   22.6520 C   0  0  0  0  0  3  0  0  0  0  0  0
  -25.0150   -8.1400   21.8460 O   0  0  0  0  0  0  0  0  0  0  0  0
  -23.8710   -7.8500   22.5890 C   0  0  0  0  0  0  0  0  0  0  0  0
  -23.4710   -8.6740   23.6670 C   0  0  0  0  0  3  0  0  0  0  0  0
  -22.3710   -8.3280   24.4790 C   0  0  0  0  0  3  0  0  0  0  0  0
  -21.6390   -7.1560   24.2210 C   0  0  0  0  0  0  0  0  0  0  0  0
  -21.9770   -6.3600   23.1110 C   0  0  0  0  0  3  0  0  0  0  0  0
  -23.0700   -6.7120   22.2890 C   0  0  0  0  0  0  0  0  0  0  0  0
  -23.3520   -5.9280   21.2210 F   0  0  0  0  0  0  0  0  0  0  0  0
  -20.6150   -6.8010   25.0330 F   0  0  0  0  0  0  0  0  0  0  0  0
  -32.0800  -12.3300   22.1460 C   0  0  0  0  0  0  0  0  0  0  0  0
  -30.8630  -12.7230   21.6390 N   0  0  0  0  0  0  0  0  0  0  0  0
  -32.5610  -13.2810   22.7160 O   0  0  0  0  0  0  0  0  0  0  0  0
  -30.1720  -12.0940   21.2570 H   0  0  0  0  0  0  0  0  0  0  0  0
  -30.7360  -13.7120   21.4630 H   0  0  0  0  0  0  0  0  0  0  0  0
  -34.5460  -10.6110   23.5690 N   0  0  0  0  0  0  0  0  0  0  0  0
  -34.6510  -11.6080   23.6940 H   0  0  0  0  0  0  0  0  0  0  0  0
  -35.0380  -10.1050   24.2910 H   0  0  0  0  0  0  0  0  0  0  0  0
  2  6  2  0
  2  4  1  0
  3  1  1  0
  4  3  2  0
  5  1  2  0
  5 10  1  0
  6  5  1  0
 11 12  1  0
 15 26  2  0
 16 21  1  0
 17 27  1  0
 17 25  1  0
 18 23  1  0
 18 24  1  0
 18 20  1  0
 19 25  1  0
 20 19  1  0
 21 20  2  0
 22 23  2  0
 22 16  1  0
 24 17  1  0
 25 15  1  0
 27 29  2  0
 28 27  1  0
 30 28  1  0
 31 36  1  0
 32 28  1  0
 33 32  1  0
 34 35  1  0
 34 33  1  0
 35 31  1  0
 36 32  1  0
 36 37  2  0
 38 37  1  0
 39 38  2  0
 40 31  2  0
 40 39  1  0
 41 15  1  0
 41 51  1  0
 41 42  1  0
 42 45  1  0
 42 43  1  0
 43 47  1  0
 44 43  2  0
 47 46  1  0
 47 49  1  0
 49 48  1  0
 49 50  1  0
 51 52  1  1
 51 54  1  0
 53 51  1  0
 55 11  1  0
 55 56  1  0
 56 57  1  0
 57 58  1  0
 58 59  1  0
 59 60  1  0
 60 66  1  0
 60 67  2  0
 61 66  1  0
 62 63  1  0
 62 61  1  0
 64 63  1  0
 64 65  1  0
 66 65  1  0
 68 71  1  0
 68 93  1  0
 69 88  1  6
 69 72  1  0
 69 68  1  0
 69 70  1  0
 71 64  1  0
 72 70  1  0
 72 71  1  0
 73 74  1  0
 75 74  1  0
 76 75  2  0
 77  7  1  0
 77 76  1  0
 77 78  1  0
 78  7  1  0
 78 73  1  0
 79 76  1  0
 79 80  1  0
 80 81  1  0
 81 82  2  0
 83 82  1  0
 83 87  1  0
 84 83  2  0
 85 80  2  0
 85 84  1  0
 86 85  1  0
 88 90  2  0
 89 88  1  0
 91 89  1  0
 92 89  1  0
 93 94  1  0
 93 95  1  0
M  ISO  4  13 101  14 101  59 100  60 100
M  END
>  <TORSDO>  (91) 
F 22

>  <SCORE>  (91) 
1.167

>  <name>  (91) 
90

>  <ligand_id>  (91) 
90

>  <original_smiles>  (91) 
[H]c1c([H])c([H])c2c(c1[H])C([H])([H])C([H])([H])C([H])([H])C2([H])N([H])C(=O)C1([H])N(C(=O)C([H])(N([H])C(=O)C([H])(N([H])C([H])([H])[H])C([H])([H])[H])C(C([H])([H])[H])(C([H])([H])[H])C([H])([H])[H])C([H])([H])c2c([H])c(OC([H])([H])c3c([H])c4c(c([H])c3C([H])([H])[H])C([H])([H])C([H])([H])[N+]([H])(C([H])([H])C([H])([H])C([H])([H])C([H])([H])C([H])([H])C(=O)N3C([H])([H])C([H])([H])C([H])([H])C([H])(n5nc(-c6c([H])c([H])c(Oc7c([H])c([H])c(F)c([H])c7F)c([H])c6[H])c(C(=O)N([H])[H])c5N([H])[H])C3([H])[H])C4([H])[H])c([H])c([H])c2C1([H])[H]

>  <smiles>  (91) 
[H]c1c([H])c([H])c2c(c1[H])C([H])([H])C([H])([H])C([H])([H])C2([H])N([H])C(=O)C1([H])N(C(=O)C([H])(N([H])C(=O)C([H])(N([H])C([H])([H])[H])C([H])([H])[H])C(C([H])([H])[H])(C([H])([H])[H])C([H])([H])[H])C([H])([H])c2c([H])c(OC([H])([H])c3c([H])c4c(c([H])c3C([H])([H])[H])C([H])([H])C([H])([H])[N+]([H])(C([H])([H])C([H])([H])C([H])([H])C([H])([H])C([H])([H])C(=O)N3C([H])([H])C([H])([H])C([H])([H])C([H])(n5nc(-c6c([H])c([H])c(Oc7c([H])c([H])c(F)c([H])c7F)c([H])c6[H])c(C(=O)N([H])[H])c5N([H])[H])C3([H])[H])C4([H])[H])c([H])c([H])c2C1([H])[H]

$$$$
91:0:0
     RDKit          3D

 93102  0  0  1  0  0  0  0  0999 V2000
  -28.9290  -24.1630   20.0110 C   0  0  0  0  0  3  0  0  0  0  0  0
  -28.3320  -24.2160   22.7380 C   0  0  0  0  0  3  0  0  0  0  0  0
  -29.0000  -22.9320   20.7560 C   0  0  0  0  0  0  0  0  0  0  0  0
  -28.5800  -25.4200   20.6160 C   0  0  0  0  0  0  0  0  0  0  0  0
  -28.7050  -23.0010   22.1380 C   0  0  0  0  0  0  0  0  0  0  0  0
  -28.2850  -25.4110   22.0010 C   0  0  0  0  0  0  0  0  0  0  0  0
  -28.8310  -21.9150   22.9360 F   0  0  0  0  0  0  0  0  0  0  0  0
  -27.9920  -26.5600   22.6550 F   0  0  0  0  0  0  0  0  0  0  0  0
  -28.5880  -26.6400   19.9160 O   0  0  0  0  0  0  0  0  0  0  0  0
  -24.6850  -31.7580   23.1050 C   0  0  0  0  0  0  0  0  0  0  0  0
  -27.4400  -27.4240   19.9210 C   0  0  0  0  0  0  0  0  0  0  0  0
  -23.5090  -30.3290   21.4670 C   0  0  0  0  0  3  0  0  0  0  0  0
  -25.0000  -28.8780   19.9820 C   0  0  0  0  0  0  0  0  0  0  0  0
  -26.0170  -30.7900   21.2280 C   0  0  0  0  0  2  0  0  0  0  0  0
  -26.1500  -29.4300   20.5610 C   0  0  0  0  0  0  0  0  0  0  0  0
  -27.3760  -28.7110   20.5240 C   0  0  0  0  0  3  0  0  0  0  0  0
  -26.2750  -26.9110   19.3210 C   0  0  0  0  0  3  0  0  0  0  0  0
  -25.0610  -27.6230   19.3530 C   0  0  0  0  0  3  0  0  0  0  0  0
  -23.7210  -29.6850   20.0710 C   0  0  0  0  0  2  0  0  0  0  0  0
  -24.7560  -30.9750   21.9910 N   0  0  0  0  0  0  0  0  0  0  0  0
  -23.6030  -31.9740   23.6710 O   0  0  0  0  0  0  0  0  0  0  0  0
  -22.9220  -29.2660   22.4250 C   0  0  0  0  0  0  0  0  0  0  0  0
  -21.6090  -29.0130   22.3100 N   0  0  0  0  0  0  0  0  0  0  0  0
  -23.6460  -28.6720   23.2290 O   0  0  0  0  0  0  0  0  0  0  0  0
  -21.0820  -29.5470   21.6320 H   0  0  0  0  0  0  0  0  0  0  0  0
  -18.3220  -27.5840   22.7910 C   0  0  0  0  0  0  0  0  0  0  0  0
  -20.8520  -28.0260   23.0820 C   0  0  0  0  0  3  0  0  0  0  0  0
  -21.0620  -26.6030   22.5160 C   0  0  0  0  0  2  0  0  0  0  0  0
  -19.9950  -26.1960   21.4940 C   0  0  0  0  0  2  0  0  0  0  0  0
  -18.6010  -26.2470   22.1260 C   0  0  0  0  0  2  0  0  0  0  0  0
  -19.3800  -28.4270   23.2240 C   0  0  0  0  0  0  0  0  0  0  0  0
  -19.0660  -29.6750   23.8050 C   0  0  0  0  0  3  0  0  0  0  0  0
  -17.7270  -30.0840   23.9560 C   0  0  0  0  0  3  0  0  0  0  0  0
  -16.6850  -29.2390   23.5380 C   0  0  0  0  0  3  0  0  0  0  0  0
  -16.9830  -27.9910   22.9610 C   0  0  0  0  0  3  0  0  0  0  0  0
  -25.9530  -32.4400   23.7070 C   0  0  0  0  0  3  0  0  0  0  0  0
  -25.5870  -33.8150   24.0710 N   0  0  0  0  0  0  0  0  0  0  0  0
  -25.8640  -34.8970   23.3300 C   0  0  0  0  0  0  0  0  0  0  0  0
  -26.5240  -34.8440   22.2890 O   0  0  0  0  0  0  0  0  0  0  0  0
  -24.9960  -33.9270   24.8820 H   0  0  0  0  0  0  0  0  0  0  0  0
  -24.0570  -36.6200   23.0270 C   0  0  0  0  0  1  0  0  0  0  0  0
  -25.3200  -36.2520   23.8210 C   0  0  0  0  0  3  0  0  0  0  0  0
  -27.4200  -37.2100   24.6610 C   0  0  0  0  0  1  0  0  0  0  0  0
  -26.3060  -37.3510   23.7270 N   0  0  0  0  0  0  0  0  0  0  0  0
  -25.8610  -38.2500   23.8960 H   0  0  0  0  0  0  0  0  0  0  0  0
  -26.5360  -31.6720   24.9580 C   0  0  1  0  0  0  0  0  0  0  0  0
  -25.4800  -31.3670   26.0460 C   0  0  0  0  0  1  0  0  0  0  0  0
  -27.1720  -30.3290   24.5260 C   0  0  0  0  0  1  0  0  0  0  0  0
  -27.6620  -32.5080   25.6080 C   0  0  0  0  0  1  0  0  0  0  0  0
  -29.5320  -21.5950   20.1340 C   0  0  0  0  0  2  0  0  0  0  0  0
  -28.7670  -20.2260   20.3920 C   0  0  0  0  0  2  0  0  0  0  0  0
  -30.9370  -14.6910   19.9520 C   0  0  0  0  0  0  0  0  0  0  0  0
  -30.6260  -12.4470   18.9580 C   0  0  0  0  0  2  0  0  0  0  0  0
  -29.6410  -12.5610   17.7760 C   0  0  0  0  0  2  0  0  0  0  0  0
  -28.1860  -12.4320   18.2670 C   0  0  0  0  0  2  0  0  0  0  0  0
  -27.8830  -13.3260   19.5000 C   0  0  0  0  0  3  0  0  0  0  0  0
  -28.9850  -13.2100   20.5750 C   0  0  0  0  0  2  0  0  0  0  0  0
  -30.2660  -13.5020   19.9240 N   0  0  0  0  0  0  0  0  0  0  0  0
  -32.1030  -14.7680   19.5480 O   0  0  0  0  0  0  0  0  0  0  0  0
  -29.3610  -18.0550   19.0020 C   0  0  0  0  0  2  0  0  0  0  0  0
  -29.3370  -17.8600   21.4290 C   0  0  0  0  0  2  0  0  0  0  0  0
  -30.2610  -16.7840   18.9210 C   0  0  0  0  0  2  0  0  0  0  0  0
  -30.2260  -16.5740   21.3560 C   0  0  0  0  0  2  0  0  0  0  0  0
  -29.5990  -18.8750   20.2850 C   0  0  0  0  0  3  0  0  0  0  0  0
  -30.1860  -15.8400   20.0700 N   0  0  0  0  0  0  0  0  0  0  0  0
  -25.5450  -13.9480   20.3570 C   0  0  0  0  0  0  0  0  0  0  0  0
  -24.4850  -13.1850   20.7630 C   0  0  0  0  0  0  0  0  0  0  0  0
  -24.9210  -11.8270   20.6800 C   0  0  0  0  0  0  0  0  0  0  0  0
  -26.5590  -13.0560   20.0500 N   0  0  0  0  0  0  0  0  0  0  0  0
  -26.1920  -11.7720   20.3050 N   0  0  0  0  0  0  0  0  0  0  0  0
  -24.1820  -10.5720   20.8810 C   0  0  0  0  0  0  0  0  0  0  0  0
  -24.5870   -9.6220   21.8440 C   0  0  0  0  0  3  0  0  0  0  0  0
  -23.8500   -8.4330   22.0310 C   0  0  0  0  0  3  0  0  0  0  0  0
  -22.6920   -8.1860   21.2550 C   0  0  0  0  0  0  0  0  0  0  0  0
  -22.3060   -9.1260   20.2830 C   0  0  0  0  0  3  0  0  0  0  0  0
  -23.0440  -10.3060   20.0940 C   0  0  0  0  0  3  0  0  0  0  0  0
  -21.9280   -7.0480   21.3500 O   0  0  0  0  0  0  0  0  0  0  0  0
  -21.7790   -6.3790   22.5390 C   0  0  0  0  0  0  0  0  0  0  0  0
  -21.2470   -7.0060   23.6860 C   0  0  0  0  0  3  0  0  0  0  0  0
  -21.0450   -6.2620   24.8650 C   0  0  0  0  0  3  0  0  0  0  0  0
  -21.3650   -4.8910   24.8990 C   0  0  0  0  0  0  0  0  0  0  0  0
  -21.8910   -4.2640   23.7550 C   0  0  0  0  0  3  0  0  0  0  0  0
  -22.0940   -5.0040   22.5780 C   0  0  0  0  0  0  0  0  0  0  0  0
  -22.5800   -4.3900   21.4720 F   0  0  0  0  0  0  0  0  0  0  0  0
  -21.1650   -4.1750   26.0290 F   0  0  0  0  0  0  0  0  0  0  0  0
  -23.1120  -13.6800   21.1160 C   0  0  0  0  0  0  0  0  0  0  0  0
  -22.4220  -12.9870   22.0150 N   0  0  0  0  0  0  0  0  0  0  0  0
  -22.6610  -14.7160   20.6290 O   0  0  0  0  0  0  0  0  0  0  0  0
  -22.8010  -12.1500   22.4320 H   0  0  0  0  0  0  0  0  0  0  0  0
  -21.5020  -13.3000   22.2930 H   0  0  0  0  0  0  0  0  0  0  0  0
  -25.7270  -15.3190   20.2030 N   0  0  0  0  0  0  0  0  0  0  0  0
  -24.9850  -15.9880   20.3790 H   0  0  0  0  0  0  0  0  0  0  0  0
  -26.5820  -15.7510   19.8770 H   0  0  0  0  0  0  0  0  0  0  0  0
  1  4  2  0
  1  3  1  0
  3  5  2  0
  4  6  1  0
  5  2  1  0
  5  7  1  0
  6  8  1  0
  6  2  2  0
  9 11  1  0
  9  4  1  0
 10 21  2  0
 11 16  1  0
 12 20  1  0
 12 22  1  0
 13 19  1  0
 13 15  1  0
 14 20  1  0
 15 14  1  0
 16 15  2  0
 17 18  1  0
 17 11  2  0
 18 13  2  0
 19 12  1  0
 20 10  1  0
 22 24  2  0
 23 22  1  0
 25 23  1  0
 26 35  2  0
 26 31  1  0
 27 23  1  0
 27 31  1  0
 28 27  1  0
 29 30  1  0
 29 28  1  0
 30 26  1  0
 31 32  2  0
 32 33  1  0
 34 33  2  0
 35 34  1  0
 36 10  1  0
 36 37  1  0
 36 46  1  0
 37 40  1  0
 38 42  1  0
 38 37  1  0
 39 38  2  0
 42 41  1  0
 44 42  1  0
 44 45  1  0
 44 43  1  0
 46 49  1  1
 46 47  1  0
 48 46  1  0
 50 51  1  0
 50  3  1  0
 52 65  1  0
 53 58  1  0
 54 55  1  0
 54 53  1  0
 56 55  1  0
 56 69  1  0
 56 57  1  0
 58 52  1  0
 58 57  1  0
 59 52  2  0
 60 64  1  0
 62 60  1  0
 62 65  1  0
 63 61  1  0
 64 51  1  0
 64 61  1  0
 65 63  1  0
 66 67  2  0
 67 86  1  0
 68 67  1  0
 68 71  1  0
 69 70  1  0
 69 66  1  0
 70 68  2  0
 71 72  1  0
 72 73  2  0
 74 77  1  0
 74 73  1  0
 75 74  2  0
 76 75  1  0
 76 71  2  0
 77 78  1  0
 78 83  2  0
 78 79  1  0
 79 80  2  0
 80 81  1  0
 81 85  1  0
 82 81  2  0
 83 82  1  0
 84 83  1  0
 86 87  1  0
 87 90  1  0
 87 89  1  0
 88 86  2  0
 91 66  1  0
 91 92  1  0
 93 91  1  0
M  ISO  4   4 101   9 101  52 100  65 100
M  END
>  <TORSDO>  (92) 
F 18

>  <SCORE>  (92) 
-13.703

>  <name>  (92) 
91

>  <ligand_id>  (92) 
91

>  <original_smiles>  (92) 
[H]c1c([H])c([H])c2c(c1[H])C([H])([H])C([H])([H])C([H])([H])C2([H])N([H])C(=O)C1([H])N(C(=O)C([H])(N([H])C(=O)C([H])(N([H])C([H])([H])[H])C([H])([H])[H])C(C([H])([H])[H])(C([H])([H])[H])C([H])([H])[H])C([H])([H])c2c([H])c(Oc3c([H])c(C([H])([H])C([H])([H])C4([H])C([H])([H])C([H])([H])N(C(=O)N5C([H])([H])C([H])([H])C([H])([H])C([H])(n6nc(-c7c([H])c([H])c(Oc8c([H])c([H])c(F)c([H])c8F)c([H])c7[H])c(C(=O)N([H])[H])c6N([H])[H])C5([H])[H])C([H])([H])C4([H])[H])c(F)c([H])c3F)c([H])c([H])c2C1([H])[H]

>  <smiles>  (92) 
[H]c1c([H])c([H])c2c(c1[H])C([H])([H])C([H])([H])C([H])([H])C2([H])N([H])C(=O)C1([H])N(C(=O)C([H])(N([H])C(=O)C([H])(N([H])C([H])([H])[H])C([H])([H])[H])C(C([H])([H])[H])(C([H])([H])[H])C([H])([H])[H])C([H])([H])c2c([H])c(Oc3c([H])c(C([H])([H])C([H])([H])C4([H])C([H])([H])C([H])([H])N(C(=O)N5C([H])([H])C([H])([H])C([H])([H])C([H])(n6nc(-c7c([H])c([H])c(Oc8c([H])c([H])c(F)c([H])c8F)c([H])c7[H])c(C(=O)N([H])[H])c6N([H])[H])C5([H])[H])C([H])([H])C4([H])[H])c(F)c([H])c3F)c([H])c([H])c2C1([H])[H]

$$$$
92:0:0
     RDKit          3D

 96104  0  0  1  0  0  0  0  0999 V2000
  -28.7000  -24.5780   23.7150 C   0  0  0  0  0  3  0  0  0  0  0  0
  -28.7440  -23.8170   24.8960 C   0  0  0  0  0  3  0  0  0  0  0  0
  -30.0790  -22.9200   22.6000 C   0  0  0  0  0  3  0  0  0  0  0  0
  -29.3570  -24.1340   22.5440 C   0  0  0  0  0  0  0  0  0  0  0  0
  -30.1610  -22.1710   23.7920 C   0  0  0  0  0  0  0  0  0  0  0  0
  -29.4650  -22.5980   24.9480 C   0  0  0  0  0  0  0  0  0  0  0  0
  -29.2780  -24.8710   21.2490 C   0  0  0  0  0  0  0  0  0  0  0  0
  -29.5190  -24.3250   20.1640 O   0  0  0  0  0  0  0  0  0  0  0  0
  -28.9260  -26.3680   21.2710 C   0  0  0  0  0  2  0  0  0  0  0  0
  -28.3920  -26.7440   20.0050 O   0  0  0  0  0  0  0  0  0  0  0  0
  -24.6080  -31.8720   23.2090 C   0  0  0  0  0  0  0  0  0  0  0  0
  -27.2390  -27.4800   20.0750 C   0  0  0  0  0  0  0  0  0  0  0  0
  -23.3950  -30.4930   21.5490 C   0  0  0  0  0  3  0  0  0  0  0  0
  -24.8430  -28.9610   20.1140 C   0  0  0  0  0  0  0  0  0  0  0  0
  -25.9170  -30.8490   21.3560 C   0  0  0  0  0  2  0  0  0  0  0  0
  -25.9980  -29.4800   20.7150 C   0  0  0  0  0  0  0  0  0  0  0  0
  -27.1990  -28.7420   20.7070 C   0  0  0  0  0  3  0  0  0  0  0  0
  -26.0780  -26.9680   19.4670 C   0  0  0  0  0  3  0  0  0  0  0  0
  -24.8750  -27.6990   19.4960 C   0  0  0  0  0  3  0  0  0  0  0  0
  -23.6020  -29.8220   20.1640 C   0  0  0  0  0  2  0  0  0  0  0  0
  -24.6570  -31.0870   22.0960 N   0  0  0  0  0  0  0  0  0  0  0  0
  -23.5290  -32.1400   23.7550 O   0  0  0  0  0  0  0  0  0  0  0  0
  -22.7380  -29.4660   22.4990 C   0  0  0  0  0  0  0  0  0  0  0  0
  -21.4110  -29.3030   22.3740 N   0  0  0  0  0  0  0  0  0  0  0  0
  -23.4170  -28.8200   23.3010 O   0  0  0  0  0  0  0  0  0  0  0  0
  -20.9240  -29.8800   21.7030 H   0  0  0  0  0  0  0  0  0  0  0  0
  -18.0260  -28.1380   22.8520 C   0  0  0  0  0  0  0  0  0  0  0  0
  -20.5850  -28.3640   23.1340 C   0  0  0  0  0  3  0  0  0  0  0  0
  -20.6750  -26.9390   22.5440 C   0  0  0  0  0  2  0  0  0  0  0  0
  -19.5730  -26.6390   21.5230 C   0  0  0  0  0  2  0  0  0  0  0  0
  -18.1910  -26.7930   22.1650 C   0  0  0  0  0  2  0  0  0  0  0  0
  -19.1520  -28.8830   23.2940 C   0  0  0  0  0  0  0  0  0  0  0  0
  -18.9460  -30.1440   23.8920 C   0  0  0  0  0  3  0  0  0  0  0  0
  -17.6470  -30.6590   24.0570 C   0  0  0  0  0  3  0  0  0  0  0  0
  -16.5360  -29.9090   23.6320 C   0  0  0  0  0  3  0  0  0  0  0  0
  -16.7260  -28.6500   23.0350 C   0  0  0  0  0  3  0  0  0  0  0  0
  -25.8980  -32.4870   23.8380 C   0  0  0  0  0  3  0  0  0  0  0  0
  -26.4410  -31.6650   25.0710 C   0  0  1  0  0  0  0  0  0  0  0  0
  -25.3720  -31.3750   26.1500 C   0  0  0  0  0  1  0  0  0  0  0  0
  -27.0230  -30.3110   24.6040 C   0  0  0  0  0  1  0  0  0  0  0  0
  -27.5990  -32.4350   25.7470 C   0  0  0  0  0  1  0  0  0  0  0  0
  -25.5810  -33.8650   24.2310 N   0  0  0  0  0  0  0  0  0  0  0  0
  -25.9020  -34.9500   23.5150 C   0  0  0  0  0  0  0  0  0  0  0  0
  -26.5640  -34.8970   22.4740 O   0  0  0  0  0  0  0  0  0  0  0  0
  -24.9900  -33.9820   25.0410 H   0  0  0  0  0  0  0  0  0  0  0  0
  -24.1470  -36.7340   23.2660 C   0  0  0  0  0  1  0  0  0  0  0  0
  -25.4100  -36.3150   24.0350 C   0  0  0  0  0  3  0  0  0  0  0  0
  -27.5570  -37.1820   24.8490 C   0  0  0  0  0  1  0  0  0  0  0  0
  -26.4280  -37.3820   23.9430 N   0  0  0  0  0  0  0  0  0  0  0  0
  -26.0190  -38.2910   24.1440 H   0  0  0  0  0  0  0  0  0  0  0  0
  -28.7880  -22.1930   27.2170 C   0  0  0  0  0  1  0  0  0  0  0  0
  -29.5470  -21.8130   26.0770 O   0  0  0  0  0  0  0  0  0  0  0  0
  -31.0830  -20.9610   23.8450 C   0  0  0  0  0  2  0  0  0  0  0  0
  -30.3760  -19.5960   23.9220 C   0  0  0  0  0  2  0  0  0  0  0  0
  -31.3950  -18.4720   24.1800 C   0  0  0  0  0  2  0  0  0  0  0  0
  -30.8120  -17.2390   24.8910 C   0  0  0  0  0  2  0  0  0  0  0  0
  -31.9030  -16.2030   25.2280 C   0  0  0  0  0  2  0  0  0  0  0  0
  -31.8630  -14.8940   24.4230 C   0  0  0  0  0  2  0  0  0  0  0  0
  -32.0230  -15.0490   22.8950 C   0  0  0  0  0  2  0  0  0  0  0  0
  -30.6910  -15.0510   22.1010 C   0  0  0  0  0  2  0  0  0  0  0  0
  -30.8310  -14.3110   20.7540 C   0  0  0  0  0  0  0  0  0  0  0  0
  -30.4070  -12.3020   19.3830 C   0  0  0  0  0  2  0  0  0  0  0  0
  -29.4720  -12.5360   18.1860 C   0  0  0  0  0  2  0  0  0  0  0  0
  -28.0040  -12.3730   18.6110 C   0  0  0  0  0  2  0  0  0  0  0  0
  -27.6660  -13.2000   19.8770 C   0  0  0  0  0  3  0  0  0  0  0  0
  -28.7040  -12.9610   20.9960 C   0  0  0  0  0  2  0  0  0  0  0  0
  -30.0500  -13.2380   20.4590 N   0  0  0  0  0  0  0  0  0  0  0  0
  -31.7640  -14.6610   20.0220 O   0  0  0  0  0  0  0  0  0  0  0  0
  -25.2620  -13.8160   20.5660 C   0  0  0  0  0  0  0  0  0  0  0  0
  -24.1850  -13.0450   20.9160 C   0  0  0  0  0  0  0  0  0  0  0  0
  -24.6380  -11.6900   20.8710 C   0  0  0  0  0  0  0  0  0  0  0  0
  -26.3050  -12.9310   20.3370 N   0  0  0  0  0  0  0  0  0  0  0  0
  -25.9310  -11.6480   20.5750 N   0  0  0  0  0  0  0  0  0  0  0  0
  -23.9040  -10.4290   21.0390 C   0  0  0  0  0  0  0  0  0  0  0  0
  -24.3600   -9.4210   21.9160 C   0  0  0  0  0  3  0  0  0  0  0  0
  -23.6290   -8.2250   22.0750 C   0  0  0  0  0  3  0  0  0  0  0  0
  -22.4270   -8.0280   21.3550 C   0  0  0  0  0  0  0  0  0  0  0  0
  -21.9890   -9.0240   20.4640 C   0  0  0  0  0  3  0  0  0  0  0  0
  -22.7210  -10.2130   20.3040 C   0  0  0  0  0  3  0  0  0  0  0  0
  -21.6650   -6.8870   21.4240 O   0  0  0  0  0  0  0  0  0  0  0  0
  -21.6860   -6.0730   22.5280 C   0  0  0  0  0  0  0  0  0  0  0  0
  -21.4020   -6.5640   23.8210 C   0  0  0  0  0  3  0  0  0  0  0  0
  -21.3660   -5.6790   24.9180 C   0  0  0  0  0  3  0  0  0  0  0  0
  -21.6040   -4.3050   24.7230 C   0  0  0  0  0  0  0  0  0  0  0  0
  -21.8830   -3.8140   23.4350 C   0  0  0  0  0  3  0  0  0  0  0  0
  -21.9200   -4.6960   22.3400 C   0  0  0  0  0  0  0  0  0  0  0  0
  -22.1660   -4.2140   21.0980 F   0  0  0  0  0  0  0  0  0  0  0  0
  -21.5630   -3.4540   25.7740 F   0  0  0  0  0  0  0  0  0  0  0  0
  -22.7880  -13.5250   21.1850 C   0  0  0  0  0  0  0  0  0  0  0  0
  -22.0520  -12.8230   22.0400 N   0  0  0  0  0  0  0  0  0  0  0  0
  -22.3560  -14.5550   20.6690 O   0  0  0  0  0  0  0  0  0  0  0  0
  -22.4150  -11.9890   22.4760 H   0  0  0  0  0  0  0  0  0  0  0  0
  -21.1140  -13.1250   22.2620 H   0  0  0  0  0  0  0  0  0  0  0  0
  -25.4400  -15.1870   20.4090 N   0  0  0  0  0  0  0  0  0  0  0  0
  -24.6850  -15.8540   20.5200 H   0  0  0  0  0  0  0  0  0  0  0  0
  -26.3100  -15.6170   20.1150 H   0  0  0  0  0  0  0  0  0  0  0  0
  1  2  1  0
  2  6  2  0
  3  5  2  0
  4  3  1  0
  4  1  2  0
  5 53  1  0
  5  6  1  0
  6 52  1  0
  7  9  1  0
  7  4  1  0
  8  7  2  0
 10 12  1  0
 10  9  1  0
 11 22  2  0
 12 17  1  0
 13 21  1  0
 13 23  1  0
 14 20  1  0
 14 16  1  0
 15 21  1  0
 16 15  1  0
 17 16  2  0
 18 19  1  0
 18 12  2  0
 19 14  2  0
 20 13  1  0
 21 11  1  0
 23 25  2  0
 24 23  1  0
 26 24  1  0
 27 36  2  0
 27 32  1  0
 28 24  1  0
 28 32  1  0
 29 28  1  0
 30 31  1  0
 30 29  1  0
 31 27  1  0
 32 33  2  0
 33 34  1  0
 35 34  2  0
 36 35  1  0
 37 11  1  0
 37 42  1  0
 37 38  1  0
 38 41  1  1
 38 39  1  0
 40 38  1  0
 42 45  1  0
 43 47  1  0
 43 42  1  0
 44 43  2  0
 47 46  1  0
 49 47  1  0
 49 50  1  0
 49 48  1  0
 52 51  1  0
 53 54  1  0
 54 55  1  0
 55 56  1  0
 56 57  1  0
 58 57  1  0
 59 58  1  0
 60 59  1  0
 61 60  1  0
 62 67  1  0
 63 64  1  0
 63 62  1  0
 65 64  1  0
 65 72  1  0
 65 66  1  0
 67 61  1  0
 67 66  1  0
 68 61  2  0
 69 70  2  0
 70 89  1  0
 71 70  1  0
 71 74  1  0
 72 69  1  0
 72 73  1  0
 73 71  2  0
 74 75  1  0
 75 76  2  0
 77 80  1  0
 77 76  1  0
 78 77  2  0
 79 78  1  0
 79 74  2  0
 80 81  1  0
 81 82  1  0
 82 83  2  0
 84 83  1  0
 84 88  1  0
 85 84  2  0
 86 81  2  0
 86 85  1  0
 87 86  1  0
 89 90  1  0
 90 93  1  0
 90 92  1  0
 91 89  2  0
 94 95  1  0
 94 69  1  0
 96 94  1  0
M  ISO  4   9 101  10 101  60 100  61 100
M  END
>  <TORSDO>  (93) 
F 27

>  <SCORE>  (93) 
12.934

>  <name>  (93) 
92

>  <ligand_id>  (93) 
92

>  <original_smiles>  (93) 
[H]c1c([H])c([H])c2c(c1[H])C([H])([H])C([H])([H])C([H])([H])C2([H])N([H])C(=O)C1([H])N(C(=O)C([H])(N([H])C(=O)C([H])(N([H])C([H])([H])[H])C([H])([H])[H])C(C([H])([H])[H])(C([H])([H])[H])C([H])([H])[H])C([H])([H])c2c([H])c(OC([H])([H])C(=O)c3c([H])c([H])c(OC([H])([H])[H])c(C([H])([H])C([H])([H])C([H])([H])C([H])([H])C([H])([H])C([H])([H])C([H])([H])C([H])([H])C(=O)N4C([H])([H])C([H])([H])C([H])([H])C([H])(n5nc(-c6c([H])c([H])c(Oc7c([H])c([H])c(F)c([H])c7F)c([H])c6[H])c(C(=O)N([H])[H])c5N([H])[H])C4([H])[H])c3[H])c([H])c([H])c2C1([H])[H]

>  <smiles>  (93) 
[H]c1c([H])c([H])c2c(c1[H])C([H])([H])C([H])([H])C([H])([H])C2([H])N([H])C(=O)C1([H])N(C(=O)C([H])(N([H])C(=O)C([H])(N([H])C([H])([H])[H])C([H])([H])[H])C(C([H])([H])[H])(C([H])([H])[H])C([H])([H])[H])C([H])([H])c2c([H])c(OC([H])([H])C(=O)c3c([H])c([H])c(OC([H])([H])[H])c(C([H])([H])C([H])([H])C([H])([H])C([H])([H])C([H])([H])C([H])([H])C([H])([H])C([H])([H])C(=O)N4C([H])([H])C([H])([H])C([H])([H])C([H])(n5nc(-c6c([H])c([H])c(Oc7c([H])c([H])c(F)c([H])c7F)c([H])c6[H])c(C(=O)N([H])[H])c5N([H])[H])C4([H])[H])c3[H])c([H])c([H])c2C1([H])[H]

$$$$
93:0:0
     RDKit          3D

 95103  0  0  1  0  0  0  0  0999 V2000
  -28.6910  -25.3480   23.1610 C   0  0  0  0  0  3  0  0  0  0  0  0
  -28.8150  -26.3570   22.1950 C   0  0  0  0  0  3  0  0  0  0  0  0
  -28.3880  -24.0330   22.7730 C   0  0  0  0  0  0  0  0  0  0  0  0
  -28.2690  -23.7060   21.3980 C   0  0  0  0  0  0  0  0  0  0  0  0
  -28.5440  -24.6970   20.4060 C   0  0  0  0  0  0  0  0  0  0  0  0
  -28.7080  -26.0560   20.8220 C   0  0  0  0  0  0  0  0  0  0  0  0
  -28.1650  -22.9890   23.8580 C   0  0  0  0  0  1  0  0  0  0  0  0
  -27.7710  -22.3120   21.0240 C   0  0  0  0  0  1  0  0  0  0  0  0
  -28.6710  -27.1140   19.9340 O   0  0  0  0  0  0  0  0  0  0  0  0
  -24.3810  -31.7760   23.1860 C   0  0  0  0  0  0  0  0  0  0  0  0
  -27.4690  -27.7880   19.9150 C   0  0  0  0  0  0  0  0  0  0  0  0
  -23.3220  -30.3090   21.4990 C   0  0  0  0  0  3  0  0  0  0  0  0
  -24.9230  -29.0140   19.9970 C   0  0  0  0  0  0  0  0  0  0  0  0
  -25.7880  -30.9630   21.2980 C   0  0  0  0  0  2  0  0  0  0  0  0
  -26.0210  -29.6380   20.6040 C   0  0  0  0  0  0  0  0  0  0  0  0
  -27.2990  -29.0300   20.5690 C   0  0  0  0  0  3  0  0  0  0  0  0
  -26.3610  -27.1930   19.2800 C   0  0  0  0  0  3  0  0  0  0  0  0
  -25.0890  -27.7890   19.3330 C   0  0  0  0  0  3  0  0  0  0  0  0
  -23.5900  -29.7170   20.0900 C   0  0  0  0  0  2  0  0  0  0  0  0
  -24.5130  -31.0300   22.0540 N   0  0  0  0  0  0  0  0  0  0  0  0
  -23.2820  -31.9040   23.7440 O   0  0  0  0  0  0  0  0  0  0  0  0
  -22.8050  -29.1810   22.4190 C   0  0  0  0  0  0  0  0  0  0  0  0
  -21.5110  -28.8460   22.2840 N   0  0  0  0  0  0  0  0  0  0  0  0
  -23.5620  -28.6130   23.2110 O   0  0  0  0  0  0  0  0  0  0  0  0
  -20.9550  -29.3660   21.6190 H   0  0  0  0  0  0  0  0  0  0  0  0
  -18.3100  -27.2330   22.7320 C   0  0  0  0  0  0  0  0  0  0  0  0
  -20.8160  -27.7940   23.0220 C   0  0  0  0  0  3  0  0  0  0  0  0
  -21.0930  -26.4030   22.4040 C   0  0  0  0  0  2  0  0  0  0  0  0
  -20.0410  -25.9820   21.3750 C   0  0  0  0  0  2  0  0  0  0  0  0
  -18.6500  -25.9380   22.0140 C   0  0  0  0  0  2  0  0  0  0  0  0
  -19.3260  -28.1120   23.1900 C   0  0  0  0  0  0  0  0  0  0  0  0
  -18.9510  -29.3210   23.8160 C   0  0  0  0  0  3  0  0  0  0  0  0
  -17.5950  -29.6550   23.9870 C   0  0  0  0  0  3  0  0  0  0  0  0
  -16.5940  -28.7730   23.5450 C   0  0  0  0  0  3  0  0  0  0  0  0
  -16.9520  -27.5640   22.9230 C   0  0  0  0  0  3  0  0  0  0  0  0
  -25.5980  -32.5240   23.8200 C   0  0  0  0  0  3  0  0  0  0  0  0
  -25.1780  -33.9070   24.0850 N   0  0  0  0  0  0  0  0  0  0  0  0
  -25.4550  -34.9500   23.2930 C   0  0  0  0  0  0  0  0  0  0  0  0
  -26.1680  -34.8570   22.2890 O   0  0  0  0  0  0  0  0  0  0  0  0
  -24.5530  -34.0480   24.8660 H   0  0  0  0  0  0  0  0  0  0  0  0
  -23.6170  -36.5880   22.7970 C   0  0  0  0  0  1  0  0  0  0  0  0
  -24.8490  -36.3140   23.6760 C   0  0  0  0  0  3  0  0  0  0  0  0
  -26.8800  -37.3790   24.5520 C   0  0  0  0  0  1  0  0  0  0  0  0
  -25.8050  -37.4360   23.5640 N   0  0  0  0  0  0  0  0  0  0  0  0
  -25.3300  -38.3300   23.6640 H   0  0  0  0  0  0  0  0  0  0  0  0
  -26.1290  -31.8410   25.1400 C   0  0  1  0  0  0  0  0  0  0  0  0
  -25.0210  -31.5520   26.1800 C   0  0  0  0  0  1  0  0  0  0  0  0
  -26.8360  -30.5040   24.8140 C   0  0  0  0  0  1  0  0  0  0  0  0
  -27.1850  -32.7500   25.8130 C   0  0  0  0  0  1  0  0  0  0  0  0
  -28.5620  -24.3770   18.9000 C   0  0  0  0  0  2  0  0  0  0  0  0
  -29.0770  -22.9990   18.3890 C   0  0  0  0  0  2  0  0  0  0  0  0
  -30.2120  -22.2650   19.1400 C   0  0  0  0  0  2  0  0  0  0  0  0
  -30.3980  -20.8320   18.5830 C   0  0  0  0  0  2  0  0  0  0  0  0
  -31.3150  -19.8980   19.4070 C   0  0  0  0  0  2  0  0  0  0  0  0
  -30.5670  -18.8840   20.3100 C   0  0  0  0  0  2  0  0  0  0  0  0
  -31.5370  -17.9720   21.0920 C   0  0  0  0  0  2  0  0  0  0  0  0
  -30.8870  -16.9860   22.0960 C   0  0  0  0  0  2  0  0  0  0  0  0
  -30.8890  -14.8410   20.7850 C   0  0  0  0  0  0  0  0  0  0  0  0
  -30.6690  -12.6320   19.7040 C   0  0  0  0  0  2  0  0  0  0  0  0
  -29.8110  -12.7290   18.4290 C   0  0  0  0  0  2  0  0  0  0  0  0
  -28.3150  -12.5900   18.7660 C   0  0  0  0  0  2  0  0  0  0  0  0
  -27.8780  -13.5120   19.9360 C   0  0  0  0  0  3  0  0  0  0  0  0
  -28.8510  -13.3850   21.1270 C   0  0  0  0  0  2  0  0  0  0  0  0
  -30.2110  -13.6730   20.6370 N   0  0  0  0  0  0  0  0  0  0  0  0
  -32.0000  -15.0410   20.2840 O   0  0  0  0  0  0  0  0  0  0  0  0
  -30.2770  -15.7790   21.5250 N   0  0  0  0  0  0  0  0  0  0  0  0
  -29.3620  -15.5300   21.8710 H   0  0  0  0  0  0  0  0  0  0  0  0
  -25.4410  -14.1350   20.4910 C   0  0  0  0  0  0  0  0  0  0  0  0
  -24.3510  -13.3690   20.8030 C   0  0  0  0  0  0  0  0  0  0  0  0
  -24.8080  -12.0150   20.8150 C   0  0  0  0  0  0  0  0  0  0  0  0
  -26.4960  -13.2490   20.3320 N   0  0  0  0  0  0  0  0  0  0  0  0
  -26.1140  -11.9700   20.5820 N   0  0  0  0  0  0  0  0  0  0  0  0
  -24.0680  -10.7570   20.9730 C   0  0  0  0  0  0  0  0  0  0  0  0
  -24.4260   -9.8100   21.9580 C   0  0  0  0  0  3  0  0  0  0  0  0
  -23.6880   -8.6150   22.1030 C   0  0  0  0  0  3  0  0  0  0  0  0
  -22.5800   -8.3590   21.2620 C   0  0  0  0  0  0  0  0  0  0  0  0
  -22.2420   -9.2950   20.2690 C   0  0  0  0  0  3  0  0  0  0  0  0
  -22.9810  -10.4800   20.1210 C   0  0  0  0  0  3  0  0  0  0  0  0
  -21.8210   -7.2140   21.3140 O   0  0  0  0  0  0  0  0  0  0  0  0
  -21.6410   -6.5220   22.4840 C   0  0  0  0  0  0  0  0  0  0  0  0
  -21.0910   -7.1310   23.6330 C   0  0  0  0  0  3  0  0  0  0  0  0
  -20.8600   -6.3650   24.7930 C   0  0  0  0  0  3  0  0  0  0  0  0
  -21.1670   -4.9910   24.8040 C   0  0  0  0  0  0  0  0  0  0  0  0
  -21.7100   -4.3830   23.6590 C   0  0  0  0  0  3  0  0  0  0  0  0
  -21.9430   -5.1450   22.5010 C   0  0  0  0  0  0  0  0  0  0  0  0
  -22.4470   -4.5490   21.3940 F   0  0  0  0  0  0  0  0  0  0  0  0
  -20.9380   -4.2530   25.9140 F   0  0  0  0  0  0  0  0  0  0  0  0
  -22.9410  -13.8520   20.9890 C   0  0  0  0  0  0  0  0  0  0  0  0
  -22.1660  -13.1750   21.8290 N   0  0  0  0  0  0  0  0  0  0  0  0
  -22.5330  -14.8670   20.4250 O   0  0  0  0  0  0  0  0  0  0  0  0
  -22.5060  -12.3540   22.3070 H   0  0  0  0  0  0  0  0  0  0  0  0
  -21.2190  -13.4820   21.9960 H   0  0  0  0  0  0  0  0  0  0  0  0
  -25.6210  -15.5030   20.3080 N   0  0  0  0  0  0  0  0  0  0  0  0
  -24.8550  -16.1650   20.3660 H   0  0  0  0  0  0  0  0  0  0  0  0
  -26.4950  -15.9330   20.0320 H   0  0  0  0  0  0  0  0  0  0  0  0
  2  1  2  0
  3  1  1  0
  3  7  1  0
  4  3  2  0
  5  6  2  0
  5  4  1  0
  6  2  1  0
  8  4  1  0
  9  6  1  0
 10 21  2  0
 11  9  1  0
 11 16  1  0
 12 20  1  0
 12 22  1  0
 13 19  1  0
 13 15  1  0
 14 20  1  0
 15 14  1  0
 16 15  2  0
 17 18  1  0
 17 11  2  0
 18 13  2  0
 19 12  1  0
 20 10  1  0
 22 24  2  0
 23 22  1  0
 25 23  1  0
 26 35  2  0
 26 31  1  0
 27 23  1  0
 27 31  1  0
 28 27  1  0
 29 30  1  0
 29 28  1  0
 30 26  1  0
 31 32  2  0
 32 33  1  0
 34 33  2  0
 35 34  1  0
 36 10  1  0
 36 37  1  0
 36 46  1  0
 37 40  1  0
 38 42  1  0
 38 37  1  0
 39 38  2  0
 42 41  1  0
 44 45  1  0
 44 42  1  0
 44 43  1  0
 46 49  1  1
 46 47  1  0
 48 46  1  0
 50  5  1  0
 51 50  1  0
 51 52  1  0
 53 52  1  0
 53 54  1  0
 54 55  1  0
 55 56  1  0
 56 57  1  0
 58 66  1  0
 59 64  1  0
 60 61  1  0
 60 59  1  0
 62 61  1  0
 62 71  1  0
 62 63  1  0
 64 58  1  0
 64 63  1  0
 65 58  2  0
 66 67  1  0
 66 57  1  0
 68 69  2  0
 69 70  1  0
 69 88  1  0
 70 73  1  0
 71 68  1  0
 71 72  1  0
 72 70  2  0
 73 74  1  0
 74 75  2  0
 76 79  1  0
 76 75  1  0
 77 76  2  0
 78 77  1  0
 78 73  2  0
 79 80  1  0
 80 85  2  0
 80 81  1  0
 81 82  2  0
 82 83  1  0
 83 87  1  0
 84 83  2  0
 85 84  1  0
 86 85  1  0
 88 89  1  0
 89 92  1  0
 89 91  1  0
 90 88  2  0
 93 94  1  0
 93 68  1  0
 95 93  1  0
M  ISO  4   6 101   9 101  58 100  66 100
M  END
>  <TORSDO>  (94) 
F 24

>  <SCORE>  (94) 
-9.041

>  <name>  (94) 
93

>  <ligand_id>  (94) 
93

>  <original_smiles>  (94) 
[H]c1c([H])c([H])c2c(c1[H])C([H])([H])C([H])([H])C([H])([H])C2([H])N([H])C(=O)C1([H])N(C(=O)C([H])(N([H])C(=O)C([H])(N([H])C([H])([H])[H])C([H])([H])[H])C(C([H])([H])[H])(C([H])([H])[H])C([H])([H])[H])C([H])([H])c2c([H])c(Oc3c([H])c([H])c(C([H])([H])[H])c(C([H])([H])[H])c3C([H])([H])C([H])([H])C([H])([H])C([H])([H])C([H])([H])C([H])([H])C([H])([H])C([H])([H])N([H])C(=O)N3C([H])([H])C([H])([H])C([H])([H])C([H])(n4nc(-c5c([H])c([H])c(Oc6c([H])c([H])c(F)c([H])c6F)c([H])c5[H])c(C(=O)N([H])[H])c4N([H])[H])C3([H])[H])c([H])c([H])c2C1([H])[H]

>  <smiles>  (94) 
[H]c1c([H])c([H])c2c(c1[H])C([H])([H])C([H])([H])C([H])([H])C2([H])N([H])C(=O)C1([H])N(C(=O)C([H])(N([H])C(=O)C([H])(N([H])C([H])([H])[H])C([H])([H])[H])C(C([H])([H])[H])(C([H])([H])[H])C([H])([H])[H])C([H])([H])c2c([H])c(Oc3c([H])c([H])c(C([H])([H])[H])c(C([H])([H])[H])c3C([H])([H])C([H])([H])C([H])([H])C([H])([H])C([H])([H])C([H])([H])C([H])([H])C([H])([H])N([H])C(=O)N3C([H])([H])C([H])([H])C([H])([H])C([H])(n4nc(-c5c([H])c([H])c(Oc6c([H])c([H])c(F)c([H])c6F)c([H])c5[H])c(C(=O)N([H])[H])c4N([H])[H])C3([H])[H])c([H])c([H])c2C1([H])[H]

$$$$
94:0:0
     RDKit          3D

 96105  0  0  1  0  0  0  0  0999 V2000
  -26.8730  -23.6630   18.4510 C   0  0  0  0  0  3  0  0  0  0  0  0
  -26.4890  -22.4770   19.0960 C   0  0  0  0  0  0  0  0  0  0  0  0
  -28.1900  -24.1550   18.5230 C   0  0  0  0  0  0  0  0  0  0  0  0
  -27.4440  -21.7330   19.8270 C   0  0  0  0  0  0  0  0  0  0  0  0
  -29.1690  -23.3950   19.2230 C   0  0  0  0  0  0  0  0  0  0  0  0
  -28.7890  -22.1970   19.9030 C   0  0  0  0  0  0  0  0  0  0  0  0
  -25.0360  -22.0390   18.9880 C   0  0  0  0  0  1  0  0  0  0  0  0
  -27.0050  -20.4550   20.5410 C   0  0  0  0  0  1  0  0  0  0  0  0
  -30.6210  -23.8580   19.2390 C   0  0  0  0  0  1  0  0  0  0  0  0
  -28.4870  -25.4540   17.7560 C   0  0  0  0  0  2  0  0  0  0  0  0
  -29.0000  -26.6980   18.5370 C   0  0  0  0  0  2  0  0  0  0  0  0
  -28.4040  -27.0600   19.7880 O   0  0  0  0  0  0  0  0  0  0  0  0
  -24.4990  -31.7780   23.3980 C   0  0  0  0  0  0  0  0  0  0  0  0
  -27.2320  -27.7840   19.8090 C   0  0  0  0  0  0  0  0  0  0  0  0
  -23.3140  -30.5260   21.6250 C   0  0  0  0  0  3  0  0  0  0  0  0
  -24.7920  -29.2030   20.0240 C   0  0  0  0  0  0  0  0  0  0  0  0
  -25.8260  -30.9780   21.4440 C   0  0  0  0  0  2  0  0  0  0  0  0
  -25.9410  -29.6870   20.6620 C   0  0  0  0  0  0  0  0  0  0  0  0
  -27.1600  -28.9760   20.5680 C   0  0  0  0  0  3  0  0  0  0  0  0
  -26.0640  -27.3180   19.1730 C   0  0  0  0  0  3  0  0  0  0  0  0
  -24.8470  -28.0140   19.2800 C   0  0  0  0  0  3  0  0  0  0  0  0
  -23.5250  -30.0120   20.1770 C   0  0  0  0  0  2  0  0  0  0  0  0
  -24.5650  -31.1020   22.2160 N   0  0  0  0  0  0  0  0  0  0  0  0
  -23.4180  -31.9580   23.9740 O   0  0  0  0  0  0  0  0  0  0  0  0
  -22.7050  -29.3850   22.4740 C   0  0  0  0  0  0  0  0  0  0  0  0
  -21.4010  -29.1280   22.2830 N   0  0  0  0  0  0  0  0  0  0  0  0
  -23.4020  -28.7410   23.2620 O   0  0  0  0  0  0  0  0  0  0  0  0
  -20.8950  -29.7080   21.6280 H   0  0  0  0  0  0  0  0  0  0  0  0
  -18.1300  -27.6010   22.4690 C   0  0  0  0  0  0  0  0  0  0  0  0
  -20.6260  -28.0790   22.9460 C   0  0  0  0  0  3  0  0  0  0  0  0
  -20.9050  -26.6960   22.3140 C   0  0  0  0  0  2  0  0  0  0  0  0
  -19.9150  -26.3280   21.2050 C   0  0  0  0  0  2  0  0  0  0  0  0
  -18.4820  -26.3110   21.7480 C   0  0  0  0  0  2  0  0  0  0  0  0
  -19.1370  -28.4380   23.0180 C   0  0  0  0  0  0  0  0  0  0  0  0
  -18.7570  -29.6440   23.6480 C   0  0  0  0  0  3  0  0  0  0  0  0
  -17.4030  -30.0160   23.7330 C   0  0  0  0  0  3  0  0  0  0  0  0
  -16.4090  -29.1760   23.2010 C   0  0  0  0  0  3  0  0  0  0  0  0
  -16.7730  -27.9700   22.5760 C   0  0  0  0  0  3  0  0  0  0  0  0
  -25.7750  -32.3770   24.0690 C   0  0  0  0  0  3  0  0  0  0  0  0
  -25.4650  -33.7610   24.4500 N   0  0  0  0  0  0  0  0  0  0  0  0
  -25.8220  -34.8420   23.7440 C   0  0  0  0  0  0  0  0  0  0  0  0
  -26.5170  -34.7780   22.7260 O   0  0  0  0  0  0  0  0  0  0  0  0
  -24.8490  -33.8870   25.2400 H   0  0  0  0  0  0  0  0  0  0  0  0
  -24.1070  -36.6530   23.4210 C   0  0  0  0  0  1  0  0  0  0  0  0
  -25.3270  -36.2110   24.2460 C   0  0  0  0  0  3  0  0  0  0  0  0
  -27.4390  -37.0540   25.1710 C   0  0  0  0  0  1  0  0  0  0  0  0
  -26.3650  -37.2640   24.2020 N   0  0  0  0  0  0  0  0  0  0  0  0
  -25.9580  -38.1790   24.3740 H   0  0  0  0  0  0  0  0  0  0  0  0
  -26.2680  -31.5480   25.3190 C   0  0  1  0  0  0  0  0  0  0  0  0
  -25.1550  -31.2630   26.3540 C   0  0  0  0  0  1  0  0  0  0  0  0
  -26.8570  -30.1900   24.8730 C   0  0  0  0  0  1  0  0  0  0  0  0
  -27.4090  -32.3100   26.0350 C   0  0  0  0  0  1  0  0  0  0  0  0
  -29.7970  -21.4210   20.7630 C   0  0  0  0  0  2  0  0  0  0  0  0
  -30.0950  -19.9800   20.2830 C   0  0  0  0  0  2  0  0  0  0  0  0
  -30.3740  -19.0420   21.4750 C   0  0  0  0  0  2  0  0  0  0  0  0
  -31.1180  -14.4680   19.7780 C   0  0  0  0  0  0  0  0  0  0  0  0
  -30.6370  -12.3290   18.6410 C   0  0  0  0  0  2  0  0  0  0  0  0
  -29.6260  -12.5310   17.4970 C   0  0  0  0  0  2  0  0  0  0  0  0
  -28.1800  -12.4580   18.0230 C   0  0  0  0  0  2  0  0  0  0  0  0
  -27.9540  -13.3480   19.2740 C   0  0  0  0  0  3  0  0  0  0  0  0
  -29.0640  -13.1090   20.3230 C   0  0  0  0  0  2  0  0  0  0  0  0
  -30.3680  -13.3380   19.6760 N   0  0  0  0  0  0  0  0  0  0  0  0
  -32.1080  -14.6900   19.0700 O   0  0  0  0  0  0  0  0  0  0  0  0
  -31.4460  -16.9240   22.4000 C   0  0  0  0  0  2  0  0  0  0  0  0
  -31.5750  -15.4760   21.9300 C   0  0  0  0  0  2  0  0  0  0  0  0
  -30.2100  -16.6680   20.3790 C   0  0  0  0  0  2  0  0  0  0  0  0
  -31.0530  -17.6960   21.1470 C   0  0  0  0  0  3  0  0  0  0  0  0
  -30.7360  -15.3390   20.7350 N   0  0  0  0  0  0  0  0  0  0  0  0
  -25.6470  -14.0750   20.1590 C   0  0  0  0  0  0  0  0  0  0  0  0
  -24.5650  -13.3540   20.5880 C   0  0  0  0  0  0  0  0  0  0  0  0
  -24.9430  -11.9800   20.4970 C   0  0  0  0  0  0  0  0  0  0  0  0
  -26.6230  -13.1410   19.8400 N   0  0  0  0  0  0  0  0  0  0  0  0
  -26.2040  -11.8750   20.0950 N   0  0  0  0  0  0  0  0  0  0  0  0
  -24.1610  -10.7560   20.7130 C   0  0  0  0  0  0  0  0  0  0  0  0
  -24.5020   -9.8300   21.7240 C   0  0  0  0  0  3  0  0  0  0  0  0
  -23.7240   -8.6700   21.9240 C   0  0  0  0  0  3  0  0  0  0  0  0
  -22.5900   -8.4270   21.1130 C   0  0  0  0  0  0  0  0  0  0  0  0
  -22.2680   -9.3400   20.0940 C   0  0  0  0  0  3  0  0  0  0  0  0
  -23.0460  -10.4920   19.8920 C   0  0  0  0  0  3  0  0  0  0  0  0
  -21.7910   -7.3150   21.2190 O   0  0  0  0  0  0  0  0  0  0  0  0
  -21.5390   -6.7200   22.4290 C   0  0  0  0  0  0  0  0  0  0  0  0
  -20.9240   -7.4230   23.4890 C   0  0  0  0  0  3  0  0  0  0  0  0
  -20.6200   -6.7550   24.6930 C   0  0  0  0  0  3  0  0  0  0  0  0
  -20.9200   -5.3870   24.8350 C   0  0  0  0  0  0  0  0  0  0  0  0
  -21.5280   -4.6850   23.7790 C   0  0  0  0  0  3  0  0  0  0  0  0
  -21.8330   -5.3500   22.5780 C   0  0  0  0  0  0  0  0  0  0  0  0
  -22.3980   -4.6650   21.5560 F   0  0  0  0  0  0  0  0  0  0  0  0
  -20.6220   -4.7440   25.9880 F   0  0  0  0  0  0  0  0  0  0  0  0
  -23.2210  -13.9020   20.9730 C   0  0  0  0  0  0  0  0  0  0  0  0
  -22.5440  -13.2590   21.9170 N   0  0  0  0  0  0  0  0  0  0  0  0
  -22.7820  -14.9350   20.4680 O   0  0  0  0  0  0  0  0  0  0  0  0
  -22.9120  -12.4230   22.3450 H   0  0  0  0  0  0  0  0  0  0  0  0
  -21.6440  -13.6070   22.2170 H   0  0  0  0  0  0  0  0  0  0  0  0
  -25.8800  -15.4370   19.9980 N   0  0  0  0  0  0  0  0  0  0  0  0
  -25.1690  -16.1370   20.1830 H   0  0  0  0  0  0  0  0  0  0  0  0
  -26.7360  -15.8310   19.6290 H   0  0  0  0  0  0  0  0  0  0  0  0
  1  3  2  0
  1  2  1  0
  2  4  2  0
  3  5  1  0
  4  6  1  0
  4  8  1  0
  5  9  1  0
  5  6  2  0
  6 53  1  0
  7  2  1  0
 10  3  1  0
 10 11  1  0
 11 12  1  0
 12 14  1  0
 13 24  2  0
 14 19  1  0
 15 23  1  0
 15 25  1  0
 16 22  1  0
 16 18  1  0
 17 23  1  0
 18 17  1  0
 19 18  2  0
 20 21  1  0
 20 14  2  0
 21 16  2  0
 22 15  1  0
 23 13  1  0
 25 27  2  0
 26 25  1  0
 28 26  1  0
 29 38  2  0
 29 34  1  0
 30 26  1  0
 30 34  1  0
 31 30  1  0
 32 33  1  0
 32 31  1  0
 33 29  1  0
 34 35  2  0
 35 36  1  0
 37 36  2  0
 38 37  1  0
 39 13  1  0
 39 40  1  0
 39 49  1  0
 40 43  1  0
 41 45  1  0
 41 40  1  0
 42 41  2  0
 45 44  1  0
 47 45  1  0
 47 48  1  0
 47 46  1  0
 49 52  1  1
 49 50  1  0
 51 49  1  0
 54 53  1  0
 54 55  1  0
 56 68  1  0
 57 62  1  0
 58 59  1  0
 58 57  1  0
 60 59  1  0
 60 72  1  0
 60 61  1  0
 62 56  1  0
 62 61  1  0
 63 56  2  0
 65 64  1  0
 66 68  1  0
 66 67  1  0
 67 55  1  0
 67 64  1  0
 68 65  1  0
 69 70  2  0
 70 89  1  0
 71 70  1  0
 71 74  1  0
 72 73  1  0
 72 69  1  0
 73 71  2  0
 74 75  1  0
 75 76  2  0
 77 80  1  0
 77 76  1  0
 78 77  2  0
 79 78  1  0
 79 74  2  0
 80 81  1  0
 81 86  2  0
 81 82  1  0
 82 83  2  0
 83 84  1  0
 84 88  1  0
 85 84  2  0
 86 85  1  0
 87 86  1  0
 89 90  1  0
 90 93  1  0
 90 92  1  0
 91 89  2  0
 94 69  1  0
 94 95  1  0
 96 94  1  0
M  ISO  4  11 101  12 101  56 100  68 100
M  END
>  <TORSDO>  (95) 
F 21

>  <SCORE>  (95) 
-10.097

>  <name>  (95) 
94

>  <ligand_id>  (95) 
94

>  <original_smiles>  (95) 
[H]c1c([H])c([H])c2c(c1[H])C([H])([H])C([H])([H])C([H])([H])C2([H])N([H])C(=O)C1([H])N(C(=O)C([H])(N([H])C(=O)C([H])(N([H])C([H])([H])[H])C([H])([H])[H])C(C([H])([H])[H])(C([H])([H])[H])C([H])([H])[H])C([H])([H])c2c([H])c(OC([H])([H])C([H])([H])c3c([H])c(C([H])([H])[H])c(C([H])([H])[H])c(C([H])([H])C([H])([H])C([H])([H])C4([H])C([H])([H])N(C(=O)N5C([H])([H])C([H])([H])C([H])([H])C([H])(n6nc(-c7c([H])c([H])c(Oc8c([H])c([H])c(F)c([H])c8F)c([H])c7[H])c(C(=O)N([H])[H])c6N([H])[H])C5([H])[H])C([H])([H])C4([H])[H])c3C([H])([H])[H])c([H])c([H])c2C1([H])[H]

>  <smiles>  (95) 
[H]c1c([H])c([H])c2c(c1[H])C([H])([H])C([H])([H])C([H])([H])C2([H])N([H])C(=O)C1([H])N(C(=O)C([H])(N([H])C(=O)C([H])(N([H])C([H])([H])[H])C([H])([H])[H])C(C([H])([H])[H])(C([H])([H])[H])C([H])([H])[H])C([H])([H])c2c([H])c(OC([H])([H])C([H])([H])c3c([H])c(C([H])([H])[H])c(C([H])([H])[H])c(C([H])([H])C([H])([H])C([H])([H])C4([H])C([H])([H])N(C(=O)N5C([H])([H])C([H])([H])C([H])([H])C([H])(n6nc(-c7c([H])c([H])c(Oc8c([H])c([H])c(F)c([H])c8F)c([H])c7[H])c(C(=O)N([H])[H])c6N([H])[H])C5([H])[H])C([H])([H])C4([H])[H])c3C([H])([H])[H])c([H])c([H])c2C1([H])[H]

$$$$
95:0:0
     RDKit          3D

 98106  0  0  1  0  0  0  0  0999 V2000
  -32.0080  -25.3800   20.8840 C   0  0  0  0  0  3  0  0  0  0  0  0
  -31.9040  -23.9980   20.6550 C   0  0  0  0  0  3  0  0  0  0  0  0
  -32.3600  -25.7470   18.4990 C   0  0  0  0  0  3  0  0  0  0  0  0
  -32.2090  -26.2600   19.8040 C   0  0  0  0  0  0  0  0  0  0  0  0
  -31.9970  -23.4790   19.3420 C   0  0  0  0  0  0  0  0  0  0  0  0
  -32.2530  -24.3630   18.2670 C   0  0  0  0  0  0  0  0  0  0  0  0
  -32.3740  -23.8860   16.9930 O   0  0  0  0  0  0  0  0  0  0  0  0
  -32.5690  -24.5690   16.3590 H   0  0  0  0  0  0  0  0  0  0  0  0
  -32.2050  -27.7580   20.0450 C   0  0  0  0  0  2  0  0  0  0  0  0
  -30.8130  -28.3650   20.1800 C   0  0  0  0  0  0  0  0  0  0  0  0
  -30.6590  -29.5120   20.7110 N   0  0  0  0  0  0  0  0  0  0  0  0
  -31.5380  -29.9070   21.0250 H   0  0  0  0  0  0  0  0  0  0  0  0
  -29.6470  -27.5550   19.5820 C   0  0  0  0  0  2  0  0  0  0  0  0
  -28.5340  -26.8440   20.1820 O   0  0  0  0  0  0  0  0  0  0  0  0
  -24.5880  -31.8950   23.2960 C   0  0  0  0  0  0  0  0  0  0  0  0
  -27.3310  -27.5230   20.2510 C   0  0  0  0  0  0  0  0  0  0  0  0
  -23.4160  -30.4980   21.6170 C   0  0  0  0  0  3  0  0  0  0  0  0
  -24.9060  -28.9610   20.2310 C   0  0  0  0  0  0  0  0  0  0  0  0
  -25.9390  -30.8730   21.4760 C   0  0  0  0  0  2  0  0  0  0  0  0
  -26.0370  -29.5040   20.8460 C   0  0  0  0  0  0  0  0  0  0  0  0
  -27.2430  -28.7870   20.8700 C   0  0  0  0  0  3  0  0  0  0  0  0
  -26.1800  -26.9640   19.6590 C   0  0  0  0  0  3  0  0  0  0  0  0
  -24.9660  -27.6820   19.6420 C   0  0  0  0  0  3  0  0  0  0  0  0
  -23.6580  -29.8150   20.2430 C   0  0  0  0  0  2  0  0  0  0  0  0
  -24.6640  -31.1040   22.1890 N   0  0  0  0  0  0  0  0  0  0  0  0
  -23.4960  -32.1640   23.8130 O   0  0  0  0  0  0  0  0  0  0  0  0
  -22.7470  -29.4750   22.5590 C   0  0  0  0  0  0  0  0  0  0  0  0
  -21.4320  -29.2730   22.3790 N   0  0  0  0  0  0  0  0  0  0  0  0
  -23.4080  -28.8630   23.4010 O   0  0  0  0  0  0  0  0  0  0  0  0
  -20.9630  -29.8190   21.6710 H   0  0  0  0  0  0  0  0  0  0  0  0
  -18.0610  -28.0360   22.7320 C   0  0  0  0  0  0  0  0  0  0  0  0
  -20.5990  -28.3290   23.1200 C   0  0  0  0  0  3  0  0  0  0  0  0
  -20.7480  -26.8960   22.5590 C   0  0  0  0  0  2  0  0  0  0  0  0
  -19.6980  -26.5510   21.4990 C   0  0  0  0  0  2  0  0  0  0  0  0
  -18.2870  -26.6830   22.0780 C   0  0  0  0  0  2  0  0  0  0  0  0
  -19.1480  -28.8160   23.2070 C   0  0  0  0  0  0  0  0  0  0  0  0
  -18.8860  -30.0820   23.7740 C   0  0  0  0  0  3  0  0  0  0  0  0
  -17.5690  -30.5680   23.8750 C   0  0  0  0  0  3  0  0  0  0  0  0
  -16.4950  -29.7840   23.4190 C   0  0  0  0  0  3  0  0  0  0  0  0
  -16.7420  -28.5200   22.8530 C   0  0  0  0  0  3  0  0  0  0  0  0
  -25.8630  -32.5180   23.9490 C   0  0  0  0  0  3  0  0  0  0  0  0
  -26.3410  -31.7460   25.2400 C   0  0  1  0  0  0  0  0  0  0  0  0
  -25.2200  -31.5190   26.2790 C   0  0  0  0  0  1  0  0  0  0  0  0
  -26.9270  -30.3630   24.8650 C   0  0  0  0  0  1  0  0  0  0  0  0
  -27.4800  -32.5350   25.9290 C   0  0  0  0  0  1  0  0  0  0  0  0
  -25.5580  -33.9190   24.2610 N   0  0  0  0  0  0  0  0  0  0  0  0
  -25.9360  -34.9640   23.5110 C   0  0  0  0  0  0  0  0  0  0  0  0
  -26.6500  -34.8470   22.5110 O   0  0  0  0  0  0  0  0  0  0  0  0
  -24.9290  -34.0840   25.0340 H   0  0  0  0  0  0  0  0  0  0  0  0
  -24.2530  -36.7760   23.0610 C   0  0  0  0  0  1  0  0  0  0  0  0
  -25.4440  -36.3590   23.9380 C   0  0  0  0  0  3  0  0  0  0  0  0
  -27.5440  -37.2170   24.8790 C   0  0  0  0  0  1  0  0  0  0  0  0
  -26.4960  -37.3980   23.8780 N   0  0  0  0  0  0  0  0  0  0  0  0
  -26.0950  -38.3240   24.0020 H   0  0  0  0  0  0  0  0  0  0  0  0
  -31.8040  -21.9940   19.0550 C   0  0  0  0  0  2  0  0  0  0  0  0
  -31.4790  -21.1210   20.2780 C   0  0  0  0  0  2  0  0  0  0  0  0
  -31.1650  -19.6810   19.8770 C   0  0  0  0  0  2  0  0  0  0  0  0
  -31.0990  -18.7390   21.0830 C   0  0  0  0  0  2  0  0  0  0  0  0
  -30.6300  -17.3460   20.6600 C   0  0  0  0  0  2  0  0  0  0  0  0
  -30.9450  -16.2610   21.7010 C   0  0  0  0  0  2  0  0  0  0  0  0
  -30.7800  -14.2340   20.2640 C   0  0  0  0  0  0  0  0  0  0  0  0
  -30.3150  -12.2360   18.9080 C   0  0  0  0  0  2  0  0  0  0  0  0
  -29.3190  -12.5470   17.7750 C   0  0  0  0  0  2  0  0  0  0  0  0
  -27.8670  -12.4090   18.2710 C   0  0  0  0  0  2  0  0  0  0  0  0
  -27.6170  -13.1810   19.5930 C   0  0  0  0  0  3  0  0  0  0  0  0
  -28.7080  -12.8440   20.6320 C   0  0  0  0  0  2  0  0  0  0  0  0
  -30.0270  -13.1310   20.0350 N   0  0  0  0  0  0  0  0  0  0  0  0
  -31.7670  -14.5390   19.5880 O   0  0  0  0  0  0  0  0  0  0  0  0
  -30.3830  -14.9780   21.3030 N   0  0  0  0  0  0  0  0  0  0  0  0
  -29.5960  -14.6310   21.8310 H   0  0  0  0  0  0  0  0  0  0  0  0
  -25.2430  -13.8060   20.3810 C   0  0  0  0  0  0  0  0  0  0  0  0
  -24.1850  -13.0390   20.7900 C   0  0  0  0  0  0  0  0  0  0  0  0
  -24.6380  -11.6850   20.7460 C   0  0  0  0  0  0  0  0  0  0  0  0
  -26.2760  -12.9180   20.1170 N   0  0  0  0  0  0  0  0  0  0  0  0
  -25.9150  -11.6370   20.3890 N   0  0  0  0  0  0  0  0  0  0  0  0
  -23.9140  -10.4270   20.9660 C   0  0  0  0  0  0  0  0  0  0  0  0
  -24.3570   -9.4760   21.9110 C   0  0  0  0  0  3  0  0  0  0  0  0
  -23.6350   -8.2810   22.1170 C   0  0  0  0  0  3  0  0  0  0  0  0
  -22.4560   -8.0270   21.3780 C   0  0  0  0  0  0  0  0  0  0  0  0
  -22.0320   -8.9670   20.4210 C   0  0  0  0  0  3  0  0  0  0  0  0
  -22.7550  -10.1540   20.2140 C   0  0  0  0  0  3  0  0  0  0  0  0
  -21.7040   -6.8830   21.4930 O   0  0  0  0  0  0  0  0  0  0  0  0
  -21.6530   -6.1700   22.6630 C   0  0  0  0  0  0  0  0  0  0  0  0
  -21.2150   -6.7530   23.8730 C   0  0  0  0  0  3  0  0  0  0  0  0
  -21.1110   -5.9670   25.0370 C   0  0  0  0  0  3  0  0  0  0  0  0
  -21.4340   -4.5970   24.9940 C   0  0  0  0  0  0  0  0  0  0  0  0
  -21.8640   -4.0140   23.7900 C   0  0  0  0  0  3  0  0  0  0  0  0
  -21.9700   -4.7970   22.6280 C   0  0  0  0  0  0  0  0  0  0  0  0
  -22.3650   -4.2240   21.4660 F   0  0  0  0  0  0  0  0  0  0  0  0
  -21.3260   -3.8400   26.1100 F   0  0  0  0  0  0  0  0  0  0  0  0
  -22.8000  -13.5250   21.1130 C   0  0  0  0  0  0  0  0  0  0  0  0
  -22.1000  -12.8340   22.0060 N   0  0  0  0  0  0  0  0  0  0  0  0
  -22.3490  -14.5510   20.6080 O   0  0  0  0  0  0  0  0  0  0  0  0
  -22.4770  -12.0050   22.4400 H   0  0  0  0  0  0  0  0  0  0  0  0
  -21.1720  -13.1420   22.2600 H   0  0  0  0  0  0  0  0  0  0  0  0
  -25.4100  -15.1740   20.1950 N   0  0  0  0  0  0  0  0  0  0  0  0
  -24.6580  -15.8410   20.3330 H   0  0  0  0  0  0  0  0  0  0  0  0
  -26.2580  -15.6050   19.8480 H   0  0  0  0  0  0  0  0  0  0  0  0
  2  1  1  0
  3  4  1  0
  4  9  1  0
  4  1  2  0
  5  2  2  0
  6  3  2  0
  6  5  1  0
  7  6  1  0
  8  7  1  0
  9 10  1  0
 10 11  2  0
 11 12  1  0
 13 10  1  0
 13 14  1  0
 14 16  1  0
 15 26  2  0
 16 21  1  0
 17 25  1  0
 17 27  1  0
 18 24  1  0
 18 20  1  0
 19 25  1  0
 20 21  2  0
 20 19  1  0
 22 16  2  0
 23 22  1  0
 23 18  2  0
 24 17  1  0
 25 15  1  0
 27 29  2  0
 28 27  1  0
 30 28  1  0
 31 40  2  0
 31 36  1  0
 32 28  1  0
 32 36  1  0
 33 32  1  0
 34 35  1  0
 34 33  1  0
 35 31  1  0
 36 37  2  0
 37 38  1  0
 39 38  2  0
 40 39  1  0
 41 15  1  0
 41 46  1  0
 41 42  1  0
 42 45  1  1
 42 43  1  0
 44 42  1  0
 46 49  1  0
 47 51  1  0
 47 46  1  0
 48 47  2  0
 51 50  1  0
 53 51  1  0
 53 54  1  0
 53 52  1  0
 55  5  1  0
 55 56  1  0
 57 56  1  0
 57 58  1  0
 59 58  1  0
 59 60  1  0
 61 69  1  0
 62 67  1  0
 63 64  1  0
 63 62  1  0
 65 64  1  0
 65 74  1  0
 65 66  1  0
 67 61  1  0
 67 66  1  0
 68 61  2  0
 69 60  1  0
 69 70  1  0
 71 72  2  0
 72 91  1  0
 73 72  1  0
 73 76  1  0
 74 71  1  0
 74 75  1  0
 75 73  2  0
 76 77  1  0
 77 78  2  0
 79 82  1  0
 79 78  1  0
 80 79  2  0
 81 80  1  0
 81 76  2  0
 82 83  1  0
 83 84  1  0
 84 85  2  0
 86 85  1  0
 86 90  1  0
 87 86  2  0
 88 83  2  0
 88 87  1  0
 89 88  1  0
 91 92  1  0
 92 95  1  0
 92 94  1  0
 93 91  2  0
 96 97  1  0
 96 71  1  0
 98 96  1  0
M  ISO  4  13 101  14 101  61 100  69 100
M  END
>  <TORSDO>  (96) 
F 26

>  <SCORE>  (96) 
-11.127

>  <name>  (96) 
95

>  <ligand_id>  (96) 
95

>  <original_smiles>  (96) 
[H]N=C(C([H])([H])Oc1c([H])c([H])c2c(c1[H])C([H])([H])N(C(=O)C([H])(N([H])C(=O)C([H])(N([H])C([H])([H])[H])C([H])([H])[H])C(C([H])([H])[H])(C([H])([H])[H])C([H])([H])[H])C([H])(C(=O)N([H])C1([H])c3c([H])c([H])c([H])c([H])c3C([H])([H])C([H])([H])C1([H])[H])C2([H])[H])C([H])([H])c1c([H])c([H])c(C([H])([H])C([H])([H])C([H])([H])C([H])([H])C([H])([H])C([H])([H])N([H])C(=O)N2C([H])([H])C([H])([H])C([H])([H])C([H])(n3nc(-c4c([H])c([H])c(Oc5c([H])c([H])c(F)c([H])c5F)c([H])c4[H])c(C(=O)N([H])[H])c3N([H])[H])C2([H])[H])c(O[H])c1[H]

>  <smiles>  (96) 
[H]N=C(C([H])([H])Oc1c([H])c([H])c2c(c1[H])C([H])([H])N(C(=O)C([H])(N([H])C(=O)C([H])(N([H])C([H])([H])[H])C([H])([H])[H])C(C([H])([H])[H])(C([H])([H])[H])C([H])([H])[H])C([H])(C(=O)N([H])C1([H])c3c([H])c([H])c([H])c([H])c3C([H])([H])C([H])([H])C1([H])[H])C2([H])[H])C([H])([H])c1c([H])c([H])c(C([H])([H])C([H])([H])C([H])([H])C([H])([H])C([H])([H])C([H])([H])N([H])C(=O)N2C([H])([H])C([H])([H])C([H])([H])C([H])(n3nc(-c4c([H])c([H])c(Oc5c([H])c([H])c(F)c([H])c5F)c([H])c4[H])c(C(=O)N([H])[H])c3N([H])[H])C2([H])[H])c(O[H])c1[H]

$$$$
96:0:0
     RDKit          3D

 93101  0  0  1  0  0  0  0  0999 V2000
  -28.3140  -25.4340   21.9880 C   0  0  0  0  0  3  0  0  0  0  0  0
  -28.6480  -24.0560   20.0350 C   0  0  0  0  0  3  0  0  0  0  0  0
  -28.5990  -24.3190   22.7990 C   0  0  0  0  0  0  0  0  0  0  0  0
  -28.9280  -22.8650   20.8230 C   0  0  0  0  0  0  0  0  0  0  0  0
  -29.0490  -23.0830   22.2410 C   0  0  0  0  0  0  0  0  0  0  0  0
  -28.4030  -25.3690   20.5920 C   0  0  0  0  0  0  0  0  0  0  0  0
  -28.3900  -24.5260   24.2920 C   0  0  0  0  0  1  0  0  0  0  0  0
  -28.3140  -26.5860   19.8700 O   0  0  0  0  0  0  0  0  0  0  0  0
  -24.6760  -31.9460   23.1600 C   0  0  0  0  0  0  0  0  0  0  0  0
  -27.2000  -27.4300   19.9680 C   0  0  0  0  0  0  0  0  0  0  0  0
  -23.4260  -30.5670   21.5360 C   0  0  0  0  0  3  0  0  0  0  0  0
  -24.8350  -29.0330   20.0520 C   0  0  0  0  0  0  0  0  0  0  0  0
  -25.9570  -30.8920   21.2830 C   0  0  0  0  0  2  0  0  0  0  0  0
  -26.0200  -29.5190   20.6210 C   0  0  0  0  0  0  0  0  0  0  0  0
  -27.2090  -28.7280   20.5700 C   0  0  0  0  0  3  0  0  0  0  0  0
  -25.9950  -26.9930   19.3850 C   0  0  0  0  0  3  0  0  0  0  0  0
  -24.8230  -27.7750   19.4280 C   0  0  0  0  0  3  0  0  0  0  0  0
  -23.6010  -29.9090   20.1420 C   0  0  0  0  0  2  0  0  0  0  0  0
  -24.7070  -31.1530   22.0490 N   0  0  0  0  0  0  0  0  0  0  0  0
  -23.6090  -32.2140   23.7310 O   0  0  0  0  0  0  0  0  0  0  0  0
  -22.7940  -29.5380   22.5030 C   0  0  0  0  0  0  0  0  0  0  0  0
  -21.4740  -29.3180   22.3760 N   0  0  0  0  0  0  0  0  0  0  0  0
  -23.4900  -28.9390   23.3260 O   0  0  0  0  0  0  0  0  0  0  0  0
  -20.9690  -29.8560   21.6850 H   0  0  0  0  0  0  0  0  0  0  0  0
  -18.1550  -27.9410   22.8030 C   0  0  0  0  0  0  0  0  0  0  0  0
  -20.6830  -28.3600   23.1510 C   0  0  0  0  0  3  0  0  0  0  0  0
  -20.8890  -26.9190   22.6320 C   0  0  0  0  0  2  0  0  0  0  0  0
  -19.8450  -26.4960   21.5930 C   0  0  0  0  0  2  0  0  0  0  0  0
  -18.4340  -26.5820   22.1840 C   0  0  0  0  0  2  0  0  0  0  0  0
  -19.2110  -28.7830   23.2430 C   0  0  0  0  0  0  0  0  0  0  0  0
  -18.8970  -30.0490   23.7820 C   0  0  0  0  0  3  0  0  0  0  0  0
  -17.5600  -30.4770   23.8840 C   0  0  0  0  0  3  0  0  0  0  0  0
  -16.5180  -29.6340   23.4600 C   0  0  0  0  0  3  0  0  0  0  0  0
  -16.8170  -28.3680   22.9250 C   0  0  0  0  0  3  0  0  0  0  0  0
  -25.9770  -32.5730   23.7510 C   0  0  0  0  0  3  0  0  0  0  0  0
  -25.6770  -33.9680   24.1050 N   0  0  0  0  0  0  0  0  0  0  0  0
  -26.0010  -35.0300   23.3560 C   0  0  0  0  0  0  0  0  0  0  0  0
  -26.6540  -34.9380   22.3120 O   0  0  0  0  0  0  0  0  0  0  0  0
  -25.0970  -34.1130   24.9180 H   0  0  0  0  0  0  0  0  0  0  0  0
  -24.2780  -36.8360   23.0510 C   0  0  0  0  0  1  0  0  0  0  0  0
  -25.5280  -36.4140   23.8390 C   0  0  0  0  0  3  0  0  0  0  0  0
  -27.6790  -37.2770   24.6510 C   0  0  0  0  0  1  0  0  0  0  0  0
  -26.5640  -37.4640   23.7260 N   0  0  0  0  0  0  0  0  0  0  0  0
  -26.1650  -38.3840   23.8930 H   0  0  0  0  0  0  0  0  0  0  0  0
  -26.5280  -31.7890   25.0060 C   0  0  1  0  0  0  0  0  0  0  0  0
  -25.4660  -31.5420   26.1020 C   0  0  0  0  0  1  0  0  0  0  0  0
  -27.0990  -30.4140   24.5850 C   0  0  0  0  0  1  0  0  0  0  0  0
  -27.6990  -32.5750   25.6410 C   0  0  0  0  0  1  0  0  0  0  0  0
  -29.0200  -21.4300   20.0910 C   0  0  0  0  0  3  0  0  0  0  0  0
  -29.5300  -20.0370   20.7530 C   0  0  0  0  0  3  0  0  0  0  0  0
  -29.3290  -18.5920   20.0710 C   0  0  0  0  0  3  0  0  0  0  0  0
  -30.1910  -17.3640   20.6620 C   0  0  0  0  0  3  0  0  0  0  0  0
  -30.5570  -14.8230   20.1070 C   0  0  0  0  0  0  0  0  0  0  0  0
  -30.3290  -12.5680   19.0640 C   0  0  0  0  0  2  0  0  0  0  0  0
  -29.3410  -12.6540   17.8800 C   0  0  0  0  0  2  0  0  0  0  0  0
  -27.8890  -12.4760   18.3660 C   0  0  0  0  0  2  0  0  0  0  0  0
  -27.5600  -13.3500   19.6050 C   0  0  0  0  0  3  0  0  0  0  0  0
  -28.6600  -13.2440   20.6830 C   0  0  0  0  0  2  0  0  0  0  0  0
  -29.9320  -13.6020   20.0430 N   0  0  0  0  0  0  0  0  0  0  0  0
  -31.7270  -14.9510   19.7410 O   0  0  0  0  0  0  0  0  0  0  0  0
  -29.7810  -15.9230   20.4080 N   0  0  0  0  0  0  0  0  0  0  0  0
  -28.8150  -15.7060   20.6050 H   0  0  0  0  0  0  0  0  0  0  0  0
  -25.1980  -13.9250   20.4300 C   0  0  0  0  0  0  0  0  0  0  0  0
  -24.1510  -13.1420   20.8330 C   0  0  0  0  0  0  0  0  0  0  0  0
  -24.6200  -11.7940   20.7720 C   0  0  0  0  0  0  0  0  0  0  0  0
  -26.2360  -13.0530   20.1440 N   0  0  0  0  0  0  0  0  0  0  0  0
  -25.8970  -11.7660   20.4110 N   0  0  0  0  0  0  0  0  0  0  0  0
  -23.9080  -10.5250   20.9760 C   0  0  0  0  0  0  0  0  0  0  0  0
  -24.3670   -9.5600   21.8990 C   0  0  0  0  0  3  0  0  0  0  0  0
  -23.6550   -8.3570   22.0930 C   0  0  0  0  0  3  0  0  0  0  0  0
  -22.4680   -8.1110   21.3620 C   0  0  0  0  0  0  0  0  0  0  0  0
  -22.0270   -9.0650   20.4270 C   0  0  0  0  0  3  0  0  0  0  0  0
  -22.7400  -10.2590   20.2330 C   0  0  0  0  0  3  0  0  0  0  0  0
  -21.7240   -6.9600   21.4650 O   0  0  0  0  0  0  0  0  0  0  0  0
  -21.6910   -6.2250   22.6220 C   0  0  0  0  0  0  0  0  0  0  0  0
  -21.2660   -6.7820   23.8480 C   0  0  0  0  0  3  0  0  0  0  0  0
  -21.1820   -5.9720   24.9980 C   0  0  0  0  0  3  0  0  0  0  0  0
  -21.5130   -4.6070   24.9250 C   0  0  0  0  0  0  0  0  0  0  0  0
  -21.9330   -4.0490   23.7040 C   0  0  0  0  0  3  0  0  0  0  0  0
  -22.0190   -4.8560   22.5560 C   0  0  0  0  0  0  0  0  0  0  0  0
  -22.4030   -4.3080   21.3780 F   0  0  0  0  0  0  0  0  0  0  0  0
  -21.4250   -3.8270   26.0270 F   0  0  0  0  0  0  0  0  0  0  0  0
  -22.7630  -13.6090   21.1610 C   0  0  0  0  0  0  0  0  0  0  0  0
  -22.0700  -12.8990   22.0440 N   0  0  0  0  0  0  0  0  0  0  0  0
  -22.3020  -14.6380   20.6700 O   0  0  0  0  0  0  0  0  0  0  0  0
  -22.4550  -12.0650   22.4640 H   0  0  0  0  0  0  0  0  0  0  0  0
  -21.1400  -13.1930   22.3070 H   0  0  0  0  0  0  0  0  0  0  0  0
  -25.3460  -15.2980   20.2590 N   0  0  0  0  0  0  0  0  0  0  0  0
  -24.5770  -15.9430   20.4030 H   0  0  0  0  0  0  0  0  0  0  0  0
  -26.1660  -15.7450   19.8690 H   0  0  0  0  0  0  0  0  0  0  0  0
  -29.7110  -22.0460   23.1620 C   0  0  0  0  0  2  0  0  0  0  0  0
  -31.8120  -21.4850   24.5230 C   0  0  0  0  0  1  0  0  0  0  0  0
  -30.7940  -22.5670   24.1370 C   0  0  0  0  0  2  0  0  0  0  0  0
  1  3  1  0
  2  6  1  0
  2  4  2  0
  3  7  1  0
  4  5  1  0
  5  3  2  0
  5 91  1  0
  6  1  2  0
  8 10  1  0
  8  6  1  0
  9 20  2  0
 10 15  1  0
 11 19  1  0
 11 21  1  0
 12 18  1  0
 12 14  1  0
 13 19  1  0
 14 13  1  0
 15 14  2  0
 16 17  1  0
 16 10  2  0
 17 12  2  0
 18 11  1  0
 19  9  1  0
 21 23  2  0
 22 21  1  0
 24 22  1  0
 25 34  2  0
 25 30  1  0
 26 22  1  0
 26 30  1  0
 27 26  1  0
 28 29  1  0
 28 27  1  0
 29 25  1  0
 30 31  2  0
 31 32  1  0
 33 32  2  0
 34 33  1  0
 35  9  1  0
 35 36  1  0
 35 45  1  0
 36 39  1  0
 37 41  1  0
 37 36  1  0
 38 37  2  0
 41 40  1  0
 43 41  1  0
 43 44  1  0
 43 42  1  0
 45 48  1  1
 45 46  1  0
 47 45  1  0
 49 50  2  0
 49  4  1  0
 51 52  2  0
 51 50  1  0
 53 61  1  0
 54 59  1  0
 55 56  1  0
 55 54  1  0
 57 56  1  0
 57 66  1  0
 57 58  1  0
 59 53  1  0
 59 58  1  0
 60 53  2  0
 61 62  1  0
 61 52  1  0
 63 64  2  0
 64 83  1  0
 65 64  1  0
 65 68  1  0
 66 67  1  0
 66 63  1  0
 67 65  2  0
 68 69  1  0
 69 70  2  0
 71 74  1  0
 71 70  1  0
 72 71  2  0
 73 72  1  0
 73 68  2  0
 74 75  1  0
 75 76  1  0
 76 77  2  0
 78 77  1  0
 78 82  1  0
 79 78  2  0
 80 75  2  0
 80 79  1  0
 81 80  1  0
 83 84  1  0
 84 87  1  0
 84 86  1  0
 85 83  2  0
 88 89  1  0
 88 63  1  0
 90 88  1  0
 91 93  1  0
 93 92  1  0
M  ISO  4   6 101   8 101  53 100  61 100
M  END
>  <TORSDO>  (97) 
F 22

>  <SCORE>  (97) 
-12.014

>  <name>  (97) 
96

>  <ligand_id>  (97) 
96

>  <original_smiles>  (97) 
[H]c1c([H])c([H])c2c(c1[H])C([H])([H])C([H])([H])C([H])([H])C2([H])N([H])C(=O)C1([H])N(C(=O)C([H])(N([H])C(=O)C([H])(N([H])C([H])([H])[H])C([H])([H])[H])C(C([H])([H])[H])(C([H])([H])[H])C([H])([H])[H])C([H])([H])c2c([H])c(Oc3c([H])c(C([H])([H])[H])c(C([H])([H])C([H])([H])C([H])([H])[H])c(C([H])([H])C([H])([H])C([H])([H])C([H])([H])N([H])C(=O)N4C([H])([H])C([H])([H])C([H])([H])C([H])(n5nc(-c6c([H])c([H])c(Oc7c([H])c([H])c(F)c([H])c7F)c([H])c6[H])c(C(=O)N([H])[H])c5N([H])[H])C4([H])[H])c3[H])c([H])c([H])c2C1([H])[H]

>  <smiles>  (97) 
[H]c1c([H])c([H])c2c(c1[H])C([H])([H])C([H])([H])C([H])([H])C2([H])N([H])C(=O)C1([H])N(C(=O)C([H])(N([H])C(=O)C([H])(N([H])C([H])([H])[H])C([H])([H])[H])C(C([H])([H])[H])(C([H])([H])[H])C([H])([H])[H])C([H])([H])c2c([H])c(Oc3c([H])c(C([H])([H])[H])c(C([H])([H])C([H])([H])C([H])([H])[H])c(C([H])([H])C([H])([H])C([H])([H])C([H])([H])N([H])C(=O)N4C([H])([H])C([H])([H])C([H])([H])C([H])(n5nc(-c6c([H])c([H])c(Oc7c([H])c([H])c(F)c([H])c7F)c([H])c6[H])c(C(=O)N([H])[H])c5N([H])[H])C4([H])[H])c3[H])c([H])c([H])c2C1([H])[H]

$$$$
97:0:0
     RDKit          3D

 95104  0  0  1  0  0  0  0  0999 V2000
  -31.5640  -22.4080   21.3750 C   0  0  0  0  0  3  0  0  0  0  0  0
  -28.9940  -22.0730   20.2480 C   0  0  0  0  0  3  0  0  0  0  0  0
  -30.5390  -23.3320   21.6170 C   0  0  0  0  0  0  0  0  0  0  0  0
  -29.3190  -23.2780   20.9490 C   0  0  0  0  0  0  0  0  0  0  0  0
  -31.2990  -21.2830   20.5630 C   0  0  0  0  0  0  0  0  0  0  0  0
  -29.9670  -21.0150   20.1290 C   0  0  0  0  0  0  0  0  0  0  0  0
  -30.5260  -24.3780   22.6970 C   0  0  0  0  0  2  0  0  0  0  0  0
  -29.0130  -24.6680   22.8300 C   0  0  0  0  0  2  0  0  0  0  0  0
  -28.4250  -24.4650   21.4060 C   0  0  0  0  0  3  0  0  0  0  0  0
  -32.4800  -20.4190   20.1300 C   0  0  0  0  0  2  0  0  0  0  0  0
  -33.0770  -20.9600   18.8160 C   0  0  0  0  0  2  0  0  0  0  0  0
  -34.8310  -20.7670   16.9980 C   0  0  0  0  0  1  0  0  0  0  0  0
  -34.2410  -20.1280   18.2610 C   0  0  0  0  0  2  0  0  0  0  0  0
  -29.6320  -19.6230   19.5090 C   0  0  0  0  0  2  0  0  0  0  0  0
  -29.7560  -18.3530   20.4570 C   0  0  0  0  0  2  0  0  0  0  0  0
  -30.0010  -16.9460   19.7690 C   0  0  0  0  0  3  0  0  0  0  0  0
  -30.2510  -15.6920   20.7100 C   0  0  0  0  0  3  0  0  0  0  0  0
  -30.8340  -14.3910   20.0390 C   0  0  0  0  0  0  0  0  0  0  0  0
  -30.4600  -12.1820   18.9680 C   0  0  0  0  0  2  0  0  0  0  0  0
  -29.4520  -12.3510   17.8060 C   0  0  0  0  0  2  0  0  0  0  0  0
  -27.9990  -12.2540   18.3130 C   0  0  0  0  0  2  0  0  0  0  0  0
  -27.7520  -13.1320   19.5660 C   0  0  0  0  0  3  0  0  0  0  0  0
  -28.8570  -12.9140   20.6200 C   0  0  0  0  0  2  0  0  0  0  0  0
  -30.1490  -13.2080   19.9830 N   0  0  0  0  0  0  0  0  0  0  0  0
  -31.9360  -14.4940   19.4910 O   0  0  0  0  0  0  0  0  0  0  0  0
  -25.4380  -13.8370   20.4340 C   0  0  0  0  0  0  0  0  0  0  0  0
  -24.3590  -13.1080   20.8540 C   0  0  0  0  0  0  0  0  0  0  0  0
  -24.7490  -11.7360   20.7730 C   0  0  0  0  0  0  0  0  0  0  0  0
  -26.4200  -12.9100   20.1210 N   0  0  0  0  0  0  0  0  0  0  0  0
  -26.0130  -11.6420   20.3820 N   0  0  0  0  0  0  0  0  0  0  0  0
  -23.9740  -10.5090   20.9900 C   0  0  0  0  0  0  0  0  0  0  0  0
  -24.4140   -9.5070   21.8800 C   0  0  0  0  0  3  0  0  0  0  0  0
  -23.6450   -8.3390   22.0780 C   0  0  0  0  0  3  0  0  0  0  0  0
  -22.4240   -8.1680   21.3840 C   0  0  0  0  0  0  0  0  0  0  0  0
  -22.0060   -9.1560   20.4770 C   0  0  0  0  0  3  0  0  0  0  0  0
  -22.7720  -10.3170   20.2790 C   0  0  0  0  0  3  0  0  0  0  0  0
  -21.6150   -7.0620   21.5000 O   0  0  0  0  0  0  0  0  0  0  0  0
  -21.5900   -6.3080   22.6440 C   0  0  0  0  0  0  0  0  0  0  0  0
  -21.2420   -6.8620   23.8960 C   0  0  0  0  0  3  0  0  0  0  0  0
  -21.1630   -6.0350   25.0340 C   0  0  0  0  0  3  0  0  0  0  0  0
  -21.4190   -4.6530   24.9210 C   0  0  0  0  0  0  0  0  0  0  0  0
  -21.7580   -4.0990   23.6730 C   0  0  0  0  0  3  0  0  0  0  0  0
  -21.8410   -4.9240   22.5390 C   0  0  0  0  0  0  0  0  0  0  0  0
  -22.1510   -4.3840   21.3350 F   0  0  0  0  0  0  0  0  0  0  0  0
  -21.3340   -3.8560   26.0100 F   0  0  0  0  0  0  0  0  0  0  0  0
  -23.0070  -13.6460   21.2280 C   0  0  0  0  0  0  0  0  0  0  0  0
  -22.3080  -12.9620   22.1300 N   0  0  0  0  0  0  0  0  0  0  0  0
  -22.5860  -14.7030   20.7580 O   0  0  0  0  0  0  0  0  0  0  0  0
  -22.6680  -12.1080   22.5290 H   0  0  0  0  0  0  0  0  0  0  0  0
  -21.4010  -13.2910   22.4300 H   0  0  0  0  0  0  0  0  0  0  0  0
  -25.6660  -15.2020   20.2780 N   0  0  0  0  0  0  0  0  0  0  0  0
  -24.9470  -15.9010   20.4290 H   0  0  0  0  0  0  0  0  0  0  0  0
  -26.5300  -15.5920   19.9250 H   0  0  0  0  0  0  0  0  0  0  0  0
  -28.5880  -25.9030   20.7380 C   0  0  0  0  0  2  0  0  0  0  0  0
  -27.8130  -26.3020   19.5960 O   0  0  0  0  0  0  0  0  0  0  0  0
  -24.3860  -31.6750   23.0300 C   0  0  0  0  0  0  0  0  0  0  0  0
  -26.7500  -27.1820   19.7480 C   0  0  0  0  0  0  0  0  0  0  0  0
  -23.0830  -30.3740   21.3840 C   0  0  0  0  0  3  0  0  0  0  0  0
  -24.4350  -28.8230   19.8710 C   0  0  0  0  0  0  0  0  0  0  0  0
  -25.6210  -30.6240   21.1280 C   0  0  0  0  0  2  0  0  0  0  0  0
  -25.6340  -29.2650   20.4510 C   0  0  0  0  0  0  0  0  0  0  0  0
  -26.7970  -28.4510   20.3940 C   0  0  0  0  0  3  0  0  0  0  0  0
  -25.5410  -26.7820   19.1500 C   0  0  0  0  0  3  0  0  0  0  0  0
  -24.3850  -27.5810   19.2200 C   0  0  0  0  0  3  0  0  0  0  0  0
  -23.2320  -29.7350   19.9780 C   0  0  0  0  0  2  0  0  0  0  0  0
  -24.3840  -30.9050   21.9050 N   0  0  0  0  0  0  0  0  0  0  0  0
  -23.3290  -31.9720   23.6060 O   0  0  0  0  0  0  0  0  0  0  0  0
  -22.4180  -29.3470   22.3290 C   0  0  0  0  0  0  0  0  0  0  0  0
  -21.0820  -29.2310   22.2450 N   0  0  0  0  0  0  0  0  0  0  0  0
  -23.1000  -28.6590   23.0940 O   0  0  0  0  0  0  0  0  0  0  0  0
  -20.5940  -29.8370   21.6000 H   0  0  0  0  0  0  0  0  0  0  0  0
  -17.6740  -28.1850   22.8480 C   0  0  0  0  0  0  0  0  0  0  0  0
  -20.2510  -28.3000   23.0100 C   0  0  0  0  0  3  0  0  0  0  0  0
  -20.2520  -26.8940   22.3680 C   0  0  0  0  0  2  0  0  0  0  0  0
  -19.0910  -26.6740   21.3920 C   0  0  0  0  0  2  0  0  0  0  0  0
  -17.7490  -26.8610   22.1060 C   0  0  0  0  0  2  0  0  0  0  0  0
  -18.8500  -28.8670   23.2600 C   0  0  0  0  0  0  0  0  0  0  0  0
  -18.7270  -30.1110   23.9170 C   0  0  0  0  0  3  0  0  0  0  0  0
  -17.4600  -30.6710   24.1670 C   0  0  0  0  0  3  0  0  0  0  0  0
  -16.2990  -29.9840   23.7720 C   0  0  0  0  0  3  0  0  0  0  0  0
  -16.4070  -28.7420   23.1200 C   0  0  0  0  0  3  0  0  0  0  0  0
  -25.7090  -32.2380   23.6330 C   0  0  0  0  0  3  0  0  0  0  0  0
  -25.4550  -33.6270   24.0380 N   0  0  0  0  0  0  0  0  0  0  0  0
  -25.8120  -34.7040   23.3250 C   0  0  0  0  0  0  0  0  0  0  0  0
  -26.4650  -34.6320   22.2820 O   0  0  0  0  0  0  0  0  0  0  0  0
  -24.8820  -33.7630   24.8580 H   0  0  0  0  0  0  0  0  0  0  0  0
  -24.1510  -36.5780   23.0820 C   0  0  0  0  0  1  0  0  0  0  0  0
  -25.3780  -36.0840   23.8620 C   0  0  0  0  0  3  0  0  0  0  0  0
  -27.5460  -36.8470   24.7280 C   0  0  0  0  0  1  0  0  0  0  0  0
  -26.4490  -37.1020   23.7990 N   0  0  0  0  0  0  0  0  0  0  0  0
  -26.0730  -38.0260   23.9980 H   0  0  0  0  0  0  0  0  0  0  0  0
  -26.2470  -31.3920   24.8520 C   0  0  1  0  0  0  0  0  0  0  0  0
  -25.1880  -31.1380   25.9520 C   0  0  0  0  0  1  0  0  0  0  0  0
  -26.7700  -30.0190   24.3720 C   0  0  0  0  0  1  0  0  0  0  0  0
  -27.4450  -32.1190   25.5120 C   0  0  0  0  0  1  0  0  0  0  0  0
  1  3  1  0
  2  4  1  0
  3  7  1  0
  4  9  1  0
  4  3  2  0
  5  1  2  0
  6  2  2  0
  6  5  1  0
  7  8  1  0
  9 54  1  0
  9  8  1  0
 10  5  1  0
 11 10  1  0
 12 13  1  0
 13 11  1  0
 14  6  1  0
 14 15  1  0
 16 15  1  0
 16 17  2  0
 18 17  1  0
 19 24  1  0
 20 21  1  0
 20 19  1  0
 22 21  1  0
 22 29  1  0
 22 23  1  0
 24 18  1  0
 24 23  1  0
 25 18  2  0
 26 27  2  0
 27 46  1  0
 28 27  1  0
 28 31  1  0
 29 30  1  0
 29 26  1  0
 30 28  2  0
 31 32  1  0
 32 33  2  0
 34 37  1  0
 34 33  1  0
 35 34  2  0
 36 35  1  0
 36 31  2  0
 37 38  1  0
 38 39  1  0
 39 40  2  0
 41 40  1  0
 41 45  1  0
 42 41  2  0
 43 38  2  0
 43 42  1  0
 44 43  1  0
 46 47  1  0
 47 50  1  0
 47 49  1  0
 48 46  2  0
 51 52  1  0
 51 26  1  0
 53 51  1  0
 55 57  1  0
 55 54  1  0
 56 67  2  0
 57 62  1  0
 58 66  1  0
 58 68  1  0
 59 65  1  0
 59 61  1  0
 60 66  1  0
 61 60  1  0
 62 61  2  0
 63 64  1  0
 63 57  2  0
 64 59  2  0
 65 58  1  0
 66 56  1  0
 68 70  2  0
 69 68  1  0
 71 69  1  0
 72 81  2  0
 72 77  1  0
 73 69  1  0
 73 77  1  0
 74 73  1  0
 75 76  1  0
 75 74  1  0
 76 72  1  0
 77 78  2  0
 78 79  1  0
 80 79  2  0
 81 80  1  0
 82 56  1  0
 82 83  1  0
 82 92  1  0
 83 86  1  0
 84 88  1  0
 84 83  1  0
 85 84  2  0
 88 87  1  0
 90 88  1  0
 90 91  1  0
 90 89  1  0
 92 95  1  1
 92 93  1  0
 94 92  1  0
M  ISO  4  17 100  18 100  54 101  55 101
M  END
>  <TORSDO>  (98) 
F 24

>  <SCORE>  (98) 
-11.427

>  <name>  (98) 
97

>  <ligand_id>  (98) 
97

>  <original_smiles>  (98) 
[H]c1c([H])c([H])c2c(c1[H])C([H])([H])C([H])([H])C([H])([H])C2([H])N([H])C(=O)C1([H])N(C(=O)C([H])(N([H])C(=O)C([H])(N([H])C([H])([H])[H])C([H])([H])[H])C(C([H])([H])[H])(C([H])([H])[H])C([H])([H])[H])C([H])([H])c2c([H])c(OC([H])([H])C3([H])c4c([H])c(C([H])([H])C([H])([H])C([H])([H])C([H])([H])C(=O)N5C([H])([H])C([H])([H])C([H])([H])C([H])(n6nc(-c7c([H])c([H])c(Oc8c([H])c([H])c(F)c([H])c8F)c([H])c7[H])c(C(=O)N([H])[H])c6N([H])[H])C5([H])[H])c(C([H])([H])C([H])([H])C([H])([H])C([H])([H])[H])c([H])c4C([H])([H])C3([H])[H])c([H])c([H])c2C1([H])[H]

>  <smiles>  (98) 
[H]c1c([H])c([H])c2c(c1[H])C([H])([H])C([H])([H])C([H])([H])C2([H])N([H])C(=O)C1([H])N(C(=O)C([H])(N([H])C(=O)C([H])(N([H])C([H])([H])[H])C([H])([H])[H])C(C([H])([H])[H])(C([H])([H])[H])C([H])([H])[H])C([H])([H])c2c([H])c(OC([H])([H])C3([H])c4c([H])c(C([H])([H])C([H])([H])C([H])([H])C([H])([H])C(=O)N5C([H])([H])C([H])([H])C([H])([H])C([H])(n6nc(-c7c([H])c([H])c(Oc8c([H])c([H])c(F)c([H])c8F)c([H])c7[H])c(C(=O)N([H])[H])c6N([H])[H])C5([H])[H])c(C([H])([H])C([H])([H])C([H])([H])C([H])([H])[H])c([H])c4C([H])([H])C3([H])[H])c([H])c([H])c2C1([H])[H]

$$$$
