0:0:0
     RDKit          3D

100110  0  0  1  0  0  0  0  0999 V2000
  -32.0020  -18.2610   20.9350 C   0  0  0  0  0  3  0  0  0  0  0  0
  -29.9070  -17.2410   20.2470 C   0  0  0  0  0  3  0  0  0  0  0  0
  -29.7530  -18.6380   19.5370 C   0  0  0  0  0  3  0  0  0  0  0  0
  -30.9250  -19.1460   18.9530 C   0  0  0  0  0  3  0  0  0  0  0  0
  -30.8050  -17.5800   21.2960 C   0  0  0  0  0  3  0  0  0  0  0  0
  -32.1180  -18.9150   19.6810 C   0  0  0  0  0  0  0  0  0  0  0  0
  -30.8050  -20.2100   17.8510 C   0  0  0  0  0  2  0  0  0  0  0  0
  -30.2450  -21.5750   18.3420 C   0  0  0  0  0  2  0  0  0  0  0  0
  -29.1200  -20.8810   21.1490 C   0  0  0  0  0  2  0  0  0  0  0  0
  -29.0520  -22.5010   21.0130 C   0  0  0  0  0  2  0  0  0  0  0  0
  -28.8130  -21.5060   18.9400 C   0  0  0  0  0  3  0  0  0  0  0  0
  -28.7880  -20.0470   19.8410 C   0  0  1  0  0  0  0  0  0  0  0  0
  -28.3430  -23.0010   19.7050 C   0  0  1  0  0  0  0  0  0  0  0  0
  -27.3570  -19.4760   19.8670 C   0  0  0  0  0  1  0  0  0  0  0  0
  -26.8260  -22.9560   19.9690 C   0  0  0  0  0  1  0  0  0  0  0  0
  -30.4510  -15.6920   19.7880 C   0  0  0  0  0  0  0  0  0  0  0  0
  -30.4440  -13.1810   19.1090 C   0  0  0  0  0  2  0  0  0  0  0  0
  -29.5150  -12.8870   17.9050 C   0  0  0  0  0  2  0  0  0  0  0  0
  -28.0880  -12.5890   18.3920 C   0  0  0  0  0  2  0  0  0  0  0  0
  -27.6330  -13.5900   19.4860 C   0  0  0  0  0  3  0  0  0  0  0  0
  -28.7000  -13.8740   20.5690 C   0  0  0  0  0  2  0  0  0  0  0  0
  -29.9060  -14.3700   19.8870 N   0  0  0  0  0  0  0  0  0  0  0  0
  -31.6030  -15.6290   19.3320 O   0  0  0  0  0  0  0  0  0  0  0  0
  -25.3200  -14.0960   20.4210 C   0  0  0  0  0  0  0  0  0  0  0  0
  -24.2790  -13.2990   20.8090 C   0  0  0  0  0  0  0  0  0  0  0  0
  -24.7350  -11.9530   20.6670 C   0  0  0  0  0  0  0  0  0  0  0  0
  -26.3400  -13.2360   20.0560 N   0  0  0  0  0  0  0  0  0  0  0  0
  -26.0060  -11.9360   20.2710 N   0  0  0  0  0  0  0  0  0  0  0  0
  -24.0110  -10.6820   20.8250 C   0  0  0  0  0  0  0  0  0  0  0  0
  -24.4690   -9.6760   21.7040 C   0  0  0  0  0  3  0  0  0  0  0  0
  -23.7430   -8.4740   21.8560 C   0  0  0  0  0  3  0  0  0  0  0  0
  -22.5460   -8.2690   21.1300 C   0  0  0  0  0  0  0  0  0  0  0  0
  -22.1050   -9.2660   20.2400 C   0  0  0  0  0  3  0  0  0  0  0  0
  -22.8310  -10.4590   20.0870 C   0  0  0  0  0  3  0  0  0  0  0  0
  -21.7890   -7.1240   21.1940 O   0  0  0  0  0  0  0  0  0  0  0  0
  -21.7300   -6.3620   22.3340 C   0  0  0  0  0  0  0  0  0  0  0  0
  -21.2710   -6.8900   23.5610 C   0  0  0  0  0  3  0  0  0  0  0  0
  -21.1610   -6.0540   24.6900 C   0  0  0  0  0  3  0  0  0  0  0  0
  -21.4990   -4.6910   24.5940 C   0  0  0  0  0  0  0  0  0  0  0  0
  -21.9520   -4.1620   23.3730 C   0  0  0  0  0  3  0  0  0  0  0  0
  -22.0640   -4.9960   22.2460 C   0  0  0  0  0  0  0  0  0  0  0  0
  -22.4780   -4.4750   21.0660 F   0  0  0  0  0  0  0  0  0  0  0  0
  -21.3880   -3.8870   25.6770 F   0  0  0  0  0  0  0  0  0  0  0  0
  -22.9050  -13.7640   21.1930 C   0  0  0  0  0  0  0  0  0  0  0  0
  -22.2330  -13.0310   22.0720 N   0  0  0  0  0  0  0  0  0  0  0  0
  -22.4390  -14.8110   20.7460 O   0  0  0  0  0  0  0  0  0  0  0  0
  -22.6240  -12.1830   22.4580 H   0  0  0  0  0  0  0  0  0  0  0  0
  -21.3110  -13.3200   22.3650 H   0  0  0  0  0  0  0  0  0  0  0  0
  -25.4850  -15.4740   20.3210 N   0  0  0  0  0  0  0  0  0  0  0  0
  -24.7400  -16.1290   20.5300 H   0  0  0  0  0  0  0  0  0  0  0  0
  -26.3310  -15.9250   19.9930 H   0  0  0  0  0  0  0  0  0  0  0  0
  -34.0830  -18.6580   18.1100 C   0  0  0  0  0  1  0  0  0  0  0  0
  -33.4610  -19.4820   19.2440 C   0  0  0  0  0  2  0  0  0  0  0  0
  -30.7470  -16.8630   22.6390 C   0  0  0  0  0  2  0  0  0  0  0  0
  -30.2510  -17.7450   23.8040 C   0  0  0  0  0  2  0  0  0  0  0  0
  -31.1250  -18.9730   24.1350 C   0  0  0  0  0  2  0  0  0  0  0  0
  -31.5760  -21.4640   23.8230 C   0  0  0  0  0  1  0  0  0  0  0  0
  -30.6190  -20.2990   23.5390 C   0  0  0  0  0  2  0  0  0  0  0  0
  -28.4810  -24.7120   19.1080 C   0  0  0  0  0  2  0  0  0  0  0  0
  -28.3430  -26.2730   19.6380 O   0  0  0  0  0  0  0  0  0  0  0  0
  -24.5720  -31.8280   23.0170 C   0  0  0  0  0  0  0  0  0  0  0  0
  -27.2680  -27.3060   19.6010 C   0  0  0  0  0  0  0  0  0  0  0  0
  -23.3890  -30.4820   21.3220 C   0  0  0  0  0  3  0  0  0  0  0  0
  -24.8690  -29.0540   19.7430 C   0  0  0  0  0  0  0  0  0  0  0  0
  -25.9340  -30.8390   21.1140 C   0  0  0  0  0  2  0  0  0  0  0  0
  -26.0520  -29.4830   20.3600 C   0  0  0  0  0  0  0  0  0  0  0  0
  -27.2370  -28.6270   20.2700 C   0  0  0  0  0  3  0  0  0  0  0  0
  -26.0510  -27.0280   18.9400 C   0  0  0  0  0  3  0  0  0  0  0  0
  -24.8950  -27.8530   19.0120 C   0  0  0  0  0  3  0  0  0  0  0  0
  -23.6040  -29.8990   19.8960 C   0  0  0  0  0  2  0  0  0  0  0  0
  -24.6520  -31.0750   21.8720 N   0  0  0  0  0  0  0  0  0  0  0  0
  -23.4880  -32.0270   23.5930 O   0  0  0  0  0  0  0  0  0  0  0  0
  -22.7790  -29.3940   22.2420 C   0  0  0  0  0  0  0  0  0  0  0  0
  -21.4460  -29.2120   22.1920 N   0  0  0  0  0  0  0  0  0  0  0  0
  -23.5090  -28.7140   22.9670 O   0  0  0  0  0  0  0  0  0  0  0  0
  -20.9070  -29.8110   21.5840 H   0  0  0  0  0  0  0  0  0  0  0  0
  -18.1260  -27.8970   22.8290 C   0  0  0  0  0  0  0  0  0  0  0  0
  -20.6950  -28.1920   22.9320 C   0  0  0  0  0  3  0  0  0  0  0  0
  -20.7730  -26.8200   22.2220 C   0  0  0  0  0  2  0  0  0  0  0  0
  -19.6070  -26.5690   21.2630 C   0  0  0  0  0  2  0  0  0  0  0  0
  -18.2740  -26.6220   22.0150 C   0  0  0  0  0  2  0  0  0  0  0  0
  -19.2620  -28.6440   23.2460 C   0  0  0  0  0  0  0  0  0  0  0  0
  -19.0660  -29.8370   23.9730 C   0  0  0  0  0  3  0  0  0  0  0  0
  -17.7690  -30.2870   24.2830 C   0  0  0  0  0  3  0  0  0  0  0  0
  -16.6500  -29.5380   23.8790 C   0  0  0  0  0  3  0  0  0  0  0  0
  -16.8310  -28.3430   23.1590 C   0  0  0  0  0  3  0  0  0  0  0  0
  -25.8330  -32.4910   23.6510 C   0  0  0  0  0  3  0  0  0  0  0  0
  -25.4790  -33.8700   24.0300 N   0  0  0  0  0  0  0  0  0  0  0  0
  -25.7980  -34.9660   23.3290 C   0  0  0  0  0  0  0  0  0  0  0  0
  -26.4840  -34.9230   22.3050 O   0  0  0  0  0  0  0  0  0  0  0  0
  -24.8720  -33.9760   24.8300 H   0  0  0  0  0  0  0  0  0  0  0  0
  -24.0440  -36.7470   23.0250 C   0  0  0  0  0  1  0  0  0  0  0  0
  -25.2770  -36.3240   23.8410 C   0  0  0  0  0  3  0  0  0  0  0  0
  -27.3730  -37.2170   24.7590 C   0  0  0  0  0  1  0  0  0  0  0  0
  -26.2890  -37.4010   23.7970 N   0  0  0  0  0  0  0  0  0  0  0  0
  -25.8610  -38.3060   23.9720 H   0  0  0  0  0  0  0  0  0  0  0  0
  -26.3800  -31.7070   24.9080 C   0  0  1  0  0  0  0  0  0  0  0  0
  -25.3050  -31.4310   25.9850 C   0  0  0  0  0  1  0  0  0  0  0  0
  -26.9850  -30.3460   24.4980 C   0  0  0  0  0  1  0  0  0  0  0  0
  -27.5250  -32.5100   25.5690 C   0  0  0  0  0  1  0  0  0  0  0  0
  1  5  1  0
  2 16  1  0
  2  5  1  0
  3 12  1  0
  3  2  1  0
  4  3  1  0
  4  6  1  0
  5 54  1  0
  6  1  2  0
  7  8  1  0
  7  4  1  0
  8 11  1  0
 10  9  1  0
 11 13  1  0
 11 12  1  0
 12 14  1  1
 12  9  1  0
 13 15  1  1
 13 10  1  0
 16 22  1  0
 17 22  1  0
 18 19  1  0
 18 17  1  0
 19 20  1  0
 20 27  1  0
 20 21  1  0
 22 21  1  0
 23 16  2  0
 24 25  2  0
 25 44  1  0
 26 25  1  0
 26 29  1  0
 27 28  1  0
 27 24  1  0
 28 26  2  0
 29 30  1  0
 30 31  2  0
 32 35  1  0
 32 31  1  0
 33 32  2  0
 34 33  1  0
 34 29  2  0
 35 36  1  0
 36 37  1  0
 37 38  2  0
 39 38  1  0
 39 43  1  0
 40 39  2  0
 41 36  2  0
 41 40  1  0
 42 41  1  0
 44 45  1  0
 45 48  1  0
 45 47  1  0
 46 44  2  0
 49 24  1  0
 49 50  1  0
 51 49  1  0
 52 53  1  0
 53  6  1  0
 54 55  1  0
 55 56  1  0
 58 57  1  0
 58 56  1  0
 59 60  1  0
 59 13  1  0
 61 72  2  0
 61 87  1  0
 62 60  1  0
 62 67  1  0
 63 71  1  0
 63 73  1  0
 64 70  1  0
 64 66  1  0
 65 71  1  0
 66 65  1  0
 67 66  2  0
 68 69  1  0
 68 62  2  0
 69 64  2  0
 70 63  1  0
 71 61  1  0
 73 75  2  0
 74 73  1  0
 74 78  1  0
 76 74  1  0
 77 86  2  0
 77 82  1  0
 78 82  1  0
 79 78  1  0
 80 81  1  0
 80 79  1  0
 81 77  1  0
 82 83  2  0
 83 84  1  0
 85 84  2  0
 86 85  1  0
 87 88  1  0
 87 97  1  0
 88 91  1  0
 89 93  1  0
 89 88  1  0
 90 89  2  0
 92 93  1  0
 95 93  1  0
 95 96  1  0
 95 94  1  0
 97100  1  1
 97 98  1  0
 99 97  1  0
M  ISO  4   2 100  16 100  59 101  60 101
M  END
>  <TORSDO>  (1) 
F 22

>  <SCORE>  (1) 
-12.783

>  <name>  (1) 
0

>  <ligand_id>  (1) 
0

>  <original_smiles>  (1) 
[H]c1c([H])c([H])c2c(c1[H])C([H])([H])C([H])([H])C([H])([H])C2([H])N([H])C(=O)C1([H])N(C(=O)C([H])(N([H])C(=O)C([H])(N([H])C([H])([H])[H])C([H])([H])[H])C(C([H])([H])[H])(C([H])([H])[H])C([H])([H])[H])C([H])([H])c2c([H])c(OC([H])([H])C3(C([H])([H])[H])C([H])([H])C([H])([H])C4(C([H])([H])[H])c5c(C(=O)N6C([H])([H])C([H])([H])C([H])([H])C([H])(n7nc(-c8c([H])c([H])c(Oc9c([H])c([H])c(F)c([H])c9F)c([H])c8[H])c(C(=O)N([H])[H])c7N([H])[H])C6([H])[H])c(C([H])([H])C([H])([H])C([H])([H])C([H])([H])C([H])([H])[H])c([H])c(C([H])([H])C([H])([H])[H])c5C([H])([H])C([H])([H])C43[H])c([H])c([H])c2C1([H])[H]

>  <smiles>  (1) 
[H]c1c([H])c([H])c2c(c1[H])C([H])([H])C([H])([H])C([H])([H])C2([H])N([H])C(=O)C1([H])N(C(=O)C([H])(N([H])C(=O)C([H])(N([H])C([H])([H])[H])C([H])([H])[H])C(C([H])([H])[H])(C([H])([H])[H])C([H])([H])[H])C([H])([H])c2c([H])c(OC([H])([H])C3(C([H])([H])[H])C([H])([H])C([H])([H])C4(C([H])([H])[H])c5c(C(=O)N6C([H])([H])C([H])([H])C([H])([H])C([H])(n7nc(-c8c([H])c([H])c(Oc9c([H])c([H])c(F)c([H])c9F)c([H])c8[H])c(C(=O)N([H])[H])c7N([H])[H])C6([H])[H])c(C([H])([H])C([H])([H])C([H])([H])C([H])([H])C([H])([H])[H])c([H])c(C([H])([H])C([H])([H])[H])c5C([H])([H])C([H])([H])C43[H])c([H])c([H])c2C1([H])[H]

$$$$
1:0:0
     RDKit          3D

 94103  0  0  1  0  0  0  0  0999 V2000
  -31.7150  -21.8210   21.4600 C   0  0  0  0  0  2  0  0  0  0  0  0
  -31.1560  -23.2760   21.2660 C   0  0  0  0  0  2  0  0  0  0  0  0
  -31.1390  -20.6590   20.6010 C   0  0  0  0  0  2  0  0  0  0  0  0
  -30.4600  -23.6450   19.9480 C   0  0  0  0  0  2  0  0  0  0  0  0
  -28.7200  -21.7680   20.7120 C   0  0  0  0  0  2  0  0  0  0  0  0
  -29.6220  -20.3650   20.8200 C   0  0  0  0  0  3  0  0  0  0  0  0
  -29.0020  -23.1510   19.8100 C   0  0  2  0  0  0  0  0  0  0  0  0
  -28.8920  -22.6420   18.3470 C   0  0  0  0  0  1  0  0  0  0  0  0
  -29.9330  -17.6470   20.9570 C   0  0  0  0  0  3  0  0  0  0  0  0
  -28.1790  -17.2830   18.8740 C   0  0  0  0  0  3  0  0  0  0  0  0
  -29.7970  -16.2520   20.4670 C   0  0  0  0  0  0  0  0  0  0  0  0
  -29.2420  -18.8390   20.3980 C   0  0  0  0  0  0  0  0  0  0  0  0
  -29.0920  -16.2650   19.2280 C   0  0  0  0  0  0  0  0  0  0  0  0
  -28.2100  -18.5470   19.4650 C   0  0  0  0  0  0  0  0  0  0  0  0
  -29.3530  -15.2550   18.1400 C   0  0  0  0  0  1  0  0  0  0  0  0
  -27.1340  -19.5440   19.0370 C   0  0  0  0  0  1  0  0  0  0  0  0
  -30.5620  -14.9190   20.9910 C   0  0  0  0  0  0  0  0  0  0  0  0
  -30.6100  -12.4330   20.4430 C   0  0  0  0  0  2  0  0  0  0  0  0
  -29.8470  -12.0220   19.1550 C   0  0  0  0  0  2  0  0  0  0  0  0
  -28.2980  -12.0270   19.3160 C   0  0  0  0  0  2  0  0  0  0  0  0
  -27.7320  -13.0700   20.3370 C   0  0  0  0  0  3  0  0  0  0  0  0
  -28.6660  -13.2350   21.5430 C   0  0  0  0  0  2  0  0  0  0  0  0
  -29.9840  -13.6400   21.0390 N   0  0  0  0  0  0  0  0  0  0  0  0
  -31.7860  -14.9760   21.1100 O   0  0  0  0  0  0  0  0  0  0  0  0
  -25.2730  -13.6620   20.8090 C   0  0  0  0  0  0  0  0  0  0  0  0
  -24.1760  -12.8790   21.0800 C   0  0  0  0  0  0  0  0  0  0  0  0
  -24.6540  -11.5410   21.1500 C   0  0  0  0  0  0  0  0  0  0  0  0
  -26.3480  -12.7840   20.7230 N   0  0  0  0  0  0  0  0  0  0  0  0
  -25.9750  -11.5100   21.0070 N   0  0  0  0  0  0  0  0  0  0  0  0
  -23.9240  -10.2740   21.2840 C   0  0  0  0  0  0  0  0  0  0  0  0
  -24.2940   -9.3120   22.2470 C   0  0  0  0  0  3  0  0  0  0  0  0
  -23.5670   -8.1090   22.3780 C   0  0  0  0  0  3  0  0  0  0  0  0
  -22.4540   -7.8610   21.5410 C   0  0  0  0  0  0  0  0  0  0  0  0
  -22.1040   -8.8110   20.5650 C   0  0  0  0  0  3  0  0  0  0  0  0
  -22.8320  -10.0070   20.4330 C   0  0  0  0  0  3  0  0  0  0  0  0
  -21.7020   -6.7110   21.5780 O   0  0  0  0  0  0  0  0  0  0  0  0
  -21.6230   -5.9370   22.7070 C   0  0  0  0  0  0  0  0  0  0  0  0
  -21.1720   -6.4630   23.9350 C   0  0  0  0  0  3  0  0  0  0  0  0
  -21.0390   -5.6210   25.0570 C   0  0  0  0  0  3  0  0  0  0  0  0
  -21.3400   -4.2510   24.9510 C   0  0  0  0  0  0  0  0  0  0  0  0
  -21.7800   -3.7210   23.7250 C   0  0  0  0  0  3  0  0  0  0  0  0
  -21.9190   -4.5620   22.6040 C   0  0  0  0  0  0  0  0  0  0  0  0
  -22.3250   -4.0430   21.4210 F   0  0  0  0  0  0  0  0  0  0  0  0
  -21.2080   -3.4380   26.0260 F   0  0  0  0  0  0  0  0  0  0  0  0
  -22.7500  -13.3450   21.1540 C   0  0  0  0  0  0  0  0  0  0  0  0
  -21.9320  -12.6720   21.9630 N   0  0  0  0  0  0  0  0  0  0  0  0
  -22.3570  -14.3290   20.5330 O   0  0  0  0  0  0  0  0  0  0  0  0
  -22.2550  -11.8730   22.4850 H   0  0  0  0  0  0  0  0  0  0  0  0
  -20.9710  -12.9690   22.0610 H   0  0  0  0  0  0  0  0  0  0  0  0
  -25.4230  -15.0310   20.6120 N   0  0  0  0  0  0  0  0  0  0  0  0
  -24.6320  -15.6650   20.6480 H   0  0  0  0  0  0  0  0  0  0  0  0
  -26.2810  -15.5120   20.3740 H   0  0  0  0  0  0  0  0  0  0  0  0
  -27.9870  -24.4870   20.0710 C   0  0  0  0  0  2  0  0  0  0  0  0
  -28.2290  -26.0310   19.9650 O   0  0  0  0  0  0  0  0  0  0  0  0
  -24.5280  -31.6980   23.0230 C   0  0  0  0  0  0  0  0  0  0  0  0
  -27.1390  -26.9780   19.9830 C   0  0  0  0  0  0  0  0  0  0  0  0
  -23.3470  -30.2850   21.3870 C   0  0  0  0  0  3  0  0  0  0  0  0
  -24.7980  -28.7010   19.9900 C   0  0  0  0  0  0  0  0  0  0  0  0
  -25.8940  -30.5500   21.2420 C   0  0  0  0  0  2  0  0  0  0  0  0
  -25.9780  -29.1600   20.5890 C   0  0  0  0  0  0  0  0  0  0  0  0
  -27.1510  -28.3200   20.5550 C   0  0  0  0  0  3  0  0  0  0  0  0
  -25.9150  -26.6160   19.3820 C   0  0  0  0  0  3  0  0  0  0  0  0
  -24.7830  -27.4500   19.3690 C   0  0  0  0  0  3  0  0  0  0  0  0
  -23.5840  -29.6020   20.0170 C   0  0  0  0  0  2  0  0  0  0  0  0
  -24.6080  -30.8730   21.9360 N   0  0  0  0  0  0  0  0  0  0  0  0
  -23.4380  -31.9840   23.5410 O   0  0  0  0  0  0  0  0  0  0  0  0
  -22.6720  -29.2860   22.3580 C   0  0  0  0  0  0  0  0  0  0  0  0
  -21.3410  -29.1250   22.2430 N   0  0  0  0  0  0  0  0  0  0  0  0
  -23.3440  -28.6700   23.1910 O   0  0  0  0  0  0  0  0  0  0  0  0
  -20.8770  -29.6940   21.5500 H   0  0  0  0  0  0  0  0  0  0  0  0
  -17.9470  -27.9420   22.7520 C   0  0  0  0  0  0  0  0  0  0  0  0
  -20.5080  -28.1970   23.0140 C   0  0  0  0  0  3  0  0  0  0  0  0
  -20.6010  -26.7630   22.4420 C   0  0  0  0  0  2  0  0  0  0  0  0
  -19.4920  -26.4390   21.4350 C   0  0  0  0  0  2  0  0  0  0  0  0
  -18.1150  -26.5900   22.0830 C   0  0  0  0  0  2  0  0  0  0  0  0
  -19.0700  -28.7010   23.1760 C   0  0  0  0  0  0  0  0  0  0  0  0
  -18.8530  -29.9610   23.7720 C   0  0  0  0  0  3  0  0  0  0  0  0
  -17.5470  -30.4590   23.9530 C   0  0  0  0  0  3  0  0  0  0  0  0
  -16.4400  -29.6980   23.5390 C   0  0  0  0  0  3  0  0  0  0  0  0
  -16.6430  -28.4420   22.9400 C   0  0  0  0  0  3  0  0  0  0  0  0
  -25.8020  -32.3360   23.6610 C   0  0  0  0  0  3  0  0  0  0  0  0
  -25.4630  -33.7140   24.0410 N   0  0  0  0  0  0  0  0  0  0  0  0
  -25.7760  -34.8060   23.3270 C   0  0  0  0  0  0  0  0  0  0  0  0
  -26.4470  -34.7590   22.2950 O   0  0  0  0  0  0  0  0  0  0  0  0
  -24.8600  -33.8220   24.8420 H   0  0  0  0  0  0  0  0  0  0  0  0
  -24.0160  -36.5930   23.0580 C   0  0  0  0  0  1  0  0  0  0  0  0
  -25.2650  -36.1670   23.8450 C   0  0  0  0  0  3  0  0  0  0  0  0
  -27.3910  -37.0540   24.7120 C   0  0  0  0  0  1  0  0  0  0  0  0
  -26.2820  -37.2400   23.7780 N   0  0  0  0  0  0  0  0  0  0  0  0
  -25.8610  -38.1460   23.9620 H   0  0  0  0  0  0  0  0  0  0  0  0
  -26.3410  -31.5380   24.9140 C   0  0  1  0  0  0  0  0  0  0  0  0
  -25.2600  -31.2610   25.9880 C   0  0  0  0  0  1  0  0  0  0  0  0
  -26.9410  -30.1780   24.4820 C   0  0  0  0  0  1  0  0  0  0  0  0
  -27.4900  -32.3320   25.5810 C   0  0  0  0  0  1  0  0  0  0  0  0
  2  1  1  0
  3  6  1  0
  3  1  1  0
  4  2  1  0
  5  6  1  0
  6 12  1  0
  7  8  1  6
  7  4  1  0
  7 53  1  0
  7  5  1  0
 10 13  1  0
 10 14  2  0
 11  9  1  0
 11 17  1  0
 12  9  2  0
 13 11  2  0
 14 12  1  0
 15 13  1  0
 16 14  1  0
 17 23  1  0
 17 24  2  0
 18 23  1  0
 19 20  1  0
 19 18  1  0
 21 20  1  0
 21 28  1  0
 21 22  1  0
 23 22  1  0
 25 26  2  0
 26 27  1  0
 26 45  1  0
 27 30  1  0
 28 25  1  0
 28 29  1  0
 29 27  2  0
 30 31  1  0
 31 32  2  0
 33 36  1  0
 33 32  1  0
 34 33  2  0
 35 34  1  0
 35 30  2  0
 36 37  1  0
 37 38  1  0
 38 39  2  0
 40 39  1  0
 40 44  1  0
 41 40  2  0
 42 37  2  0
 42 41  1  0
 43 42  1  0
 45 46  1  0
 46 49  1  0
 46 48  1  0
 47 45  2  0
 50 51  1  0
 50 25  1  0
 52 50  1  0
 54 56  1  0
 54 53  1  0
 55 66  2  0
 56 61  1  0
 57 65  1  0
 57 67  1  0
 58 64  1  0
 58 60  1  0
 59 65  1  0
 60 59  1  0
 61 60  2  0
 62 56  2  0
 63 62  1  0
 63 58  2  0
 64 57  1  0
 65 55  1  0
 67 69  2  0
 68 67  1  0
 70 68  1  0
 71 80  2  0
 71 76  1  0
 72 68  1  0
 72 76  1  0
 73 72  1  0
 74 75  1  0
 74 73  1  0
 75 71  1  0
 76 77  2  0
 77 78  1  0
 79 78  2  0
 80 79  1  0
 81 55  1  0
 81 82  1  0
 81 91  1  0
 82 85  1  0
 83 87  1  0
 83 82  1  0
 84 83  2  0
 87 86  1  0
 89 87  1  0
 89 90  1  0
 89 88  1  0
 91 94  1  1
 91 92  1  0
 93 91  1  0
M  ISO  4  11 100  17 100  53 101  54 101
M  END
>  <TORSDO>  (2) 
F 18

>  <SCORE>  (2) 
-13.717

>  <name>  (2) 
1

>  <ligand_id>  (2) 
1

>  <original_smiles>  (2) 
[H]c1c([H])c([H])c2c(c1[H])C([H])([H])C([H])([H])C([H])([H])C2([H])N([H])C(=O)C1([H])N(C(=O)C([H])(N([H])C(=O)C([H])(N([H])C([H])([H])[H])C([H])([H])[H])C(C([H])([H])[H])(C([H])([H])[H])C([H])([H])[H])C([H])([H])c2c([H])c(OC([H])([H])C3(C([H])([H])[H])C([H])([H])C([H])([H])C([H])([H])C([H])([H])C([H])(c4c([H])c(C(=O)N5C([H])([H])C([H])([H])C([H])([H])C([H])(n6nc(-c7c([H])c([H])c(Oc8c([H])c([H])c(F)c([H])c8F)c([H])c7[H])c(C(=O)N([H])[H])c6N([H])[H])C5([H])[H])c(C([H])([H])[H])c([H])c4C([H])([H])[H])C3([H])[H])c([H])c([H])c2C1([H])[H]

>  <smiles>  (2) 
[H]c1c([H])c([H])c2c(c1[H])C([H])([H])C([H])([H])C([H])([H])C2([H])N([H])C(=O)C1([H])N(C(=O)C([H])(N([H])C(=O)C([H])(N([H])C([H])([H])[H])C([H])([H])[H])C(C([H])([H])[H])(C([H])([H])[H])C([H])([H])[H])C([H])([H])c2c([H])c(OC([H])([H])C3(C([H])([H])[H])C([H])([H])C([H])([H])C([H])([H])C([H])([H])C([H])(c4c([H])c(C(=O)N5C([H])([H])C([H])([H])C([H])([H])C([H])(n6nc(-c7c([H])c([H])c(Oc8c([H])c([H])c(F)c([H])c8F)c([H])c7[H])c(C(=O)N([H])[H])c6N([H])[H])C5([H])[H])c(C([H])([H])[H])c([H])c4C([H])([H])[H])C3([H])[H])c([H])c([H])c2C1([H])[H]

$$$$
2:0:0
     RDKit          3D

 92101  0  0  1  0  0  0  0  0999 V2000
  -29.2680  -21.9240   19.5930 C   0  0  0  0  0  0  0  0  0  0  0  0
  -28.9280  -23.3360   19.6770 C   0  0  0  0  0  3  0  0  0  0  0  0
  -30.2350  -21.5780   18.4580 C   0  0  0  0  0  2  0  0  0  0  0  0
  -29.0360  -20.4780   20.3810 C   0  0  0  0  0  2  0  0  0  0  0  0
  -29.8410  -20.3180   17.6650 C   0  0  0  0  0  2  0  0  0  0  0  0
  -30.1760  -19.0450   18.4500 C   0  0  0  0  0  2  0  0  0  0  0  0
  -29.3000  -18.9010   19.6900 C   0  0  0  0  0  3  0  0  0  0  0  0
  -30.1640  -16.1230   20.3990 C   0  0  0  0  0  0  0  0  0  0  0  0
  -30.8110  -15.6740   21.6300 C   0  0  0  0  0  0  0  0  0  0  0  0
  -29.8000  -17.5620   20.5150 C   0  0  0  0  0  0  0  0  0  0  0  0
  -30.8300  -16.6050   22.6340 C   0  0  0  0  0  0  0  0  0  0  0  0
  -31.5640  -14.3740   21.8680 C   0  0  0  0  0  1  0  0  0  0  0  0
  -31.4840  -16.5090   23.9810 C   0  0  0  0  0  1  0  0  0  0  0  0
  -30.0210  -18.0510   22.1800 S   0  0  0  0  0  0  0  0  0  0  0  0
  -30.3350  -14.9570   19.2790 C   0  0  0  0  0  0  0  0  0  0  0  0
  -29.9490  -12.6570   18.2350 C   0  0  0  0  0  2  0  0  0  0  0  0
  -28.8110  -12.6840   17.1900 C   0  0  0  0  0  2  0  0  0  0  0  0
  -27.4530  -12.4800   17.8790 C   0  0  0  0  0  2  0  0  0  0  0  0
  -27.3020  -13.3350   19.1650 C   0  0  0  0  0  3  0  0  0  0  0  0
  -28.5500  -13.2680   20.0790 C   0  0  0  0  0  2  0  0  0  0  0  0
  -29.6990  -13.7070   19.2750 N   0  0  0  0  0  0  0  0  0  0  0  0
  -31.2710  -15.0800   18.4840 O   0  0  0  0  0  0  0  0  0  0  0  0
  -25.1020  -13.8810   20.3520 C   0  0  0  0  0  0  0  0  0  0  0  0
  -24.1090  -13.0860   20.8620 C   0  0  0  0  0  0  0  0  0  0  0  0
  -24.5340  -11.7380   20.6570 C   0  0  0  0  0  0  0  0  0  0  0  0
  -26.0700  -13.0120   19.8760 N   0  0  0  0  0  0  0  0  0  0  0  0
  -25.7460  -11.7150   20.1170 N   0  0  0  0  0  0  0  0  0  0  0  0
  -23.8300  -10.4700   20.8940 C   0  0  0  0  0  0  0  0  0  0  0  0
  -24.3550   -9.4900   21.7660 C   0  0  0  0  0  3  0  0  0  0  0  0
  -23.6560   -8.2860   21.9930 C   0  0  0  0  0  3  0  0  0  0  0  0
  -22.4140   -8.0560   21.3540 C   0  0  0  0  0  0  0  0  0  0  0  0
  -21.9060   -9.0240   20.4720 C   0  0  0  0  0  3  0  0  0  0  0  0
  -22.6060  -10.2210   20.2410 C   0  0  0  0  0  3  0  0  0  0  0  0
  -21.6780   -6.9050   21.4970 O   0  0  0  0  0  0  0  0  0  0  0  0
  -21.6650   -6.1980   22.6720 C   0  0  0  0  0  0  0  0  0  0  0  0
  -21.2730   -6.7890   23.8920 C   0  0  0  0  0  3  0  0  0  0  0  0
  -21.2030   -6.0080   25.0630 C   0  0  0  0  0  3  0  0  0  0  0  0
  -21.5190   -4.6360   25.0160 C   0  0  0  0  0  0  0  0  0  0  0  0
  -21.9070   -4.0460   23.8000 C   0  0  0  0  0  3  0  0  0  0  0  0
  -21.9750   -4.8240   22.6320 C   0  0  0  0  0  0  0  0  0  0  0  0
  -22.3300   -4.2440   21.4600 F   0  0  0  0  0  0  0  0  0  0  0  0
  -21.4480   -3.8840   26.1390 F   0  0  0  0  0  0  0  0  0  0  0  0
  -22.7950  -13.5590   21.4110 C   0  0  0  0  0  0  0  0  0  0  0  0
  -22.2270  -12.8380   22.3710 N   0  0  0  0  0  0  0  0  0  0  0  0
  -22.2820  -14.6080   21.0250 O   0  0  0  0  0  0  0  0  0  0  0  0
  -22.6570  -12.0020   22.7340 H   0  0  0  0  0  0  0  0  0  0  0  0
  -21.3450  -13.1450   22.7570 H   0  0  0  0  0  0  0  0  0  0  0  0
  -25.2470  -15.2590   20.2280 N   0  0  0  0  0  0  0  0  0  0  0  0
  -24.5030  -15.9050   20.4680 H   0  0  0  0  0  0  0  0  0  0  0  0
  -26.0300  -15.7210   19.7790 H   0  0  0  0  0  0  0  0  0  0  0  0
  -28.0650  -24.5090   20.4820 C   0  0  0  0  0  2  0  0  0  0  0  0
  -28.3040  -26.0790   20.3310 O   0  0  0  0  0  0  0  0  0  0  0  0
  -24.5620  -31.8840   23.1100 C   0  0  0  0  0  0  0  0  0  0  0  0
  -27.2390  -27.0730   20.2610 C   0  0  0  0  0  0  0  0  0  0  0  0
  -23.3970  -30.4040   21.5210 C   0  0  0  0  0  3  0  0  0  0  0  0
  -24.8830  -28.8060   20.1540 C   0  0  0  0  0  0  0  0  0  0  0  0
  -25.9500  -30.7080   21.3540 C   0  0  0  0  0  2  0  0  0  0  0  0
  -26.0550  -29.2890   20.7510 C   0  0  0  0  0  0  0  0  0  0  0  0
  -27.2340  -28.4390   20.7820 C   0  0  0  0  0  3  0  0  0  0  0  0
  -26.0420  -26.7100   19.6100 C   0  0  0  0  0  3  0  0  0  0  0  0
  -24.8930  -27.5330   19.5660 C   0  0  0  0  0  3  0  0  0  0  0  0
  -23.6390  -29.6850   20.1680 C   0  0  0  0  0  2  0  0  0  0  0  0
  -24.6560  -31.0250   22.0490 N   0  0  0  0  0  0  0  0  0  0  0  0
  -23.4690  -32.1610   23.6280 O   0  0  0  0  0  0  0  0  0  0  0  0
  -22.7400  -29.4170   22.5210 C   0  0  0  0  0  0  0  0  0  0  0  0
  -21.4150  -29.2110   22.4030 N   0  0  0  0  0  0  0  0  0  0  0  0
  -23.4280  -28.8380   23.3650 O   0  0  0  0  0  0  0  0  0  0  0  0
  -20.9160  -29.7320   21.6940 H   0  0  0  0  0  0  0  0  0  0  0  0
  -18.0690  -27.9320   22.9510 C   0  0  0  0  0  0  0  0  0  0  0  0
  -20.6200  -28.2820   23.2090 C   0  0  0  0  0  3  0  0  0  0  0  0
  -20.7650  -26.8320   22.6900 C   0  0  0  0  0  2  0  0  0  0  0  0
  -19.6750  -26.4370   21.6890 C   0  0  0  0  0  2  0  0  0  0  0  0
  -18.2870  -26.5650   22.3240 C   0  0  0  0  0  2  0  0  0  0  0  0
  -19.1640  -28.7440   23.3520 C   0  0  0  0  0  0  0  0  0  0  0  0
  -18.9040  -30.0200   23.8970 C   0  0  0  0  0  3  0  0  0  0  0  0
  -17.5850  -30.4850   24.0470 C   0  0  0  0  0  3  0  0  0  0  0  0
  -16.5050  -29.6720   23.6630 C   0  0  0  0  0  3  0  0  0  0  0  0
  -16.7490  -28.3970   23.1200 C   0  0  0  0  0  3  0  0  0  0  0  0
  -25.8220  -32.5760   23.7130 C   0  0  0  0  0  3  0  0  0  0  0  0
  -25.4560  -33.9590   24.0580 N   0  0  0  0  0  0  0  0  0  0  0  0
  -25.7160  -35.0330   23.3010 C   0  0  0  0  0  0  0  0  0  0  0  0
  -26.3570  -34.9650   22.2480 O   0  0  0  0  0  0  0  0  0  0  0  0
  -24.8790  -34.0800   24.8770 H   0  0  0  0  0  0  0  0  0  0  0  0
  -23.8960  -36.7510   23.0230 C   0  0  0  0  0  1  0  0  0  0  0  0
  -25.1840  -36.3970   23.7840 C   0  0  0  0  0  3  0  0  0  0  0  0
  -27.3080  -37.3760   24.5350 C   0  0  0  0  0  1  0  0  0  0  0  0
  -26.1620  -37.4980   23.6380 N   0  0  0  0  0  0  0  0  0  0  0  0
  -25.7190  -38.3960   23.8080 H   0  0  0  0  0  0  0  0  0  0  0  0
  -26.3900  -31.8290   24.9850 C   0  0  1  0  0  0  0  0  0  0  0  0
  -25.3220  -31.5310   26.0630 C   0  0  0  0  0  1  0  0  0  0  0  0
  -27.0430  -30.4840   24.5910 C   0  0  0  0  0  1  0  0  0  0  0  0
  -27.5020  -32.6820   25.6400 C   0  0  0  0  0  1  0  0  0  0  0  0
  1  2  2  0
  1  4  1  0
  2 51  1  0
  3  1  1  0
  5  6  1  0
  5  3  1  0
  6  7  1  0
  7  4  1  0
  7 10  1  0
  8 10  2  0
  8  9  1  0
  9 12  1  0
  9 11  2  0
 10 14  1  0
 11 13  1  0
 14 11  1  0
 15  8  1  0
 16 21  1  0
 17 18  1  0
 17 16  1  0
 19 18  1  0
 19 26  1  0
 19 20  1  0
 21 15  1  0
 21 20  1  0
 22 15  2  0
 23 24  2  0
 24 43  1  0
 25 24  1  0
 25 28  1  0
 26 27  1  0
 26 23  1  0
 27 25  2  0
 28 29  1  0
 29 30  2  0
 31 34  1  0
 31 30  1  0
 32 31  2  0
 33 32  1  0
 33 28  2  0
 34 35  1  0
 35 36  1  0
 36 37  2  0
 38 37  1  0
 38 42  1  0
 39 38  2  0
 40 35  2  0
 40 39  1  0
 41 40  1  0
 43 44  1  0
 44 46  1  0
 44 47  1  0
 45 43  2  0
 48 23  1  0
 48 49  1  0
 50 48  1  0
 52 51  1  0
 53 64  2  0
 54 52  1  0
 54 59  1  0
 55 63  1  0
 55 65  1  0
 56 62  1  0
 56 58  1  0
 57 63  1  0
 58 59  2  0
 58 57  1  0
 60 54  2  0
 61 60  1  0
 61 56  2  0
 62 55  1  0
 63 53  1  0
 65 67  2  0
 66 65  1  0
 68 66  1  0
 69 78  2  0
 69 74  1  0
 70 66  1  0
 70 74  1  0
 71 70  1  0
 72 73  1  0
 72 71  1  0
 73 69  1  0
 74 75  2  0
 75 76  1  0
 77 76  2  0
 78 77  1  0
 79 53  1  0
 79 80  1  0
 79 89  1  0
 80 83  1  0
 81 85  1  0
 81 80  1  0
 82 81  2  0
 85 84  1  0
 87 85  1  0
 87 88  1  0
 87 86  1  0
 89 92  1  1
 89 90  1  0
 91 89  1  0
M  ISO  4   8 100  15 100  51 101  52 101
M  END
>  <TORSDO>  (3) 
F 18

>  <SCORE>  (3) 
-9.327

>  <name>  (3) 
2

>  <ligand_id>  (3) 
2

>  <original_smiles>  (3) 
[H]C(=C1C([H])([H])C([H])([H])C([H])([H])C([H])(c2sc(C([H])([H])[H])c(C([H])([H])[H])c2C(=O)N2C([H])([H])C([H])([H])C([H])([H])C([H])(n3nc(-c4c([H])c([H])c(Oc5c([H])c([H])c(F)c([H])c5F)c([H])c4[H])c(C(=O)N([H])[H])c3N([H])[H])C2([H])[H])C1([H])[H])C([H])([H])Oc1c([H])c([H])c2c(c1[H])C([H])([H])N(C(=O)C([H])(N([H])C(=O)C([H])(N([H])C([H])([H])[H])C([H])([H])[H])C(C([H])([H])[H])(C([H])([H])[H])C([H])([H])[H])C([H])(C(=O)N([H])C1([H])c3c([H])c([H])c([H])c([H])c3C([H])([H])C([H])([H])C1([H])[H])C2([H])[H]

>  <smiles>  (3) 
[H]C(=C1C([H])([H])C([H])([H])C([H])([H])C([H])(c2sc(C([H])([H])[H])c(C([H])([H])[H])c2C(=O)N2C([H])([H])C([H])([H])C([H])([H])C([H])(n3nc(-c4c([H])c([H])c(Oc5c([H])c([H])c(F)c([H])c5F)c([H])c4[H])c(C(=O)N([H])[H])c3N([H])[H])C2([H])[H])C1([H])[H])C([H])([H])Oc1c([H])c([H])c2c(c1[H])C([H])([H])N(C(=O)C([H])(N([H])C(=O)C([H])(N([H])C([H])([H])[H])C([H])([H])[H])C(C([H])([H])[H])(C([H])([H])[H])C([H])([H])[H])C([H])(C(=O)N([H])C1([H])c3c([H])c([H])c([H])c([H])c3C([H])([H])C([H])([H])C1([H])[H])C2([H])[H]

$$$$
3:0:0
     RDKit          3D

 89 97  0  0  1  0  0  0  0  0999 V2000
  -29.9440  -21.7430   20.6810 C   0  0  0  0  0  3  0  0  0  0  0  0
  -27.6360  -22.7910   19.8430 C   0  0  0  0  0  3  0  0  0  0  0  0
  -29.2090  -20.5200   20.2340 C   0  0  0  0  0  0  0  0  0  0  0  0
  -29.6220  -23.2400   20.7040 C   0  0  0  0  0  0  0  0  0  0  0  0
  -27.9700  -21.2760   19.8090 C   0  0  0  0  0  0  0  0  0  0  0  0
  -28.4120  -24.0000   20.2810 C   0  0  0  0  0  0  0  0  0  0  0  0
  -30.7370  -24.1230   21.2350 C   0  0  0  0  0  1  0  0  0  0  0  0
  -29.5460  -17.2780   20.2140 C   0  0  0  0  0  3  0  0  0  0  0  0
  -29.8660  -18.7930   20.2210 C   0  0  0  0  0  0  0  0  0  0  0  0
  -31.3710  -19.0230   20.1620 C   0  0  0  0  0  1  0  0  0  0  0  0
  -30.3500  -15.7480   20.1330 C   0  0  0  0  0  0  0  0  0  0  0  0
  -30.4360  -13.1880   19.3490 C   0  0  0  0  0  2  0  0  0  0  0  0
  -29.5440  -12.7760   18.1410 C   0  0  0  0  0  2  0  0  0  0  0  0
  -28.1300  -12.4050   18.6090 C   0  0  0  0  0  2  0  0  0  0  0  0
  -27.6100  -13.4150   19.6550 C   0  0  0  0  0  3  0  0  0  0  0  0
  -28.6410  -13.7620   20.7570 C   0  0  0  0  0  2  0  0  0  0  0  0
  -29.8220  -14.3780   20.1040 N   0  0  0  0  0  0  0  0  0  0  0  0
  -31.5770  -15.6360   19.9450 O   0  0  0  0  0  0  0  0  0  0  0  0
  -25.2500  -13.9160   20.4440 C   0  0  0  0  0  0  0  0  0  0  0  0
  -24.2020  -13.1240   20.8180 C   0  0  0  0  0  0  0  0  0  0  0  0
  -24.6880  -11.7790   20.7810 C   0  0  0  0  0  0  0  0  0  0  0  0
  -26.3020  -13.0590   20.1890 N   0  0  0  0  0  0  0  0  0  0  0  0
  -25.9790  -11.7650   20.4590 N   0  0  0  0  0  0  0  0  0  0  0  0
  -23.9750  -10.5080   20.9760 C   0  0  0  0  0  0  0  0  0  0  0  0
  -24.4080   -9.5520   21.9200 C   0  0  0  0  0  3  0  0  0  0  0  0
  -23.6910   -8.3500   22.1050 C   0  0  0  0  0  3  0  0  0  0  0  0
  -22.5260   -8.0940   21.3450 C   0  0  0  0  0  0  0  0  0  0  0  0
  -22.1110   -9.0390   20.3880 C   0  0  0  0  0  3  0  0  0  0  0  0
  -22.8290  -10.2320   20.2020 C   0  0  0  0  0  3  0  0  0  0  0  0
  -21.7810   -6.9430   21.4360 O   0  0  0  0  0  0  0  0  0  0  0  0
  -21.7140   -6.2190   22.6000 C   0  0  0  0  0  0  0  0  0  0  0  0
  -21.2340   -6.7840   23.8020 C   0  0  0  0  0  3  0  0  0  0  0  0
  -21.1160   -5.9870   24.9580 C   0  0  0  0  0  3  0  0  0  0  0  0
  -21.4680   -4.6250   24.9120 C   0  0  0  0  0  0  0  0  0  0  0  0
  -21.9410   -4.0580   23.7160 C   0  0  0  0  0  3  0  0  0  0  0  0
  -22.0610   -4.8530   22.5620 C   0  0  0  0  0  0  0  0  0  0  0  0
  -22.4970   -4.2980   21.4050 F   0  0  0  0  0  0  0  0  0  0  0  0
  -21.3470   -3.8550   26.0200 F   0  0  0  0  0  0  0  0  0  0  0  0
  -22.8000  -13.5840   21.0900 C   0  0  0  0  0  0  0  0  0  0  0  0
  -22.0860  -12.8890   21.9680 N   0  0  0  0  0  0  0  0  0  0  0  0
  -22.3470  -14.5980   20.5610 O   0  0  0  0  0  0  0  0  0  0  0  0
  -22.4650  -12.0680   22.4180 H   0  0  0  0  0  0  0  0  0  0  0  0
  -21.1480  -13.1850   22.1950 H   0  0  0  0  0  0  0  0  0  0  0  0
  -25.3920  -15.2890   20.2670 N   0  0  0  0  0  0  0  0  0  0  0  0
  -24.6150  -15.9310   20.3890 H   0  0  0  0  0  0  0  0  0  0  0  0
  -26.2280  -15.7420   19.9230 H   0  0  0  0  0  0  0  0  0  0  0  0
  -27.2770  -19.6320   18.2390 C   0  0  0  0  0  1  0  0  0  0  0  0
  -26.9340  -20.5440   19.2750 O   0  0  0  0  0  0  0  0  0  0  0  0
  -28.2600  -25.6230   20.2790 O   0  0  0  0  0  0  0  0  0  0  0  0
  -24.6790  -31.8930   23.1840 C   0  0  0  0  0  0  0  0  0  0  0  0
  -27.2260  -26.7880   20.2530 C   0  0  0  0  0  0  0  0  0  0  0  0
  -23.4990  -30.4920   21.5430 C   0  0  0  0  0  3  0  0  0  0  0  0
  -24.9540  -28.8230   20.1580 C   0  0  0  0  0  0  0  0  0  0  0  0
  -26.0780  -30.6280   21.4380 C   0  0  0  0  0  2  0  0  0  0  0  0
  -26.1440  -29.1850   20.8020 C   0  0  0  0  0  0  0  0  0  0  0  0
  -27.2600  -28.1940   20.8150 C   0  0  0  0  0  3  0  0  0  0  0  0
  -26.0040  -26.6380   19.5460 C   0  0  0  0  0  3  0  0  0  0  0  0
  -24.9240  -27.5760   19.5080 C   0  0  0  0  0  3  0  0  0  0  0  0
  -23.7490  -29.7790   20.1800 C   0  0  0  0  0  2  0  0  0  0  0  0
  -24.7760  -31.0390   22.1080 N   0  0  0  0  0  0  0  0  0  0  0  0
  -23.5820  -32.2000   23.6850 O   0  0  0  0  0  0  0  0  0  0  0  0
  -22.7710  -29.5240   22.5140 C   0  0  0  0  0  0  0  0  0  0  0  0
  -21.4370  -29.3850   22.3880 N   0  0  0  0  0  0  0  0  0  0  0  0
  -23.4200  -28.8930   23.3530 O   0  0  0  0  0  0  0  0  0  0  0  0
  -20.9640  -29.9430   21.6910 H   0  0  0  0  0  0  0  0  0  0  0  0
  -18.0320  -28.2340   22.9190 C   0  0  0  0  0  0  0  0  0  0  0  0
  -20.6000  -28.4570   23.1600 C   0  0  0  0  0  3  0  0  0  0  0  0
  -20.6700  -27.0280   22.5710 C   0  0  0  0  0  2  0  0  0  0  0  0
  -19.5540  -26.7370   21.5630 C   0  0  0  0  0  2  0  0  0  0  0  0
  -18.1810  -26.8920   22.2220 C   0  0  0  0  0  2  0  0  0  0  0  0
  -19.1670  -28.9760   23.3450 C   0  0  0  0  0  0  0  0  0  0  0  0
  -18.9690  -30.2310   23.9620 C   0  0  0  0  0  3  0  0  0  0  0  0
  -17.6710  -30.7430   24.1540 C   0  0  0  0  0  3  0  0  0  0  0  0
  -16.5530  -29.9990   23.7410 C   0  0  0  0  0  3  0  0  0  0  0  0
  -16.7340  -28.7450   23.1290 C   0  0  0  0  0  3  0  0  0  0  0  0
  -25.9390  -32.5420   23.8340 C   0  0  0  0  0  3  0  0  0  0  0  0
  -25.6200  -33.9470   24.1590 N   0  0  0  0  0  0  0  0  0  0  0  0
  -25.9410  -35.0050   23.4040 C   0  0  0  0  0  0  0  0  0  0  0  0
  -26.5930  -34.9040   22.3620 O   0  0  0  0  0  0  0  0  0  0  0  0
  -25.0360  -34.0980   24.9680 H   0  0  0  0  0  0  0  0  0  0  0  0
  -24.1940  -36.7990   23.1110 C   0  0  0  0  0  1  0  0  0  0  0  0
  -25.4660  -36.3980   23.8740 C   0  0  0  0  0  3  0  0  0  0  0  0
  -27.6280  -37.3020   24.6170 C   0  0  0  0  0  1  0  0  0  0  0  0
  -26.4870  -37.4580   23.7180 N   0  0  0  0  0  0  0  0  0  0  0  0
  -26.0800  -38.3760   23.8800 H   0  0  0  0  0  0  0  0  0  0  0  0
  -26.4190  -31.7870   25.1370 C   0  0  1  0  0  0  0  0  0  0  0  0
  -25.3000  -31.5760   26.1840 C   0  0  0  0  0  1  0  0  0  0  0  0
  -26.9990  -30.3980   24.7900 C   0  0  0  0  0  1  0  0  0  0  0  0
  -27.5610  -32.5820   25.8130 C   0  0  0  0  0  1  0  0  0  0  0  0
  1  4  1  0
  2  6  1  0
  3  1  2  0
  4  7  1  0
  5  2  2  0
  5  3  1  0
  6  4  2  0
  8  9  2  0
  9  3  1  0
 10  9  1  0
 11  8  1  0
 12 17  1  0
 13 14  1  0
 13 12  1  0
 15 14  1  0
 15 22  1  0
 15 16  1  0
 17 11  1  0
 17 16  1  0
 18 11  2  0
 19 20  2  0
 20 39  1  0
 21 20  1  0
 21 24  1  0
 22 19  1  0
 22 23  1  0
 23 21  2  0
 24 25  1  0
 25 26  2  0
 27 30  1  0
 27 26  1  0
 28 27  2  0
 29 28  1  0
 29 24  2  0
 30 31  1  0
 31 32  1  0
 32 33  2  0
 34 33  1  0
 34 38  1  0
 35 34  2  0
 36 31  2  0
 36 35  1  0
 37 36  1  0
 39 40  1  0
 40 43  1  0
 40 42  1  0
 41 39  2  0
 44 45  1  0
 44 19  1  0
 46 44  1  0
 47 48  1  0
 48  5  1  0
 49  6  1  0
 50 61  2  0
 51 49  1  0
 51 56  1  0
 52 60  1  0
 52 62  1  0
 53 59  1  0
 53 55  1  0
 54 60  1  0
 55 56  2  0
 55 54  1  0
 57 51  2  0
 58 57  1  0
 58 53  2  0
 59 52  1  0
 60 50  1  0
 62 64  2  0
 63 62  1  0
 65 63  1  0
 66 75  2  0
 66 71  1  0
 67 63  1  0
 67 71  1  0
 68 67  1  0
 69 70  1  0
 69 68  1  0
 70 66  1  0
 71 72  2  0
 72 73  1  0
 74 73  2  0
 75 74  1  0
 76 50  1  0
 76 77  1  0
 76 86  1  0
 77 80  1  0
 78 82  1  0
 78 77  1  0
 79 78  2  0
 82 81  1  0
 84 82  1  0
 84 85  1  0
 84 83  1  0
 86 89  1  1
 86 87  1  0
 88 86  1  0
M  ISO  4   6 101   8 100  11 100  49 101
M  END
>  <TORSDO>  (4) 
F 18

>  <SCORE>  (4) 
-15.428

>  <name>  (4) 
3

>  <ligand_id>  (4) 
3

>  <original_smiles>  (4) 
[H]C(C(=O)N1C([H])([H])C([H])([H])C([H])([H])C([H])(n2nc(-c3c([H])c([H])c(Oc4c([H])c([H])c(F)c([H])c4F)c([H])c3[H])c(C(=O)N([H])[H])c2N([H])[H])C1([H])[H])=C(c1c([H])c(C([H])([H])[H])c(Oc2c([H])c([H])c3c(c2[H])C([H])([H])N(C(=O)C([H])(N([H])C(=O)C([H])(N([H])C([H])([H])[H])C([H])([H])[H])C(C([H])([H])[H])(C([H])([H])[H])C([H])([H])[H])C([H])(C(=O)N([H])C2([H])c4c([H])c([H])c([H])c([H])c4C([H])([H])C([H])([H])C2([H])[H])C3([H])[H])c([H])c1OC([H])([H])[H])C([H])([H])[H]

>  <smiles>  (4) 
[H]C(C(=O)N1C([H])([H])C([H])([H])C([H])([H])C([H])(n2nc(-c3c([H])c([H])c(Oc4c([H])c([H])c(F)c([H])c4F)c([H])c3[H])c(C(=O)N([H])[H])c2N([H])[H])C1([H])[H])=C(c1c([H])c(C([H])([H])[H])c(Oc2c([H])c([H])c3c(c2[H])C([H])([H])N(C(=O)C([H])(N([H])C(=O)C([H])(N([H])C([H])([H])[H])C([H])([H])[H])C(C([H])([H])[H])(C([H])([H])[H])C([H])([H])[H])C([H])(C(=O)N([H])C2([H])c4c([H])c([H])c([H])c([H])c4C([H])([H])C([H])([H])C2([H])[H])C3([H])[H])c([H])c1OC([H])([H])[H])C([H])([H])[H]

$$$$
4:0:0
     RDKit          3D

 91100  0  0  1  0  0  0  0  0999 V2000
  -29.2800  -20.3050   20.1390 C   0  0  0  0  0  0  0  0  0  0  0  0
  -29.6130  -18.7740   20.6570 C   0  0  0  0  0  0  0  0  0  0  0  0
  -29.9670  -17.5500   19.8070 C   0  0  0  0  0  0  0  0  0  0  0  0
  -29.3590  -20.2080   18.7940 C   0  0  0  0  0  0  0  0  0  0  0  0
  -28.9030  -22.0040   20.6690 C   0  0  0  0  0  2  0  0  0  0  0  0
  -29.0120  -21.4600   17.9160 C   0  0  0  0  0  2  0  0  0  0  0  0
  -28.3390  -23.5490   19.7630 C   0  0  1  0  0  0  0  0  0  0  0  0
  -29.0910  -23.0290   18.4240 C   0  0  2  0  0  0  0  0  0  0  0  0
  -26.8350  -23.2850   19.6100 C   0  0  0  0  0  1  0  0  0  0  0  0
  -28.7490  -23.9430   17.2300 C   0  0  0  0  0  1  0  0  0  0  0  0
  -30.3890  -23.2440   18.6480 F   0  0  0  0  0  0  0  0  0  0  0  0
  -29.8610  -18.4970   18.2420 S   0  0  0  0  0  0  0  0  0  0  0  0
  -30.5650  -15.7810   19.6980 C   0  0  0  0  0  0  0  0  0  0  0  0
  -30.6000  -13.2080   18.9020 C   0  0  0  0  0  2  0  0  0  0  0  0
  -29.6160  -12.7840   17.7700 C   0  0  0  0  0  2  0  0  0  0  0  0
  -28.2560  -12.3830   18.3560 C   0  0  0  0  0  2  0  0  0  0  0  0
  -27.8260  -13.3670   19.4660 C   0  0  0  0  0  3  0  0  0  0  0  0
  -28.9440  -13.7370   20.4710 C   0  0  0  0  0  2  0  0  0  0  0  0
  -30.0440  -14.3950   19.7220 N   0  0  0  0  0  0  0  0  0  0  0  0
  -31.7640  -15.6360   19.3770 O   0  0  0  0  0  0  0  0  0  0  0  0
  -25.5980  -13.8340   20.5750 C   0  0  0  0  0  0  0  0  0  0  0  0
  -24.5780  -13.0330   20.9990 C   0  0  0  0  0  0  0  0  0  0  0  0
  -25.0120  -11.6870   20.7850 C   0  0  0  0  0  0  0  0  0  0  0  0
  -26.5830  -12.9830   20.1180 N   0  0  0  0  0  0  0  0  0  0  0  0
  -26.2550  -11.6760   20.3080 N   0  0  0  0  0  0  0  0  0  0  0  0
  -24.2860  -10.4190   20.9500 C   0  0  0  0  0  0  0  0  0  0  0  0
  -24.6970   -9.4440   21.8860 C   0  0  0  0  0  3  0  0  0  0  0  0
  -23.9660   -8.2470   22.0420 C   0  0  0  0  0  3  0  0  0  0  0  0
  -22.8080   -8.0150   21.2630 C   0  0  0  0  0  0  0  0  0  0  0  0
  -22.4140   -8.9780   20.3160 C   0  0  0  0  0  3  0  0  0  0  0  0
  -23.1470  -10.1660   20.1580 C   0  0  0  0  0  3  0  0  0  0  0  0
  -22.0510   -6.8700   21.3270 O   0  0  0  0  0  0  0  0  0  0  0  0
  -21.7940   -6.2420   22.5190 C   0  0  0  0  0  0  0  0  0  0  0  0
  -21.1290   -6.8970   23.5790 C   0  0  0  0  0  3  0  0  0  0  0  0
  -20.8250   -6.1930   24.7610 C   0  0  0  0  0  3  0  0  0  0  0  0
  -21.1730   -4.8350   24.8830 C   0  0  0  0  0  0  0  0  0  0  0  0
  -21.8300   -4.1790   23.8270 C   0  0  0  0  0  3  0  0  0  0  0  0
  -22.1360   -4.8800   22.6480 C   0  0  0  0  0  0  0  0  0  0  0  0
  -22.7510   -4.2370   21.6240 F   0  0  0  0  0  0  0  0  0  0  0  0
  -20.8740   -4.1560   26.0150 F   0  0  0  0  0  0  0  0  0  0  0  0
  -23.2340  -13.4960   21.4790 C   0  0  0  0  0  0  0  0  0  0  0  0
  -22.6110  -12.7460   22.3790 N   0  0  0  0  0  0  0  0  0  0  0  0
  -22.7520  -14.5590   21.0900 O   0  0  0  0  0  0  0  0  0  0  0  0
  -23.0160  -11.8840   22.7150 H   0  0  0  0  0  0  0  0  0  0  0  0
  -21.7150  -13.0400   22.7420 H   0  0  0  0  0  0  0  0  0  0  0  0
  -25.7630  -15.2150   20.5080 N   0  0  0  0  0  0  0  0  0  0  0  0
  -25.0310  -15.8610   20.7790 H   0  0  0  0  0  0  0  0  0  0  0  0
  -26.5770  -15.6780   20.1230 H   0  0  0  0  0  0  0  0  0  0  0  0
  -30.9890  -18.8690   22.7620 C   0  0  0  0  0  1  0  0  0  0  0  0
  -29.6210  -18.5630   22.1410 C   0  0  0  0  0  2  0  0  0  0  0  0
  -28.3690  -25.3660   19.9400 O   0  0  0  0  0  0  0  0  0  0  0  0
  -25.1080  -31.7250   23.1800 C   0  0  0  0  0  0  0  0  0  0  0  0
  -27.4240  -26.6380   19.9220 C   0  0  0  0  0  0  0  0  0  0  0  0
  -23.8420  -30.4060   21.5400 C   0  0  0  0  0  3  0  0  0  0  0  0
  -25.2070  -28.7790   20.0190 C   0  0  0  0  0  0  0  0  0  0  0  0
  -26.4220  -30.4820   21.3420 C   0  0  0  0  0  2  0  0  0  0  0  0
  -26.4330  -29.0660   20.6310 C   0  0  0  0  0  0  0  0  0  0  0  0
  -27.5160  -28.0260   20.5540 C   0  0  0  0  0  3  0  0  0  0  0  0
  -26.1690  -26.6030   19.2490 C   0  0  0  0  0  3  0  0  0  0  0  0
  -25.1200  -27.5740   19.3030 C   0  0  0  0  0  3  0  0  0  0  0  0
  -24.0250  -29.7580   20.1380 C   0  0  0  0  0  2  0  0  0  0  0  0
  -25.1510  -30.9040   22.0720 N   0  0  0  0  0  0  0  0  0  0  0  0
  -24.0370  -32.0270   23.7340 O   0  0  0  0  0  0  0  0  0  0  0  0
  -23.1380  -29.4090   22.5000 C   0  0  0  0  0  0  0  0  0  0  0  0
  -21.8050  -29.2470   22.3860 N   0  0  0  0  0  0  0  0  0  0  0  0
  -23.8040  -28.7780   23.3240 O   0  0  0  0  0  0  0  0  0  0  0  0
  -21.3140  -29.8070   21.7020 H   0  0  0  0  0  0  0  0  0  0  0  0
  -18.4390  -27.9690   22.8880 C   0  0  0  0  0  0  0  0  0  0  0  0
  -20.9930  -28.2920   23.1530 C   0  0  0  0  0  3  0  0  0  0  0  0
  -21.1240  -26.8650   22.5740 C   0  0  0  0  0  2  0  0  0  0  0  0
  -20.0320  -26.5230   21.5560 C   0  0  0  0  0  2  0  0  0  0  0  0
  -18.6460  -26.6310   22.1990 C   0  0  0  0  0  2  0  0  0  0  0  0
  -19.5400  -28.7560   23.3220 C   0  0  0  0  0  0  0  0  0  0  0  0
  -19.2870  -30.0040   23.9320 C   0  0  0  0  0  3  0  0  0  0  0  0
  -17.9690  -30.4670   24.1100 C   0  0  0  0  0  3  0  0  0  0  0  0
  -16.8850  -29.6780   23.6880 C   0  0  0  0  0  3  0  0  0  0  0  0
  -17.1200  -28.4310   23.0840 C   0  0  0  0  0  3  0  0  0  0  0  0
  -26.4010  -32.3370   23.7990 C   0  0  0  0  0  3  0  0  0  0  0  0
  -26.1060  -33.7260   24.2050 N   0  0  0  0  0  0  0  0  0  0  0  0
  -26.3840  -34.8200   23.4800 C   0  0  0  0  0  0  0  0  0  0  0  0
  -26.9700  -34.7650   22.3970 O   0  0  0  0  0  0  0  0  0  0  0  0
  -25.5750  -33.8420   25.0550 H   0  0  0  0  0  0  0  0  0  0  0  0
  -24.6240  -36.6240   23.3900 C   0  0  0  0  0  1  0  0  0  0  0  0
  -25.9480  -36.1910   24.0440 C   0  0  0  0  0  3  0  0  0  0  0  0
  -28.1520  -37.0700   24.6800 C   0  0  0  0  0  1  0  0  0  0  0  0
  -26.9590  -37.2560   23.8590 N   0  0  0  0  0  0  0  0  0  0  0  0
  -26.5640  -38.1680   24.0740 H   0  0  0  0  0  0  0  0  0  0  0  0
  -26.9320  -31.5230   25.0450 C   0  0  1  0  0  0  0  0  0  0  0  0
  -25.8600  -31.2730   26.1320 C   0  0  0  0  0  1  0  0  0  0  0  0
  -27.4860  -30.1470   24.6140 C   0  0  0  0  0  1  0  0  0  0  0  0
  -28.1110  -32.2810   25.7010 C   0  0  0  0  0  1  0  0  0  0  0  0
  1  2  1  0
  1  5  1  0
  2 50  1  0
  3  2  2  0
  4  1  2  0
  6  8  1  0
  6  4  1  0
  7  9  1  6
  7 51  1  0
  7  5  1  0
  8 10  1  6
  8 11  1  0
  8  7  1  0
 12  4  1  0
 12  3  1  0
 13 19  1  0
 13  3  1  0
 14 19  1  0
 15 16  1  0
 15 14  1  0
 17 16  1  0
 17 24  1  0
 17 18  1  0
 19 18  1  0
 20 13  2  0
 21 22  2  0
 22 41  1  0
 23 26  1  0
 23 22  1  0
 24 25  1  0
 24 21  1  0
 25 23  2  0
 26 27  1  0
 27 28  2  0
 29 32  1  0
 29 28  1  0
 30 29  2  0
 31 30  1  0
 31 26  2  0
 32 33  1  0
 33 38  2  0
 33 34  1  0
 34 35  2  0
 35 36  1  0
 36 40  1  0
 37 36  2  0
 38 37  1  0
 39 38  1  0
 41 42  1  0
 42 44  1  0
 42 45  1  0
 43 41  2  0
 46 21  1  0
 46 47  1  0
 48 46  1  0
 50 49  1  0
 52 63  2  0
 53 51  1  0
 53 58  1  0
 54 62  1  0
 54 64  1  0
 55 61  1  0
 55 57  1  0
 56 62  1  0
 57 56  1  0
 58 57  2  0
 59 60  1  0
 59 53  2  0
 60 55  2  0
 61 54  1  0
 62 52  1  0
 64 66  2  0
 65 64  1  0
 67 65  1  0
 68 77  2  0
 68 73  1  0
 69 65  1  0
 69 73  1  0
 70 69  1  0
 71 72  1  0
 71 70  1  0
 72 68  1  0
 73 74  2  0
 74 75  1  0
 76 75  2  0
 77 76  1  0
 78 52  1  0
 78 79  1  0
 78 88  1  0
 79 82  1  0
 80 84  1  0
 80 79  1  0
 81 80  2  0
 84 83  1  0
 86 84  1  0
 86 87  1  0
 86 85  1  0
 88 91  1  1
 88 89  1  0
 90 88  1  0
M  ISO  4   3 100   7 101  13 100  51 101
M  END
>  <TORSDO>  (5) 
F 17

>  <SCORE>  (5) 
-13.289

>  <name>  (5) 
4

>  <ligand_id>  (5) 
4

>  <original_smiles>  (5) 
[H]c1c([H])c([H])c2c(c1[H])C([H])([H])C([H])([H])C([H])([H])C2([H])N([H])C(=O)C1([H])N(C(=O)C([H])(N([H])C(=O)C([H])(N([H])C([H])([H])[H])C([H])([H])[H])C(C([H])([H])[H])(C([H])([H])[H])C([H])([H])[H])C([H])([H])c2c([H])c(OC3(C([H])([H])[H])C([H])([H])c4c(sc(C(=O)N5C([H])([H])C([H])([H])C([H])([H])C([H])(n6nc(-c7c([H])c([H])c(Oc8c([H])c([H])c(F)c([H])c8F)c([H])c7[H])c(C(=O)N([H])[H])c6N([H])[H])C5([H])[H])c4C([H])([H])C([H])([H])[H])C([H])([H])C3(F)C([H])([H])[H])c([H])c([H])c2C1([H])[H]

>  <smiles>  (5) 
[H]c1c([H])c([H])c2c(c1[H])C([H])([H])C([H])([H])C([H])([H])C2([H])N([H])C(=O)C1([H])N(C(=O)C([H])(N([H])C(=O)C([H])(N([H])C([H])([H])[H])C([H])([H])[H])C(C([H])([H])[H])(C([H])([H])[H])C([H])([H])[H])C([H])([H])c2c([H])c(OC3(C([H])([H])[H])C([H])([H])c4c(sc(C(=O)N5C([H])([H])C([H])([H])C([H])([H])C([H])(n6nc(-c7c([H])c([H])c(Oc8c([H])c([H])c(F)c([H])c8F)c([H])c7[H])c(C(=O)N([H])[H])c6N([H])[H])C5([H])[H])c4C([H])([H])C([H])([H])[H])C([H])([H])C3(F)C([H])([H])[H])c([H])c([H])c2C1([H])[H]

$$$$
5:0:0
     RDKit          3D

 95104  0  0  1  0  0  0  0  0999 V2000
  -28.9430  -23.4090   22.3330 C   0  0  0  0  0  3  0  0  0  0  0  0
  -28.6230  -25.8220   22.1060 C   0  0  0  0  0  3  0  0  0  0  0  0
  -28.7840  -24.6820   22.9190 C   0  0  0  0  0  0  0  0  0  0  0  0
  -28.9500  -23.2570   20.9270 C   0  0  0  0  0  0  0  0  0  0  0  0
  -28.7820  -24.4200   20.1140 C   0  0  0  0  0  0  0  0  0  0  0  0
  -28.6190  -25.7070   20.7010 C   0  0  0  0  0  0  0  0  0  0  0  0
  -28.7900  -24.8250   24.4290 C   0  0  0  0  0  1  0  0  0  0  0  0
  -28.7630  -24.2880   18.5960 C   0  0  0  0  0  1  0  0  0  0  0  0
  -28.5190  -26.8510   19.9270 O   0  0  0  0  0  0  0  0  0  0  0  0
  -24.6000  -31.8670   23.1470 C   0  0  0  0  0  0  0  0  0  0  0  0
  -27.3440  -27.5690   19.9640 C   0  0  0  0  0  0  0  0  0  0  0  0
  -23.4240  -30.4760   21.4700 C   0  0  0  0  0  3  0  0  0  0  0  0
  -24.9150  -29.0130   20.0030 C   0  0  0  0  0  0  0  0  0  0  0  0
  -25.9390  -30.9070   21.2770 C   0  0  0  0  0  2  0  0  0  0  0  0
  -26.0590  -29.5530   20.6060 C   0  0  0  0  0  0  0  0  0  0  0  0
  -27.2780  -28.8360   20.5850 C   0  0  0  0  0  3  0  0  0  0  0  0
  -26.1880  -27.0420   19.3510 C   0  0  0  0  0  3  0  0  0  0  0  0
  -24.9740  -27.7560   19.3720 C   0  0  0  0  0  3  0  0  0  0  0  0
  -23.6500  -29.8390   20.0720 C   0  0  0  0  0  2  0  0  0  0  0  0
  -24.6720  -31.0990   22.0230 N   0  0  0  0  0  0  0  0  0  0  0  0
  -23.5160  -32.0970   23.6980 O   0  0  0  0  0  0  0  0  0  0  0  0
  -22.8040  -29.4160   22.4070 C   0  0  0  0  0  0  0  0  0  0  0  0
  -21.4850  -29.1970   22.2740 N   0  0  0  0  0  0  0  0  0  0  0  0
  -23.5060  -28.7920   23.2070 O   0  0  0  0  0  0  0  0  0  0  0  0
  -20.9800  -29.7560   21.6000 H   0  0  0  0  0  0  0  0  0  0  0  0
  -18.1490  -27.8890   22.7370 C   0  0  0  0  0  0  0  0  0  0  0  0
  -20.6970  -28.2180   23.0220 C   0  0  0  0  0  3  0  0  0  0  0  0
  -20.8420  -26.8040   22.4150 C   0  0  0  0  0  2  0  0  0  0  0  0
  -19.7530  -26.4720   21.3890 C   0  0  0  0  0  2  0  0  0  0  0  0
  -18.3660  -26.5620   22.0320 C   0  0  0  0  0  2  0  0  0  0  0  0
  -19.2430  -28.6750   23.1880 C   0  0  0  0  0  0  0  0  0  0  0  0
  -18.9850  -29.9160   23.8070 C   0  0  0  0  0  3  0  0  0  0  0  0
  -17.6660  -30.3760   23.9780 C   0  0  0  0  0  3  0  0  0  0  0  0
  -16.5870  -29.5870   23.5420 C   0  0  0  0  0  3  0  0  0  0  0  0
  -16.8290  -28.3460   22.9300 C   0  0  0  0  0  3  0  0  0  0  0  0
  -25.8740  -32.5140   23.7790 C   0  0  0  0  0  3  0  0  0  0  0  0
  -26.4160  -31.7240   25.0330 C   0  0  1  0  0  0  0  0  0  0  0  0
  -25.3340  -31.4250   26.0970 C   0  0  0  0  0  1  0  0  0  0  0  0
  -27.0400  -30.3770   24.6030 C   0  0  0  0  0  1  0  0  0  0  0  0
  -27.5450  -32.5360   25.7130 C   0  0  0  0  0  1  0  0  0  0  0  0
  -25.5320  -33.8950   24.1400 N   0  0  0  0  0  0  0  0  0  0  0  0
  -25.8460  -34.9710   23.4080 C   0  0  0  0  0  0  0  0  0  0  0  0
  -26.5220  -34.9070   22.3770 O   0  0  0  0  0  0  0  0  0  0  0  0
  -24.9310  -34.0180   24.9430 H   0  0  0  0  0  0  0  0  0  0  0  0
  -24.0880  -36.7390   23.0740 C   0  0  0  0  0  1  0  0  0  0  0  0
  -25.3240  -36.3380   23.8940 C   0  0  0  0  0  3  0  0  0  0  0  0
  -27.4260  -37.2420   24.7860 C   0  0  0  0  0  1  0  0  0  0  0  0
  -26.3380  -37.4130   23.8250 N   0  0  0  0  0  0  0  0  0  0  0  0
  -25.9120  -38.3210   23.9860 H   0  0  0  0  0  0  0  0  0  0  0  0
  -29.1380  -21.8730   20.2700 C   0  0  0  0  0  3  0  0  0  0  0  0
  -29.4630  -20.6370   21.1670 C   0  0  0  0  0  3  0  0  0  0  0  0
  -31.1610  -17.7520   19.3060 C   0  0  0  0  0  2  0  0  0  0  0  0
  -30.8360  -19.2360   19.4900 C   0  0  0  0  0  2  0  0  0  0  0  0
  -29.8470  -18.0590   21.3430 C   0  0  0  0  0  2  0  0  0  0  0  0
  -30.8590  -17.0910   20.6630 C   0  0  0  0  0  3  0  0  0  0  0  0
  -29.5950  -19.2730   20.4000 C   0  0  1  0  0  0  0  0  0  0  0  0
  -28.3260  -18.9980   19.5630 C   0  0  0  0  0  1  0  0  0  0  0  0
  -31.0640  -14.6500   20.0540 C   0  0  0  0  0  0  0  0  0  0  0  0
  -30.7340  -12.4540   18.9790 C   0  0  0  0  0  2  0  0  0  0  0  0
  -29.7520  -12.6150   17.8010 C   0  0  0  0  0  2  0  0  0  0  0  0
  -28.2920  -12.4960   18.2860 C   0  0  0  0  0  2  0  0  0  0  0  0
  -27.9960  -13.3720   19.5330 C   0  0  0  0  0  3  0  0  0  0  0  0
  -29.0880  -13.1860   20.6090 C   0  0  0  0  0  2  0  0  0  0  0  0
  -30.3870  -13.4750   19.9820 N   0  0  0  0  0  0  0  0  0  0  0  0
  -32.1860  -14.8000   19.5640 O   0  0  0  0  0  0  0  0  0  0  0  0
  -30.3750  -15.7000   20.5530 N   0  0  0  0  0  0  0  0  0  0  0  0
  -29.4350  -15.5100   20.8710 H   0  0  0  0  0  0  0  0  0  0  0  0
  -25.6430  -14.0110   20.3590 C   0  0  0  0  0  0  0  0  0  0  0  0
  -24.5780  -13.2510   20.7640 C   0  0  0  0  0  0  0  0  0  0  0  0
  -25.0120  -11.8920   20.6950 C   0  0  0  0  0  0  0  0  0  0  0  0
  -26.6600  -13.1140   20.0700 N   0  0  0  0  0  0  0  0  0  0  0  0
  -26.2860  -11.8340   20.3280 N   0  0  0  0  0  0  0  0  0  0  0  0
  -24.2750  -10.6400   20.9000 C   0  0  0  0  0  0  0  0  0  0  0  0
  -24.6840   -9.6910   21.8620 C   0  0  0  0  0  3  0  0  0  0  0  0
  -23.9470   -8.5030   22.0540 C   0  0  0  0  0  3  0  0  0  0  0  0
  -22.7880   -8.2540   21.2830 C   0  0  0  0  0  0  0  0  0  0  0  0
  -22.3970   -9.1910   20.3090 C   0  0  0  0  0  3  0  0  0  0  0  0
  -23.1360  -10.3710   20.1150 C   0  0  0  0  0  3  0  0  0  0  0  0
  -22.0270   -7.1140   21.3790 O   0  0  0  0  0  0  0  0  0  0  0  0
  -21.8850   -6.4420   22.5670 C   0  0  0  0  0  0  0  0  0  0  0  0
  -21.3240   -7.0540   23.7080 C   0  0  0  0  0  3  0  0  0  0  0  0
  -21.1340   -6.3060   24.8870 C   0  0  0  0  0  3  0  0  0  0  0  0
  -21.4960   -4.9460   24.9240 C   0  0  0  0  0  0  0  0  0  0  0  0
  -22.0510   -4.3330   23.7870 C   0  0  0  0  0  3  0  0  0  0  0  0
  -22.2410   -5.0790   22.6110 C   0  0  0  0  0  0  0  0  0  0  0  0
  -22.7580   -4.4780   21.5110 F   0  0  0  0  0  0  0  0  0  0  0  0
  -21.3060   -4.2240   26.0550 F   0  0  0  0  0  0  0  0  0  0  0  0
  -23.2020  -13.7480   21.1030 C   0  0  0  0  0  0  0  0  0  0  0  0
  -22.5020  -13.0560   21.9950 N   0  0  0  0  0  0  0  0  0  0  0  0
  -22.7590  -14.7850   20.6150 O   0  0  0  0  0  0  0  0  0  0  0  0
  -22.8730  -12.2190   22.4210 H   0  0  0  0  0  0  0  0  0  0  0  0
  -21.5810  -13.3710   22.2610 H   0  0  0  0  0  0  0  0  0  0  0  0
  -25.8280  -15.3810   20.1970 N   0  0  0  0  0  0  0  0  0  0  0  0
  -25.0840  -16.0510   20.3530 H   0  0  0  0  0  0  0  0  0  0  0  0
  -26.6710  -15.8080   19.8350 H   0  0  0  0  0  0  0  0  0  0  0  0
  1  3  1  0
  2  3  2  0
  3  7  1  0
  4  1  2  0
  5  6  2  0
  5  4  1  0
  6  2  1  0
  8  5  1  0
  9 11  1  0
  9  6  1  0
 10 21  2  0
 11 16  1  0
 12 20  1  0
 12 22  1  0
 13 19  1  0
 13 15  1  0
 14 20  1  0
 15 14  1  0
 16 15  2  0
 17 18  1  0
 17 11  2  0
 18 13  2  0
 19 12  1  0
 20 10  1  0
 22 24  2  0
 23 22  1  0
 25 23  1  0
 26 35  2  0
 26 31  1  0
 27 23  1  0
 27 31  1  0
 28 27  1  0
 29 30  1  0
 29 28  1  0
 30 26  1  0
 31 32  2  0
 32 33  1  0
 34 33  2  0
 35 34  1  0
 36 10  1  0
 36 41  1  0
 36 37  1  0
 37 40  1  1
 37 38  1  0
 39 37  1  0
 41 44  1  0
 42 46  1  0
 42 41  1  0
 43 42  2  0
 46 45  1  0
 48 46  1  0
 48 49  1  0
 48 47  1  0
 50  4  1  0
 50 51  2  0
 52 53  1  0
 52 55  1  0
 53 56  1  0
 55 66  1  0
 55 54  1  0
 56 57  1  6
 56 51  1  0
 56 54  1  0
 58 66  1  0
 59 64  1  0
 60 61  1  0
 60 59  1  0
 62 61  1  0
 62 71  1  0
 62 63  1  0
 64 58  1  0
 64 63  1  0
 65 58  2  0
 66 67  1  0
 68 69  2  0
 69 88  1  0
 70 69  1  0
 70 73  1  0
 71 72  1  0
 71 68  1  0
 72 70  2  0
 73 74  1  0
 74 75  2  0
 76 79  1  0
 76 75  1  0
 77 76  2  0
 78 77  1  0
 78 73  2  0
 79 80  1  0
 80 85  2  0
 80 81  1  0
 81 82  2  0
 82 83  1  0
 83 87  1  0
 84 83  2  0
 85 84  1  0
 86 85  1  0
 88 89  1  0
 89 92  1  0
 89 91  1  0
 90 88  2  0
 93 94  1  0
 93 68  1  0
 95 93  1  0
M  ISO  4   6 101   9 101  58 100  66 100
M  END
>  <TORSDO>  (6) 
F 19

>  <SCORE>  (6) 
-13.333

>  <name>  (6) 
5

>  <ligand_id>  (6) 
5

>  <original_smiles>  (6) 
[H]c1c([H])c([H])c2c(c1[H])C([H])([H])C([H])([H])C([H])([H])C2([H])N([H])C(=O)C1([H])N(C(=O)C([H])(N([H])C(=O)C([H])(N([H])C([H])([H])[H])C([H])([H])[H])C(C([H])([H])[H])(C([H])([H])[H])C([H])([H])[H])C([H])([H])c2c([H])c(Oc3c([H])c(C([H])([H])[H])c([H])c(C([H])([H])C([H])([H])C4(C([H])([H])[H])C([H])([H])C([H])([H])C([H])(N([H])C(=O)N5C([H])([H])C([H])([H])C([H])([H])C([H])(n6nc(-c7c([H])c([H])c(Oc8c([H])c([H])c(F)c([H])c8F)c([H])c7[H])c(C(=O)N([H])[H])c6N([H])[H])C5([H])[H])C4([H])[H])c3C([H])([H])[H])c([H])c([H])c2C1([H])[H]

>  <smiles>  (6) 
[H]c1c([H])c([H])c2c(c1[H])C([H])([H])C([H])([H])C([H])([H])C2([H])N([H])C(=O)C1([H])N(C(=O)C([H])(N([H])C(=O)C([H])(N([H])C([H])([H])[H])C([H])([H])[H])C(C([H])([H])[H])(C([H])([H])[H])C([H])([H])[H])C([H])([H])c2c([H])c(Oc3c([H])c(C([H])([H])[H])c([H])c(C([H])([H])C([H])([H])C4(C([H])([H])[H])C([H])([H])C([H])([H])C([H])(N([H])C(=O)N5C([H])([H])C([H])([H])C([H])([H])C([H])(n6nc(-c7c([H])c([H])c(Oc8c([H])c([H])c(F)c([H])c8F)c([H])c7[H])c(C(=O)N([H])[H])c6N([H])[H])C5([H])[H])C4([H])[H])c3C([H])([H])[H])c([H])c([H])c2C1([H])[H]

$$$$
6:0:0
     RDKit          3D

 94103  0  0  1  0  0  0  0  0999 V2000
  -27.9050  -24.6710   22.4520 C   0  0  0  0  0  3  0  0  0  0  0  0
  -27.1300  -24.7040   21.2760 C   0  0  0  0  0  2  0  0  0  0  0  0
  -29.5900  -23.3410   21.3280 C   0  0  0  0  0  2  0  0  0  0  0  0
  -28.7680  -23.2580   20.1820 C   0  0  0  0  0  3  0  0  0  0  0  0
  -29.2050  -24.1140   22.4390 C   0  0  0  0  0  0  0  0  0  0  0  0
  -27.7930  -24.5210   20.0470 C   0  0  0  0  0  3  0  0  0  0  0  0
  -29.9940  -21.0820   18.7110 C   0  0  0  0  0  2  0  0  0  0  0  0
  -29.0770  -20.0980   20.6030 C   0  0  0  0  0  2  0  0  0  0  0  0
  -30.5230  -19.5320   18.8410 C   0  0  0  0  0  3  0  0  0  0  0  0
  -29.6420  -18.6760   19.7890 C   0  0  0  0  0  3  0  0  0  0  0  0
  -28.8070  -21.5540   19.6690 C   0  0  1  0  0  0  0  0  0  0  0  0
  -30.6770  -18.8120   17.4970 C   0  0  0  0  0  1  0  0  0  0  0  0
  -27.4750  -21.3820   18.9200 C   0  0  0  0  0  1  0  0  0  0  0  0
  -30.7670  -15.7870   19.8880 C   0  0  0  0  0  0  0  0  0  0  0  0
  -30.8340  -13.2840   19.1000 C   0  0  0  0  0  2  0  0  0  0  0  0
  -29.9000  -13.0190   17.8870 C   0  0  0  0  0  2  0  0  0  0  0  0
  -28.4620  -12.7170   18.3490 C   0  0  0  0  0  2  0  0  0  0  0  0
  -28.0200  -13.6690   19.4940 C   0  0  0  0  0  3  0  0  0  0  0  0
  -29.0910  -13.8780   20.5860 C   0  0  0  0  0  2  0  0  0  0  0  0
  -30.2810  -14.4350   19.9220 N   0  0  0  0  0  0  0  0  0  0  0  0
  -31.9430  -15.8310   19.4930 O   0  0  0  0  0  0  0  0  0  0  0  0
  -29.9440  -17.0210   20.1460 N   0  0  0  0  0  0  0  0  0  0  0  0
  -29.1120  -16.6800   20.6000 H   0  0  0  0  0  0  0  0  0  0  0  0
  -25.6950  -14.1740   20.4020 C   0  0  0  0  0  0  0  0  0  0  0  0
  -24.6590  -13.3800   20.8050 C   0  0  0  0  0  0  0  0  0  0  0  0
  -25.1270  -12.0320   20.6920 C   0  0  0  0  0  0  0  0  0  0  0  0
  -26.7230  -13.3170   20.0580 N   0  0  0  0  0  0  0  0  0  0  0  0
  -26.4000  -12.0190   20.3010 N   0  0  0  0  0  0  0  0  0  0  0  0
  -24.4100  -10.7630   20.8700 C   0  0  0  0  0  0  0  0  0  0  0  0
  -24.7720   -9.8450   21.8830 C   0  0  0  0  0  3  0  0  0  0  0  0
  -24.0510   -8.6430   22.0560 C   0  0  0  0  0  3  0  0  0  0  0  0
  -22.9510   -8.3490   21.2130 C   0  0  0  0  0  0  0  0  0  0  0  0
  -22.6090   -9.2530   20.1890 C   0  0  0  0  0  3  0  0  0  0  0  0
  -23.3340  -10.4450   20.0160 C   0  0  0  0  0  3  0  0  0  0  0  0
  -22.2120   -7.1940   21.2840 O   0  0  0  0  0  0  0  0  0  0  0  0
  -21.9190   -6.5990   22.4860 C   0  0  0  0  0  0  0  0  0  0  0  0
  -21.1430   -7.2500   23.4720 C   0  0  0  0  0  3  0  0  0  0  0  0
  -20.8090   -6.5720   24.6620 C   0  0  0  0  0  3  0  0  0  0  0  0
  -21.2440   -5.2490   24.8660 C   0  0  0  0  0  0  0  0  0  0  0  0
  -22.0170   -4.6030   23.8850 C   0  0  0  0  0  3  0  0  0  0  0  0
  -22.3500   -5.2750   22.6960 C   0  0  0  0  0  0  0  0  0  0  0  0
  -23.0750   -4.6380   21.7470 F   0  0  0  0  0  0  0  0  0  0  0  0
  -20.9160   -4.5960   26.0050 F   0  0  0  0  0  0  0  0  0  0  0  0
  -23.2790  -13.8460   21.1700 C   0  0  0  0  0  0  0  0  0  0  0  0
  -22.5990  -13.1230   22.0510 N   0  0  0  0  0  0  0  0  0  0  0  0
  -22.8120  -14.8860   20.7090 O   0  0  0  0  0  0  0  0  0  0  0  0
  -22.9870  -12.2820   22.4520 H   0  0  0  0  0  0  0  0  0  0  0  0
  -21.6750  -13.4220   22.3350 H   0  0  0  0  0  0  0  0  0  0  0  0
  -25.8370  -15.5520   20.2740 N   0  0  0  0  0  0  0  0  0  0  0  0
  -25.0520  -16.1750   20.4340 H   0  0  0  0  0  0  0  0  0  0  0  0
  -26.6400  -16.0160   19.8760 H   0  0  0  0  0  0  0  0  0  0  0  0
  -29.9570  -25.3690   24.3110 C   0  0  0  0  0  1  0  0  0  0  0  0
  -30.0470  -24.1810   23.5220 O   0  0  0  0  0  0  0  0  0  0  0  0
  -27.8950  -26.0110   19.6110 O   0  0  0  0  0  0  0  0  0  0  0  0
  -24.5830  -31.9520   23.1320 C   0  0  0  0  0  0  0  0  0  0  0  0
  -26.9040  -27.1440   19.7590 C   0  0  0  0  0  0  0  0  0  0  0  0
  -23.2750  -30.6350   21.5110 C   0  0  0  0  0  3  0  0  0  0  0  0
  -24.6190  -29.0670   19.9450 C   0  0  0  0  0  0  0  0  0  0  0  0
  -25.8340  -30.8170   21.2250 C   0  0  0  0  0  2  0  0  0  0  0  0
  -25.8510  -29.4290   20.5090 C   0  0  0  0  0  0  0  0  0  0  0  0
  -26.9830  -28.4900   20.3930 C   0  0  0  0  0  3  0  0  0  0  0  0
  -25.6380  -26.9520   19.1580 C   0  0  0  0  0  3  0  0  0  0  0  0
  -24.5390  -27.8490   19.2530 C   0  0  0  0  0  3  0  0  0  0  0  0
  -23.4160  -30.0000   20.1000 C   0  0  0  0  0  2  0  0  0  0  0  0
  -24.5880  -31.1650   22.0060 N   0  0  0  0  0  0  0  0  0  0  0  0
  -23.5310  -32.2280   23.7310 O   0  0  0  0  0  0  0  0  0  0  0  0
  -22.6330  -29.6100   22.4830 C   0  0  0  0  0  0  0  0  0  0  0  0
  -21.3060  -29.3940   22.3790 N   0  0  0  0  0  0  0  0  0  0  0  0
  -23.3330  -29.0080   23.3000 O   0  0  0  0  0  0  0  0  0  0  0  0
  -20.7870  -29.9330   21.6980 H   0  0  0  0  0  0  0  0  0  0  0  0
  -18.0020  -27.9810   22.8980 C   0  0  0  0  0  0  0  0  0  0  0  0
  -20.5410  -28.4180   23.1630 C   0  0  0  0  0  3  0  0  0  0  0  0
  -20.7310  -26.9860   22.6090 C   0  0  0  0  0  2  0  0  0  0  0  0
  -19.6580  -26.5810   21.5940 C   0  0  0  0  0  2  0  0  0  0  0  0
  -18.2680  -26.6420   22.2320 C   0  0  0  0  0  2  0  0  0  0  0  0
  -19.0680  -28.8200   23.3220 C   0  0  0  0  0  0  0  0  0  0  0  0
  -18.7640  -30.0660   23.9110 C   0  0  0  0  0  3  0  0  0  0  0  0
  -17.4270  -30.4770   24.0770 C   0  0  0  0  0  3  0  0  0  0  0  0
  -16.3770  -29.6390   23.6640 C   0  0  0  0  0  3  0  0  0  0  0  0
  -16.6650  -28.3930   23.0820 C   0  0  0  0  0  3  0  0  0  0  0  0
  -25.8960  -32.5660   23.7100 C   0  0  0  0  0  3  0  0  0  0  0  0
  -25.6180  -33.9640   24.0850 N   0  0  0  0  0  0  0  0  0  0  0  0
  -25.9680  -35.0410   23.3710 C   0  0  0  0  0  0  0  0  0  0  0  0
  -26.6210  -34.9560   22.3270 O   0  0  0  0  0  0  0  0  0  0  0  0
  -25.0320  -34.1020   24.8960 H   0  0  0  0  0  0  0  0  0  0  0  0
  -24.2920  -36.9080   23.1150 C   0  0  0  0  0  1  0  0  0  0  0  0
  -25.5300  -36.4270   23.8880 C   0  0  0  0  0  3  0  0  0  0  0  0
  -27.6940  -37.2300   24.7370 C   0  0  0  0  0  1  0  0  0  0  0  0
  -26.5940  -37.4530   23.8030 N   0  0  0  0  0  0  0  0  0  0  0  0
  -26.2140  -38.3800   23.9740 H   0  0  0  0  0  0  0  0  0  0  0  0
  -26.4520  -31.7730   24.9590 C   0  0  1  0  0  0  0  0  0  0  0  0
  -25.3890  -31.5150   26.0530 C   0  0  0  0  0  1  0  0  0  0  0  0
  -27.0350  -30.4040   24.5420 C   0  0  0  0  0  1  0  0  0  0  0  0
  -27.6160  -32.5650   25.6040 C   0  0  0  0  0  1  0  0  0  0  0  0
  2  1  1  0
  3  5  1  0
  4  3  1  0
  5  1  2  0
  5 53  1  0
  6 54  1  0
  6  4  1  0
  6  2  1  0
  7  9  1  0
  7 11  1  0
  9 12  1  0
  9 10  1  0
 10 22  1  0
 10  8  1  0
 11 13  1  6
 11  4  1  0
 11  8  1  0
 14 20  1  0
 14 22  1  0
 15 20  1  0
 16 17  1  0
 16 15  1  0
 18 17  1  0
 18 27  1  0
 18 19  1  0
 20 19  1  0
 21 14  2  0
 22 23  1  0
 24 25  2  0
 25 44  1  0
 26 25  1  0
 26 29  1  0
 27 28  1  0
 27 24  1  0
 28 26  2  0
 29 30  1  0
 30 31  2  0
 32 35  1  0
 32 31  1  0
 33 32  2  0
 34 33  1  0
 34 29  2  0
 35 36  1  0
 36 41  2  0
 36 37  1  0
 37 38  2  0
 38 39  1  0
 39 43  1  0
 40 39  2  0
 41 40  1  0
 42 41  1  0
 44 45  1  0
 45 48  1  0
 45 47  1  0
 46 44  2  0
 49 24  1  0
 49 50  1  0
 51 49  1  0
 53 52  1  0
 54 56  1  0
 55 66  2  0
 56 61  1  0
 57 65  1  0
 57 67  1  0
 58 64  1  0
 58 60  1  0
 59 65  1  0
 60 59  1  0
 61 60  2  0
 62 63  1  0
 62 56  2  0
 63 58  2  0
 64 57  1  0
 65 55  1  0
 67 69  2  0
 68 67  1  0
 70 68  1  0
 71 80  2  0
 71 76  1  0
 72 68  1  0
 72 76  1  0
 73 72  1  0
 74 75  1  0
 74 73  1  0
 75 71  1  0
 76 77  2  0
 77 78  1  0
 79 78  2  0
 80 79  1  0
 81 55  1  0
 81 82  1  0
 81 91  1  0
 82 85  1  0
 83 87  1  0
 83 82  1  0
 84 83  2  0
 87 86  1  0
 89 87  1  0
 89 90  1  0
 89 88  1  0
 91 94  1  1
 91 92  1  0
 93 91  1  0
M  ISO  4   6 101  14 100  22 100  54 101
M  END
>  <TORSDO>  (7) 
F 18

>  <SCORE>  (7) 
-13.335

>  <name>  (7) 
6

>  <ligand_id>  (7) 
6

>  <original_smiles>  (7) 
[H]c1c([H])c([H])c2c(c1[H])C([H])([H])C([H])([H])C([H])([H])C2([H])N([H])C(=O)C1([H])N(C(=O)C([H])(N([H])C(=O)C([H])(N([H])C([H])([H])[H])C([H])([H])[H])C(C([H])([H])[H])(C([H])([H])[H])C([H])([H])[H])C([H])([H])c2c([H])c(Oc3c([H])c([H])c(OC([H])([H])[H])c([H])c3C3(C([H])([H])[H])C([H])([H])C([H])(N([H])C(=O)N4C([H])([H])C([H])([H])C([H])([H])C([H])(n5nc(-c6c([H])c([H])c(Oc7c([H])c([H])c(F)c([H])c7F)c([H])c6[H])c(C(=O)N([H])[H])c5N([H])[H])C4([H])[H])C([H])(C([H])([H])[H])C3([H])[H])c([H])c([H])c2C1([H])[H]

>  <smiles>  (7) 
[H]c1c([H])c([H])c2c(c1[H])C([H])([H])C([H])([H])C([H])([H])C2([H])N([H])C(=O)C1([H])N(C(=O)C([H])(N([H])C(=O)C([H])(N([H])C([H])([H])[H])C([H])([H])[H])C(C([H])([H])[H])(C([H])([H])[H])C([H])([H])[H])C([H])([H])c2c([H])c(Oc3c([H])c([H])c(OC([H])([H])[H])c([H])c3C3(C([H])([H])[H])C([H])([H])C([H])(N([H])C(=O)N4C([H])([H])C([H])([H])C([H])([H])C([H])(n5nc(-c6c([H])c([H])c(Oc7c([H])c([H])c(F)c([H])c7F)c([H])c6[H])c(C(=O)N([H])[H])c5N([H])[H])C4([H])[H])C([H])(C([H])([H])[H])C3([H])[H])c([H])c([H])c2C1([H])[H]

$$$$
7:0:0
     RDKit          3D

 91100  0  0  1  0  0  0  0  0999 V2000
  -28.9130  -17.8010   19.8220 C   0  0  0  0  0  3  0  0  0  0  0  0
  -29.9070  -16.9480   20.5280 C   0  0  0  0  0  0  0  0  0  0  0  0
  -28.7270  -19.2950   19.9410 C   0  0  0  0  0  0  0  0  0  0  0  0
  -29.5630  -20.1260   20.7310 C   0  0  0  0  0  0  0  0  0  0  0  0
  -30.6670  -17.8540   21.3850 C   0  0  0  0  0  0  0  0  0  0  0  0
  -30.5360  -19.3270   21.4450 C   0  0  0  0  0  0  0  0  0  0  0  0
  -27.5960  -20.1400   19.2720 C   0  0  0  0  0  2  0  0  0  0  0  0
  -29.4500  -21.8020   20.7960 C   0  0  0  0  0  2  0  0  0  0  0  0
  -27.7400  -21.7520   19.0950 C   0  0  0  0  0  2  0  0  0  0  0  0
  -28.1670  -22.7530   20.2710 C   0  0  1  0  0  0  0  0  0  0  0  0
  -31.6990  -17.2140   22.3180 C   0  0  0  0  0  1  0  0  0  0  0  0
  -31.5030  -20.1200   22.3250 C   0  0  0  0  0  1  0  0  0  0  0  0
  -27.0940  -22.6960   21.3700 C   0  0  0  0  0  1  0  0  0  0  0  0
  -30.4080  -15.3530   20.2750 C   0  0  0  0  0  0  0  0  0  0  0  0
  -30.3130  -12.9020   19.4540 C   0  0  0  0  0  2  0  0  0  0  0  0
  -29.4230  -12.7040   18.2040 C   0  0  0  0  0  2  0  0  0  0  0  0
  -27.9740  -12.4280   18.6310 C   0  0  0  0  0  2  0  0  0  0  0  0
  -27.5040  -13.4030   19.7380 C   0  0  0  0  0  3  0  0  0  0  0  0
  -28.5330  -13.6060   20.8710 C   0  0  0  0  0  2  0  0  0  0  0  0
  -29.7810  -14.0730   20.2540 N   0  0  0  0  0  0  0  0  0  0  0  0
  -31.6100  -15.2470   19.9890 O   0  0  0  0  0  0  0  0  0  0  0  0
  -25.1290  -13.9250   20.4970 C   0  0  0  0  0  0  0  0  0  0  0  0
  -24.0750  -13.1330   20.8560 C   0  0  0  0  0  0  0  0  0  0  0  0
  -24.5580  -11.7880   20.8200 C   0  0  0  0  0  0  0  0  0  0  0  0
  -26.1820  -13.0640   20.2480 N   0  0  0  0  0  0  0  0  0  0  0  0
  -25.8520  -11.7720   20.5130 N   0  0  0  0  0  0  0  0  0  0  0  0
  -23.8450  -10.5170   21.0020 C   0  0  0  0  0  0  0  0  0  0  0  0
  -24.2680   -9.5570   21.9470 C   0  0  0  0  0  3  0  0  0  0  0  0
  -23.5500   -8.3530   22.1170 C   0  0  0  0  0  3  0  0  0  0  0  0
  -22.3930   -8.1010   21.3410 C   0  0  0  0  0  0  0  0  0  0  0  0
  -21.9890   -9.0500   20.3850 C   0  0  0  0  0  3  0  0  0  0  0  0
  -22.7070  -10.2450   20.2140 C   0  0  0  0  0  3  0  0  0  0  0  0
  -21.6470   -6.9500   21.4200 O   0  0  0  0  0  0  0  0  0  0  0  0
  -21.5700   -6.2190   22.5790 C   0  0  0  0  0  0  0  0  0  0  0  0
  -21.0860   -6.7790   23.7820 C   0  0  0  0  0  3  0  0  0  0  0  0
  -20.9580   -5.9740   24.9310 C   0  0  0  0  0  3  0  0  0  0  0  0
  -21.3040   -4.6100   24.8790 C   0  0  0  0  0  0  0  0  0  0  0  0
  -21.7810   -4.0500   23.6800 C   0  0  0  0  0  3  0  0  0  0  0  0
  -21.9100   -4.8520   22.5330 C   0  0  0  0  0  0  0  0  0  0  0  0
  -22.3500   -4.3020   21.3760 F   0  0  0  0  0  0  0  0  0  0  0  0
  -21.1740   -3.8350   25.9800 F   0  0  0  0  0  0  0  0  0  0  0  0
  -22.6730  -13.5940   21.1200 C   0  0  0  0  0  0  0  0  0  0  0  0
  -21.9460  -12.8880   21.9790 N   0  0  0  0  0  0  0  0  0  0  0  0
  -22.2290  -14.6160   20.5990 O   0  0  0  0  0  0  0  0  0  0  0  0
  -22.3190  -12.0610   22.4220 H   0  0  0  0  0  0  0  0  0  0  0  0
  -21.0040  -13.1800   22.1970 H   0  0  0  0  0  0  0  0  0  0  0  0
  -25.2780  -15.2990   20.3310 N   0  0  0  0  0  0  0  0  0  0  0  0
  -24.5080  -15.9460   20.4610 H   0  0  0  0  0  0  0  0  0  0  0  0
  -26.1360  -15.7550   20.0490 H   0  0  0  0  0  0  0  0  0  0  0  0
  -28.1560  -24.4740   19.7330 C   0  0  0  0  0  2  0  0  0  0  0  0
  -28.1230  -26.0070   20.3090 O   0  0  0  0  0  0  0  0  0  0  0  0
  -24.5680  -31.9440   23.2050 C   0  0  0  0  0  0  0  0  0  0  0  0
  -27.1140  -27.0910   20.1760 C   0  0  0  0  0  0  0  0  0  0  0  0
  -23.3760  -30.5630   21.5530 C   0  0  0  0  0  3  0  0  0  0  0  0
  -24.8230  -28.9650   20.1240 C   0  0  0  0  0  0  0  0  0  0  0  0
  -25.9410  -30.7690   21.4210 C   0  0  0  0  0  2  0  0  0  0  0  0
  -26.0050  -29.3660   20.7570 C   0  0  0  0  0  0  0  0  0  0  0  0
  -27.1420  -28.4450   20.7670 C   0  0  0  0  0  3  0  0  0  0  0  0
  -25.9070  -26.8410   19.4870 C   0  0  0  0  0  3  0  0  0  0  0  0
  -24.7970  -27.7240   19.4690 C   0  0  0  0  0  3  0  0  0  0  0  0
  -23.6070  -29.8880   20.1720 C   0  0  0  0  0  2  0  0  0  0  0  0
  -24.6500  -31.1190   22.1130 N   0  0  0  0  0  0  0  0  0  0  0  0
  -23.4790  -32.2360   23.7240 O   0  0  0  0  0  0  0  0  0  0  0  0
  -22.6740  -29.5640   22.5090 C   0  0  0  0  0  0  0  0  0  0  0  0
  -21.3410  -29.4250   22.3940 N   0  0  0  0  0  0  0  0  0  0  0  0
  -23.3360  -28.9150   23.3240 O   0  0  0  0  0  0  0  0  0  0  0  0
  -20.8610  -29.9980   21.7140 H   0  0  0  0  0  0  0  0  0  0  0  0
  -17.9390  -28.2840   22.9280 C   0  0  0  0  0  0  0  0  0  0  0  0
  -20.5080  -28.4910   23.1590 C   0  0  0  0  0  3  0  0  0  0  0  0
  -20.5710  -27.0680   22.5580 C   0  0  0  0  0  2  0  0  0  0  0  0
  -19.4480  -26.7870   21.5550 C   0  0  0  0  0  2  0  0  0  0  0  0
  -18.0780  -26.9470   22.2210 C   0  0  0  0  0  2  0  0  0  0  0  0
  -19.0790  -29.0160   23.3550 C   0  0  0  0  0  0  0  0  0  0  0  0
  -18.8920  -30.2680   23.9800 C   0  0  0  0  0  3  0  0  0  0  0  0
  -17.6000  -30.7880   24.1810 C   0  0  0  0  0  3  0  0  0  0  0  0
  -16.4750  -30.0540   23.7680 C   0  0  0  0  0  3  0  0  0  0  0  0
  -16.6460  -28.8030   23.1470 C   0  0  0  0  0  3  0  0  0  0  0  0
  -25.8410  -32.5780   23.8460 C   0  0  0  0  0  3  0  0  0  0  0  0
  -25.5290  -33.9770   24.1840 N   0  0  0  0  0  0  0  0  0  0  0  0
  -25.8760  -35.0420   23.4490 C   0  0  0  0  0  0  0  0  0  0  0  0
  -26.5580  -34.9490   22.4250 O   0  0  0  0  0  0  0  0  0  0  0  0
  -24.9240  -34.1230   24.9790 H   0  0  0  0  0  0  0  0  0  0  0  0
  -24.1730  -36.8640   23.0980 C   0  0  0  0  0  1  0  0  0  0  0  0
  -25.3960  -36.4290   23.9220 C   0  0  0  0  0  3  0  0  0  0  0  0
  -27.5210  -37.2830   24.8090 C   0  0  0  0  0  1  0  0  0  0  0  0
  -26.4410  -37.4740   23.8450 N   0  0  0  0  0  0  0  0  0  0  0  0
  -26.0400  -38.3950   23.9970 H   0  0  0  0  0  0  0  0  0  0  0  0
  -26.3340  -31.8060   25.1340 C   0  0  1  0  0  0  0  0  0  0  0  0
  -25.2260  -31.5810   26.1890 C   0  0  0  0  0  1  0  0  0  0  0  0
  -26.9120  -30.4220   24.7620 C   0  0  0  0  0  1  0  0  0  0  0  0
  -27.4810  -32.5950   25.8080 C   0  0  0  0  0  1  0  0  0  0  0  0
  1  3  2  0
  1  2  1  0
  2  5  2  0
  3  4  1  0
  4  8  1  0
  4  6  2  0
  5  6  1  0
  5 11  1  0
  6 12  1  0
  7  3  1  0
  9  7  1  0
  9 10  1  0
 10  8  1  0
 10 13  1  1
 14  2  1  0
 15 20  1  0
 16 17  1  0
 16 15  1  0
 18 17  1  0
 18 25  1  0
 18 19  1  0
 20 14  1  0
 20 19  1  0
 21 14  2  0
 22 23  2  0
 23 42  1  0
 24 23  1  0
 24 27  1  0
 25 22  1  0
 25 26  1  0
 26 24  2  0
 27 28  1  0
 28 29  2  0
 30 33  1  0
 30 29  1  0
 31 30  2  0
 32 31  1  0
 32 27  2  0
 33 34  1  0
 34 35  1  0
 35 36  2  0
 37 36  1  0
 37 41  1  0
 38 37  2  0
 39 34  2  0
 39 38  1  0
 40 39  1  0
 42 43  1  0
 43 46  1  0
 43 45  1  0
 44 42  2  0
 47 48  1  0
 47 22  1  0
 49 47  1  0
 50 10  1  0
 50 51  1  0
 52 63  2  0
 53 51  1  0
 53 58  1  0
 54 62  1  0
 54 64  1  0
 55 61  1  0
 55 57  1  0
 56 62  1  0
 57 58  2  0
 57 56  1  0
 59 53  2  0
 60 59  1  0
 60 55  2  0
 61 54  1  0
 62 52  1  0
 64 66  2  0
 65 64  1  0
 67 65  1  0
 68 77  2  0
 68 73  1  0
 69 65  1  0
 69 73  1  0
 70 69  1  0
 71 72  1  0
 71 70  1  0
 72 68  1  0
 73 74  2  0
 74 75  1  0
 76 75  2  0
 77 76  1  0
 78 52  1  0
 78 79  1  0
 78 88  1  0
 79 82  1  0
 80 84  1  0
 80 79  1  0
 81 80  2  0
 84 83  1  0
 86 84  1  0
 86 87  1  0
 86 85  1  0
 88 91  1  1
 88 89  1  0
 90 88  1  0
M  ISO  4   2 100  14 100  50 101  51 101
M  END
>  <TORSDO>  (8) 
F 17

>  <SCORE>  (8) 
-15.236

>  <name>  (8) 
7

>  <ligand_id>  (8) 
7

>  <original_smiles>  (8) 
[H]c1c([H])c([H])c2c(c1[H])C([H])([H])C([H])([H])C([H])([H])C2([H])N([H])C(=O)C1([H])N(C(=O)C([H])(N([H])C(=O)C([H])(N([H])C([H])([H])[H])C([H])([H])[H])C(C([H])([H])[H])(C([H])([H])[H])C([H])([H])[H])C([H])([H])c2c([H])c(OC([H])([H])C3(C([H])([H])[H])C([H])([H])c4c(C([H])([H])[H])c(C([H])([H])[H])c(C(=O)N5C([H])([H])C([H])([H])C([H])([H])C([H])(n6nc(-c7c([H])c([H])c(Oc8c([H])c([H])c(F)c([H])c8F)c([H])c7[H])c(C(=O)N([H])[H])c6N([H])[H])C5([H])[H])c([H])c4C([H])([H])C3([H])[H])c([H])c([H])c2C1([H])[H]

>  <smiles>  (8) 
[H]c1c([H])c([H])c2c(c1[H])C([H])([H])C([H])([H])C([H])([H])C2([H])N([H])C(=O)C1([H])N(C(=O)C([H])(N([H])C(=O)C([H])(N([H])C([H])([H])[H])C([H])([H])[H])C(C([H])([H])[H])(C([H])([H])[H])C([H])([H])[H])C([H])([H])c2c([H])c(OC([H])([H])C3(C([H])([H])[H])C([H])([H])c4c(C([H])([H])[H])c(C([H])([H])[H])c(C(=O)N5C([H])([H])C([H])([H])C([H])([H])C([H])(n6nc(-c7c([H])c([H])c(Oc8c([H])c([H])c(F)c([H])c8F)c([H])c7[H])c(C(=O)N([H])[H])c6N([H])[H])C5([H])[H])c([H])c4C([H])([H])C3([H])[H])c([H])c([H])c2C1([H])[H]

$$$$
9:0:0
     RDKit          3D

 95103  0  0  1  0  0  0  0  0999 V2000
  -28.4940  -23.6940   22.5290 C   0  0  0  0  0  3  0  0  0  0  0  0
  -28.8840  -22.5210   21.8410 C   0  0  0  0  0  0  0  0  0  0  0  0
  -28.1780  -24.9190   21.9010 C   0  0  0  0  0  0  0  0  0  0  0  0
  -28.8150  -22.4300   20.4220 C   0  0  0  0  0  0  0  0  0  0  0  0
  -28.5160  -23.7640   19.7840 C   0  0  0  0  0  0  0  0  0  0  0  0
  -28.2280  -25.0600   20.4920 C   0  0  0  0  0  0  0  0  0  0  0  0
  -27.8870  -26.1080   22.8040 C   0  0  0  0  0  1  0  0  0  0  0  0
  -28.5670  -23.8200   18.2700 C   0  0  0  0  0  1  0  0  0  0  0  0
  -28.1800  -26.4410   19.9590 O   0  0  0  0  0  0  0  0  0  0  0  0
  -24.5800  -32.0450   23.2410 C   0  0  0  0  0  0  0  0  0  0  0  0
  -27.1040  -27.4050   20.0470 C   0  0  0  0  0  0  0  0  0  0  0  0
  -23.3460  -30.6780   21.6040 C   0  0  0  0  0  3  0  0  0  0  0  0
  -24.7640  -29.1370   20.1120 C   0  0  0  0  0  0  0  0  0  0  0  0
  -25.8920  -30.9630   21.3760 C   0  0  0  0  0  2  0  0  0  0  0  0
  -25.9580  -29.5810   20.6980 C   0  0  0  0  0  0  0  0  0  0  0  0
  -27.1280  -28.7340   20.6440 C   0  0  0  0  0  3  0  0  0  0  0  0
  -25.8830  -27.0610   19.4340 C   0  0  0  0  0  3  0  0  0  0  0  0
  -24.7390  -27.8900   19.4670 C   0  0  0  0  0  3  0  0  0  0  0  0
  -23.5350  -30.0300   20.2060 C   0  0  0  0  0  2  0  0  0  0  0  0
  -24.6280  -31.2510   22.1290 N   0  0  0  0  0  0  0  0  0  0  0  0
  -23.5070  -32.3110   23.8040 O   0  0  0  0  0  0  0  0  0  0  0  0
  -22.6990  -29.6470   22.5620 C   0  0  0  0  0  0  0  0  0  0  0  0
  -21.3820  -29.4120   22.4140 N   0  0  0  0  0  0  0  0  0  0  0  0
  -23.3840  -29.0590   23.4020 O   0  0  0  0  0  0  0  0  0  0  0  0
  -20.8830  -29.9390   21.7110 H   0  0  0  0  0  0  0  0  0  0  0  0
  -18.0830  -27.9610   22.7790 C   0  0  0  0  0  0  0  0  0  0  0  0
  -20.5920  -28.4420   23.1770 C   0  0  0  0  0  3  0  0  0  0  0  0
  -20.8410  -27.0020   22.6730 C   0  0  0  0  0  2  0  0  0  0  0  0
  -19.8310  -26.5510   21.6130 C   0  0  0  0  0  2  0  0  0  0  0  0
  -18.4070  -26.6060   22.1720 C   0  0  0  0  0  2  0  0  0  0  0  0
  -19.1100  -28.8300   23.2370 C   0  0  0  0  0  0  0  0  0  0  0  0
  -18.7540  -30.0900   23.7660 C   0  0  0  0  0  3  0  0  0  0  0  0
  -17.4050  -30.4860   23.8390 C   0  0  0  0  0  3  0  0  0  0  0  0
  -16.3930  -29.6180   23.3960 C   0  0  0  0  0  3  0  0  0  0  0  0
  -16.7310  -28.3570   22.8720 C   0  0  0  0  0  3  0  0  0  0  0  0
  -25.8690  -32.6770   23.8490 C   0  0  0  0  0  3  0  0  0  0  0  0
  -25.5710  -34.0800   24.1780 N   0  0  0  0  0  0  0  0  0  0  0  0
  -25.9190  -35.1330   23.4260 C   0  0  0  0  0  0  0  0  0  0  0  0
  -26.5910  -35.0250   22.3980 O   0  0  0  0  0  0  0  0  0  0  0  0
  -24.9720  -34.2380   24.9750 H   0  0  0  0  0  0  0  0  0  0  0  0
  -24.2140  -36.9520   23.0730 C   0  0  0  0  0  1  0  0  0  0  0  0
  -25.4480  -36.5280   23.8870 C   0  0  0  0  0  3  0  0  0  0  0  0
  -27.5930  -37.3830   24.7260 C   0  0  0  0  0  1  0  0  0  0  0  0
  -26.4950  -37.5680   23.7800 N   0  0  0  0  0  0  0  0  0  0  0  0
  -26.1000  -38.4930   23.9290 H   0  0  0  0  0  0  0  0  0  0  0  0
  -26.3890  -31.9130   25.1290 C   0  0  1  0  0  0  0  0  0  0  0  0
  -25.3000  -31.6880   26.2050 C   0  0  0  0  0  1  0  0  0  0  0  0
  -26.9640  -30.5290   24.7470 C   0  0  0  0  0  1  0  0  0  0  0  0
  -27.5470  -32.7070   25.7780 C   0  0  0  0  0  1  0  0  0  0  0  0
  -29.5250  -21.4460   22.7130 C   0  0  0  0  0  2  0  0  0  0  0  0
  -30.9920  -21.7860   23.0380 C   0  0  0  0  0  2  0  0  0  0  0  0
  -33.2760  -20.8880   23.7360 C   0  0  0  0  0  1  0  0  0  0  0  0
  -31.7800  -20.5860   23.5820 C   0  0  0  0  0  2  0  0  0  0  0  0
  -29.2940  -20.9930   19.6930 C   0  0  0  0  0  2  0  0  0  0  0  0
  -28.8750  -19.3630   20.0450 C   0  0  0  0  0  2  0  0  0  0  0  0
  -29.5560  -16.6010   20.0590 C   0  0  0  0  0  3  0  0  0  0  0  0
  -29.8040  -17.9940   19.8170 C   0  0  0  0  0  0  0  0  0  0  0  0
  -30.4260  -15.3110   19.8220 C   0  0  0  0  0  0  0  0  0  0  0  0
  -30.3390  -12.9200   18.9570 C   0  0  0  0  0  2  0  0  0  0  0  0
  -29.3550  -12.8280   17.7670 C   0  0  0  0  0  2  0  0  0  0  0  0
  -27.9210  -12.5760   18.2670 C   0  0  0  0  0  2  0  0  0  0  0  0
  -27.5380  -13.5070   19.4460 C   0  0  0  0  0  3  0  0  0  0  0  0
  -28.6440  -13.5750   20.5200 C   0  0  0  0  0  2  0  0  0  0  0  0
  -29.8750  -14.0220   19.8560 N   0  0  0  0  0  0  0  0  0  0  0  0
  -31.6100  -15.3590   19.4660 O   0  0  0  0  0  0  0  0  0  0  0  0
  -25.1910  -14.0270   20.3160 C   0  0  0  0  0  0  0  0  0  0  0  0
  -24.1670  -13.2280   20.7430 C   0  0  0  0  0  0  0  0  0  0  0  0
  -24.6620  -11.8880   20.6900 C   0  0  0  0  0  0  0  0  0  0  0  0
  -26.2390  -13.1740   20.0170 N   0  0  0  0  0  0  0  0  0  0  0  0
  -25.9350  -11.8820   20.3110 N   0  0  0  0  0  0  0  0  0  0  0  0
  -23.9760  -10.6100   20.9230 C   0  0  0  0  0  0  0  0  0  0  0  0
  -24.4400   -9.6850   21.8840 C   0  0  0  0  0  3  0  0  0  0  0  0
  -23.7500   -8.4720   22.1020 C   0  0  0  0  0  3  0  0  0  0  0  0
  -22.5820   -8.1770   21.3610 C   0  0  0  0  0  0  0  0  0  0  0  0
  -22.1370   -9.0910   20.3900 C   0  0  0  0  0  3  0  0  0  0  0  0
  -22.8270  -10.2950   20.1700 C   0  0  0  0  0  3  0  0  0  0  0  0
  -21.8620   -7.0130   21.4870 O   0  0  0  0  0  0  0  0  0  0  0  0
  -21.7980   -6.3320   22.6760 C   0  0  0  0  0  0  0  0  0  0  0  0
  -21.2980   -6.9310   23.8520 C   0  0  0  0  0  3  0  0  0  0  0  0
  -21.1830   -6.1730   25.0360 C   0  0  0  0  0  3  0  0  0  0  0  0
  -21.5610   -4.8170   25.0420 C   0  0  0  0  0  0  0  0  0  0  0  0
  -22.0540   -4.2160   23.8700 C   0  0  0  0  0  3  0  0  0  0  0  0
  -22.1700   -4.9720   22.6900 C   0  0  0  0  0  0  0  0  0  0  0  0
  -22.6260   -4.3840   21.5590 F   0  0  0  0  0  0  0  0  0  0  0  0
  -21.4430   -4.0860   26.1750 F   0  0  0  0  0  0  0  0  0  0  0  0
  -22.7750  -13.6740   21.0830 C   0  0  0  0  0  0  0  0  0  0  0  0
  -22.1080  -12.9660   21.9870 N   0  0  0  0  0  0  0  0  0  0  0  0
  -22.2880  -14.6880   20.5820 O   0  0  0  0  0  0  0  0  0  0  0  0
  -22.5180  -12.1490   22.4160 H   0  0  0  0  0  0  0  0  0  0  0  0
  -21.1770  -13.2470   22.2580 H   0  0  0  0  0  0  0  0  0  0  0  0
  -25.3120  -15.4020   20.1290 N   0  0  0  0  0  0  0  0  0  0  0  0
  -24.5280  -16.0310   20.2710 H   0  0  0  0  0  0  0  0  0  0  0  0
  -26.1270  -15.8620   19.7460 H   0  0  0  0  0  0  0  0  0  0  0  0
  -30.9710  -18.3900   19.2950 O   0  0  0  0  0  0  0  0  0  0  0  0
  -30.9350  -19.3320   19.1860 H   0  0  0  0  0  0  0  0  0  0  0  0
  2  1  2  0
  2 50  1  0
  3  1  1  0
  3  7  1  0
  4  2  1  0
  5  4  2  0
  5  6  1  0
  6  3  2  0
  8  5  1  0
  9 11  1  0
  9  6  1  0
 10 21  2  0
 11 16  1  0
 12 20  1  0
 12 22  1  0
 13 19  1  0
 13 15  1  0
 14 20  1  0
 15 14  1  0
 16 15  2  0
 17 18  1  0
 17 11  2  0
 18 13  2  0
 19 12  1  0
 20 10  1  0
 22 24  2  0
 23 22  1  0
 25 23  1  0
 26 35  2  0
 26 31  1  0
 27 23  1  0
 27 31  1  0
 28 27  1  0
 29 30  1  0
 29 28  1  0
 30 26  1  0
 31 32  2  0
 32 33  1  0
 34 33  2  0
 35 34  1  0
 36 10  1  0
 36 37  1  0
 36 46  1  0
 37 40  1  0
 38 42  1  0
 38 37  1  0
 39 38  2  0
 42 41  1  0
 44 42  1  0
 44 45  1  0
 44 43  1  0
 46 49  1  1
 46 47  1  0
 48 46  1  0
 50 51  1  0
 51 53  1  0
 53 52  1  0
 54 55  1  0
 54  4  1  0
 57 55  1  0
 57 56  2  0
 58 64  1  0
 58 56  1  0
 59 64  1  0
 60 61  1  0
 60 59  1  0
 62 61  1  0
 62 69  1  0
 62 63  1  0
 64 63  1  0
 65 58  2  0
 66 67  2  0
 67 86  1  0
 68 67  1  0
 68 71  1  0
 69 70  1  0
 69 66  1  0
 70 68  2  0
 71 72  1  0
 72 73  2  0
 74 77  1  0
 74 73  1  0
 75 74  2  0
 76 75  1  0
 76 71  2  0
 77 78  1  0
 78 83  2  0
 78 79  1  0
 79 80  2  0
 80 81  1  0
 81 85  1  0
 82 81  2  0
 83 82  1  0
 84 83  1  0
 86 87  1  0
 87 90  1  0
 87 89  1  0
 88 86  2  0
 91 92  1  0
 91 66  1  0
 93 91  1  0
 94 57  1  0
 95 94  1  0
M  ISO  4   6 101   9 101  56 100  58 100
M  END
>  <TORSDO>  (9) 
F 23

>  <SCORE>  (9) 
-13.398

>  <name>  (9) 
9

>  <ligand_id>  (9) 
9

>  <original_smiles>  (9) 
[H]OC(=C([H])C(=O)N1C([H])([H])C([H])([H])C([H])([H])C([H])(n2nc(-c3c([H])c([H])c(Oc4c([H])c([H])c(F)c([H])c4F)c([H])c3[H])c(C(=O)N([H])[H])c2N([H])[H])C1([H])[H])C([H])([H])C([H])([H])c1c(C([H])([H])[H])c(Oc2c([H])c([H])c3c(c2[H])C([H])([H])N(C(=O)C([H])(N([H])C(=O)C([H])(N([H])C([H])([H])[H])C([H])([H])[H])C(C([H])([H])[H])(C([H])([H])[H])C([H])([H])[H])C([H])(C(=O)N([H])C2([H])c4c([H])c([H])c([H])c([H])c4C([H])([H])C([H])([H])C2([H])[H])C3([H])[H])c(C([H])([H])[H])c([H])c1C([H])([H])C([H])([H])C([H])([H])C([H])([H])[H]

>  <smiles>  (9) 
[H]OC(=C([H])C(=O)N1C([H])([H])C([H])([H])C([H])([H])C([H])(n2nc(-c3c([H])c([H])c(Oc4c([H])c([H])c(F)c([H])c4F)c([H])c3[H])c(C(=O)N([H])[H])c2N([H])[H])C1([H])[H])C([H])([H])C([H])([H])c1c(C([H])([H])[H])c(Oc2c([H])c([H])c3c(c2[H])C([H])([H])N(C(=O)C([H])(N([H])C(=O)C([H])(N([H])C([H])([H])[H])C([H])([H])[H])C(C([H])([H])[H])(C([H])([H])[H])C([H])([H])[H])C([H])(C(=O)N([H])C2([H])c4c([H])c([H])c([H])c([H])c4C([H])([H])C([H])([H])C2([H])[H])C3([H])[H])c(C([H])([H])[H])c([H])c1C([H])([H])C([H])([H])C([H])([H])C([H])([H])[H]

$$$$
10:0:0
     RDKit          3D

 94102  0  0  1  0  0  0  0  0999 V2000
  -28.4350  -24.8660   20.7990 C   0  0  0  0  0  3  0  0  0  0  0  0
  -30.0230  -25.5090   23.0210 C   0  0  0  0  0  3  0  0  0  0  0  0
  -28.7610  -23.8590   21.7340 C   0  0  0  0  0  0  0  0  0  0  0  0
  -29.5280  -24.1970   22.8830 C   0  0  0  0  0  0  0  0  0  0  0  0
  -29.7530  -26.4920   22.0500 C   0  0  0  0  0  0  0  0  0  0  0  0
  -28.9270  -26.1780   20.9450 C   0  0  0  0  0  0  0  0  0  0  0  0
  -29.8450  -23.1980   23.9890 C   0  0  0  0  0  1  0  0  0  0  0  0
  -30.3650  -27.8690   22.2160 C   0  0  0  0  0  1  0  0  0  0  0  0
  -28.2770  -22.4850   21.4510 C   0  0  0  0  0  0  0  0  0  0  0  0
  -27.0840  -22.1720   21.4230 O   0  0  0  0  0  0  0  0  0  0  0  0
  -29.3720  -21.4810   21.0740 C   0  0  0  0  0  2  0  0  0  0  0  0
  -28.8970  -20.0360   20.8580 C   0  0  0  0  0  2  0  0  0  0  0  0
  -30.0970  -19.1030   20.6440 C   0  0  0  0  0  2  0  0  0  0  0  0
  -29.7070  -17.6250   20.5440 C   0  0  0  0  0  2  0  0  0  0  0  0
  -30.9420  -16.7130   20.5140 C   0  0  0  0  0  2  0  0  0  0  0  0
  -31.0430  -14.3380   19.7600 C   0  0  0  0  0  0  0  0  0  0  0  0
  -30.7110  -12.0350   18.9460 C   0  0  0  0  0  2  0  0  0  0  0  0
  -29.7180  -12.0190   17.7680 C   0  0  0  0  0  2  0  0  0  0  0  0
  -28.2660  -11.9450   18.2750 C   0  0  0  0  0  2  0  0  0  0  0  0
  -27.9610  -12.9960   19.3740 C   0  0  0  0  0  3  0  0  0  0  0  0
  -29.0520  -12.9630   20.4670 C   0  0  0  0  0  2  0  0  0  0  0  0
  -30.3650  -13.1640   19.8200 N   0  0  0  0  0  0  0  0  0  0  0  0
  -32.0420  -14.5160   19.0550 O   0  0  0  0  0  0  0  0  0  0  0  0
  -30.5340  -15.3140   20.5210 N   0  0  0  0  0  0  0  0  0  0  0  0
  -29.7410  -15.0650   21.0920 H   0  0  0  0  0  0  0  0  0  0  0  0
  -25.6440  -13.7470   20.2190 C   0  0  0  0  0  0  0  0  0  0  0  0
  -24.5650  -13.0370   20.6740 C   0  0  0  0  0  0  0  0  0  0  0  0
  -24.9530  -11.6640   20.6410 C   0  0  0  0  0  0  0  0  0  0  0  0
  -26.6260  -12.8080   19.9410 N   0  0  0  0  0  0  0  0  0  0  0  0
  -26.2150  -11.5510   20.2470 N   0  0  0  0  0  0  0  0  0  0  0  0
  -24.1780  -10.4440   20.9060 C   0  0  0  0  0  0  0  0  0  0  0  0
  -24.5860   -9.5090   21.8840 C   0  0  0  0  0  3  0  0  0  0  0  0
  -23.8150   -8.3530   22.1320 C   0  0  0  0  0  3  0  0  0  0  0  0
  -22.6220   -8.1250   21.4050 C   0  0  0  0  0  0  0  0  0  0  0  0
  -22.2340   -9.0470   20.4180 C   0  0  0  0  0  3  0  0  0  0  0  0
  -23.0060  -10.1950   20.1680 C   0  0  0  0  0  3  0  0  0  0  0  0
  -21.8240   -7.0170   21.5610 O   0  0  0  0  0  0  0  0  0  0  0  0
  -21.7100   -6.3760   22.7690 C   0  0  0  0  0  0  0  0  0  0  0  0
  -21.2520   -7.0450   23.9260 C   0  0  0  0  0  3  0  0  0  0  0  0
  -21.0830   -6.3310   25.1300 C   0  0  0  0  0  3  0  0  0  0  0  0
  -21.3610   -4.9520   25.1770 C   0  0  0  0  0  0  0  0  0  0  0  0
  -21.8120   -4.2840   24.0250 C   0  0  0  0  0  3  0  0  0  0  0  0
  -21.9840   -4.9950   22.8230 C   0  0  0  0  0  0  0  0  0  0  0  0
  -22.3970   -4.3430   21.7100 F   0  0  0  0  0  0  0  0  0  0  0  0
  -21.1910   -4.2650   26.3310 F   0  0  0  0  0  0  0  0  0  0  0  0
  -23.2150  -13.5920   21.0310 C   0  0  0  0  0  0  0  0  0  0  0  0
  -22.5180  -12.9560   21.9680 N   0  0  0  0  0  0  0  0  0  0  0  0
  -22.7910  -14.6240   20.5130 O   0  0  0  0  0  0  0  0  0  0  0  0
  -22.8740  -12.1210   22.4090 H   0  0  0  0  0  0  0  0  0  0  0  0
  -21.6160  -13.3130   22.2480 H   0  0  0  0  0  0  0  0  0  0  0  0
  -25.8670  -15.1040   20.0020 N   0  0  0  0  0  0  0  0  0  0  0  0
  -25.1460  -15.8000   20.1520 H   0  0  0  0  0  0  0  0  0  0  0  0
  -26.7220  -15.4920   19.6260 H   0  0  0  0  0  0  0  0  0  0  0  0
  -28.6400  -27.1100   19.9830 O   0  0  0  0  0  0  0  0  0  0  0  0
  -24.6490  -31.8860   23.4110 C   0  0  0  0  0  0  0  0  0  0  0  0
  -27.4360  -27.7580   20.0810 C   0  0  0  0  0  0  0  0  0  0  0  0
  -23.4760  -30.5280   21.7040 C   0  0  0  0  0  3  0  0  0  0  0  0
  -24.9720  -29.1220   20.1910 C   0  0  0  0  0  0  0  0  0  0  0  0
  -25.9750  -31.0090   21.4970 C   0  0  0  0  0  2  0  0  0  0  0  0
  -26.1080  -29.6760   20.7950 C   0  0  0  0  0  0  0  0  0  0  0  0
  -27.3410  -29.0000   20.7390 C   0  0  0  0  0  3  0  0  0  0  0  0
  -26.2880  -27.2030   19.4780 C   0  0  0  0  0  3  0  0  0  0  0  0
  -25.0550  -27.8820   19.5310 C   0  0  0  0  0  3  0  0  0  0  0  0
  -23.6940  -29.9250   20.2890 C   0  0  0  0  0  2  0  0  0  0  0  0
  -24.7190  -31.1530   22.2640 N   0  0  0  0  0  0  0  0  0  0  0  0
  -23.5660  -32.0860   23.9770 O   0  0  0  0  0  0  0  0  0  0  0  0
  -22.8770  -29.4340   22.6130 C   0  0  0  0  0  0  0  0  0  0  0  0
  -21.5760  -29.1580   22.4340 N   0  0  0  0  0  0  0  0  0  0  0  0
  -23.5800  -28.8350   23.4330 O   0  0  0  0  0  0  0  0  0  0  0  0
  -21.0680  -29.6980   21.7460 H   0  0  0  0  0  0  0  0  0  0  0  0
  -18.3130  -27.6340   22.6960 C   0  0  0  0  0  0  0  0  0  0  0  0
  -20.8070  -28.1410   23.1480 C   0  0  0  0  0  3  0  0  0  0  0  0
  -21.0900  -26.7300   22.5820 C   0  0  0  0  0  2  0  0  0  0  0  0
  -20.0990  -26.3070   21.4930 C   0  0  0  0  0  2  0  0  0  0  0  0
  -18.6680  -26.3120   22.0370 C   0  0  0  0  0  2  0  0  0  0  0  0
  -19.3170  -28.5000   23.2040 C   0  0  0  0  0  0  0  0  0  0  0  0
  -18.9340  -29.7330   23.7740 C   0  0  0  0  0  3  0  0  0  0  0  0
  -17.5770  -30.1050   23.8430 C   0  0  0  0  0  3  0  0  0  0  0  0
  -16.5860  -29.2360   23.3530 C   0  0  0  0  0  3  0  0  0  0  0  0
  -16.9540  -28.0020   22.7860 C   0  0  0  0  0  3  0  0  0  0  0  0
  -25.9210  -32.5250   24.0540 C   0  0  0  0  0  3  0  0  0  0  0  0
  -25.5950  -33.9190   24.3780 N   0  0  0  0  0  0  0  0  0  0  0  0
  -25.9250  -34.9720   23.6190 C   0  0  0  0  0  0  0  0  0  0  0  0
  -26.6060  -34.8720   22.5930 O   0  0  0  0  0  0  0  0  0  0  0  0
  -24.9900  -34.0690   25.1720 H   0  0  0  0  0  0  0  0  0  0  0  0
  -24.1800  -36.7410   23.2400 C   0  0  0  0  0  1  0  0  0  0  0  0
  -25.4170  -36.3550   24.0650 C   0  0  0  0  0  3  0  0  0  0  0  0
  -27.5330  -37.2700   24.9120 C   0  0  0  0  0  1  0  0  0  0  0  0
  -26.4380  -37.4210   23.9580 N   0  0  0  0  0  0  0  0  0  0  0  0
  -26.0200  -38.3360   24.0940 H   0  0  0  0  0  0  0  0  0  0  0  0
  -26.4270  -31.7560   25.3350 C   0  0  1  0  0  0  0  0  0  0  0  0
  -25.3210  -31.5080   26.3870 C   0  0  0  0  0  1  0  0  0  0  0  0
  -27.0260  -30.3840   24.9430 C   0  0  0  0  0  1  0  0  0  0  0  0
  -27.5610  -32.5590   26.0160 C   0  0  0  0  0  1  0  0  0  0  0  0
  1  6  2  0
  1  3  1  0
  3  4  2  0
  4  2  1  0
  4  7  1  0
  5  8  1  0
  5  2  2  0
  6  5  1  0
  9  3  1  0
 10  9  2  0
 11  9  1  0
 12 11  1  0
 13 12  1  0
 14 13  1  0
 15 24  1  0
 15 14  1  0
 16 22  1  0
 16 24  1  0
 17 22  1  0
 18 19  1  0
 18 17  1  0
 20 19  1  0
 20 29  1  0
 20 21  1  0
 22 21  1  0
 23 16  2  0
 24 25  1  0
 26 27  2  0
 27 46  1  0
 28 27  1  0
 28 31  1  0
 29 26  1  0
 29 30  1  0
 30 28  2  0
 31 32  1  0
 32 33  2  0
 34 37  1  0
 34 33  1  0
 35 34  2  0
 36 35  1  0
 36 31  2  0
 37 38  1  0
 38 43  2  0
 38 39  1  0
 39 40  2  0
 40 41  1  0
 41 45  1  0
 42 41  2  0
 43 42  1  0
 44 43  1  0
 46 47  1  0
 47 50  1  0
 47 49  1  0
 48 46  2  0
 51 52  1  0
 51 26  1  0
 53 51  1  0
 54 56  1  0
 54  6  1  0
 55 66  2  0
 56 61  1  0
 57 65  1  0
 57 67  1  0
 58 64  1  0
 58 60  1  0
 59 65  1  0
 60 59  1  0
 61 60  2  0
 62 63  1  0
 62 56  2  0
 63 58  2  0
 64 57  1  0
 65 55  1  0
 67 69  2  0
 68 67  1  0
 70 68  1  0
 71 80  2  0
 71 76  1  0
 72 68  1  0
 72 76  1  0
 73 72  1  0
 74 75  1  0
 74 73  1  0
 75 71  1  0
 76 77  2  0
 77 78  1  0
 79 78  2  0
 80 79  1  0
 81 55  1  0
 81 82  1  0
 81 91  1  0
 82 85  1  0
 83 87  1  0
 83 82  1  0
 84 83  2  0
 87 86  1  0
 89 87  1  0
 89 90  1  0
 89 88  1  0
 91 94  1  1
 91 92  1  0
 93 91  1  0
M  ISO  4   6 101  16 100  24 100  54 101
M  END
>  <TORSDO>  (10) 
F 22

>  <SCORE>  (10) 
-12.209

>  <name>  (10) 
10

>  <ligand_id>  (10) 
10

>  <original_smiles>  (10) 
[H]c1c([H])c([H])c2c(c1[H])C([H])([H])C([H])([H])C([H])([H])C2([H])N([H])C(=O)C1([H])N(C(=O)C([H])(N([H])C(=O)C([H])(N([H])C([H])([H])[H])C([H])([H])[H])C(C([H])([H])[H])(C([H])([H])[H])C([H])([H])[H])C([H])([H])c2c([H])c(Oc3c([H])c(C(=O)C([H])([H])C([H])([H])C([H])([H])C([H])([H])C([H])([H])N([H])C(=O)N4C([H])([H])C([H])([H])C([H])([H])C([H])(n5nc(-c6c([H])c([H])c(Oc7c([H])c([H])c(F)c([H])c7F)c([H])c6[H])c(C(=O)N([H])[H])c5N([H])[H])C4([H])[H])c(C([H])([H])[H])c([H])c3C([H])([H])[H])c([H])c([H])c2C1([H])[H]

>  <smiles>  (10) 
[H]c1c([H])c([H])c2c(c1[H])C([H])([H])C([H])([H])C([H])([H])C2([H])N([H])C(=O)C1([H])N(C(=O)C([H])(N([H])C(=O)C([H])(N([H])C([H])([H])[H])C([H])([H])[H])C(C([H])([H])[H])(C([H])([H])[H])C([H])([H])[H])C([H])([H])c2c([H])c(Oc3c([H])c(C(=O)C([H])([H])C([H])([H])C([H])([H])C([H])([H])C([H])([H])N([H])C(=O)N4C([H])([H])C([H])([H])C([H])([H])C([H])(n5nc(-c6c([H])c([H])c(Oc7c([H])c([H])c(F)c([H])c7F)c([H])c6[H])c(C(=O)N([H])[H])c5N([H])[H])C4([H])[H])c(C([H])([H])[H])c([H])c3C([H])([H])[H])c([H])c([H])c2C1([H])[H]

$$$$
11:0:0
     RDKit          3D

 89 97  0  0  1  0  0  0  0  0999 V2000
  -30.0020  -17.3240   20.0900 C   0  0  0  0  0  0  0  0  0  0  0  0
  -29.3290  -18.1200   19.0250 C   0  0  0  0  0  0  0  0  0  0  0  0
  -30.2570  -18.3940   21.0910 C   0  0  0  0  0  0  0  0  0  0  0  0
  -29.0030  -19.6140   18.9720 C   0  0  0  0  0  0  0  0  0  0  0  0
  -29.9140  -19.8870   21.0360 C   0  0  0  0  0  0  0  0  0  0  0  0
  -29.2740  -20.6870   19.9600 C   0  0  0  0  0  0  0  0  0  0  0  0
  -28.9370  -17.3110   17.7880 C   0  0  0  0  0  1  0  0  0  0  0  0
  -30.9990  -17.9200   22.3390 C   0  0  0  0  0  1  0  0  0  0  0  0
  -28.3340  -20.1250   17.7000 C   0  0  0  0  0  1  0  0  0  0  0  0
  -30.3150  -20.7250   22.2460 C   0  0  0  0  0  1  0  0  0  0  0  0
  -30.6310  -15.6840   20.0040 C   0  0  0  0  0  0  0  0  0  0  0  0
  -30.6170  -13.1730   19.1870 C   0  0  0  0  0  2  0  0  0  0  0  0
  -29.6760  -12.8590   17.9920 C   0  0  0  0  0  2  0  0  0  0  0  0
  -28.2590  -12.5330   18.4910 C   0  0  0  0  0  2  0  0  0  0  0  0
  -27.8100  -13.5190   19.5940 C   0  0  0  0  0  3  0  0  0  0  0  0
  -28.8830  -13.7870   20.6710 C   0  0  0  0  0  2  0  0  0  0  0  0
  -30.0640  -14.3490   19.9880 N   0  0  0  0  0  0  0  0  0  0  0  0
  -31.8460  -15.5810   19.7580 O   0  0  0  0  0  0  0  0  0  0  0  0
  -25.4930  -14.0390   20.4970 C   0  0  0  0  0  0  0  0  0  0  0  0
  -24.4480  -13.2520   20.8880 C   0  0  0  0  0  0  0  0  0  0  0  0
  -24.9080  -11.9030   20.7880 C   0  0  0  0  0  0  0  0  0  0  0  0
  -26.5170  -13.1720   20.1680 N   0  0  0  0  0  0  0  0  0  0  0  0
  -26.1840  -11.8770   20.4110 N   0  0  0  0  0  0  0  0  0  0  0  0
  -24.1820  -10.6370   20.9680 C   0  0  0  0  0  0  0  0  0  0  0  0
  -24.6110   -9.6610   21.8960 C   0  0  0  0  0  3  0  0  0  0  0  0
  -23.8810   -8.4650   22.0670 C   0  0  0  0  0  3  0  0  0  0  0  0
  -22.7070   -8.2350   21.3100 C   0  0  0  0  0  0  0  0  0  0  0  0
  -22.2970   -9.1990   20.3720 C   0  0  0  0  0  3  0  0  0  0  0  0
  -23.0280  -10.3860   20.2000 C   0  0  0  0  0  3  0  0  0  0  0  0
  -21.9490   -7.0910   21.3900 O   0  0  0  0  0  0  0  0  0  0  0  0
  -21.8420   -6.3790   22.5580 C   0  0  0  0  0  0  0  0  0  0  0  0
  -21.3250   -6.9560   23.7380 C   0  0  0  0  0  3  0  0  0  0  0  0
  -21.1670   -6.1690   24.8960 C   0  0  0  0  0  3  0  0  0  0  0  0
  -21.5160   -4.8060   24.8750 C   0  0  0  0  0  0  0  0  0  0  0  0
  -22.0250   -4.2280   23.6990 C   0  0  0  0  0  3  0  0  0  0  0  0
  -22.1840   -5.0120   22.5430 C   0  0  0  0  0  0  0  0  0  0  0  0
  -22.6560   -4.4440   21.4070 F   0  0  0  0  0  0  0  0  0  0  0  0
  -21.3570   -4.0480   25.9850 F   0  0  0  0  0  0  0  0  0  0  0  0
  -23.0680  -13.7260   21.2360 C   0  0  0  0  0  0  0  0  0  0  0  0
  -22.3780  -13.0100   22.1170 N   0  0  0  0  0  0  0  0  0  0  0  0
  -22.6120  -14.7660   20.7640 O   0  0  0  0  0  0  0  0  0  0  0  0
  -22.7620  -12.1670   22.5200 H   0  0  0  0  0  0  0  0  0  0  0  0
  -21.4540  -13.3080   22.3930 H   0  0  0  0  0  0  0  0  0  0  0  0
  -25.6560  -15.4150   20.3640 N   0  0  0  0  0  0  0  0  0  0  0  0
  -24.9030  -16.0700   20.5490 H   0  0  0  0  0  0  0  0  0  0  0  0
  -26.5000  -15.8660   20.0360 H   0  0  0  0  0  0  0  0  0  0  0  0
  -29.2210  -22.5190   19.7590 C   0  0  0  0  0  3  0  0  0  0  0  0
  -28.1160  -24.0530   19.8030 C   0  0  0  0  0  3  0  0  0  0  0  0
  -28.3010  -25.7690   19.8170 O   0  0  0  0  0  0  0  0  0  0  0  0
  -24.7440  -31.7260   23.1350 C   0  0  0  0  0  0  0  0  0  0  0  0
  -27.2990  -26.9260   19.8390 C   0  0  0  0  0  0  0  0  0  0  0  0
  -23.5520  -30.4130   21.4310 C   0  0  0  0  0  3  0  0  0  0  0  0
  -25.0010  -28.8780   19.9130 C   0  0  0  0  0  0  0  0  0  0  0  0
  -26.1230  -30.6150   21.2870 C   0  0  0  0  0  2  0  0  0  0  0  0
  -26.1960  -29.2300   20.5510 C   0  0  0  0  0  0  0  0  0  0  0  0
  -27.3340  -28.2820   20.4830 C   0  0  0  0  0  3  0  0  0  0  0  0
  -26.0670  -26.7620   19.1600 C   0  0  0  0  0  3  0  0  0  0  0  0
  -24.9700  -27.6700   19.1950 C   0  0  0  0  0  3  0  0  0  0  0  0
  -23.7810  -29.8020   20.0200 C   0  0  0  0  0  2  0  0  0  0  0  0
  -24.8290  -30.9460   22.0040 N   0  0  0  0  0  0  0  0  0  0  0  0
  -23.6540  -31.9820   23.6740 O   0  0  0  0  0  0  0  0  0  0  0  0
  -22.8620  -29.3680   22.3490 C   0  0  0  0  0  0  0  0  0  0  0  0
  -21.5350  -29.1900   22.2120 N   0  0  0  0  0  0  0  0  0  0  0  0
  -23.5320  -28.7190   23.1560 O   0  0  0  0  0  0  0  0  0  0  0  0
  -21.0440  -29.7660   21.5420 H   0  0  0  0  0  0  0  0  0  0  0  0
  -18.1740  -27.8820   22.6490 C   0  0  0  0  0  0  0  0  0  0  0  0
  -20.7260  -28.1990   22.9350 C   0  0  0  0  0  3  0  0  0  0  0  0
  -20.8640  -26.7970   22.2970 C   0  0  0  0  0  2  0  0  0  0  0  0
  -19.7750  -26.4950   21.2630 C   0  0  0  0  0  2  0  0  0  0  0  0
  -18.3880  -26.5730   21.9060 C   0  0  0  0  0  2  0  0  0  0  0  0
  -19.2720  -28.6530   23.1170 C   0  0  0  0  0  0  0  0  0  0  0  0
  -19.0160  -29.8740   23.7760 C   0  0  0  0  0  3  0  0  0  0  0  0
  -17.6970  -30.3280   23.9670 C   0  0  0  0  0  3  0  0  0  0  0  0
  -16.6150  -29.5550   23.5110 C   0  0  0  0  0  3  0  0  0  0  0  0
  -16.8540  -28.3330   22.8590 C   0  0  0  0  0  3  0  0  0  0  0  0
  -26.0090  -32.3500   23.7970 C   0  0  0  0  0  3  0  0  0  0  0  0
  -25.6780  -33.7260   24.2120 N   0  0  0  0  0  0  0  0  0  0  0  0
  -25.9670  -34.8330   23.5130 C   0  0  0  0  0  0  0  0  0  0  0  0
  -26.5970  -34.8020   22.4540 O   0  0  0  0  0  0  0  0  0  0  0  0
  -25.1110  -33.8210   25.0420 H   0  0  0  0  0  0  0  0  0  0  0  0
  -24.1820  -36.6060   23.3670 C   0  0  0  0  0  1  0  0  0  0  0  0
  -25.4810  -36.1870   24.0750 C   0  0  0  0  0  3  0  0  0  0  0  0
  -27.6400  -37.0900   24.8220 C   0  0  0  0  0  1  0  0  0  0  0  0
  -26.4820  -37.2700   23.9510 N   0  0  0  0  0  0  0  0  0  0  0  0
  -26.0640  -38.1720   24.1630 H   0  0  0  0  0  0  0  0  0  0  0  0
  -26.5250  -31.5250   25.0420 C   0  0  1  0  0  0  0  0  0  0  0  0
  -25.4300  -31.2370   26.0970 C   0  0  0  0  0  1  0  0  0  0  0  0
  -27.1130  -30.1660   24.6010 C   0  0  0  0  0  1  0  0  0  0  0  0
  -27.6720  -32.2920   25.7400 C   0  0  0  0  0  1  0  0  0  0  0  0
  1  3  1  0
  2  1  2  0
  3  8  1  0
  4  2  1  0
  4  6  2  0
  5  3  2  0
  5 10  1  0
  6  5  1  0
  7  2  1  0
  9  4  1  0
 11  1  1  0
 12 17  1  0
 13 14  1  0
 13 12  1  0
 15 14  1  0
 15 22  1  0
 15 16  1  0
 17 11  1  0
 17 16  1  0
 18 11  2  0
 19 20  2  0
 20 39  1  0
 21 20  1  0
 21 24  1  0
 22 23  1  0
 22 19  1  0
 23 21  2  0
 24 25  1  0
 25 26  2  0
 27 30  1  0
 27 26  1  0
 28 27  2  0
 29 28  1  0
 29 24  2  0
 30 31  1  0
 31 32  1  0
 32 33  2  0
 34 33  1  0
 34 38  1  0
 35 34  2  0
 36 31  2  0
 36 35  1  0
 37 36  1  0
 39 40  1  0
 40 43  1  0
 40 42  1  0
 41 39  2  0
 44 19  1  0
 44 45  1  0
 46 44  1  0
 47 48  2  0
 47  6  1  0
 48 49  1  0
 49 51  1  0
 50 61  2  0
 51 56  1  0
 52 60  1  0
 52 62  1  0
 53 59  1  0
 53 55  1  0
 54 60  1  0
 55 54  1  0
 56 55  2  0
 57 58  1  0
 57 51  2  0
 58 53  2  0
 59 52  1  0
 60 50  1  0
 62 64  2  0
 63 62  1  0
 65 63  1  0
 66 75  2  0
 66 71  1  0
 67 63  1  0
 67 71  1  0
 68 67  1  0
 69 70  1  0
 69 68  1  0
 70 66  1  0
 71 72  2  0
 72 73  1  0
 74 73  2  0
 75 74  1  0
 76 50  1  0
 76 77  1  0
 76 86  1  0
 77 80  1  0
 78 82  1  0
 78 77  1  0
 79 78  2  0
 82 81  1  0
 84 82  1  0
 84 85  1  0
 84 83  1  0
 86 89  1  1
 86 87  1  0
 88 86  1  0
M  ISO  4   1 100  11 100  48 101  49 101
M  END
>  <TORSDO>  (11) 
F 18

>  <SCORE>  (11) 
-15.717

>  <name>  (11) 
11

>  <ligand_id>  (11) 
11

>  <original_smiles>  (11) 
[H]c1c([H])c([H])c2c(c1[H])C([H])([H])C([H])([H])C([H])([H])C2([H])N([H])C(=O)C1([H])N(C(=O)C([H])(N([H])C(=O)C([H])(N([H])C([H])([H])[H])C([H])([H])[H])C(C([H])([H])[H])(C([H])([H])[H])C([H])([H])[H])C([H])([H])c2c([H])c(OC([H])([H])C([H])([H])c3c(C([H])([H])[H])c(C([H])([H])[H])c(C(=O)N4C([H])([H])C([H])([H])C([H])([H])C([H])(n5nc(-c6c([H])c([H])c(Oc7c([H])c([H])c(F)c([H])c7F)c([H])c6[H])c(C(=O)N([H])[H])c5N([H])[H])C4([H])[H])c(C([H])([H])[H])c3C([H])([H])[H])c([H])c([H])c2C1([H])[H]

>  <smiles>  (11) 
[H]c1c([H])c([H])c2c(c1[H])C([H])([H])C([H])([H])C([H])([H])C2([H])N([H])C(=O)C1([H])N(C(=O)C([H])(N([H])C(=O)C([H])(N([H])C([H])([H])[H])C([H])([H])[H])C(C([H])([H])[H])(C([H])([H])[H])C([H])([H])[H])C([H])([H])c2c([H])c(OC([H])([H])C([H])([H])c3c(C([H])([H])[H])c(C([H])([H])[H])c(C(=O)N4C([H])([H])C([H])([H])C([H])([H])C([H])(n5nc(-c6c([H])c([H])c(Oc7c([H])c([H])c(F)c([H])c7F)c([H])c6[H])c(C(=O)N([H])[H])c5N([H])[H])C4([H])[H])c(C([H])([H])[H])c3C([H])([H])[H])c([H])c([H])c2C1([H])[H]

$$$$
12:0:0
     RDKit          3D

 90 99  0  0  1  0  0  0  0  0999 V2000
  -26.8650  -24.8390   21.4720 C   0  0  0  0  0  3  0  0  0  0  0  0
  -27.9100  -24.6690   20.4870 C   0  0  0  0  0  0  0  0  0  0  0  0
  -28.2670  -23.1300   20.4970 C   0  0  0  0  0  0  0  0  0  0  0  0
  -26.4370  -23.7630   22.1820 C   0  0  0  0  0  0  0  0  0  0  0  0
  -25.4650  -23.7140   23.3160 C   0  0  0  0  0  1  0  0  0  0  0  0
  -27.1760  -22.3370   21.6260 S   0  0  0  0  0  0  0  0  0  0  0  0
  -30.3370  -21.5330   19.4770 C   0  0  0  0  0  3  0  0  0  0  0  0
  -29.1400  -21.7590   20.0950 C   0  0  0  0  0  0  0  0  0  0  0  0
  -30.9540  -20.0380   19.4040 C   0  0  0  0  0  2  0  0  0  0  0  0
  -28.8750  -20.1280   20.4880 C   0  0  0  0  0  2  0  0  0  0  0  0
  -29.8970  -18.9160   19.8160 C   0  0  0  0  0  3  0  0  0  0  0  0
  -30.9310  -15.9680   19.9690 C   0  0  0  0  0  0  0  0  0  0  0  0
  -31.0180  -13.4720   19.1580 C   0  0  0  0  0  2  0  0  0  0  0  0
  -30.0860  -13.1840   17.9540 C   0  0  0  0  0  2  0  0  0  0  0  0
  -28.6540  -12.8610   18.4200 C   0  0  0  0  0  2  0  0  0  0  0  0
  -28.1910  -13.8070   19.5620 C   0  0  0  0  0  3  0  0  0  0  0  0
  -29.2660  -14.0230   20.6510 C   0  0  0  0  0  2  0  0  0  0  0  0
  -30.4430  -14.6110   19.9830 N   0  0  0  0  0  0  0  0  0  0  0  0
  -32.1290  -16.0010   19.6480 O   0  0  0  0  0  0  0  0  0  0  0  0
  -30.1050  -17.2260   20.1370 N   0  0  0  0  0  0  0  0  0  0  0  0
  -29.2110  -16.8880   20.4650 H   0  0  0  0  0  0  0  0  0  0  0  0
  -25.8560  -14.2860   20.4680 C   0  0  0  0  0  0  0  0  0  0  0  0
  -24.8160  -13.4800   20.8370 C   0  0  0  0  0  0  0  0  0  0  0  0
  -25.2870  -12.1370   20.6940 C   0  0  0  0  0  0  0  0  0  0  0  0
  -26.8900  -13.4380   20.1130 N   0  0  0  0  0  0  0  0  0  0  0  0
  -26.5640  -12.1340   20.3180 N   0  0  0  0  0  0  0  0  0  0  0  0
  -24.5680  -10.8620   20.8360 C   0  0  0  0  0  0  0  0  0  0  0  0
  -24.9540   -9.8980   21.7940 C   0  0  0  0  0  3  0  0  0  0  0  0
  -24.2330   -8.6920   21.9300 C   0  0  0  0  0  3  0  0  0  0  0  0
  -23.1130   -8.4360   21.1040 C   0  0  0  0  0  0  0  0  0  0  0  0
  -22.7470   -9.3890   20.1350 C   0  0  0  0  0  3  0  0  0  0  0  0
  -23.4680  -10.5860   20.0000 C   0  0  0  0  0  3  0  0  0  0  0  0
  -22.3700   -7.2800   21.1430 O   0  0  0  0  0  0  0  0  0  0  0  0
  -22.1170   -6.6250   22.3220 C   0  0  0  0  0  0  0  0  0  0  0  0
  -21.4500   -7.2550   23.3960 C   0  0  0  0  0  3  0  0  0  0  0  0
  -21.1490   -6.5250   24.5620 C   0  0  0  0  0  3  0  0  0  0  0  0
  -21.5040   -5.1670   24.6570 C   0  0  0  0  0  0  0  0  0  0  0  0
  -22.1640   -4.5370   23.5870 C   0  0  0  0  0  3  0  0  0  0  0  0
  -22.4660   -5.2630   22.4220 C   0  0  0  0  0  0  0  0  0  0  0  0
  -23.0830   -4.6450   21.3870 F   0  0  0  0  0  0  0  0  0  0  0  0
  -21.2100   -4.4640   25.7750 F   0  0  0  0  0  0  0  0  0  0  0  0
  -23.4310  -13.9330   21.1970 C   0  0  0  0  0  0  0  0  0  0  0  0
  -22.7480  -13.1990   22.0690 N   0  0  0  0  0  0  0  0  0  0  0  0
  -22.9630  -14.9730   20.7360 O   0  0  0  0  0  0  0  0  0  0  0  0
  -23.1400  -12.3620   22.4730 H   0  0  0  0  0  0  0  0  0  0  0  0
  -21.8170  -13.4860   22.3400 H   0  0  0  0  0  0  0  0  0  0  0  0
  -26.0010  -15.6670   20.3760 N   0  0  0  0  0  0  0  0  0  0  0  0
  -25.2390  -16.3010   20.5870 H   0  0  0  0  0  0  0  0  0  0  0  0
  -26.8140  -16.1390   20.0050 H   0  0  0  0  0  0  0  0  0  0  0  0
  -28.2020  -26.0750   19.9560 O   0  0  0  0  0  0  0  0  0  0  0  0
  -24.8720  -32.1160   23.3540 C   0  0  0  0  0  0  0  0  0  0  0  0
  -27.2900  -27.2950   20.0300 C   0  0  0  0  0  0  0  0  0  0  0  0
  -23.6450  -30.8490   21.6420 C   0  0  0  0  0  3  0  0  0  0  0  0
  -25.0520  -29.2880   20.1190 C   0  0  0  0  0  0  0  0  0  0  0  0
  -26.2200  -30.9800   21.5050 C   0  0  0  0  0  2  0  0  0  0  0  0
  -26.2550  -29.6010   20.7660 C   0  0  0  0  0  0  0  0  0  0  0  0
  -27.3680  -28.6260   20.7060 C   0  0  0  0  0  3  0  0  0  0  0  0
  -26.0650  -27.1720   19.3360 C   0  0  0  0  0  3  0  0  0  0  0  0
  -24.9880  -28.0950   19.3820 C   0  0  0  0  0  3  0  0  0  0  0  0
  -23.8590  -30.2420   20.2290 C   0  0  0  0  0  2  0  0  0  0  0  0
  -24.9350  -31.3420   22.2210 N   0  0  0  0  0  0  0  0  0  0  0  0
  -23.7890  -32.4000   23.8940 O   0  0  0  0  0  0  0  0  0  0  0  0
  -22.9230  -29.8160   22.5500 C   0  0  0  0  0  0  0  0  0  0  0  0
  -21.5940  -29.6590   22.3920 N   0  0  0  0  0  0  0  0  0  0  0  0
  -23.5690  -29.1590   23.3680 O   0  0  0  0  0  0  0  0  0  0  0  0
  -21.1260  -30.2450   21.7120 H   0  0  0  0  0  0  0  0  0  0  0  0
  -18.1900  -28.4660   22.8300 C   0  0  0  0  0  0  0  0  0  0  0  0
  -20.7560  -28.6860   23.1030 C   0  0  0  0  0  3  0  0  0  0  0  0
  -20.8380  -27.2920   22.4400 C   0  0  0  0  0  2  0  0  0  0  0  0
  -19.7300  -27.0450   21.4090 C   0  0  0  0  0  2  0  0  0  0  0  0
  -18.3510  -27.1630   22.0650 C   0  0  0  0  0  2  0  0  0  0  0  0
  -19.3190  -29.1890   23.3040 C   0  0  0  0  0  0  0  0  0  0  0  0
  -19.1140  -30.4070   23.9830 C   0  0  0  0  0  3  0  0  0  0  0  0
  -17.8160  -30.9080   24.1910 C   0  0  0  0  0  3  0  0  0  0  0  0
  -16.7010  -30.1830   23.7330 C   0  0  0  0  0  3  0  0  0  0  0  0
  -16.8900  -28.9630   23.0580 C   0  0  0  0  0  3  0  0  0  0  0  0
  -26.1540  -32.6950   24.0260 C   0  0  0  0  0  3  0  0  0  0  0  0
  -25.8770  -34.0900   24.4190 N   0  0  0  0  0  0  0  0  0  0  0  0
  -26.2170  -35.1730   23.7030 C   0  0  0  0  0  0  0  0  0  0  0  0
  -26.8590  -35.0990   22.6530 O   0  0  0  0  0  0  0  0  0  0  0  0
  -25.2970  -34.2200   25.2350 H   0  0  0  0  0  0  0  0  0  0  0  0
  -24.5050  -37.0110   23.5110 C   0  0  0  0  0  1  0  0  0  0  0  0
  -25.7800  -36.5530   24.2370 C   0  0  0  0  0  3  0  0  0  0  0  0
  -27.9640  -37.3810   24.9950 C   0  0  0  0  0  1  0  0  0  0  0  0
  -26.8220  -37.5950   24.1100 N   0  0  0  0  0  0  0  0  0  0  0  0
  -26.4380  -38.5140   24.3060 H   0  0  0  0  0  0  0  0  0  0  0  0
  -26.6180  -31.8640   25.2870 C   0  0  1  0  0  0  0  0  0  0  0  0
  -25.4940  -31.6170   26.3210 C   0  0  0  0  0  1  0  0  0  0  0  0
  -27.1720  -30.4850   24.8640 C   0  0  0  0  0  1  0  0  0  0  0  0
  -27.7750  -32.5990   26.0010 C   0  0  0  0  0  1  0  0  0  0  0  0
  1  4  2  0
  2  3  2  0
  2  1  1  0
  3  6  1  0
  4  5  1  0
  6  4  1  0
  7  8  2  0
  8 10  1  0
  8  3  1  0
  9  7  1  0
  9 11  1  0
 11 20  1  0
 11 10  1  0
 12 18  1  0
 12 20  1  0
 13 18  1  0
 14 15  1  0
 14 13  1  0
 16 15  1  0
 16 25  1  0
 16 17  1  0
 18 17  1  0
 19 12  2  0
 20 21  1  0
 22 23  2  0
 23 42  1  0
 24 27  1  0
 24 23  1  0
 25 26  1  0
 25 22  1  0
 26 24  2  0
 27 28  1  0
 28 29  2  0
 30 33  1  0
 30 29  1  0
 31 30  2  0
 32 31  1  0
 32 27  2  0
 33 34  1  0
 34 39  2  0
 34 35  1  0
 35 36  2  0
 36 37  1  0
 37 41  1  0
 38 37  2  0
 39 38  1  0
 40 39  1  0
 42 43  1  0
 43 46  1  0
 43 45  1  0
 44 42  2  0
 47 22  1  0
 47 48  1  0
 49 47  1  0
 50 52  1  0
 50  2  1  0
 51 62  2  0
 52 57  1  0
 53 61  1  0
 53 63  1  0
 54 60  1  0
 54 56  1  0
 55 61  1  0
 56 55  1  0
 57 56  2  0
 58 59  1  0
 58 52  2  0
 59 54  2  0
 60 53  1  0
 61 51  1  0
 63 65  2  0
 64 63  1  0
 66 64  1  0
 67 76  2  0
 67 72  1  0
 68 64  1  0
 68 72  1  0
 69 68  1  0
 70 71  1  0
 70 69  1  0
 71 67  1  0
 72 73  2  0
 73 74  1  0
 75 74  2  0
 76 75  1  0
 77 51  1  0
 77 78  1  0
 77 87  1  0
 78 81  1  0
 79 83  1  0
 79 78  1  0
 80 79  2  0
 83 82  1  0
 85 83  1  0
 85 86  1  0
 85 84  1  0
 87 90  1  1
 87 88  1  0
 89 87  1  0
M  ISO  4   2 101  12 100  20 100  50 101
M  END
>  <TORSDO>  (12) 
F 17

>  <SCORE>  (12) 
-11.862

>  <name>  (12) 
12

>  <ligand_id>  (12) 
12

>  <original_smiles>  (12) 
[H]C1=C(c2sc(C([H])([H])[H])c([H])c2Oc2c([H])c([H])c3c(c2[H])C([H])([H])N(C(=O)C([H])(N([H])C(=O)C([H])(N([H])C([H])([H])[H])C([H])([H])[H])C(C([H])([H])[H])(C([H])([H])[H])C([H])([H])[H])C([H])(C(=O)N([H])C2([H])c4c([H])c([H])c([H])c([H])c4C([H])([H])C([H])([H])C2([H])[H])C3([H])[H])C([H])([H])C([H])(N([H])C(=O)N2C([H])([H])C([H])([H])C([H])([H])C([H])(n3nc(-c4c([H])c([H])c(Oc5c([H])c([H])c(F)c([H])c5F)c([H])c4[H])c(C(=O)N([H])[H])c3N([H])[H])C2([H])[H])C1([H])[H]

>  <smiles>  (12) 
[H]C1=C(c2sc(C([H])([H])[H])c([H])c2Oc2c([H])c([H])c3c(c2[H])C([H])([H])N(C(=O)C([H])(N([H])C(=O)C([H])(N([H])C([H])([H])[H])C([H])([H])[H])C(C([H])([H])[H])(C([H])([H])[H])C([H])([H])[H])C([H])(C(=O)N([H])C2([H])c4c([H])c([H])c([H])c([H])c4C([H])([H])C([H])([H])C2([H])[H])C3([H])[H])C([H])([H])C([H])(N([H])C(=O)N2C([H])([H])C([H])([H])C([H])([H])C([H])(n3nc(-c4c([H])c([H])c(Oc5c([H])c([H])c(F)c([H])c5F)c([H])c4[H])c(C(=O)N([H])[H])c3N([H])[H])C2([H])[H])C1([H])[H]

$$$$
13:0:0
     RDKit          3D

 93102  0  0  1  0  0  0  0  0999 V2000
  -30.7950  -18.0790   18.4810 C   0  0  0  0  0  3  0  0  0  0  0  0
  -30.3080  -19.5010   18.5950 C   0  0  0  0  0  0  0  0  0  0  0  0
  -30.4540  -16.8930   19.3160 C   0  0  0  0  0  0  0  0  0  0  0  0
  -29.3770  -19.8880   19.5870 C   0  0  0  0  0  0  0  0  0  0  0  0
  -29.5640  -17.3880   20.3540 C   0  0  0  0  0  0  0  0  0  0  0  0
  -29.0180  -18.7630   20.4390 C   0  0  0  0  0  0  0  0  0  0  0  0
  -30.7180  -20.6720   17.6710 C   0  0  0  0  0  0  0  0  0  0  0  0
  -30.2100  -22.2090   17.7850 C   0  0  0  0  0  3  0  0  0  0  0  0
  -28.7690  -21.4380   19.6950 C   0  0  0  0  0  2  0  0  0  0  0  0
  -29.4130  -22.8210   19.0010 C   0  0  0  0  0  3  0  0  0  0  0  0
  -29.2160  -16.4450   21.5010 C   0  0  0  0  0  1  0  0  0  0  0  0
  -27.9790  -19.0340   21.5280 C   0  0  0  0  0  1  0  0  0  0  0  0
  -30.4760  -23.0270   16.8490 N   0  0  0  0  0  2  0  0  0  0  0  0
  -31.4880  -20.4170   16.7360 O   0  0  0  0  0  0  0  0  0  0  0  0
  -31.0030  -22.5370   16.1320 H   0  0  0  0  0  0  0  0  0  0  0  0
  -31.1480  -15.3570   19.1920 C   0  0  0  0  0  0  0  0  0  0  0  0
  -31.0960  -12.8440   18.5690 C   0  0  0  0  0  2  0  0  0  0  0  0
  -30.0610  -12.5300   17.4570 C   0  0  0  0  0  2  0  0  0  0  0  0
  -28.6650  -12.2760   18.0580 C   0  0  0  0  0  2  0  0  0  0  0  0
  -28.3140  -13.3150   19.1500 C   0  0  0  0  0  3  0  0  0  0  0  0
  -29.4690  -13.5410   20.1360 C   0  0  0  0  0  2  0  0  0  0  0  0
  -30.6210  -14.0410   19.3650 N   0  0  0  0  0  0  0  0  0  0  0  0
  -32.3060  -15.3250   18.7460 O   0  0  0  0  0  0  0  0  0  0  0  0
  -26.1290  -13.9140   20.3210 C   0  0  0  0  0  0  0  0  0  0  0  0
  -25.0940  -13.1570   20.7930 C   0  0  0  0  0  0  0  0  0  0  0  0
  -25.4690  -11.7950   20.5790 C   0  0  0  0  0  0  0  0  0  0  0  0
  -27.0630  -13.0170   19.8350 N   0  0  0  0  0  0  0  0  0  0  0  0
  -26.6900  -11.7290   20.0570 N   0  0  0  0  0  0  0  0  0  0  0  0
  -24.7070  -10.5550   20.7810 C   0  0  0  0  0  0  0  0  0  0  0  0
  -25.1310   -9.5680   21.6980 C   0  0  0  0  0  3  0  0  0  0  0  0
  -24.3690   -8.3940   21.8920 C   0  0  0  0  0  3  0  0  0  0  0  0
  -23.1680   -8.2020   21.1680 C   0  0  0  0  0  0  0  0  0  0  0  0
  -22.7620   -9.1780   20.2400 C   0  0  0  0  0  3  0  0  0  0  0  0
  -23.5240  -10.3420   20.0460 C   0  0  0  0  0  3  0  0  0  0  0  0
  -22.3770   -7.0820   21.2710 O   0  0  0  0  0  0  0  0  0  0  0  0
  -22.1740   -6.4510   22.4720 C   0  0  0  0  0  0  0  0  0  0  0  0
  -21.5970   -7.1180   23.5750 C   0  0  0  0  0  3  0  0  0  0  0  0
  -21.3420   -6.4140   24.7680 C   0  0  0  0  0  3  0  0  0  0  0  0
  -21.6510   -5.0430   24.8580 C   0  0  0  0  0  0  0  0  0  0  0  0
  -22.2180   -4.3750   23.7580 C   0  0  0  0  0  3  0  0  0  0  0  0
  -22.4760   -5.0770   22.5680 C   0  0  0  0  0  0  0  0  0  0  0  0
  -23.0040   -4.4250   21.5050 F   0  0  0  0  0  0  0  0  0  0  0  0
  -21.3990   -4.3650   26.0010 F   0  0  0  0  0  0  0  0  0  0  0  0
  -23.7850  -13.6730   21.3170 C   0  0  0  0  0  0  0  0  0  0  0  0
  -23.1660  -12.9480   22.2430 N   0  0  0  0  0  0  0  0  0  0  0  0
  -23.3270  -14.7520   20.9430 O   0  0  0  0  0  0  0  0  0  0  0  0
  -23.5520  -12.0740   22.5660 H   0  0  0  0  0  0  0  0  0  0  0  0
  -22.2910  -13.2720   22.6320 H   0  0  0  0  0  0  0  0  0  0  0  0
  -26.3440  -15.2860   20.2410 N   0  0  0  0  0  0  0  0  0  0  0  0
  -25.6500  -15.9590   20.5490 H   0  0  0  0  0  0  0  0  0  0  0  0
  -27.1720  -15.7220   19.8540 H   0  0  0  0  0  0  0  0  0  0  0  0
  -28.5180  -24.3690   18.7830 C   0  0  0  0  0  2  0  0  0  0  0  0
  -28.7760  -25.9780   18.9800 O   0  0  0  0  0  0  0  0  0  0  0  0
  -24.9550  -31.1370   22.9150 C   0  0  0  0  0  0  0  0  0  0  0  0
  -27.7300  -27.0270   19.1010 C   0  0  0  0  0  0  0  0  0  0  0  0
  -23.8410  -30.0430   21.0120 C   0  0  0  0  0  3  0  0  0  0  0  0
  -25.3700  -28.7950   19.3470 C   0  0  0  0  0  0  0  0  0  0  0  0
  -26.4000  -30.3700   20.9710 C   0  0  0  0  0  2  0  0  0  0  0  0
  -26.5310  -29.1170   20.0620 C   0  0  0  0  0  0  0  0  0  0  0  0
  -27.7080  -28.2580   19.9170 C   0  0  0  0  0  3  0  0  0  0  0  0
  -26.5380  -26.8600   18.3630 C   0  0  0  0  0  3  0  0  0  0  0  0
  -25.3970  -27.6920   18.4800 C   0  0  0  0  0  3  0  0  0  0  0  0
  -24.1180  -29.6480   19.5360 C   0  0  0  0  0  2  0  0  0  0  0  0
  -25.0850  -30.5330   21.6910 N   0  0  0  0  0  0  0  0  0  0  0  0
  -23.8470  -31.2860   23.4540 O   0  0  0  0  0  0  0  0  0  0  0  0
  -23.1700  -28.8550   21.7510 C   0  0  0  0  0  0  0  0  0  0  0  0
  -21.8420  -28.6990   21.5980 N   0  0  0  0  0  0  0  0  0  0  0  0
  -23.8490  -28.0840   22.4320 O   0  0  0  0  0  0  0  0  0  0  0  0
  -21.3470  -29.3760   21.0360 H   0  0  0  0  0  0  0  0  0  0  0  0
  -18.4640  -27.4250   21.9540 C   0  0  0  0  0  0  0  0  0  0  0  0
  -21.0370  -27.6110   22.1630 C   0  0  0  0  0  3  0  0  0  0  0  0
  -21.0950  -26.3530   21.2650 C   0  0  0  0  0  2  0  0  0  0  0  0
  -19.9490  -26.2820   20.2510 C   0  0  0  0  0  2  0  0  0  0  0  0
  -18.5960  -26.2750   20.9700 C   0  0  0  0  0  2  0  0  0  0  0  0
  -19.6110  -28.0620   22.5020 C   0  0  0  0  0  0  0  0  0  0  0  0
  -19.4310  -29.1440   23.3890 C   0  0  0  0  0  3  0  0  0  0  0  0
  -18.1400  -29.5920   23.7290 C   0  0  0  0  0  3  0  0  0  0  0  0
  -17.0100  -28.9490   23.1940 C   0  0  0  0  0  3  0  0  0  0  0  0
  -17.1740  -27.8660   22.3130 C   0  0  0  0  0  3  0  0  0  0  0  0
  -26.1920  -31.6870   23.6880 C   0  0  0  0  0  3  0  0  0  0  0  0
  -25.8420  -33.0190   24.2100 N   0  0  0  0  0  0  0  0  0  0  0  0
  -26.1890  -34.1820   23.6430 C   0  0  0  0  0  0  0  0  0  0  0  0
  -26.8990  -34.2460   22.6360 O   0  0  0  0  0  0  0  0  0  0  0  0
  -25.2140  -33.0410   25.0000 H   0  0  0  0  0  0  0  0  0  0  0  0
  -24.4540  -36.0020   23.5100 C   0  0  0  0  0  1  0  0  0  0  0  0
  -25.6690  -35.4800   24.2940 C   0  0  0  0  0  3  0  0  0  0  0  0
  -27.7510  -36.2490   25.3470 C   0  0  0  0  0  1  0  0  0  0  0  0
  -26.6910  -36.5460   24.3870 N   0  0  0  0  0  0  0  0  0  0  0  0
  -26.2670  -37.4330   24.6460 H   0  0  0  0  0  0  0  0  0  0  0  0
  -26.6550  -30.7440   24.8670 C   0  0  1  0  0  0  0  0  0  0  0  0
  -25.5150  -30.3560   25.8370 C   0  0  0  0  0  1  0  0  0  0  0  0
  -27.2670  -29.4330   24.3190 C   0  0  0  0  0  1  0  0  0  0  0  0
  -27.7670  -31.4380   25.6880 C   0  0  0  0  0  1  0  0  0  0  0  0
  1  2  2  0
  1  3  1  0
  2  4  1  0
  3  5  2  0
  4  9  1  0
  4  6  2  0
  5  6  1  0
  5 11  1  0
  6 12  1  0
  7  8  1  0
  7  2  1  0
  8 13  1  0
  8 10  1  0
 10 52  1  0
 10  9  1  0
 14  7  2  0
 15 13  1  0
 16  3  1  0
 16 22  1  0
 17 22  1  0
 18 19  1  0
 18 17  1  0
 20 19  1  0
 20 27  1  0
 20 21  1  0
 22 21  1  0
 23 16  2  0
 24 25  2  0
 25 44  1  0
 26 29  1  0
 26 25  1  0
 27 28  1  0
 27 24  1  0
 28 26  2  0
 29 30  1  0
 30 31  2  0
 32 35  1  0
 32 31  1  0
 33 32  2  0
 34 33  1  0
 34 29  2  0
 35 36  1  0
 36 41  2  0
 36 37  1  0
 37 38  2  0
 38 39  1  0
 39 43  1  0
 40 39  2  0
 41 40  1  0
 42 41  1  0
 44 45  1  0
 45 47  1  0
 45 48  1  0
 46 44  2  0
 49 24  1  0
 49 50  1  0
 51 49  1  0
 52 53  1  0
 53 55  1  0
 54 65  2  0
 55 60  1  0
 56 64  1  0
 56 66  1  0
 57 63  1  0
 57 59  1  0
 58 64  1  0
 59 58  1  0
 60 59  2  0
 61 62  1  0
 61 55  2  0
 62 57  2  0
 63 56  1  0
 64 54  1  0
 66 68  2  0
 67 66  1  0
 69 67  1  0
 70 79  2  0
 70 75  1  0
 71 67  1  0
 71 75  1  0
 72 71  1  0
 73 74  1  0
 73 72  1  0
 74 70  1  0
 75 76  2  0
 76 77  1  0
 78 77  2  0
 79 78  1  0
 80 54  1  0
 80 81  1  0
 80 90  1  0
 81 84  1  0
 82 81  1  0
 82 86  1  0
 83 82  2  0
 86 85  1  0
 86 88  1  0
 88 89  1  0
 88 87  1  0
 90 93  1  1
 90 91  1  0
 92 90  1  0
M  ISO  4   3 100  16 100  52 101  53 101
M  END
>  <TORSDO>  (13) 
F 17

>  <SCORE>  (13) 
-9.489

>  <name>  (13) 
13

>  <ligand_id>  (13) 
13

>  <original_smiles>  (13) 
[H]N=C1C(=O)c2c([H])c(C(=O)N3C([H])([H])C([H])([H])C([H])([H])C([H])(n4nc(-c5c([H])c([H])c(Oc6c([H])c([H])c(F)c([H])c6F)c([H])c5[H])c(C(=O)N([H])[H])c4N([H])[H])C3([H])[H])c(C([H])([H])[H])c(C([H])([H])[H])c2C([H])([H])C1([H])C([H])([H])Oc1c([H])c([H])c2c(c1[H])C([H])([H])N(C(=O)C([H])(N([H])C(=O)C([H])(N([H])C([H])([H])[H])C([H])([H])[H])C(C([H])([H])[H])(C([H])([H])[H])C([H])([H])[H])C([H])(C(=O)N([H])C1([H])c3c([H])c([H])c([H])c([H])c3C([H])([H])C([H])([H])C1([H])[H])C2([H])[H]

>  <smiles>  (13) 
[H]N=C1C(=O)c2c([H])c(C(=O)N3C([H])([H])C([H])([H])C([H])([H])C([H])(n4nc(-c5c([H])c([H])c(Oc6c([H])c([H])c(F)c([H])c6F)c([H])c5[H])c(C(=O)N([H])[H])c4N([H])[H])C3([H])[H])c(C([H])([H])[H])c(C([H])([H])[H])c2C([H])([H])C1([H])C([H])([H])Oc1c([H])c([H])c2c(c1[H])C([H])([H])N(C(=O)C([H])(N([H])C(=O)C([H])(N([H])C([H])([H])[H])C([H])([H])[H])C(C([H])([H])[H])(C([H])([H])[H])C([H])([H])[H])C([H])(C(=O)N([H])C1([H])c3c([H])c([H])c([H])c([H])c3C([H])([H])C([H])([H])C1([H])[H])C2([H])[H]

$$$$
14:0:0
     RDKit          3D

 90 99  0  0  1  0  0  0  0  0999 V2000
  -29.0570  -23.4100   20.1140 C   0  0  0  0  0  3  0  0  0  0  0  0
  -27.3420  -21.7440   20.4840 C   0  0  0  0  0  3  0  0  0  0  0  0
  -26.8320  -24.1900   20.6130 C   0  0  0  0  0  3  0  0  0  0  0  0
  -28.7150  -21.9130   20.2110 C   0  0  0  0  0  0  0  0  0  0  0  0
  -28.1370  -24.6320   20.2870 C   0  0  0  0  0  0  0  0  0  0  0  0
  -26.4460  -22.8260   20.6740 C   0  0  0  0  0  0  0  0  0  0  0  0
  -25.1490  -22.5420   20.9390 F   0  0  0  0  0  0  0  0  0  0  0  0
  -30.7660  -15.4790   19.9050 C   0  0  0  0  0  0  0  0  0  0  0  0
  -30.6440  -13.0700   18.9790 C   0  0  0  0  0  2  0  0  0  0  0  0
  -29.6530  -12.8880   17.8020 C   0  0  0  0  0  2  0  0  0  0  0  0
  -28.2390  -12.5960   18.3320 C   0  0  0  0  0  2  0  0  0  0  0  0
  -27.8540  -13.5480   19.4920 C   0  0  0  0  0  3  0  0  0  0  0  0
  -28.9650  -13.6990   20.5530 C   0  0  0  0  0  2  0  0  0  0  0  0
  -30.1550  -14.1990   19.8490 N   0  0  0  0  0  0  0  0  0  0  0  0
  -31.9650  -15.4600   19.5910 O   0  0  0  0  0  0  0  0  0  0  0  0
  -29.6960  -19.3370   21.2660 C   0  0  0  0  0  2  0  0  0  0  0  0
  -29.1710  -19.2660   19.0220 C   0  0  0  0  0  2  0  0  0  0  0  0
  -30.4380  -17.8420   21.1200 C   0  0  0  0  0  2  0  0  0  0  0  0
  -29.9580  -17.7990   18.9120 C   0  0  0  0  0  2  0  0  0  0  0  0
  -29.6010  -20.4290   20.0630 C   0  0  0  0  0  3  0  0  0  0  0  0
  -30.0770  -16.7820   20.0590 N   0  0  0  0  0  0  0  0  0  0  0  0
  -25.5460  -14.0700   20.4410 C   0  0  0  0  0  0  0  0  0  0  0  0
  -24.5120  -13.2700   20.8430 C   0  0  0  0  0  0  0  0  0  0  0  0
  -24.9780  -11.9240   20.7210 C   0  0  0  0  0  0  0  0  0  0  0  0
  -26.5660  -13.2080   20.0820 N   0  0  0  0  0  0  0  0  0  0  0  0
  -26.2430  -11.9110   20.3210 N   0  0  0  0  0  0  0  0  0  0  0  0
  -24.2710  -10.6510   20.9110 C   0  0  0  0  0  0  0  0  0  0  0  0
  -24.7020   -9.7000   21.8610 C   0  0  0  0  0  3  0  0  0  0  0  0
  -23.9940   -8.4930   22.0370 C   0  0  0  0  0  3  0  0  0  0  0  0
  -22.8380   -8.2290   21.2640 C   0  0  0  0  0  0  0  0  0  0  0  0
  -22.4260   -9.1690   20.3010 C   0  0  0  0  0  3  0  0  0  0  0  0
  -23.1360  -10.3690   20.1240 C   0  0  0  0  0  3  0  0  0  0  0  0
  -22.0990   -7.0740   21.3500 O   0  0  0  0  0  0  0  0  0  0  0  0
  -21.9480   -6.4030   22.5360 C   0  0  0  0  0  0  0  0  0  0  0  0
  -21.3590   -7.0100   23.6660 C   0  0  0  0  0  3  0  0  0  0  0  0
  -21.1590   -6.2610   24.8420 C   0  0  0  0  0  3  0  0  0  0  0  0
  -21.5380   -4.9070   24.8890 C   0  0  0  0  0  0  0  0  0  0  0  0
  -22.1180   -4.2980   23.7630 C   0  0  0  0  0  3  0  0  0  0  0  0
  -22.3210   -5.0440   22.5890 C   0  0  0  0  0  0  0  0  0  0  0  0
  -22.8620   -4.4490   21.4980 F   0  0  0  0  0  0  0  0  0  0  0  0
  -21.3380   -4.1840   26.0170 F   0  0  0  0  0  0  0  0  0  0  0  0
  -23.1360  -13.7290   21.2290 C   0  0  0  0  0  0  0  0  0  0  0  0
  -22.4710  -12.9940   22.1130 N   0  0  0  0  0  0  0  0  0  0  0  0
  -22.6610  -14.7750   20.7840 O   0  0  0  0  0  0  0  0  0  0  0  0
  -22.8680  -12.1490   22.4950 H   0  0  0  0  0  0  0  0  0  0  0  0
  -21.5500  -13.2810   22.4130 H   0  0  0  0  0  0  0  0  0  0  0  0
  -25.7040  -15.4480   20.3280 N   0  0  0  0  0  0  0  0  0  0  0  0
  -24.9760  -16.1080   20.5820 H   0  0  0  0  0  0  0  0  0  0  0  0
  -26.5680  -15.8990   20.0550 H   0  0  0  0  0  0  0  0  0  0  0  0
  -28.3680  -26.1450   20.2190 O   0  0  0  0  0  0  0  0  0  0  0  0
  -24.7970  -31.9940   23.3360 C   0  0  0  0  0  0  0  0  0  0  0  0
  -27.3650  -27.2420   20.1900 C   0  0  0  0  0  0  0  0  0  0  0  0
  -23.6120  -30.6550   21.6430 C   0  0  0  0  0  3  0  0  0  0  0  0
  -25.0730  -29.1110   20.1730 C   0  0  0  0  0  0  0  0  0  0  0  0
  -26.1780  -30.8720   21.5270 C   0  0  0  0  0  2  0  0  0  0  0  0
  -26.2490  -29.4880   20.8330 C   0  0  0  0  0  0  0  0  0  0  0  0
  -27.3870  -28.5700   20.8310 C   0  0  0  0  0  3  0  0  0  0  0  0
  -26.1840  -27.0380   19.4420 C   0  0  0  0  0  3  0  0  0  0  0  0
  -25.0660  -27.9050   19.4530 C   0  0  0  0  0  3  0  0  0  0  0  0
  -23.8510  -30.0220   20.2440 C   0  0  0  0  0  2  0  0  0  0  0  0
  -24.8830  -31.1990   22.2220 N   0  0  0  0  0  0  0  0  0  0  0  0
  -23.7060  -32.2610   23.8630 O   0  0  0  0  0  0  0  0  0  0  0  0
  -22.9190  -29.6220   22.5690 C   0  0  0  0  0  0  0  0  0  0  0  0
  -21.5940  -29.4440   22.4160 N   0  0  0  0  0  0  0  0  0  0  0  0
  -23.5800  -28.9820   23.3900 O   0  0  0  0  0  0  0  0  0  0  0  0
  -21.1130  -30.0120   21.7330 H   0  0  0  0  0  0  0  0  0  0  0  0
  -18.2140  -28.1970   22.8500 C   0  0  0  0  0  0  0  0  0  0  0  0
  -20.7690  -28.4770   23.1500 C   0  0  0  0  0  3  0  0  0  0  0  0
  -20.8910  -27.0620   22.5380 C   0  0  0  0  0  2  0  0  0  0  0  0
  -19.8020  -26.7540   21.5050 C   0  0  0  0  0  2  0  0  0  0  0  0
  -18.4100  -26.8700   22.1350 C   0  0  0  0  0  2  0  0  0  0  0  0
  -19.3210  -28.9580   23.3130 C   0  0  0  0  0  0  0  0  0  0  0  0
  -19.0810  -30.1940   23.9490 C   0  0  0  0  0  3  0  0  0  0  0  0
  -17.7680  -30.6750   24.1200 C   0  0  0  0  0  3  0  0  0  0  0  0
  -16.6760  -29.9140   23.6690 C   0  0  0  0  0  3  0  0  0  0  0  0
  -16.9010  -28.6750   23.0420 C   0  0  0  0  0  3  0  0  0  0  0  0
  -26.0670  -32.6160   23.9940 C   0  0  0  0  0  3  0  0  0  0  0  0
  -25.7600  -34.0160   24.3270 N   0  0  0  0  0  0  0  0  0  0  0  0
  -26.0790  -35.0750   23.5690 C   0  0  0  0  0  0  0  0  0  0  0  0
  -26.7270  -34.9740   22.5230 O   0  0  0  0  0  0  0  0  0  0  0  0
  -25.1840  -34.1660   25.1420 H   0  0  0  0  0  0  0  0  0  0  0  0
  -24.3350  -36.8690   23.2820 C   0  0  0  0  0  1  0  0  0  0  0  0
  -25.6110  -36.4670   24.0400 C   0  0  0  0  0  3  0  0  0  0  0  0
  -27.7730  -37.3730   24.7810 C   0  0  0  0  0  1  0  0  0  0  0  0
  -26.6360  -37.5230   23.8750 N   0  0  0  0  0  0  0  0  0  0  0  0
  -26.2340  -38.4450   24.0220 H   0  0  0  0  0  0  0  0  0  0  0  0
  -26.5350  -31.8410   25.2870 C   0  0  1  0  0  0  0  0  0  0  0  0
  -25.4070  -31.6140   26.3210 C   0  0  0  0  0  1  0  0  0  0  0  0
  -27.1170  -30.4570   24.9260 C   0  0  0  0  0  1  0  0  0  0  0  0
  -27.6720  -32.6260   25.9840 C   0  0  0  0  0  1  0  0  0  0  0  0
  1  4  2  0
  1  5  1  0
  2  6  2  0
  3  6  1  0
  4  2  1  0
  5  3  2  0
  6  7  1  0
  8 21  1  0
  9 14  1  0
 10 11  1  0
 10  9  1  0
 12 11  1  0
 12 25  1  0
 12 13  1  0
 14  8  1  0
 14 13  1  0
 15  8  2  0
 17 20  1  0
 18 16  1  0
 19 17  1  0
 19 21  1  0
 20  4  1  0
 20 16  1  0
 21 18  1  0
 22 23  2  0
 23 42  1  0
 24 23  1  0
 24 27  1  0
 25 26  1  0
 25 22  1  0
 26 24  2  0
 27 28  1  0
 28 29  2  0
 30 33  1  0
 30 29  1  0
 31 30  2  0
 32 31  1  0
 32 27  2  0
 33 34  1  0
 34 39  2  0
 34 35  1  0
 35 36  2  0
 36 37  1  0
 37 41  1  0
 38 37  2  0
 39 38  1  0
 40 39  1  0
 42 43  1  0
 43 46  1  0
 43 45  1  0
 44 42  2  0
 47 22  1  0
 47 48  1  0
 49 47  1  0
 50  5  1  0
 51 62  2  0
 52 50  1  0
 52 57  1  0
 53 61  1  0
 53 63  1  0
 54 60  1  0
 54 56  1  0
 55 61  1  0
 56 55  1  0
 57 56  2  0
 58 59  1  0
 58 52  2  0
 59 54  2  0
 60 53  1  0
 61 51  1  0
 63 65  2  0
 64 63  1  0
 66 64  1  0
 67 76  2  0
 67 72  1  0
 68 64  1  0
 68 72  1  0
 69 68  1  0
 70 71  1  0
 70 69  1  0
 71 67  1  0
 72 73  2  0
 73 74  1  0
 75 74  2  0
 76 75  1  0
 77 51  1  0
 77 78  1  0
 77 87  1  0
 78 81  1  0
 79 83  1  0
 79 78  1  0
 80 79  2  0
 83 82  1  0
 85 86  1  0
 85 83  1  0
 85 84  1  0
 87 90  1  1
 87 88  1  0
 89 87  1  0
M  ISO  4   5 101   8 100  21 100  50 101
M  END
>  <TORSDO>  (14) 
F 16

>  <SCORE>  (14) 
-14.731

>  <name>  (14) 
14

>  <ligand_id>  (14) 
14

>  <original_smiles>  (14) 
[H]c1c([H])c([H])c2c(c1[H])C([H])([H])C([H])([H])C([H])([H])C2([H])N([H])C(=O)C1([H])N(C(=O)C([H])(N([H])C(=O)C([H])(N([H])C([H])([H])[H])C([H])([H])[H])C(C([H])([H])[H])(C([H])([H])[H])C([H])([H])[H])C([H])([H])c2c([H])c(Oc3c([H])c(F)c([H])c(C4([H])C([H])([H])C([H])([H])N(C(=O)N5C([H])([H])C([H])([H])C([H])([H])C([H])(n6nc(-c7c([H])c([H])c(Oc8c([H])c([H])c(F)c([H])c8F)c([H])c7[H])c(C(=O)N([H])[H])c6N([H])[H])C5([H])[H])C([H])([H])C4([H])[H])c3[H])c([H])c([H])c2C1([H])[H]

>  <smiles>  (14) 
[H]c1c([H])c([H])c2c(c1[H])C([H])([H])C([H])([H])C([H])([H])C2([H])N([H])C(=O)C1([H])N(C(=O)C([H])(N([H])C(=O)C([H])(N([H])C([H])([H])[H])C([H])([H])[H])C(C([H])([H])[H])(C([H])([H])[H])C([H])([H])[H])C([H])([H])c2c([H])c(Oc3c([H])c(F)c([H])c(C4([H])C([H])([H])C([H])([H])N(C(=O)N5C([H])([H])C([H])([H])C([H])([H])C([H])(n6nc(-c7c([H])c([H])c(Oc8c([H])c([H])c(F)c([H])c8F)c([H])c7[H])c(C(=O)N([H])[H])c6N([H])[H])C5([H])[H])C([H])([H])C4([H])[H])c3[H])c([H])c([H])c2C1([H])[H]

$$$$
15:0:0
     RDKit          3D

 94103  0  0  1  0  0  0  0  0999 V2000
  -30.8950  -24.1420   19.5010 C   0  0  0  0  0  0  0  0  0  0  0  0
  -29.8750  -25.0840   18.8680 C   0  0  0  0  0  2  0  0  0  0  0  0
  -30.4850  -22.6740   19.6550 C   0  0  0  0  0  2  0  0  0  0  0  0
  -28.2510  -23.7090   20.3580 C   0  0  0  0  0  2  0  0  0  0  0  0
  -28.4780  -25.0920   19.5450 C   0  0  0  0  0  3  0  0  0  0  0  0
  -28.9580  -22.3750   19.7540 C   0  0  1  0  0  0  0  0  0  0  0  0
  -28.3730  -22.1150   18.3460 C   0  0  0  0  0  1  0  0  0  0  0  0
  -32.0350  -24.5490   19.8770 N   0  0  0  0  0  0  0  0  0  0  0  0
  -32.1580  -25.5430   19.7140 H   0  0  0  0  0  0  0  0  0  0  0  0
  -28.3500  -26.4360   20.1960 O   0  0  0  0  0  0  0  0  0  0  0  0
  -24.6400  -31.8660   23.2060 C   0  0  0  0  0  0  0  0  0  0  0  0
  -27.2160  -27.2730   20.1270 C   0  0  0  0  0  0  0  0  0  0  0  0
  -23.4200  -30.4690   21.5780 C   0  0  0  0  0  3  0  0  0  0  0  0
  -24.8550  -28.9090   20.1380 C   0  0  0  0  0  0  0  0  0  0  0  0
  -25.9610  -30.7740   21.3750 C   0  0  0  0  0  2  0  0  0  0  0  0
  -26.0310  -29.3930   20.7260 C   0  0  0  0  0  0  0  0  0  0  0  0
  -27.2090  -28.5840   20.7110 C   0  0  0  0  0  3  0  0  0  0  0  0
  -26.0090  -26.8440   19.5280 C   0  0  0  0  0  3  0  0  0  0  0  0
  -24.8490  -27.6430   19.5330 C   0  0  0  0  0  3  0  0  0  0  0  0
  -23.6210  -29.7870   20.1980 C   0  0  0  0  0  2  0  0  0  0  0  0
  -24.6940  -31.0560   22.1090 N   0  0  0  0  0  0  0  0  0  0  0  0
  -23.5620  -32.1480   23.7480 O   0  0  0  0  0  0  0  0  0  0  0  0
  -22.7610  -29.4570   22.5460 C   0  0  0  0  0  0  0  0  0  0  0  0
  -21.4330  -29.2870   22.4340 N   0  0  0  0  0  0  0  0  0  0  0  0
  -23.4460  -28.8270   23.3570 O   0  0  0  0  0  0  0  0  0  0  0  0
  -20.9410  -29.8440   21.7510 H   0  0  0  0  0  0  0  0  0  0  0  0
  -18.0580  -28.0970   22.9630 C   0  0  0  0  0  0  0  0  0  0  0  0
  -20.6190  -28.3530   23.2130 C   0  0  0  0  0  3  0  0  0  0  0  0
  -20.7140  -26.9200   22.6400 C   0  0  0  0  0  2  0  0  0  0  0  0
  -19.6050  -26.5980   21.6340 C   0  0  0  0  0  2  0  0  0  0  0  0
  -18.2270  -26.7470   22.2870 C   0  0  0  0  0  2  0  0  0  0  0  0
  -19.1810  -28.8580   23.3830 C   0  0  0  0  0  0  0  0  0  0  0  0
  -18.9680  -30.1220   23.9730 C   0  0  0  0  0  3  0  0  0  0  0  0
  -17.6660  -30.6270   24.1470 C   0  0  0  0  0  3  0  0  0  0  0  0
  -16.5570  -29.8620   23.7430 C   0  0  0  0  0  3  0  0  0  0  0  0
  -16.7540  -28.6000   23.1560 C   0  0  0  0  0  3  0  0  0  0  0  0
  -25.9280  -32.4990   23.8170 C   0  0  0  0  0  3  0  0  0  0  0  0
  -25.6160  -33.8930   24.1670 N   0  0  0  0  0  0  0  0  0  0  0  0
  -25.9290  -34.9550   23.4120 C   0  0  0  0  0  0  0  0  0  0  0  0
  -26.5790  -34.8640   22.3690 O   0  0  0  0  0  0  0  0  0  0  0  0
  -25.0330  -34.0370   24.9770 H   0  0  0  0  0  0  0  0  0  0  0  0
  -24.1820  -36.7420   23.1190 C   0  0  0  0  0  1  0  0  0  0  0  0
  -25.4460  -36.3370   23.8940 C   0  0  0  0  0  3  0  0  0  0  0  0
  -27.5980  -37.2290   24.6740 C   0  0  0  0  0  1  0  0  0  0  0  0
  -26.4700  -37.3980   23.7620 N   0  0  0  0  0  0  0  0  0  0  0  0
  -26.0630  -38.3140   23.9260 H   0  0  0  0  0  0  0  0  0  0  0  0
  -26.4600  -31.7180   25.0810 C   0  0  1  0  0  0  0  0  0  0  0  0
  -25.3830  -31.4730   26.1630 C   0  0  0  0  0  1  0  0  0  0  0  0
  -27.0380  -30.3420   24.6740 C   0  0  0  0  0  1  0  0  0  0  0  0
  -27.6200  -32.5070   25.7340 C   0  0  0  0  0  1  0  0  0  0  0  0
  -28.7580  -20.9850   20.5800 C   0  0  0  0  0  2  0  0  0  0  0  0
  -29.9390  -17.0660   20.5170 C   0  0  0  0  0  0  0  0  0  0  0  0
  -31.1720  -17.8760   20.1390 C   0  0  0  0  0  0  0  0  0  0  0  0
  -28.8770  -18.1990   20.7350 C   0  0  0  0  0  2  0  0  0  0  0  0
  -30.8800  -19.3890   20.1210 C   0  0  0  0  0  2  0  0  0  0  0  0
  -29.3500  -19.5610   20.0630 C   0  0  0  0  0  3  0  0  0  0  0  0
  -29.6710  -15.7810   20.6750 N   0  0  0  0  0  0  0  0  0  0  0  0
  -32.3070  -17.4420   19.9170 O   0  0  0  0  0  0  0  0  0  0  0  0
  -30.5480  -14.6870   20.3800 C   0  0  0  0  0  0  0  0  0  0  0  0
  -30.3660  -12.4140   19.3700 C   0  0  0  0  0  2  0  0  0  0  0  0
  -29.4260  -12.5160   18.1470 C   0  0  0  0  0  2  0  0  0  0  0  0
  -27.9560  -12.3430   18.5710 C   0  0  0  0  0  2  0  0  0  0  0  0
  -27.5860  -13.2330   19.7880 C   0  0  0  0  0  3  0  0  0  0  0  0
  -28.6380  -13.1100   20.9090 C   0  0  0  0  0  2  0  0  0  0  0  0
  -29.9500  -13.4490   20.3410 N   0  0  0  0  0  0  0  0  0  0  0  0
  -31.7220  -14.7740   20.0180 O   0  0  0  0  0  0  0  0  0  0  0  0
  -25.1980  -13.8410   20.5060 C   0  0  0  0  0  0  0  0  0  0  0  0
  -24.1290  -13.0730   20.8800 C   0  0  0  0  0  0  0  0  0  0  0  0
  -24.5900  -11.7210   20.8600 C   0  0  0  0  0  0  0  0  0  0  0  0
  -26.2400  -12.9570   20.2760 N   0  0  0  0  0  0  0  0  0  0  0  0
  -25.8790  -11.6770   20.5510 N   0  0  0  0  0  0  0  0  0  0  0  0
  -23.8620  -10.4600   21.0560 C   0  0  0  0  0  0  0  0  0  0  0  0
  -24.3050   -9.4870   21.9780 C   0  0  0  0  0  3  0  0  0  0  0  0
  -23.5770   -8.2920   22.1650 C   0  0  0  0  0  3  0  0  0  0  0  0
  -22.3930   -8.0600   21.4270 C   0  0  0  0  0  0  0  0  0  0  0  0
  -21.9690   -9.0210   20.4920 C   0  0  0  0  0  3  0  0  0  0  0  0
  -22.6980  -10.2080   20.3050 C   0  0  0  0  0  3  0  0  0  0  0  0
  -21.6360   -6.9170   21.5210 O   0  0  0  0  0  0  0  0  0  0  0  0
  -21.6160   -6.1610   22.6660 C   0  0  0  0  0  0  0  0  0  0  0  0
  -21.2470   -6.7060   23.9160 C   0  0  0  0  0  3  0  0  0  0  0  0
  -21.1730   -5.8750   25.0510 C   0  0  0  0  0  3  0  0  0  0  0  0
  -21.4590   -4.5010   24.9400 C   0  0  0  0  0  0  0  0  0  0  0  0
  -21.8220   -3.9560   23.6960 C   0  0  0  0  0  3  0  0  0  0  0  0
  -21.8980   -4.7840   22.5610 C   0  0  0  0  0  0  0  0  0  0  0  0
  -22.2250   -4.2470   21.3620 F   0  0  0  0  0  0  0  0  0  0  0  0
  -21.3800   -3.7010   26.0300 F   0  0  0  0  0  0  0  0  0  0  0  0
  -22.7320  -13.5530   21.1490 C   0  0  0  0  0  0  0  0  0  0  0  0
  -22.0050  -12.8620   22.0180 N   0  0  0  0  0  0  0  0  0  0  0  0
  -22.2960  -14.5770   20.6210 O   0  0  0  0  0  0  0  0  0  0  0  0
  -22.3710  -12.0320   22.4620 H   0  0  0  0  0  0  0  0  0  0  0  0
  -21.0670  -13.1630   22.2440 H   0  0  0  0  0  0  0  0  0  0  0  0
  -25.3740  -15.2090   20.3210 N   0  0  0  0  0  0  0  0  0  0  0  0
  -24.6270  -15.8870   20.4310 H   0  0  0  0  0  0  0  0  0  0  0  0
  -26.2550  -15.6240   20.0440 H   0  0  0  0  0  0  0  0  0  0  0  0
  1  3  1  0
  1  8  2  0
  2  1  1  0
  2  5  1  0
  3  6  1  0
  5 10  1  0
  5  4  1  0
  6  7  1  6
  6  4  1  0
  6 51  1  0
  9  8  1  0
 11 22  2  0
 12 10  1  0
 12 17  1  0
 13 21  1  0
 13 23  1  0
 14 20  1  0
 14 16  1  0
 15 21  1  0
 16 15  1  0
 17 16  2  0
 18 19  1  0
 18 12  2  0
 19 14  2  0
 20 13  1  0
 21 11  1  0
 23 25  2  0
 24 23  1  0
 26 24  1  0
 27 36  2  0
 27 32  1  0
 28 24  1  0
 28 32  1  0
 29 28  1  0
 30 31  1  0
 30 29  1  0
 31 27  1  0
 32 33  2  0
 33 34  1  0
 35 34  2  0
 36 35  1  0
 37 11  1  0
 37 38  1  0
 37 47  1  0
 38 41  1  0
 39 43  1  0
 39 38  1  0
 40 39  2  0
 43 42  1  0
 45 43  1  0
 45 46  1  0
 45 44  1  0
 47 50  1  1
 47 48  1  0
 49 47  1  0
 52 57  2  0
 52 54  1  0
 53 52  1  0
 55 53  1  0
 56 55  1  0
 56 51  1  0
 56 54  1  0
 58 53  2  0
 59 57  1  0
 60 65  1  0
 61 62  1  0
 61 60  1  0
 63 62  1  0
 63 70  1  0
 63 64  1  0
 65 59  1  0
 65 64  1  0
 66 59  2  0
 67 68  2  0
 68 87  1  0
 69 68  1  0
 69 72  1  0
 70 67  1  0
 70 71  1  0
 71 69  2  0
 72 73  1  0
 73 74  2  0
 75 78  1  0
 75 74  1  0
 76 75  2  0
 77 76  1  0
 77 72  2  0
 78 79  1  0
 79 80  1  0
 80 81  2  0
 82 81  1  0
 82 86  1  0
 83 82  2  0
 84 79  2  0
 84 83  1  0
 85 84  1  0
 87 88  1  0
 88 91  1  0
 88 90  1  0
 89 87  2  0
 92 93  1  0
 92 67  1  0
 94 92  1  0
M  ISO  4   5 101  10 101  57 100  59 100
M  END
>  <TORSDO>  (15) 
F 18

>  <SCORE>  (15) 
-14.797

>  <name>  (15) 
15

>  <ligand_id>  (15) 
15

>  <original_smiles>  (15) 
[H]N=C1C([H])([H])C([H])(Oc2c([H])c([H])c3c(c2[H])C([H])([H])N(C(=O)C([H])(N([H])C(=O)C([H])(N([H])C([H])([H])[H])C([H])([H])[H])C(C([H])([H])[H])(C([H])([H])[H])C([H])([H])[H])C([H])(C(=O)N([H])C2([H])c4c([H])c([H])c([H])c([H])c4C([H])([H])C([H])([H])C2([H])[H])C3([H])[H])C([H])([H])C(C([H])([H])[H])(C([H])([H])C2([H])C([H])([H])C(=O)C(=NC(=O)N3C([H])([H])C([H])([H])C([H])([H])C([H])(n4nc(-c5c([H])c([H])c(Oc6c([H])c([H])c(F)c([H])c6F)c([H])c5[H])c(C(=O)N([H])[H])c4N([H])[H])C3([H])[H])C2([H])[H])C1([H])[H]

>  <smiles>  (15) 
[H]N=C1C([H])([H])C([H])(Oc2c([H])c([H])c3c(c2[H])C([H])([H])N(C(=O)C([H])(N([H])C(=O)C([H])(N([H])C([H])([H])[H])C([H])([H])[H])C(C([H])([H])[H])(C([H])([H])[H])C([H])([H])[H])C([H])(C(=O)N([H])C2([H])c4c([H])c([H])c([H])c([H])c4C([H])([H])C([H])([H])C2([H])[H])C3([H])[H])C([H])([H])C(C([H])([H])[H])(C([H])([H])C2([H])C([H])([H])C(=O)C(=NC(=O)N3C([H])([H])C([H])([H])C([H])([H])C([H])(n4nc(-c5c([H])c([H])c(Oc6c([H])c([H])c(F)c([H])c6F)c([H])c5[H])c(C(=O)N([H])[H])c4N([H])[H])C3([H])[H])C2([H])[H])C1([H])[H]

$$$$
16:0:0
     RDKit          3D

 98108  0  0  1  0  0  0  0  0999 V2000
  -31.1960  -21.6070   20.2320 C   0  0  0  0  0  3  0  0  0  0  0  0
  -30.5150  -20.8680   17.9980 C   0  0  0  0  0  3  0  0  0  0  0  0
  -30.4170  -23.2230   18.5620 C   0  0  0  0  0  0  0  0  0  0  0  0
  -30.8980  -22.9220   19.8450 C   0  0  0  0  0  0  0  0  0  0  0  0
  -31.0070  -20.5770   19.2920 C   0  0  0  0  0  0  0  0  0  0  0  0
  -30.2140  -22.1940   17.6100 C   0  0  0  0  0  0  0  0  0  0  0  0
  -30.2190  -24.6750   18.5150 C   0  0  0  0  0  0  0  0  0  0  0  0
  -30.5530  -25.1930   19.7080 C   0  0  0  0  0  0  0  0  0  0  0  0
  -29.6170  -25.4810   17.3730 C   0  0  0  0  0  2  0  0  0  0  0  0
  -30.3760  -26.6540   20.0720 C   0  0  0  0  0  2  0  0  0  0  0  0
  -29.6110  -26.9950   17.6760 C   0  0  0  0  0  2  0  0  0  0  0  0
  -29.3190  -27.2890   19.1590 C   0  0  0  0  0  3  0  0  0  0  0  0
  -31.0450  -24.1610   20.7050 C   0  0  1  0  0  0  0  0  0  0  0  0
  -30.1310  -24.0780   21.9420 C   0  0  0  0  0  1  0  0  0  0  0  0
  -32.5080  -24.4160   21.1000 C   0  0  0  0  0  1  0  0  0  0  0  0
  -30.8690  -22.7510   15.2240 C   0  0  0  0  0  1  0  0  0  0  0  0
  -29.7200  -22.4410   16.1930 C   0  0  0  0  0  2  0  0  0  0  0  0
  -28.0850  -26.6490   19.4910 O   0  0  0  0  0  0  0  0  0  0  0  0
  -24.4490  -31.6410   23.0360 C   0  0  0  0  0  0  0  0  0  0  0  0
  -26.9460  -27.3990   19.6290 C   0  0  0  0  0  0  0  0  0  0  0  0
  -23.1500  -30.2980   21.4100 C   0  0  0  0  0  3  0  0  0  0  0  0
  -24.5270  -28.8290   19.8440 C   0  0  0  0  0  0  0  0  0  0  0  0
  -25.6490  -30.6960   21.0780 C   0  0  0  0  0  2  0  0  0  0  0  0
  -25.7040  -29.3540   20.3880 C   0  0  0  0  0  0  0  0  0  0  0  0
  -26.9120  -28.6420   20.2960 C   0  0  0  0  0  3  0  0  0  0  0  0
  -25.7520  -26.8640   19.1070 C   0  0  0  0  0  3  0  0  0  0  0  0
  -24.5400  -27.5750   19.2060 C   0  0  0  0  0  3  0  0  0  0  0  0
  -23.2800  -29.6680   19.9940 C   0  0  0  0  0  2  0  0  0  0  0  0
  -24.4370  -30.8900   21.9000 N   0  0  0  0  0  0  0  0  0  0  0  0
  -23.4020  -31.8830   23.6520 O   0  0  0  0  0  0  0  0  0  0  0  0
  -22.5640  -29.2350   22.3650 C   0  0  0  0  0  0  0  0  0  0  0  0
  -21.2440  -29.0100   22.2670 N   0  0  0  0  0  0  0  0  0  0  0  0
  -23.2910  -28.6160   23.1470 O   0  0  0  0  0  0  0  0  0  0  0  0
  -20.7190  -29.5630   21.6040 H   0  0  0  0  0  0  0  0  0  0  0  0
  -17.9420  -27.6370   22.7520 C   0  0  0  0  0  0  0  0  0  0  0  0
  -20.4790  -28.0320   23.0370 C   0  0  0  0  0  3  0  0  0  0  0  0
  -20.6620  -26.6080   22.4650 C   0  0  0  0  0  2  0  0  0  0  0  0
  -19.5840  -26.2240   21.4470 C   0  0  0  0  0  2  0  0  0  0  0  0
  -18.1940  -26.2980   22.0840 C   0  0  0  0  0  2  0  0  0  0  0  0
  -19.0160  -28.4600   23.1860 C   0  0  0  0  0  0  0  0  0  0  0  0
  -18.7270  -29.7130   23.7700 C   0  0  0  0  0  3  0  0  0  0  0  0
  -17.3960  -30.1460   23.9250 C   0  0  0  0  0  3  0  0  0  0  0  0
  -16.3380  -29.3210   23.5090 C   0  0  0  0  0  3  0  0  0  0  0  0
  -16.6100  -28.0690   22.9290 C   0  0  0  0  0  3  0  0  0  0  0  0
  -25.7710  -32.2500   23.6040 C   0  0  0  0  0  3  0  0  0  0  0  0
  -25.4760  -33.6240   24.0280 N   0  0  0  0  0  0  0  0  0  0  0  0
  -25.7950  -34.7200   23.3260 C   0  0  0  0  0  0  0  0  0  0  0  0
  -26.4410  -34.6790   22.2750 O   0  0  0  0  0  0  0  0  0  0  0  0
  -24.8980  -33.7300   24.8480 H   0  0  0  0  0  0  0  0  0  0  0  0
  -24.0600  -36.5280   23.1230 C   0  0  0  0  0  1  0  0  0  0  0  0
  -25.3210  -36.0770   23.8770 C   0  0  0  0  0  3  0  0  0  0  0  0
  -27.4760  -36.9120   24.7080 C   0  0  0  0  0  1  0  0  0  0  0  0
  -26.3510  -37.1370   23.8030 N   0  0  0  0  0  0  0  0  0  0  0  0
  -25.9490  -38.0450   24.0170 H   0  0  0  0  0  0  0  0  0  0  0  0
  -26.3810  -31.4140   24.7950 C   0  0  1  0  0  0  0  0  0  0  0  0
  -25.3670  -31.0990   25.9200 C   0  0  0  0  0  1  0  0  0  0  0  0
  -26.9510  -30.0700   24.2830 C   0  0  0  0  0  1  0  0  0  0  0  0
  -27.5680  -32.1840   25.4230 C   0  0  0  0  0  1  0  0  0  0  0  0
  -31.4280  -19.1680   19.6390 C   0  0  0  0  0  2  0  0  0  0  0  0
  -30.3920  -18.3370   20.4230 C   0  0  0  0  0  2  0  0  0  0  0  0
  -30.9550  -16.9160   20.5250 C   0  0  0  0  0  2  0  0  0  0  0  0
  -30.0840  -15.7630   21.0950 C   0  0  0  0  0  2  0  0  0  0  0  0
  -30.7280  -14.4200   20.6910 C   0  0  0  0  0  0  0  0  0  0  0  0
  -30.3550  -12.2810   19.5620 C   0  0  0  0  0  2  0  0  0  0  0  0
  -29.4570  -12.5320   18.3350 C   0  0  0  0  0  2  0  0  0  0  0  0
  -27.9740  -12.4160   18.7320 C   0  0  0  0  0  2  0  0  0  0  0  0
  -27.6190  -13.2550   19.9890 C   0  0  0  0  0  3  0  0  0  0  0  0
  -28.6540  -13.0630   21.1220 C   0  0  0  0  0  2  0  0  0  0  0  0
  -29.9950  -13.2850   20.5740 N   0  0  0  0  0  0  0  0  0  0  0  0
  -31.8990  -14.4610   20.3080 O   0  0  0  0  0  0  0  0  0  0  0  0
  -25.2150  -13.8620   20.6730 C   0  0  0  0  0  0  0  0  0  0  0  0
  -24.1380  -13.0890   21.0130 C   0  0  0  0  0  0  0  0  0  0  0  0
  -24.5940  -11.7360   20.9760 C   0  0  0  0  0  0  0  0  0  0  0  0
  -26.2600  -12.9790   20.4480 N   0  0  0  0  0  0  0  0  0  0  0  0
  -25.8900  -11.6950   20.6900 N   0  0  0  0  0  0  0  0  0  0  0  0
  -23.8600  -10.4740   21.1390 C   0  0  0  0  0  0  0  0  0  0  0  0
  -24.3100   -9.4650   22.0170 C   0  0  0  0  0  3  0  0  0  0  0  0
  -23.5770   -8.2690   22.1700 C   0  0  0  0  0  3  0  0  0  0  0  0
  -22.3780   -8.0740   21.4440 C   0  0  0  0  0  0  0  0  0  0  0  0
  -21.9460   -9.0720   20.5530 C   0  0  0  0  0  3  0  0  0  0  0  0
  -22.6810  -10.2590   20.3980 C   0  0  0  0  0  3  0  0  0  0  0  0
  -21.6130   -6.9330   21.5090 O   0  0  0  0  0  0  0  0  0  0  0  0
  -21.6400   -6.1110   22.6070 C   0  0  0  0  0  0  0  0  0  0  0  0
  -21.3020   -6.5780   23.8950 C   0  0  0  0  0  3  0  0  0  0  0  0
  -21.2750   -5.6820   24.9830 C   0  0  0  0  0  3  0  0  0  0  0  0
  -21.5750   -4.3220   24.7840 C   0  0  0  0  0  0  0  0  0  0  0  0
  -21.9050   -3.8540   23.5000 C   0  0  0  0  0  3  0  0  0  0  0  0
  -21.9340   -4.7460   22.4140 C   0  0  0  0  0  0  0  0  0  0  0  0
  -22.2320   -4.2860   21.1750 F   0  0  0  0  0  0  0  0  0  0  0  0
  -21.5410   -3.4600   25.8280 F   0  0  0  0  0  0  0  0  0  0  0  0
  -22.7370  -13.5690   21.2670 C   0  0  0  0  0  0  0  0  0  0  0  0
  -21.9960  -12.8710   22.1190 N   0  0  0  0  0  0  0  0  0  0  0  0
  -22.3110  -14.5980   20.7450 O   0  0  0  0  0  0  0  0  0  0  0  0
  -22.3530  -12.0380   22.5620 H   0  0  0  0  0  0  0  0  0  0  0  0
  -21.0560  -13.1740   22.3310 H   0  0  0  0  0  0  0  0  0  0  0  0
  -25.3900  -15.2330   20.5150 N   0  0  0  0  0  0  0  0  0  0  0  0
  -24.6280  -15.8940   20.6230 H   0  0  0  0  0  0  0  0  0  0  0  0
  -26.2550  -15.6710   20.2240 H   0  0  0  0  0  0  0  0  0  0  0  0
  2  5  1  0
  3  4  2  0
  4  1  1  0
  4 13  1  0
  5 59  1  0
  5  1  2  0
  6  2  2  0
  6  3  1  0
  7  3  1  0
  7  8  2  0
  8 10  1  0
  8 13  1  0
  9 11  1  0
  9  7  1  0
 11 12  1  0
 12 18  1  0
 12 10  1  0
 13 15  1  1
 13 14  1  0
 16 17  1  0
 17  6  1  0
 18 20  1  0
 19 30  2  0
 20 25  1  0
 21 29  1  0
 21 31  1  0
 22 28  1  0
 22 24  1  0
 23 29  1  0
 24 23  1  0
 25 24  2  0
 26 27  1  0
 26 20  2  0
 27 22  2  0
 28 21  1  0
 29 19  1  0
 31 33  2  0
 32 31  1  0
 34 32  1  0
 35 44  2  0
 35 40  1  0
 36 32  1  0
 36 40  1  0
 37 36  1  0
 38 39  1  0
 38 37  1  0
 39 35  1  0
 40 41  2  0
 41 42  1  0
 43 42  2  0
 44 43  1  0
 45 19  1  0
 45 46  1  0
 45 55  1  0
 46 49  1  0
 47 51  1  0
 47 46  1  0
 48 47  2  0
 51 50  1  0
 53 51  1  0
 53 54  1  0
 53 52  1  0
 55 58  1  1
 55 56  1  0
 57 55  1  0
 59 60  1  0
 60 61  1  0
 61 62  1  0
 63 62  1  0
 64 69  1  0
 65 66  1  0
 65 64  1  0
 67 66  1  0
 67 74  1  0
 67 68  1  0
 69 63  1  0
 69 68  1  0
 70 63  2  0
 71 72  2  0
 72 91  1  0
 73 72  1  0
 73 76  1  0
 74 71  1  0
 74 75  1  0
 75 73  2  0
 76 77  1  0
 77 78  2  0
 79 82  1  0
 79 78  1  0
 80 79  2  0
 81 80  1  0
 81 76  2  0
 82 83  1  0
 83 84  1  0
 84 85  2  0
 86 85  1  0
 86 90  1  0
 87 86  2  0
 88 83  2  0
 88 87  1  0
 89 88  1  0
 91 92  1  0
 92 95  1  0
 92 94  1  0
 93 91  2  0
 96 97  1  0
 96 71  1  0
 98 96  1  0
M  ISO  4  12 101  18 101  62 100  63 100
M  END
>  <TORSDO>  (16) 
F 21

>  <SCORE>  (16) 
-12.200

>  <name>  (16) 
16

>  <ligand_id>  (16) 
16

>  <original_smiles>  (16) 
[H]c1c([H])c([H])c2c(c1[H])C([H])([H])C([H])([H])C([H])([H])C2([H])N([H])C(=O)C1([H])N(C(=O)C([H])(N([H])C(=O)C([H])(N([H])C([H])([H])[H])C([H])([H])[H])C(C([H])([H])[H])(C([H])([H])[H])C([H])([H])[H])C([H])([H])c2c([H])c(OC3([H])C([H])([H])C4=C(c5c(C([H])([H])C([H])([H])[H])c([H])c(C([H])([H])C([H])([H])C([H])([H])C([H])([H])C(=O)N6C([H])([H])C([H])([H])C([H])([H])C([H])(n7nc(-c8c([H])c([H])c(Oc9c([H])c([H])c(F)c([H])c9F)c([H])c8[H])c(C(=O)N([H])[H])c7N([H])[H])C6([H])[H])c([H])c5C4(C([H])([H])[H])C([H])([H])[H])C([H])([H])C3([H])[H])c([H])c([H])c2C1([H])[H]

>  <smiles>  (16) 
[H]c1c([H])c([H])c2c(c1[H])C([H])([H])C([H])([H])C([H])([H])C2([H])N([H])C(=O)C1([H])N(C(=O)C([H])(N([H])C(=O)C([H])(N([H])C([H])([H])[H])C([H])([H])[H])C(C([H])([H])[H])(C([H])([H])[H])C([H])([H])[H])C([H])([H])c2c([H])c(OC3([H])C([H])([H])C4=C(c5c(C([H])([H])C([H])([H])[H])c([H])c(C([H])([H])C([H])([H])C([H])([H])C([H])([H])C(=O)N6C([H])([H])C([H])([H])C([H])([H])C([H])(n7nc(-c8c([H])c([H])c(Oc9c([H])c([H])c(F)c([H])c9F)c([H])c8[H])c(C(=O)N([H])[H])c7N([H])[H])C6([H])[H])c([H])c5C4(C([H])([H])[H])C([H])([H])[H])C([H])([H])C3([H])[H])c([H])c([H])c2C1([H])[H]

$$$$
17:0:0
     RDKit          3D

 92101  0  0  1  0  0  0  0  0999 V2000
  -28.1190  -22.4910   21.9290 C   0  0  0  0  0  2  0  0  0  0  0  0
  -29.1260  -21.2880   21.6320 C   0  0  0  0  0  2  0  0  0  0  0  0
  -29.3360  -22.0740   19.2840 C   0  0  0  0  0  2  0  0  0  0  0  0
  -28.4720  -24.0470   21.7840 C   0  0  0  0  0  2  0  0  0  0  0  0
  -28.4810  -23.5070   19.2840 C   0  0  0  0  0  2  0  0  0  0  0  0
  -29.0510  -20.7060   20.1830 C   0  0  0  0  0  3  0  0  0  0  0  0
  -28.6940  -24.7010   20.3710 C   0  0  0  0  0  3  0  0  0  0  0  0
  -29.9520  -17.8830   20.5100 C   0  0  0  0  0  3  0  0  0  0  0  0
  -30.0950  -19.1190   18.4400 C   0  0  0  0  0  3  0  0  0  0  0  0
  -30.5140  -16.6030   19.9120 C   0  0  0  0  0  0  0  0  0  0  0  0
  -29.7350  -19.2030   19.7950 C   0  0  0  0  0  0  0  0  0  0  0  0
  -30.6730  -17.9920   17.8370 C   0  0  0  0  0  0  0  0  0  0  0  0
  -30.9300  -16.7890   18.5470 C   0  0  0  0  0  0  0  0  0  0  0  0
  -31.0620  -18.1290   16.3670 C   0  0  0  0  0  1  0  0  0  0  0  0
  -31.7660  -15.7660   17.7700 C   0  0  0  0  0  1  0  0  0  0  0  0
  -30.9900  -15.1940   20.6040 C   0  0  0  0  0  0  0  0  0  0  0  0
  -30.8560  -12.7740   19.7980 C   0  0  0  0  0  2  0  0  0  0  0  0
  -29.9960  -12.5810   18.5270 C   0  0  0  0  0  2  0  0  0  0  0  0
  -28.5040  -12.4570   18.8680 C   0  0  0  0  0  2  0  0  0  0  0  0
  -28.0390  -13.4740   19.9380 C   0  0  0  0  0  3  0  0  0  0  0  0
  -29.0260  -13.5900   21.1110 C   0  0  0  0  0  2  0  0  0  0  0  0
  -30.3260  -13.9600   20.5350 N   0  0  0  0  0  0  0  0  0  0  0  0
  -32.2150  -15.1020   20.7390 O   0  0  0  0  0  0  0  0  0  0  0  0
  -25.6370  -14.1190   20.5260 C   0  0  0  0  0  0  0  0  0  0  0  0
  -24.5330  -13.3760   20.8380 C   0  0  0  0  0  0  0  0  0  0  0  0
  -24.9700  -12.0160   20.8770 C   0  0  0  0  0  0  0  0  0  0  0  0
  -26.6740  -13.2150   20.3770 N   0  0  0  0  0  0  0  0  0  0  0  0
  -26.2790  -11.9470   20.6630 N   0  0  0  0  0  0  0  0  0  0  0  0
  -24.2040  -10.7720   21.0400 C   0  0  0  0  0  0  0  0  0  0  0  0
  -24.5640   -9.8020   22.0020 C   0  0  0  0  0  3  0  0  0  0  0  0
  -23.7980   -8.6250   22.1550 C   0  0  0  0  0  3  0  0  0  0  0  0
  -22.6590   -8.4110   21.3430 C   0  0  0  0  0  0  0  0  0  0  0  0
  -22.3200   -9.3670   20.3700 C   0  0  0  0  0  3  0  0  0  0  0  0
  -23.0860  -10.5350   20.2160 C   0  0  0  0  0  3  0  0  0  0  0  0
  -21.8690   -7.2890   21.4050 O   0  0  0  0  0  0  0  0  0  0  0  0
  -21.7490   -6.5550   22.5570 C   0  0  0  0  0  0  0  0  0  0  0  0
  -21.3060   -7.1330   23.7670 C   0  0  0  0  0  3  0  0  0  0  0  0
  -21.1330   -6.3290   24.9100 C   0  0  0  0  0  3  0  0  0  0  0  0
  -21.3880   -4.9460   24.8440 C   0  0  0  0  0  0  0  0  0  0  0  0
  -21.8210   -4.3670   23.6380 C   0  0  0  0  0  3  0  0  0  0  0  0
  -21.9970   -5.1690   22.4960 C   0  0  0  0  0  0  0  0  0  0  0  0
  -22.3950   -4.6020   21.3330 F   0  0  0  0  0  0  0  0  0  0  0  0
  -21.2110   -4.1710   25.9390 F   0  0  0  0  0  0  0  0  0  0  0  0
  -23.1310  -13.8850   20.9880 C   0  0  0  0  0  0  0  0  0  0  0  0
  -22.3290  -13.2360   21.8250 N   0  0  0  0  0  0  0  0  0  0  0  0
  -22.7540  -14.8990   20.4000 O   0  0  0  0  0  0  0  0  0  0  0  0
  -22.6450  -12.4160   22.3220 H   0  0  0  0  0  0  0  0  0  0  0  0
  -21.3830  -13.5630   21.9670 H   0  0  0  0  0  0  0  0  0  0  0  0
  -25.8480  -15.4800   20.3280 N   0  0  0  0  0  0  0  0  0  0  0  0
  -25.0970  -16.1600   20.3620 H   0  0  0  0  0  0  0  0  0  0  0  0
  -26.7360  -15.8910   20.0620 H   0  0  0  0  0  0  0  0  0  0  0  0
  -28.5270  -26.2750   20.2500 O   0  0  0  0  0  0  0  0  0  0  0  0
  -24.6520  -31.8860   23.1610 C   0  0  0  0  0  0  0  0  0  0  0  0
  -27.3850  -27.1610   20.2410 C   0  0  0  0  0  0  0  0  0  0  0  0
  -23.5060  -30.4410   21.5240 C   0  0  0  0  0  3  0  0  0  0  0  0
  -25.0090  -28.8540   20.1550 C   0  0  0  0  0  0  0  0  0  0  0  0
  -26.0550  -30.7500   21.3900 C   0  0  0  0  0  2  0  0  0  0  0  0
  -26.1700  -29.3430   20.7680 C   0  0  0  0  0  0  0  0  0  0  0  0
  -27.3550  -28.5140   20.7860 C   0  0  0  0  0  3  0  0  0  0  0  0
  -26.1910  -26.7620   19.6050 C   0  0  0  0  0  3  0  0  0  0  0  0
  -25.0350  -27.5790   19.5610 C   0  0  0  0  0  3  0  0  0  0  0  0
  -23.7660  -29.7340   20.1640 C   0  0  0  0  0  2  0  0  0  0  0  0
  -24.7590  -31.0510   22.0800 N   0  0  0  0  0  0  0  0  0  0  0  0
  -23.5520  -32.1600   23.6650 O   0  0  0  0  0  0  0  0  0  0  0  0
  -22.8270  -29.4430   22.4940 C   0  0  0  0  0  0  0  0  0  0  0  0
  -21.4980  -29.2760   22.3730 N   0  0  0  0  0  0  0  0  0  0  0  0
  -23.5000  -28.8170   23.3150 O   0  0  0  0  0  0  0  0  0  0  0  0
  -21.0120  -29.8400   21.6910 H   0  0  0  0  0  0  0  0  0  0  0  0
  -18.1140  -28.0950   22.9100 C   0  0  0  0  0  0  0  0  0  0  0  0
  -20.6790  -28.3370   23.1440 C   0  0  0  0  0  3  0  0  0  0  0  0
  -20.7610  -26.9090   22.5570 C   0  0  0  0  0  2  0  0  0  0  0  0
  -19.6430  -26.6030   21.5540 C   0  0  0  0  0  2  0  0  0  0  0  0
  -18.2710  -26.7500   22.2180 C   0  0  0  0  0  2  0  0  0  0  0  0
  -19.2440  -28.8470   23.3300 C   0  0  0  0  0  0  0  0  0  0  0  0
  -19.0420  -30.1020   23.9410 C   0  0  0  0  0  3  0  0  0  0  0  0
  -17.7440  -30.6100   24.1340 C   0  0  0  0  0  3  0  0  0  0  0  0
  -16.6290  -29.8580   23.7260 C   0  0  0  0  0  3  0  0  0  0  0  0
  -16.8150  -28.6010   23.1220 C   0  0  0  0  0  3  0  0  0  0  0  0
  -25.9040  -32.5580   23.8060 C   0  0  0  0  0  3  0  0  0  0  0  0
  -25.5490  -33.9490   24.1340 N   0  0  0  0  0  0  0  0  0  0  0  0
  -25.8830  -35.0170   23.3950 C   0  0  0  0  0  0  0  0  0  0  0  0
  -26.5810  -34.9350   22.3820 O   0  0  0  0  0  0  0  0  0  0  0  0
  -24.9340  -34.0840   24.9220 H   0  0  0  0  0  0  0  0  0  0  0  0
  -24.1290  -36.7850   23.0160 C   0  0  0  0  0  1  0  0  0  0  0  0
  -25.3560  -36.3920   23.8530 C   0  0  0  0  0  3  0  0  0  0  0  0
  -27.4530  -37.3090   24.7400 C   0  0  0  0  0  1  0  0  0  0  0  0
  -26.3670  -37.4670   23.7760 N   0  0  0  0  0  0  0  0  0  0  0  0
  -25.9400  -38.3760   23.9280 H   0  0  0  0  0  0  0  0  0  0  0  0
  -26.4160  -31.8060   25.0970 C   0  0  1  0  0  0  0  0  0  0  0  0
  -25.3130  -31.5460   26.1520 C   0  0  0  0  0  1  0  0  0  0  0  0
  -27.0370  -30.4420   24.7220 C   0  0  0  0  0  1  0  0  0  0  0  0
  -27.5400  -32.6330   25.7680 C   0  0  0  0  0  1  0  0  0  0  0  0
  2  1  1  0
  3  5  1  0
  3  6  1  0
  4  1  1  0
  5  7  1  0
  6 11  1  0
  6  2  1  0
  7 52  1  0
  7  4  1  0
  9 11  1  0
 10  8  1  0
 10 16  1  0
 11  8  2  0
 12  9  2  0
 12 13  1  0
 13 10  2  0
 14 12  1  0
 15 13  1  0
 16 23  2  0
 17 22  1  0
 18 19  1  0
 18 17  1  0
 20 19  1  0
 20 27  1  0
 20 21  1  0
 22 16  1  0
 22 21  1  0
 24 25  2  0
 25 26  1  0
 25 44  1  0
 26 29  1  0
 27 24  1  0
 27 28  1  0
 28 26  2  0
 29 30  1  0
 30 31  2  0
 32 35  1  0
 32 31  1  0
 33 32  2  0
 34 33  1  0
 34 29  2  0
 35 36  1  0
 36 37  1  0
 37 38  2  0
 39 38  1  0
 39 43  1  0
 40 39  2  0
 41 36  2  0
 41 40  1  0
 42 41  1  0
 44 45  1  0
 45 48  1  0
 45 47  1  0
 46 44  2  0
 49 50  1  0
 49 24  1  0
 51 49  1  0
 53 64  2  0
 54 52  1  0
 54 59  1  0
 55 63  1  0
 55 65  1  0
 56 62  1  0
 56 58  1  0
 57 63  1  0
 58 59  2  0
 58 57  1  0
 60 54  2  0
 61 60  1  0
 61 56  2  0
 62 55  1  0
 63 53  1  0
 65 67  2  0
 66 65  1  0
 68 66  1  0
 69 78  2  0
 69 74  1  0
 70 66  1  0
 70 74  1  0
 71 70  1  0
 72 73  1  0
 72 71  1  0
 73 69  1  0
 74 75  2  0
 75 76  1  0
 77 76  2  0
 78 77  1  0
 79 53  1  0
 79 80  1  0
 79 89  1  0
 80 83  1  0
 81 85  1  0
 81 80  1  0
 82 81  2  0
 85 84  1  0
 87 85  1  0
 87 88  1  0
 87 86  1  0
 89 92  1  1
 89 90  1  0
 91 89  1  0
M  ISO  4   7 101  10 100  16 100  52 101
M  END
>  <TORSDO>  (17) 
F 17

>  <SCORE>  (17) 
-15.303

>  <name>  (17) 
17

>  <ligand_id>  (17) 
17

>  <original_smiles>  (17) 
[H]c1c([H])c([H])c2c(c1[H])C([H])([H])C([H])([H])C([H])([H])C2([H])N([H])C(=O)C1([H])N(C(=O)C([H])(N([H])C(=O)C([H])(N([H])C([H])([H])[H])C([H])([H])[H])C(C([H])([H])[H])(C([H])([H])[H])C([H])([H])[H])C([H])([H])c2c([H])c(OC3([H])C([H])([H])C([H])([H])C([H])([H])C([H])(c4c([H])c(C(=O)N5C([H])([H])C([H])([H])C([H])([H])C([H])(n6nc(-c7c([H])c([H])c(Oc8c([H])c([H])c(F)c([H])c8F)c([H])c7[H])c(C(=O)N([H])[H])c6N([H])[H])C5([H])[H])c(C([H])([H])[H])c(C([H])([H])[H])c4[H])C([H])([H])C3([H])[H])c([H])c([H])c2C1([H])[H]

>  <smiles>  (17) 
[H]c1c([H])c([H])c2c(c1[H])C([H])([H])C([H])([H])C([H])([H])C2([H])N([H])C(=O)C1([H])N(C(=O)C([H])(N([H])C(=O)C([H])(N([H])C([H])([H])[H])C([H])([H])[H])C(C([H])([H])[H])(C([H])([H])[H])C([H])([H])[H])C([H])([H])c2c([H])c(OC3([H])C([H])([H])C([H])([H])C([H])([H])C([H])(c4c([H])c(C(=O)N5C([H])([H])C([H])([H])C([H])([H])C([H])(n6nc(-c7c([H])c([H])c(Oc8c([H])c([H])c(F)c([H])c8F)c([H])c7[H])c(C(=O)N([H])[H])c6N([H])[H])C5([H])[H])c(C([H])([H])[H])c(C([H])([H])[H])c4[H])C([H])([H])C3([H])[H])c([H])c([H])c2C1([H])[H]

$$$$
18:0:0
     RDKit          3D

 90 98  0  0  1  0  0  0  0  0999 V2000
  -27.5120  -20.8210   19.6890 C   0  0  0  0  0  3  0  0  0  0  0  0
  -26.8630  -23.3110   19.7200 C   0  0  0  0  0  3  0  0  0  0  0  0
  -28.8150  -20.9310   20.2180 C   0  0  0  0  0  0  0  0  0  0  0  0
  -26.6230  -21.9220   19.4260 C   0  0  0  0  0  0  0  0  0  0  0  0
  -28.0830  -23.8770   20.2000 C   0  0  0  0  0  0  0  0  0  0  0  0
  -29.0240  -22.5480   20.4230 C   0  0  0  0  0  0  0  0  0  0  0  0
  -30.2680  -22.8590   20.8630 F   0  0  0  0  0  0  0  0  0  0  0  0
  -31.0510  -19.5180   19.5460 C   0  0  0  0  0  1  0  0  0  0  0  0
  -29.7860  -19.2810   20.3880 C   0  0  0  0  0  0  0  0  0  0  0  0
  -30.3130  -16.0330   20.2950 C   0  0  0  0  0  0  0  0  0  0  0  0
  -30.4580  -13.4590   19.4570 C   0  0  0  0  0  2  0  0  0  0  0  0
  -29.5900  -12.9940   18.2490 C   0  0  0  0  0  2  0  0  0  0  0  0
  -28.1790  -12.5950   18.7010 C   0  0  0  0  0  2  0  0  0  0  0  0
  -27.6380  -13.5780   19.7610 C   0  0  0  0  0  3  0  0  0  0  0  0
  -28.6590  -13.9550   20.8670 C   0  0  0  0  0  2  0  0  0  0  0  0
  -29.8000  -14.6450   20.2000 N   0  0  0  0  0  0  0  0  0  0  0  0
  -31.5500  -15.9300   20.1510 O   0  0  0  0  0  0  0  0  0  0  0  0
  -29.5810  -17.4550   20.3620 N   0  0  0  0  0  4  0  0  0  0  0  0
  -28.5910  -17.2630   20.4320 H   0  0  0  0  0  0  0  0  0  0  0  0
  -25.2730  -14.0500   20.5450 C   0  0  0  0  0  0  0  0  0  0  0  0
  -24.2250  -13.2480   20.8950 C   0  0  0  0  0  0  0  0  0  0  0  0
  -24.7150  -11.9070   20.8390 C   0  0  0  0  0  0  0  0  0  0  0  0
  -26.3310  -13.2020   20.2830 N   0  0  0  0  0  0  0  0  0  0  0  0
  -26.0100  -11.9020   20.5260 N   0  0  0  0  0  0  0  0  0  0  0  0
  -24.0010  -10.6310   21.0040 C   0  0  0  0  0  0  0  0  0  0  0  0
  -24.4210   -9.6630   21.9440 C   0  0  0  0  0  3  0  0  0  0  0  0
  -23.6990   -8.4600   22.1050 C   0  0  0  0  0  3  0  0  0  0  0  0
  -22.5440   -8.2130   21.3230 C   0  0  0  0  0  0  0  0  0  0  0  0
  -22.1430   -9.1710   20.3740 C   0  0  0  0  0  3  0  0  0  0  0  0
  -22.8650  -10.3660   20.2120 C   0  0  0  0  0  3  0  0  0  0  0  0
  -21.8020   -7.0580   21.3860 O   0  0  0  0  0  0  0  0  0  0  0  0
  -21.7100   -6.3240   22.5420 C   0  0  0  0  0  0  0  0  0  0  0  0
  -21.1720   -6.8690   23.7280 C   0  0  0  0  0  3  0  0  0  0  0  0
  -21.0280   -6.0600   24.8730 C   0  0  0  0  0  3  0  0  0  0  0  0
  -21.4160   -4.7070   24.8330 C   0  0  0  0  0  0  0  0  0  0  0  0
  -21.9510   -4.1620   23.6530 C   0  0  0  0  0  3  0  0  0  0  0  0
  -22.0940   -4.9680   22.5100 C   0  0  0  0  0  0  0  0  0  0  0  0
  -22.5880   -4.4330   21.3680 F   0  0  0  0  0  0  0  0  0  0  0  0
  -21.2760   -3.9290   25.9320 F   0  0  0  0  0  0  0  0  0  0  0  0
  -22.8220  -13.7030   21.1630 C   0  0  0  0  0  0  0  0  0  0  0  0
  -22.1010  -12.9920   22.0220 N   0  0  0  0  0  0  0  0  0  0  0  0
  -22.3730  -14.7280   20.6490 O   0  0  0  0  0  0  0  0  0  0  0  0
  -22.4810  -12.1680   22.4630 H   0  0  0  0  0  0  0  0  0  0  0  0
  -21.1600  -13.2830   22.2450 H   0  0  0  0  0  0  0  0  0  0  0  0
  -25.4050  -15.4270   20.4010 N   0  0  0  0  0  0  0  0  0  0  0  0
  -24.6170  -16.0550   20.5210 H   0  0  0  0  0  0  0  0  0  0  0  0
  -26.2390  -15.8970   20.0760 H   0  0  0  0  0  0  0  0  0  0  0  0
  -25.5610  -20.9540   17.5500 C   0  0  0  0  0  1  0  0  0  0  0  0
  -25.4310  -21.6470   18.7960 O   0  0  0  0  0  0  0  0  0  0  0  0
  -28.1630  -25.5330   20.3350 O   0  0  0  0  0  0  0  0  0  0  0  0
  -24.6400  -31.9690   23.2610 C   0  0  0  0  0  0  0  0  0  0  0  0
  -27.1950  -26.7960   20.2960 C   0  0  0  0  0  0  0  0  0  0  0  0
  -23.4740  -30.5600   21.6190 C   0  0  0  0  0  3  0  0  0  0  0  0
  -24.9390  -28.9040   20.2130 C   0  0  0  0  0  0  0  0  0  0  0  0
  -26.0540  -30.6700   21.5390 C   0  0  0  0  0  2  0  0  0  0  0  0
  -26.1220  -29.2260   20.8850 C   0  0  0  0  0  0  0  0  0  0  0  0
  -27.2250  -28.2000   20.9010 C   0  0  0  0  0  3  0  0  0  0  0  0
  -25.9930  -26.7340   19.5330 C   0  0  0  0  0  3  0  0  0  0  0  0
  -24.9210  -27.6870   19.5090 C   0  0  0  0  0  3  0  0  0  0  0  0
  -23.7350  -29.8620   20.2500 C   0  0  0  0  0  2  0  0  0  0  0  0
  -24.7470  -31.1060   22.1910 N   0  0  0  0  0  0  0  0  0  0  0  0
  -23.5410  -32.2690   23.7590 O   0  0  0  0  0  0  0  0  0  0  0  0
  -22.7450  -29.5890   22.5890 C   0  0  0  0  0  0  0  0  0  0  0  0
  -21.4180  -29.4180   22.4430 N   0  0  0  0  0  0  0  0  0  0  0  0
  -23.3880  -28.9860   23.4520 O   0  0  0  0  0  0  0  0  0  0  0  0
  -20.9410  -29.9570   21.7350 H   0  0  0  0  0  0  0  0  0  0  0  0
  -18.0360  -28.1710   22.9380 C   0  0  0  0  0  0  0  0  0  0  0  0
  -20.5910  -28.4780   23.2170 C   0  0  0  0  0  3  0  0  0  0  0  0
  -20.7140  -27.0430   22.6520 C   0  0  0  0  0  2  0  0  0  0  0  0
  -19.6260  -26.7000   21.6290 C   0  0  0  0  0  2  0  0  0  0  0  0
  -18.2400  -26.8240   22.2640 C   0  0  0  0  0  2  0  0  0  0  0  0
  -19.1410  -28.9540   23.3710 C   0  0  0  0  0  0  0  0  0  0  0  0
  -18.8960  -30.2080   23.9720 C   0  0  0  0  0  3  0  0  0  0  0  0
  -17.5820  -30.6830   24.1390 C   0  0  0  0  0  3  0  0  0  0  0  0
  -16.4930  -29.9010   23.7200 C   0  0  0  0  0  3  0  0  0  0  0  0
  -16.7190  -28.6470   23.1250 C   0  0  0  0  0  3  0  0  0  0  0  0
  -25.8930  -32.6330   23.9100 C   0  0  0  0  0  3  0  0  0  0  0  0
  -25.5680  -34.0430   24.2110 N   0  0  0  0  0  0  0  0  0  0  0  0
  -25.9020  -35.0960   23.4490 C   0  0  0  0  0  0  0  0  0  0  0  0
  -26.5700  -34.9830   22.4190 O   0  0  0  0  0  0  0  0  0  0  0  0
  -24.9760  -34.2000   25.0140 H   0  0  0  0  0  0  0  0  0  0  0  0
  -24.1720  -36.8980   23.0970 C   0  0  0  0  0  1  0  0  0  0  0  0
  -25.4210  -36.4960   23.8990 C   0  0  0  0  0  3  0  0  0  0  0  0
  -27.5610  -37.4000   24.7010 C   0  0  0  0  0  1  0  0  0  0  0  0
  -26.4520  -37.5510   23.7640 N   0  0  0  0  0  0  0  0  0  0  0  0
  -26.0450  -38.4720   23.9020 H   0  0  0  0  0  0  0  0  0  0  0  0
  -26.3640  -31.9070   25.2330 C   0  0  1  0  0  0  0  0  0  0  0  0
  -25.2340  -31.7080   26.2730 C   0  0  0  0  0  1  0  0  0  0  0  0
  -26.9550  -30.5110   24.9280 C   0  0  0  0  0  1  0  0  0  0  0  0
  -27.4920  -32.7230   25.9090 C   0  0  0  0  0  1  0  0  0  0  0  0
  1  3  1  0
  2  5  2  0
  3  9  1  0
  3  6  2  0
  4  1  2  0
  4  2  1  0
  5 50  1  0
  5  6  1  0
  6  7  1  0
  8  9  1  0
 10 18  1  0
 11 16  1  0
 12 13  1  0
 12 11  1  0
 14 13  1  0
 14 23  1  0
 14 15  1  0
 16 10  1  0
 16 15  1  0
 17 10  2  0
 18  9  2  0
 18 19  1  0
 20 21  2  0
 21 40  1  0
 22 21  1  0
 22 25  1  0
 23 24  1  0
 23 20  1  0
 24 22  2  0
 25 26  1  0
 26 27  2  0
 28 31  1  0
 28 27  1  0
 29 28  2  0
 30 29  1  0
 30 25  2  0
 31 32  1  0
 32 33  1  0
 33 34  2  0
 35 34  1  0
 35 39  1  0
 36 35  2  0
 37 32  2  0
 37 36  1  0
 38 37  1  0
 40 41  1  0
 41 44  1  0
 41 43  1  0
 42 40  2  0
 45 46  1  0
 45 20  1  0
 47 45  1  0
 48 49  1  0
 49  4  1  0
 51 62  2  0
 52 50  1  0
 52 57  1  0
 53 61  1  0
 53 63  1  0
 54 60  1  0
 54 56  1  0
 55 61  1  0
 56 57  2  0
 56 55  1  0
 58 52  2  0
 59 58  1  0
 59 54  2  0
 60 53  1  0
 61 51  1  0
 63 65  2  0
 64 63  1  0
 66 64  1  0
 67 76  2  0
 67 72  1  0
 68 64  1  0
 68 72  1  0
 69 68  1  0
 70 71  1  0
 70 69  1  0
 71 67  1  0
 72 73  2  0
 73 74  1  0
 75 74  2  0
 76 75  1  0
 77 51  1  0
 77 78  1  0
 77 87  1  0
 78 81  1  0
 79 83  1  0
 79 78  1  0
 80 79  2  0
 83 82  1  0
 85 83  1  0
 85 86  1  0
 85 84  1  0
 87 90  1  1
 87 88  1  0
 89 87  1  0
M  ISO  4   5 101  10 100  18 100  50 101
M  END
>  <TORSDO>  (18) 
F 18

>  <SCORE>  (18) 
-15.909

>  <name>  (18) 
18

>  <ligand_id>  (18) 
18

>  <original_smiles>  (18) 
[H]c1c([H])c([H])c2c(c1[H])C([H])([H])C([H])([H])C([H])([H])C2([H])N([H])C(=O)C1([H])N(C(=O)C([H])(N([H])C(=O)C([H])(N([H])C([H])([H])[H])C([H])([H])[H])C(C([H])([H])[H])(C([H])([H])[H])C([H])([H])[H])C([H])([H])c2c([H])c(Oc3c([H])c(OC([H])([H])[H])c([H])c(C([H])(N([H])C(=O)N4C([H])([H])C([H])([H])C([H])([H])C([H])(n5nc(-c6c([H])c([H])c(Oc7c([H])c([H])c(F)c([H])c7F)c([H])c6[H])c(C(=O)N([H])[H])c5N([H])[H])C4([H])[H])C([H])([H])[H])c3F)c([H])c([H])c2C1([H])[H]

>  <smiles>  (18) 
[H]c1c([H])c([H])c2c(c1[H])C([H])([H])C([H])([H])C([H])([H])C2([H])N([H])C(=O)C1([H])N(C(=O)C([H])(N([H])C(=O)C([H])(N([H])C([H])([H])[H])C([H])([H])[H])C(C([H])([H])[H])(C([H])([H])[H])C([H])([H])[H])C([H])([H])c2c([H])c(Oc3c([H])c(OC([H])([H])[H])c([H])c(C([H])(N([H])C(=O)N4C([H])([H])C([H])([H])C([H])([H])C([H])(n5nc(-c6c([H])c([H])c(Oc7c([H])c([H])c(F)c([H])c7F)c([H])c6[H])c(C(=O)N([H])[H])c5N([H])[H])C4([H])[H])C([H])([H])[H])c3F)c([H])c([H])c2C1([H])[H]

$$$$
19:0:0
     RDKit          3D

 97105  0  0  1  0  0  0  0  0999 V2000
  -27.3530  -22.8940   18.2910 C   0  0  0  0  0  3  0  0  0  0  0  0
  -26.8920  -24.4340   20.1150 C   0  0  0  0  0  3  0  0  0  0  0  0
  -28.6860  -23.3500   18.2600 C   0  0  0  0  0  0  0  0  0  0  0  0
  -29.1080  -24.3190   19.2070 C   0  0  0  0  0  0  0  0  0  0  0  0
  -26.4840  -23.3670   19.2910 C   0  0  0  0  0  0  0  0  0  0  0  0
  -28.1230  -25.1000   19.8700 C   0  0  0  0  0  0  0  0  0  0  0  0
  -25.2180  -22.8660   19.4060 O   0  0  0  0  0  0  0  0  0  0  0  0
  -24.9950  -22.2290   18.7340 H   0  0  0  0  0  0  0  0  0  0  0  0
  -29.7140  -23.5760   15.9620 C   0  0  0  0  0  1  0  0  0  0  0  0
  -29.6400  -22.7400   17.2410 C   0  0  0  0  0  2  0  0  0  0  0  0
  -28.3200  -26.4670   20.1590 O   0  0  0  0  0  0  0  0  0  0  0  0
  -24.6600  -31.8310   23.2150 C   0  0  0  0  0  0  0  0  0  0  0  0
  -27.2450  -27.3620   20.0610 C   0  0  0  0  0  0  0  0  0  0  0  0
  -23.4430  -30.4490   21.5730 C   0  0  0  0  0  3  0  0  0  0  0  0
  -24.8850  -28.9550   20.1020 C   0  0  0  0  0  0  0  0  0  0  0  0
  -25.9790  -30.7820   21.3790 C   0  0  0  0  0  2  0  0  0  0  0  0
  -26.0510  -29.4170   20.7260 C   0  0  0  0  0  0  0  0  0  0  0  0
  -27.2260  -28.6130   20.7380 C   0  0  0  0  0  3  0  0  0  0  0  0
  -26.0980  -27.0380   19.2970 C   0  0  0  0  0  3  0  0  0  0  0  0
  -24.9030  -27.7590   19.3850 C   0  0  0  0  0  3  0  0  0  0  0  0
  -23.6420  -29.8120   20.1780 C   0  0  0  0  0  2  0  0  0  0  0  0
  -24.7130  -31.0360   22.1120 N   0  0  0  0  0  0  0  0  0  0  0  0
  -23.5810  -32.0980   23.7630 O   0  0  0  0  0  0  0  0  0  0  0  0
  -22.8020  -29.4070   22.5200 C   0  0  0  0  0  0  0  0  0  0  0  0
  -21.4750  -29.2290   22.4080 N   0  0  0  0  0  0  0  0  0  0  0  0
  -23.4950  -28.7660   23.3150 O   0  0  0  0  0  0  0  0  0  0  0  0
  -20.9780  -29.8030   21.7420 H   0  0  0  0  0  0  0  0  0  0  0  0
  -18.1050  -28.0310   22.9350 C   0  0  0  0  0  0  0  0  0  0  0  0
  -20.6660  -28.2850   23.1800 C   0  0  0  0  0  3  0  0  0  0  0  0
  -20.7600  -26.8590   22.5890 C   0  0  0  0  0  2  0  0  0  0  0  0
  -19.6450  -26.5460   21.5860 C   0  0  0  0  0  2  0  0  0  0  0  0
  -18.2700  -26.6880   22.2450 C   0  0  0  0  0  2  0  0  0  0  0  0
  -19.2290  -28.7870   23.3590 C   0  0  0  0  0  0  0  0  0  0  0  0
  -19.0180  -30.0470   23.9650 C   0  0  0  0  0  3  0  0  0  0  0  0
  -17.7160  -30.5480   24.1480 C   0  0  0  0  0  3  0  0  0  0  0  0
  -16.6060  -29.7870   23.7410 C   0  0  0  0  0  3  0  0  0  0  0  0
  -16.8020  -28.5300   23.1400 C   0  0  0  0  0  3  0  0  0  0  0  0
  -25.9490  -32.4610   23.8260 C   0  0  0  0  0  3  0  0  0  0  0  0
  -25.6350  -33.8530   24.1750 N   0  0  0  0  0  0  0  0  0  0  0  0
  -25.9390  -34.9160   23.4170 C   0  0  0  0  0  0  0  0  0  0  0  0
  -26.5850  -34.8270   22.3710 O   0  0  0  0  0  0  0  0  0  0  0  0
  -25.0600  -33.9960   24.9910 H   0  0  0  0  0  0  0  0  0  0  0  0
  -24.1790  -36.6920   23.1320 C   0  0  0  0  0  1  0  0  0  0  0  0
  -25.4480  -36.2940   23.9020 C   0  0  0  0  0  3  0  0  0  0  0  0
  -27.5970  -37.1930   24.6760 C   0  0  0  0  0  1  0  0  0  0  0  0
  -26.4640  -37.3610   23.7710 N   0  0  0  0  0  0  0  0  0  0  0  0
  -26.0520  -38.2750   23.9420 H   0  0  0  0  0  0  0  0  0  0  0  0
  -26.4850  -31.6750   25.0830 C   0  0  1  0  0  0  0  0  0  0  0  0
  -25.4080  -31.4180   26.1610 C   0  0  0  0  0  1  0  0  0  0  0  0
  -27.0690  -30.3080   24.6630 C   0  0  0  0  0  1  0  0  0  0  0  0
  -27.6420  -32.4680   25.7390 C   0  0  0  0  0  1  0  0  0  0  0  0
  -30.5650  -24.3540   19.6780 C   0  0  0  0  0  3  0  0  0  0  0  0
  -31.1310  -22.9840   20.2430 C   0  0  0  0  0  3  0  0  0  0  0  0
  -30.1410  -21.8140   20.5920 C   0  0  0  0  0  2  0  0  0  0  0  0
  -30.7580  -20.4480   21.0430 C   0  0  0  0  0  2  0  0  0  0  0  0
  -29.7480  -19.2570   20.9290 C   0  0  0  0  0  2  0  0  0  0  0  0
  -30.0340  -17.9110   21.6850 C   0  0  0  0  0  2  0  0  0  0  0  0
  -30.9600  -14.4960   20.2210 C   0  0  0  0  0  0  0  0  0  0  0  0
  -30.5460  -12.3200   19.1120 C   0  0  0  0  0  2  0  0  0  0  0  0
  -29.5960  -12.4860   17.9080 C   0  0  0  0  0  2  0  0  0  0  0  0
  -28.1290  -12.3870   18.3630 C   0  0  0  0  0  2  0  0  0  0  0  0
  -27.8200  -13.2740   19.5990 C   0  0  0  0  0  3  0  0  0  0  0  0
  -28.8910  -13.0920   20.7030 C   0  0  0  0  0  2  0  0  0  0  0  0
  -30.2140  -13.3540   20.1120 N   0  0  0  0  0  0  0  0  0  0  0  0
  -32.0710  -14.5650   19.6880 O   0  0  0  0  0  0  0  0  0  0  0  0
  -30.8760  -16.8370   20.9480 C   0  0  0  0  0  0  0  0  0  0  0  0
  -30.3840  -15.5680   20.8360 N   0  0  0  0  0  0  0  0  0  0  0  0
  -31.9760  -17.1990   20.5150 O   0  0  0  0  0  0  0  0  0  0  0  0
  -29.4730  -15.4080   21.2340 H   0  0  0  0  0  0  0  0  0  0  0  0
  -25.4470  -13.9310   20.3400 C   0  0  0  0  0  0  0  0  0  0  0  0
  -24.3670  -13.1830   20.7320 C   0  0  0  0  0  0  0  0  0  0  0  0
  -24.8000  -11.8210   20.7070 C   0  0  0  0  0  0  0  0  0  0  0  0
  -26.4690  -13.0270   20.1020 N   0  0  0  0  0  0  0  0  0  0  0  0
  -26.0850  -11.7540   20.3850 N   0  0  0  0  0  0  0  0  0  0  0  0
  -24.0500  -10.5750   20.9190 C   0  0  0  0  0  0  0  0  0  0  0  0
  -24.4660   -9.6140   21.8660 C   0  0  0  0  0  3  0  0  0  0  0  0
  -23.7190   -8.4330   22.0630 C   0  0  0  0  0  3  0  0  0  0  0  0
  -22.5390   -8.2050   21.3160 C   0  0  0  0  0  0  0  0  0  0  0  0
  -22.1400   -9.1550   20.3570 C   0  0  0  0  0  3  0  0  0  0  0  0
  -22.8900  -10.3280   20.1570 C   0  0  0  0  0  3  0  0  0  0  0  0
  -21.7620   -7.0770   21.4230 O   0  0  0  0  0  0  0  0  0  0  0  0
  -21.6880   -6.3620   22.5920 C   0  0  0  0  0  0  0  0  0  0  0  0
  -21.2790   -6.9580   23.8050 C   0  0  0  0  0  3  0  0  0  0  0  0
  -21.1500   -6.1720   24.9680 C   0  0  0  0  0  3  0  0  0  0  0  0
  -21.4210   -4.7920   24.9180 C   0  0  0  0  0  0  0  0  0  0  0  0
  -21.8230   -4.1950   23.7110 C   0  0  0  0  0  3  0  0  0  0  0  0
  -21.9540   -4.9780   22.5510 C   0  0  0  0  0  0  0  0  0  0  0  0
  -22.3210   -4.3950   21.3850 F   0  0  0  0  0  0  0  0  0  0  0  0
  -21.2900   -4.0360   26.0330 F   0  0  0  0  0  0  0  0  0  0  0  0
  -22.9830  -13.6910   21.0180 C   0  0  0  0  0  0  0  0  0  0  0  0
  -22.2540  -13.0200   21.9040 N   0  0  0  0  0  0  0  0  0  0  0  0
  -22.5570  -14.7170   20.4910 O   0  0  0  0  0  0  0  0  0  0  0  0
  -22.6090  -12.1870   22.3490 H   0  0  0  0  0  0  0  0  0  0  0  0
  -21.3260  -13.3440   22.1390 H   0  0  0  0  0  0  0  0  0  0  0  0
  -25.6430  -15.2940   20.1450 N   0  0  0  0  0  0  0  0  0  0  0  0
  -24.9070  -15.9820   20.2650 H   0  0  0  0  0  0  0  0  0  0  0  0
  -26.4980  -15.6930   19.7770 H   0  0  0  0  0  0  0  0  0  0  0  0
  1  5  1  0
  3  1  2  0
  3  4  1  0
  4 52  1  0
  4  6  2  0
  5  7  1  0
  5  2  2  0
  6  2  1  0
  6 11  1  0
  8  7  1  0
  9 10  1  0
 10  3  1  0
 12 23  2  0
 13 11  1  0
 13 18  1  0
 14 22  1  0
 14 24  1  0
 15 21  1  0
 15 17  1  0
 16 22  1  0
 17 18  2  0
 17 16  1  0
 19 20  1  0
 19 13  2  0
 20 15  2  0
 21 14  1  0
 22 12  1  0
 24 26  2  0
 25 24  1  0
 27 25  1  0
 28 37  2  0
 28 33  1  0
 29 25  1  0
 29 33  1  0
 30 29  1  0
 31 32  1  0
 31 30  1  0
 32 28  1  0
 33 34  2  0
 34 35  1  0
 36 35  2  0
 37 36  1  0
 38 12  1  0
 38 39  1  0
 38 48  1  0
 39 42  1  0
 40 44  1  0
 40 39  1  0
 41 40  2  0
 44 43  1  0
 46 44  1  0
 46 47  1  0
 46 45  1  0
 48 51  1  1
 48 49  1  0
 50 48  1  0
 52 53  2  0
 53 54  1  0
 54 55  1  0
 56 55  1  0
 56 57  1  0
 58 67  1  0
 59 64  1  0
 60 61  1  0
 60 59  1  0
 62 61  1  0
 62 73  1  0
 62 63  1  0
 64 58  1  0
 64 63  1  0
 65 58  2  0
 66 57  1  0
 67 66  1  0
 67 69  1  0
 68 66  2  0
 70 71  2  0
 71 90  1  0
 72 71  1  0
 72 75  1  0
 73 70  1  0
 73 74  1  0
 74 72  2  0
 75 76  1  0
 76 77  2  0
 78 81  1  0
 78 77  1  0
 79 78  2  0
 80 79  1  0
 80 75  2  0
 81 82  1  0
 82 83  1  0
 83 84  2  0
 85 84  1  0
 85 89  1  0
 86 85  2  0
 87 82  2  0
 87 86  1  0
 88 87  1  0
 90 91  1  0
 91 94  1  0
 91 93  1  0
 92 90  2  0
 95 96  1  0
 95 70  1  0
 97 95  1  0
M  ISO  4   6 101  11 101  58 100  67 100
M  END
>  <TORSDO>  (19) 
F 24

>  <SCORE>  (19) 
-12.682

>  <name>  (19) 
19

>  <ligand_id>  (19) 
19

>  <original_smiles>  (19) 
[H]Oc1c([H])c(Oc2c([H])c([H])c3c(c2[H])C([H])([H])N(C(=O)C([H])(N([H])C(=O)C([H])(N([H])C([H])([H])[H])C([H])([H])[H])C(C([H])([H])[H])(C([H])([H])[H])C([H])([H])[H])C([H])(C(=O)N([H])C2([H])c4c([H])c([H])c([H])c([H])c4C([H])([H])C([H])([H])C2([H])[H])C3([H])[H])c(C([H])([H])C([H])([H])C([H])([H])C([H])([H])C([H])([H])C([H])([H])C(=O)N([H])C(=O)N2C([H])([H])C([H])([H])C([H])([H])C([H])(n3nc(-c4c([H])c([H])c(Oc5c([H])c([H])c(F)c([H])c5F)c([H])c4[H])c(C(=O)N([H])[H])c3N([H])[H])C2([H])[H])c(C([H])([H])C([H])([H])[H])c1[H]

>  <smiles>  (19) 
[H]Oc1c([H])c(Oc2c([H])c([H])c3c(c2[H])C([H])([H])N(C(=O)C([H])(N([H])C(=O)C([H])(N([H])C([H])([H])[H])C([H])([H])[H])C(C([H])([H])[H])(C([H])([H])[H])C([H])([H])[H])C([H])(C(=O)N([H])C2([H])c4c([H])c([H])c([H])c([H])c4C([H])([H])C([H])([H])C2([H])[H])C3([H])[H])c(C([H])([H])C([H])([H])C([H])([H])C([H])([H])C([H])([H])C([H])([H])C(=O)N([H])C(=O)N2C([H])([H])C([H])([H])C([H])([H])C([H])(n3nc(-c4c([H])c([H])c(Oc5c([H])c([H])c(F)c([H])c5F)c([H])c4[H])c(C(=O)N([H])[H])c3N([H])[H])C2([H])[H])c(C([H])([H])C([H])([H])[H])c1[H]

$$$$
20:0:0
     RDKit          3D

 92101  0  0  1  0  0  0  0  0999 V2000
  -29.0600  -22.2990   23.4670 C   0  0  0  0  0  3  0  0  0  0  0  0
  -28.9840  -23.6820   23.5090 C   0  0  0  0  0  3  0  0  0  0  0  0
  -29.1780  -21.6650   22.2350 C   0  0  0  0  0  3  0  0  0  0  0  0
  -28.9710  -24.4400   22.3260 C   0  0  0  0  0  0  0  0  0  0  0  0
  -29.2180  -22.3380   20.9870 C   0  0  0  0  0  0  0  0  0  0  0  0
  -29.0340  -23.8460   21.0050 C   0  0  0  0  0  0  0  0  0  0  0  0
  -28.8690  -25.9420   22.5810 C   0  0  0  0  0  1  0  0  0  0  0  0
  -29.4570  -21.2300   19.8290 C   0  0  0  0  0  2  0  0  0  0  0  0
  -31.1020  -15.0460   19.9820 C   0  0  0  0  0  0  0  0  0  0  0  0
  -30.7850  -12.7280   19.0430 C   0  0  0  0  0  2  0  0  0  0  0  0
  -29.8190  -12.7070   17.8410 C   0  0  0  0  0  2  0  0  0  0  0  0
  -28.3670  -12.5580   18.3250 C   0  0  0  0  0  2  0  0  0  0  0  0
  -28.0310  -13.5040   19.5090 C   0  0  0  0  0  3  0  0  0  0  0  0
  -29.1260  -13.5000   20.5980 C   0  0  0  0  0  2  0  0  0  0  0  0
  -30.3760  -13.8610   19.9230 N   0  0  0  0  0  0  0  0  0  0  0  0
  -32.3030  -14.9480   19.7020 O   0  0  0  0  0  0  0  0  0  0  0  0
  -30.7190  -18.8960   19.0040 C   0  0  0  0  0  2  0  0  0  0  0  0
  -28.9870  -18.5000   20.5760 C   0  0  0  0  0  2  0  0  0  0  0  0
  -31.3580  -17.4720   19.3470 C   0  0  0  0  0  2  0  0  0  0  0  0
  -29.5350  -17.0000   20.8630 C   0  0  0  0  0  2  0  0  0  0  0  0
  -29.9920  -19.6570   20.1590 C   0  0  0  0  0  3  0  0  0  0  0  0
  -30.5210  -16.3540   19.9240 N   0  0  0  0  0  0  0  0  0  0  0  0
  -25.7070  -14.1470   20.3600 C   0  0  0  0  0  0  0  0  0  0  0  0
  -24.6280  -13.4000   20.7430 C   0  0  0  0  0  0  0  0  0  0  0  0
  -25.0380  -12.0340   20.6520 C   0  0  0  0  0  0  0  0  0  0  0  0
  -26.7060  -13.2380   20.0540 N   0  0  0  0  0  0  0  0  0  0  0  0
  -26.3150  -11.9600   20.2940 N   0  0  0  0  0  0  0  0  0  0  0  0
  -24.2680  -10.7940   20.8260 C   0  0  0  0  0  0  0  0  0  0  0  0
  -24.6480   -9.8160   21.7710 C   0  0  0  0  0  3  0  0  0  0  0  0
  -23.8780   -8.6440   21.9350 C   0  0  0  0  0  3  0  0  0  0  0  0
  -22.7150   -8.4420   21.1530 C   0  0  0  0  0  0  0  0  0  0  0  0
  -22.3570   -9.4090   20.1970 C   0  0  0  0  0  3  0  0  0  0  0  0
  -23.1260  -10.5720   20.0310 C   0  0  0  0  0  3  0  0  0  0  0  0
  -21.9210   -7.3230   21.2250 O   0  0  0  0  0  0  0  0  0  0  0  0
  -21.7630   -6.6290   22.3980 C   0  0  0  0  0  0  0  0  0  0  0  0
  -21.2490   -7.2400   23.5630 C   0  0  0  0  0  3  0  0  0  0  0  0
  -21.0350   -6.4710   24.7240 C   0  0  0  0  0  3  0  0  0  0  0  0
  -21.3270   -5.0940   24.7230 C   0  0  0  0  0  0  0  0  0  0  0  0
  -21.8340   -4.4840   23.5620 C   0  0  0  0  0  3  0  0  0  0  0  0
  -22.0470   -5.2480   22.4020 C   0  0  0  0  0  0  0  0  0  0  0  0
  -22.5150   -4.6500   21.2810 F   0  0  0  0  0  0  0  0  0  0  0  0
  -21.1150   -4.3550   25.8360 F   0  0  0  0  0  0  0  0  0  0  0  0
  -23.2610  -13.9200   21.0810 C   0  0  0  0  0  0  0  0  0  0  0  0
  -22.5440  -13.2310   21.9600 N   0  0  0  0  0  0  0  0  0  0  0  0
  -22.8430  -14.9740   20.6010 O   0  0  0  0  0  0  0  0  0  0  0  0
  -22.8970  -12.3770   22.3660 H   0  0  0  0  0  0  0  0  0  0  0  0
  -21.6290  -13.5620   22.2330 H   0  0  0  0  0  0  0  0  0  0  0  0
  -25.9180  -15.5160   20.2200 N   0  0  0  0  0  0  0  0  0  0  0  0
  -25.1830  -16.1950   20.3860 H   0  0  0  0  0  0  0  0  0  0  0  0
  -26.7730  -15.9320   19.8770 H   0  0  0  0  0  0  0  0  0  0  0  0
  -28.8350  -24.9260   19.7900 C   0  0  0  0  0  2  0  0  0  0  0  0
  -28.7920  -26.4760   19.8750 O   0  0  0  0  0  0  0  0  0  0  0  0
  -24.6090  -31.5740   23.0090 C   0  0  0  0  0  0  0  0  0  0  0  0
  -27.6290  -27.3060   19.8070 C   0  0  0  0  0  0  0  0  0  0  0  0
  -23.5580  -30.1680   21.2750 C   0  0  0  0  0  3  0  0  0  0  0  0
  -25.1580  -28.8050   19.8000 C   0  0  0  0  0  0  0  0  0  0  0  0
  -26.0750  -30.6740   21.1720 C   0  0  0  0  0  2  0  0  0  0  0  0
  -26.2770  -29.3350   20.4520 C   0  0  0  0  0  0  0  0  0  0  0  0
  -27.5150  -28.6010   20.4370 C   0  0  0  0  0  3  0  0  0  0  0  0
  -26.4830  -26.8560   19.1220 C   0  0  0  0  0  3  0  0  0  0  0  0
  -25.2690  -27.5810   19.1190 C   0  0  0  0  0  3  0  0  0  0  0  0
  -23.8550  -29.5830   19.8680 C   0  0  0  0  0  2  0  0  0  0  0  0
  -24.7640  -30.8250   21.8760 N   0  0  0  0  0  0  0  0  0  0  0  0
  -23.4950  -31.7360   23.5310 O   0  0  0  0  0  0  0  0  0  0  0  0
  -22.9580  -29.0570   22.1710 C   0  0  0  0  0  0  0  0  0  0  0  0
  -21.6480  -28.7940   22.0240 N   0  0  0  0  0  0  0  0  0  0  0  0
  -23.6740  -28.4350   22.9600 O   0  0  0  0  0  0  0  0  0  0  0  0
  -21.1230  -29.3540   21.3660 H   0  0  0  0  0  0  0  0  0  0  0  0
  -18.3560  -27.3510   22.4500 C   0  0  0  0  0  0  0  0  0  0  0  0
  -20.8950  -27.7560   22.7310 C   0  0  0  0  0  3  0  0  0  0  0  0
  -21.0840  -26.3750   22.0610 C   0  0  0  0  0  2  0  0  0  0  0  0
  -20.0000  -26.0530   21.0290 C   0  0  0  0  0  2  0  0  0  0  0  0
  -18.6150  -26.0650   21.6830 C   0  0  0  0  0  2  0  0  0  0  0  0
  -19.4270  -28.1520   22.9270 C   0  0  0  0  0  0  0  0  0  0  0  0
  -19.1310  -29.3550   23.6050 C   0  0  0  0  0  3  0  0  0  0  0  0
  -17.7990  -29.7580   23.8090 C   0  0  0  0  0  3  0  0  0  0  0  0
  -16.7430  -28.9520   23.3500 C   0  0  0  0  0  3  0  0  0  0  0  0
  -17.0220  -27.7500   22.6740 C   0  0  0  0  0  3  0  0  0  0  0  0
  -25.8190  -32.2810   23.6910 C   0  0  0  0  0  3  0  0  0  0  0  0
  -25.4010  -33.6470   24.0380 N   0  0  0  0  0  0  0  0  0  0  0  0
  -25.7000  -34.7420   23.3260 C   0  0  0  0  0  0  0  0  0  0  0  0
  -26.4210  -34.7120   22.3260 O   0  0  0  0  0  0  0  0  0  0  0  0
  -24.7650  -33.7410   24.8150 H   0  0  0  0  0  0  0  0  0  0  0  0
  -23.8720  -36.4300   22.9480 C   0  0  0  0  0  1  0  0  0  0  0  0
  -25.1040  -36.0830   23.7980 C   0  0  0  0  0  3  0  0  0  0  0  0
  -27.1340  -37.0890   24.7440 C   0  0  0  0  0  1  0  0  0  0  0  0
  -26.0670  -37.2060   23.7550 N   0  0  0  0  0  0  0  0  0  0  0  0
  -25.5930  -38.0920   23.9050 H   0  0  0  0  0  0  0  0  0  0  0  0
  -26.3390  -31.5220   24.9740 C   0  0  1  0  0  0  0  0  0  0  0  0
  -25.2250  -31.1820   25.9910 C   0  0  0  0  0  1  0  0  0  0  0  0
  -27.0360  -30.1990   24.5810 C   0  0  0  0  0  1  0  0  0  0  0  0
  -27.3990  -32.3830   25.6990 C   0  0  0  0  0  1  0  0  0  0  0  0
  1  2  1  0
  3  1  2  0
  4  7  1  0
  4  2  2  0
  5  6  2  0
  5  3  1  0
  6  4  1  0
  8  5  1  0
 10 15  1  0
 11 12  1  0
 11 10  1  0
 13 12  1  0
 13 26  1  0
 13 14  1  0
 15  9  1  0
 15 14  1  0
 16  9  2  0
 17 19  1  0
 17 21  1  0
 18 20  1  0
 19 22  1  0
 21  8  1  0
 21 18  1  0
 22  9  1  0
 22 20  1  0
 23 24  2  0
 24 43  1  0
 25 24  1  0
 25 28  1  0
 26 27  1  0
 26 23  1  0
 27 25  2  0
 28 29  1  0
 29 30  2  0
 31 34  1  0
 31 30  1  0
 32 31  2  0
 33 32  1  0
 33 28  2  0
 34 35  1  0
 35 40  2  0
 35 36  1  0
 36 37  2  0
 38 37  1  0
 38 42  1  0
 39 38  2  0
 40 39  1  0
 41 40  1  0
 43 44  1  0
 44 47  1  0
 44 46  1  0
 45 43  2  0
 48 23  1  0
 48 49  1  0
 50 48  1  0
 51 52  1  0
 51  6  1  0
 53 64  2  0
 54 52  1  0
 54 59  1  0
 55 63  1  0
 55 65  1  0
 56 62  1  0
 56 58  1  0
 57 63  1  0
 58 57  1  0
 59 58  2  0
 60 54  2  0
 61 60  1  0
 61 56  2  0
 62 55  1  0
 63 53  1  0
 65 67  2  0
 66 65  1  0
 68 66  1  0
 69 78  2  0
 69 74  1  0
 70 66  1  0
 70 74  1  0
 71 70  1  0
 72 73  1  0
 72 71  1  0
 73 69  1  0
 74 75  2  0
 75 76  1  0
 77 76  2  0
 78 77  1  0
 79 53  1  0
 79 80  1  0
 79 89  1  0
 80 83  1  0
 81 85  1  0
 81 80  1  0
 82 81  2  0
 85 84  1  0
 87 85  1  0
 87 88  1  0
 87 86  1  0
 89 92  1  1
 89 90  1  0
 91 89  1  0
M  ISO  4   9 100  22 100  51 101  52 101
M  END
>  <TORSDO>  (20) 
F 18

>  <SCORE>  (20) 
-13.319

>  <name>  (20) 
20

>  <ligand_id>  (20) 
20

>  <original_smiles>  (20) 
[H]c1c([H])c([H])c2c(c1[H])C([H])([H])C([H])([H])C([H])([H])C2([H])N([H])C(=O)C1([H])N(C(=O)C([H])(N([H])C(=O)C([H])(N([H])C([H])([H])[H])C([H])([H])[H])C(C([H])([H])[H])(C([H])([H])[H])C([H])([H])[H])C([H])([H])c2c([H])c(OC([H])([H])c3c(C([H])([H])[H])c([H])c([H])c([H])c3C([H])([H])C3([H])C([H])([H])C([H])([H])N(C(=O)N4C([H])([H])C([H])([H])C([H])([H])C([H])(n5nc(-c6c([H])c([H])c(Oc7c([H])c([H])c(F)c([H])c7F)c([H])c6[H])c(C(=O)N([H])[H])c5N([H])[H])C4([H])[H])C([H])([H])C3([H])[H])c([H])c([H])c2C1([H])[H]

>  <smiles>  (20) 
[H]c1c([H])c([H])c2c(c1[H])C([H])([H])C([H])([H])C([H])([H])C2([H])N([H])C(=O)C1([H])N(C(=O)C([H])(N([H])C(=O)C([H])(N([H])C([H])([H])[H])C([H])([H])[H])C(C([H])([H])[H])(C([H])([H])[H])C([H])([H])[H])C([H])([H])c2c([H])c(OC([H])([H])c3c(C([H])([H])[H])c([H])c([H])c([H])c3C([H])([H])C3([H])C([H])([H])C([H])([H])N(C(=O)N4C([H])([H])C([H])([H])C([H])([H])C([H])(n5nc(-c6c([H])c([H])c(Oc7c([H])c([H])c(F)c([H])c7F)c([H])c6[H])c(C(=O)N([H])[H])c5N([H])[H])C4([H])[H])C([H])([H])C3([H])[H])c([H])c([H])c2C1([H])[H]

$$$$
21:0:0
     RDKit          3D

 95104  0  0  1  0  0  0  0  0999 V2000
  -27.9850  -24.4940   18.5670 C   0  0  0  0  0  3  0  0  0  0  0  0
  -28.2710  -24.6690   19.8710 C   0  0  0  0  0  0  0  0  0  0  0  0
  -27.9850  -23.1750   17.8970 C   0  0  0  0  0  0  0  0  0  0  0  0
  -28.1200  -21.8450   18.6800 C   0  0  0  0  0  2  0  0  0  0  0  0
  -28.7780  -23.2600   20.6830 C   0  0  0  0  0  3  0  0  0  0  0  0
  -29.1730  -21.7780   19.8310 C   0  0  2  0  0  0  0  0  0  0  0  0
  -30.5670  -22.0770   19.2360 C   0  0  0  0  0  1  0  0  0  0  0  0
  -27.8460  -23.1010   16.6720 O   0  0  0  0  0  0  0  0  0  0  0  0
  -29.0440  -18.9840   19.4050 C   0  0  0  0  0  3  0  0  0  0  0  0
  -30.0550  -19.4770   21.4040 C   0  0  0  0  0  3  0  0  0  0  0  0
  -30.0630  -16.9280   20.6640 C   0  0  0  0  0  0  0  0  0  0  0  0
  -29.3610  -20.1010   20.2890 C   0  0  0  0  0  0  0  0  0  0  0  0
  -29.3720  -17.5480   19.5440 C   0  0  0  0  0  0  0  0  0  0  0  0
  -30.3830  -18.0300   21.5820 C   0  0  0  0  0  0  0  0  0  0  0  0
  -29.0330  -16.6710   18.3450 C   0  0  0  0  0  1  0  0  0  0  0  0
  -31.1710  -17.6740   22.8300 C   0  0  0  0  0  1  0  0  0  0  0  0
  -30.6960  -15.3790   20.6930 C   0  0  0  0  0  0  0  0  0  0  0  0
  -30.6410  -12.9630   19.8130 C   0  0  0  0  0  2  0  0  0  0  0  0
  -29.7990  -12.8070   18.5240 C   0  0  0  0  0  2  0  0  0  0  0  0
  -28.3210  -12.5570   18.8730 C   0  0  0  0  0  2  0  0  0  0  0  0
  -27.8130  -13.5080   19.9880 C   0  0  0  0  0  3  0  0  0  0  0  0
  -28.7960  -13.6490   21.1650 C   0  0  0  0  0  2  0  0  0  0  0  0
  -30.0770  -14.1080   20.6090 N   0  0  0  0  0  0  0  0  0  0  0  0
  -31.9280  -15.3120   20.5820 O   0  0  0  0  0  0  0  0  0  0  0  0
  -25.3960  -14.0500   20.5890 C   0  0  0  0  0  0  0  0  0  0  0  0
  -24.3210  -13.2650   20.9000 C   0  0  0  0  0  0  0  0  0  0  0  0
  -24.8060  -11.9200   20.9210 C   0  0  0  0  0  0  0  0  0  0  0  0
  -26.4610  -13.1840   20.4240 N   0  0  0  0  0  0  0  0  0  0  0  0
  -26.1160  -11.8990   20.6950 N   0  0  0  0  0  0  0  0  0  0  0  0
  -24.0830  -10.6520   21.0840 C   0  0  0  0  0  0  0  0  0  0  0  0
  -24.4580   -9.7070   22.0650 C   0  0  0  0  0  3  0  0  0  0  0  0
  -23.7340   -8.5040   22.2150 C   0  0  0  0  0  3  0  0  0  0  0  0
  -22.6200   -8.2380   21.3830 C   0  0  0  0  0  0  0  0  0  0  0  0
  -22.2650   -9.1710   20.3930 C   0  0  0  0  0  3  0  0  0  0  0  0
  -22.9900  -10.3640   20.2410 C   0  0  0  0  0  3  0  0  0  0  0  0
  -21.8730   -7.0860   21.4400 O   0  0  0  0  0  0  0  0  0  0  0  0
  -21.7330   -6.3750   22.6050 C   0  0  0  0  0  0  0  0  0  0  0  0
  -21.1710   -6.9490   23.7660 C   0  0  0  0  0  3  0  0  0  0  0  0
  -20.9830   -6.1630   24.9210 C   0  0  0  0  0  3  0  0  0  0  0  0
  -21.3450   -4.8020   24.9130 C   0  0  0  0  0  0  0  0  0  0  0  0
  -21.9000   -4.2280   23.7560 C   0  0  0  0  0  3  0  0  0  0  0  0
  -22.0900   -5.0110   22.6050 C   0  0  0  0  0  0  0  0  0  0  0  0
  -22.6060   -4.4480   21.4850 F   0  0  0  0  0  0  0  0  0  0  0  0
  -21.1580   -4.0450   26.0190 F   0  0  0  0  0  0  0  0  0  0  0  0
  -22.9040  -13.7280   21.0710 C   0  0  0  0  0  0  0  0  0  0  0  0
  -22.1310  -13.0390   21.9000 N   0  0  0  0  0  0  0  0  0  0  0  0
  -22.4890  -14.7370   20.5010 O   0  0  0  0  0  0  0  0  0  0  0  0
  -22.4790  -12.2260   22.3850 H   0  0  0  0  0  0  0  0  0  0  0  0
  -21.1760  -13.3300   22.0550 H   0  0  0  0  0  0  0  0  0  0  0  0
  -25.5540  -15.4200   20.4040 N   0  0  0  0  0  0  0  0  0  0  0  0
  -24.7770  -16.0690   20.4690 H   0  0  0  0  0  0  0  0  0  0  0  0
  -26.4280  -15.8710   20.1610 H   0  0  0  0  0  0  0  0  0  0  0  0
  -27.7790  -22.9230   21.6260 O   0  0  0  0  0  0  0  0  0  0  0  0
  -27.0910  -22.4510   21.1690 H   0  0  0  0  0  0  0  0  0  0  0  0
  -28.3060  -26.1060   20.3570 O   0  0  0  0  0  0  0  0  0  0  0  0
  -24.6330  -31.9690   23.2490 C   0  0  0  0  0  0  0  0  0  0  0  0
  -27.2720  -27.1620   20.2380 C   0  0  0  0  0  0  0  0  0  0  0  0
  -23.4590  -30.5400   21.6260 C   0  0  0  0  0  3  0  0  0  0  0  0
  -24.9290  -28.9650   20.2040 C   0  0  0  0  0  0  0  0  0  0  0  0
  -26.0170  -30.8110   21.4650 C   0  0  0  0  0  2  0  0  0  0  0  0
  -26.1100  -29.4050   20.8150 C   0  0  0  0  0  0  0  0  0  0  0  0
  -27.2740  -28.5190   20.8130 C   0  0  0  0  0  3  0  0  0  0  0  0
  -26.0480  -26.8590   19.5970 C   0  0  0  0  0  3  0  0  0  0  0  0
  -24.9180  -27.7110   19.5780 C   0  0  0  0  0  3  0  0  0  0  0  0
  -23.6920  -29.8550   20.2520 C   0  0  0  0  0  2  0  0  0  0  0  0
  -24.7230  -31.1330   22.1670 N   0  0  0  0  0  0  0  0  0  0  0  0
  -23.5420  -32.2430   23.7740 O   0  0  0  0  0  0  0  0  0  0  0  0
  -22.7910  -29.5320   22.6000 C   0  0  0  0  0  0  0  0  0  0  0  0
  -21.4670  -29.3300   22.4730 N   0  0  0  0  0  0  0  0  0  0  0  0
  -23.4710  -28.9340   23.4380 O   0  0  0  0  0  0  0  0  0  0  0  0
  -20.9720  -29.8670   21.7750 H   0  0  0  0  0  0  0  0  0  0  0  0
  -18.1170  -28.0300   22.9670 C   0  0  0  0  0  0  0  0  0  0  0  0
  -20.6640  -28.3820   23.2520 C   0  0  0  0  0  3  0  0  0  0  0  0
  -20.8150  -26.9430   22.7070 C   0  0  0  0  0  2  0  0  0  0  0  0
  -19.7350  -26.5680   21.6870 C   0  0  0  0  0  2  0  0  0  0  0  0
  -18.3420  -26.6780   22.3140 C   0  0  0  0  0  2  0  0  0  0  0  0
  -19.2050  -28.8370   23.3930 C   0  0  0  0  0  0  0  0  0  0  0  0
  -18.9370  -30.1000   23.9650 C   0  0  0  0  0  3  0  0  0  0  0  0
  -17.6150  -30.5580   24.1140 C   0  0  0  0  0  3  0  0  0  0  0  0
  -16.5410  -29.7500   23.7020 C   0  0  0  0  0  3  0  0  0  0  0  0
  -16.7920  -28.4870   23.1350 C   0  0  0  0  0  3  0  0  0  0  0  0
  -25.8960  -32.6370   23.8740 C   0  0  0  0  0  3  0  0  0  0  0  0
  -25.5570  -34.0340   24.1960 N   0  0  0  0  0  0  0  0  0  0  0  0
  -25.8950  -35.0970   23.4540 C   0  0  0  0  0  0  0  0  0  0  0  0
  -26.5920  -35.0040   22.4400 O   0  0  0  0  0  0  0  0  0  0  0  0
  -24.9460  -34.1790   24.9860 H   0  0  0  0  0  0  0  0  0  0  0  0
  -24.1730  -36.8910   23.0520 C   0  0  0  0  0  1  0  0  0  0  0  0
  -25.3840  -36.4790   23.9070 C   0  0  0  0  0  3  0  0  0  0  0  0
  -27.4780  -37.3690   24.8350 C   0  0  0  0  0  1  0  0  0  0  0  0
  -26.4140  -37.5400   23.8490 N   0  0  0  0  0  0  0  0  0  0  0  0
  -25.9970  -38.4570   23.9880 H   0  0  0  0  0  0  0  0  0  0  0  0
  -26.4170  -31.8930   25.1660 C   0  0  1  0  0  0  0  0  0  0  0  0
  -25.3220  -31.6570   26.2310 C   0  0  0  0  0  1  0  0  0  0  0  0
  -27.0250  -30.5180   24.8050 C   0  0  0  0  0  1  0  0  0  0  0  0
  -27.5530  -32.7150   25.8220 C   0  0  0  0  0  1  0  0  0  0  0  0
  1  2  2  0
  2 55  1  0
  2  5  1  0
  3  1  1  0
  3  4  1  0
  4  6  1  0
  5 53  1  0
  6  7  1  6
  6 12  1  0
  6  5  1  0
  8  3  2  0
  9 13  2  0
  9 12  1  0
 10 14  1  0
 11 17  1  0
 11 14  2  0
 12 10  2  0
 13 11  1  0
 14 16  1  0
 15 13  1  0
 18 23  1  0
 19 20  1  0
 19 18  1  0
 21 20  1  0
 21 28  1  0
 21 22  1  0
 23 17  1  0
 23 22  1  0
 24 17  2  0
 25 26  2  0
 26 27  1  0
 26 45  1  0
 27 30  1  0
 28 25  1  0
 28 29  1  0
 29 27  2  0
 30 31  1  0
 31 32  2  0
 33 36  1  0
 33 32  1  0
 34 33  2  0
 35 34  1  0
 35 30  2  0
 36 37  1  0
 37 38  1  0
 38 39  2  0
 40 39  1  0
 40 44  1  0
 41 40  2  0
 42 37  2  0
 42 41  1  0
 43 42  1  0
 45 46  1  0
 46 49  1  0
 46 48  1  0
 47 45  2  0
 50 51  1  0
 50 25  1  0
 52 50  1  0
 54 53  1  0
 56 67  2  0
 57 55  1  0
 57 62  1  0
 58 66  1  0
 58 68  1  0
 59 65  1  0
 59 61  1  0
 60 66  1  0
 61 60  1  0
 62 61  2  0
 63 57  2  0
 64 63  1  0
 64 59  2  0
 65 58  1  0
 66 56  1  0
 68 70  2  0
 69 68  1  0
 71 69  1  0
 72 81  2  0
 72 77  1  0
 73 69  1  0
 73 77  1  0
 74 73  1  0
 75 76  1  0
 75 74  1  0
 76 72  1  0
 77 78  2  0
 78 79  1  0
 80 79  2  0
 81 80  1  0
 82 56  1  0
 82 83  1  0
 82 92  1  0
 83 86  1  0
 84 88  1  0
 84 83  1  0
 85 84  2  0
 88 87  1  0
 90 88  1  0
 90 91  1  0
 90 89  1  0
 92 95  1  1
 92 93  1  0
 94 92  1  0
M  ISO  4   2 101  11 100  17 100  55 101
M  END
>  <TORSDO>  (21) 
F 18

>  <SCORE>  (21) 
-14.585

>  <name>  (21) 
21

>  <ligand_id>  (21) 
21

>  <original_smiles>  (21) 
[H]OC1([H])C(Oc2c([H])c([H])c3c(c2[H])C([H])([H])N(C(=O)C([H])(N([H])C(=O)C([H])(N([H])C([H])([H])[H])C([H])([H])[H])C(C([H])([H])[H])(C([H])([H])[H])C([H])([H])[H])C([H])(C(=O)N([H])C2([H])c4c([H])c([H])c([H])c([H])c4C([H])([H])C([H])([H])C2([H])[H])C3([H])[H])=C([H])C(=O)C([H])([H])C1(c1c([H])c(C([H])([H])[H])c(C(=O)N2C([H])([H])C([H])([H])C([H])([H])C([H])(n3nc(-c4c([H])c([H])c(Oc5c([H])c([H])c(F)c([H])c5F)c([H])c4[H])c(C(=O)N([H])[H])c3N([H])[H])C2([H])[H])c(C([H])([H])[H])c1[H])C([H])([H])[H]

>  <smiles>  (21) 
[H]OC1([H])C(Oc2c([H])c([H])c3c(c2[H])C([H])([H])N(C(=O)C([H])(N([H])C(=O)C([H])(N([H])C([H])([H])[H])C([H])([H])[H])C(C([H])([H])[H])(C([H])([H])[H])C([H])([H])[H])C([H])(C(=O)N([H])C2([H])c4c([H])c([H])c([H])c([H])c4C([H])([H])C([H])([H])C2([H])[H])C3([H])[H])=C([H])C(=O)C([H])([H])C1(c1c([H])c(C([H])([H])[H])c(C(=O)N2C([H])([H])C([H])([H])C([H])([H])C([H])(n3nc(-c4c([H])c([H])c(Oc5c([H])c([H])c(F)c([H])c5F)c([H])c4[H])c(C(=O)N([H])[H])c3N([H])[H])C2([H])[H])c(C([H])([H])[H])c1[H])C([H])([H])[H]

$$$$
22:0:0
     RDKit          3D

 90 98  0  0  1  0  0  0  0  0999 V2000
  -28.6530  -19.4770   19.3700 C   0  0  0  0  0  3  0  0  0  0  0  0
  -29.9780  -17.0070   20.5230 C   0  0  0  0  0  0  0  0  0  0  0  0
  -28.7240  -18.2430   18.6920 C   0  0  0  0  0  0  0  0  0  0  0  0
  -29.2790  -19.7150   20.5930 C   0  0  0  0  0  0  0  0  0  0  0  0
  -29.9060  -18.4180   21.1630 C   0  0  0  0  0  0  0  0  0  0  0  0
  -29.4490  -17.1080   19.1830 C   0  0  0  0  0  0  0  0  0  0  0  0
  -28.0000  -18.2030   17.3490 C   0  0  0  0  0  1  0  0  0  0  0  0
  -30.5390  -18.5430   22.5340 C   0  0  0  0  0  1  0  0  0  0  0  0
  -30.7430  -15.5560   20.9880 C   0  0  0  0  0  0  0  0  0  0  0  0
  -30.9090  -13.0170   20.4240 C   0  0  0  0  0  2  0  0  0  0  0  0
  -30.1870  -12.5390   19.1320 C   0  0  0  0  0  2  0  0  0  0  0  0
  -28.6650  -12.3850   19.3400 C   0  0  0  0  0  2  0  0  0  0  0  0
  -28.0400  -13.4450   20.2850 C   0  0  0  0  0  3  0  0  0  0  0  0
  -28.9180  -13.7580   21.5070 C   0  0  0  0  0  2  0  0  0  0  0  0
  -30.2180  -14.2270   21.0050 N   0  0  0  0  0  0  0  0  0  0  0  0
  -31.9780  -15.5530   21.0790 O   0  0  0  0  0  0  0  0  0  0  0  0
  -25.5980  -14.0040   20.7470 C   0  0  0  0  0  0  0  0  0  0  0  0
  -24.5040  -13.2280   21.0050 C   0  0  0  0  0  0  0  0  0  0  0  0
  -24.9790  -11.8830   21.0770 C   0  0  0  0  0  0  0  0  0  0  0  0
  -26.6660  -13.1320   20.6530 N   0  0  0  0  0  0  0  0  0  0  0  0
  -26.2990  -11.8540   20.9310 N   0  0  0  0  0  0  0  0  0  0  0  0
  -24.2450  -10.6190   21.2120 C   0  0  0  0  0  0  0  0  0  0  0  0
  -24.5950   -9.6630   22.1910 C   0  0  0  0  0  3  0  0  0  0  0  0
  -23.8620   -8.4630   22.3150 C   0  0  0  0  0  3  0  0  0  0  0  0
  -22.7650   -8.2100   21.4570 C   0  0  0  0  0  0  0  0  0  0  0  0
  -22.4360   -9.1550   20.4710 C   0  0  0  0  0  3  0  0  0  0  0  0
  -23.1700  -10.3460   20.3440 C   0  0  0  0  0  3  0  0  0  0  0  0
  -22.0060   -7.0640   21.4900 O   0  0  0  0  0  0  0  0  0  0  0  0
  -21.8460   -6.3390   22.6440 C   0  0  0  0  0  0  0  0  0  0  0  0
  -21.2770   -6.9030   23.8070 C   0  0  0  0  0  3  0  0  0  0  0  0
  -21.0740   -6.1050   24.9500 C   0  0  0  0  0  3  0  0  0  0  0  0
  -21.4230   -4.7400   24.9270 C   0  0  0  0  0  0  0  0  0  0  0  0
  -21.9790   -4.1750   23.7680 C   0  0  0  0  0  3  0  0  0  0  0  0
  -22.1890   -4.9730   22.6290 C   0  0  0  0  0  0  0  0  0  0  0  0
  -22.7070   -4.4180   21.5070 F   0  0  0  0  0  0  0  0  0  0  0  0
  -21.2170   -3.9710   26.0220 F   0  0  0  0  0  0  0  0  0  0  0  0
  -23.0790  -13.6940   21.0760 C   0  0  0  0  0  0  0  0  0  0  0  0
  -22.2510  -13.0270   21.8720 N   0  0  0  0  0  0  0  0  0  0  0  0
  -22.7040  -14.6910   20.4570 O   0  0  0  0  0  0  0  0  0  0  0  0
  -22.5630  -12.2250   22.4000 H   0  0  0  0  0  0  0  0  0  0  0  0
  -21.2890  -13.3210   21.9610 H   0  0  0  0  0  0  0  0  0  0  0  0
  -25.7790  -15.3710   20.5530 N   0  0  0  0  0  0  0  0  0  0  0  0
  -25.0110  -16.0330   20.5810 H   0  0  0  0  0  0  0  0  0  0  0  0
  -26.6730  -15.8030   20.3510 H   0  0  0  0  0  0  0  0  0  0  0  0
  -31.1430  -16.3280   17.4520 C   0  0  0  0  0  1  0  0  0  0  0  0
  -29.7850  -16.0660   18.1200 C   0  0  0  0  0  2  0  0  0  0  0  0
  -29.0270  -21.3380   21.1610 C   0  0  0  0  0  3  0  0  0  0  0  0
  -28.8070  -22.9140   20.3270 C   0  0  0  0  0  3  0  0  0  0  0  0
  -28.1680  -24.5100   20.8380 C   0  0  0  0  0  2  0  0  0  0  0  0
  -28.3110  -26.0680   20.3490 O   0  0  0  0  0  0  0  0  0  0  0  0
  -24.9050  -32.0040   23.5180 C   0  0  0  0  0  0  0  0  0  0  0  0
  -27.2960  -27.1470   20.3990 C   0  0  0  0  0  0  0  0  0  0  0  0
  -23.6450  -30.6610   21.8810 C   0  0  0  0  0  3  0  0  0  0  0  0
  -25.0270  -29.0470   20.4160 C   0  0  0  0  0  0  0  0  0  0  0  0
  -26.2080  -30.8330   21.6780 C   0  0  0  0  0  2  0  0  0  0  0  0
  -26.2360  -29.4310   21.0100 C   0  0  0  0  0  0  0  0  0  0  0  0
  -27.3680  -28.5050   20.9740 C   0  0  0  0  0  3  0  0  0  0  0  0
  -26.0580  -26.9020   19.7650 C   0  0  0  0  0  3  0  0  0  0  0  0
  -24.9600  -27.7980   19.7780 C   0  0  0  0  0  3  0  0  0  0  0  0
  -23.8290  -29.9890   20.4930 C   0  0  0  0  0  2  0  0  0  0  0  0
  -24.9430  -31.1930   22.4140 N   0  0  0  0  0  0  0  0  0  0  0  0
  -23.8340  -32.3030   24.0690 O   0  0  0  0  0  0  0  0  0  0  0  0
  -22.9540  -29.6630   22.8470 C   0  0  0  0  0  0  0  0  0  0  0  0
  -21.6540  -29.3850   22.6340 N   0  0  0  0  0  0  0  0  0  0  0  0
  -23.5960  -29.1380   23.7620 O   0  0  0  0  0  0  0  0  0  0  0  0
  -21.1820  -29.8660   21.8790 H   0  0  0  0  0  0  0  0  0  0  0  0
  -18.4030  -27.7920   22.8400 C   0  0  0  0  0  0  0  0  0  0  0  0
  -20.8480  -28.4250   23.3970 C   0  0  0  0  0  3  0  0  0  0  0  0
  -21.1980  -26.9680   23.0120 C   0  0  0  0  0  2  0  0  0  0  0  0
  -20.3000  -26.4020   21.9080 C   0  0  0  0  0  2  0  0  0  0  0  0
  -18.8340  -26.4210   22.3480 C   0  0  0  0  0  2  0  0  0  0  0  0
  -19.3480  -28.7380   23.3180 C   0  0  0  0  0  0  0  0  0  0  0  0
  -18.8930  -30.0080   23.7350 C   0  0  0  0  0  3  0  0  0  0  0  0
  -17.5250  -30.3370   23.6810 C   0  0  0  0  0  3  0  0  0  0  0  0
  -16.5930  -29.3940   23.2110 C   0  0  0  0  0  3  0  0  0  0  0  0
  -17.0320  -28.1220   22.8020 C   0  0  0  0  0  3  0  0  0  0  0  0
  -26.2020  -32.6110   24.1330 C   0  0  0  0  0  3  0  0  0  0  0  0
  -26.7010  -31.8380   25.4170 C   0  0  1  0  0  0  0  0  0  0  0  0
  -25.5940  -31.6020   26.4730 C   0  0  0  0  0  1  0  0  0  0  0  0
  -27.2890  -30.4600   25.0370 C   0  0  0  0  0  1  0  0  0  0  0  0
  -27.8460  -32.6290   26.0920 C   0  0  0  0  0  1  0  0  0  0  0  0
  -25.9250  -34.0200   24.4690 N   0  0  0  0  0  0  0  0  0  0  0  0
  -26.2830  -35.0700   23.7200 C   0  0  0  0  0  0  0  0  0  0  0  0
  -26.9390  -34.9550   22.6820 O   0  0  0  0  0  0  0  0  0  0  0  0
  -25.3360  -34.1820   25.2730 H   0  0  0  0  0  0  0  0  0  0  0  0
  -24.5930  -36.9170   23.4210 C   0  0  0  0  0  1  0  0  0  0  0  0
  -25.8450  -36.4720   24.1940 C   0  0  0  0  0  3  0  0  0  0  0  0
  -28.0220  -37.3070   24.9700 C   0  0  0  0  0  1  0  0  0  0  0  0
  -26.9000  -37.5000   24.0540 N   0  0  0  0  0  0  0  0  0  0  0  0
  -26.5210  -38.4300   24.2080 H   0  0  0  0  0  0  0  0  0  0  0  0
  1  4  1  0
  2  9  1  0
  2  5  1  0
  3  6  1  0
  3  1  2  0
  4 47  1  0
  4  5  2  0
  5  8  1  0
  6  2  2  0
  7  3  1  0
  9 15  1  0
  9 16  2  0
 10 15  1  0
 11 12  1  0
 11 10  1  0
 13 12  1  0
 13 20  1  0
 13 14  1  0
 15 14  1  0
 17 18  2  0
 18 37  1  0
 18 19  1  0
 19 22  1  0
 20 17  1  0
 20 21  1  0
 21 19  2  0
 22 23  1  0
 23 24  2  0
 25 28  1  0
 25 24  1  0
 26 25  2  0
 27 26  1  0
 27 22  2  0
 28 29  1  0
 29 30  1  0
 30 31  2  0
 32 31  1  0
 32 36  1  0
 33 32  2  0
 34 29  2  0
 34 33  1  0
 35 34  1  0
 37 38  1  0
 38 41  1  0
 38 40  1  0
 39 37  2  0
 42 43  1  0
 42 17  1  0
 44 42  1  0
 45 46  1  0
 46  6  1  0
 48 49  1  0
 48 47  2  0
 50 52  1  0
 50 49  1  0
 51 62  2  0
 52 57  1  0
 53 61  1  0
 53 63  1  0
 54 60  1  0
 54 56  1  0
 55 61  1  0
 56 55  1  0
 57 56  2  0
 58 59  1  0
 58 52  2  0
 59 54  2  0
 60 53  1  0
 61 51  1  0
 63 65  2  0
 64 63  1  0
 66 64  1  0
 67 72  1  0
 68 64  1  0
 69 68  1  0
 70 71  1  0
 70 69  1  0
 71 67  1  0
 72 68  1  0
 72 73  2  0
 74 73  1  0
 75 74  2  0
 76 67  2  0
 76 75  1  0
 77 51  1  0
 77 82  1  0
 77 78  1  0
 78 81  1  1
 78 79  1  0
 80 78  1  0
 82 85  1  0
 83 87  1  0
 83 82  1  0
 84 83  2  0
 87 86  1  0
 89 87  1  0
 89 90  1  0
 89 88  1  0
M  ISO  4   2 100   9 100  49 101  50 101
M  END
>  <TORSDO>  (22) 
F 20

>  <SCORE>  (22) 
-12.860

>  <name>  (22) 
22

>  <ligand_id>  (22) 
22

>  <original_smiles>  (22) 
[H]c1c([H])c([H])c2c(c1[H])C([H])([H])C([H])([H])C([H])([H])C2([H])N([H])C(=O)C1([H])N(C(=O)C([H])(N([H])C(=O)C([H])(N([H])C([H])([H])[H])C([H])([H])[H])C(C([H])([H])[H])(C([H])([H])[H])C([H])([H])[H])C([H])([H])c2c([H])c(OC([H])([H])C([H])([H])C([H])([H])c3c([H])c(C([H])([H])[H])c(C([H])([H])C([H])([H])[H])c(C(=O)N4C([H])([H])C([H])([H])C([H])([H])C([H])(n5nc(-c6c([H])c([H])c(Oc7c([H])c([H])c(F)c([H])c7F)c([H])c6[H])c(C(=O)N([H])[H])c5N([H])[H])C4([H])[H])c3C([H])([H])[H])c([H])c([H])c2C1([H])[H]

>  <smiles>  (22) 
[H]c1c([H])c([H])c2c(c1[H])C([H])([H])C([H])([H])C([H])([H])C2([H])N([H])C(=O)C1([H])N(C(=O)C([H])(N([H])C(=O)C([H])(N([H])C([H])([H])[H])C([H])([H])[H])C(C([H])([H])[H])(C([H])([H])[H])C([H])([H])[H])C([H])([H])c2c([H])c(OC([H])([H])C([H])([H])C([H])([H])c3c([H])c(C([H])([H])[H])c(C([H])([H])C([H])([H])[H])c(C(=O)N4C([H])([H])C([H])([H])C([H])([H])C([H])(n5nc(-c6c([H])c([H])c(Oc7c([H])c([H])c(F)c([H])c7F)c([H])c6[H])c(C(=O)N([H])[H])c5N([H])[H])C4([H])[H])c3C([H])([H])[H])c([H])c([H])c2C1([H])[H]

$$$$
23:0:0
     RDKit          3D

 86 93  0  0  1  0  0  0  0  0999 V2000
  -28.9610  -23.0870   20.5010 C   0  0  0  0  0  0  0  0  0  0  0  0
  -29.8960  -23.4010   21.3000 N   0  0  0  0  0  0  0  0  0  0  0  0
  -30.4610  -22.6000   21.5560 H   0  0  0  0  0  0  0  0  0  0  0  0
  -28.8840  -21.3990   20.0530 C   0  0  0  0  0  2  0  0  0  0  0  0
  -29.2030  -19.7790   20.7170 C   0  0  0  0  0  2  0  0  0  0  0  0
  -31.3140  -18.5450   19.7560 C   0  0  0  0  0  1  0  0  0  0  0  0
  -29.8300  -18.2790   20.0490 C   0  0  0  0  0  3  0  0  0  0  0  0
  -29.6880  -16.6400   20.6860 C   0  0  0  0  0  2  0  0  0  0  0  0
  -30.4490  -15.1450   20.2930 C   0  0  0  0  0  0  0  0  0  0  0  0
  -30.3770  -12.7320   19.3900 C   0  0  0  0  0  2  0  0  0  0  0  0
  -29.4440  -12.6200   18.1570 C   0  0  0  0  0  2  0  0  0  0  0  0
  -27.9860  -12.3890   18.5920 C   0  0  0  0  0  2  0  0  0  0  0  0
  -27.5670  -13.3320   19.7480 C   0  0  0  0  0  3  0  0  0  0  0  0
  -28.6220  -13.4040   20.8730 C   0  0  0  0  0  2  0  0  0  0  0  0
  -29.8840  -13.8490   20.2670 N   0  0  0  0  0  0  0  0  0  0  0  0
  -31.6370  -15.1660   19.9470 O   0  0  0  0  0  0  0  0  0  0  0  0
  -25.1930  -13.9070   20.4950 C   0  0  0  0  0  0  0  0  0  0  0  0
  -24.1280  -13.1340   20.8680 C   0  0  0  0  0  0  0  0  0  0  0  0
  -24.5920  -11.7830   20.8460 C   0  0  0  0  0  0  0  0  0  0  0  0
  -26.2340  -13.0270   20.2560 N   0  0  0  0  0  0  0  0  0  0  0  0
  -25.8840  -11.7450   20.5380 N   0  0  0  0  0  0  0  0  0  0  0  0
  -23.8630  -10.5220   21.0450 C   0  0  0  0  0  0  0  0  0  0  0  0
  -24.3030   -9.5490   21.9680 C   0  0  0  0  0  3  0  0  0  0  0  0
  -23.5710   -8.3560   22.1560 C   0  0  0  0  0  3  0  0  0  0  0  0
  -22.3840   -8.1280   21.4210 C   0  0  0  0  0  0  0  0  0  0  0  0
  -21.9590   -9.0910   20.4880 C   0  0  0  0  0  3  0  0  0  0  0  0
  -22.6920  -10.2760   20.2980 C   0  0  0  0  0  3  0  0  0  0  0  0
  -21.6220   -6.9880   21.5190 O   0  0  0  0  0  0  0  0  0  0  0  0
  -21.6060   -6.2280   22.6600 C   0  0  0  0  0  0  0  0  0  0  0  0
  -21.2480   -6.7740   23.9120 C   0  0  0  0  0  3  0  0  0  0  0  0
  -21.1770   -5.9420   25.0480 C   0  0  0  0  0  3  0  0  0  0  0  0
  -21.4540   -4.5670   24.9330 C   0  0  0  0  0  0  0  0  0  0  0  0
  -21.8070   -4.0210   23.6870 C   0  0  0  0  0  3  0  0  0  0  0  0
  -21.8790   -4.8500   22.5530 C   0  0  0  0  0  0  0  0  0  0  0  0
  -22.1980   -4.3160   21.3490 F   0  0  0  0  0  0  0  0  0  0  0  0
  -21.3790   -3.7660   26.0220 F   0  0  0  0  0  0  0  0  0  0  0  0
  -22.7320  -13.6160   21.1320 C   0  0  0  0  0  0  0  0  0  0  0  0
  -22.0030  -12.9300   22.0040 N   0  0  0  0  0  0  0  0  0  0  0  0
  -22.2950  -14.6340   20.5980 O   0  0  0  0  0  0  0  0  0  0  0  0
  -22.3690  -12.1090   22.4590 H   0  0  0  0  0  0  0  0  0  0  0  0
  -21.0640  -13.2350   22.2230 H   0  0  0  0  0  0  0  0  0  0  0  0
  -25.3550  -15.2760   20.3100 N   0  0  0  0  0  0  0  0  0  0  0  0
  -24.5870  -15.9290   20.4270 H   0  0  0  0  0  0  0  0  0  0  0  0
  -26.2060  -15.7170   19.9840 H   0  0  0  0  0  0  0  0  0  0  0  0
  -27.9720  -24.4210   20.0210 C   0  0  0  0  0  2  0  0  0  0  0  0
  -28.2290  -25.9920   20.2740 O   0  0  0  0  0  0  0  0  0  0  0  0
  -24.6560  -31.8700   23.1950 C   0  0  0  0  0  0  0  0  0  0  0  0
  -27.2030  -27.0430   20.1940 C   0  0  0  0  0  0  0  0  0  0  0  0
  -23.4480  -30.4660   21.5690 C   0  0  0  0  0  3  0  0  0  0  0  0
  -24.8900  -28.8600   20.1550 C   0  0  0  0  0  0  0  0  0  0  0  0
  -26.0110  -30.6970   21.4020 C   0  0  0  0  0  2  0  0  0  0  0  0
  -26.0770  -29.2890   20.7600 C   0  0  0  0  0  0  0  0  0  0  0  0
  -27.2310  -28.3980   20.7580 C   0  0  0  0  0  3  0  0  0  0  0  0
  -25.9880  -26.7440   19.5400 C   0  0  0  0  0  3  0  0  0  0  0  0
  -24.8640  -27.6050   19.5250 C   0  0  0  0  0  3  0  0  0  0  0  0
  -23.6670  -29.7720   20.1980 C   0  0  0  0  0  2  0  0  0  0  0  0
  -24.7250  -31.0360   22.1080 N   0  0  0  0  0  0  0  0  0  0  0  0
  -23.5720  -32.1590   23.7250 O   0  0  0  0  0  0  0  0  0  0  0  0
  -22.7630  -29.4720   22.5430 C   0  0  0  0  0  0  0  0  0  0  0  0
  -21.4320  -29.3130   22.4300 N   0  0  0  0  0  0  0  0  0  0  0  0
  -23.4350  -28.8470   23.3660 O   0  0  0  0  0  0  0  0  0  0  0  0
  -20.9420  -29.8710   21.7460 H   0  0  0  0  0  0  0  0  0  0  0  0
  -18.0480  -28.1220   22.9670 C   0  0  0  0  0  0  0  0  0  0  0  0
  -20.6090  -28.3850   23.2140 C   0  0  0  0  0  3  0  0  0  0  0  0
  -20.7040  -26.9470   22.6550 C   0  0  0  0  0  2  0  0  0  0  0  0
  -19.5970  -26.6180   21.6480 C   0  0  0  0  0  2  0  0  0  0  0  0
  -18.2180  -26.7680   22.2990 C   0  0  0  0  0  2  0  0  0  0  0  0
  -19.1690  -28.8880   23.3820 C   0  0  0  0  0  0  0  0  0  0  0  0
  -18.9520  -30.1530   23.9710 C   0  0  0  0  0  3  0  0  0  0  0  0
  -17.6480  -30.6540   24.1430 C   0  0  0  0  0  3  0  0  0  0  0  0
  -16.5410  -29.8860   23.7400 C   0  0  0  0  0  3  0  0  0  0  0  0
  -16.7420  -28.6220   23.1600 C   0  0  0  0  0  3  0  0  0  0  0  0
  -25.9350  -32.5120   23.8130 C   0  0  0  0  0  3  0  0  0  0  0  0
  -25.6160  -33.9080   24.1610 N   0  0  0  0  0  0  0  0  0  0  0  0
  -25.9290  -34.9730   23.4100 C   0  0  0  0  0  0  0  0  0  0  0  0
  -26.5800  -34.8830   22.3650 O   0  0  0  0  0  0  0  0  0  0  0  0
  -25.0380  -34.0510   24.9760 H   0  0  0  0  0  0  0  0  0  0  0  0
  -24.1800  -36.7590   23.1240 C   0  0  0  0  0  1  0  0  0  0  0  0
  -25.4480  -36.3560   23.8940 C   0  0  0  0  0  3  0  0  0  0  0  0
  -27.6010  -37.2490   24.6680 C   0  0  0  0  0  1  0  0  0  0  0  0
  -26.4690  -37.4180   23.7610 N   0  0  0  0  0  0  0  0  0  0  0  0
  -26.0610  -38.3340   23.9310 H   0  0  0  0  0  0  0  0  0  0  0  0
  -26.4610  -31.7410   25.0860 C   0  0  1  0  0  0  0  0  0  0  0  0
  -25.3750  -31.5020   26.1630 C   0  0  0  0  0  1  0  0  0  0  0  0
  -27.0400  -30.3630   24.6950 C   0  0  0  0  0  1  0  0  0  0  0  0
  -27.6180  -32.5320   25.7390 C   0  0  0  0  0  1  0  0  0  0  0  0
  1  2  2  0
  2  3  1  0
  4  1  1  0
  4  5  1  0
  7  6  1  0
  7  8  1  0
  7  5  1  0
  9  8  1  0
 10 15  1  0
 11 12  1  0
 11 10  1  0
 13 12  1  0
 13 20  1  0
 13 14  1  0
 15  9  1  0
 15 14  1  0
 16  9  2  0
 17 18  2  0
 18 37  1  0
 19 18  1  0
 19 22  1  0
 20 17  1  0
 20 21  1  0
 21 19  2  0
 22 23  1  0
 23 24  2  0
 25 28  1  0
 25 24  1  0
 26 25  2  0
 27 26  1  0
 27 22  2  0
 28 29  1  0
 29 30  1  0
 30 31  2  0
 32 31  1  0
 32 36  1  0
 33 32  2  0
 34 29  2  0
 34 33  1  0
 35 34  1  0
 37 38  1  0
 38 41  1  0
 38 40  1  0
 39 37  2  0
 42 43  1  0
 42 17  1  0
 44 42  1  0
 45 46  1  0
 45  1  1  0
 47 58  2  0
 48 46  1  0
 48 53  1  0
 49 57  1  0
 49 59  1  0
 50 56  1  0
 50 52  1  0
 51 57  1  0
 52 51  1  0
 53 52  2  0
 54 48  2  0
 55 54  1  0
 55 50  2  0
 56 49  1  0
 57 47  1  0
 59 61  2  0
 60 59  1  0
 62 60  1  0
 63 72  2  0
 63 68  1  0
 64 60  1  0
 64 68  1  0
 65 64  1  0
 66 67  1  0
 66 65  1  0
 67 63  1  0
 68 69  2  0
 69 70  1  0
 71 70  2  0
 72 71  1  0
 73 47  1  0
 73 74  1  0
 73 83  1  0
 74 77  1  0
 75 79  1  0
 75 74  1  0
 76 75  2  0
 79 78  1  0
 81 79  1  0
 81 82  1  0
 81 80  1  0
 83 86  1  1
 83 84  1  0
 85 83  1  0
M  ISO  4   8 100   9 100  45 101  46 101
M  END
>  <TORSDO>  (23) 
F 21

>  <SCORE>  (23) 
-15.949

>  <name>  (23) 
23

>  <ligand_id>  (23) 
23

>  <original_smiles>  (23) 
[H]N=C(C([H])([H])Oc1c([H])c([H])c2c(c1[H])C([H])([H])N(C(=O)C([H])(N([H])C(=O)C([H])(N([H])C([H])([H])[H])C([H])([H])[H])C(C([H])([H])[H])(C([H])([H])[H])C([H])([H])[H])C([H])(C(=O)N([H])C1([H])c3c([H])c([H])c([H])c([H])c3C([H])([H])C([H])([H])C1([H])[H])C2([H])[H])C([H])([H])C([H])([H])C([H])(C([H])([H])[H])C([H])([H])C(=O)N1C([H])([H])C([H])([H])C([H])([H])C([H])(n2nc(-c3c([H])c([H])c(Oc4c([H])c([H])c(F)c([H])c4F)c([H])c3[H])c(C(=O)N([H])[H])c2N([H])[H])C1([H])[H]

>  <smiles>  (23) 
[H]N=C(C([H])([H])Oc1c([H])c([H])c2c(c1[H])C([H])([H])N(C(=O)C([H])(N([H])C(=O)C([H])(N([H])C([H])([H])[H])C([H])([H])[H])C(C([H])([H])[H])(C([H])([H])[H])C([H])([H])[H])C([H])(C(=O)N([H])C1([H])c3c([H])c([H])c([H])c([H])c3C([H])([H])C([H])([H])C1([H])[H])C2([H])[H])C([H])([H])C([H])([H])C([H])(C([H])([H])[H])C([H])([H])C(=O)N1C([H])([H])C([H])([H])C([H])([H])C([H])(n2nc(-c3c([H])c([H])c(Oc4c([H])c([H])c(F)c([H])c4F)c([H])c3[H])c(C(=O)N([H])[H])c2N([H])[H])C1([H])[H]

$$$$
24:0:0
     RDKit          3D

 91100  0  0  1  0  0  0  0  0999 V2000
  -29.8270  -22.9420   18.9980 C   0  0  0  0  0  3  0  0  0  0  0  0
  -29.5480  -24.3720   18.8400 C   0  0  0  0  0  3  0  0  0  0  0  0
  -27.7250  -24.1940   20.2690 C   0  0  0  0  0  3  0  0  0  0  0  0
  -29.0890  -22.0130   19.8190 C   0  0  0  0  0  0  0  0  0  0  0  0
  -28.4840  -25.1250   19.4630 C   0  0  0  0  0  0  0  0  0  0  0  0
  -27.9990  -22.7440   20.4490 C   0  0  0  0  0  0  0  0  0  0  0  0
  -30.9450  -15.6660   20.2220 C   0  0  0  0  0  0  0  0  0  0  0  0
  -30.8410  -13.2320   19.4460 C   0  0  0  0  0  2  0  0  0  0  0  0
  -29.9610  -13.0090   18.1980 C   0  0  0  0  0  2  0  0  0  0  0  0
  -28.5010  -12.7700   18.6170 C   0  0  0  0  0  2  0  0  0  0  0  0
  -28.0200  -13.7830   19.6890 C   0  0  0  0  0  3  0  0  0  0  0  0
  -29.0430  -13.9910   20.8270 C   0  0  0  0  0  2  0  0  0  0  0  0
  -30.2930  -14.4190   20.1860 N   0  0  0  0  0  0  0  0  0  0  0  0
  -32.1690  -15.5770   20.0490 O   0  0  0  0  0  0  0  0  0  0  0  0
  -28.5570  -19.1420   20.1870 C   0  0  0  0  0  2  0  0  0  0  0  0
  -30.6890  -19.6720   19.3450 C   0  0  0  0  0  2  0  0  0  0  0  0
  -29.0710  -17.6290   20.6370 C   0  0  0  0  0  2  0  0  0  0  0  0
  -31.2420  -18.2130   19.8320 C   0  0  0  0  0  2  0  0  0  0  0  0
  -29.5460  -20.4070   20.1580 C   0  0  0  0  0  3  0  0  0  0  0  0
  -30.3520  -17.0030   20.1080 N   0  0  0  0  0  0  0  0  0  0  0  0
  -25.6510  -14.3420   20.4510 C   0  0  0  0  0  0  0  0  0  0  0  0
  -24.5800  -13.5640   20.7900 C   0  0  0  0  0  0  0  0  0  0  0  0
  -25.0360  -12.2110   20.7150 C   0  0  0  0  0  0  0  0  0  0  0  0
  -26.6880  -13.4670   20.1850 N   0  0  0  0  0  0  0  0  0  0  0  0
  -26.3280  -12.1760   20.4110 N   0  0  0  0  0  0  0  0  0  0  0  0
  -24.2950  -10.9490   20.8560 C   0  0  0  0  0  0  0  0  0  0  0  0
  -24.6710   -9.9730   21.8040 C   0  0  0  0  0  3  0  0  0  0  0  0
  -23.9290   -8.7790   21.9350 C   0  0  0  0  0  3  0  0  0  0  0  0
  -22.7970   -8.5520   21.1160 C   0  0  0  0  0  0  0  0  0  0  0  0
  -22.4410   -9.5180   20.1590 C   0  0  0  0  0  3  0  0  0  0  0  0
  -23.1830  -10.7030   20.0260 C   0  0  0  0  0  3  0  0  0  0  0  0
  -22.0320   -7.4120   21.1550 O   0  0  0  0  0  0  0  0  0  0  0  0
  -21.8650   -6.6960   22.3140 C   0  0  0  0  0  0  0  0  0  0  0  0
  -21.2760   -7.2670   23.4630 C   0  0  0  0  0  3  0  0  0  0  0  0
  -21.0590   -6.4760   24.6090 C   0  0  0  0  0  3  0  0  0  0  0  0
  -21.4220   -5.1160   24.6060 C   0  0  0  0  0  0  0  0  0  0  0  0
  -22.0040   -4.5460   23.4610 C   0  0  0  0  0  3  0  0  0  0  0  0
  -22.2220   -5.3330   22.3170 C   0  0  0  0  0  0  0  0  0  0  0  0
  -22.7640   -4.7730   21.2090 F   0  0  0  0  0  0  0  0  0  0  0  0
  -21.2090   -4.3550   25.7040 F   0  0  0  0  0  0  0  0  0  0  0  0
  -23.1850  -14.0450   21.0650 C   0  0  0  0  0  0  0  0  0  0  0  0
  -22.4440  -13.3290   21.9030 N   0  0  0  0  0  0  0  0  0  0  0  0
  -22.7640  -15.0920   20.5760 O   0  0  0  0  0  0  0  0  0  0  0  0
  -22.7990  -12.4830   22.3220 H   0  0  0  0  0  0  0  0  0  0  0  0
  -21.5090  -13.6340   22.1300 H   0  0  0  0  0  0  0  0  0  0  0  0
  -25.8220  -15.7170   20.3160 N   0  0  0  0  0  0  0  0  0  0  0  0
  -25.0570  -16.3710   20.4380 H   0  0  0  0  0  0  0  0  0  0  0  0
  -26.6650  -16.1560   19.9720 H   0  0  0  0  0  0  0  0  0  0  0  0
  -26.0930  -22.5400   21.9150 C   0  0  0  0  0  1  0  0  0  0  0  0
  -27.2350  -21.9650   21.2920 O   0  0  0  0  0  0  0  0  0  0  0  0
  -28.4000  -26.6190   19.3980 O   0  0  0  0  0  0  0  0  0  0  0  0
  -24.7560  -31.8920   23.1670 C   0  0  0  0  0  0  0  0  0  0  0  0
  -27.2950  -27.5540   19.5360 C   0  0  0  0  0  0  0  0  0  0  0  0
  -23.5260  -30.6790   21.4080 C   0  0  0  0  0  3  0  0  0  0  0  0
  -24.9500  -29.2890   19.7690 C   0  0  0  0  0  0  0  0  0  0  0  0
  -26.0730  -30.9840   21.2070 C   0  0  0  0  0  2  0  0  0  0  0  0
  -26.1410  -29.6720   20.3980 C   0  0  0  0  0  0  0  0  0  0  0  0
  -27.3080  -28.8230   20.2640 C   0  0  0  0  0  3  0  0  0  0  0  0
  -26.0760  -27.2850   18.8810 C   0  0  0  0  0  3  0  0  0  0  0  0
  -24.9320  -28.1130   18.9980 C   0  0  0  0  0  3  0  0  0  0  0  0
  -23.7180  -30.1660   19.9540 C   0  0  0  0  0  2  0  0  0  0  0  0
  -24.8070  -31.2040   21.9830 N   0  0  0  0  0  0  0  0  0  0  0  0
  -23.6830  -32.0960   23.7540 O   0  0  0  0  0  0  0  0  0  0  0  0
  -22.8860  -29.5590   22.2660 C   0  0  0  0  0  0  0  0  0  0  0  0
  -21.5590  -29.3730   22.1450 N   0  0  0  0  0  0  0  0  0  0  0  0
  -23.5870  -28.8620   23.0040 O   0  0  0  0  0  0  0  0  0  0  0  0
  -21.0470  -29.9910   21.5310 H   0  0  0  0  0  0  0  0  0  0  0  0
  -18.2080  -28.0800   22.6230 C   0  0  0  0  0  0  0  0  0  0  0  0
  -20.7740  -28.3360   22.8230 C   0  0  0  0  0  3  0  0  0  0  0  0
  -20.8610  -26.9900   22.0650 C   0  0  0  0  0  2  0  0  0  0  0  0
  -19.7230  -26.7880   21.0610 C   0  0  0  0  0  2  0  0  0  0  0  0
  -18.3660  -26.8320   21.7710 C   0  0  0  0  0  2  0  0  0  0  0  0
  -19.3370  -28.7940   23.1030 C   0  0  0  0  0  0  0  0  0  0  0  0
  -19.1330  -29.9650   23.8650 C   0  0  0  0  0  3  0  0  0  0  0  0
  -17.8320  -30.4230   24.1470 C   0  0  0  0  0  3  0  0  0  0  0  0
  -16.7180  -29.7040   23.6810 C   0  0  0  0  0  3  0  0  0  0  0  0
  -16.9070  -28.5340   22.9260 C   0  0  0  0  0  3  0  0  0  0  0  0
  -26.0430  -32.4710   23.8310 C   0  0  0  0  0  3  0  0  0  0  0  0
  -25.7230  -33.8180   24.3320 N   0  0  0  0  0  0  0  0  0  0  0  0
  -26.0070  -34.9610   23.6930 C   0  0  0  0  0  0  0  0  0  0  0  0
  -26.6310  -34.9920   22.6290 O   0  0  0  0  0  0  0  0  0  0  0  0
  -25.1600  -33.8650   25.1680 H   0  0  0  0  0  0  0  0  0  0  0  0
  -24.2330  -36.7480   23.6440 C   0  0  0  0  0  1  0  0  0  0  0  0
  -25.5250  -36.2790   24.3340 C   0  0  0  0  0  3  0  0  0  0  0  0
  -27.6800  -37.1200   25.1590 C   0  0  0  0  0  1  0  0  0  0  0  0
  -26.5320  -37.3610   24.2880 N   0  0  0  0  0  0  0  0  0  0  0  0
  -26.1160  -38.2510   24.5490 H   0  0  0  0  0  0  0  0  0  0  0  0
  -26.5960  -31.5690   25.0040 C   0  0  1  0  0  0  0  0  0  0  0  0
  -25.5300  -31.2060   26.0660 C   0  0  0  0  0  1  0  0  0  0  0  0
  -27.1770  -30.2460   24.4550 C   0  0  0  0  0  1  0  0  0  0  0  0
  -27.7560  -32.2970   25.7220 C   0  0  0  0  0  1  0  0  0  0  0  0
  1  4  1  0
  2  1  2  0
  2  5  1  0
  3  6  1  0
  4  6  2  0
  5  3  2  0
  6 50  1  0
  8 13  1  0
  9 10  1  0
  9  8  1  0
 11 10  1  0
 11 24  1  0
 11 12  1  0
 13  7  1  0
 13 12  1  0
 14  7  2  0
 15 17  1  0
 16 18  1  0
 16 19  1  0
 18 20  1  0
 19  4  1  0
 19 15  1  0
 20  7  1  0
 20 17  1  0
 21 22  2  0
 22 41  1  0
 23 22  1  0
 23 26  1  0
 24 25  1  0
 24 21  1  0
 25 23  2  0
 26 27  1  0
 27 28  2  0
 29 32  1  0
 29 28  1  0
 30 29  2  0
 31 30  1  0
 31 26  2  0
 32 33  1  0
 33 38  2  0
 33 34  1  0
 34 35  2  0
 36 35  1  0
 36 40  1  0
 37 36  2  0
 38 37  1  0
 39 38  1  0
 41 42  1  0
 42 45  1  0
 42 44  1  0
 43 41  2  0
 46 47  1  0
 46 21  1  0
 48 46  1  0
 50 49  1  0
 51  5  1  0
 51 53  1  0
 52 63  2  0
 53 58  1  0
 54 62  1  0
 54 64  1  0
 55 61  1  0
 55 57  1  0
 56 62  1  0
 57 56  1  0
 58 57  2  0
 59 60  1  0
 59 53  2  0
 60 55  2  0
 61 54  1  0
 62 52  1  0
 64 66  2  0
 65 64  1  0
 67 65  1  0
 68 77  2  0
 68 73  1  0
 69 65  1  0
 69 73  1  0
 70 69  1  0
 71 72  1  0
 71 70  1  0
 72 68  1  0
 73 74  2  0
 74 75  1  0
 76 75  2  0
 77 76  1  0
 78 52  1  0
 78 79  1  0
 78 88  1  0
 79 82  1  0
 80 79  1  0
 80 84  1  0
 81 80  2  0
 84 83  1  0
 86 84  1  0
 86 87  1  0
 86 85  1  0
 88 91  1  1
 88 89  1  0
 90 88  1  0
M  ISO  4   5 101   7 100  20 100  51 101
M  END
>  <TORSDO>  (24) 
F 17

>  <SCORE>  (24) 
-13.002

>  <name>  (24) 
24

>  <ligand_id>  (24) 
24

>  <original_smiles>  (24) 
[H]c1c([H])c([H])c2c(c1[H])C([H])([H])C([H])([H])C([H])([H])C2([H])N([H])C(=O)C1([H])N(C(=O)C([H])(N([H])C(=O)C([H])(N([H])C([H])([H])[H])C([H])([H])[H])C(C([H])([H])[H])(C([H])([H])[H])C([H])([H])[H])C([H])([H])c2c([H])c(Oc3c([H])c([H])c(C4([H])C([H])([H])C([H])([H])N(C(=O)N5C([H])([H])C([H])([H])C([H])([H])C([H])(n6nc(-c7c([H])c([H])c(Oc8c([H])c([H])c(F)c([H])c8F)c([H])c7[H])c(C(=O)N([H])[H])c6N([H])[H])C5([H])[H])C([H])([H])C4([H])[H])c(OC([H])([H])[H])c3[H])c([H])c([H])c2C1([H])[H]

>  <smiles>  (24) 
[H]c1c([H])c([H])c2c(c1[H])C([H])([H])C([H])([H])C([H])([H])C2([H])N([H])C(=O)C1([H])N(C(=O)C([H])(N([H])C(=O)C([H])(N([H])C([H])([H])[H])C([H])([H])[H])C(C([H])([H])[H])(C([H])([H])[H])C([H])([H])[H])C([H])([H])c2c([H])c(Oc3c([H])c([H])c(C4([H])C([H])([H])C([H])([H])N(C(=O)N5C([H])([H])C([H])([H])C([H])([H])C([H])(n6nc(-c7c([H])c([H])c(Oc8c([H])c([H])c(F)c([H])c8F)c([H])c7[H])c(C(=O)N([H])[H])c6N([H])[H])C5([H])[H])C([H])([H])C4([H])[H])c(OC([H])([H])[H])c3[H])c([H])c([H])c2C1([H])[H]

$$$$
25:0:0
     RDKit          3D

 92100  0  0  1  0  0  0  0  0999 V2000
  -28.8780  -23.2860   20.8670 C   0  0  0  0  0  3  0  0  0  0  0  0
  -28.6480  -24.4330   20.0790 C   0  0  0  0  0  3  0  0  0  0  0  0
  -29.3560  -24.7100   22.7820 C   0  0  0  0  0  3  0  0  0  0  0  0
  -29.2480  -23.4180   22.2250 C   0  0  0  0  0  0  0  0  0  0  0  0
  -29.1480  -25.8600   21.9940 C   0  0  0  0  0  0  0  0  0  0  0  0
  -28.7790  -25.7230   20.6310 C   0  0  0  0  0  0  0  0  0  0  0  0
  -29.3510  -27.2210   22.6320 C   0  0  0  0  0  1  0  0  0  0  0  0
  -29.5030  -22.2360   23.0940 C   0  0  0  0  0  0  0  0  0  0  0  0
  -29.3930  -22.2700   24.3240 O   0  0  0  0  0  0  0  0  0  0  0  0
  -29.9770  -20.9470   22.4130 C   0  0  0  0  0  2  0  0  0  0  0  0
  -31.0710  -20.2160   23.2170 C   0  0  0  0  0  2  0  0  0  0  0  0
  -31.7020  -19.0490   22.4450 C   0  0  0  0  0  2  0  0  0  0  0  0
  -30.7390  -17.8700   22.2510 C   0  0  0  0  0  2  0  0  0  0  0  0
  -31.3610  -16.7450   21.4130 C   0  0  0  0  0  2  0  0  0  0  0  0
  -30.4020  -15.5520   21.2310 C   0  0  0  0  0  2  0  0  0  0  0  0
  -30.8860  -14.5080   20.2110 C   0  0  0  0  0  0  0  0  0  0  0  0
  -30.4550  -12.4230   18.9570 C   0  0  0  0  0  2  0  0  0  0  0  0
  -29.4760  -12.6790   17.7950 C   0  0  0  0  0  2  0  0  0  0  0  0
  -28.0160  -12.5750   18.2760 C   0  0  0  0  0  2  0  0  0  0  0  0
  -27.7500  -13.4100   19.5580 C   0  0  0  0  0  3  0  0  0  0  0  0
  -28.8300  -13.1280   20.6250 C   0  0  0  0  0  2  0  0  0  0  0  0
  -30.1490  -13.3840   20.0250 N   0  0  0  0  0  0  0  0  0  0  0  0
  -31.9190  -14.7360   19.5690 O   0  0  0  0  0  0  0  0  0  0  0  0
  -25.3860  -14.0820   20.3300 C   0  0  0  0  0  0  0  0  0  0  0  0
  -24.3110  -13.3370   20.7370 C   0  0  0  0  0  0  0  0  0  0  0  0
  -24.7390  -11.9750   20.7020 C   0  0  0  0  0  0  0  0  0  0  0  0
  -26.4040  -13.1750   20.0770 N   0  0  0  0  0  0  0  0  0  0  0  0
  -26.0180  -11.9020   20.3530 N   0  0  0  0  0  0  0  0  0  0  0  0
  -23.9900  -10.7310   20.9240 C   0  0  0  0  0  0  0  0  0  0  0  0
  -24.4320   -9.7580   21.8470 C   0  0  0  0  0  3  0  0  0  0  0  0
  -23.6860   -8.5770   22.0550 C   0  0  0  0  0  3  0  0  0  0  0  0
  -22.4830   -8.3640   21.3410 C   0  0  0  0  0  0  0  0  0  0  0  0
  -22.0600   -9.3250   20.4080 C   0  0  0  0  0  3  0  0  0  0  0  0
  -22.8060  -10.4960   20.1970 C   0  0  0  0  0  3  0  0  0  0  0  0
  -21.7070   -7.2360   21.4590 O   0  0  0  0  0  0  0  0  0  0  0  0
  -21.6790   -6.4980   22.6160 C   0  0  0  0  0  0  0  0  0  0  0  0
  -21.3250   -7.0740   23.8560 C   0  0  0  0  0  3  0  0  0  0  0  0
  -21.2400   -6.2660   25.0080 C   0  0  0  0  0  3  0  0  0  0  0  0
  -21.5000   -4.8850   24.9220 C   0  0  0  0  0  0  0  0  0  0  0  0
  -21.8490   -4.3110   23.6870 C   0  0  0  0  0  3  0  0  0  0  0  0
  -21.9350   -5.1150   22.5370 C   0  0  0  0  0  0  0  0  0  0  0  0
  -22.2500   -4.5530   21.3450 F   0  0  0  0  0  0  0  0  0  0  0  0
  -21.4130   -4.1080   26.0250 F   0  0  0  0  0  0  0  0  0  0  0  0
  -22.9350  -13.8480   21.0510 C   0  0  0  0  0  0  0  0  0  0  0  0
  -22.2220  -13.1790   21.9500 N   0  0  0  0  0  0  0  0  0  0  0  0
  -22.5000  -14.8770   20.5320 O   0  0  0  0  0  0  0  0  0  0  0  0
  -22.5860  -12.3480   22.3910 H   0  0  0  0  0  0  0  0  0  0  0  0
  -21.2980  -13.5040   22.2020 H   0  0  0  0  0  0  0  0  0  0  0  0
  -25.5780  -15.4460   20.1390 N   0  0  0  0  0  0  0  0  0  0  0  0
  -24.8360  -16.1250   20.2680 H   0  0  0  0  0  0  0  0  0  0  0  0
  -26.4380  -15.8600   19.7980 H   0  0  0  0  0  0  0  0  0  0  0  0
  -28.5870  -26.8060   19.8090 O   0  0  0  0  0  0  0  0  0  0  0  0
  -24.7310  -31.7420   23.1320 C   0  0  0  0  0  0  0  0  0  0  0  0
  -27.3870  -27.4660   19.8810 C   0  0  0  0  0  0  0  0  0  0  0  0
  -23.4990  -30.3360   21.5110 C   0  0  0  0  0  3  0  0  0  0  0  0
  -24.9390  -28.8630   20.0060 C   0  0  0  0  0  0  0  0  0  0  0  0
  -25.9970  -30.7860   21.2120 C   0  0  0  0  0  2  0  0  0  0  0  0
  -26.0990  -29.4310   20.5470 C   0  0  0  0  0  0  0  0  0  0  0  0
  -27.3260  -28.7460   20.4680 C   0  0  0  0  0  3  0  0  0  0  0  0
  -26.2160  -26.8970   19.3400 C   0  0  0  0  0  3  0  0  0  0  0  0
  -24.9900  -27.5940   19.3960 C   0  0  0  0  0  3  0  0  0  0  0  0
  -23.6730  -29.6790   20.1130 C   0  0  0  0  0  2  0  0  0  0  0  0
  -24.7640  -30.9660   22.0120 N   0  0  0  0  0  0  0  0  0  0  0  0
  -23.6670  -31.9740   23.7200 O   0  0  0  0  0  0  0  0  0  0  0  0
  -22.9170  -29.2800   22.4770 C   0  0  0  0  0  0  0  0  0  0  0  0
  -21.6070  -29.0200   22.3540 N   0  0  0  0  0  0  0  0  0  0  0  0
  -23.6400  -28.6980   23.2900 O   0  0  0  0  0  0  0  0  0  0  0  0
  -21.0840  -29.5460   21.6680 H   0  0  0  0  0  0  0  0  0  0  0  0
  -18.3330  -27.5510   22.7790 C   0  0  0  0  0  0  0  0  0  0  0  0
  -20.8470  -28.0380   23.1270 C   0  0  0  0  0  3  0  0  0  0  0  0
  -21.0930  -26.6050   22.6020 C   0  0  0  0  0  2  0  0  0  0  0  0
  -20.0600  -26.1580   21.5630 C   0  0  0  0  0  2  0  0  0  0  0  0
  -18.6490  -26.2020   22.1550 C   0  0  0  0  0  2  0  0  0  0  0  0
  -19.3660  -28.4190   23.2210 C   0  0  0  0  0  0  0  0  0  0  0  0
  -19.0190  -29.6770   23.7610 C   0  0  0  0  0  3  0  0  0  0  0  0
  -17.6720  -30.0690   23.8640 C   0  0  0  0  0  3  0  0  0  0  0  0
  -16.6530  -29.2000   23.4380 C   0  0  0  0  0  3  0  0  0  0  0  0
  -16.9830  -27.9430   22.9020 C   0  0  0  0  0  3  0  0  0  0  0  0
  -26.0250  -32.3940   23.7150 C   0  0  0  0  0  3  0  0  0  0  0  0
  -25.6870  -33.7690   24.1040 N   0  0  0  0  0  0  0  0  0  0  0  0
  -25.9690  -34.8570   23.3740 C   0  0  0  0  0  0  0  0  0  0  0  0
  -26.6130  -34.8080   22.3220 O   0  0  0  0  0  0  0  0  0  0  0  0
  -25.1080  -33.8770   24.9240 H   0  0  0  0  0  0  0  0  0  0  0  0
  -24.1800  -36.6080   23.1290 C   0  0  0  0  0  1  0  0  0  0  0  0
  -25.4550  -36.2130   23.8920 C   0  0  0  0  0  3  0  0  0  0  0  0
  -27.5900  -37.1290   24.6900 C   0  0  0  0  0  1  0  0  0  0  0  0
  -26.4540  -37.3000   23.7870 N   0  0  0  0  0  0  0  0  0  0  0  0
  -26.0290  -38.2020   23.9810 H   0  0  0  0  0  0  0  0  0  0  0  0
  -26.6270  -31.5970   24.9360 C   0  0  1  0  0  0  0  0  0  0  0  0
  -25.5960  -31.2870   26.0460 C   0  0  0  0  0  1  0  0  0  0  0  0
  -27.2320  -30.2550   24.4630 C   0  0  0  0  0  1  0  0  0  0  0  0
  -27.7850  -32.4060   25.5690 C   0  0  0  0  0  1  0  0  0  0  0  0
  1  4  1  0
  2  6  1  0
  2  1  2  0
  4  3  2  0
  4  8  1  0
  5  7  1  0
  5  3  1  0
  6  5  2  0
  8  9  2  0
 10  8  1  0
 10 11  1  0
 12 11  1  0
 13 12  1  0
 14 13  1  0
 15 14  1  0
 16 15  1  0
 17 22  1  0
 18 19  1  0
 18 17  1  0
 20 19  1  0
 20 27  1  0
 20 21  1  0
 22 16  1  0
 22 21  1  0
 23 16  2  0
 24 25  2  0
 25 44  1  0
 26 25  1  0
 26 29  1  0
 27 24  1  0
 27 28  1  0
 28 26  2  0
 29 30  1  0
 30 31  2  0
 32 35  1  0
 32 31  1  0
 33 32  2  0
 34 33  1  0
 34 29  2  0
 35 36  1  0
 36 37  1  0
 37 38  2  0
 39 38  1  0
 39 43  1  0
 40 39  2  0
 41 36  2  0
 41 40  1  0
 42 41  1  0
 44 45  1  0
 45 48  1  0
 45 47  1  0
 46 44  2  0
 49 50  1  0
 49 24  1  0
 51 49  1  0
 52 54  1  0
 52  6  1  0
 53 64  2  0
 54 59  1  0
 55 63  1  0
 55 65  1  0
 56 62  1  0
 56 58  1  0
 57 63  1  0
 58 57  1  0
 59 58  2  0
 60 61  1  0
 60 54  2  0
 61 56  2  0
 62 55  1  0
 63 53  1  0
 65 67  2  0
 66 65  1  0
 68 66  1  0
 69 78  2  0
 69 74  1  0
 70 66  1  0
 70 74  1  0
 71 70  1  0
 72 73  1  0
 72 71  1  0
 73 69  1  0
 74 75  2  0
 75 76  1  0
 77 76  2  0
 78 77  1  0
 79 53  1  0
 79 80  1  0
 79 89  1  0
 80 83  1  0
 81 85  1  0
 81 80  1  0
 82 81  2  0
 85 84  1  0
 87 85  1  0
 87 88  1  0
 87 86  1  0
 89 92  1  1
 89 90  1  0
 91 89  1  0
M  ISO  4   6 101  15 100  16 100  52 101
M  END
>  <TORSDO>  (25) 
F 23

>  <SCORE>  (25) 
-11.985

>  <name>  (25) 
25

>  <ligand_id>  (25) 
25

>  <original_smiles>  (25) 
[H]c1c([H])c([H])c2c(c1[H])C([H])([H])C([H])([H])C([H])([H])C2([H])N([H])C(=O)C1([H])N(C(=O)C([H])(N([H])C(=O)C([H])(N([H])C([H])([H])[H])C([H])([H])[H])C(C([H])([H])[H])(C([H])([H])[H])C([H])([H])[H])C([H])([H])c2c([H])c(Oc3c([H])c([H])c(C(=O)C([H])([H])C([H])([H])C([H])([H])C([H])([H])C([H])([H])C([H])([H])C(=O)N4C([H])([H])C([H])([H])C([H])([H])C([H])(n5nc(-c6c([H])c([H])c(Oc7c([H])c([H])c(F)c([H])c7F)c([H])c6[H])c(C(=O)N([H])[H])c5N([H])[H])C4([H])[H])c([H])c3C([H])([H])[H])c([H])c([H])c2C1([H])[H]

>  <smiles>  (25) 
[H]c1c([H])c([H])c2c(c1[H])C([H])([H])C([H])([H])C([H])([H])C2([H])N([H])C(=O)C1([H])N(C(=O)C([H])(N([H])C(=O)C([H])(N([H])C([H])([H])[H])C([H])([H])[H])C(C([H])([H])[H])(C([H])([H])[H])C([H])([H])[H])C([H])([H])c2c([H])c(Oc3c([H])c([H])c(C(=O)C([H])([H])C([H])([H])C([H])([H])C([H])([H])C([H])([H])C([H])([H])C(=O)N4C([H])([H])C([H])([H])C([H])([H])C([H])(n5nc(-c6c([H])c([H])c(Oc7c([H])c([H])c(F)c([H])c7F)c([H])c6[H])c(C(=O)N([H])[H])c5N([H])[H])C4([H])[H])c([H])c3C([H])([H])[H])c([H])c([H])c2C1([H])[H]

$$$$
26:0:0
     RDKit          3D

 98108  0  0  1  0  0  0  0  0999 V2000
  -29.1670  -21.6090   22.0560 C   0  0  0  0  0  0  0  0  0  0  0  0
  -28.1680  -22.0870   23.0870 C   0  0  0  0  0  2  0  0  0  0  0  0
  -26.9440  -22.4780   22.2480 C   0  0  0  0  0  2  0  0  0  0  0  0
  -27.8490  -24.2200   20.6350 C   0  0  0  0  0  2  0  0  0  0  0  0
  -28.5230  -21.5700   20.6690 C   0  0  0  0  0  3  0  0  0  0  0  0
  -29.8740  -23.3550   19.3880 C   0  0  0  0  0  3  0  0  0  0  0  0
  -28.6720  -24.6510   19.3830 C   0  0  0  0  0  3  0  0  0  0  0  0
  -29.5210  -21.6040   19.4730 C   0  0  2  0  0  0  0  0  0  0  0  0
  -27.4010  -22.6960   20.7770 C   0  0  1  0  0  0  0  0  0  0  0  0
  -30.9180  -23.7200   18.3200 C   0  0  0  0  0  1  0  0  0  0  0  0
  -28.7220  -21.3750   18.1700 C   0  0  0  0  0  1  0  0  0  0  0  0
  -26.1640  -22.4240   19.8810 C   0  0  0  0  0  1  0  0  0  0  0  0
  -30.3340  -21.3110   22.3270 O   0  0  0  0  0  0  0  0  0  0  0  0
  -30.5080  -18.6920   19.9100 C   0  0  0  0  0  3  0  0  0  0  0  0
  -31.6270  -20.3210   18.5250 C   0  0  0  0  0  3  0  0  0  0  0  0
  -31.4020  -17.4850   19.5020 C   0  0  0  0  0  0  0  0  0  0  0  0
  -30.5450  -20.1640   19.4030 C   0  0  0  0  0  0  0  0  0  0  0  0
  -32.4750  -19.2790   18.0910 C   0  0  0  0  0  0  0  0  0  0  0  0
  -32.3320  -17.9160   18.4850 C   0  0  0  0  0  0  0  0  0  0  0  0
  -33.6260  -19.7050   17.1820 C   0  0  0  0  0  1  0  0  0  0  0  0
  -33.2850  -16.9230   17.7910 C   0  0  0  0  0  1  0  0  0  0  0  0
  -31.7630  -15.9440   20.1110 C   0  0  0  0  0  0  0  0  0  0  0  0
  -31.6400  -13.4650   19.3910 C   0  0  0  0  0  2  0  0  0  0  0  0
  -30.7280  -13.1350   18.1840 C   0  0  0  0  0  2  0  0  0  0  0  0
  -29.2750  -12.9050   18.6400 C   0  0  0  0  0  2  0  0  0  0  0  0
  -28.8130  -13.9590   19.6820 C   0  0  0  0  0  3  0  0  0  0  0  0
  -29.8650  -14.2410   20.7700 C   0  0  0  0  0  2  0  0  0  0  0  0
  -31.0840  -14.6920   20.0700 N   0  0  0  0  0  0  0  0  0  0  0  0
  -32.9820  -15.7570   20.2180 O   0  0  0  0  0  0  0  0  0  0  0  0
  -26.5110  -14.5640   20.5880 C   0  0  0  0  0  0  0  0  0  0  0  0
  -25.4210  -13.8130   20.9270 C   0  0  0  0  0  0  0  0  0  0  0  0
  -25.8140  -12.4480   20.7690 C   0  0  0  0  0  0  0  0  0  0  0  0
  -27.4970  -13.6630   20.2330 N   0  0  0  0  0  0  0  0  0  0  0  0
  -27.0950  -12.3770   20.4170 N   0  0  0  0  0  0  0  0  0  0  0  0
  -25.0230  -11.2150   20.8750 C   0  0  0  0  0  0  0  0  0  0  0  0
  -25.3510  -10.2020   21.8040 C   0  0  0  0  0  3  0  0  0  0  0  0
  -24.5600   -9.0370   21.9010 C   0  0  0  0  0  3  0  0  0  0  0  0
  -23.4260   -8.8770   21.0700 C   0  0  0  0  0  0  0  0  0  0  0  0
  -23.1200   -9.8750   20.1270 C   0  0  0  0  0  3  0  0  0  0  0  0
  -23.9120  -11.0320   20.0300 C   0  0  0  0  0  3  0  0  0  0  0  0
  -22.6140   -7.7690   21.0780 O   0  0  0  0  0  0  0  0  0  0  0  0
  -22.2670   -7.1350   22.2450 C   0  0  0  0  0  0  0  0  0  0  0  0
  -21.6020   -7.8130   23.2910 C   0  0  0  0  0  3  0  0  0  0  0  0
  -21.2050   -7.1090   24.4450 C   0  0  0  0  0  3  0  0  0  0  0  0
  -21.4630   -5.7290   24.5510 C   0  0  0  0  0  0  0  0  0  0  0  0
  -22.1170   -5.0510   23.5070 C   0  0  0  0  0  3  0  0  0  0  0  0
  -22.5150   -5.7530   22.3580 C   0  0  0  0  0  0  0  0  0  0  0  0
  -23.1280   -5.0910   21.3460 F   0  0  0  0  0  0  0  0  0  0  0  0
  -21.0760   -5.0500   25.6570 F   0  0  0  0  0  0  0  0  0  0  0  0
  -24.0570  -14.3400   21.2700 C   0  0  0  0  0  0  0  0  0  0  0  0
  -23.3210  -13.6400   22.1240 N   0  0  0  0  0  0  0  0  0  0  0  0
  -23.6570  -15.4080   20.8110 O   0  0  0  0  0  0  0  0  0  0  0  0
  -23.6600  -12.7800   22.5260 H   0  0  0  0  0  0  0  0  0  0  0  0
  -22.4010  -13.9740   22.3830 H   0  0  0  0  0  0  0  0  0  0  0  0
  -26.7360  -15.9360   20.5200 N   0  0  0  0  0  0  0  0  0  0  0  0
  -26.0060  -16.6100   20.7280 H   0  0  0  0  0  0  0  0  0  0  0  0
  -27.6060  -16.3640   20.2230 H   0  0  0  0  0  0  0  0  0  0  0  0
  -28.7980  -26.3100   19.3690 O   0  0  0  0  0  0  0  0  0  0  0  0
  -24.9830  -31.5680   23.2520 C   0  0  0  0  0  0  0  0  0  0  0  0
  -27.7250  -27.3430   19.5020 C   0  0  0  0  0  0  0  0  0  0  0  0
  -23.8310  -30.3730   21.4320 C   0  0  0  0  0  3  0  0  0  0  0  0
  -25.3320  -29.0850   19.7660 C   0  0  0  0  0  0  0  0  0  0  0  0
  -26.3820  -30.7460   21.2890 C   0  0  0  0  0  2  0  0  0  0  0  0
  -26.5120  -29.4600   20.4180 C   0  0  0  0  0  0  0  0  0  0  0  0
  -27.7030  -28.6190   20.2570 C   0  0  0  0  0  3  0  0  0  0  0  0
  -26.5020  -27.1190   18.8370 C   0  0  0  0  0  3  0  0  0  0  0  0
  -25.3500  -27.9360   18.9600 C   0  0  0  0  0  3  0  0  0  0  0  0
  -24.0680  -29.9200   19.9650 C   0  0  0  0  0  2  0  0  0  0  0  0
  -25.0860  -30.9180   22.0470 N   0  0  0  0  0  0  0  0  0  0  0  0
  -23.8900  -31.7130   23.8240 O   0  0  0  0  0  0  0  0  0  0  0  0
  -23.2100  -29.2070   22.2430 C   0  0  0  0  0  0  0  0  0  0  0  0
  -21.9010  -28.9520   22.0640 N   0  0  0  0  0  0  0  0  0  0  0  0
  -23.9140  -28.5320   23.0000 O   0  0  0  0  0  0  0  0  0  0  0  0
  -21.3810  -29.5470   21.4340 H   0  0  0  0  0  0  0  0  0  0  0  0
  -18.6170  -27.4330   22.3630 C   0  0  0  0  0  0  0  0  0  0  0  0
  -21.1500  -27.8560   22.6870 C   0  0  0  0  0  3  0  0  0  0  0  0
  -21.3600  -26.5300   21.9190 C   0  0  0  0  0  2  0  0  0  0  0  0
  -20.2860  -26.2710   20.8570 C   0  0  0  0  0  2  0  0  0  0  0  0
  -18.8980  -26.2140   21.4990 C   0  0  0  0  0  2  0  0  0  0  0  0
  -19.6730  -28.2120   22.9070 C   0  0  0  0  0  0  0  0  0  0  0  0
  -19.3530  -29.3520   23.6760 C   0  0  0  0  0  3  0  0  0  0  0  0
  -18.0110  -29.7160   23.9020 C   0  0  0  0  0  3  0  0  0  0  0  0
  -16.9710  -28.9320   23.3730 C   0  0  0  0  0  3  0  0  0  0  0  0
  -17.2740  -27.7910   22.6100 C   0  0  0  0  0  3  0  0  0  0  0  0
  -26.2290  -32.1760   23.9620 C   0  0  0  0  0  3  0  0  0  0  0  0
  -25.9100  -33.5660   24.3300 N   0  0  0  0  0  0  0  0  0  0  0  0
  -26.2470  -34.6470   23.6160 C   0  0  0  0  0  0  0  0  0  0  0  0
  -26.9270  -34.5820   22.5870 O   0  0  0  0  0  0  0  0  0  0  0  0
  -25.3100  -33.6920   25.1310 H   0  0  0  0  0  0  0  0  0  0  0  0
  -24.5180  -36.4530   23.3200 C   0  0  0  0  0  1  0  0  0  0  0  0
  -25.7560  -36.0190   24.1210 C   0  0  0  0  0  3  0  0  0  0  0  0
  -27.8840  -36.8800   24.9950 C   0  0  0  0  0  1  0  0  0  0  0  0
  -26.7860  -37.0800   24.0520 N   0  0  0  0  0  0  0  0  0  0  0  0
  -26.3750  -37.9900   24.2360 H   0  0  0  0  0  0  0  0  0  0  0  0
  -26.6730  -31.3670   25.2440 C   0  0  1  0  0  0  0  0  0  0  0  0
  -25.5270  -31.1130   26.2520 C   0  0  0  0  0  1  0  0  0  0  0  0
  -27.2600  -29.9910   24.8560 C   0  0  0  0  0  1  0  0  0  0  0  0
  -27.8010  -32.1300   25.9800 C   0  0  0  0  0  1  0  0  0  0  0  0
  1 13  2  0
  1  2  1  0
  3  2  1  0
  4  9  1  0
  5  9  1  0
  5  1  1  0
  6 10  1  0
  6  8  1  0
  7 58  1  0
  7  6  1  0
  7  4  1  0
  8 11  1  6
  8  5  1  0
  9 12  1  6
  9  3  1  0
 15 17  1  0
 16 14  1  0
 16 22  1  0
 17  8  1  0
 17 14  2  0
 18 19  1  0
 18 15  2  0
 19 16  2  0
 20 18  1  0
 21 19  1  0
 22 29  2  0
 23 28  1  0
 24 25  1  0
 24 23  1  0
 26 25  1  0
 26 33  1  0
 26 27  1  0
 28 22  1  0
 28 27  1  0
 30 31  2  0
 31 50  1  0
 32 35  1  0
 32 31  1  0
 33 34  1  0
 33 30  1  0
 34 32  2  0
 35 36  1  0
 36 37  2  0
 38 41  1  0
 38 37  1  0
 39 38  2  0
 40 39  1  0
 40 35  2  0
 41 42  1  0
 42 47  2  0
 42 43  1  0
 43 44  2  0
 44 45  1  0
 45 49  1  0
 46 45  2  0
 47 46  1  0
 48 47  1  0
 50 51  1  0
 51 54  1  0
 51 53  1  0
 52 50  2  0
 55 30  1  0
 55 56  1  0
 57 55  1  0
 58 60  1  0
 59 70  2  0
 60 65  1  0
 61 69  1  0
 61 71  1  0
 62 68  1  0
 62 64  1  0
 63 69  1  0
 64 63  1  0
 65 64  2  0
 66 67  1  0
 66 60  2  0
 67 62  2  0
 68 61  1  0
 69 59  1  0
 71 73  2  0
 72 71  1  0
 74 72  1  0
 75 84  2  0
 75 80  1  0
 76 72  1  0
 76 80  1  0
 77 76  1  0
 78 79  1  0
 78 77  1  0
 79 75  1  0
 80 81  2  0
 81 82  1  0
 83 82  2  0
 84 83  1  0
 85 59  1  0
 85 86  1  0
 85 95  1  0
 86 89  1  0
 87 91  1  0
 87 86  1  0
 88 87  2  0
 91 90  1  0
 93 91  1  0
 93 94  1  0
 93 92  1  0
 95 98  1  1
 95 96  1  0
 97 95  1  0
M  ISO  4   7 101  16 100  22 100  58 101
M  END
>  <TORSDO>  (26) 
F 17

>  <SCORE>  (26) 
-9.825

>  <name>  (26) 
26

>  <ligand_id>  (26) 
26

>  <original_smiles>  (26) 
[H]c1c([H])c([H])c2c(c1[H])C([H])([H])C([H])([H])C([H])([H])C2([H])N([H])C(=O)C1([H])N(C(=O)C([H])(N([H])C(=O)C([H])(N([H])C([H])([H])[H])C([H])([H])[H])C(C([H])([H])[H])(C([H])([H])[H])C([H])([H])[H])C([H])([H])c2c([H])c(OC3([H])C([H])([H])C4(C([H])([H])[H])C([H])([H])C([H])([H])C(=O)C4([H])C(c4c([H])c(C(=O)N5C([H])([H])C([H])([H])C([H])([H])C([H])(n6nc(-c7c([H])c([H])c(Oc8c([H])c([H])c(F)c([H])c8F)c([H])c7[H])c(C(=O)N([H])[H])c6N([H])[H])C5([H])[H])c(C([H])([H])[H])c(C([H])([H])[H])c4[H])(C([H])([H])[H])C3([H])C([H])([H])[H])c([H])c([H])c2C1([H])[H]

>  <smiles>  (26) 
[H]c1c([H])c([H])c2c(c1[H])C([H])([H])C([H])([H])C([H])([H])C2([H])N([H])C(=O)C1([H])N(C(=O)C([H])(N([H])C(=O)C([H])(N([H])C([H])([H])[H])C([H])([H])[H])C(C([H])([H])[H])(C([H])([H])[H])C([H])([H])[H])C([H])([H])c2c([H])c(OC3([H])C([H])([H])C4(C([H])([H])[H])C([H])([H])C([H])([H])C(=O)C4([H])C(c4c([H])c(C(=O)N5C([H])([H])C([H])([H])C([H])([H])C([H])(n6nc(-c7c([H])c([H])c(Oc8c([H])c([H])c(F)c([H])c8F)c([H])c7[H])c(C(=O)N([H])[H])c6N([H])[H])C5([H])[H])c(C([H])([H])[H])c(C([H])([H])[H])c4[H])(C([H])([H])[H])C3([H])C([H])([H])[H])c([H])c([H])c2C1([H])[H]

$$$$
27:0:0
     RDKit          3D

 92100  0  0  1  0  0  0  0  0999 V2000
  -27.9300  -19.6360   20.7020 C   0  0  0  0  0  3  0  0  0  0  0  0
  -28.5890  -18.3940   20.6070 C   0  0  0  0  0  3  0  0  0  0  0  0
  -30.0640  -20.7970   20.6920 C   0  0  0  0  0  3  0  0  0  0  0  0
  -28.6540  -20.8490   20.7580 C   0  0  0  0  0  0  0  0  0  0  0  0
  -30.0030  -18.3410   20.5620 C   0  0  0  0  0  0  0  0  0  0  0  0
  -30.7280  -19.5560   20.5940 C   0  0  0  0  0  0  0  0  0  0  0  0
  -32.0810  -19.5270   20.5440 F   0  0  0  0  0  0  0  0  0  0  0  0
  -27.8630  -22.1450   20.9590 C   0  0  0  0  0  2  0  0  0  0  0  0
  -28.5490  -23.5000   20.7660 C   0  0  0  0  0  3  0  0  0  0  0  0
  -28.0230  -24.6830   21.1620 C   0  0  0  0  0  0  0  0  0  0  0  0
  -26.6560  -24.7670   21.8310 C   0  0  0  0  0  1  0  0  0  0  0  0
  -28.7940  -26.0080   21.0590 C   0  0  0  0  0  2  0  0  0  0  0  0
  -28.5310  -26.7670   19.8700 O   0  0  0  0  0  0  0  0  0  0  0  0
  -24.6890  -31.7800   23.1810 C   0  0  0  0  0  0  0  0  0  0  0  0
  -27.3910  -27.5330   19.9050 C   0  0  0  0  0  0  0  0  0  0  0  0
  -23.5100  -30.4580   21.4520 C   0  0  0  0  0  3  0  0  0  0  0  0
  -24.9950  -29.0250   19.9470 C   0  0  0  0  0  0  0  0  0  0  0  0
  -26.0330  -30.8500   21.3040 C   0  0  0  0  0  2  0  0  0  0  0  0
  -26.1360  -29.5150   20.5960 C   0  0  0  0  0  0  0  0  0  0  0  0
  -27.3350  -28.7690   20.5880 C   0  0  0  0  0  3  0  0  0  0  0  0
  -26.2490  -27.0700   19.2250 C   0  0  0  0  0  3  0  0  0  0  0  0
  -25.0460  -27.8000   19.2590 C   0  0  0  0  0  3  0  0  0  0  0  0
  -23.7370  -29.8620   20.0350 C   0  0  0  0  0  2  0  0  0  0  0  0
  -24.7600  -31.0440   22.0350 N   0  0  0  0  0  0  0  0  0  0  0  0
  -23.6020  -32.0100   23.7300 O   0  0  0  0  0  0  0  0  0  0  0  0
  -22.8700  -29.3740   22.3490 C   0  0  0  0  0  0  0  0  0  0  0  0
  -21.5430  -29.2100   22.2330 N   0  0  0  0  0  0  0  0  0  0  0  0
  -23.5630  -28.6880   23.1050 O   0  0  0  0  0  0  0  0  0  0  0  0
  -21.0460  -29.8180   21.5980 H   0  0  0  0  0  0  0  0  0  0  0  0
  -18.1580  -28.0510   22.7450 C   0  0  0  0  0  0  0  0  0  0  0  0
  -20.7300  -28.2260   22.9490 C   0  0  0  0  0  3  0  0  0  0  0  0
  -20.7780  -26.8490   22.2490 C   0  0  0  0  0  2  0  0  0  0  0  0
  -19.6380  -26.6420   21.2490 C   0  0  0  0  0  2  0  0  0  0  0  0
  -18.2810  -26.7590   21.9520 C   0  0  0  0  0  2  0  0  0  0  0  0
  -19.3100  -28.7480   23.1990 C   0  0  0  0  0  0  0  0  0  0  0  0
  -19.1440  -29.9600   23.9030 C   0  0  0  0  0  3  0  0  0  0  0  0
  -17.8600  -30.4760   24.1570 C   0  0  0  0  0  3  0  0  0  0  0  0
  -16.7220  -29.7740   23.7190 C   0  0  0  0  0  3  0  0  0  0  0  0
  -16.8730  -28.5630   23.0180 C   0  0  0  0  0  3  0  0  0  0  0  0
  -25.9650  -32.3910   23.8410 C   0  0  0  0  0  3  0  0  0  0  0  0
  -26.4700  -31.5720   25.0940 C   0  0  1  0  0  0  0  0  0  0  0  0
  -25.3640  -31.2860   26.1370 C   0  0  0  0  0  1  0  0  0  0  0  0
  -27.0690  -30.2140   24.6560 C   0  0  0  0  0  1  0  0  0  0  0  0
  -27.6040  -32.3470   25.8050 C   0  0  0  0  0  1  0  0  0  0  0  0
  -25.6480  -33.7740   24.2190 N   0  0  0  0  0  0  0  0  0  0  0  0
  -25.9790  -34.8560   23.5000 C   0  0  0  0  0  0  0  0  0  0  0  0
  -26.6560  -34.7930   22.4710 O   0  0  0  0  0  0  0  0  0  0  0  0
  -25.0500  -33.8940   25.0230 H   0  0  0  0  0  0  0  0  0  0  0  0
  -24.2400  -36.6490   23.1980 C   0  0  0  0  0  1  0  0  0  0  0  0
  -25.4780  -36.2240   24.0030 C   0  0  0  0  0  3  0  0  0  0  0  0
  -27.5920  -37.1010   24.8900 C   0  0  0  0  0  1  0  0  0  0  0  0
  -26.5030  -37.2870   23.9350 N   0  0  0  0  0  0  0  0  0  0  0  0
  -26.0890  -38.2000   24.1010 H   0  0  0  0  0  0  0  0  0  0  0  0
  -30.7940  -17.0290   20.4930 C   0  0  0  0  0  2  0  0  0  0  0  0
  -30.9480  -14.6030   20.0730 C   0  0  0  0  0  0  0  0  0  0  0  0
  -30.6190  -12.4170   19.0050 C   0  0  0  0  0  2  0  0  0  0  0  0
  -29.6220  -12.5760   17.8400 C   0  0  0  0  0  2  0  0  0  0  0  0
  -28.1710  -12.4320   18.3410 C   0  0  0  0  0  2  0  0  0  0  0  0
  -27.8780  -13.3030   19.5920 C   0  0  0  0  0  3  0  0  0  0  0  0
  -28.9840  -13.1370   20.6580 C   0  0  0  0  0  2  0  0  0  0  0  0
  -30.2760  -13.4260   20.0160 N   0  0  0  0  0  0  0  0  0  0  0  0
  -32.0650  -14.7620   19.5720 O   0  0  0  0  0  0  0  0  0  0  0  0
  -30.2570  -15.6600   20.5400 N   0  0  0  0  0  0  0  0  0  0  0  0
  -29.3260  -15.5100   20.8990 H   0  0  0  0  0  0  0  0  0  0  0  0
  -25.5320  -13.9050   20.4540 C   0  0  0  0  0  0  0  0  0  0  0  0
  -24.4800  -13.1270   20.8640 C   0  0  0  0  0  0  0  0  0  0  0  0
  -24.9270  -11.7750   20.7660 C   0  0  0  0  0  0  0  0  0  0  0  0
  -26.5540  -13.0230   20.1410 N   0  0  0  0  0  0  0  0  0  0  0  0
  -26.1970  -11.7360   20.3860 N   0  0  0  0  0  0  0  0  0  0  0  0
  -24.2000  -10.5140   20.9590 C   0  0  0  0  0  0  0  0  0  0  0  0
  -24.6280   -9.5530   21.8990 C   0  0  0  0  0  3  0  0  0  0  0  0
  -23.9010   -8.3550   22.0810 C   0  0  0  0  0  3  0  0  0  0  0  0
  -22.7320   -8.1130   21.3190 C   0  0  0  0  0  0  0  0  0  0  0  0
  -22.3230   -9.0650   20.3670 C   0  0  0  0  0  3  0  0  0  0  0  0
  -23.0510  -10.2530   20.1840 C   0  0  0  0  0  3  0  0  0  0  0  0
  -21.9780   -6.9680   21.4070 O   0  0  0  0  0  0  0  0  0  0  0  0
  -21.8680   -6.2690   22.5820 C   0  0  0  0  0  0  0  0  0  0  0  0
  -21.3240   -6.8520   23.7480 C   0  0  0  0  0  3  0  0  0  0  0  0
  -21.1640   -6.0770   24.9140 C   0  0  0  0  0  3  0  0  0  0  0  0
  -21.5400   -4.7190   24.9140 C   0  0  0  0  0  0  0  0  0  0  0  0
  -22.0770   -4.1360   23.7530 C   0  0  0  0  0  3  0  0  0  0  0  0
  -22.2390   -4.9090   22.5890 C   0  0  0  0  0  0  0  0  0  0  0  0
  -22.7360   -4.3370   21.4650 F   0  0  0  0  0  0  0  0  0  0  0  0
  -21.3790   -3.9710   26.0310 F   0  0  0  0  0  0  0  0  0  0  0  0
  -23.1060  -13.6100   21.2250 C   0  0  0  0  0  0  0  0  0  0  0  0
  -22.4150  -12.8930   22.1060 N   0  0  0  0  0  0  0  0  0  0  0  0
  -22.6530  -14.6550   20.7630 O   0  0  0  0  0  0  0  0  0  0  0  0
  -22.7940  -12.0490   22.5050 H   0  0  0  0  0  0  0  0  0  0  0  0
  -21.4950  -13.2000   22.3860 H   0  0  0  0  0  0  0  0  0  0  0  0
  -25.6950  -15.2800   20.3020 N   0  0  0  0  0  0  0  0  0  0  0  0
  -24.9230  -15.9200   20.4450 H   0  0  0  0  0  0  0  0  0  0  0  0
  -26.5030  -15.7200   19.8850 H   0  0  0  0  0  0  0  0  0  0  0  0
  1  4  1  0
  2  1  2  0
  3  4  2  0
  4  8  1  0
  5  6  2  0
  5  2  1  0
  6  3  1  0
  7  6  1  0
  9  8  1  0
  9 10  2  0
 10 11  1  0
 12 10  1  0
 13 15  1  0
 13 12  1  0
 14 25  2  0
 15 20  1  0
 16 24  1  0
 16 26  1  0
 17 23  1  0
 17 19  1  0
 18 24  1  0
 19 18  1  0
 20 19  2  0
 21 22  1  0
 21 15  2  0
 22 17  2  0
 23 16  1  0
 24 14  1  0
 26 28  2  0
 27 26  1  0
 29 27  1  0
 30 39  2  0
 30 35  1  0
 31 27  1  0
 31 35  1  0
 32 31  1  0
 33 34  1  0
 33 32  1  0
 34 30  1  0
 35 36  2  0
 36 37  1  0
 38 37  2  0
 39 38  1  0
 40 14  1  0
 40 45  1  0
 40 41  1  0
 41 44  1  1
 41 42  1  0
 43 41  1  0
 45 48  1  0
 46 50  1  0
 46 45  1  0
 47 46  2  0
 50 49  1  0
 52 50  1  0
 52 53  1  0
 52 51  1  0
 54 63  1  0
 54  5  1  0
 55 63  1  0
 56 61  1  0
 57 58  1  0
 57 56  1  0
 59 58  1  0
 59 68  1  0
 59 60  1  0
 61 55  1  0
 61 60  1  0
 62 55  2  0
 63 64  1  0
 65 66  2  0
 66 85  1  0
 67 66  1  0
 67 70  1  0
 68 69  1  0
 68 65  1  0
 69 67  2  0
 70 71  1  0
 71 72  2  0
 73 76  1  0
 73 72  1  0
 74 73  2  0
 75 74  1  0
 75 70  2  0
 76 77  1  0
 77 82  2  0
 77 78  1  0
 78 79  2  0
 80 79  1  0
 80 84  1  0
 81 80  2  0
 82 81  1  0
 83 82  1  0
 85 86  1  0
 86 89  1  0
 86 88  1  0
 87 85  2  0
 90 91  1  0
 90 65  1  0
 92 90  1  0
M  ISO  4  12 101  13 101  55 100  63 100
M  END
>  <TORSDO>  (27) 
F 20

>  <SCORE>  (27) 
-13.438

>  <name>  (27) 
27

>  <ligand_id>  (27) 
27

>  <original_smiles>  (27) 
[H]C(=C(C([H])([H])[H])C([H])([H])Oc1c([H])c([H])c2c(c1[H])C([H])([H])N(C(=O)C([H])(N([H])C(=O)C([H])(N([H])C([H])([H])[H])C([H])([H])[H])C(C([H])([H])[H])(C([H])([H])[H])C([H])([H])[H])C([H])(C(=O)N([H])C1([H])c3c([H])c([H])c([H])c([H])c3C([H])([H])C([H])([H])C1([H])[H])C2([H])[H])C([H])([H])c1c([H])c([H])c(C([H])([H])N([H])C(=O)N2C([H])([H])C([H])([H])C([H])([H])C([H])(n3nc(-c4c([H])c([H])c(Oc5c([H])c([H])c(F)c([H])c5F)c([H])c4[H])c(C(=O)N([H])[H])c3N([H])[H])C2([H])[H])c(F)c1[H]

>  <smiles>  (27) 
[H]C(=C(C([H])([H])[H])C([H])([H])Oc1c([H])c([H])c2c(c1[H])C([H])([H])N(C(=O)C([H])(N([H])C(=O)C([H])(N([H])C([H])([H])[H])C([H])([H])[H])C(C([H])([H])[H])(C([H])([H])[H])C([H])([H])[H])C([H])(C(=O)N([H])C1([H])c3c([H])c([H])c([H])c([H])c3C([H])([H])C([H])([H])C1([H])[H])C2([H])[H])C([H])([H])c1c([H])c([H])c(C([H])([H])N([H])C(=O)N2C([H])([H])C([H])([H])C([H])([H])C([H])(n3nc(-c4c([H])c([H])c(Oc5c([H])c([H])c(F)c([H])c5F)c([H])c4[H])c(C(=O)N([H])[H])c3N([H])[H])C2([H])[H])c(F)c1[H]

$$$$
28:0:0
     RDKit          3D

 94102  0  0  1  0  0  0  0  0999 V2000
  -26.8430  -24.9160   21.9540 C   0  0  0  0  0  3  0  0  0  0  0  0
  -26.1560  -23.6930   21.8510 C   0  0  0  0  0  3  0  0  0  0  0  0
  -28.7360  -23.9390   20.7830 C   0  0  0  0  0  3  0  0  0  0  0  0
  -28.0690  -22.6920   20.6900 C   0  0  0  0  0  0  0  0  0  0  0  0
  -28.1340  -25.0500   21.4090 C   0  0  0  0  0  0  0  0  0  0  0  0
  -26.7490  -22.5830   21.2120 C   0  0  0  0  0  0  0  0  0  0  0  0
  -25.9980  -21.4070   21.1470 N   0  0  0  0  0  0  0  0  0  0  0  0
  -25.0040  -21.4550   21.3500 H   0  0  0  0  0  0  0  0  0  0  0  0
  -26.2060  -20.7520   20.3970 H   0  0  0  0  0  0  0  0  0  0  0  0
  -28.7820  -21.5670   20.0100 C   0  0  0  0  0  0  0  0  0  0  0  0
  -28.2760  -20.8710   19.1230 O   0  0  0  0  0  0  0  0  0  0  0  0
  -30.2150  -21.2980   20.4990 C   0  0  0  0  0  2  0  0  0  0  0  0
  -30.8120  -19.9230   20.1280 C   0  0  0  0  0  2  0  0  0  0  0  0
  -30.2150  -18.7150   20.8810 C   0  0  0  0  0  2  0  0  0  0  0  0
  -31.0120  -17.4340   20.5790 C   0  0  0  0  0  2  0  0  0  0  0  0
  -30.4150  -16.1280   21.1620 C   0  0  0  0  0  2  0  0  0  0  0  0
  -31.0890  -14.8770   20.5620 C   0  0  0  0  0  0  0  0  0  0  0  0
  -30.7990  -12.6960   19.4540 C   0  0  0  0  0  2  0  0  0  0  0  0
  -29.9220  -12.8820   18.2000 C   0  0  0  0  0  2  0  0  0  0  0  0
  -28.4290  -12.7770   18.5630 C   0  0  0  0  0  2  0  0  0  0  0  0
  -28.0410  -13.6670   19.7760 C   0  0  0  0  0  3  0  0  0  0  0  0
  -29.0400  -13.4710   20.9420 C   0  0  0  0  0  2  0  0  0  0  0  0
  -30.3970  -13.7150   20.4300 N   0  0  0  0  0  0  0  0  0  0  0  0
  -32.2310  -15.0060   20.1090 O   0  0  0  0  0  0  0  0  0  0  0  0
  -25.6200  -14.3320   20.3460 C   0  0  0  0  0  0  0  0  0  0  0  0
  -24.5240  -13.5840   20.6860 C   0  0  0  0  0  0  0  0  0  0  0  0
  -24.9660  -12.2250   20.7170 C   0  0  0  0  0  0  0  0  0  0  0  0
  -26.6620  -13.4300   20.1960 N   0  0  0  0  0  0  0  0  0  0  0  0
  -26.2690  -12.1600   20.4760 N   0  0  0  0  0  0  0  0  0  0  0  0
  -24.2140  -10.9780   20.9090 C   0  0  0  0  0  0  0  0  0  0  0  0
  -24.5750  -10.0430   21.9040 C   0  0  0  0  0  3  0  0  0  0  0  0
  -23.8250   -8.8600   22.0810 C   0  0  0  0  0  3  0  0  0  0  0  0
  -22.6980   -8.6050   21.2640 C   0  0  0  0  0  0  0  0  0  0  0  0
  -22.3570   -9.5290   20.2600 C   0  0  0  0  0  3  0  0  0  0  0  0
  -23.1070  -10.7020   20.0810 C   0  0  0  0  0  3  0  0  0  0  0  0
  -21.9260   -7.4710   21.3460 O   0  0  0  0  0  0  0  0  0  0  0  0
  -21.7750   -6.7900   22.5270 C   0  0  0  0  0  0  0  0  0  0  0  0
  -21.2770   -7.4160   23.6910 C   0  0  0  0  0  3  0  0  0  0  0  0
  -21.0700   -6.6610   24.8620 C   0  0  0  0  0  3  0  0  0  0  0  0
  -21.3540   -5.2810   24.8710 C   0  0  0  0  0  0  0  0  0  0  0  0
  -21.8470   -4.6550   23.7130 C   0  0  0  0  0  3  0  0  0  0  0  0
  -22.0530   -5.4080   22.5420 C   0  0  0  0  0  0  0  0  0  0  0  0
  -22.5070   -4.7960   21.4220 F   0  0  0  0  0  0  0  0  0  0  0  0
  -21.1470   -4.5540   25.9930 F   0  0  0  0  0  0  0  0  0  0  0  0
  -23.1230  -14.0870   20.8780 C   0  0  0  0  0  0  0  0  0  0  0  0
  -22.3510  -13.4290   21.7360 N   0  0  0  0  0  0  0  0  0  0  0  0
  -22.7210  -15.0960   20.3010 O   0  0  0  0  0  0  0  0  0  0  0  0
  -22.6920  -12.6140   22.2230 H   0  0  0  0  0  0  0  0  0  0  0  0
  -21.4090  -13.7500   21.9110 H   0  0  0  0  0  0  0  0  0  0  0  0
  -25.8110  -15.6940   20.1370 N   0  0  0  0  0  0  0  0  0  0  0  0
  -25.0500  -16.3620   20.1870 H   0  0  0  0  0  0  0  0  0  0  0  0
  -26.6890  -16.1180   19.8620 H   0  0  0  0  0  0  0  0  0  0  0  0
  -28.8690  -26.3810   21.4810 C   0  0  0  0  0  2  0  0  0  0  0  0
  -28.6360  -27.2010   20.3380 O   0  0  0  0  0  0  0  0  0  0  0  0
  -24.6130  -32.1700   23.4810 C   0  0  0  0  0  0  0  0  0  0  0  0
  -27.4550  -27.8970   20.3660 C   0  0  0  0  0  0  0  0  0  0  0  0
  -23.4880  -30.7820   21.7670 C   0  0  0  0  0  3  0  0  0  0  0  0
  -25.0200  -29.3190   20.3480 C   0  0  0  0  0  0  0  0  0  0  0  0
  -26.0060  -31.2110   21.6570 C   0  0  0  0  0  2  0  0  0  0  0  0
  -26.1440  -29.8600   20.9870 C   0  0  0  0  0  0  0  0  0  0  0  0
  -27.3640  -29.1520   21.0040 C   0  0  0  0  0  3  0  0  0  0  0  0
  -26.3250  -27.3640   19.7170 C   0  0  0  0  0  3  0  0  0  0  0  0
  -25.1030  -28.0650   19.7150 C   0  0  0  0  0  3  0  0  0  0  0  0
  -23.7530  -30.1420   20.3780 C   0  0  0  0  0  2  0  0  0  0  0  0
  -24.7180  -31.4020   22.3600 N   0  0  0  0  0  0  0  0  0  0  0  0
  -23.5110  -32.4050   23.9940 O   0  0  0  0  0  0  0  0  0  0  0  0
  -22.8350  -29.7210   22.6800 C   0  0  0  0  0  0  0  0  0  0  0  0
  -21.5200  -29.5160   22.5100 N   0  0  0  0  0  0  0  0  0  0  0  0
  -23.5100  -29.0880   23.4960 O   0  0  0  0  0  0  0  0  0  0  0  0
  -21.0380  -30.0770   21.8220 H   0  0  0  0  0  0  0  0  0  0  0  0
  -18.1560  -28.2560   22.8910 C   0  0  0  0  0  0  0  0  0  0  0  0
  -20.7010  -28.5420   23.2310 C   0  0  0  0  0  3  0  0  0  0  0  0
  -20.8410  -27.1330   22.6110 C   0  0  0  0  0  2  0  0  0  0  0  0
  -19.7680  -26.8240   21.5620 C   0  0  0  0  0  2  0  0  0  0  0  0
  -18.3690  -26.9300   22.1780 C   0  0  0  0  0  2  0  0  0  0  0  0
  -19.2520  -29.0200   23.3700 C   0  0  0  0  0  0  0  0  0  0  0  0
  -19.0010  -30.2610   23.9940 C   0  0  0  0  0  3  0  0  0  0  0  0
  -17.6860  -30.7400   24.1420 C   0  0  0  0  0  3  0  0  0  0  0  0
  -16.6030  -29.9710   23.6810 C   0  0  0  0  0  3  0  0  0  0  0  0
  -16.8400  -28.7300   23.0620 C   0  0  0  0  0  3  0  0  0  0  0  0
  -25.8680  -32.8110   24.1540 C   0  0  0  0  0  3  0  0  0  0  0  0
  -25.5480  -34.2150   24.4420 N   0  0  0  0  0  0  0  0  0  0  0  0
  -25.9140  -35.2510   23.6770 C   0  0  0  0  0  0  0  0  0  0  0  0
  -26.6330  -35.1280   22.6800 O   0  0  0  0  0  0  0  0  0  0  0  0
  -24.9200  -34.3870   25.2140 H   0  0  0  0  0  0  0  0  0  0  0  0
  -24.1990  -37.0280   23.2100 C   0  0  0  0  0  1  0  0  0  0  0  0
  -25.4050  -36.6470   24.0840 C   0  0  0  0  0  3  0  0  0  0  0  0
  -27.5010  -37.5490   24.9880 C   0  0  0  0  0  1  0  0  0  0  0  0
  -26.4390  -37.7000   23.9960 N   0  0  0  0  0  0  0  0  0  0  0  0
  -26.0250  -38.6210   24.1130 H   0  0  0  0  0  0  0  0  0  0  0  0
  -26.3290  -32.0590   25.4640 C   0  0  1  0  0  0  0  0  0  0  0  0
  -25.1830  -31.8250   26.4760 C   0  0  0  0  0  1  0  0  0  0  0  0
  -26.9430  -30.6820   25.1210 C   0  0  0  0  0  1  0  0  0  0  0  0
  -27.4400  -32.8720   26.1710 C   0  0  0  0  0  1  0  0  0  0  0  0
  2  1  1  0
  3  5  1  0
  4  3  2  0
  4  6  1  0
  5 53  1  0
  5  1  2  0
  6  2  2  0
  7  6  1  0
  7  8  1  0
  9  7  1  0
 10 12  1  0
 10  4  1  0
 11 10  2  0
 13 12  1  0
 13 14  1  0
 15 14  1  0
 15 16  1  0
 17 16  1  0
 18 23  1  0
 19 20  1  0
 19 18  1  0
 21 20  1  0
 21 28  1  0
 21 22  1  0
 23 17  1  0
 23 22  1  0
 24 17  2  0
 25 26  2  0
 26 27  1  0
 26 45  1  0
 27 30  1  0
 28 25  1  0
 28 29  1  0
 29 27  2  0
 30 31  1  0
 31 32  2  0
 33 36  1  0
 33 32  1  0
 34 33  2  0
 35 34  1  0
 35 30  2  0
 36 37  1  0
 37 42  2  0
 37 38  1  0
 38 39  2  0
 39 40  1  0
 40 44  1  0
 41 40  2  0
 42 41  1  0
 43 42  1  0
 45 46  1  0
 46 49  1  0
 46 48  1  0
 47 45  2  0
 50 51  1  0
 50 25  1  0
 52 50  1  0
 54 56  1  0
 54 53  1  0
 55 66  2  0
 56 61  1  0
 57 65  1  0
 57 67  1  0
 58 64  1  0
 58 60  1  0
 59 65  1  0
 60 61  2  0
 60 59  1  0
 62 56  2  0
 63 62  1  0
 63 58  2  0
 64 57  1  0
 65 55  1  0
 67 69  2  0
 68 67  1  0
 70 68  1  0
 71 80  2  0
 71 76  1  0
 72 68  1  0
 72 76  1  0
 73 72  1  0
 74 75  1  0
 74 73  1  0
 75 71  1  0
 76 77  2  0
 77 78  1  0
 79 78  2  0
 80 79  1  0
 81 55  1  0
 81 82  1  0
 81 91  1  0
 82 85  1  0
 83 87  1  0
 83 82  1  0
 84 83  2  0
 87 86  1  0
 89 87  1  0
 89 90  1  0
 89 88  1  0
 91 94  1  1
 91 92  1  0
 93 91  1  0
M  ISO  4  16 100  17 100  53 101  54 101
M  END
>  <TORSDO>  (28) 
F 24

>  <SCORE>  (28) 
-9.687

>  <name>  (28) 
28

>  <ligand_id>  (28) 
28

>  <original_smiles>  (28) 
[H]c1c([H])c([H])c2c(c1[H])C([H])([H])C([H])([H])C([H])([H])C2([H])N([H])C(=O)C1([H])N(C(=O)C([H])(N([H])C(=O)C([H])(N([H])C([H])([H])[H])C([H])([H])[H])C(C([H])([H])[H])(C([H])([H])[H])C([H])([H])[H])C([H])([H])c2c([H])c(OC([H])([H])c3c([H])c([H])c(N([H])[H])c(C(=O)C([H])([H])C([H])([H])C([H])([H])C([H])([H])C([H])([H])C(=O)N4C([H])([H])C([H])([H])C([H])([H])C([H])(n5nc(-c6c([H])c([H])c(Oc7c([H])c([H])c(F)c([H])c7F)c([H])c6[H])c(C(=O)N([H])[H])c5N([H])[H])C4([H])[H])c3[H])c([H])c([H])c2C1([H])[H]

>  <smiles>  (28) 
[H]c1c([H])c([H])c2c(c1[H])C([H])([H])C([H])([H])C([H])([H])C2([H])N([H])C(=O)C1([H])N(C(=O)C([H])(N([H])C(=O)C([H])(N([H])C([H])([H])[H])C([H])([H])[H])C(C([H])([H])[H])(C([H])([H])[H])C([H])([H])[H])C([H])([H])c2c([H])c(OC([H])([H])c3c([H])c([H])c(N([H])[H])c(C(=O)C([H])([H])C([H])([H])C([H])([H])C([H])([H])C([H])([H])C(=O)N4C([H])([H])C([H])([H])C([H])([H])C([H])(n5nc(-c6c([H])c([H])c(Oc7c([H])c([H])c(F)c([H])c7F)c([H])c6[H])c(C(=O)N([H])[H])c5N([H])[H])C4([H])[H])c3[H])c([H])c([H])c2C1([H])[H]

$$$$
29:0:0
     RDKit          3D

 91 99  0  0  1  0  0  0  0  0999 V2000
  -28.8450  -24.2650   19.4570 C   0  0  0  0  0  0  0  0  0  0  0  0
  -28.4660  -25.3210   20.3780 C   0  0  0  0  0  0  0  0  0  0  0  0
  -28.9460  -23.0050   20.0470 C   0  0  0  0  0  0  0  0  0  0  0  0
  -28.2640  -24.8320   21.6480 C   0  0  0  0  0  0  0  0  0  0  0  0
  -29.1210  -24.5450   18.0050 C   0  0  0  0  0  1  0  0  0  0  0  0
  -27.8850  -25.5890   22.8790 C   0  0  0  0  0  1  0  0  0  0  0  0
  -28.5390  -23.1050   21.7410 S   0  0  0  0  0  0  0  0  0  0  0  0
  -29.3110  -21.6660   19.4790 C   0  0  0  0  0  0  0  0  0  0  0  0
  -29.4660  -21.5470   18.2600 O   0  0  0  0  0  0  0  0  0  0  0  0
  -29.5570  -20.4050   20.3780 C   0  0  0  0  0  2  0  0  0  0  0  0
  -29.3600  -18.9890   19.7130 C   0  0  0  0  0  2  0  0  0  0  0  0
  -30.5380  -17.9600   19.7810 C   0  0  0  0  0  2  0  0  0  0  0  0
  -30.7020  -17.1070   21.0780 C   0  0  0  0  0  2  0  0  0  0  0  0
  -29.9830  -15.7150   21.1540 C   0  0  0  0  0  2  0  0  0  0  0  0
  -30.6530  -14.5110   20.4300 C   0  0  0  0  0  0  0  0  0  0  0  0
  -30.3420  -12.3520   19.2570 C   0  0  0  0  0  2  0  0  0  0  0  0
  -29.4000  -12.5660   18.0570 C   0  0  0  0  0  2  0  0  0  0  0  0
  -27.9250  -12.4380   18.4850 C   0  0  0  0  0  2  0  0  0  0  0  0
  -27.5980  -13.2770   19.7510 C   0  0  0  0  0  3  0  0  0  0  0  0
  -28.6510  -13.0480   20.8570 C   0  0  0  0  0  2  0  0  0  0  0  0
  -29.9770  -13.3350   20.2890 N   0  0  0  0  0  0  0  0  0  0  0  0
  -31.7690  -14.6780   19.9260 O   0  0  0  0  0  0  0  0  0  0  0  0
  -25.2070  -13.9080   20.4640 C   0  0  0  0  0  0  0  0  0  0  0  0
  -24.1310  -13.1470   20.8370 C   0  0  0  0  0  0  0  0  0  0  0  0
  -24.5800  -11.7910   20.8130 C   0  0  0  0  0  0  0  0  0  0  0  0
  -26.2430  -13.0150   20.2330 N   0  0  0  0  0  0  0  0  0  0  0  0
  -25.8700  -11.7360   20.5030 N   0  0  0  0  0  0  0  0  0  0  0  0
  -23.8430  -10.5360   21.0100 C   0  0  0  0  0  0  0  0  0  0  0  0
  -24.2820   -9.5570   21.9280 C   0  0  0  0  0  3  0  0  0  0  0  0
  -23.5460   -8.3680   22.1140 C   0  0  0  0  0  3  0  0  0  0  0  0
  -22.3550   -8.1480   21.3800 C   0  0  0  0  0  0  0  0  0  0  0  0
  -21.9350   -9.1150   20.4510 C   0  0  0  0  0  3  0  0  0  0  0  0
  -22.6730  -10.2950   20.2620 C   0  0  0  0  0  3  0  0  0  0  0  0
  -21.5870   -7.0120   21.4780 O   0  0  0  0  0  0  0  0  0  0  0  0
  -21.5700   -6.2490   22.6210 C   0  0  0  0  0  0  0  0  0  0  0  0
  -21.2130   -6.7920   23.8730 C   0  0  0  0  0  3  0  0  0  0  0  0
  -21.1360   -5.9570   25.0060 C   0  0  0  0  0  3  0  0  0  0  0  0
  -21.4110   -4.5810   24.8890 C   0  0  0  0  0  0  0  0  0  0  0  0
  -21.7640   -4.0370   23.6410 C   0  0  0  0  0  3  0  0  0  0  0  0
  -21.8410   -4.8700   22.5100 C   0  0  0  0  0  0  0  0  0  0  0  0
  -22.1590   -4.3380   21.3060 F   0  0  0  0  0  0  0  0  0  0  0  0
  -21.3310   -3.7780   25.9750 F   0  0  0  0  0  0  0  0  0  0  0  0
  -22.7380  -13.6380   21.1080 C   0  0  0  0  0  0  0  0  0  0  0  0
  -22.0040  -12.9550   21.9800 N   0  0  0  0  0  0  0  0  0  0  0  0
  -22.3060  -14.6620   20.5800 O   0  0  0  0  0  0  0  0  0  0  0  0
  -22.3640  -12.1270   22.4310 H   0  0  0  0  0  0  0  0  0  0  0  0
  -21.0660  -13.2630   22.1980 H   0  0  0  0  0  0  0  0  0  0  0  0
  -25.3870  -15.2740   20.2830 N   0  0  0  0  0  0  0  0  0  0  0  0
  -24.6330  -15.9450   20.3950 H   0  0  0  0  0  0  0  0  0  0  0  0
  -26.2490  -15.7010   19.9690 H   0  0  0  0  0  0  0  0  0  0  0  0
  -28.4120  -26.6580   20.0650 O   0  0  0  0  0  0  0  0  0  0  0  0
  -24.6210  -31.8730   23.2240 C   0  0  0  0  0  0  0  0  0  0  0  0
  -27.2340  -27.3890   20.1330 C   0  0  0  0  0  0  0  0  0  0  0  0
  -23.4000  -30.4680   21.5970 C   0  0  0  0  0  3  0  0  0  0  0  0
  -24.8410  -28.9230   20.1620 C   0  0  0  0  0  0  0  0  0  0  0  0
  -25.9250  -30.8140   21.3810 C   0  0  0  0  0  2  0  0  0  0  0  0
  -26.0060  -29.4370   20.7450 C   0  0  0  0  0  0  0  0  0  0  0  0
  -27.2040  -28.6770   20.7270 C   0  0  0  0  0  3  0  0  0  0  0  0
  -26.0510  -26.8960   19.5420 C   0  0  0  0  0  3  0  0  0  0  0  0
  -24.8600  -27.6530   19.5570 C   0  0  0  0  0  3  0  0  0  0  0  0
  -23.5980  -29.7870   20.2160 C   0  0  0  0  0  2  0  0  0  0  0  0
  -24.6670  -31.0680   22.1260 N   0  0  0  0  0  0  0  0  0  0  0  0
  -23.5450  -32.1470   23.7740 O   0  0  0  0  0  0  0  0  0  0  0  0
  -22.7560  -29.4490   22.5650 C   0  0  0  0  0  0  0  0  0  0  0  0
  -21.4310  -29.2660   22.4500 N   0  0  0  0  0  0  0  0  0  0  0  0
  -23.4470  -28.8250   23.3750 O   0  0  0  0  0  0  0  0  0  0  0  0
  -20.9350  -29.8220   21.7670 H   0  0  0  0  0  0  0  0  0  0  0  0
  -18.0620  -28.0600   22.9720 C   0  0  0  0  0  0  0  0  0  0  0  0
  -20.6210  -28.3290   23.2280 C   0  0  0  0  0  3  0  0  0  0  0  0
  -20.7260  -26.8970   22.6550 C   0  0  0  0  0  2  0  0  0  0  0  0
  -19.6200  -26.5660   21.6490 C   0  0  0  0  0  2  0  0  0  0  0  0
  -18.2410  -26.7080   22.3010 C   0  0  0  0  0  2  0  0  0  0  0  0
  -19.1810  -28.8280   23.3920 C   0  0  0  0  0  0  0  0  0  0  0  0
  -18.9630  -30.0930   23.9820 C   0  0  0  0  0  3  0  0  0  0  0  0
  -17.6570  -30.5930   24.1480 C   0  0  0  0  0  3  0  0  0  0  0  0
  -16.5530  -29.8230   23.7450 C   0  0  0  0  0  3  0  0  0  0  0  0
  -16.7560  -28.5570   23.1660 C   0  0  0  0  0  3  0  0  0  0  0  0
  -25.9120  -32.5060   23.8290 C   0  0  0  0  0  3  0  0  0  0  0  0
  -25.6030  -33.9000   24.1770 N   0  0  0  0  0  0  0  0  0  0  0  0
  -25.9140  -34.9580   23.4180 C   0  0  0  0  0  0  0  0  0  0  0  0
  -26.5650  -34.8660   22.3720 O   0  0  0  0  0  0  0  0  0  0  0  0
  -25.0300  -34.0460   24.9950 H   0  0  0  0  0  0  0  0  0  0  0  0
  -24.1670  -36.7390   23.1100 C   0  0  0  0  0  1  0  0  0  0  0  0
  -25.4260  -36.3400   23.8930 C   0  0  0  0  0  3  0  0  0  0  0  0
  -27.5710  -37.2340   24.6850 C   0  0  0  0  0  1  0  0  0  0  0  0
  -26.4490  -37.4010   23.7660 N   0  0  0  0  0  0  0  0  0  0  0  0
  -26.0400  -38.3160   23.9300 H   0  0  0  0  0  0  0  0  0  0  0  0
  -26.4550  -31.7260   25.0920 C   0  0  1  0  0  0  0  0  0  0  0  0
  -25.3810  -31.4770   26.1760 C   0  0  0  0  0  1  0  0  0  0  0  0
  -27.0380  -30.3540   24.6770 C   0  0  0  0  0  1  0  0  0  0  0  0
  -27.6100  -32.5240   25.7440 C   0  0  0  0  0  1  0  0  0  0  0  0
  1  3  2  0
  1  2  1  0
  2  4  2  0
  3  7  1  0
  4  7  1  0
  4  6  1  0
  5  1  1  0
  8  3  1  0
  8 10  1  0
  9  8  2  0
 11 12  1  0
 11 10  1  0
 12 13  1  0
 13 14  1  0
 15 14  1  0
 16 21  1  0
 17 18  1  0
 17 16  1  0
 19 18  1  0
 19 26  1  0
 19 20  1  0
 21 15  1  0
 21 20  1  0
 22 15  2  0
 23 24  2  0
 24 43  1  0
 25 24  1  0
 25 28  1  0
 26 23  1  0
 26 27  1  0
 27 25  2  0
 28 29  1  0
 29 30  2  0
 31 34  1  0
 31 30  1  0
 32 31  2  0
 33 32  1  0
 33 28  2  0
 34 35  1  0
 35 36  1  0
 36 37  2  0
 38 37  1  0
 38 42  1  0
 39 38  2  0
 40 35  2  0
 40 39  1  0
 41 40  1  0
 43 44  1  0
 44 47  1  0
 44 46  1  0
 45 43  2  0
 48 49  1  0
 48 23  1  0
 50 48  1  0
 51 53  1  0
 51  2  1  0
 52 63  2  0
 53 58  1  0
 54 62  1  0
 54 64  1  0
 55 61  1  0
 55 57  1  0
 56 62  1  0
 57 56  1  0
 58 57  2  0
 59 60  1  0
 59 53  2  0
 60 55  2  0
 61 54  1  0
 62 52  1  0
 64 66  2  0
 65 64  1  0
 67 65  1  0
 68 77  2  0
 68 73  1  0
 69 65  1  0
 69 73  1  0
 70 69  1  0
 71 72  1  0
 71 70  1  0
 72 68  1  0
 73 74  2  0
 74 75  1  0
 76 75  2  0
 77 76  1  0
 78 52  1  0
 78 79  1  0
 78 88  1  0
 79 82  1  0
 80 84  1  0
 80 79  1  0
 81 80  2  0
 84 83  1  0
 86 84  1  0
 86 87  1  0
 86 85  1  0
 88 91  1  1
 88 89  1  0
 90 88  1  0
M  ISO  4   2 101  14 100  15 100  51 101
M  END
>  <TORSDO>  (29) 
F 22

>  <SCORE>  (29) 
-13.127

>  <name>  (29) 
29

>  <ligand_id>  (29) 
29

>  <original_smiles>  (29) 
[H]c1c([H])c([H])c2c(c1[H])C([H])([H])C([H])([H])C([H])([H])C2([H])N([H])C(=O)C1([H])N(C(=O)C([H])(N([H])C(=O)C([H])(N([H])C([H])([H])[H])C([H])([H])[H])C(C([H])([H])[H])(C([H])([H])[H])C([H])([H])[H])C([H])([H])c2c([H])c(Oc3c(C([H])([H])[H])sc(C(=O)C([H])([H])C([H])([H])C([H])([H])C([H])([H])C([H])([H])C(=O)N4C([H])([H])C([H])([H])C([H])([H])C([H])(n5nc(-c6c([H])c([H])c(Oc7c([H])c([H])c(F)c([H])c7F)c([H])c6[H])c(C(=O)N([H])[H])c5N([H])[H])C4([H])[H])c3C([H])([H])[H])c([H])c([H])c2C1([H])[H]

>  <smiles>  (29) 
[H]c1c([H])c([H])c2c(c1[H])C([H])([H])C([H])([H])C([H])([H])C2([H])N([H])C(=O)C1([H])N(C(=O)C([H])(N([H])C(=O)C([H])(N([H])C([H])([H])[H])C([H])([H])[H])C(C([H])([H])[H])(C([H])([H])[H])C([H])([H])[H])C([H])([H])c2c([H])c(Oc3c(C([H])([H])[H])sc(C(=O)C([H])([H])C([H])([H])C([H])([H])C([H])([H])C([H])([H])C(=O)N4C([H])([H])C([H])([H])C([H])([H])C([H])(n5nc(-c6c([H])c([H])c(Oc7c([H])c([H])c(F)c([H])c7F)c([H])c6[H])c(C(=O)N([H])[H])c5N([H])[H])C4([H])[H])c3C([H])([H])[H])c([H])c([H])c2C1([H])[H]

$$$$
30:0:0
     RDKit          3D

 91100  0  0  1  0  0  0  0  0999 V2000
  -29.2840  -19.8840   20.6770 C   0  0  0  0  0  3  0  0  0  0  0  0
  -30.0760  -20.3230   18.1360 C   0  0  0  0  0  3  0  0  0  0  0  0
  -29.1540  -21.3310   20.1740 C   0  0  0  0  0  0  0  0  0  0  0  0
  -29.5900  -21.4720   18.8430 C   0  0  0  0  0  0  0  0  0  0  0  0
  -29.7820  -18.6190   19.9560 C   0  0  0  0  0  0  0  0  0  0  0  0
  -30.1610  -18.9790   18.6360 C   0  0  0  0  0  0  0  0  0  0  0  0
  -28.6190  -24.0070   18.6160 C   0  0  0  0  0  0  0  0  0  0  0  0
  -29.6100  -22.8760   18.1630 C   0  0  0  0  0  2  0  0  0  0  0  0
  -28.5850  -22.7900   20.8700 C   0  0  0  0  0  2  0  0  0  0  0  0
  -28.5990  -24.3680   20.1060 C   0  0  0  0  0  3  0  0  0  0  0  0
  -27.9450  -24.6310   17.7910 O   0  0  0  0  0  0  0  0  0  0  0  0
  -30.6090  -18.0130   17.7960 F   0  0  0  0  0  0  0  0  0  0  0  0
  -28.5540  -16.7610   21.2980 C   0  0  0  0  0  1  0  0  0  0  0  0
  -29.8470  -16.9480   20.5000 C   0  0  0  0  0  3  0  0  0  0  0  0
  -30.5020  -15.3960   19.8990 C   0  0  0  0  0  0  0  0  0  0  0  0
  -30.4740  -12.9660   18.9240 C   0  0  0  0  0  2  0  0  0  0  0  0
  -29.4600  -12.7810   17.7590 C   0  0  0  0  0  2  0  0  0  0  0  0
  -28.0480  -12.4660   18.2940 C   0  0  0  0  0  2  0  0  0  0  0  0
  -27.6790  -13.3790   19.4880 C   0  0  0  0  0  3  0  0  0  0  0  0
  -28.8150  -13.4350   20.5280 C   0  0  0  0  0  2  0  0  0  0  0  0
  -29.9830  -14.0530   19.8610 N   0  0  0  0  0  0  0  0  0  0  0  0
  -31.6550  -15.4080   19.4380 O   0  0  0  0  0  0  0  0  0  0  0  0
  -25.3660  -13.9030   20.4300 C   0  0  0  0  0  0  0  0  0  0  0  0
  -24.3380  -13.1120   20.8540 C   0  0  0  0  0  0  0  0  0  0  0  0
  -24.8020  -11.7650   20.7390 C   0  0  0  0  0  0  0  0  0  0  0  0
  -26.3890  -13.0410   20.0780 N   0  0  0  0  0  0  0  0  0  0  0  0
  -26.0690  -11.7460   20.3320 N   0  0  0  0  0  0  0  0  0  0  0  0
  -24.0940  -10.4960   20.9400 C   0  0  0  0  0  0  0  0  0  0  0  0
  -24.5580   -9.5300   21.8600 C   0  0  0  0  0  3  0  0  0  0  0  0
  -23.8480   -8.3250   22.0500 C   0  0  0  0  0  3  0  0  0  0  0  0
  -22.6600   -8.0770   21.3210 C   0  0  0  0  0  0  0  0  0  0  0  0
  -22.2160   -9.0330   20.3890 C   0  0  0  0  0  3  0  0  0  0  0  0
  -22.9270  -10.2300   20.1970 C   0  0  0  0  0  3  0  0  0  0  0  0
  -21.9190   -6.9240   21.4180 O   0  0  0  0  0  0  0  0  0  0  0  0
  -21.8450   -6.2140   22.5900 C   0  0  0  0  0  0  0  0  0  0  0  0
  -21.3380   -6.7860   23.7770 C   0  0  0  0  0  3  0  0  0  0  0  0
  -21.2100   -5.9980   24.9380 C   0  0  0  0  0  3  0  0  0  0  0  0
  -21.5840   -4.6410   24.9150 C   0  0  0  0  0  0  0  0  0  0  0  0
  -22.0880   -4.0700   23.7310 C   0  0  0  0  0  3  0  0  0  0  0  0
  -22.2140   -4.8540   22.5720 C   0  0  0  0  0  0  0  0  0  0  0  0
  -22.6760   -4.2920   21.4290 F   0  0  0  0  0  0  0  0  0  0  0  0
  -21.4560   -3.8830   26.0290 F   0  0  0  0  0  0  0  0  0  0  0  0
  -22.9640  -13.5720   21.2480 C   0  0  0  0  0  0  0  0  0  0  0  0
  -22.3090  -12.8450   22.1450 N   0  0  0  0  0  0  0  0  0  0  0  0
  -22.4860  -14.6130   20.7970 O   0  0  0  0  0  0  0  0  0  0  0  0
  -22.7130  -12.0040   22.5290 H   0  0  0  0  0  0  0  0  0  0  0  0
  -21.3910  -13.1330   22.4550 H   0  0  0  0  0  0  0  0  0  0  0  0
  -25.5100  -15.2790   20.2830 N   0  0  0  0  0  0  0  0  0  0  0  0
  -24.7710  -15.9350   20.5050 H   0  0  0  0  0  0  0  0  0  0  0  0
  -26.3370  -15.7250   19.9110 H   0  0  0  0  0  0  0  0  0  0  0  0
  -28.3140  -25.9750   20.4550 O   0  0  0  0  0  0  0  0  0  0  0  0
  -24.6210  -31.8740   23.2240 C   0  0  0  0  0  0  0  0  0  0  0  0
  -27.2360  -26.9940   20.2980 C   0  0  0  0  0  0  0  0  0  0  0  0
  -23.4480  -30.4630   21.5770 C   0  0  0  0  0  3  0  0  0  0  0  0
  -24.9190  -28.8520   20.1810 C   0  0  0  0  0  0  0  0  0  0  0  0
  -26.0100  -30.6920   21.4560 C   0  0  0  0  0  2  0  0  0  0  0  0
  -26.0930  -29.2770   20.8150 C   0  0  0  0  0  0  0  0  0  0  0  0
  -27.2360  -28.3680   20.8480 C   0  0  0  0  0  3  0  0  0  0  0  0
  -26.0300  -26.7060   19.6190 C   0  0  0  0  0  3  0  0  0  0  0  0
  -24.9120  -27.5880   19.5610 C   0  0  0  0  0  3  0  0  0  0  0  0
  -23.6970  -29.7680   20.2060 C   0  0  0  0  0  2  0  0  0  0  0  0
  -24.7150  -31.0350   22.1420 N   0  0  0  0  0  0  0  0  0  0  0  0
  -23.5270  -32.1620   23.7340 O   0  0  0  0  0  0  0  0  0  0  0  0
  -22.7460  -29.4720   22.5450 C   0  0  0  0  0  0  0  0  0  0  0  0
  -21.4160  -29.3110   22.4190 N   0  0  0  0  0  0  0  0  0  0  0  0
  -23.4070  -28.8480   23.3800 O   0  0  0  0  0  0  0  0  0  0  0  0
  -20.9360  -29.8640   21.7250 H   0  0  0  0  0  0  0  0  0  0  0  0
  -18.0260  -28.1240   22.9380 C   0  0  0  0  0  0  0  0  0  0  0  0
  -20.5900  -28.3760   23.1910 C   0  0  0  0  0  3  0  0  0  0  0  0
  -20.6810  -26.9450   22.6100 C   0  0  0  0  0  2  0  0  0  0  0  0
  -19.5700  -26.6310   21.6010 C   0  0  0  0  0  2  0  0  0  0  0  0
  -18.1920  -26.7800   22.2520 C   0  0  0  0  0  2  0  0  0  0  0  0
  -19.1520  -28.8810   23.3650 C   0  0  0  0  0  0  0  0  0  0  0  0
  -18.9390  -30.1360   23.9750 C   0  0  0  0  0  3  0  0  0  0  0  0
  -17.6370  -30.6400   24.1510 C   0  0  0  0  0  3  0  0  0  0  0  0
  -16.5270  -29.8830   23.7370 C   0  0  0  0  0  3  0  0  0  0  0  0
  -16.7240  -28.6250   23.1410 C   0  0  0  0  0  3  0  0  0  0  0  0
  -25.8840  -32.5270   23.8640 C   0  0  0  0  0  3  0  0  0  0  0  0
  -25.5580  -33.9260   24.1960 N   0  0  0  0  0  0  0  0  0  0  0  0
  -25.8730  -34.9880   23.4430 C   0  0  0  0  0  0  0  0  0  0  0  0
  -26.5310  -34.8930   22.4030 O   0  0  0  0  0  0  0  0  0  0  0  0
  -24.9730  -34.0680   25.0080 H   0  0  0  0  0  0  0  0  0  0  0  0
  -24.1230  -36.7690   23.1250 C   0  0  0  0  0  1  0  0  0  0  0  0
  -25.3850  -36.3760   23.9110 C   0  0  0  0  0  3  0  0  0  0  0  0
  -27.5200  -37.2860   24.7130 C   0  0  0  0  0  1  0  0  0  0  0  0
  -26.4080  -37.4380   23.7790 N   0  0  0  0  0  0  0  0  0  0  0  0
  -25.9940  -38.3560   23.9240 H   0  0  0  0  0  0  0  0  0  0  0  0
  -26.3850  -31.7680   25.1530 C   0  0  1  0  0  0  0  0  0  0  0  0
  -25.2770  -31.5220   26.2030 C   0  0  0  0  0  1  0  0  0  0  0  0
  -26.9890  -30.3950   24.7850 C   0  0  0  0  0  1  0  0  0  0  0  0
  -27.5190  -32.5740   25.8310 C   0  0  0  0  0  1  0  0  0  0  0  0
  2  6  2  0
  2  4  1  0
  3  1  1  0
  3  9  1  0
  4  3  2  0
  5 14  1  0
  5  1  2  0
  6  5  1  0
  7 10  1  0
  8  7  1  0
  8  4  1  0
 10 51  1  0
 10  9  1  0
 11  7  2  0
 12  6  1  0
 14 13  1  0
 15 14  1  0
 16 21  1  0
 17 18  1  0
 17 16  1  0
 19 18  1  0
 19 26  1  0
 19 20  1  0
 21 15  1  0
 21 20  1  0
 22 15  2  0
 23 24  2  0
 24 43  1  0
 25 24  1  0
 25 28  1  0
 26 27  1  0
 26 23  1  0
 27 25  2  0
 28 29  1  0
 29 30  2  0
 31 34  1  0
 31 30  1  0
 32 31  2  0
 33 32  1  0
 33 28  2  0
 34 35  1  0
 35 36  1  0
 36 37  2  0
 38 37  1  0
 38 42  1  0
 39 38  2  0
 40 35  2  0
 40 39  1  0
 41 40  1  0
 43 44  1  0
 44 47  1  0
 44 46  1  0
 45 43  2  0
 48 23  1  0
 48 49  1  0
 50 48  1  0
 52 63  2  0
 53 51  1  0
 53 58  1  0
 54 62  1  0
 54 64  1  0
 55 61  1  0
 55 57  1  0
 56 62  1  0
 57 58  2  0
 57 56  1  0
 59 53  2  0
 60 59  1  0
 60 55  2  0
 61 54  1  0
 62 52  1  0
 64 66  2  0
 65 64  1  0
 67 65  1  0
 68 77  2  0
 68 73  1  0
 69 65  1  0
 69 73  1  0
 70 69  1  0
 71 72  1  0
 71 70  1  0
 72 68  1  0
 73 74  2  0
 74 75  1  0
 76 75  2  0
 77 76  1  0
 78 52  1  0
 78 79  1  0
 78 88  1  0
 79 82  1  0
 80 84  1  0
 80 79  1  0
 81 80  2  0
 84 83  1  0
 86 84  1  0
 86 87  1  0
 86 85  1  0
 88 91  1  1
 88 89  1  0
 90 88  1  0
M  ISO  4  10 101  14 100  15 100  51 101
M  END
>  <TORSDO>  (30) 
F 17

>  <SCORE>  (30) 
-16.108

>  <name>  (30) 
30

>  <ligand_id>  (30) 
30

>  <original_smiles>  (30) 
[H]c1c([H])c([H])c2c(c1[H])C([H])([H])C([H])([H])C([H])([H])C2([H])N([H])C(=O)C1([H])N(C(=O)C([H])(N([H])C(=O)C([H])(N([H])C([H])([H])[H])C([H])([H])[H])C(C([H])([H])[H])(C([H])([H])[H])C([H])([H])[H])C([H])([H])c2c([H])c(OC3([H])C(=O)C([H])([H])c4c([H])c(F)c(C([H])(C(=O)N5C([H])([H])C([H])([H])C([H])([H])C([H])(n6nc(-c7c([H])c([H])c(Oc8c([H])c([H])c(F)c([H])c8F)c([H])c7[H])c(C(=O)N([H])[H])c6N([H])[H])C5([H])[H])C([H])([H])[H])c([H])c4C3([H])[H])c([H])c([H])c2C1([H])[H]

>  <smiles>  (30) 
[H]c1c([H])c([H])c2c(c1[H])C([H])([H])C([H])([H])C([H])([H])C2([H])N([H])C(=O)C1([H])N(C(=O)C([H])(N([H])C(=O)C([H])(N([H])C([H])([H])[H])C([H])([H])[H])C(C([H])([H])[H])(C([H])([H])[H])C([H])([H])[H])C([H])([H])c2c([H])c(OC3([H])C(=O)C([H])([H])c4c([H])c(F)c(C([H])(C(=O)N5C([H])([H])C([H])([H])C([H])([H])C([H])(n6nc(-c7c([H])c([H])c(Oc8c([H])c([H])c(F)c([H])c8F)c([H])c7[H])c(C(=O)N([H])[H])c6N([H])[H])C5([H])[H])C([H])([H])[H])c([H])c4C3([H])[H])c([H])c([H])c2C1([H])[H]

$$$$
31:0:0
     RDKit          3D

 93103  0  0  1  0  0  0  0  0999 V2000
  -30.9090  -18.4010   18.1260 C   0  0  0  0  0  3  0  0  0  0  0  0
  -30.4850  -16.6000   19.8070 C   0  0  0  0  0  0  0  0  0  0  0  0
  -30.5680  -19.4200   19.0270 C   0  0  0  0  0  0  0  0  0  0  0  0
  -30.0180  -19.1550   20.2800 C   0  0  0  0  0  0  0  0  0  0  0  0
  -30.0190  -17.7100   20.6980 C   0  0  0  0  0  0  0  0  0  0  0  0
  -30.8700  -17.0420   18.4990 C   0  0  0  0  0  0  0  0  0  0  0  0
  -30.9430  -20.8800   18.8330 C   0  0  0  0  0  2  0  0  0  0  0  0
  -28.6540  -21.7180   20.7260 C   0  0  0  0  0  2  0  0  0  0  0  0
  -30.5420  -23.0500   20.2440 C   0  0  0  0  0  2  0  0  0  0  0  0
  -29.8520  -20.6250   20.9970 C   0  0  0  0  0  3  0  0  0  0  0  0
  -29.1420  -23.2900   20.8430 C   0  0  0  0  0  3  0  0  0  0  0  0
  -30.9260  -21.5060   20.2660 C   0  0  1  0  0  0  0  0  0  0  0  0
  -29.6000  -17.3040   22.1090 C   0  0  0  0  0  1  0  0  0  0  0  0
  -32.3140  -21.3360   20.9300 C   0  0  0  0  0  1  0  0  0  0  0  0
  -31.3230  -16.1590   17.5710 F   0  0  0  0  0  0  0  0  0  0  0  0
  -30.9750  -15.0950   20.1310 C   0  0  0  0  0  0  0  0  0  0  0  0
  -30.7150  -12.7940   19.1510 C   0  0  0  0  0  2  0  0  0  0  0  0
  -29.7200  -12.6960   17.9780 C   0  0  0  0  0  2  0  0  0  0  0  0
  -28.2940  -12.4390   18.4900 C   0  0  0  0  0  2  0  0  0  0  0  0
  -27.9170  -13.3810   19.6630 C   0  0  0  0  0  3  0  0  0  0  0  0
  -29.0340  -13.4950   20.7280 C   0  0  0  0  0  2  0  0  0  0  0  0
  -30.2610  -13.9030   20.0380 N   0  0  0  0  0  0  0  0  0  0  0  0
  -32.2010  -14.9680   20.0480 O   0  0  0  0  0  0  0  0  0  0  0  0
  -25.5720  -13.9370   20.5390 C   0  0  0  0  0  0  0  0  0  0  0  0
  -24.5180  -13.1540   20.9180 C   0  0  0  0  0  0  0  0  0  0  0  0
  -24.9720  -11.8030   20.8190 C   0  0  0  0  0  0  0  0  0  0  0  0
  -26.6040  -13.0660   20.2280 N   0  0  0  0  0  0  0  0  0  0  0  0
  -26.2520  -11.7730   20.4630 N   0  0  0  0  0  0  0  0  0  0  0  0
  -24.2460  -10.5370   20.9900 C   0  0  0  0  0  0  0  0  0  0  0  0
  -24.6610   -9.5700   21.9350 C   0  0  0  0  0  3  0  0  0  0  0  0
  -23.9350   -8.3710   22.1010 C   0  0  0  0  0  3  0  0  0  0  0  0
  -22.7740   -8.1320   21.3240 C   0  0  0  0  0  0  0  0  0  0  0  0
  -22.3760   -9.0890   20.3720 C   0  0  0  0  0  3  0  0  0  0  0  0
  -23.1030  -10.2790   20.2030 C   0  0  0  0  0  3  0  0  0  0  0  0
  -22.0210   -6.9810   21.3970 O   0  0  0  0  0  0  0  0  0  0  0  0
  -21.8780   -6.2880   22.5720 C   0  0  0  0  0  0  0  0  0  0  0  0
  -21.2910   -6.8730   23.7170 C   0  0  0  0  0  3  0  0  0  0  0  0
  -21.1010   -6.1050   24.8830 C   0  0  0  0  0  3  0  0  0  0  0  0
  -21.4810   -4.7490   24.9040 C   0  0  0  0  0  0  0  0  0  0  0  0
  -22.0570   -4.1610   23.7630 C   0  0  0  0  0  3  0  0  0  0  0  0
  -22.2510   -4.9270   22.5990 C   0  0  0  0  0  0  0  0  0  0  0  0
  -22.7870   -4.3500   21.4980 F   0  0  0  0  0  0  0  0  0  0  0  0
  -21.2880   -4.0070   26.0210 F   0  0  0  0  0  0  0  0  0  0  0  0
  -23.1300  -13.6300   21.2460 C   0  0  0  0  0  0  0  0  0  0  0  0
  -22.4180  -12.9250   22.1190 N   0  0  0  0  0  0  0  0  0  0  0  0
  -22.6840  -14.6690   20.7630 O   0  0  0  0  0  0  0  0  0  0  0  0
  -22.7820  -12.0890   22.5510 H   0  0  0  0  0  0  0  0  0  0  0  0
  -21.4870  -13.2330   22.3720 H   0  0  0  0  0  0  0  0  0  0  0  0
  -25.7310  -15.3150   20.4010 N   0  0  0  0  0  0  0  0  0  0  0  0
  -24.9580  -15.9610   20.5350 H   0  0  0  0  0  0  0  0  0  0  0  0
  -26.5720  -15.7820   20.0960 H   0  0  0  0  0  0  0  0  0  0  0  0
  -28.2830  -24.6530   20.2930 C   0  0  0  0  0  2  0  0  0  0  0  0
  -28.5460  -26.1890   20.4900 O   0  0  0  0  0  0  0  0  0  0  0  0
  -24.7520  -31.8270   23.2840 C   0  0  0  0  0  0  0  0  0  0  0  0
  -27.5180  -27.1910   20.3170 C   0  0  0  0  0  0  0  0  0  0  0  0
  -23.6560  -30.4540   21.5560 C   0  0  0  0  0  3  0  0  0  0  0  0
  -25.1920  -28.9450   20.1490 C   0  0  0  0  0  0  0  0  0  0  0  0
  -26.2140  -30.7540   21.5260 C   0  0  0  0  0  2  0  0  0  0  0  0
  -26.3340  -29.3810   20.8410 C   0  0  0  0  0  0  0  0  0  0  0  0
  -27.4980  -28.5260   20.8930 C   0  0  0  0  0  3  0  0  0  0  0  0
  -26.3640  -26.8710   19.5640 C   0  0  0  0  0  3  0  0  0  0  0  0
  -25.2330  -27.7140   19.4750 C   0  0  0  0  0  3  0  0  0  0  0  0
  -23.9550  -29.8300   20.1660 C   0  0  0  0  0  2  0  0  0  0  0  0
  -24.8910  -31.0340   22.1760 N   0  0  0  0  0  0  0  0  0  0  0  0
  -23.6370  -32.0750   23.7670 O   0  0  0  0  0  0  0  0  0  0  0  0
  -22.9480  -29.4090   22.4540 C   0  0  0  0  0  0  0  0  0  0  0  0
  -21.6240  -29.2430   22.2860 N   0  0  0  0  0  0  0  0  0  0  0  0
  -23.5960  -28.7530   23.2700 O   0  0  0  0  0  0  0  0  0  0  0  0
  -21.1510  -29.8110   21.5980 H   0  0  0  0  0  0  0  0  0  0  0  0
  -18.2210  -28.0820   22.7150 C   0  0  0  0  0  0  0  0  0  0  0  0
  -20.7820  -28.2810   23.0060 C   0  0  0  0  0  3  0  0  0  0  0  0
  -20.8630  -26.8810   22.3520 C   0  0  0  0  0  2  0  0  0  0  0  0
  -19.7590  -26.6340   21.3210 C   0  0  0  0  0  2  0  0  0  0  0  0
  -18.3770  -26.7710   21.9650 C   0  0  0  0  0  2  0  0  0  0  0  0
  -19.3490  -28.8010   23.1900 C   0  0  0  0  0  0  0  0  0  0  0  0
  -19.1440  -30.0330   23.8490 C   0  0  0  0  0  3  0  0  0  0  0  0
  -17.8440  -30.5400   24.0420 C   0  0  0  0  0  3  0  0  0  0  0  0
  -16.7310  -29.8140   23.5820 C   0  0  0  0  0  3  0  0  0  0  0  0
  -16.9210  -28.5880   22.9220 C   0  0  0  0  0  3  0  0  0  0  0  0
  -25.9880  -32.4720   23.9810 C   0  0  0  0  0  3  0  0  0  0  0  0
  -25.6520  -33.8730   24.2800 N   0  0  0  0  0  0  0  0  0  0  0  0
  -25.9750  -34.9220   23.5100 C   0  0  0  0  0  0  0  0  0  0  0  0
  -26.6540  -34.8110   22.4860 O   0  0  0  0  0  0  0  0  0  0  0  0
  -25.0610  -34.0310   25.0840 H   0  0  0  0  0  0  0  0  0  0  0  0
  -24.2080  -36.6730   23.1310 C   0  0  0  0  0  1  0  0  0  0  0  0
  -25.4650  -36.3100   23.9400 C   0  0  0  0  0  3  0  0  0  0  0  0
  -27.5830  -37.2660   24.7380 C   0  0  0  0  0  1  0  0  0  0  0  0
  -26.4750  -37.3800   23.7940 N   0  0  0  0  0  0  0  0  0  0  0  0
  -26.0480  -38.2960   23.9130 H   0  0  0  0  0  0  0  0  0  0  0  0
  -26.4170  -31.7200   25.3010 C   0  0  1  0  0  0  0  0  0  0  0  0
  -25.2590  -31.4870   26.3000 C   0  0  0  0  0  1  0  0  0  0  0  0
  -27.0310  -30.3420   24.9750 C   0  0  0  0  0  1  0  0  0  0  0  0
  -27.5150  -32.5330   26.0290 C   0  0  0  0  0  1  0  0  0  0  0  0
  1  6  2  0
  1  3  1  0
  2 16  1  0
  2  5  2  0
  3  4  2  0
  4  5  1  0
  4 10  1  0
  5 13  1  0
  6  2  1  0
  7  3  1  0
  7 12  1  0
  8 11  1  0
  9 12  1  0
  9 11  1  0
 10  8  1  0
 11 52  1  0
 12 14  1  1
 12 10  1  0
 15  6  1  0
 17 22  1  0
 18 19  1  0
 18 17  1  0
 20 19  1  0
 20 27  1  0
 20 21  1  0
 22 16  1  0
 22 21  1  0
 23 16  2  0
 24 25  2  0
 25 44  1  0
 26 25  1  0
 26 29  1  0
 27 28  1  0
 27 24  1  0
 28 26  2  0
 29 30  1  0
 30 31  2  0
 32 35  1  0
 32 31  1  0
 33 32  2  0
 34 33  1  0
 34 29  2  0
 35 36  1  0
 36 41  2  0
 36 37  1  0
 37 38  2  0
 38 39  1  0
 39 43  1  0
 40 39  2  0
 41 40  1  0
 42 41  1  0
 44 45  1  0
 45 48  1  0
 45 47  1  0
 46 44  2  0
 49 50  1  0
 49 24  1  0
 51 49  1  0
 52 53  1  0
 54 65  2  0
 55 53  1  0
 55 60  1  0
 56 64  1  0
 56 66  1  0
 57 63  1  0
 57 59  1  0
 58 64  1  0
 59 60  2  0
 59 58  1  0
 61 55  2  0
 62 61  1  0
 62 57  2  0
 63 56  1  0
 64 54  1  0
 66 68  2  0
 67 66  1  0
 69 67  1  0
 70 79  2  0
 70 75  1  0
 71 67  1  0
 71 75  1  0
 72 71  1  0
 73 74  1  0
 73 72  1  0
 74 70  1  0
 75 76  2  0
 76 77  1  0
 78 77  2  0
 79 78  1  0
 80 54  1  0
 80 81  1  0
 80 90  1  0
 81 84  1  0
 82 86  1  0
 82 81  1  0
 83 82  2  0
 86 85  1  0
 88 89  1  0
 88 86  1  0
 88 87  1  0
 90 93  1  1
 90 91  1  0
 92 90  1  0
M  ISO  4   2 100  16 100  52 101  53 101
M  END
>  <TORSDO>  (31) 
F 17

>  <SCORE>  (31) 
-15.101

>  <name>  (31) 
31

>  <ligand_id>  (31) 
31

>  <original_smiles>  (31) 
[H]c1c([H])c([H])c2c(c1[H])C([H])([H])C([H])([H])C([H])([H])C2([H])N([H])C(=O)C1([H])N(C(=O)C([H])(N([H])C(=O)C([H])(N([H])C([H])([H])[H])C([H])([H])[H])C(C([H])([H])[H])(C([H])([H])[H])C([H])([H])[H])C([H])([H])c2c([H])c(OC([H])([H])C3([H])C([H])([H])C4([H])c5c(C([H])([H])[H])c(C(=O)N6C([H])([H])C([H])([H])C([H])([H])C([H])(n7nc(-c8c([H])c([H])c(Oc9c([H])c([H])c(F)c([H])c9F)c([H])c8[H])c(C(=O)N([H])[H])c7N([H])[H])C6([H])[H])c(F)c([H])c5C([H])([H])C4(C([H])([H])[H])C3([H])[H])c([H])c([H])c2C1([H])[H]

>  <smiles>  (31) 
[H]c1c([H])c([H])c2c(c1[H])C([H])([H])C([H])([H])C([H])([H])C2([H])N([H])C(=O)C1([H])N(C(=O)C([H])(N([H])C(=O)C([H])(N([H])C([H])([H])[H])C([H])([H])[H])C(C([H])([H])[H])(C([H])([H])[H])C([H])([H])[H])C([H])([H])c2c([H])c(OC([H])([H])C3([H])C([H])([H])C4([H])c5c(C([H])([H])[H])c(C(=O)N6C([H])([H])C([H])([H])C([H])([H])C([H])(n7nc(-c8c([H])c([H])c(Oc9c([H])c([H])c(F)c([H])c9F)c([H])c8[H])c(C(=O)N([H])[H])c7N([H])[H])C6([H])[H])c(F)c([H])c5C([H])([H])C4(C([H])([H])[H])C3([H])[H])c([H])c([H])c2C1([H])[H]

$$$$
32:0:0
     RDKit          3D

 92100  0  0  1  0  0  0  0  0999 V2000
  -29.0420  -20.5210   22.4650 C   0  0  0  0  0  2  0  0  0  0  0  0
  -28.9090  -19.2560   23.3440 C   0  0  0  0  0  2  0  0  0  0  0  0
  -29.0140  -17.7830   21.2580 C   0  0  0  0  0  3  0  0  0  0  0  0
  -29.7560  -16.8610   23.3730 C   0  0  0  0  0  3  0  0  0  0  0  0
  -30.0610  -15.5670   21.3050 C   0  0  0  0  0  0  0  0  0  0  0  0
  -29.2290  -17.9420   22.6380 C   0  0  0  0  0  0  0  0  0  0  0  0
  -29.4160  -16.6150   20.5830 C   0  0  0  0  0  0  0  0  0  0  0  0
  -30.1800  -15.6820   22.7150 C   0  0  0  0  0  0  0  0  0  0  0  0
  -29.1220  -16.5710   19.0890 C   0  0  0  0  0  1  0  0  0  0  0  0
  -30.8370  -14.5860   23.5490 C   0  0  0  0  0  1  0  0  0  0  0  0
  -30.7130  -14.4140   20.5800 C   0  0  0  0  0  0  0  0  0  0  0  0
  -30.4200  -12.2760   19.4070 C   0  0  0  0  0  2  0  0  0  0  0  0
  -29.4960  -12.4960   18.1960 C   0  0  0  0  0  2  0  0  0  0  0  0
  -28.0170  -12.3570   18.6140 C   0  0  0  0  0  2  0  0  0  0  0  0
  -27.6630  -13.1950   19.8690 C   0  0  0  0  0  3  0  0  0  0  0  0
  -28.7030  -12.9670   20.9890 C   0  0  0  0  0  2  0  0  0  0  0  0
  -30.0360  -13.2530   20.4370 N   0  0  0  0  0  0  0  0  0  0  0  0
  -31.8080  -14.6310   20.0480 O   0  0  0  0  0  0  0  0  0  0  0  0
  -25.2620  -13.8160   20.5570 C   0  0  0  0  0  0  0  0  0  0  0  0
  -24.1870  -13.0450   20.9130 C   0  0  0  0  0  0  0  0  0  0  0  0
  -24.6400  -11.6880   20.8660 C   0  0  0  0  0  0  0  0  0  0  0  0
  -26.3020  -12.9280   20.3330 N   0  0  0  0  0  0  0  0  0  0  0  0
  -25.9330  -11.6450   20.5720 N   0  0  0  0  0  0  0  0  0  0  0  0
  -23.9080  -10.4310   21.0410 C   0  0  0  0  0  0  0  0  0  0  0  0
  -24.3660   -9.4190   21.9130 C   0  0  0  0  0  3  0  0  0  0  0  0
  -23.6310   -8.2270   22.0760 C   0  0  0  0  0  3  0  0  0  0  0  0
  -22.4300   -8.0320   21.3540 C   0  0  0  0  0  0  0  0  0  0  0  0
  -21.9910   -9.0280   20.4660 C   0  0  0  0  0  3  0  0  0  0  0  0
  -22.7260  -10.2140   20.3010 C   0  0  0  0  0  3  0  0  0  0  0  0
  -21.6620   -6.8900   21.4260 O   0  0  0  0  0  0  0  0  0  0  0  0
  -21.6840   -6.0740   22.5260 C   0  0  0  0  0  0  0  0  0  0  0  0
  -21.4030   -6.5650   23.8200 C   0  0  0  0  0  3  0  0  0  0  0  0
  -21.3630   -5.6780   24.9160 C   0  0  0  0  0  3  0  0  0  0  0  0
  -21.6050   -4.3040   24.7190 C   0  0  0  0  0  0  0  0  0  0  0  0
  -21.8830   -3.8140   23.4340 C   0  0  0  0  0  3  0  0  0  0  0  0
  -21.9220   -4.6970   22.3410 C   0  0  0  0  0  0  0  0  0  0  0  0
  -22.1670   -4.2170   21.0970 F   0  0  0  0  0  0  0  0  0  0  0  0
  -21.5620   -3.4530   25.7720 F   0  0  0  0  0  0  0  0  0  0  0  0
  -22.7900  -13.5260   21.1830 C   0  0  0  0  0  0  0  0  0  0  0  0
  -22.0560  -12.8200   22.0350 N   0  0  0  0  0  0  0  0  0  0  0  0
  -22.3550  -14.5570   20.6740 O   0  0  0  0  0  0  0  0  0  0  0  0
  -22.4180  -11.9890   22.4700 H   0  0  0  0  0  0  0  0  0  0  0  0
  -21.1200  -13.1250   22.2600 H   0  0  0  0  0  0  0  0  0  0  0  0
  -25.4400  -15.1860   20.4060 N   0  0  0  0  0  0  0  0  0  0  0  0
  -24.6870  -15.8500   20.5320 H   0  0  0  0  0  0  0  0  0  0  0  0
  -26.3240  -15.6250   20.1820 H   0  0  0  0  0  0  0  0  0  0  0  0
  -28.6940  -21.8150   23.2070 C   0  0  0  0  0  2  0  0  0  0  0  0
  -28.4680  -23.0320   22.2900 C   0  0  0  0  0  2  0  0  0  0  0  0
  -29.7060  -23.5160   21.5050 C   0  0  0  0  0  2  0  0  0  0  0  0
  -29.8580  -25.0550   21.3650 C   0  0  0  0  0  2  0  0  0  0  0  0
  -28.5080  -25.8030   21.0930 C   0  0  0  0  0  2  0  0  0  0  0  0
  -28.4850  -26.7740   20.0610 O   0  0  0  0  0  0  0  0  0  0  0  0
  -24.6140  -31.8670   23.2070 C   0  0  0  0  0  0  0  0  0  0  0  0
  -27.3050  -27.4910   20.0710 C   0  0  0  0  0  0  0  0  0  0  0  0
  -23.4040  -30.4810   21.5470 C   0  0  0  0  0  3  0  0  0  0  0  0
  -24.8720  -28.9430   20.1180 C   0  0  0  0  0  0  0  0  0  0  0  0
  -25.9280  -30.8460   21.3550 C   0  0  0  0  0  2  0  0  0  0  0  0
  -26.0240  -29.4850   20.7010 C   0  0  0  0  0  0  0  0  0  0  0  0
  -27.2450  -28.7710   20.6690 C   0  0  0  0  0  3  0  0  0  0  0  0
  -26.1340  -26.9570   19.4840 C   0  0  0  0  0  3  0  0  0  0  0  0
  -24.9210  -27.6750   19.5070 C   0  0  0  0  0  3  0  0  0  0  0  0
  -23.6190  -29.7970   20.1670 C   0  0  0  0  0  2  0  0  0  0  0  0
  -24.6650  -31.0770   22.0970 N   0  0  0  0  0  0  0  0  0  0  0  0
  -23.5340  -32.1390   23.7440 O   0  0  0  0  0  0  0  0  0  0  0  0
  -22.7370  -29.4650   22.5010 C   0  0  0  0  0  0  0  0  0  0  0  0
  -21.4140  -29.3000   22.3650 N   0  0  0  0  0  0  0  0  0  0  0  0
  -23.4180  -28.8300   23.3100 O   0  0  0  0  0  0  0  0  0  0  0  0
  -20.9350  -29.8500   21.6630 H   0  0  0  0  0  0  0  0  0  0  0  0
  -18.0260  -28.1370   22.8430 C   0  0  0  0  0  0  0  0  0  0  0  0
  -20.5840  -28.3630   23.1270 C   0  0  0  0  0  3  0  0  0  0  0  0
  -20.6800  -26.9370   22.5410 C   0  0  0  0  0  2  0  0  0  0  0  0
  -19.5760  -26.6310   21.5220 C   0  0  0  0  0  2  0  0  0  0  0  0
  -18.1960  -26.7880   22.1630 C   0  0  0  0  0  2  0  0  0  0  0  0
  -19.1520  -28.8820   23.2880 C   0  0  0  0  0  0  0  0  0  0  0  0
  -18.9410  -30.1430   23.8880 C   0  0  0  0  0  3  0  0  0  0  0  0
  -17.6410  -30.6530   24.0550 C   0  0  0  0  0  3  0  0  0  0  0  0
  -16.5300  -29.9040   23.6270 C   0  0  0  0  0  3  0  0  0  0  0  0
  -16.7260  -28.6460   23.0320 C   0  0  0  0  0  3  0  0  0  0  0  0
  -25.9030  -32.4830   23.8360 C   0  0  0  0  0  3  0  0  0  0  0  0
  -25.5860  -33.8620   24.2320 N   0  0  0  0  0  0  0  0  0  0  0  0
  -25.9020  -34.9480   23.5100 C   0  0  0  0  0  0  0  0  0  0  0  0
  -26.5600  -34.8960   22.4710 O   0  0  0  0  0  0  0  0  0  0  0  0
  -25.0080  -33.9760   25.0490 H   0  0  0  0  0  0  0  0  0  0  0  0
  -24.1500  -36.7330   23.2640 C   0  0  0  0  0  1  0  0  0  0  0  0
  -25.4100  -36.3130   24.0360 C   0  0  0  0  0  3  0  0  0  0  0  0
  -27.5590  -37.1820   24.8470 C   0  0  0  0  0  1  0  0  0  0  0  0
  -26.4310  -37.3790   23.9410 N   0  0  0  0  0  0  0  0  0  0  0  0
  -26.0200  -38.2880   24.1390 H   0  0  0  0  0  0  0  0  0  0  0  0
  -26.4490  -31.6570   25.0640 C   0  0  1  0  0  0  0  0  0  0  0  0
  -25.3750  -31.3630   26.1390 C   0  0  0  0  0  1  0  0  0  0  0  0
  -27.0320  -30.3030   24.5960 C   0  0  0  0  0  1  0  0  0  0  0  0
  -27.6090  -32.4250   25.7400 C   0  0  0  0  0  1  0  0  0  0  0  0
  1 47  1  0
  1  2  1  0
  3  6  1  0
  5  8  2  0
  6  2  1  0
  6  4  2  0
  7  3  2  0
  7  5  1  0
  8  4  1  0
  8 10  1  0
  9  7  1  0
 11  5  1  0
 12 17  1  0
 13 14  1  0
 13 12  1  0
 15 14  1  0
 15 22  1  0
 15 16  1  0
 17 11  1  0
 17 16  1  0
 18 11  2  0
 19 20  2  0
 20 39  1  0
 21 20  1  0
 21 24  1  0
 22 19  1  0
 22 23  1  0
 23 21  2  0
 24 25  1  0
 25 26  2  0
 27 30  1  0
 27 26  1  0
 28 27  2  0
 29 28  1  0
 29 24  2  0
 30 31  1  0
 31 32  1  0
 32 33  2  0
 34 33  1  0
 34 38  1  0
 35 34  2  0
 36 31  2  0
 36 35  1  0
 37 36  1  0
 39 40  1  0
 40 43  1  0
 40 42  1  0
 41 39  2  0
 44 45  1  0
 44 19  1  0
 46 44  1  0
 48 47  1  0
 49 48  1  0
 50 49  1  0
 51 50  1  0
 52 54  1  0
 52 51  1  0
 53 64  2  0
 54 59  1  0
 55 63  1  0
 55 65  1  0
 56 62  1  0
 56 58  1  0
 57 63  1  0
 58 57  1  0
 59 58  2  0
 60 61  1  0
 60 54  2  0
 61 56  2  0
 62 55  1  0
 63 53  1  0
 65 67  2  0
 66 65  1  0
 68 66  1  0
 69 78  2  0
 69 74  1  0
 70 66  1  0
 70 74  1  0
 71 70  1  0
 72 73  1  0
 72 71  1  0
 73 69  1  0
 74 75  2  0
 75 76  1  0
 77 76  2  0
 78 77  1  0
 79 53  1  0
 79 80  1  0
 79 89  1  0
 80 83  1  0
 81 85  1  0
 81 80  1  0
 82 81  2  0
 85 84  1  0
 87 85  1  0
 87 88  1  0
 87 86  1  0
 89 92  1  1
 89 90  1  0
 91 89  1  0
M  ISO  4   5 100  11 100  51 101  52 101
M  END
>  <TORSDO>  (32) 
F 23

>  <SCORE>  (32) 
3.905

>  <name>  (32) 
32

>  <ligand_id>  (32) 
32

>  <original_smiles>  (32) 
[H]c1c([H])c([H])c2c(c1[H])C([H])([H])C([H])([H])C([H])([H])C2([H])N([H])C(=O)C1([H])N(C(=O)C([H])(N([H])C(=O)C([H])(N([H])C([H])([H])[H])C([H])([H])[H])C(C([H])([H])[H])(C([H])([H])[H])C([H])([H])[H])C([H])([H])c2c([H])c(OC([H])([H])C([H])([H])C([H])([H])C([H])([H])C([H])([H])C([H])([H])C([H])([H])c3c([H])c(C([H])([H])[H])c(C(=O)N4C([H])([H])C([H])([H])C([H])([H])C([H])(n5nc(-c6c([H])c([H])c(Oc7c([H])c([H])c(F)c([H])c7F)c([H])c6[H])c(C(=O)N([H])[H])c5N([H])[H])C4([H])[H])c(C([H])([H])[H])c3[H])c([H])c([H])c2C1([H])[H]

>  <smiles>  (32) 
[H]c1c([H])c([H])c2c(c1[H])C([H])([H])C([H])([H])C([H])([H])C2([H])N([H])C(=O)C1([H])N(C(=O)C([H])(N([H])C(=O)C([H])(N([H])C([H])([H])[H])C([H])([H])[H])C(C([H])([H])[H])(C([H])([H])[H])C([H])([H])[H])C([H])([H])c2c([H])c(OC([H])([H])C([H])([H])C([H])([H])C([H])([H])C([H])([H])C([H])([H])C([H])([H])c3c([H])c(C([H])([H])[H])c(C(=O)N4C([H])([H])C([H])([H])C([H])([H])C([H])(n5nc(-c6c([H])c([H])c(Oc7c([H])c([H])c(F)c([H])c7F)c([H])c6[H])c(C(=O)N([H])[H])c5N([H])[H])C4([H])[H])c(C([H])([H])[H])c3[H])c([H])c([H])c2C1([H])[H]

$$$$
33:0:0
     RDKit          3D

 96105  0  0  1  0  0  0  0  0999 V2000
  -30.3080  -23.9000   21.3880 C   0  0  0  0  0  3  0  0  0  0  0  0
  -28.6640  -24.5820   23.0290 C   0  0  0  0  0  3  0  0  0  0  0  0
  -29.6640  -23.6780   22.6250 C   0  0  0  0  0  0  0  0  0  0  0  0
  -29.9100  -24.9590   20.5480 C   0  0  0  0  0  0  0  0  0  0  0  0
  -28.2630  -25.6630   22.2140 C   0  0  0  0  0  0  0  0  0  0  0  0
  -28.8660  -25.8370   20.9250 C   0  0  0  0  0  0  0  0  0  0  0  0
  -30.6310  -25.1560   19.2260 C   0  0  0  0  0  1  0  0  0  0  0  0
  -27.2170  -26.5920   22.8170 C   0  0  0  0  0  1  0  0  0  0  0  0
  -30.0300  -22.5440   23.5270 C   0  0  0  0  0  0  0  0  0  0  0  0
  -29.6140  -22.4420   24.6850 O   0  0  0  0  0  0  0  0  0  0  0  0
  -30.9330  -21.4490   22.9540 C   0  0  0  0  0  2  0  0  0  0  0  0
  -30.5600  -20.0260   23.4090 C   0  0  0  0  0  2  0  0  0  0  0  0
  -31.0130  -19.1050   21.0530 C   0  0  0  0  0  2  0  0  0  0  0  0
  -31.4000  -17.7540   20.4590 C   0  0  0  0  0  2  0  0  0  0  0  0
  -30.8690  -17.5170   22.8400 C   0  0  0  0  0  2  0  0  0  0  0  0
  -31.2740  -18.9660   22.5550 C   0  0  0  0  0  3  0  0  0  0  0  0
  -31.4280  -16.7490   21.6340 C   0  0  0  0  0  3  0  0  0  0  0  0
  -31.1350  -14.6230   20.4300 C   0  0  0  0  0  0  0  0  0  0  0  0
  -30.6920  -12.5500   19.1860 C   0  0  0  0  0  2  0  0  0  0  0  0
  -29.7630  -12.8250   17.9890 C   0  0  0  0  0  2  0  0  0  0  0  0
  -28.2890  -12.7220   18.4190 C   0  0  0  0  0  2  0  0  0  0  0  0
  -27.9810  -13.5500   19.6950 C   0  0  0  0  0  3  0  0  0  0  0  0
  -29.0260  -13.2800   20.8020 C   0  0  0  0  0  2  0  0  0  0  0  0
  -30.3690  -13.5190   20.2460 N   0  0  0  0  0  0  0  0  0  0  0  0
  -32.1820  -14.8220   19.8080 O   0  0  0  0  0  0  0  0  0  0  0  0
  -30.6990  -15.5170   21.3300 N   0  0  0  0  0  0  0  0  0  0  0  0
  -29.8460  -15.3140   21.8290 H   0  0  0  0  0  0  0  0  0  0  0  0
  -25.5890  -14.2090   20.3860 C   0  0  0  0  0  0  0  0  0  0  0  0
  -24.5050  -13.4600   20.7580 C   0  0  0  0  0  0  0  0  0  0  0  0
  -24.9410  -12.0990   20.7390 C   0  0  0  0  0  0  0  0  0  0  0  0
  -26.6190  -13.3070   20.1690 N   0  0  0  0  0  0  0  0  0  0  0  0
  -26.2310  -12.0330   20.4350 N   0  0  0  0  0  0  0  0  0  0  0  0
  -24.1900  -10.8530   20.9360 C   0  0  0  0  0  0  0  0  0  0  0  0
  -24.5910   -9.8930   21.8930 C   0  0  0  0  0  3  0  0  0  0  0  0
  -23.8430   -8.7110   22.0770 C   0  0  0  0  0  3  0  0  0  0  0  0
  -22.6800   -8.4800   21.3040 C   0  0  0  0  0  0  0  0  0  0  0  0
  -22.2990   -9.4260   20.3370 C   0  0  0  0  0  3  0  0  0  0  0  0
  -23.0480  -10.6000   20.1520 C   0  0  0  0  0  3  0  0  0  0  0  0
  -21.9050   -7.3480   21.3970 O   0  0  0  0  0  0  0  0  0  0  0  0
  -21.8030   -6.6390   22.5680 C   0  0  0  0  0  0  0  0  0  0  0  0
  -21.3510   -7.2350   23.7640 C   0  0  0  0  0  3  0  0  0  0  0  0
  -21.1960   -6.4530   24.9260 C   0  0  0  0  0  3  0  0  0  0  0  0
  -21.4820   -5.0750   24.8910 C   0  0  0  0  0  0  0  0  0  0  0  0
  -21.9280   -4.4780   23.6980 C   0  0  0  0  0  3  0  0  0  0  0  0
  -22.0840   -5.2580   22.5390 C   0  0  0  0  0  0  0  0  0  0  0  0
  -22.4930   -4.6730   21.3870 F   0  0  0  0  0  0  0  0  0  0  0  0
  -21.3260   -4.3210   26.0040 F   0  0  0  0  0  0  0  0  0  0  0  0
  -23.1170  -13.9650   21.0230 C   0  0  0  0  0  0  0  0  0  0  0  0
  -22.3790  -13.2960   21.9030 N   0  0  0  0  0  0  0  0  0  0  0  0
  -22.6950  -14.9890   20.4870 O   0  0  0  0  0  0  0  0  0  0  0  0
  -22.7320  -12.4690   22.3610 H   0  0  0  0  0  0  0  0  0  0  0  0
  -21.4460  -13.6170   22.1220 H   0  0  0  0  0  0  0  0  0  0  0  0
  -25.7810  -15.5750   20.1990 N   0  0  0  0  0  0  0  0  0  0  0  0
  -25.0280  -16.2460   20.3010 H   0  0  0  0  0  0  0  0  0  0  0  0
  -26.6480  -15.9960   19.8870 H   0  0  0  0  0  0  0  0  0  0  0  0
  -28.5690  -26.8160   19.9900 O   0  0  0  0  0  0  0  0  0  0  0  0
  -24.6980  -31.7730   23.2000 C   0  0  0  0  0  0  0  0  0  0  0  0
  -27.3800  -27.4920   19.9960 C   0  0  0  0  0  0  0  0  0  0  0  0
  -23.4850  -30.3660   21.5610 C   0  0  0  0  0  3  0  0  0  0  0  0
  -24.9430  -28.8930   20.0760 C   0  0  0  0  0  0  0  0  0  0  0  0
  -25.9870  -30.8120   21.3010 C   0  0  0  0  0  2  0  0  0  0  0  0
  -26.0940  -29.4590   20.6350 C   0  0  0  0  0  0  0  0  0  0  0  0
  -27.3200  -28.7720   20.5800 C   0  0  0  0  0  3  0  0  0  0  0  0
  -26.2240  -26.9280   19.4190 C   0  0  0  0  0  3  0  0  0  0  0  0
  -25.0000  -27.6260   19.4600 C   0  0  0  0  0  3  0  0  0  0  0  0
  -23.6750  -29.7100   20.1670 C   0  0  0  0  0  2  0  0  0  0  0  0
  -24.7430  -30.9960   22.0810 N   0  0  0  0  0  0  0  0  0  0  0  0
  -23.6250  -32.0090   23.7710 O   0  0  0  0  0  0  0  0  0  0  0  0
  -22.8850  -29.3160   22.5210 C   0  0  0  0  0  0  0  0  0  0  0  0
  -21.5730  -29.0650   22.3830 N   0  0  0  0  0  0  0  0  0  0  0  0
  -23.5940  -28.7300   23.3430 O   0  0  0  0  0  0  0  0  0  0  0  0
  -21.0610  -29.5920   21.6910 H   0  0  0  0  0  0  0  0  0  0  0  0
  -18.2820  -27.6280   22.7750 C   0  0  0  0  0  0  0  0  0  0  0  0
  -20.7990  -28.0880   23.1470 C   0  0  0  0  0  3  0  0  0  0  0  0
  -21.0360  -26.6540   22.6180 C   0  0  0  0  0  2  0  0  0  0  0  0
  -20.0060  -26.2210   21.5700 C   0  0  0  0  0  2  0  0  0  0  0  0
  -18.5900  -26.2790   22.1500 C   0  0  0  0  0  2  0  0  0  0  0  0
  -19.3200  -28.4850   23.2280 C   0  0  0  0  0  0  0  0  0  0  0  0
  -18.9810  -29.7450   23.7680 C   0  0  0  0  0  3  0  0  0  0  0  0
  -17.6360  -30.1490   23.8630 C   0  0  0  0  0  3  0  0  0  0  0  0
  -16.6110  -29.2910   23.4280 C   0  0  0  0  0  3  0  0  0  0  0  0
  -16.9350  -28.0330   22.8890 C   0  0  0  0  0  3  0  0  0  0  0  0
  -25.9850  -32.4220   23.8000 C   0  0  0  0  0  3  0  0  0  0  0  0
  -26.5610  -31.6310   25.0390 C   0  0  1  0  0  0  0  0  0  0  0  0
  -25.5070  -31.3390   26.1330 C   0  0  0  0  0  1  0  0  0  0  0  0
  -27.1630  -30.2800   24.5890 C   0  0  0  0  0  1  0  0  0  0  0  0
  -27.7130  -32.4360   25.6840 C   0  0  0  0  0  1  0  0  0  0  0  0
  -25.6520  -33.8040   24.1710 N   0  0  0  0  0  0  0  0  0  0  0  0
  -25.9590  -34.8810   23.4390 C   0  0  0  0  0  0  0  0  0  0  0  0
  -26.6270  -34.8200   22.4030 O   0  0  0  0  0  0  0  0  0  0  0  0
  -25.0570  -33.9240   24.9790 H   0  0  0  0  0  0  0  0  0  0  0  0
  -24.1950  -36.6470   23.1380 C   0  0  0  0  0  1  0  0  0  0  0  0
  -25.4470  -36.2470   23.9350 C   0  0  0  0  0  3  0  0  0  0  0  0
  -27.5690  -37.1500   24.7800 C   0  0  0  0  0  1  0  0  0  0  0  0
  -26.4580  -37.3230   23.8470 N   0  0  0  0  0  0  0  0  0  0  0  0
  -26.0360  -38.2300   24.0230 H   0  0  0  0  0  0  0  0  0  0  0  0
  1  3  1  0
  3  2  2  0
  3  9  1  0
  4  6  1  0
  4  1  2  0
  5  8  1  0
  5  2  1  0
  6  5  2  0
  7  4  1  0
  9 10  2  0
 11 12  1  0
 11  9  1  0
 13 16  1  0
 14 13  1  0
 14 17  1  0
 16 15  1  0
 16 12  1  0
 17 26  1  0
 17 15  1  0
 18 26  1  0
 19 24  1  0
 20 21  1  0
 20 19  1  0
 22 21  1  0
 22 31  1  0
 22 23  1  0
 24 18  1  0
 24 23  1  0
 25 18  2  0
 26 27  1  0
 28 29  2  0
 29 48  1  0
 30 29  1  0
 30 33  1  0
 31 28  1  0
 31 32  1  0
 32 30  2  0
 33 34  1  0
 34 35  2  0
 36 39  1  0
 36 35  1  0
 37 36  2  0
 38 37  1  0
 38 33  2  0
 39 40  1  0
 40 41  1  0
 41 42  2  0
 43 42  1  0
 43 47  1  0
 44 43  2  0
 45 40  2  0
 45 44  1  0
 46 45  1  0
 48 49  1  0
 49 52  1  0
 49 51  1  0
 50 48  2  0
 53 54  1  0
 53 28  1  0
 55 53  1  0
 56 58  1  0
 56  6  1  0
 57 68  2  0
 58 63  1  0
 59 67  1  0
 59 69  1  0
 60 66  1  0
 60 62  1  0
 61 67  1  0
 62 61  1  0
 63 62  2  0
 64 65  1  0
 64 58  2  0
 65 60  2  0
 66 59  1  0
 67 57  1  0
 69 71  2  0
 70 69  1  0
 72 70  1  0
 73 82  2  0
 73 78  1  0
 74 70  1  0
 74 78  1  0
 75 74  1  0
 76 77  1  0
 76 75  1  0
 77 73  1  0
 78 79  2  0
 79 80  1  0
 81 80  2  0
 82 81  1  0
 83 57  1  0
 83 88  1  0
 83 84  1  0
 84 87  1  1
 84 85  1  0
 86 84  1  0
 88 91  1  0
 89 93  1  0
 89 88  1  0
 90 89  2  0
 93 92  1  0
 95 93  1  0
 95 96  1  0
 95 94  1  0
M  ISO  4   6 101  18 100  26 100  56 101
M  END
>  <TORSDO>  (33) 
F 20

>  <SCORE>  (33) 
-12.917

>  <name>  (33) 
33

>  <ligand_id>  (33) 
33

>  <original_smiles>  (33) 
[H]c1c([H])c([H])c2c(c1[H])C([H])([H])C([H])([H])C([H])([H])C2([H])N([H])C(=O)C1([H])N(C(=O)C([H])(N([H])C(=O)C([H])(N([H])C([H])([H])[H])C([H])([H])[H])C(C([H])([H])[H])(C([H])([H])[H])C([H])([H])[H])C([H])([H])c2c([H])c(Oc3c(C([H])([H])[H])c([H])c(C(=O)C([H])([H])C([H])([H])C4([H])C([H])([H])C([H])([H])C([H])(N([H])C(=O)N5C([H])([H])C([H])([H])C([H])([H])C([H])(n6nc(-c7c([H])c([H])c(Oc8c([H])c([H])c(F)c([H])c8F)c([H])c7[H])c(C(=O)N([H])[H])c6N([H])[H])C5([H])[H])C4([H])[H])c([H])c3C([H])([H])[H])c([H])c([H])c2C1([H])[H]

>  <smiles>  (33) 
[H]c1c([H])c([H])c2c(c1[H])C([H])([H])C([H])([H])C([H])([H])C2([H])N([H])C(=O)C1([H])N(C(=O)C([H])(N([H])C(=O)C([H])(N([H])C([H])([H])[H])C([H])([H])[H])C(C([H])([H])[H])(C([H])([H])[H])C([H])([H])[H])C([H])([H])c2c([H])c(Oc3c(C([H])([H])[H])c([H])c(C(=O)C([H])([H])C([H])([H])C4([H])C([H])([H])C([H])([H])C([H])(N([H])C(=O)N5C([H])([H])C([H])([H])C([H])([H])C([H])(n6nc(-c7c([H])c([H])c(Oc8c([H])c([H])c(F)c([H])c8F)c([H])c7[H])c(C(=O)N([H])[H])c6N([H])[H])C5([H])[H])C4([H])[H])c([H])c3C([H])([H])[H])c([H])c([H])c2C1([H])[H]

$$$$
34:0:0
     RDKit          3D

 96105  0  0  1  0  0  0  0  0999 V2000
  -28.4150  -22.3480   21.2730 C   0  0  0  0  0  3  0  0  0  0  0  0
  -28.2420  -23.7140   21.5550 C   0  0  0  0  0  0  0  0  0  0  0  0
  -29.3980  -21.9100   20.3680 C   0  0  0  0  0  0  0  0  0  0  0  0
  -30.2310  -22.8590   19.7190 C   0  0  0  0  0  0  0  0  0  0  0  0
  -30.1060  -24.2380   20.0430 C   0  0  0  0  0  0  0  0  0  0  0  0
  -29.0990  -24.6720   20.9550 C   0  0  0  0  0  0  0  0  0  0  0  0
  -27.1130  -24.1060   22.4950 C   0  0  0  0  0  1  0  0  0  0  0  0
  -31.2590  -22.4010   18.6860 C   0  0  0  0  0  1  0  0  0  0  0  0
  -31.0480  -25.2480   19.3860 C   0  0  0  0  0  1  0  0  0  0  0  0
  -29.5230  -20.4080   20.1260 C   0  0  0  0  0  2  0  0  0  0  0  0
  -31.4930  -18.9460   19.3960 C   0  0  0  0  0  2  0  0  0  0  0  0
  -30.9310  -19.1130   21.8650 C   0  0  0  0  0  2  0  0  0  0  0  0
  -30.7990  -17.5800   19.3520 C   0  0  0  0  0  2  0  0  0  0  0  0
  -30.2900  -17.7110   21.8120 C   0  0  0  0  0  2  0  0  0  0  0  0
  -30.9170  -19.8490   20.5030 C   0  0  0  0  0  3  0  0  0  0  0  0
  -30.9470  -16.8590   20.7120 C   0  0  0  0  0  3  0  0  0  0  0  0
  -31.0120  -14.4650   20.0900 C   0  0  0  0  0  0  0  0  0  0  0  0
  -30.6100  -12.3000   19.0070 C   0  0  0  0  0  2  0  0  0  0  0  0
  -29.6250  -12.4890   17.8380 C   0  0  0  0  0  2  0  0  0  0  0  0
  -28.1710  -12.3800   18.3330 C   0  0  0  0  0  2  0  0  0  0  0  0
  -27.8920  -13.2630   19.5820 C   0  0  0  0  0  3  0  0  0  0  0  0
  -28.9890  -13.0660   20.6530 C   0  0  0  0  0  2  0  0  0  0  0  0
  -30.2950  -13.3170   20.0190 N   0  0  0  0  0  0  0  0  0  0  0  0
  -32.1090  -14.6050   19.5440 O   0  0  0  0  0  0  0  0  0  0  0  0
  -30.4010  -15.5030   20.6770 N   0  0  0  0  0  0  0  0  0  0  0  0
  -29.4930  -15.3410   21.0830 H   0  0  0  0  0  0  0  0  0  0  0  0
  -25.5500  -13.9110   20.4350 C   0  0  0  0  0  0  0  0  0  0  0  0
  -24.4830  -13.1570   20.8400 C   0  0  0  0  0  0  0  0  0  0  0  0
  -24.9040  -11.7950   20.7420 C   0  0  0  0  0  0  0  0  0  0  0  0
  -26.5580  -13.0120   20.1240 N   0  0  0  0  0  0  0  0  0  0  0  0
  -26.1730  -11.7310   20.3620 N   0  0  0  0  0  0  0  0  0  0  0  0
  -24.1540  -10.5470   20.9330 C   0  0  0  0  0  0  0  0  0  0  0  0
  -24.5640   -9.5740   21.8730 C   0  0  0  0  0  3  0  0  0  0  0  0
  -23.8150   -8.3910   22.0500 C   0  0  0  0  0  3  0  0  0  0  0  0
  -22.6440   -8.1710   21.2870 C   0  0  0  0  0  0  0  0  0  0  0  0
  -22.2530   -9.1310   20.3350 C   0  0  0  0  0  3  0  0  0  0  0  0
  -23.0030  -10.3060   20.1560 C   0  0  0  0  0  3  0  0  0  0  0  0
  -21.8690   -7.0400   21.3740 O   0  0  0  0  0  0  0  0  0  0  0  0
  -21.7340   -6.3470   22.5500 C   0  0  0  0  0  0  0  0  0  0  0  0
  -21.1810   -6.9410   23.7050 C   0  0  0  0  0  3  0  0  0  0  0  0
  -20.9950   -6.1740   24.8720 C   0  0  0  0  0  3  0  0  0  0  0  0
  -21.3530   -4.8120   24.8840 C   0  0  0  0  0  0  0  0  0  0  0  0
  -21.8970   -4.2170   23.7330 C   0  0  0  0  0  3  0  0  0  0  0  0
  -22.0840   -4.9810   22.5670 C   0  0  0  0  0  0  0  0  0  0  0  0
  -22.5910   -4.3980   21.4550 F   0  0  0  0  0  0  0  0  0  0  0  0
  -21.1690   -4.0720   26.0010 F   0  0  0  0  0  0  0  0  0  0  0  0
  -23.1160  -13.6610   21.2050 C   0  0  0  0  0  0  0  0  0  0  0  0
  -22.4180  -12.9570   22.0870 N   0  0  0  0  0  0  0  0  0  0  0  0
  -22.6780  -14.7130   20.7410 O   0  0  0  0  0  0  0  0  0  0  0  0
  -22.7880  -12.1050   22.4830 H   0  0  0  0  0  0  0  0  0  0  0  0
  -21.5010  -13.2740   22.3710 H   0  0  0  0  0  0  0  0  0  0  0  0
  -25.7420  -15.2820   20.2870 N   0  0  0  0  0  0  0  0  0  0  0  0
  -24.9940  -15.9500   20.4380 H   0  0  0  0  0  0  0  0  0  0  0  0
  -26.5830  -15.7040   19.9160 H   0  0  0  0  0  0  0  0  0  0  0  0
  -28.9360  -26.1600   21.2680 C   0  0  0  0  0  2  0  0  0  0  0  0
  -28.6230  -26.8900   20.0870 O   0  0  0  0  0  0  0  0  0  0  0  0
  -24.5470  -31.8070   23.2180 C   0  0  0  0  0  0  0  0  0  0  0  0
  -27.4280  -27.5530   20.1290 C   0  0  0  0  0  0  0  0  0  0  0  0
  -23.4260  -30.3760   21.5380 C   0  0  0  0  0  3  0  0  0  0  0  0
  -24.9670  -28.9150   20.1260 C   0  0  0  0  0  0  0  0  0  0  0  0
  -25.9320  -30.8500   21.3850 C   0  0  0  0  0  2  0  0  0  0  0  0
  -26.0870  -29.4920   20.7410 C   0  0  0  0  0  0  0  0  0  0  0  0
  -27.3220  -28.8130   20.7500 C   0  0  0  0  0  3  0  0  0  0  0  0
  -26.3010  -26.9750   19.5150 C   0  0  0  0  0  3  0  0  0  0  0  0
  -25.0650  -27.6510   19.5170 C   0  0  0  0  0  3  0  0  0  0  0  0
  -23.6850  -29.7160   20.1550 C   0  0  0  0  0  2  0  0  0  0  0  0
  -24.6510  -31.0250   22.1070 N   0  0  0  0  0  0  0  0  0  0  0  0
  -23.4470  -32.0270   23.7440 O   0  0  0  0  0  0  0  0  0  0  0  0
  -22.8030  -29.3180   22.4750 C   0  0  0  0  0  0  0  0  0  0  0  0
  -21.4950  -29.0700   22.3070 N   0  0  0  0  0  0  0  0  0  0  0  0
  -23.4940  -28.7230   23.3060 O   0  0  0  0  0  0  0  0  0  0  0  0
  -20.9980  -29.6030   21.6070 H   0  0  0  0  0  0  0  0  0  0  0  0
  -18.1740  -27.7000   22.6880 C   0  0  0  0  0  0  0  0  0  0  0  0
  -20.7030  -28.0890   23.0490 C   0  0  0  0  0  3  0  0  0  0  0  0
  -20.9010  -26.6680   22.4740 C   0  0  0  0  0  2  0  0  0  0  0  0
  -19.8530  -26.2900   21.4240 C   0  0  0  0  0  2  0  0  0  0  0  0
  -18.4430  -26.3630   22.0190 C   0  0  0  0  0  2  0  0  0  0  0  0
  -19.2360  -28.5180   23.1580 C   0  0  0  0  0  0  0  0  0  0  0  0
  -18.9330  -29.7680   23.7410 C   0  0  0  0  0  3  0  0  0  0  0  0
  -17.6000  -30.2010   23.8610 C   0  0  0  0  0  3  0  0  0  0  0  0
  -16.5520  -29.3820   23.4100 C   0  0  0  0  0  3  0  0  0  0  0  0
  -16.8390  -28.1330   22.8300 C   0  0  0  0  0  3  0  0  0  0  0  0
  -25.7970  -32.4790   23.8670 C   0  0  0  0  0  3  0  0  0  0  0  0
  -26.3150  -31.7240   25.1510 C   0  0  1  0  0  0  0  0  0  0  0  0
  -25.2090  -31.4380   26.1930 C   0  0  0  0  0  1  0  0  0  0  0  0
  -26.9610  -30.3720   24.7670 C   0  0  0  0  0  1  0  0  0  0  0  0
  -27.4190  -32.5600   25.8440 C   0  0  0  0  0  1  0  0  0  0  0  0
  -25.4360  -33.8660   24.1870 N   0  0  0  0  0  0  0  0  0  0  0  0
  -25.7500  -34.9270   23.4320 C   0  0  0  0  0  0  0  0  0  0  0  0
  -26.4450  -34.8430   22.4160 O   0  0  0  0  0  0  0  0  0  0  0  0
  -24.8220  -34.0030   24.9760 H   0  0  0  0  0  0  0  0  0  0  0  0
  -23.9780  -36.6630   23.0220 C   0  0  0  0  0  1  0  0  0  0  0  0
  -25.2050  -36.2980   23.8730 C   0  0  0  0  0  3  0  0  0  0  0  0
  -27.2760  -37.2540   24.7800 C   0  0  0  0  0  1  0  0  0  0  0  0
  -26.2060  -37.3830   23.7930 N   0  0  0  0  0  0  0  0  0  0  0  0
  -25.7660  -38.2900   23.9220 H   0  0  0  0  0  0  0  0  0  0  0  0
  1  2  1  0
  2  7  1  0
  3  1  2  0
  4  5  2  0
  4  3  1  0
  5  6  1  0
  6 55  1  0
  6  2  2  0
  8  4  1  0
  9  5  1  0
 10  3  1  0
 11 15  1  0
 13 11  1  0
 13 16  1  0
 14 12  1  0
 15 10  1  0
 15 12  1  0
 16 25  1  0
 16 14  1  0
 17 25  1  0
 18 23  1  0
 19 20  1  0
 19 18  1  0
 21 20  1  0
 21 30  1  0
 21 22  1  0
 23 17  1  0
 23 22  1  0
 24 17  2  0
 25 26  1  0
 27 28  2  0
 28 47  1  0
 29 28  1  0
 29 32  1  0
 30 31  1  0
 30 27  1  0
 31 29  2  0
 32 33  1  0
 33 34  2  0
 35 38  1  0
 35 34  1  0
 36 35  2  0
 37 36  1  0
 37 32  2  0
 38 39  1  0
 39 44  2  0
 39 40  1  0
 40 41  2  0
 41 42  1  0
 42 46  1  0
 43 42  2  0
 44 43  1  0
 45 44  1  0
 47 48  1  0
 48 51  1  0
 48 50  1  0
 49 47  2  0
 52 27  1  0
 52 53  1  0
 54 52  1  0
 56 58  1  0
 56 55  1  0
 57 68  2  0
 58 63  1  0
 59 67  1  0
 59 69  1  0
 60 66  1  0
 60 62  1  0
 61 67  1  0
 62 63  2  0
 62 61  1  0
 64 65  1  0
 64 58  2  0
 65 60  2  0
 66 59  1  0
 67 57  1  0
 69 71  2  0
 70 69  1  0
 72 70  1  0
 73 82  2  0
 73 78  1  0
 74 70  1  0
 74 78  1  0
 75 74  1  0
 76 77  1  0
 76 75  1  0
 77 73  1  0
 78 79  2  0
 79 80  1  0
 81 80  2  0
 82 81  1  0
 83 57  1  0
 83 88  1  0
 83 84  1  0
 84 87  1  1
 84 85  1  0
 86 84  1  0
 88 91  1  0
 89 93  1  0
 89 88  1  0
 90 89  2  0
 93 92  1  0
 95 93  1  0
 95 96  1  0
 95 94  1  0
M  ISO  4  17 100  25 100  55 101  56 101
M  END
>  <TORSDO>  (34) 
F 19

>  <SCORE>  (34) 
-13.786

>  <name>  (34) 
34

>  <ligand_id>  (34) 
34

>  <original_smiles>  (34) 
[H]c1c([H])c([H])c2c(c1[H])C([H])([H])C([H])([H])C([H])([H])C2([H])N([H])C(=O)C1([H])N(C(=O)C([H])(N([H])C(=O)C([H])(N([H])C([H])([H])[H])C([H])([H])[H])C(C([H])([H])[H])(C([H])([H])[H])C([H])([H])[H])C([H])([H])c2c([H])c(OC([H])([H])c3c(C([H])([H])[H])c([H])c(C([H])([H])C4([H])C([H])([H])C([H])([H])C([H])(N([H])C(=O)N5C([H])([H])C([H])([H])C([H])([H])C([H])(n6nc(-c7c([H])c([H])c(Oc8c([H])c([H])c(F)c([H])c8F)c([H])c7[H])c(C(=O)N([H])[H])c6N([H])[H])C5([H])[H])C([H])([H])C4([H])[H])c(C([H])([H])[H])c3C([H])([H])[H])c([H])c([H])c2C1([H])[H]

>  <smiles>  (34) 
[H]c1c([H])c([H])c2c(c1[H])C([H])([H])C([H])([H])C([H])([H])C2([H])N([H])C(=O)C1([H])N(C(=O)C([H])(N([H])C(=O)C([H])(N([H])C([H])([H])[H])C([H])([H])[H])C(C([H])([H])[H])(C([H])([H])[H])C([H])([H])[H])C([H])([H])c2c([H])c(OC([H])([H])c3c(C([H])([H])[H])c([H])c(C([H])([H])C4([H])C([H])([H])C([H])([H])C([H])(N([H])C(=O)N5C([H])([H])C([H])([H])C([H])([H])C([H])(n6nc(-c7c([H])c([H])c(Oc8c([H])c([H])c(F)c([H])c8F)c([H])c7[H])c(C(=O)N([H])[H])c6N([H])[H])C5([H])[H])C([H])([H])C4([H])[H])c(C([H])([H])[H])c3C([H])([H])[H])c([H])c([H])c2C1([H])[H]

$$$$
35:0:0
     RDKit          3D

 88 97  0  0  1  0  0  0  0  0999 V2000
  -30.2990  -15.8220   20.2460 C   0  0  0  0  0  0  0  0  0  0  0  0
  -30.4390  -13.2240   19.4960 C   0  0  0  0  0  2  0  0  0  0  0  0
  -29.6050  -12.7010   18.2900 C   0  0  0  0  0  2  0  0  0  0  0  0
  -28.1890  -12.3120   18.7300 C   0  0  0  0  0  2  0  0  0  0  0  0
  -27.6210  -13.3480   19.7250 C   0  0  0  0  0  3  0  0  0  0  0  0
  -28.6080  -13.7770   20.8410 C   0  0  0  0  0  2  0  0  0  0  0  0
  -29.7620  -14.4410   20.1740 N   0  0  0  0  0  0  0  0  0  0  0  0
  -31.5350  -15.6770   20.1020 O   0  0  0  0  0  0  0  0  0  0  0  0
  -30.3010  -21.7610   19.6500 C   0  0  0  0  0  2  0  0  0  0  0  0
  -27.7780  -22.3710   20.3020 C   0  0  0  0  0  3  0  0  0  0  0  0
  -29.6380  -20.4790   19.9390 C   0  0  0  0  0  0  0  0  0  0  0  0
  -28.3140  -20.8690   20.2720 C   0  0  0  0  0  0  0  0  0  0  0  0
  -29.7920  -23.1860   19.6800 C   0  0  0  0  0  0  0  0  0  0  0  0
  -28.4570  -23.7460   19.9990 C   0  0  0  0  0  0  0  0  0  0  0  0
  -27.6040  -19.4280   20.4900 C   0  0  0  0  0  3  0  0  0  0  0  0
  -30.2710  -18.8190   19.8670 C   0  0  0  0  0  3  0  0  0  0  0  0
  -28.3480  -17.9020   20.8030 C   0  0  0  0  0  3  0  0  0  0  0  0
  -30.8290  -24.2380   19.3270 C   0  0  0  0  0  1  0  0  0  0  0  0
  -29.6580  -17.2970   20.2080 N   0  0  0  0  0  0  0  0  0  0  0  0
  -25.2390  -13.8500   20.4240 C   0  0  0  0  0  0  0  0  0  0  0  0
  -24.1820  -13.0620   20.7800 C   0  0  0  0  0  0  0  0  0  0  0  0
  -24.6740  -11.7200   20.7910 C   0  0  0  0  0  0  0  0  0  0  0  0
  -26.3020  -12.9930   20.2270 N   0  0  0  0  0  0  0  0  0  0  0  0
  -25.9760  -11.7040   20.5130 N   0  0  0  0  0  0  0  0  0  0  0  0
  -23.9590  -10.4510   20.9870 C   0  0  0  0  0  0  0  0  0  0  0  0
  -24.3780   -9.5050   21.9470 C   0  0  0  0  0  3  0  0  0  0  0  0
  -23.6550   -8.3060   22.1350 C   0  0  0  0  0  3  0  0  0  0  0  0
  -22.5000   -8.0440   21.3620 C   0  0  0  0  0  0  0  0  0  0  0  0
  -22.0990   -8.9800   20.3910 C   0  0  0  0  0  3  0  0  0  0  0  0
  -22.8220  -10.1690   20.2020 C   0  0  0  0  0  3  0  0  0  0  0  0
  -21.7510   -6.8950   21.4560 O   0  0  0  0  0  0  0  0  0  0  0  0
  -21.6850   -6.1730   22.6210 C   0  0  0  0  0  0  0  0  0  0  0  0
  -21.2380   -6.7480   23.8300 C   0  0  0  0  0  3  0  0  0  0  0  0
  -21.1200   -5.9530   24.9870 C   0  0  0  0  0  3  0  0  0  0  0  0
  -21.4380   -4.5820   24.9350 C   0  0  0  0  0  0  0  0  0  0  0  0
  -21.8790   -4.0060   23.7310 C   0  0  0  0  0  3  0  0  0  0  0  0
  -21.9980   -4.7990   22.5760 C   0  0  0  0  0  0  0  0  0  0  0  0
  -22.4020   -4.2340   21.4130 F   0  0  0  0  0  0  0  0  0  0  0  0
  -21.3190   -3.8150   26.0440 F   0  0  0  0  0  0  0  0  0  0  0  0
  -22.7720  -13.5250   20.9930 C   0  0  0  0  0  0  0  0  0  0  0  0
  -22.0310  -12.8480   21.8620 N   0  0  0  0  0  0  0  0  0  0  0  0
  -22.3380  -14.5260   20.4240 O   0  0  0  0  0  0  0  0  0  0  0  0
  -22.3960  -12.0410   22.3440 H   0  0  0  0  0  0  0  0  0  0  0  0
  -21.0830  -13.1450   22.0490 H   0  0  0  0  0  0  0  0  0  0  0  0
  -25.3810  -15.2190   20.2160 N   0  0  0  0  0  0  0  0  0  0  0  0
  -24.5950  -15.8560   20.2830 H   0  0  0  0  0  0  0  0  0  0  0  0
  -26.2210  -15.6580   19.8640 H   0  0  0  0  0  0  0  0  0  0  0  0
  -28.2300  -25.3970   20.0500 O   0  0  0  0  0  0  0  0  0  0  0  0
  -24.7150  -31.7850   23.0080 C   0  0  0  0  0  0  0  0  0  0  0  0
  -27.2110  -26.6070   20.0240 C   0  0  0  0  0  0  0  0  0  0  0  0
  -23.5140  -30.3770   21.3890 C   0  0  0  0  0  3  0  0  0  0  0  0
  -24.9480  -28.7020   19.9750 C   0  0  0  0  0  0  0  0  0  0  0  0
  -26.0950  -30.4910   21.2520 C   0  0  0  0  0  2  0  0  0  0  0  0
  -26.1490  -29.0430   20.6050 C   0  0  0  0  0  0  0  0  0  0  0  0
  -27.2540  -28.0260   20.5950 C   0  0  0  0  0  3  0  0  0  0  0  0
  -25.9760  -26.5030   19.3270 C   0  0  0  0  0  3  0  0  0  0  0  0
  -24.9050  -27.4600   19.3120 C   0  0  0  0  0  3  0  0  0  0  0  0
  -23.7450  -29.6650   20.0220 C   0  0  0  0  0  2  0  0  0  0  0  0
  -24.8010  -30.9220   21.9340 N   0  0  0  0  0  0  0  0  0  0  0  0
  -23.6260  -32.0890   23.5240 O   0  0  0  0  0  0  0  0  0  0  0  0
  -22.8020  -29.4110   22.3760 C   0  0  0  0  0  0  0  0  0  0  0  0
  -21.4640  -29.2790   22.2820 N   0  0  0  0  0  0  0  0  0  0  0  0
  -23.4660  -28.7770   23.1980 O   0  0  0  0  0  0  0  0  0  0  0  0
  -20.9760  -29.8400   21.5980 H   0  0  0  0  0  0  0  0  0  0  0  0
  -18.0710  -28.1240   22.8940 C   0  0  0  0  0  0  0  0  0  0  0  0
  -20.6430  -28.3490   23.0700 C   0  0  0  0  0  3  0  0  0  0  0  0
  -20.6990  -26.9220   22.4780 C   0  0  0  0  0  2  0  0  0  0  0  0
  -19.5600  -26.6320   21.4960 C   0  0  0  0  0  2  0  0  0  0  0  0
  -18.2030  -26.7860   22.1880 C   0  0  0  0  0  2  0  0  0  0  0  0
  -19.2150  -28.8660   23.2930 C   0  0  0  0  0  0  0  0  0  0  0  0
  -19.0330  -30.1160   23.9230 C   0  0  0  0  0  3  0  0  0  0  0  0
  -17.7410  -30.6270   24.1500 C   0  0  0  0  0  3  0  0  0  0  0  0
  -16.6130  -29.8850   23.7610 C   0  0  0  0  0  3  0  0  0  0  0  0
  -16.7780  -28.6350   23.1400 C   0  0  0  0  0  3  0  0  0  0  0  0
  -25.9800  -32.4450   23.6360 C   0  0  0  0  0  3  0  0  0  0  0  0
  -25.6360  -33.8270   24.0320 N   0  0  0  0  0  0  0  0  0  0  0  0
  -25.9290  -34.9300   23.3290 C   0  0  0  0  0  0  0  0  0  0  0  0
  -26.5720  -34.8930   22.2770 O   0  0  0  0  0  0  0  0  0  0  0  0
  -25.0570  -33.9260   24.8520 H   0  0  0  0  0  0  0  0  0  0  0  0
  -24.1590  -36.7150   23.1330 C   0  0  0  0  0  1  0  0  0  0  0  0
  -25.4350  -36.2880   23.8750 C   0  0  0  0  0  3  0  0  0  0  0  0
  -27.5820  -37.1810   24.6730 C   0  0  0  0  0  1  0  0  0  0  0  0
  -26.4440  -37.3680   23.7770 N   0  0  0  0  0  0  0  0  0  0  0  0
  -26.0250  -38.2710   23.9800 H   0  0  0  0  0  0  0  0  0  0  0  0
  -26.5290  -31.6570   24.8910 C   0  0  1  0  0  0  0  0  0  0  0  0
  -25.4580  -31.3850   25.9750 C   0  0  0  0  0  1  0  0  0  0  0  0
  -27.1230  -30.2940   24.4760 C   0  0  0  0  0  1  0  0  0  0  0  0
  -27.6810  -32.4540   25.5480 C   0  0  0  0  0  1  0  0  0  0  0  0
  2  7  1  0
  3  4  1  0
  3  2  1  0
  5  4  1  0
  5 23  1  0
  5  6  1  0
  7  1  1  0
  7  6  1  0
  8  1  2  0
  9 13  1  0
  9 11  1  0
 11 12  1  0
 12 10  2  0
 12 15  1  0
 13 14  2  0
 14 48  1  0
 14 10  1  0
 15 17  2  0
 16 11  2  0
 16 19  1  0
 18 13  1  0
 19  1  1  0
 19 17  1  0
 20 21  2  0
 21 22  1  0
 21 40  1  0
 22 25  1  0
 23 20  1  0
 23 24  1  0
 24 22  2  0
 25 26  1  0
 26 27  2  0
 28 31  1  0
 28 27  1  0
 29 28  2  0
 30 29  1  0
 30 25  2  0
 31 32  1  0
 32 33  1  0
 33 34  2  0
 35 34  1  0
 35 39  1  0
 36 35  2  0
 37 32  2  0
 37 36  1  0
 38 37  1  0
 40 41  1  0
 41 44  1  0
 41 43  1  0
 42 40  2  0
 45 46  1  0
 45 20  1  0
 47 45  1  0
 49 60  2  0
 50 48  1  0
 50 55  1  0
 51 59  1  0
 51 61  1  0
 52 58  1  0
 52 54  1  0
 53 59  1  0
 54 53  1  0
 55 54  2  0
 56 50  2  0
 57 56  1  0
 57 52  2  0
 58 51  1  0
 59 49  1  0
 61 63  2  0
 62 61  1  0
 64 62  1  0
 65 74  2  0
 65 70  1  0
 66 62  1  0
 66 70  1  0
 67 66  1  0
 68 69  1  0
 68 67  1  0
 69 65  1  0
 70 71  2  0
 71 72  1  0
 73 72  2  0
 74 73  1  0
 75 49  1  0
 75 76  1  0
 75 85  1  0
 76 79  1  0
 77 81  1  0
 77 76  1  0
 78 77  2  0
 81 80  1  0
 83 81  1  0
 83 84  1  0
 83 82  1  0
 85 88  1  1
 85 86  1  0
 87 85  1  0
M  ISO  4   1 100  14 101  19 100  48 101
M  END
>  <TORSDO>  (35) 
F 15

>  <SCORE>  (35) 
-15.776

>  <name>  (35) 
35

>  <ligand_id>  (35) 
35

>  <original_smiles>  (35) 
[H]c1c([H])c([H])c2c(c1[H])C([H])([H])C([H])([H])C([H])([H])C2([H])N([H])C(=O)C1([H])N(C(=O)C([H])(N([H])C(=O)C([H])(N([H])C([H])([H])[H])C([H])([H])[H])C(C([H])([H])[H])(C([H])([H])[H])C([H])([H])[H])C([H])([H])c2c([H])c(Oc3c([H])c4c(c([H])c3C([H])([H])[H])C([H])([H])N(C(=O)N3C([H])([H])C([H])([H])C([H])([H])C([H])(n5nc(-c6c([H])c([H])c(Oc7c([H])c([H])c(F)c([H])c7F)c([H])c6[H])c(C(=O)N([H])[H])c5N([H])[H])C3([H])[H])C([H])([H])C4([H])[H])c([H])c([H])c2C1([H])[H]

>  <smiles>  (35) 
[H]c1c([H])c([H])c2c(c1[H])C([H])([H])C([H])([H])C([H])([H])C2([H])N([H])C(=O)C1([H])N(C(=O)C([H])(N([H])C(=O)C([H])(N([H])C([H])([H])[H])C([H])([H])[H])C(C([H])([H])[H])(C([H])([H])[H])C([H])([H])[H])C([H])([H])c2c([H])c(Oc3c([H])c4c(c([H])c3C([H])([H])[H])C([H])([H])N(C(=O)N3C([H])([H])C([H])([H])C([H])([H])C([H])(n5nc(-c6c([H])c([H])c(Oc7c([H])c([H])c(F)c([H])c7F)c([H])c6[H])c(C(=O)N([H])[H])c5N([H])[H])C3([H])[H])C([H])([H])C4([H])[H])c([H])c([H])c2C1([H])[H]

$$$$
36:0:0
     RDKit          3D

 96106  0  0  1  0  0  0  0  0999 V2000
  -28.9650  -23.7250   18.5070 C   0  0  0  0  0  0  0  0  0  0  0  0
  -28.0080  -22.7100   17.9000 C   0  0  0  0  0  2  0  0  0  0  0  0
  -27.4380  -21.9420   19.1000 C   0  0  0  0  0  2  0  0  0  0  0  0
  -30.7390  -21.9770   20.8480 C   0  0  0  0  0  2  0  0  0  0  0  0
  -30.4160  -23.4990   20.6190 C   0  0  0  0  0  2  0  0  0  0  0  0
  -29.6620  -21.1270   20.1440 C   0  0  0  0  0  3  0  0  0  0  0  0
  -28.9770  -23.6710   20.0390 C   0  0  2  0  0  0  0  0  0  0  0  0
  -28.4180  -22.1560   20.2690 C   0  0  1  0  0  0  0  0  0  0  0  0
  -27.7080  -21.9750   21.6250 C   0  0  0  0  0  1  0  0  0  0  0  0
  -29.6550  -24.4900   17.8280 O   0  0  0  0  0  0  0  0  0  0  0  0
  -30.1730  -18.8640   21.5850 C   0  0  0  0  0  3  0  0  0  0  0  0
  -29.3840  -18.5900   19.3740 C   0  0  0  0  0  3  0  0  0  0  0  0
  -30.2100  -16.5140   20.5900 C   0  0  0  0  0  0  0  0  0  0  0  0
  -29.6710  -19.5190   20.4170 C   0  0  0  0  0  0  0  0  0  0  0  0
  -30.4350  -17.4390   21.6730 C   0  0  0  0  0  0  0  0  0  0  0  0
  -29.6540  -17.1710   19.4320 C   0  0  0  0  0  0  0  0  0  0  0  0
  -31.0510  -16.9220   22.9640 C   0  0  0  0  0  1  0  0  0  0  0  0
  -29.4230  -16.3900   18.1470 C   0  0  0  0  0  1  0  0  0  0  0  0
  -30.8550  -15.0590   20.5240 C   0  0  0  0  0  0  0  0  0  0  0  0
  -30.6530  -12.7490   19.5680 C   0  0  0  0  0  2  0  0  0  0  0  0
  -29.7670  -12.7580   18.3040 C   0  0  0  0  0  2  0  0  0  0  0  0
  -28.2850  -12.5890   18.6870 C   0  0  0  0  0  2  0  0  0  0  0  0
  -27.8580  -13.4980   19.8700 C   0  0  0  0  0  3  0  0  0  0  0  0
  -28.8800  -13.5020   21.0210 C   0  0  0  0  0  2  0  0  0  0  0  0
  -30.1860  -13.8490   20.4520 N   0  0  0  0  0  0  0  0  0  0  0  0
  -32.0680  -15.0470   20.2990 O   0  0  0  0  0  0  0  0  0  0  0  0
  -25.4540  -14.0620   20.5410 C   0  0  0  0  0  0  0  0  0  0  0  0
  -24.3850  -13.2780   20.8770 C   0  0  0  0  0  0  0  0  0  0  0  0
  -24.8600  -11.9310   20.8630 C   0  0  0  0  0  0  0  0  0  0  0  0
  -26.5100  -13.1910   20.3340 N   0  0  0  0  0  0  0  0  0  0  0  0
  -26.1610  -11.9040   20.5960 N   0  0  0  0  0  0  0  0  0  0  0  0
  -24.1380  -10.6630   21.0330 C   0  0  0  0  0  0  0  0  0  0  0  0
  -24.5250   -9.7150   22.0050 C   0  0  0  0  0  3  0  0  0  0  0  0
  -23.8010   -8.5130   22.1620 C   0  0  0  0  0  3  0  0  0  0  0  0
  -22.6760   -8.2500   21.3440 C   0  0  0  0  0  0  0  0  0  0  0  0
  -22.3080   -9.1880   20.3620 C   0  0  0  0  0  3  0  0  0  0  0  0
  -23.0330  -10.3810   20.2040 C   0  0  0  0  0  3  0  0  0  0  0  0
  -21.9280   -7.0990   21.4070 O   0  0  0  0  0  0  0  0  0  0  0  0
  -21.7740   -6.4060   22.5800 C   0  0  0  0  0  0  0  0  0  0  0  0
  -21.2110   -7.0010   23.7300 C   0  0  0  0  0  3  0  0  0  0  0  0
  -21.0050   -6.2310   24.8920 C   0  0  0  0  0  3  0  0  0  0  0  0
  -21.3530   -4.8670   24.9050 C   0  0  0  0  0  0  0  0  0  0  0  0
  -21.9090   -4.2710   23.7600 C   0  0  0  0  0  3  0  0  0  0  0  0
  -22.1160   -5.0380   22.6000 C   0  0  0  0  0  0  0  0  0  0  0  0
  -22.6320   -4.4530   21.4920 F   0  0  0  0  0  0  0  0  0  0  0  0
  -21.1500   -4.1260   26.0200 F   0  0  0  0  0  0  0  0  0  0  0  0
  -22.9760  -13.7450   21.1020 C   0  0  0  0  0  0  0  0  0  0  0  0
  -22.2280  -13.0480   21.9480 N   0  0  0  0  0  0  0  0  0  0  0  0
  -22.5470  -14.7630   20.5600 O   0  0  0  0  0  0  0  0  0  0  0  0
  -22.5870  -12.2240   22.4070 H   0  0  0  0  0  0  0  0  0  0  0  0
  -21.2820  -13.3450   22.1440 H   0  0  0  0  0  0  0  0  0  0  0  0
  -25.6140  -15.4340   20.3700 N   0  0  0  0  0  0  0  0  0  0  0  0
  -24.8470  -16.0880   20.4730 H   0  0  0  0  0  0  0  0  0  0  0  0
  -26.4850  -15.8820   20.1100 H   0  0  0  0  0  0  0  0  0  0  0  0
  -28.1520  -25.0150   20.5390 C   0  0  0  0  0  2  0  0  0  0  0  0
  -28.4010  -26.4700   20.1240 O   0  0  0  0  0  0  0  0  0  0  0  0
  -24.6190  -31.9400   23.1680 C   0  0  0  0  0  0  0  0  0  0  0  0
  -27.3110  -27.3870   20.0850 C   0  0  0  0  0  0  0  0  0  0  0  0
  -23.4530  -30.5380   21.5090 C   0  0  0  0  0  3  0  0  0  0  0  0
  -24.9380  -29.0280   20.0660 C   0  0  0  0  0  0  0  0  0  0  0  0
  -25.9940  -30.8840   21.3480 C   0  0  0  0  0  2  0  0  0  0  0  0
  -26.1010  -29.5080   20.6830 C   0  0  0  0  0  0  0  0  0  0  0  0
  -27.2920  -28.7020   20.6780 C   0  0  0  0  0  3  0  0  0  0  0  0
  -26.1310  -27.0010   19.4160 C   0  0  0  0  0  3  0  0  0  0  0  0
  -24.9620  -27.7860   19.4170 C   0  0  0  0  0  3  0  0  0  0  0  0
  -23.6870  -29.8870   20.1220 C   0  0  0  0  0  2  0  0  0  0  0  0
  -24.7070  -31.1400   22.0640 N   0  0  0  0  0  0  0  0  0  0  0  0
  -23.5270  -32.1910   23.7000 O   0  0  0  0  0  0  0  0  0  0  0  0
  -22.8020  -29.4980   22.4540 C   0  0  0  0  0  0  0  0  0  0  0  0
  -21.4810  -29.2890   22.3150 N   0  0  0  0  0  0  0  0  0  0  0  0
  -23.4870  -28.8840   23.2760 O   0  0  0  0  0  0  0  0  0  0  0  0
  -20.9840  -29.8400   21.6280 H   0  0  0  0  0  0  0  0  0  0  0  0
  -18.1320  -27.9930   22.7760 C   0  0  0  0  0  0  0  0  0  0  0  0
  -20.6790  -28.3240   23.0710 C   0  0  0  0  0  3  0  0  0  0  0  0
  -20.8280  -26.9000   22.4870 C   0  0  0  0  0  2  0  0  0  0  0  0
  -19.7440  -26.5530   21.4600 C   0  0  0  0  0  2  0  0  0  0  0  0
  -18.3530  -26.6550   22.0910 C   0  0  0  0  0  2  0  0  0  0  0  0
  -19.2240  -28.7840   23.2210 C   0  0  0  0  0  0  0  0  0  0  0  0
  -18.9640  -30.0340   23.8220 C   0  0  0  0  0  3  0  0  0  0  0  0
  -17.6440  -30.4970   23.9800 C   0  0  0  0  0  3  0  0  0  0  0  0
  -16.5660  -29.7040   23.5510 C   0  0  0  0  0  3  0  0  0  0  0  0
  -16.8100  -28.4540   22.9550 C   0  0  0  0  0  3  0  0  0  0  0  0
  -25.8840  -32.5950   23.8050 C   0  0  0  0  0  3  0  0  0  0  0  0
  -25.5440  -33.9840   24.1430 N   0  0  0  0  0  0  0  0  0  0  0  0
  -25.8600  -35.0510   23.3980 C   0  0  0  0  0  0  0  0  0  0  0  0
  -26.5380  -34.9700   22.3690 O   0  0  0  0  0  0  0  0  0  0  0  0
  -24.9420  -34.1210   24.9430 H   0  0  0  0  0  0  0  0  0  0  0  0
  -24.1050  -36.8200   23.0500 C   0  0  0  0  0  1  0  0  0  0  0  0
  -25.3470  -36.4270   23.8670 C   0  0  0  0  0  3  0  0  0  0  0  0
  -27.4570  -37.3410   24.7280 C   0  0  0  0  0  1  0  0  0  0  0  0
  -26.3620  -37.4980   23.7740 N   0  0  0  0  0  0  0  0  0  0  0  0
  -25.9380  -38.4100   23.9250 H   0  0  0  0  0  0  0  0  0  0  0  0
  -26.4040  -31.8270   25.0810 C   0  0  1  0  0  0  0  0  0  0  0  0
  -25.3070  -31.5640   26.1400 C   0  0  0  0  0  1  0  0  0  0  0  0
  -27.0160  -30.4620   24.6910 C   0  0  0  0  0  1  0  0  0  0  0  0
  -27.5350  -32.6390   25.7560 C   0  0  0  0  0  1  0  0  0  0  0  0
  1  7  1  0
  2  1  1  0
  2  3  1  0
  3  8  1  0
  5  4  1  0
  6  8  1  0
  6 14  1  0
  6  4  1  0
  7  8  1  0
  7 55  1  1
  7  5  1  0
  8  9  1  1
 10  1  2  0
 11 15  1  0
 12 16  2  0
 12 14  1  0
 13 15  2  0
 14 11  2  0
 15 17  1  0
 16 13  1  0
 18 16  1  0
 19 13  1  0
 20 25  1  0
 21 22  1  0
 21 20  1  0
 23 22  1  0
 23 30  1  0
 23 24  1  0
 25 19  1  0
 25 24  1  0
 26 19  2  0
 27 28  2  0
 28 47  1  0
 29 28  1  0
 29 32  1  0
 30 27  1  0
 30 31  1  0
 31 29  2  0
 32 33  1  0
 33 34  2  0
 35 38  1  0
 35 34  1  0
 36 35  2  0
 37 36  1  0
 37 32  2  0
 38 39  1  0
 39 44  2  0
 39 40  1  0
 40 41  2  0
 41 42  1  0
 42 46  1  0
 43 42  2  0
 44 43  1  0
 45 44  1  0
 47 48  1  0
 48 51  1  0
 48 50  1  0
 49 47  2  0
 52 53  1  0
 52 27  1  0
 54 52  1  0
 56 55  1  0
 57 68  2  0
 58 56  1  0
 58 63  1  0
 59 67  1  0
 59 69  1  0
 60 66  1  0
 60 62  1  0
 61 67  1  0
 62 61  1  0
 63 62  2  0
 64 65  1  0
 64 58  2  0
 65 60  2  0
 66 59  1  0
 67 57  1  0
 69 71  2  0
 70 69  1  0
 72 70  1  0
 73 82  2  0
 73 78  1  0
 74 70  1  0
 74 78  1  0
 75 74  1  0
 76 77  1  0
 76 75  1  0
 77 73  1  0
 78 79  2  0
 79 80  1  0
 81 80  2  0
 82 81  1  0
 83 57  1  0
 83 84  1  0
 83 93  1  0
 84 87  1  0
 85 89  1  0
 85 84  1  0
 86 85  2  0
 89 88  1  0
 91 89  1  0
 91 92  1  0
 91 90  1  0
 93 96  1  1
 93 94  1  0
 95 93  1  0
M  ISO  4  13 100  19 100  55 101  56 101
M  END
>  <TORSDO>  (36) 
F 18

>  <SCORE>  (36) 
-13.546

>  <name>  (36) 
36

>  <ligand_id>  (36) 
36

>  <original_smiles>  (36) 
[H]c1c([H])c([H])c2c(c1[H])C([H])([H])C([H])([H])C([H])([H])C2([H])N([H])C(=O)C1([H])N(C(=O)C([H])(N([H])C(=O)C([H])(N([H])C([H])([H])[H])C([H])([H])[H])C(C([H])([H])[H])(C([H])([H])[H])C([H])([H])[H])C([H])([H])c2c([H])c(OC([H])([H])C34C(=O)C([H])([H])C([H])([H])C3(C([H])([H])[H])C([H])(c3c([H])c(C([H])([H])[H])c(C(=O)N5C([H])([H])C([H])([H])C([H])([H])C([H])(n6nc(-c7c([H])c([H])c(Oc8c([H])c([H])c(F)c([H])c8F)c([H])c7[H])c(C(=O)N([H])[H])c6N([H])[H])C5([H])[H])c(C([H])([H])[H])c3[H])C([H])([H])C4([H])[H])c([H])c([H])c2C1([H])[H]

>  <smiles>  (36) 
[H]c1c([H])c([H])c2c(c1[H])C([H])([H])C([H])([H])C([H])([H])C2([H])N([H])C(=O)C1([H])N(C(=O)C([H])(N([H])C(=O)C([H])(N([H])C([H])([H])[H])C([H])([H])[H])C(C([H])([H])[H])(C([H])([H])[H])C([H])([H])[H])C([H])([H])c2c([H])c(OC([H])([H])C34C(=O)C([H])([H])C([H])([H])C3(C([H])([H])[H])C([H])(c3c([H])c(C([H])([H])[H])c(C(=O)N5C([H])([H])C([H])([H])C([H])([H])C([H])(n6nc(-c7c([H])c([H])c(Oc8c([H])c([H])c(F)c([H])c8F)c([H])c7[H])c(C(=O)N([H])[H])c6N([H])[H])C5([H])[H])c(C([H])([H])[H])c3[H])C([H])([H])C4([H])[H])c([H])c([H])c2C1([H])[H]

$$$$
37:0:0
     RDKit          3D

 91100  0  0  1  0  0  0  0  0999 V2000
  -28.0520  -22.8040   17.8550 C   0  0  0  0  0  3  0  0  0  0  0  0
  -28.6410  -21.6630   18.4650 C   0  0  0  0  0  3  0  0  0  0  0  0
  -27.9690  -24.0940   18.4470 C   0  0  0  0  0  3  0  0  0  0  0  0
  -29.0840  -23.1180   20.3430 C   0  0  0  0  0  3  0  0  0  0  0  0
  -29.2150  -21.6860   19.7530 C   0  0  0  0  0  0  0  0  0  0  0  0
  -28.4560  -24.4020   19.7370 C   0  0  0  0  0  0  0  0  0  0  0  0
  -30.2350  -20.1400   21.5540 C   0  0  0  0  0  3  0  0  0  0  0  0
  -29.8060  -20.1680   20.2770 C   0  0  0  0  0  0  0  0  0  0  0  0
  -30.0230  -18.6040   19.5790 C   0  0  0  0  0  2  0  0  0  0  0  0
  -31.2710  -17.6630   21.5110 C   0  0  0  0  0  2  0  0  0  0  0  0
  -30.8100  -18.9290   22.3260 C   0  0  0  0  0  3  0  0  0  0  0  0
  -30.2900  -17.0810   20.4590 C   0  0  1  0  0  0  0  0  0  0  0  0
  -31.9580  -19.3980   23.2340 C   0  0  0  0  0  1  0  0  0  0  0  0
  -28.9250  -16.8530   21.1170 C   0  0  0  0  0  1  0  0  0  0  0  0
  -30.9210  -15.4680   19.9820 C   0  0  0  0  0  0  0  0  0  0  0  0
  -30.8040  -13.0320   19.0230 C   0  0  0  0  0  2  0  0  0  0  0  0
  -29.8200  -12.8820   17.8310 C   0  0  0  0  0  2  0  0  0  0  0  0
  -28.3830  -12.6280   18.3220 C   0  0  0  0  0  2  0  0  0  0  0  0
  -28.0140  -13.5610   19.4990 C   0  0  0  0  0  3  0  0  0  0  0  0
  -29.1210  -13.6090   20.5760 C   0  0  0  0  0  2  0  0  0  0  0  0
  -30.3360  -14.1540   19.9320 N   0  0  0  0  0  0  0  0  0  0  0  0
  -32.1010  -15.4140   19.6010 O   0  0  0  0  0  0  0  0  0  0  0  0
  -25.6900  -14.1740   20.3660 C   0  0  0  0  0  0  0  0  0  0  0  0
  -24.6210  -13.4230   20.7590 C   0  0  0  0  0  0  0  0  0  0  0  0
  -25.0410  -12.0620   20.6660 C   0  0  0  0  0  0  0  0  0  0  0  0
  -26.6960  -13.2750   20.0550 N   0  0  0  0  0  0  0  0  0  0  0  0
  -26.3170  -11.9940   20.3010 N   0  0  0  0  0  0  0  0  0  0  0  0
  -24.2770  -10.8210   20.8470 C   0  0  0  0  0  0  0  0  0  0  0  0
  -24.6730   -9.8370   21.7800 C   0  0  0  0  0  3  0  0  0  0  0  0
  -23.9080   -8.6640   21.9500 C   0  0  0  0  0  3  0  0  0  0  0  0
  -22.7330   -8.4670   21.1880 C   0  0  0  0  0  0  0  0  0  0  0  0
  -22.3550   -9.4380   20.2450 C   0  0  0  0  0  3  0  0  0  0  0  0
  -23.1200  -10.6030   20.0720 C   0  0  0  0  0  3  0  0  0  0  0  0
  -21.9410   -7.3460   21.2670 O   0  0  0  0  0  0  0  0  0  0  0  0
  -21.8040   -6.6440   22.4380 C   0  0  0  0  0  0  0  0  0  0  0  0
  -21.3400   -7.2560   23.6230 C   0  0  0  0  0  3  0  0  0  0  0  0
  -21.1480   -6.4820   24.7850 C   0  0  0  0  0  3  0  0  0  0  0  0
  -21.4100   -5.0980   24.7630 C   0  0  0  0  0  0  0  0  0  0  0  0
  -21.8670   -4.4870   23.5820 C   0  0  0  0  0  3  0  0  0  0  0  0
  -22.0610   -5.2580   22.4220 C   0  0  0  0  0  0  0  0  0  0  0  0
  -22.4820   -4.6610   21.2810 F   0  0  0  0  0  0  0  0  0  0  0  0
  -21.2180   -4.3540   25.8760 F   0  0  0  0  0  0  0  0  0  0  0  0
  -23.2550  -13.9410   21.1020 C   0  0  0  0  0  0  0  0  0  0  0  0
  -22.5460  -13.2570   21.9920 N   0  0  0  0  0  0  0  0  0  0  0  0
  -22.8280  -14.9890   20.6170 O   0  0  0  0  0  0  0  0  0  0  0  0
  -22.9060  -12.4090   22.4060 H   0  0  0  0  0  0  0  0  0  0  0  0
  -21.6310  -13.5860   22.2650 H   0  0  0  0  0  0  0  0  0  0  0  0
  -25.8720  -15.5430   20.2220 N   0  0  0  0  0  0  0  0  0  0  0  0
  -25.1260  -16.2070   20.3980 H   0  0  0  0  0  0  0  0  0  0  0  0
  -26.7250  -15.9820   19.9040 H   0  0  0  0  0  0  0  0  0  0  0  0
  -28.4000  -25.8900   20.1440 O   0  0  0  0  0  0  0  0  0  0  0  0
  -24.6330  -31.7240   23.1170 C   0  0  0  0  0  0  0  0  0  0  0  0
  -27.3520  -26.9580   20.0400 C   0  0  0  0  0  0  0  0  0  0  0  0
  -23.4930  -30.3280   21.4420 C   0  0  0  0  0  3  0  0  0  0  0  0
  -24.9970  -28.7840   20.0060 C   0  0  0  0  0  0  0  0  0  0  0  0
  -26.0540  -30.6030   21.3300 C   0  0  0  0  0  2  0  0  0  0  0  0
  -26.1670  -29.2070   20.6480 C   0  0  0  0  0  0  0  0  0  0  0  0
  -27.3310  -28.3130   20.6440 C   0  0  0  0  0  3  0  0  0  0  0  0
  -26.1420  -26.6880   19.3570 C   0  0  0  0  0  3  0  0  0  0  0  0
  -25.0090  -27.5460   19.3420 C   0  0  0  0  0  3  0  0  0  0  0  0
  -23.7530  -29.6730   20.0570 C   0  0  0  0  0  2  0  0  0  0  0  0
  -24.7470  -30.9120   22.0170 N   0  0  0  0  0  0  0  0  0  0  0  0
  -23.5310  -31.9790   23.6320 O   0  0  0  0  0  0  0  0  0  0  0  0
  -22.8110  -29.3000   22.3840 C   0  0  0  0  0  0  0  0  0  0  0  0
  -21.4860  -29.1120   22.2480 N   0  0  0  0  0  0  0  0  0  0  0  0
  -23.4840  -28.6730   23.2070 O   0  0  0  0  0  0  0  0  0  0  0  0
  -20.9950  -29.6700   21.5630 H   0  0  0  0  0  0  0  0  0  0  0  0
  -18.1280  -27.8130   22.7020 C   0  0  0  0  0  0  0  0  0  0  0  0
  -20.6780  -28.1420   22.9960 C   0  0  0  0  0  3  0  0  0  0  0  0
  -20.8220  -26.7220   22.4000 C   0  0  0  0  0  2  0  0  0  0  0  0
  -19.7390  -26.3870   21.3690 C   0  0  0  0  0  2  0  0  0  0  0  0
  -18.3470  -26.4820   22.0010 C   0  0  0  0  0  2  0  0  0  0  0  0
  -19.2210  -28.5990   23.1530 C   0  0  0  0  0  0  0  0  0  0  0  0
  -18.9590  -29.8410   23.7710 C   0  0  0  0  0  3  0  0  0  0  0  0
  -17.6380  -30.3000   23.9370 C   0  0  0  0  0  3  0  0  0  0  0  0
  -16.5610  -29.5120   23.4990 C   0  0  0  0  0  3  0  0  0  0  0  0
  -16.8060  -28.2700   22.8870 C   0  0  0  0  0  3  0  0  0  0  0  0
  -25.8800  -32.3890   23.7770 C   0  0  0  0  0  3  0  0  0  0  0  0
  -25.5250  -33.7760   24.1270 N   0  0  0  0  0  0  0  0  0  0  0  0
  -25.8290  -34.8550   23.3940 C   0  0  0  0  0  0  0  0  0  0  0  0
  -26.5010  -34.7900   22.3610 O   0  0  0  0  0  0  0  0  0  0  0  0
  -24.9250  -33.8970   24.9300 H   0  0  0  0  0  0  0  0  0  0  0  0
  -24.0480  -36.6110   23.0960 C   0  0  0  0  0  1  0  0  0  0  0  0
  -25.3110  -36.2240   23.8830 C   0  0  0  0  0  3  0  0  0  0  0  0
  -27.4300  -37.1590   24.7030 C   0  0  0  0  0  1  0  0  0  0  0  0
  -26.3120  -37.3090   23.7750 N   0  0  0  0  0  0  0  0  0  0  0  0
  -25.8810  -38.2150   23.9400 H   0  0  0  0  0  0  0  0  0  0  0  0
  -26.3860  -31.6190   25.0590 C   0  0  1  0  0  0  0  0  0  0  0  0
  -25.2780  -31.3570   26.1060 C   0  0  0  0  0  1  0  0  0  0  0  0
  -27.0010  -30.2530   24.6790 C   0  0  0  0  0  1  0  0  0  0  0  0
  -27.5110  -32.4290   25.7470 C   0  0  0  0  0  1  0  0  0  0  0  0
  1  3  2  0
  1  2  1  0
  2  5  2  0
  3  6  1  0
  5  8  1  0
  5  4  1  0
  6 51  1  0
  6  4  2  0
  7 11  1  0
  8  7  2  0
  9  8  1  0
  9 12  1  0
 10 11  1  0
 11 13  1  0
 12 14  1  1
 12 10  1  0
 15 12  1  0
 16 21  1  0
 17 18  1  0
 17 16  1  0
 19 18  1  0
 19 26  1  0
 19 20  1  0
 21 15  1  0
 21 20  1  0
 22 15  2  0
 23 24  2  0
 24 43  1  0
 25 24  1  0
 25 28  1  0
 26 27  1  0
 26 23  1  0
 27 25  2  0
 28 29  1  0
 29 30  2  0
 31 34  1  0
 31 30  1  0
 32 31  2  0
 33 32  1  0
 33 28  2  0
 34 35  1  0
 35 36  1  0
 36 37  2  0
 38 37  1  0
 38 42  1  0
 39 38  2  0
 40 35  2  0
 40 39  1  0
 41 40  1  0
 43 44  1  0
 44 47  1  0
 44 46  1  0
 45 43  2  0
 48 23  1  0
 48 49  1  0
 50 48  1  0
 52 63  2  0
 53 51  1  0
 53 58  1  0
 54 62  1  0
 54 64  1  0
 55 61  1  0
 55 57  1  0
 56 62  1  0
 57 56  1  0
 58 57  2  0
 59 53  2  0
 60 59  1  0
 60 55  2  0
 61 54  1  0
 62 52  1  0
 64 66  2  0
 65 64  1  0
 67 65  1  0
 68 77  2  0
 68 73  1  0
 69 65  1  0
 69 73  1  0
 70 69  1  0
 71 72  1  0
 71 70  1  0
 72 68  1  0
 73 74  2  0
 74 75  1  0
 76 75  2  0
 77 76  1  0
 78 52  1  0
 78 79  1  0
 78 88  1  0
 79 82  1  0
 80 84  1  0
 80 79  1  0
 81 80  2  0
 84 83  1  0
 86 84  1  0
 86 87  1  0
 86 85  1  0
 88 91  1  1
 88 89  1  0
 90 88  1  0
M  ISO  4   6 101  12 100  15 100  51 101
M  END
>  <TORSDO>  (37) 
F 17

>  <SCORE>  (37) 
-15.153

>  <name>  (37) 
37

>  <ligand_id>  (37) 
37

>  <original_smiles>  (37) 
[H]C1=C(c2c([H])c([H])c([H])c(Oc3c([H])c([H])c4c(c3[H])C([H])([H])N(C(=O)C([H])(N([H])C(=O)C([H])(N([H])C([H])([H])[H])C([H])([H])[H])C(C([H])([H])[H])(C([H])([H])[H])C([H])([H])[H])C([H])(C(=O)N([H])C3([H])c5c([H])c([H])c([H])c([H])c5C([H])([H])C([H])([H])C3([H])[H])C4([H])[H])c2[H])C([H])([H])C(C(=O)N2C([H])([H])C([H])([H])C([H])([H])C([H])(n3nc(-c4c([H])c([H])c(Oc5c([H])c([H])c(F)c([H])c5F)c([H])c4[H])c(C(=O)N([H])[H])c3N([H])[H])C2([H])[H])(C([H])([H])[H])C([H])([H])C1([H])C([H])([H])[H]

>  <smiles>  (37) 
[H]C1=C(c2c([H])c([H])c([H])c(Oc3c([H])c([H])c4c(c3[H])C([H])([H])N(C(=O)C([H])(N([H])C(=O)C([H])(N([H])C([H])([H])[H])C([H])([H])[H])C(C([H])([H])[H])(C([H])([H])[H])C([H])([H])[H])C([H])(C(=O)N([H])C3([H])c5c([H])c([H])c([H])c([H])c5C([H])([H])C([H])([H])C3([H])[H])C4([H])[H])c2[H])C([H])([H])C(C(=O)N2C([H])([H])C([H])([H])C([H])([H])C([H])(n3nc(-c4c([H])c([H])c(Oc5c([H])c([H])c(F)c([H])c5F)c([H])c4[H])c(C(=O)N([H])[H])c3N([H])[H])C2([H])[H])(C([H])([H])[H])C([H])([H])C1([H])C([H])([H])[H]

$$$$
38:0:0
     RDKit          3D

 94103  0  0  1  0  0  0  0  0999 V2000
  -28.6380  -23.6830   20.6400 C   0  0  0  0  0  3  0  0  0  0  0  0
  -29.6380  -22.0380   22.1610 C   0  0  0  0  0  3  0  0  0  0  0  0
  -29.0720  -22.3650   20.8980 C   0  0  0  0  0  0  0  0  0  0  0  0
  -28.7950  -24.6480   21.6390 C   0  0  0  0  0  0  0  0  0  0  0  0
  -29.3530  -24.3430   22.8730 C   0  0  0  0  0  0  0  0  0  0  0  0
  -29.7510  -23.0240   23.1810 C   0  0  0  0  0  0  0  0  0  0  0  0
  -29.3550  -25.5650   23.7660 C   0  0  0  0  0  2  0  0  0  0  0  0
  -28.9100  -26.7140   22.8220 C   0  0  0  0  0  2  0  0  0  0  0  0
  -28.2360  -26.0320   21.6130 C   0  0  0  0  0  3  0  0  0  0  0  0
  -30.1820  -22.6400   24.5900 C   0  0  0  0  0  1  0  0  0  0  0  0
  -28.7570  -21.3470   19.8660 C   0  0  0  0  0  0  0  0  0  0  0  0
  -27.7390  -21.4180   19.1700 O   0  0  0  0  0  0  0  0  0  0  0  0
  -29.7500  -20.2200   19.5870 C   0  0  0  0  0  2  0  0  0  0  0  0
  -29.1210  -18.8190   19.6960 C   0  0  0  0  0  2  0  0  0  0  0  0
  -29.8240  -17.9090   20.7070 C   0  0  0  0  0  2  0  0  0  0  0  0
  -29.3380  -16.4580   20.5790 C   0  0  0  0  0  2  0  0  0  0  0  0
  -30.2110  -15.4420   21.3420 C   0  0  0  0  0  2  0  0  0  0  0  0
  -30.7500  -14.3590   20.3960 C   0  0  0  0  0  0  0  0  0  0  0  0
  -30.3830  -12.2790   19.1240 C   0  0  0  0  0  2  0  0  0  0  0  0
  -29.4320  -12.5560   17.9450 C   0  0  0  0  0  2  0  0  0  0  0  0
  -27.9560  -12.4350   18.3760 C   0  0  0  0  0  2  0  0  0  0  0  0
  -27.6520  -13.2370   19.6690 C   0  0  0  0  0  3  0  0  0  0  0  0
  -28.7050  -12.9360   20.7540 C   0  0  0  0  0  2  0  0  0  0  0  0
  -30.0390  -13.2220   20.1980 N   0  0  0  0  0  0  0  0  0  0  0  0
  -31.8050  -14.6020   19.8000 O   0  0  0  0  0  0  0  0  0  0  0  0
  -25.2610  -13.8820   20.3940 C   0  0  0  0  0  0  0  0  0  0  0  0
  -24.1910  -13.1280   20.7830 C   0  0  0  0  0  0  0  0  0  0  0  0
  -24.6360  -11.7680   20.7610 C   0  0  0  0  0  0  0  0  0  0  0  0
  -26.2960  -12.9890   20.1590 N   0  0  0  0  0  0  0  0  0  0  0  0
  -25.9230  -11.7130   20.4330 N   0  0  0  0  0  0  0  0  0  0  0  0
  -23.8980  -10.5150   20.9710 C   0  0  0  0  0  0  0  0  0  0  0  0
  -24.3310   -9.5450   21.9020 C   0  0  0  0  0  3  0  0  0  0  0  0
  -23.5900   -8.3620   22.0970 C   0  0  0  0  0  3  0  0  0  0  0  0
  -22.4020   -8.1340   21.3620 C   0  0  0  0  0  0  0  0  0  0  0  0
  -21.9890   -9.0940   20.4240 C   0  0  0  0  0  3  0  0  0  0  0  0
  -22.7300  -10.2690   20.2260 C   0  0  0  0  0  3  0  0  0  0  0  0
  -21.6350   -7.0000   21.4650 O   0  0  0  0  0  0  0  0  0  0  0  0
  -21.5990   -6.2610   22.6180 C   0  0  0  0  0  0  0  0  0  0  0  0
  -21.2280   -6.8270   23.8560 C   0  0  0  0  0  3  0  0  0  0  0  0
  -21.1400   -6.0150   25.0050 C   0  0  0  0  0  3  0  0  0  0  0  0
  -21.4130   -4.6380   24.9160 C   0  0  0  0  0  0  0  0  0  0  0  0
  -21.7790   -4.0700   23.6840 C   0  0  0  0  0  3  0  0  0  0  0  0
  -21.8710   -4.8800   22.5370 C   0  0  0  0  0  0  0  0  0  0  0  0
  -22.2070   -4.3250   21.3490 F   0  0  0  0  0  0  0  0  0  0  0  0
  -21.3190   -3.8540   26.0190 F   0  0  0  0  0  0  0  0  0  0  0  0
  -22.8030  -13.6260   21.0710 C   0  0  0  0  0  0  0  0  0  0  0  0
  -22.0780  -12.9540   21.9590 N   0  0  0  0  0  0  0  0  0  0  0  0
  -22.3790  -14.6590   20.5490 O   0  0  0  0  0  0  0  0  0  0  0  0
  -22.4240  -12.1150   22.4010 H   0  0  0  0  0  0  0  0  0  0  0  0
  -21.1500  -13.2820   22.1910 H   0  0  0  0  0  0  0  0  0  0  0  0
  -25.4380  -15.2530   20.2120 N   0  0  0  0  0  0  0  0  0  0  0  0
  -24.6680  -15.9020   20.3390 H   0  0  0  0  0  0  0  0  0  0  0  0
  -26.3090  -15.7030   19.9640 H   0  0  0  0  0  0  0  0  0  0  0  0
  -28.3500  -26.7000   20.3490 O   0  0  0  0  0  0  0  0  0  0  0  0
  -24.6070  -31.8710   23.2570 C   0  0  0  0  0  0  0  0  0  0  0  0
  -27.2450  -27.4880   20.1790 C   0  0  0  0  0  0  0  0  0  0  0  0
  -23.3960  -30.4790   21.6100 C   0  0  0  0  0  3  0  0  0  0  0  0
  -24.8530  -28.9580   20.1660 C   0  0  0  0  0  0  0  0  0  0  0  0
  -25.9150  -30.8560   21.4060 C   0  0  0  0  0  2  0  0  0  0  0  0
  -26.0050  -29.4970   20.7550 C   0  0  0  0  0  0  0  0  0  0  0  0
  -27.2070  -28.7690   20.7570 C   0  0  0  0  0  3  0  0  0  0  0  0
  -26.0940  -26.9510   19.5690 C   0  0  0  0  0  3  0  0  0  0  0  0
  -24.8900  -27.6810   19.5680 C   0  0  0  0  0  3  0  0  0  0  0  0
  -23.6060  -29.8110   20.2230 C   0  0  0  0  0  2  0  0  0  0  0  0
  -24.6570  -31.0780   22.1520 N   0  0  0  0  0  0  0  0  0  0  0  0
  -23.5270  -32.1410   23.7980 O   0  0  0  0  0  0  0  0  0  0  0  0
  -22.7440  -29.4580   22.5710 C   0  0  0  0  0  0  0  0  0  0  0  0
  -21.4160  -29.2880   22.4490 N   0  0  0  0  0  0  0  0  0  0  0  0
  -23.4240  -28.8190   23.3810 O   0  0  0  0  0  0  0  0  0  0  0  0
  -20.9250  -29.8740   21.7890 H   0  0  0  0  0  0  0  0  0  0  0  0
  -18.0450  -28.0700   22.9150 C   0  0  0  0  0  0  0  0  0  0  0  0
  -20.5990  -28.3390   23.2000 C   0  0  0  0  0  3  0  0  0  0  0  0
  -20.7170  -26.9100   22.6180 C   0  0  0  0  0  2  0  0  0  0  0  0
  -19.6100  -26.5650   21.6150 C   0  0  0  0  0  2  0  0  0  0  0  0
  -18.2190  -26.7180   22.2420 C   0  0  0  0  0  2  0  0  0  0  0  0
  -19.1580  -28.8360   23.3480 C   0  0  0  0  0  0  0  0  0  0  0  0
  -18.9400  -30.1030   23.9330 C   0  0  0  0  0  3  0  0  0  0  0  0
  -17.6320  -30.6090   24.0850 C   0  0  0  0  0  3  0  0  0  0  0  0
  -16.5290  -29.8340   23.6750 C   0  0  0  0  0  3  0  0  0  0  0  0
  -16.7400  -28.5670   23.1030 C   0  0  0  0  0  3  0  0  0  0  0  0
  -25.8980  -32.4950   23.8800 C   0  0  0  0  0  3  0  0  0  0  0  0
  -25.5930  -33.8930   24.2090 N   0  0  0  0  0  0  0  0  0  0  0  0
  -25.9310  -34.9410   23.4450 C   0  0  0  0  0  0  0  0  0  0  0  0
  -26.6000  -34.8300   22.4140 O   0  0  0  0  0  0  0  0  0  0  0  0
  -24.9990  -34.0500   25.0120 H   0  0  0  0  0  0  0  0  0  0  0  0
  -24.1980  -36.7230   23.0880 C   0  0  0  0  0  1  0  0  0  0  0  0
  -25.4440  -36.3290   23.8950 C   0  0  0  0  0  3  0  0  0  0  0  0
  -27.5890  -37.2120   24.7040 C   0  0  0  0  0  1  0  0  0  0  0  0
  -26.4780  -37.3810   23.7710 N   0  0  0  0  0  0  0  0  0  0  0  0
  -26.0750  -38.3010   23.9210 H   0  0  0  0  0  0  0  0  0  0  0  0
  -26.4070  -31.7200   25.1550 C   0  0  1  0  0  0  0  0  0  0  0  0
  -25.3090  -31.4920   26.2200 C   0  0  0  0  0  1  0  0  0  0  0  0
  -26.9810  -30.3390   24.7590 C   0  0  0  0  0  1  0  0  0  0  0  0
  -27.5640  -32.5030   25.8170 C   0  0  0  0  0  1  0  0  0  0  0  0
  1  3  2  0
  1  4  1  0
  2  6  2  0
  3  2  1  0
  4  5  2  0
  5  6  1  0
  5  7  1  0
  6 10  1  0
  8  7  1  0
  9 54  1  0
  9  4  1  0
  9  8  1  0
 11  3  1  0
 12 11  2  0
 13 14  1  0
 13 11  1  0
 14 15  1  0
 16 15  1  0
 16 17  1  0
 18 17  1  0
 19 24  1  0
 20 21  1  0
 20 19  1  0
 22 21  1  0
 22 29  1  0
 22 23  1  0
 24 18  1  0
 24 23  1  0
 25 18  2  0
 26 27  2  0
 27 46  1  0
 28 27  1  0
 28 31  1  0
 29 26  1  0
 29 30  1  0
 30 28  2  0
 31 32  1  0
 32 33  2  0
 34 37  1  0
 34 33  1  0
 35 34  2  0
 36 35  1  0
 36 31  2  0
 37 38  1  0
 38 39  1  0
 39 40  2  0
 41 40  1  0
 41 45  1  0
 42 41  2  0
 43 38  2  0
 43 42  1  0
 44 43  1  0
 46 47  1  0
 47 50  1  0
 47 49  1  0
 48 46  2  0
 51 52  1  0
 51 26  1  0
 53 51  1  0
 55 66  2  0
 56 54  1  0
 56 61  1  0
 57 65  1  0
 57 67  1  0
 58 64  1  0
 58 60  1  0
 59 65  1  0
 60 61  2  0
 60 59  1  0
 62 56  2  0
 63 62  1  0
 63 58  2  0
 64 57  1  0
 65 55  1  0
 67 69  2  0
 68 67  1  0
 70 68  1  0
 71 80  2  0
 71 76  1  0
 72 68  1  0
 72 76  1  0
 73 72  1  0
 74 75  1  0
 74 73  1  0
 75 71  1  0
 76 77  2  0
 77 78  1  0
 79 78  2  0
 80 79  1  0
 81 55  1  0
 81 82  1  0
 81 91  1  0
 82 85  1  0
 83 87  1  0
 83 82  1  0
 84 83  2  0
 87 86  1  0
 89 87  1  0
 89 90  1  0
 89 88  1  0
 91 94  1  1
 91 92  1  0
 93 91  1  0
M  ISO  4   9 101  17 100  18 100  54 101
M  END
>  <TORSDO>  (38) 
F 22

>  <SCORE>  (38) 
-13.446

>  <name>  (38) 
38

>  <ligand_id>  (38) 
38

>  <original_smiles>  (38) 
[H]c1c([H])c([H])c2c(c1[H])C([H])([H])C([H])([H])C([H])([H])C2([H])N([H])C(=O)C1([H])N(C(=O)C([H])(N([H])C(=O)C([H])(N([H])C([H])([H])[H])C([H])([H])[H])C(C([H])([H])[H])(C([H])([H])[H])C([H])([H])[H])C([H])([H])c2c([H])c(OC3([H])c4c([H])c(C(=O)C([H])([H])C([H])([H])C([H])([H])C([H])([H])C([H])([H])C(=O)N5C([H])([H])C([H])([H])C([H])([H])C([H])(n6nc(-c7c([H])c([H])c(Oc8c([H])c([H])c(F)c([H])c8F)c([H])c7[H])c(C(=O)N([H])[H])c6N([H])[H])C5([H])[H])c([H])c(C([H])([H])[H])c4C([H])([H])C3([H])[H])c([H])c([H])c2C1([H])[H]

>  <smiles>  (38) 
[H]c1c([H])c([H])c2c(c1[H])C([H])([H])C([H])([H])C([H])([H])C2([H])N([H])C(=O)C1([H])N(C(=O)C([H])(N([H])C(=O)C([H])(N([H])C([H])([H])[H])C([H])([H])[H])C(C([H])([H])[H])(C([H])([H])[H])C([H])([H])[H])C([H])([H])c2c([H])c(OC3([H])c4c([H])c(C(=O)C([H])([H])C([H])([H])C([H])([H])C([H])([H])C([H])([H])C(=O)N5C([H])([H])C([H])([H])C([H])([H])C([H])(n6nc(-c7c([H])c([H])c(Oc8c([H])c([H])c(F)c([H])c8F)c([H])c7[H])c(C(=O)N([H])[H])c6N([H])[H])C5([H])[H])c([H])c(C([H])([H])[H])c4C([H])([H])C3([H])[H])c([H])c([H])c2C1([H])[H]

$$$$
39:0:0
     RDKit          3D

 96106  0  0  1  0  0  0  0  0999 V2000
  -29.5150  -25.6620   18.3760 C   0  0  0  0  0  3  0  0  0  0  0  0
  -30.0070  -24.5210   17.7200 C   0  0  0  0  0  3  0  0  0  0  0  0
  -28.3410  -24.2390   19.9610 C   0  0  0  0  0  3  0  0  0  0  0  0
  -28.8260  -23.0730   19.2990 C   0  0  0  0  0  0  0  0  0  0  0  0
  -28.6880  -25.5430   19.5050 C   0  0  0  0  0  0  0  0  0  0  0  0
  -29.6770  -23.2210   18.1750 C   0  0  0  0  0  0  0  0  0  0  0  0
  -31.1360  -22.1920   16.5650 C   0  0  0  0  0  1  0  0  0  0  0  0
  -30.1370  -22.0710   17.5680 O   0  0  0  0  0  0  0  0  0  0  0  0
  -28.4030  -26.7010   20.2090 O   0  0  0  0  0  0  0  0  0  0  0  0
  -24.6050  -31.8780   23.2230 C   0  0  0  0  0  0  0  0  0  0  0  0
  -27.2250  -27.4180   20.1220 C   0  0  0  0  0  0  0  0  0  0  0  0
  -23.3820  -30.4740   21.5900 C   0  0  0  0  0  3  0  0  0  0  0  0
  -24.8240  -28.9320   20.1450 C   0  0  0  0  0  0  0  0  0  0  0  0
  -25.9050  -30.8310   21.3690 C   0  0  0  0  0  2  0  0  0  0  0  0
  -25.9840  -29.4580   20.7260 C   0  0  0  0  0  0  0  0  0  0  0  0
  -27.1810  -28.7060   20.7120 C   0  0  0  0  0  3  0  0  0  0  0  0
  -26.0490  -26.9090   19.5300 C   0  0  0  0  0  3  0  0  0  0  0  0
  -24.8540  -27.6600   19.5430 C   0  0  0  0  0  3  0  0  0  0  0  0
  -23.5770  -29.7900   20.2080 C   0  0  0  0  0  2  0  0  0  0  0  0
  -24.6480  -31.0780   22.1180 N   0  0  0  0  0  0  0  0  0  0  0  0
  -23.5290  -32.1510   23.7730 O   0  0  0  0  0  0  0  0  0  0  0  0
  -22.7390  -29.4570   22.5600 C   0  0  0  0  0  0  0  0  0  0  0  0
  -21.4130  -29.2720   22.4420 N   0  0  0  0  0  0  0  0  0  0  0  0
  -23.4280  -28.8350   23.3730 O   0  0  0  0  0  0  0  0  0  0  0  0
  -20.9160  -29.8270   21.7600 H   0  0  0  0  0  0  0  0  0  0  0  0
  -18.0470  -28.0650   22.9590 C   0  0  0  0  0  0  0  0  0  0  0  0
  -20.6050  -28.3320   23.2190 C   0  0  0  0  0  3  0  0  0  0  0  0
  -20.7090  -26.9010   22.6470 C   0  0  0  0  0  2  0  0  0  0  0  0
  -19.6050  -26.5720   21.6370 C   0  0  0  0  0  2  0  0  0  0  0  0
  -18.2250  -26.7150   22.2850 C   0  0  0  0  0  2  0  0  0  0  0  0
  -19.1650  -28.8310   23.3830 C   0  0  0  0  0  0  0  0  0  0  0  0
  -18.9450  -30.0950   23.9720 C   0  0  0  0  0  3  0  0  0  0  0  0
  -17.6400  -30.5950   24.1390 C   0  0  0  0  0  3  0  0  0  0  0  0
  -16.5370  -29.8250   23.7320 C   0  0  0  0  0  3  0  0  0  0  0  0
  -16.7410  -28.5620   23.1510 C   0  0  0  0  0  3  0  0  0  0  0  0
  -25.8970  -32.5080   23.8310 C   0  0  0  0  0  3  0  0  0  0  0  0
  -26.4320  -31.7330   25.0980 C   0  0  1  0  0  0  0  0  0  0  0  0
  -25.3530  -31.4920   26.1800 C   0  0  0  0  0  1  0  0  0  0  0  0
  -27.0090  -30.3580   24.6920 C   0  0  0  0  0  1  0  0  0  0  0  0
  -27.5910  -32.5250   25.7470 C   0  0  0  0  0  1  0  0  0  0  0  0
  -25.5920  -33.9050   24.1680 N   0  0  0  0  0  0  0  0  0  0  0  0
  -25.9130  -34.9590   23.4050 C   0  0  0  0  0  0  0  0  0  0  0  0
  -26.5670  -34.8580   22.3640 O   0  0  0  0  0  0  0  0  0  0  0  0
  -25.0090  -34.0570   24.9780 H   0  0  0  0  0  0  0  0  0  0  0  0
  -24.1750  -36.7470   23.0810 C   0  0  0  0  0  1  0  0  0  0  0  0
  -25.4300  -36.3460   23.8720 C   0  0  0  0  0  3  0  0  0  0  0  0
  -27.5760  -37.2320   24.6700 C   0  0  0  0  0  1  0  0  0  0  0  0
  -26.4590  -37.4010   23.7440 N   0  0  0  0  0  0  0  0  0  0  0  0
  -26.0530  -38.3190   23.9000 H   0  0  0  0  0  0  0  0  0  0  0  0
  -28.3790  -21.6530   19.7060 C   0  0  0  0  0  2  0  0  0  0  0  0
  -29.4260  -20.7270   20.4190 C   0  0  0  0  0  2  0  0  0  0  0  0
  -27.9230  -18.6530   19.9010 C   0  0  0  0  0  2  0  0  0  0  0  0
  -30.1630  -18.8070   18.7950 C   0  0  0  0  0  2  0  0  0  0  0  0
  -28.1010  -17.1300   19.9800 C   0  0  0  0  0  2  0  0  0  0  0  0
  -30.3450  -17.2710   18.9070 C   0  0  0  0  0  2  0  0  0  0  0  0
  -29.9300  -18.1720   21.0730 C   0  0  0  0  0  2  0  0  0  0  0  0
  -29.3560  -19.1940   20.0570 C   0  0  1  0  0  0  0  0  0  0  0  0
  -29.6100  -16.9240   20.2220 C   0  0  1  0  0  0  0  0  0  0  0  0
  -30.6080  -14.5430   20.4380 C   0  0  0  0  0  0  0  0  0  0  0  0
  -30.3590  -12.3340   19.3720 C   0  0  0  0  0  2  0  0  0  0  0  0
  -29.4350  -12.5190   18.1470 C   0  0  0  0  0  2  0  0  0  0  0  0
  -27.9540  -12.3900   18.5540 C   0  0  0  0  0  2  0  0  0  0  0  0
  -27.5960  -13.2380   19.8030 C   0  0  0  0  0  3  0  0  0  0  0  0
  -28.6400  -13.0380   20.9290 C   0  0  0  0  0  2  0  0  0  0  0  0
  -29.9730  -13.3380   20.3780 N   0  0  0  0  0  0  0  0  0  0  0  0
  -31.7430  -14.7170   19.9870 O   0  0  0  0  0  0  0  0  0  0  0  0
  -29.8190  -15.5760   20.8250 N   0  0  0  0  0  0  0  0  0  0  0  0
  -29.0170  -15.2490   21.3410 H   0  0  0  0  0  0  0  0  0  0  0  0
  -25.1870  -13.8580   20.4700 C   0  0  0  0  0  0  0  0  0  0  0  0
  -24.1130  -13.0940   20.8380 C   0  0  0  0  0  0  0  0  0  0  0  0
  -24.5710  -11.7410   20.8300 C   0  0  0  0  0  0  0  0  0  0  0  0
  -26.2350  -12.9720   20.2660 N   0  0  0  0  0  0  0  0  0  0  0  0
  -25.8660  -11.6950   20.5390 N   0  0  0  0  0  0  0  0  0  0  0  0
  -23.8380  -10.4840   21.0250 C   0  0  0  0  0  0  0  0  0  0  0  0
  -24.2620   -9.5230   21.9690 C   0  0  0  0  0  3  0  0  0  0  0  0
  -23.5300   -8.3310   22.1520 C   0  0  0  0  0  3  0  0  0  0  0  0
  -22.3630   -8.0910   21.3900 C   0  0  0  0  0  0  0  0  0  0  0  0
  -21.9570   -9.0400   20.4360 C   0  0  0  0  0  3  0  0  0  0  0  0
  -22.6910  -10.2250   20.2510 C   0  0  0  0  0  3  0  0  0  0  0  0
  -21.6050   -6.9490   21.4810 O   0  0  0  0  0  0  0  0  0  0  0  0
  -21.5480   -6.2120   22.6370 C   0  0  0  0  0  0  0  0  0  0  0  0
  -21.1130   -6.7730   23.8570 C   0  0  0  0  0  3  0  0  0  0  0  0
  -21.0040   -5.9630   25.0050 C   0  0  0  0  0  3  0  0  0  0  0  0
  -21.3200   -4.5940   24.9340 C   0  0  0  0  0  0  0  0  0  0  0  0
  -21.7480   -4.0320   23.7180 C   0  0  0  0  0  3  0  0  0  0  0  0
  -21.8580   -4.8390   22.5730 C   0  0  0  0  0  0  0  0  0  0  0  0
  -22.2510   -4.2880   21.3980 F   0  0  0  0  0  0  0  0  0  0  0  0
  -21.2060   -3.8140   26.0340 F   0  0  0  0  0  0  0  0  0  0  0  0
  -22.7130  -13.5800   21.0870 C   0  0  0  0  0  0  0  0  0  0  0  0
  -21.9700  -12.9010   21.9500 N   0  0  0  0  0  0  0  0  0  0  0  0
  -22.2870  -14.6020   20.5490 O   0  0  0  0  0  0  0  0  0  0  0  0
  -22.3250  -12.0750   22.4110 H   0  0  0  0  0  0  0  0  0  0  0  0
  -21.0310  -13.2120   22.1590 H   0  0  0  0  0  0  0  0  0  0  0  0
  -25.3510  -15.2230   20.2720 N   0  0  0  0  0  0  0  0  0  0  0  0
  -24.5870  -15.8840   20.3760 H   0  0  0  0  0  0  0  0  0  0  0  0
  -26.2040  -15.6510   19.9400 H   0  0  0  0  0  0  0  0  0  0  0  0
  1  5  1  0
  2  6  1  0
  2  1  2  0
  4 50  1  0
  4  3  1  0
  5  3  2  0
  5  9  1  0
  6  4  2  0
  7  8  1  0
  8  6  1  0
 10 21  2  0
 11  9  1  0
 11 16  1  0
 12 20  1  0
 12 22  1  0
 13 19  1  0
 13 15  1  0
 14 20  1  0
 15 14  1  0
 16 15  2  0
 17 18  1  0
 17 11  2  0
 18 13  2  0
 19 12  1  0
 20 10  1  0
 22 24  2  0
 23 22  1  0
 25 23  1  0
 26 35  2  0
 26 31  1  0
 27 23  1  0
 27 31  1  0
 28 27  1  0
 29 30  1  0
 29 28  1  0
 30 26  1  0
 31 32  2  0
 32 33  1  0
 34 33  2  0
 35 34  1  0
 36 10  1  0
 36 41  1  0
 36 37  1  0
 37 40  1  1
 37 38  1  0
 39 37  1  0
 41 44  1  0
 42 46  1  0
 42 41  1  0
 43 42  2  0
 46 45  1  0
 48 46  1  0
 48 49  1  0
 48 47  1  0
 50 51  1  0
 52 54  1  0
 52 57  1  0
 53 55  1  0
 53 57  1  0
 54 58  1  0
 55 58  1  0
 57 51  1  1
 57 56  1  0
 58 67  1  1
 58 56  1  0
 59 67  1  0
 60 65  1  0
 61 62  1  0
 61 60  1  0
 63 62  1  0
 63 72  1  0
 63 64  1  0
 65 59  1  0
 65 64  1  0
 66 59  2  0
 67 68  1  0
 69 70  2  0
 70 89  1  0
 71 70  1  0
 71 74  1  0
 72 69  1  0
 72 73  1  0
 73 71  2  0
 74 75  1  0
 75 76  2  0
 77 80  1  0
 77 76  1  0
 78 77  2  0
 79 78  1  0
 79 74  2  0
 80 81  1  0
 81 82  1  0
 82 83  2  0
 84 83  1  0
 84 88  1  0
 85 84  2  0
 86 81  2  0
 86 85  1  0
 87 86  1  0
 89 90  1  0
 90 93  1  0
 90 92  1  0
 91 89  2  0
 94 95  1  0
 94 69  1  0
 96 94  1  0
M  ISO  4   5 101   9 101  59 100  67 100
M  END
>  <TORSDO>  (39) 
F 20

>  <SCORE>  (39) 
-14.145

>  <name>  (39) 
39

>  <ligand_id>  (39) 
39

>  <original_smiles>  (39) 
[H]c1c([H])c([H])c2c(c1[H])C([H])([H])C([H])([H])C([H])([H])C2([H])N([H])C(=O)C1([H])N(C(=O)C([H])(N([H])C(=O)C([H])(N([H])C([H])([H])[H])C([H])([H])[H])C(C([H])([H])[H])(C([H])([H])[H])C([H])([H])[H])C([H])([H])c2c([H])c(Oc3c([H])c([H])c(OC([H])([H])[H])c(C([H])([H])C([H])([H])C45C([H])([H])C([H])([H])C(N([H])C(=O)N6C([H])([H])C([H])([H])C([H])([H])C([H])(n7nc(-c8c([H])c([H])c(Oc9c([H])c([H])c(F)c([H])c9F)c([H])c8[H])c(C(=O)N([H])[H])c7N([H])[H])C6([H])[H])(C([H])([H])C4([H])[H])C5([H])[H])c3[H])c([H])c([H])c2C1([H])[H]

>  <smiles>  (39) 
[H]c1c([H])c([H])c2c(c1[H])C([H])([H])C([H])([H])C([H])([H])C2([H])N([H])C(=O)C1([H])N(C(=O)C([H])(N([H])C(=O)C([H])(N([H])C([H])([H])[H])C([H])([H])[H])C(C([H])([H])[H])(C([H])([H])[H])C([H])([H])[H])C([H])([H])c2c([H])c(Oc3c([H])c([H])c(OC([H])([H])[H])c(C([H])([H])C([H])([H])C45C([H])([H])C([H])([H])C(N([H])C(=O)N6C([H])([H])C([H])([H])C([H])([H])C([H])(n7nc(-c8c([H])c([H])c(Oc9c([H])c([H])c(F)c([H])c9F)c([H])c8[H])c(C(=O)N([H])[H])c7N([H])[H])C6([H])[H])(C([H])([H])C4([H])[H])C5([H])[H])c3[H])c([H])c([H])c2C1([H])[H]

$$$$
40:0:0
     RDKit          3D

 94103  0  0  1  0  0  0  0  0999 V2000
  -28.6330  -23.7860   17.5220 C   0  0  0  0  0  3  0  0  0  0  0  0
  -28.3930  -24.9460   18.2740 C   0  0  0  0  0  3  0  0  0  0  0  0
  -28.6020  -23.5870   20.2840 C   0  0  0  0  0  3  0  0  0  0  0  0
  -28.8370  -22.3270   19.5280 C   0  0  0  0  0  0  0  0  0  0  0  0
  -28.8640  -22.5270   18.1120 C   0  0  0  0  0  0  0  0  0  0  0  0
  -28.3680  -24.9290   19.6790 C   0  0  0  0  0  0  0  0  0  0  0  0
  -28.2560  -19.7900   19.5530 C   0  0  0  0  0  3  0  0  0  0  0  0
  -29.0550  -20.8050   20.0150 C   0  0  0  0  0  0  0  0  0  0  0  0
  -28.4150  -18.2230   19.6780 C   0  0  0  0  0  2  0  0  0  0  0  0
  -30.3150  -20.2180   20.7190 C   0  0  0  0  0  2  0  0  0  0  0  0
  -30.3250  -18.6490   21.1330 C   0  0  0  0  0  2  0  0  0  0  0  0
  -29.8070  -17.5840   20.0840 C   0  0  0  0  0  3  0  0  0  0  0  0
  -30.5300  -14.9140   20.2440 C   0  0  0  0  0  0  0  0  0  0  0  0
  -30.3850  -12.5760   19.3040 C   0  0  0  0  0  2  0  0  0  0  0  0
  -29.4260  -12.5750   18.0910 C   0  0  0  0  0  2  0  0  0  0  0  0
  -27.9680  -12.3750   18.5490 C   0  0  0  0  0  2  0  0  0  0  0  0
  -27.5970  -13.2860   19.7490 C   0  0  0  0  0  3  0  0  0  0  0  0
  -28.6760  -13.2580   20.8550 C   0  0  0  0  0  2  0  0  0  0  0  0
  -29.9450  -13.6540   20.2320 N   0  0  0  0  0  0  0  0  0  0  0  0
  -31.7040  -15.0140   19.8720 O   0  0  0  0  0  0  0  0  0  0  0  0
  -29.7270  -16.0560   20.4650 N   0  0  0  0  0  0  0  0  0  0  0  0
  -28.8140  -15.7920   20.8040 H   0  0  0  0  0  0  0  0  0  0  0  0
  -25.2360  -13.8700   20.5520 C   0  0  0  0  0  0  0  0  0  0  0  0
  -24.1750  -13.0950   20.9340 C   0  0  0  0  0  0  0  0  0  0  0  0
  -24.6280  -11.7420   20.8640 C   0  0  0  0  0  0  0  0  0  0  0  0
  -26.2670  -12.9890   20.2700 N   0  0  0  0  0  0  0  0  0  0  0  0
  -25.9100  -11.7020   20.5230 N   0  0  0  0  0  0  0  0  0  0  0  0
  -23.8950  -10.4820   21.0460 C   0  0  0  0  0  0  0  0  0  0  0  0
  -24.3240   -9.5050   21.9730 C   0  0  0  0  0  3  0  0  0  0  0  0
  -23.5920   -8.3110   22.1440 C   0  0  0  0  0  3  0  0  0  0  0  0
  -22.4170   -8.0830   21.3890 C   0  0  0  0  0  0  0  0  0  0  0  0
  -22.0070   -9.0480   20.4510 C   0  0  0  0  0  3  0  0  0  0  0  0
  -22.7400  -10.2340   20.2780 C   0  0  0  0  0  3  0  0  0  0  0  0
  -21.6560   -6.9420   21.4700 O   0  0  0  0  0  0  0  0  0  0  0  0
  -21.5820   -6.2070   22.6270 C   0  0  0  0  0  0  0  0  0  0  0  0
  -21.0940   -6.7620   23.8300 C   0  0  0  0  0  3  0  0  0  0  0  0
  -20.9680   -5.9520   24.9770 C   0  0  0  0  0  3  0  0  0  0  0  0
  -21.3190   -4.5900   24.9210 C   0  0  0  0  0  0  0  0  0  0  0  0
  -21.8000   -4.0350   23.7220 C   0  0  0  0  0  3  0  0  0  0  0  0
  -21.9270   -4.8420   22.5770 C   0  0  0  0  0  0  0  0  0  0  0  0
  -22.3700   -4.2980   21.4190 F   0  0  0  0  0  0  0  0  0  0  0  0
  -21.1910   -3.8110   26.0210 F   0  0  0  0  0  0  0  0  0  0  0  0
  -22.7870  -13.5780   21.2460 C   0  0  0  0  0  0  0  0  0  0  0  0
  -22.0710  -12.8670   22.1090 N   0  0  0  0  0  0  0  0  0  0  0  0
  -22.3490  -14.6200   20.7590 O   0  0  0  0  0  0  0  0  0  0  0  0
  -22.4380  -12.0240   22.5230 H   0  0  0  0  0  0  0  0  0  0  0  0
  -21.1390  -13.1700   22.3580 H   0  0  0  0  0  0  0  0  0  0  0  0
  -25.4050  -15.2420   20.3960 N   0  0  0  0  0  0  0  0  0  0  0  0
  -24.6420  -15.8960   20.5330 H   0  0  0  0  0  0  0  0  0  0  0  0
  -26.2330  -15.6790   20.0140 H   0  0  0  0  0  0  0  0  0  0  0  0
  -29.1560  -21.4920   17.2220 N   0  0  0  0  0  0  0  0  0  0  0  0
  -29.5050  -21.7280   16.2990 H   0  0  0  0  0  0  0  0  0  0  0  0
  -29.5730  -20.6510   17.6050 H   0  0  0  0  0  0  0  0  0  0  0  0
  -28.2630  -26.2450   20.2990 O   0  0  0  0  0  0  0  0  0  0  0  0
  -24.5900  -31.8560   23.2270 C   0  0  0  0  0  0  0  0  0  0  0  0
  -27.1900  -27.1910   20.1760 C   0  0  0  0  0  0  0  0  0  0  0  0
  -23.3930  -30.4650   21.5780 C   0  0  0  0  0  3  0  0  0  0  0  0
  -24.8460  -28.9000   20.1470 C   0  0  0  0  0  0  0  0  0  0  0  0
  -25.9430  -30.7440   21.4160 C   0  0  0  0  0  2  0  0  0  0  0  0
  -26.0200  -29.3580   20.7580 C   0  0  0  0  0  0  0  0  0  0  0  0
  -27.1890  -28.5160   20.7600 C   0  0  0  0  0  3  0  0  0  0  0  0
  -25.9880  -26.8190   19.5350 C   0  0  0  0  0  3  0  0  0  0  0  0
  -24.8410  -27.6420   19.5210 C   0  0  0  0  0  3  0  0  0  0  0  0
  -23.6150  -29.7900   20.1970 C   0  0  0  0  0  2  0  0  0  0  0  0
  -24.6620  -31.0430   22.1290 N   0  0  0  0  0  0  0  0  0  0  0  0
  -23.5040  -32.1380   23.7550 O   0  0  0  0  0  0  0  0  0  0  0  0
  -22.7160  -29.4550   22.5360 C   0  0  0  0  0  0  0  0  0  0  0  0
  -21.3880  -29.2820   22.4030 N   0  0  0  0  0  0  0  0  0  0  0  0
  -23.3850  -28.8280   23.3610 O   0  0  0  0  0  0  0  0  0  0  0  0
  -20.9050  -29.8380   21.7130 H   0  0  0  0  0  0  0  0  0  0  0  0
  -18.0050  -28.0880   22.8980 C   0  0  0  0  0  0  0  0  0  0  0  0
  -20.5640  -28.3440   23.1690 C   0  0  0  0  0  3  0  0  0  0  0  0
  -20.6640  -26.9140   22.5880 C   0  0  0  0  0  2  0  0  0  0  0  0
  -19.5620  -26.5980   21.5710 C   0  0  0  0  0  2  0  0  0  0  0  0
  -18.1800  -26.7420   22.2140 C   0  0  0  0  0  2  0  0  0  0  0  0
  -19.1240  -28.8470   23.3310 C   0  0  0  0  0  0  0  0  0  0  0  0
  -18.9060  -30.1060   23.9320 C   0  0  0  0  0  3  0  0  0  0  0  0
  -17.6020  -30.6070   24.1010 C   0  0  0  0  0  3  0  0  0  0  0  0
  -16.4970  -29.8460   23.6810 C   0  0  0  0  0  3  0  0  0  0  0  0
  -16.6990  -28.5880   23.0860 C   0  0  0  0  0  3  0  0  0  0  0  0
  -25.8690  -32.4880   23.8590 C   0  0  0  0  0  3  0  0  0  0  0  0
  -25.5610  -33.8900   24.1840 N   0  0  0  0  0  0  0  0  0  0  0  0
  -25.8960  -34.9410   23.4240 C   0  0  0  0  0  0  0  0  0  0  0  0
  -26.5640  -34.8330   22.3920 O   0  0  0  0  0  0  0  0  0  0  0  0
  -24.9680  -34.0470   24.9850 H   0  0  0  0  0  0  0  0  0  0  0  0
  -24.1790  -36.7470   23.0690 C   0  0  0  0  0  1  0  0  0  0  0  0
  -25.4170  -36.3340   23.8820 C   0  0  0  0  0  3  0  0  0  0  0  0
  -27.5510  -37.2120   24.7220 C   0  0  0  0  0  1  0  0  0  0  0  0
  -26.4560  -37.3810   23.7700 N   0  0  0  0  0  0  0  0  0  0  0  0
  -26.0540  -38.3040   23.9110 H   0  0  0  0  0  0  0  0  0  0  0  0
  -26.3690  -31.7220   25.1450 C   0  0  1  0  0  0  0  0  0  0  0  0
  -25.2640  -31.4940   26.2040 C   0  0  0  0  0  1  0  0  0  0  0  0
  -26.9500  -30.3400   24.7690 C   0  0  0  0  0  1  0  0  0  0  0  0
  -27.5160  -32.5140   25.8140 C   0  0  0  0  0  1  0  0  0  0  0  0
  1  5  2  0
  1  2  1  0
  2  6  2  0
  4  8  1  0
  4  3  2  0
  5  4  1  0
  6  3  1  0
  6 54  1  0
  7  9  1  0
  7  8  2  0
  8 10  1  0
  9 12  1  0
 10 11  1  0
 12 21  1  0
 12 11  1  0
 13 21  1  0
 14 19  1  0
 15 16  1  0
 15 14  1  0
 17 16  1  0
 17 26  1  0
 17 18  1  0
 19 13  1  0
 19 18  1  0
 20 13  2  0
 21 22  1  0
 23 24  2  0
 24 43  1  0
 25 24  1  0
 25 28  1  0
 26 27  1  0
 26 23  1  0
 27 25  2  0
 28 29  1  0
 29 30  2  0
 31 34  1  0
 31 30  1  0
 32 31  2  0
 33 32  1  0
 33 28  2  0
 34 35  1  0
 35 36  1  0
 36 37  2  0
 38 37  1  0
 38 42  1  0
 39 38  2  0
 40 35  2  0
 40 39  1  0
 41 40  1  0
 43 44  1  0
 44 47  1  0
 44 46  1  0
 45 43  2  0
 48 49  1  0
 48 23  1  0
 50 48  1  0
 51 53  1  0
 51  5  1  0
 52 51  1  0
 55 66  2  0
 56 54  1  0
 56 61  1  0
 57 65  1  0
 57 67  1  0
 58 64  1  0
 58 60  1  0
 59 65  1  0
 60 61  2  0
 60 59  1  0
 62 56  2  0
 63 62  1  0
 63 58  2  0
 64 57  1  0
 65 55  1  0
 67 69  2  0
 68 67  1  0
 70 68  1  0
 71 80  2  0
 71 76  1  0
 72 68  1  0
 72 76  1  0
 73 72  1  0
 74 75  1  0
 74 73  1  0
 75 71  1  0
 76 77  2  0
 77 78  1  0
 79 78  2  0
 80 79  1  0
 81 55  1  0
 81 82  1  0
 81 91  1  0
 82 85  1  0
 83 87  1  0
 83 82  1  0
 84 83  2  0
 87 86  1  0
 89 87  1  0
 89 90  1  0
 89 88  1  0
 91 94  1  1
 91 92  1  0
 93 91  1  0
M  ISO  4   6 101  13 100  21 100  54 101
M  END
>  <TORSDO>  (40) 
F 18

>  <SCORE>  (40) 
-14.984

>  <name>  (40) 
40

>  <ligand_id>  (40) 
40

>  <original_smiles>  (40) 
[H]C1=C(c2c([H])c(Oc3c([H])c([H])c4c(c3[H])C([H])([H])N(C(=O)C([H])(N([H])C(=O)C([H])(N([H])C([H])([H])[H])C([H])([H])[H])C(C([H])([H])[H])(C([H])([H])[H])C([H])([H])[H])C([H])(C(=O)N([H])C3([H])c5c([H])c([H])c([H])c([H])c5C([H])([H])C([H])([H])C3([H])[H])C4([H])[H])c([H])c([H])c2N([H])[H])C([H])([H])C([H])([H])C([H])(N([H])C(=O)N2C([H])([H])C([H])([H])C([H])([H])C([H])(n3nc(-c4c([H])c([H])c(Oc5c([H])c([H])c(F)c([H])c5F)c([H])c4[H])c(C(=O)N([H])[H])c3N([H])[H])C2([H])[H])C1([H])[H]

>  <smiles>  (40) 
[H]C1=C(c2c([H])c(Oc3c([H])c([H])c4c(c3[H])C([H])([H])N(C(=O)C([H])(N([H])C(=O)C([H])(N([H])C([H])([H])[H])C([H])([H])[H])C(C([H])([H])[H])(C([H])([H])[H])C([H])([H])[H])C([H])(C(=O)N([H])C3([H])c5c([H])c([H])c([H])c([H])c5C([H])([H])C([H])([H])C3([H])[H])C4([H])[H])c([H])c([H])c2N([H])[H])C([H])([H])C([H])([H])C([H])(N([H])C(=O)N2C([H])([H])C([H])([H])C([H])([H])C([H])(n3nc(-c4c([H])c([H])c(Oc5c([H])c([H])c(F)c([H])c5F)c([H])c4[H])c(C(=O)N([H])[H])c3N([H])[H])C2([H])[H])C1([H])[H]

$$$$
41:0:0
     RDKit          3D

 91100  0  0  1  0  0  0  0  0999 V2000
  -28.4480  -22.3330   21.2110 C   0  0  0  0  0  3  0  0  0  0  0  0
  -28.5700  -23.9140   18.9660 C   0  0  0  0  0  3  0  0  0  0  0  0
  -28.8020  -21.5530   20.0430 C   0  0  0  0  0  0  0  0  0  0  0  0
  -28.1890  -23.7900   21.2580 C   0  0  0  0  0  0  0  0  0  0  0  0
  -28.8230  -22.4670   18.9120 C   0  0  0  0  0  0  0  0  0  0  0  0
  -28.2360  -24.6980   20.1270 C   0  0  0  0  0  0  0  0  0  0  0  0
  -27.8770  -24.4080   22.6080 C   0  0  0  0  0  1  0  0  0  0  0  0
  -29.1650  -21.9100   17.5400 C   0  0  0  0  0  1  0  0  0  0  0  0
  -30.5640  -15.1800   20.2650 C   0  0  0  0  0  0  0  0  0  0  0  0
  -30.3850  -12.7980   19.3700 C   0  0  0  0  0  2  0  0  0  0  0  0
  -29.4600  -12.6640   18.1430 C   0  0  0  0  0  2  0  0  0  0  0  0
  -28.0120  -12.4240   18.5970 C   0  0  0  0  0  2  0  0  0  0  0  0
  -27.5890  -13.3800   19.7420 C   0  0  0  0  0  3  0  0  0  0  0  0
  -28.6510  -13.5070   20.8550 C   0  0  0  0  0  2  0  0  0  0  0  0
  -29.8880  -13.9480   20.1970 N   0  0  0  0  0  0  0  0  0  0  0  0
  -31.7820  -15.0820   20.0700 O   0  0  0  0  0  0  0  0  0  0  0  0
  -30.4820  -19.2810   20.5960 C   0  0  0  0  0  2  0  0  0  0  0  0
  -28.2120  -18.6850   20.3840 C   0  0  0  0  0  2  0  0  0  0  0  0
  -30.9260  -17.7450   20.2580 C   0  0  0  0  0  2  0  0  0  0  0  0
  -28.6070  -17.0980   20.1080 C   0  0  0  0  0  2  0  0  0  0  0  0
  -29.1760  -19.8870   19.9460 C   0  0  0  0  0  3  0  0  0  0  0  0
  -30.0000  -16.5320   20.3490 N   0  0  0  0  0  0  0  0  0  0  0  0
  -25.2260  -13.9270   20.5360 C   0  0  0  0  0  0  0  0  0  0  0  0
  -24.1730  -13.1410   20.9080 C   0  0  0  0  0  0  0  0  0  0  0  0
  -24.6450  -11.7930   20.8530 C   0  0  0  0  0  0  0  0  0  0  0  0
  -26.2700  -13.0590   20.2670 N   0  0  0  0  0  0  0  0  0  0  0  0
  -25.9330  -11.7680   20.5290 N   0  0  0  0  0  0  0  0  0  0  0  0
  -23.9250  -10.5250   21.0320 C   0  0  0  0  0  0  0  0  0  0  0  0
  -24.3470   -9.5600   21.9730 C   0  0  0  0  0  3  0  0  0  0  0  0
  -23.6240   -8.3600   22.1410 C   0  0  0  0  0  3  0  0  0  0  0  0
  -22.4640   -8.1150   21.3680 C   0  0  0  0  0  0  0  0  0  0  0  0
  -22.0610   -9.0690   20.4160 C   0  0  0  0  0  3  0  0  0  0  0  0
  -22.7850  -10.2610   20.2450 C   0  0  0  0  0  3  0  0  0  0  0  0
  -21.7120   -6.9670   21.4450 O   0  0  0  0  0  0  0  0  0  0  0  0
  -21.6200   -6.2460   22.6080 C   0  0  0  0  0  0  0  0  0  0  0  0
  -21.0950   -6.8070   23.7930 C   0  0  0  0  0  3  0  0  0  0  0  0
  -20.9520   -6.0090   24.9460 C   0  0  0  0  0  3  0  0  0  0  0  0
  -21.3240   -4.6510   24.9140 C   0  0  0  0  0  0  0  0  0  0  0  0
  -21.8410   -4.0900   23.7330 C   0  0  0  0  0  3  0  0  0  0  0  0
  -21.9850   -4.8850   22.5830 C   0  0  0  0  0  0  0  0  0  0  0  0
  -22.4640   -4.3340   21.4410 F   0  0  0  0  0  0  0  0  0  0  0  0
  -21.1800   -3.8820   26.0190 F   0  0  0  0  0  0  0  0  0  0  0  0
  -22.7770  -13.6100   21.1970 C   0  0  0  0  0  0  0  0  0  0  0  0
  -22.0600  -12.9000   22.0600 N   0  0  0  0  0  0  0  0  0  0  0  0
  -22.3320  -14.6400   20.6920 O   0  0  0  0  0  0  0  0  0  0  0  0
  -22.4340  -12.0660   22.4870 H   0  0  0  0  0  0  0  0  0  0  0  0
  -21.1240  -13.1950   22.2990 H   0  0  0  0  0  0  0  0  0  0  0  0
  -25.3780  -15.3000   20.3700 N   0  0  0  0  0  0  0  0  0  0  0  0
  -24.6040  -15.9440   20.4940 H   0  0  0  0  0  0  0  0  0  0  0  0
  -26.2130  -15.7460   20.0160 H   0  0  0  0  0  0  0  0  0  0  0  0
  -28.2340  -26.1950   20.1590 O   0  0  0  0  0  0  0  0  0  0  0  0
  -24.6380  -31.9270   23.2340 C   0  0  0  0  0  0  0  0  0  0  0  0
  -27.1520  -27.1690   20.1540 C   0  0  0  0  0  0  0  0  0  0  0  0
  -23.4140  -30.5430   21.6020 C   0  0  0  0  0  3  0  0  0  0  0  0
  -24.8360  -28.9550   20.1530 C   0  0  0  0  0  0  0  0  0  0  0  0
  -25.9680  -30.7850   21.4100 C   0  0  0  0  0  2  0  0  0  0  0  0
  -26.0250  -29.3880   20.7520 C   0  0  0  0  0  0  0  0  0  0  0  0
  -27.1790  -28.5110   20.7360 C   0  0  0  0  0  3  0  0  0  0  0  0
  -25.9400  -26.8480   19.5120 C   0  0  0  0  0  3  0  0  0  0  0  0
  -24.8090  -27.7010   19.5170 C   0  0  0  0  0  3  0  0  0  0  0  0
  -23.6170  -29.8670   20.2180 C   0  0  0  0  0  2  0  0  0  0  0  0
  -24.6950  -31.1100   22.1360 N   0  0  0  0  0  0  0  0  0  0  0  0
  -23.5600  -32.2120   23.7780 O   0  0  0  0  0  0  0  0  0  0  0  0
  -22.7410  -29.5360   22.5690 C   0  0  0  0  0  0  0  0  0  0  0  0
  -21.4150  -29.3510   22.4420 N   0  0  0  0  0  0  0  0  0  0  0  0
  -23.4180  -28.9230   23.3990 O   0  0  0  0  0  0  0  0  0  0  0  0
  -20.9240  -29.8950   21.7470 H   0  0  0  0  0  0  0  0  0  0  0  0
  -18.0500  -28.1060   22.9420 C   0  0  0  0  0  0  0  0  0  0  0  0
  -20.6050  -28.4070   23.2160 C   0  0  0  0  0  3  0  0  0  0  0  0
  -20.7280  -26.9730   22.6520 C   0  0  0  0  0  2  0  0  0  0  0  0
  -19.6360  -26.6290   21.6350 C   0  0  0  0  0  2  0  0  0  0  0  0
  -18.2500  -26.7570   22.2720 C   0  0  0  0  0  2  0  0  0  0  0  0
  -19.1560  -28.8880   23.3710 C   0  0  0  0  0  0  0  0  0  0  0  0
  -18.9130  -30.1480   23.9580 C   0  0  0  0  0  3  0  0  0  0  0  0
  -17.6000  -30.6280   24.1200 C   0  0  0  0  0  3  0  0  0  0  0  0
  -16.5100  -29.8440   23.7050 C   0  0  0  0  0  3  0  0  0  0  0  0
  -16.7360  -28.5840   23.1230 C   0  0  0  0  0  3  0  0  0  0  0  0
  -25.9260  -32.5570   23.8500 C   0  0  0  0  0  3  0  0  0  0  0  0
  -25.6180  -33.9530   24.2040 N   0  0  0  0  0  0  0  0  0  0  0  0
  -25.9060  -35.0170   23.4410 C   0  0  0  0  0  0  0  0  0  0  0  0
  -26.5250  -34.9270   22.3770 O   0  0  0  0  0  0  0  0  0  0  0  0
  -25.0660  -34.0960   25.0360 H   0  0  0  0  0  0  0  0  0  0  0  0
  -24.1400  -36.7960   23.2060 C   0  0  0  0  0  1  0  0  0  0  0  0
  -25.4340  -36.4000   23.9350 C   0  0  0  0  0  3  0  0  0  0  0  0
  -27.6030  -37.3130   24.6420 C   0  0  0  0  0  1  0  0  0  0  0  0
  -26.4460  -37.4650   23.7640 N   0  0  0  0  0  0  0  0  0  0  0  0
  -26.0390  -38.3810   23.9330 H   0  0  0  0  0  0  0  0  0  0  0  0
  -26.4520  -31.7770   25.1180 C   0  0  1  0  0  0  0  0  0  0  0  0
  -25.3680  -31.5340   26.1940 C   0  0  0  0  0  1  0  0  0  0  0  0
  -27.0290  -30.3990   24.7180 C   0  0  0  0  0  1  0  0  0  0  0  0
  -27.6090  -32.5650   25.7760 C   0  0  0  0  0  1  0  0  0  0  0  0
  1  4  1  0
  2  6  1  0
  3  1  2  0
  4  7  1  0
  5  2  2  0
  5  3  1  0
  6 51  1  0
  6  4  2  0
  8  5  1  0
  9 22  1  0
 10 15  1  0
 11 12  1  0
 11 10  1  0
 13 12  1  0
 13 26  1  0
 13 14  1  0
 15  9  1  0
 15 14  1  0
 16  9  2  0
 19 22  1  0
 19 17  1  0
 20 22  1  0
 20 18  1  0
 21  3  1  0
 21 18  1  0
 21 17  1  0
 23 24  2  0
 24 43  1  0
 25 24  1  0
 25 28  1  0
 26 27  1  0
 26 23  1  0
 27 25  2  0
 28 29  1  0
 29 30  2  0
 31 34  1  0
 31 30  1  0
 32 31  2  0
 33 32  1  0
 33 28  2  0
 34 35  1  0
 35 36  1  0
 36 37  2  0
 38 37  1  0
 38 42  1  0
 39 38  2  0
 40 35  2  0
 40 39  1  0
 41 40  1  0
 43 44  1  0
 44 47  1  0
 44 46  1  0
 45 43  2  0
 48 49  1  0
 48 23  1  0
 50 48  1  0
 52 63  2  0
 53 51  1  0
 53 58  1  0
 54 62  1  0
 54 64  1  0
 55 61  1  0
 55 57  1  0
 56 62  1  0
 57 56  1  0
 58 57  2  0
 59 60  1  0
 59 53  2  0
 60 55  2  0
 61 54  1  0
 62 52  1  0
 64 66  2  0
 65 64  1  0
 67 65  1  0
 68 77  2  0
 68 73  1  0
 69 65  1  0
 69 73  1  0
 70 69  1  0
 71 72  1  0
 71 70  1  0
 72 68  1  0
 73 74  2  0
 74 75  1  0
 76 75  2  0
 77 76  1  0
 78 52  1  0
 78 79  1  0
 78 88  1  0
 79 82  1  0
 80 84  1  0
 80 79  1  0
 81 80  2  0
 84 83  1  0
 86 87  1  0
 86 84  1  0
 86 85  1  0
 88 91  1  1
 88 89  1  0
 90 88  1  0
M  ISO  4   6 101   9 100  22 100  51 101
M  END
>  <TORSDO>  (41) 
F 16

>  <SCORE>  (41) 
-16.031

>  <name>  (41) 
41

>  <ligand_id>  (41) 
41

>  <original_smiles>  (41) 
[H]c1c([H])c([H])c2c(c1[H])C([H])([H])C([H])([H])C([H])([H])C2([H])N([H])C(=O)C1([H])N(C(=O)C([H])(N([H])C(=O)C([H])(N([H])C([H])([H])[H])C([H])([H])[H])C(C([H])([H])[H])(C([H])([H])[H])C([H])([H])[H])C([H])([H])c2c([H])c(Oc3c([H])c(C([H])([H])[H])c(C4([H])C([H])([H])C([H])([H])N(C(=O)N5C([H])([H])C([H])([H])C([H])([H])C([H])(n6nc(-c7c([H])c([H])c(Oc8c([H])c([H])c(F)c([H])c8F)c([H])c7[H])c(C(=O)N([H])[H])c6N([H])[H])C5([H])[H])C([H])([H])C4([H])[H])c([H])c3C([H])([H])[H])c([H])c([H])c2C1([H])[H]

>  <smiles>  (41) 
[H]c1c([H])c([H])c2c(c1[H])C([H])([H])C([H])([H])C([H])([H])C2([H])N([H])C(=O)C1([H])N(C(=O)C([H])(N([H])C(=O)C([H])(N([H])C([H])([H])[H])C([H])([H])[H])C(C([H])([H])[H])(C([H])([H])[H])C([H])([H])[H])C([H])([H])c2c([H])c(Oc3c([H])c(C([H])([H])[H])c(C4([H])C([H])([H])C([H])([H])N(C(=O)N5C([H])([H])C([H])([H])C([H])([H])C([H])(n6nc(-c7c([H])c([H])c(Oc8c([H])c([H])c(F)c([H])c8F)c([H])c7[H])c(C(=O)N([H])[H])c6N([H])[H])C5([H])[H])C([H])([H])C4([H])[H])c([H])c3C([H])([H])[H])c([H])c([H])c2C1([H])[H]

$$$$
42:0:0
     RDKit          3D

 90 98  0  0  1  0  0  0  0  0999 V2000
  -29.3990  -21.8150   18.5820 C   0  0  0  0  0  3  0  0  0  0  0  0
  -28.5560  -23.0990   20.4570 C   0  0  0  0  0  3  0  0  0  0  0  0
  -28.9920  -21.7220   19.9230 C   0  0  0  0  0  0  0  0  0  0  0  0
  -29.4330  -23.0300   17.8470 C   0  0  0  0  0  0  0  0  0  0  0  0
  -28.4800  -24.4570   19.7340 C   0  0  0  0  0  0  0  0  0  0  0  0
  -28.9670  -24.2840   18.3920 C   0  0  0  0  0  0  0  0  0  0  0  0
  -31.3590  -22.1570   16.3490 C   0  0  0  0  0  1  0  0  0  0  0  0
  -30.0130  -22.9280   16.4230 C   0  0  0  0  0  2  0  0  0  0  0  0
  -30.1310  -26.2130   17.6950 C   0  0  0  0  0  1  0  0  0  0  0  0
  -28.9880  -25.3790   17.5640 O   0  0  0  0  0  0  0  0  0  0  0  0
  -28.2800  -25.9070   20.2200 O   0  0  0  0  0  0  0  0  0  0  0  0
  -24.6130  -31.8430   23.1600 C   0  0  0  0  0  0  0  0  0  0  0  0
  -27.2230  -26.9610   20.1240 C   0  0  0  0  0  0  0  0  0  0  0  0
  -23.4330  -30.4320   21.5180 C   0  0  0  0  0  3  0  0  0  0  0  0
  -24.8910  -28.8080   20.1150 C   0  0  0  0  0  0  0  0  0  0  0  0
  -25.9970  -30.6450   21.3780 C   0  0  0  0  0  2  0  0  0  0  0  0
  -26.0760  -29.2280   20.7340 C   0  0  0  0  0  0  0  0  0  0  0  0
  -27.2270  -28.3160   20.7230 C   0  0  0  0  0  3  0  0  0  0  0  0
  -26.0030  -26.6830   19.4710 C   0  0  0  0  0  3  0  0  0  0  0  0
  -24.8740  -27.5530   19.4790 C   0  0  0  0  0  3  0  0  0  0  0  0
  -23.6710  -29.7280   20.1530 C   0  0  0  0  0  2  0  0  0  0  0  0
  -24.7060  -31.0040   22.0720 N   0  0  0  0  0  0  0  0  0  0  0  0
  -23.5200  -32.1300   23.6730 O   0  0  0  0  0  0  0  0  0  0  0  0
  -22.7310  -29.4510   22.4930 C   0  0  0  0  0  0  0  0  0  0  0  0
  -21.3980  -29.3040   22.3760 N   0  0  0  0  0  0  0  0  0  0  0  0
  -23.3960  -28.8200   23.3190 O   0  0  0  0  0  0  0  0  0  0  0  0
  -20.9170  -29.8630   21.6850 H   0  0  0  0  0  0  0  0  0  0  0  0
  -18.0020  -28.1510   22.9140 C   0  0  0  0  0  0  0  0  0  0  0  0
  -20.5710  -28.3700   23.1450 C   0  0  0  0  0  3  0  0  0  0  0  0
  -20.6420  -26.9440   22.5500 C   0  0  0  0  0  2  0  0  0  0  0  0
  -19.5190  -26.6600   21.5470 C   0  0  0  0  0  2  0  0  0  0  0  0
  -18.1470  -26.8160   22.2080 C   0  0  0  0  0  2  0  0  0  0  0  0
  -19.1380  -28.8910   23.3400 C   0  0  0  0  0  0  0  0  0  0  0  0
  -18.9430  -30.1440   23.9590 C   0  0  0  0  0  3  0  0  0  0  0  0
  -17.6460  -30.6610   24.1480 C   0  0  0  0  0  3  0  0  0  0  0  0
  -16.5260  -29.9190   23.7320 C   0  0  0  0  0  3  0  0  0  0  0  0
  -16.7050  -28.6650   23.1250 C   0  0  0  0  0  3  0  0  0  0  0  0
  -25.8760  -32.4880   23.8060 C   0  0  0  0  0  3  0  0  0  0  0  0
  -25.5540  -33.8890   24.1380 N   0  0  0  0  0  0  0  0  0  0  0  0
  -25.9020  -34.9520   23.4010 C   0  0  0  0  0  0  0  0  0  0  0  0
  -26.5920  -34.8570   22.3830 O   0  0  0  0  0  0  0  0  0  0  0  0
  -24.9450  -34.0340   24.9320 H   0  0  0  0  0  0  0  0  0  0  0  0
  -24.1910  -36.7610   23.0330 C   0  0  0  0  0  1  0  0  0  0  0  0
  -25.4170  -36.3440   23.8640 C   0  0  0  0  0  3  0  0  0  0  0  0
  -27.5420  -37.2100   24.7380 C   0  0  0  0  0  1  0  0  0  0  0  0
  -26.4610  -37.3920   23.7740 N   0  0  0  0  0  0  0  0  0  0  0  0
  -26.0590  -38.3170   23.9160 H   0  0  0  0  0  0  0  0  0  0  0  0
  -26.3650  -31.7280   25.0990 C   0  0  1  0  0  0  0  0  0  0  0  0
  -25.2510  -31.4970   26.1500 C   0  0  0  0  0  1  0  0  0  0  0  0
  -26.9490  -30.3510   24.7230 C   0  0  0  0  0  1  0  0  0  0  0  0
  -27.5160  -32.5160   25.7730 C   0  0  0  0  0  1  0  0  0  0  0  0
  -29.0360  -20.1230   20.5990 C   0  0  0  0  0  3  0  0  0  0  0  0
  -29.8050  -18.5680   20.0960 C   0  0  0  0  0  3  0  0  0  0  0  0
  -29.5720  -16.8430   20.5830 C   0  0  0  0  0  2  0  0  0  0  0  0
  -30.4120  -15.3200   20.2960 C   0  0  0  0  0  0  0  0  0  0  0  0
  -30.4200  -12.8690   19.4250 C   0  0  0  0  0  2  0  0  0  0  0  0
  -29.5200  -12.6860   18.1790 C   0  0  0  0  0  2  0  0  0  0  0  0
  -28.0780  -12.3750   18.6150 C   0  0  0  0  0  2  0  0  0  0  0  0
  -27.5970  -13.3440   19.7180 C   0  0  0  0  0  3  0  0  0  0  0  0
  -28.6260  -13.5060   20.8570 C   0  0  0  0  0  2  0  0  0  0  0  0
  -29.8790  -13.9990   20.2630 N   0  0  0  0  0  0  0  0  0  0  0  0
  -31.6230  -15.3370   20.0150 O   0  0  0  0  0  0  0  0  0  0  0  0
  -25.2130  -13.9030   20.4490 C   0  0  0  0  0  0  0  0  0  0  0  0
  -24.1470  -13.1260   20.8160 C   0  0  0  0  0  0  0  0  0  0  0  0
  -24.6220  -11.7750   20.7990 C   0  0  0  0  0  0  0  0  0  0  0  0
  -26.2600  -13.0270   20.2160 N   0  0  0  0  0  0  0  0  0  0  0  0
  -25.9190  -11.7440   20.4990 N   0  0  0  0  0  0  0  0  0  0  0  0
  -23.8960  -10.5130   20.9930 C   0  0  0  0  0  0  0  0  0  0  0  0
  -24.3160   -9.5610   21.9490 C   0  0  0  0  0  3  0  0  0  0  0  0
  -23.5940   -8.3600   22.1280 C   0  0  0  0  0  3  0  0  0  0  0  0
  -22.4360   -8.1080   21.3540 C   0  0  0  0  0  0  0  0  0  0  0  0
  -22.0330   -9.0500   20.3920 C   0  0  0  0  0  3  0  0  0  0  0  0
  -22.7550  -10.2410   20.2120 C   0  0  0  0  0  3  0  0  0  0  0  0
  -21.6830   -6.9620   21.4490 O   0  0  0  0  0  0  0  0  0  0  0  0
  -21.6120   -6.2380   22.6100 C   0  0  0  0  0  0  0  0  0  0  0  0
  -21.1500   -6.8080   23.8170 C   0  0  0  0  0  3  0  0  0  0  0  0
  -21.0330   -6.0090   24.9730 C   0  0  0  0  0  3  0  0  0  0  0  0
  -21.3620   -4.6410   24.9220 C   0  0  0  0  0  0  0  0  0  0  0  0
  -21.8110   -4.0710   23.7170 C   0  0  0  0  0  3  0  0  0  0  0  0
  -21.9350   -4.8660   22.5670 C   0  0  0  0  0  0  0  0  0  0  0  0
  -22.3540   -4.3060   21.4040 F   0  0  0  0  0  0  0  0  0  0  0  0
  -21.2360   -3.8730   26.0280 F   0  0  0  0  0  0  0  0  0  0  0  0
  -22.7450  -13.6030   21.0640 C   0  0  0  0  0  0  0  0  0  0  0  0
  -22.0010  -12.9120   21.9160 N   0  0  0  0  0  0  0  0  0  0  0  0
  -22.3160  -14.6300   20.5340 O   0  0  0  0  0  0  0  0  0  0  0  0
  -22.3580  -12.0850   22.3690 H   0  0  0  0  0  0  0  0  0  0  0  0
  -21.0570  -13.2110   22.1240 H   0  0  0  0  0  0  0  0  0  0  0  0
  -25.3790  -15.2720   20.2690 N   0  0  0  0  0  0  0  0  0  0  0  0
  -24.6190  -15.9330   20.3960 H   0  0  0  0  0  0  0  0  0  0  0  0
  -26.2410  -15.7050   19.9590 H   0  0  0  0  0  0  0  0  0  0  0  0
  1  3  1  0
  3  2  2  0
  3 52  1  0
  4  6  1  0
  4  1  2  0
  5 11  1  0
  5  2  1  0
  6  5  2  0
  7  8  1  0
  8  4  1  0
 10  9  1  0
 10  6  1  0
 12 23  2  0
 13 11  1  0
 13 18  1  0
 14 22  1  0
 14 24  1  0
 15 21  1  0
 15 17  1  0
 16 22  1  0
 17 16  1  0
 18 17  2  0
 19 20  1  0
 19 13  2  0
 20 15  2  0
 21 14  1  0
 22 12  1  0
 24 26  2  0
 25 24  1  0
 27 25  1  0
 28 37  2  0
 28 33  1  0
 29 25  1  0
 29 33  1  0
 30 29  1  0
 31 32  1  0
 31 30  1  0
 32 28  1  0
 33 34  2  0
 34 35  1  0
 36 35  2  0
 37 36  1  0
 38 12  1  0
 38 39  1  0
 38 48  1  0
 39 42  1  0
 40 44  1  0
 40 39  1  0
 41 40  2  0
 44 43  1  0
 46 44  1  0
 46 47  1  0
 46 45  1  0
 48 51  1  1
 48 49  1  0
 50 48  1  0
 53 54  1  0
 53 52  2  0
 55 54  1  0
 56 61  1  0
 57 58  1  0
 57 56  1  0
 59 58  1  0
 59 66  1  0
 59 60  1  0
 61 55  1  0
 61 60  1  0
 62 55  2  0
 63 64  2  0
 64 83  1  0
 65 64  1  0
 65 68  1  0
 66 63  1  0
 66 67  1  0
 67 65  2  0
 68 69  1  0
 69 70  2  0
 71 74  1  0
 71 70  1  0
 72 71  2  0
 73 72  1  0
 73 68  2  0
 74 75  1  0
 75 76  1  0
 76 77  2  0
 78 77  1  0
 78 82  1  0
 79 78  2  0
 80 75  2  0
 80 79  1  0
 81 80  1  0
 83 84  1  0
 84 87  1  0
 84 86  1  0
 85 83  2  0
 88 89  1  0
 88 63  1  0
 90 88  1  0
M  ISO  4   5 101  11 101  54 100  55 100
M  END
>  <TORSDO>  (42) 
F 21

>  <SCORE>  (42) 
-14.881

>  <name>  (42) 
42

>  <ligand_id>  (42) 
42

>  <original_smiles>  (42) 
[H]c1c([H])c([H])c2c(c1[H])C([H])([H])C([H])([H])C([H])([H])C2([H])N([H])C(=O)C1([H])N(C(=O)C([H])(N([H])C(=O)C([H])(N([H])C([H])([H])[H])C([H])([H])[H])C(C([H])([H])[H])(C([H])([H])[H])C([H])([H])[H])C([H])([H])c2c([H])c(Oc3c([H])c(C([H])([H])C([H])([H])C([H])([H])C(=O)N4C([H])([H])C([H])([H])C([H])([H])C([H])(n5nc(-c6c([H])c([H])c(Oc7c([H])c([H])c(F)c([H])c7F)c([H])c6[H])c(C(=O)N([H])[H])c5N([H])[H])C4([H])[H])c([H])c(C([H])([H])C([H])([H])[H])c3OC([H])([H])[H])c([H])c([H])c2C1([H])[H]

>  <smiles>  (42) 
[H]c1c([H])c([H])c2c(c1[H])C([H])([H])C([H])([H])C([H])([H])C2([H])N([H])C(=O)C1([H])N(C(=O)C([H])(N([H])C(=O)C([H])(N([H])C([H])([H])[H])C([H])([H])[H])C(C([H])([H])[H])(C([H])([H])[H])C([H])([H])[H])C([H])([H])c2c([H])c(Oc3c([H])c(C([H])([H])C([H])([H])C([H])([H])C(=O)N4C([H])([H])C([H])([H])C([H])([H])C([H])(n5nc(-c6c([H])c([H])c(Oc7c([H])c([H])c(F)c([H])c7F)c([H])c6[H])c(C(=O)N([H])[H])c5N([H])[H])C4([H])[H])c([H])c(C([H])([H])C([H])([H])[H])c3OC([H])([H])[H])c([H])c([H])c2C1([H])[H]

$$$$
43:0:0
     RDKit          3D

 96104  0  0  1  0  0  0  0  0999 V2000
  -28.4770  -25.3870   22.7410 C   0  0  0  0  0  3  0  0  0  0  0  0
  -30.4110  -26.5040   21.7970 C   0  0  0  0  0  3  0  0  0  0  0  0
  -29.8300  -25.7520   22.8420 C   0  0  0  0  0  0  0  0  0  0  0  0
  -27.7440  -25.6340   21.5710 C   0  0  0  0  0  0  0  0  0  0  0  0
  -29.6430  -26.8760   20.6680 C   0  0  0  0  0  0  0  0  0  0  0  0
  -28.3070  -26.4280   20.5410 C   0  0  0  0  0  0  0  0  0  0  0  0
  -26.3630  -25.0160   21.4640 C   0  0  0  0  0  1  0  0  0  0  0  0
  -30.2660  -27.7540   19.5960 C   0  0  0  0  0  1  0  0  0  0  0  0
  -27.5720  -26.7790   19.4330 O   0  0  0  0  0  0  0  0  0  0  0  0
  -24.7250  -31.9320   23.4110 C   0  0  0  0  0  0  0  0  0  0  0  0
  -26.5150  -27.6300   19.6390 C   0  0  0  0  0  0  0  0  0  0  0  0
  -23.1880  -30.8170   21.8230 C   0  0  0  0  0  3  0  0  0  0  0  0
  -24.2950  -29.3020   20.0920 C   0  0  0  0  0  0  0  0  0  0  0  0
  -25.6890  -30.9680   21.3300 C   0  0  0  0  0  2  0  0  0  0  0  0
  -25.5560  -29.6650   20.5780 C   0  0  0  0  0  0  0  0  0  0  0  0
  -26.6700  -28.8310   20.3620 C   0  0  0  0  0  3  0  0  0  0  0  0
  -25.2470  -27.2830   19.1310 C   0  0  0  0  0  3  0  0  0  0  0  0
  -24.1310  -28.1080   19.3690 C   0  0  0  0  0  3  0  0  0  0  0  0
  -23.1560  -30.2570   20.3750 C   0  0  0  0  0  2  0  0  0  0  0  0
  -24.5610  -31.2440   22.2460 N   0  0  0  0  0  0  0  0  0  0  0  0
  -23.7540  -32.2530   24.1070 O   0  0  0  0  0  0  0  0  0  0  0  0
  -22.5510  -29.7750   22.7700 C   0  0  0  0  0  0  0  0  0  0  0  0
  -21.2300  -29.5790   22.6370 N   0  0  0  0  0  0  0  0  0  0  0  0
  -23.2420  -29.1460   23.5760 O   0  0  0  0  0  0  0  0  0  0  0  0
  -20.7330  -30.1370   21.9560 H   0  0  0  0  0  0  0  0  0  0  0  0
  -17.9300  -28.1380   22.9080 C   0  0  0  0  0  0  0  0  0  0  0  0
  -20.4220  -28.6220   23.3940 C   0  0  0  0  0  3  0  0  0  0  0  0
  -20.6920  -27.1760   22.9240 C   0  0  0  0  0  2  0  0  0  0  0  0
  -19.7200  -26.7030   21.8390 C   0  0  0  0  0  2  0  0  0  0  0  0
  -18.2750  -26.7700   22.3450 C   0  0  0  0  0  2  0  0  0  0  0  0
  -18.9390  -29.0140   23.3850 C   0  0  0  0  0  0  0  0  0  0  0  0
  -18.5690  -30.2880   23.8650 C   0  0  0  0  0  3  0  0  0  0  0  0
  -17.2180  -30.6870   23.8790 C   0  0  0  0  0  3  0  0  0  0  0  0
  -16.2200  -29.8080   23.4240 C   0  0  0  0  0  3  0  0  0  0  0  0
  -16.5780  -28.5370   22.9400 C   0  0  0  0  0  3  0  0  0  0  0  0
  -26.1380  -32.3670   23.9090 C   0  0  0  0  0  3  0  0  0  0  0  0
  -26.7060  -31.4450   25.0560 C   0  0  1  0  0  0  0  0  0  0  0  0
  -25.7200  -31.2370   26.2280 C   0  0  0  0  0  1  0  0  0  0  0  0
  -27.0800  -30.0510   24.4960 C   0  0  0  0  0  1  0  0  0  0  0  0
  -28.0050  -32.0600   25.6290 C   0  0  0  0  0  1  0  0  0  0  0  0
  -26.0360  -33.7600   24.3600 N   0  0  0  0  0  0  0  0  0  0  0  0
  -26.4080  -34.8250   23.6350 C   0  0  0  0  0  0  0  0  0  0  0  0
  -26.9480  -34.7280   22.5290 O   0  0  0  0  0  0  0  0  0  0  0  0
  -25.5510  -33.9210   25.2310 H   0  0  0  0  0  0  0  0  0  0  0  0
  -24.8750  -36.8200   23.5910 C   0  0  0  0  0  1  0  0  0  0  0  0
  -26.1370  -36.2190   24.2320 C   0  0  0  0  0  3  0  0  0  0  0  0
  -28.4320  -36.7980   24.8840 C   0  0  0  0  0  1  0  0  0  0  0  0
  -27.2690  -37.1560   24.0770 N   0  0  0  0  0  0  0  0  0  0  0  0
  -26.9880  -38.1010   24.3260 H   0  0  0  0  0  0  0  0  0  0  0  0
  -30.6420  -25.3470   24.0720 C   0  0  0  0  0  2  0  0  0  0  0  0
  -31.1150  -23.8700   24.0880 C   0  0  0  0  0  2  0  0  0  0  0  0
  -29.9870  -22.8270   24.2660 C   0  0  0  0  0  2  0  0  0  0  0  0
  -30.4230  -21.4060   24.6510 C   0  0  0  0  0  2  0  0  0  0  0  0
  -30.8520  -20.5650   23.4330 C   0  0  0  0  0  2  0  0  0  0  0  0
  -30.7030  -19.0470   23.6390 C   0  0  0  0  0  2  0  0  0  0  0  0
  -31.1490  -18.2640   22.3900 C   0  0  0  0  0  2  0  0  0  0  0  0
  -30.7060  -16.7910   22.3450 C   0  0  0  0  0  2  0  0  0  0  0  0
  -31.2750  -16.0700   21.1050 C   0  0  0  0  0  2  0  0  0  0  0  0
  -31.0060  -13.9100   19.9160 C   0  0  0  0  0  0  0  0  0  0  0  0
  -30.4840  -11.7580   18.8190 C   0  0  0  0  0  2  0  0  0  0  0  0
  -29.4790  -11.9380   17.6670 C   0  0  0  0  0  2  0  0  0  0  0  0
  -28.0290  -11.9080   18.1840 C   0  0  0  0  0  2  0  0  0  0  0  0
  -27.8150  -12.8490   19.3980 C   0  0  0  0  0  3  0  0  0  0  0  0
  -28.9090  -12.6240   20.4630 C   0  0  0  0  0  2  0  0  0  0  0  0
  -30.2310  -12.7990   19.8280 N   0  0  0  0  0  0  0  0  0  0  0  0
  -31.9670  -14.1300   19.1690 O   0  0  0  0  0  0  0  0  0  0  0  0
  -30.6800  -14.7520   20.9060 N   0  0  0  0  0  0  0  0  0  0  0  0
  -29.9330  -14.4700   21.5230 H   0  0  0  0  0  0  0  0  0  0  0  0
  -25.5560  -13.6640   20.3370 C   0  0  0  0  0  0  0  0  0  0  0  0
  -24.4370  -12.9890   20.7430 C   0  0  0  0  0  0  0  0  0  0  0  0
  -24.7360  -11.6010   20.5830 C   0  0  0  0  0  0  0  0  0  0  0  0
  -26.4740  -12.6930   19.9640 N   0  0  0  0  0  0  0  0  0  0  0  0
  -25.9840  -11.4420   20.1640 N   0  0  0  0  0  0  0  0  0  0  0  0
  -23.8880  -10.4140   20.7500 C   0  0  0  0  0  0  0  0  0  0  0  0
  -24.2510   -9.3600   21.6180 C   0  0  0  0  0  3  0  0  0  0  0  0
  -23.4100   -8.2380   21.7720 C   0  0  0  0  0  3  0  0  0  0  0  0
  -22.1880   -8.1640   21.0610 C   0  0  0  0  0  0  0  0  0  0  0  0
  -21.8430   -9.2050   20.1800 C   0  0  0  0  0  3  0  0  0  0  0  0
  -22.6860  -10.3180   20.0230 C   0  0  0  0  0  3  0  0  0  0  0  0
  -21.3160   -7.1040   21.1330 O   0  0  0  0  0  0  0  0  0  0  0  0
  -21.1950   -6.3470   22.2710 C   0  0  0  0  0  0  0  0  0  0  0  0
  -20.8410   -6.9210   23.5110 C   0  0  0  0  0  3  0  0  0  0  0  0
  -20.6560   -6.0980   24.6410 C   0  0  0  0  0  3  0  0  0  0  0  0
  -20.8150   -4.7030   24.5300 C   0  0  0  0  0  0  0  0  0  0  0  0
  -21.1620   -4.1310   23.2940 C   0  0  0  0  0  3  0  0  0  0  0  0
  -21.3480   -4.9500   22.1660 C   0  0  0  0  0  0  0  0  0  0  0  0
  -21.6600   -4.3910   20.9730 F   0  0  0  0  0  0  0  0  0  0  0  0
  -20.6320   -3.9100   25.6130 F   0  0  0  0  0  0  0  0  0  0  0  0
  -23.1270  -13.5920   21.1650 C   0  0  0  0  0  0  0  0  0  0  0  0
  -22.4080  -12.9340   22.0690 N   0  0  0  0  0  0  0  0  0  0  0  0
  -22.7530  -14.6790   20.7290 O   0  0  0  0  0  0  0  0  0  0  0  0
  -22.7240  -12.0530   22.4470 H   0  0  0  0  0  0  0  0  0  0  0  0
  -21.5310  -13.3160   22.3870 H   0  0  0  0  0  0  0  0  0  0  0  0
  -25.8630  -15.0190   20.2380 N   0  0  0  0  0  0  0  0  0  0  0  0
  -25.1910  -15.7490   20.4530 H   0  0  0  0  0  0  0  0  0  0  0  0
  -26.7420  -15.3830   19.8910 H   0  0  0  0  0  0  0  0  0  0  0  0
  1  3  1  0
  2  3  2  0
  3 50  1  0
  4  1  2  0
  5  2  1  0
  6  5  2  0
  6  4  1  0
  7  4  1  0
  8  5  1  0
  9 11  1  0
  9  6  1  0
 10 21  2  0
 11 16  1  0
 12 20  1  0
 12 22  1  0
 13 19  1  0
 13 15  1  0
 14 20  1  0
 15 14  1  0
 16 15  2  0
 17 18  1  0
 17 11  2  0
 18 13  2  0
 19 12  1  0
 20 10  1  0
 22 24  2  0
 23 22  1  0
 25 23  1  0
 26 35  2  0
 26 31  1  0
 27 23  1  0
 28 27  1  0
 29 30  1  0
 29 28  1  0
 30 26  1  0
 31 27  1  0
 31 32  2  0
 32 33  1  0
 34 33  2  0
 35 34  1  0
 36 10  1  0
 36 41  1  0
 36 37  1  0
 37 40  1  1
 37 38  1  0
 39 37  1  0
 41 44  1  0
 42 46  1  0
 42 41  1  0
 43 42  2  0
 46 45  1  0
 48 46  1  0
 48 49  1  0
 48 47  1  0
 50 51  1  0
 51 52  1  0
 52 53  1  0
 54 55  1  0
 54 53  1  0
 56 55  1  0
 57 56  1  0
 58 57  1  0
 59 67  1  0
 60 65  1  0
 61 62  1  0
 61 60  1  0
 63 62  1  0
 63 72  1  0
 63 64  1  0
 65 59  1  0
 65 64  1  0
 66 59  2  0
 67 58  1  0
 67 68  1  0
 69 70  2  0
 70 89  1  0
 71 70  1  0
 71 74  1  0
 72 73  1  0
 72 69  1  0
 73 71  2  0
 74 75  1  0
 75 76  2  0
 77 80  1  0
 77 76  1  0
 78 77  2  0
 79 78  1  0
 79 74  2  0
 80 81  1  0
 81 82  1  0
 82 83  2  0
 84 83  1  0
 84 88  1  0
 85 84  2  0
 86 81  2  0
 86 85  1  0
 87 86  1  0
 89 90  1  0
 90 93  1  0
 90 92  1  0
 91 89  2  0
 94 69  1  0
 94 95  1  0
 96 94  1  0
M  ISO  4   6 101   9 101  59 100  67 100
M  END
>  <TORSDO>  (43) 
F 25

>  <SCORE>  (43) 
-6.773

>  <name>  (43) 
43

>  <ligand_id>  (43) 
43

>  <original_smiles>  (43) 
[H]c1c([H])c([H])c2c(c1[H])C([H])([H])C([H])([H])C([H])([H])C2([H])N([H])C(=O)C1([H])N(C(=O)C([H])(N([H])C(=O)C([H])(N([H])C([H])([H])[H])C([H])([H])[H])C(C([H])([H])[H])(C([H])([H])[H])C([H])([H])[H])C([H])([H])c2c([H])c(Oc3c(C([H])([H])[H])c([H])c(C([H])([H])C([H])([H])C([H])([H])C([H])([H])C([H])([H])C([H])([H])C([H])([H])C([H])([H])C([H])([H])N([H])C(=O)N4C([H])([H])C([H])([H])C([H])([H])C([H])(n5nc(-c6c([H])c([H])c(Oc7c([H])c([H])c(F)c([H])c7F)c([H])c6[H])c(C(=O)N([H])[H])c5N([H])[H])C4([H])[H])c([H])c3C([H])([H])[H])c([H])c([H])c2C1([H])[H]

>  <smiles>  (43) 
[H]c1c([H])c([H])c2c(c1[H])C([H])([H])C([H])([H])C([H])([H])C2([H])N([H])C(=O)C1([H])N(C(=O)C([H])(N([H])C(=O)C([H])(N([H])C([H])([H])[H])C([H])([H])[H])C(C([H])([H])[H])(C([H])([H])[H])C([H])([H])[H])C([H])([H])c2c([H])c(Oc3c(C([H])([H])[H])c([H])c(C([H])([H])C([H])([H])C([H])([H])C([H])([H])C([H])([H])C([H])([H])C([H])([H])C([H])([H])C([H])([H])N([H])C(=O)N4C([H])([H])C([H])([H])C([H])([H])C([H])(n5nc(-c6c([H])c([H])c(Oc7c([H])c([H])c(F)c([H])c7F)c([H])c6[H])c(C(=O)N([H])[H])c5N([H])[H])C4([H])[H])c([H])c3C([H])([H])[H])c([H])c([H])c2C1([H])[H]

$$$$
44:0:0
     RDKit          3D

 94103  0  0  1  0  0  0  0  0999 V2000
  -28.4660  -23.2490   20.2990 C   0  0  0  0  0  3  0  0  0  0  0  0
  -29.1920  -25.6840   21.4760 C   0  0  0  0  0  3  0  0  0  0  0  0
  -28.9130  -23.2570   21.6380 C   0  0  0  0  0  0  0  0  0  0  0  0
  -28.3980  -24.4340   19.5420 C   0  0  0  0  0  0  0  0  0  0  0  0
  -29.2940  -24.4910   22.2270 C   0  0  0  0  0  0  0  0  0  0  0  0
  -28.7340  -25.6690   20.1420 C   0  0  0  0  0  0  0  0  0  0  0  0
  -27.9440  -24.3510   18.0960 C   0  0  0  0  0  1  0  0  0  0  0  0
  -29.8030  -24.5680   23.6570 C   0  0  0  0  0  1  0  0  0  0  0  0
  -28.6120  -26.8480   19.4460 O   0  0  0  0  0  0  0  0  0  0  0  0
  -24.7410  -31.5950   23.0550 C   0  0  0  0  0  0  0  0  0  0  0  0
  -27.4140  -27.5070   19.5680 C   0  0  0  0  0  0  0  0  0  0  0  0
  -23.5050  -30.2180   21.4120 C   0  0  0  0  0  3  0  0  0  0  0  0
  -24.9450  -28.8490   19.8140 C   0  0  0  0  0  0  0  0  0  0  0  0
  -25.9860  -30.7380   21.0770 C   0  0  0  0  0  2  0  0  0  0  0  0
  -26.1060  -29.4110   20.3610 C   0  0  0  0  0  0  0  0  0  0  0  0
  -27.3440  -28.7460   20.2380 C   0  0  0  0  0  3  0  0  0  0  0  0
  -26.2380  -26.9550   19.0150 C   0  0  0  0  0  3  0  0  0  0  0  0
  -25.0050  -27.6170   19.1410 C   0  0  0  0  0  3  0  0  0  0  0  0
  -23.6610  -29.6260   19.9850 C   0  0  0  0  0  2  0  0  0  0  0  0
  -24.7660  -30.8620   21.9060 N   0  0  0  0  0  0  0  0  0  0  0  0
  -23.6840  -31.7770   23.6760 O   0  0  0  0  0  0  0  0  0  0  0  0
  -22.9780  -29.1100   22.3490 C   0  0  0  0  0  0  0  0  0  0  0  0
  -21.6870  -28.7680   22.2020 N   0  0  0  0  0  0  0  0  0  0  0  0
  -23.7250  -28.5590   23.1620 O   0  0  0  0  0  0  0  0  0  0  0  0
  -21.1410  -29.2710   21.5170 H   0  0  0  0  0  0  0  0  0  0  0  0
  -18.5390  -27.0190   22.4890 C   0  0  0  0  0  0  0  0  0  0  0  0
  -20.9820  -27.7250   22.9480 C   0  0  0  0  0  3  0  0  0  0  0  0
  -21.3770  -26.3180   22.4450 C   0  0  0  0  0  2  0  0  0  0  0  0
  -20.4360  -25.7770   21.3630 C   0  0  0  0  0  2  0  0  0  0  0  0
  -19.0000  -25.7010   21.8900 C   0  0  0  0  0  2  0  0  0  0  0  0
  -19.4710  -27.9760   22.9700 C   0  0  0  0  0  0  0  0  0  0  0  0
  -18.9920  -29.2000   23.4840 C   0  0  0  0  0  3  0  0  0  0  0  0
  -17.6120  -29.4730   23.5250 C   0  0  0  0  0  3  0  0  0  0  0  0
  -16.6930  -28.5160   23.0600 C   0  0  0  0  0  3  0  0  0  0  0  0
  -17.1570  -27.2920   22.5500 C   0  0  0  0  0  3  0  0  0  0  0  0
  -26.0300  -32.2620   23.6280 C   0  0  0  0  0  3  0  0  0  0  0  0
  -26.6560  -31.4680   24.8410 C   0  0  1  0  0  0  0  0  0  0  0  0
  -25.6400  -31.1450   25.9620 C   0  0  0  0  0  1  0  0  0  0  0  0
  -27.2720  -30.1330   24.3590 C   0  0  0  0  0  1  0  0  0  0  0  0
  -27.8110  -32.2860   25.4640 C   0  0  0  0  0  1  0  0  0  0  0  0
  -25.6790  -33.6300   24.0310 N   0  0  0  0  0  0  0  0  0  0  0  0
  -25.9640  -34.7280   23.3170 C   0  0  0  0  0  0  0  0  0  0  0  0
  -26.6210  -34.6970   22.2730 O   0  0  0  0  0  0  0  0  0  0  0  0
  -25.0970  -33.7260   24.8490 H   0  0  0  0  0  0  0  0  0  0  0  0
  -24.1750  -36.4740   23.0520 C   0  0  0  0  0  1  0  0  0  0  0  0
  -25.4320  -36.0750   23.8410 C   0  0  0  0  0  3  0  0  0  0  0  0
  -27.5440  -36.9830   24.7040 C   0  0  0  0  0  1  0  0  0  0  0  0
  -26.4290  -37.1660   23.7790 N   0  0  0  0  0  0  0  0  0  0  0  0
  -25.9950  -38.0640   23.9770 H   0  0  0  0  0  0  0  0  0  0  0  0
  -28.9310  -21.9370   22.4160 C   0  0  0  0  0  2  0  0  0  0  0  0
  -29.8290  -20.8590   21.7830 C   0  0  0  0  0  2  0  0  0  0  0  0
  -29.7420  -19.5010   22.5120 C   0  0  0  0  0  2  0  0  0  0  0  0
  -31.3560  -14.6670   19.8500 C   0  0  0  0  0  0  0  0  0  0  0  0
  -30.8270  -12.5780   18.6680 C   0  0  0  0  0  2  0  0  0  0  0  0
  -29.8040  -12.8580   17.5510 C   0  0  0  0  0  2  0  0  0  0  0  0
  -28.3690  -12.7560   18.1000 C   0  0  0  0  0  2  0  0  0  0  0  0
  -28.1660  -13.5750   19.4040 C   0  0  0  0  0  3  0  0  0  0  0  0
  -29.3030  -13.3080   20.4180 C   0  0  0  0  0  2  0  0  0  0  0  0
  -30.5870  -13.5520   19.7430 N   0  0  0  0  0  0  0  0  0  0  0  0
  -32.4100  -14.8120   19.2190 O   0  0  0  0  0  0  0  0  0  0  0  0
  -29.9560  -18.0630   20.3980 C   0  0  0  0  0  2  0  0  0  0  0  0
  -30.4870  -17.0510   22.6050 C   0  0  0  0  0  2  0  0  0  0  0  0
  -30.7820  -16.9670   19.7210 C   0  0  0  0  0  2  0  0  0  0  0  0
  -31.2710  -15.9310   21.8880 C   0  0  0  0  0  2  0  0  0  0  0  0
  -30.5060  -18.3640   21.8010 C   0  0  0  0  0  3  0  0  0  0  0  0
  -30.8180  -15.7190   20.5040 N   0  0  0  0  0  0  0  0  0  0  0  0
  -25.8730  -14.2300   20.3720 C   0  0  0  0  0  0  0  0  0  0  0  0
  -24.8050  -13.4780   20.7830 C   0  0  0  0  0  0  0  0  0  0  0  0
  -25.1930  -12.1140   20.6150 C   0  0  0  0  0  0  0  0  0  0  0  0
  -26.8500  -13.3240   19.9870 N   0  0  0  0  0  0  0  0  0  0  0  0
  -26.4480  -12.0420   20.1860 N   0  0  0  0  0  0  0  0  0  0  0  0
  -24.4250  -10.8730   20.7830 C   0  0  0  0  0  0  0  0  0  0  0  0
  -24.8470   -9.8560   21.6660 C   0  0  0  0  0  3  0  0  0  0  0  0
  -24.0820   -8.6800   21.8240 C   0  0  0  0  0  3  0  0  0  0  0  0
  -22.8790   -8.5140   21.0980 C   0  0  0  0  0  0  0  0  0  0  0  0
  -22.4740   -9.5190   20.2020 C   0  0  0  0  0  3  0  0  0  0  0  0
  -23.2400  -10.6860   20.0420 C   0  0  0  0  0  3  0  0  0  0  0  0
  -22.0850   -7.3940   21.1680 O   0  0  0  0  0  0  0  0  0  0  0  0
  -21.9690   -6.6660   22.3250 C   0  0  0  0  0  0  0  0  0  0  0  0
  -21.5370   -7.2520   23.5340 C   0  0  0  0  0  3  0  0  0  0  0  0
  -21.3640   -6.4520   24.6810 C   0  0  0  0  0  3  0  0  0  0  0  0
  -21.6120   -5.0680   24.6200 C   0  0  0  0  0  0  0  0  0  0  0  0
  -22.0380   -4.4820   23.4150 C   0  0  0  0  0  3  0  0  0  0  0  0
  -22.2130   -5.2790   22.2700 C   0  0  0  0  0  0  0  0  0  0  0  0
  -22.6020   -4.7050   21.1060 F   0  0  0  0  0  0  0  0  0  0  0  0
  -21.4390   -4.2980   25.7200 F   0  0  0  0  0  0  0  0  0  0  0  0
  -23.4640  -13.9940   21.2180 C   0  0  0  0  0  0  0  0  0  0  0  0
  -22.7940  -13.2800   22.1180 N   0  0  0  0  0  0  0  0  0  0  0  0
  -23.0210  -15.0620   20.7980 O   0  0  0  0  0  0  0  0  0  0  0  0
  -23.1650  -12.4140   22.4780 H   0  0  0  0  0  0  0  0  0  0  0  0
  -21.8970  -13.6060   22.4500 H   0  0  0  0  0  0  0  0  0  0  0  0
  -26.0900  -15.6010   20.2770 N   0  0  0  0  0  0  0  0  0  0  0  0
  -25.3750  -16.2810   20.5120 H   0  0  0  0  0  0  0  0  0  0  0  0
  -26.9430  -16.0230   19.9340 H   0  0  0  0  0  0  0  0  0  0  0  0
  1  3  1  0
  2  5  1  0
  3  5  2  0
  3 50  1  0
  4  6  1  0
  4  1  2  0
  5  8  1  0
  6  2  2  0
  7  4  1  0
  9 11  1  0
  9  6  1  0
 10 21  2  0
 11 16  1  0
 12 20  1  0
 12 22  1  0
 13 19  1  0
 13 15  1  0
 14 20  1  0
 15 14  1  0
 16 15  2  0
 17 18  1  0
 17 11  2  0
 18 13  2  0
 19 12  1  0
 20 10  1  0
 22 24  2  0
 23 22  1  0
 25 23  1  0
 26 35  2  0
 26 31  1  0
 27 23  1  0
 27 31  1  0
 28 27  1  0
 29 30  1  0
 29 28  1  0
 30 26  1  0
 31 32  2  0
 32 33  1  0
 34 33  2  0
 35 34  1  0
 36 10  1  0
 36 41  1  0
 36 37  1  0
 37 40  1  1
 37 38  1  0
 39 37  1  0
 41 44  1  0
 42 46  1  0
 42 41  1  0
 43 42  2  0
 46 45  1  0
 48 46  1  0
 48 49  1  0
 48 47  1  0
 51 50  1  0
 51 52  1  0
 53 66  1  0
 54 59  1  0
 55 56  1  0
 55 54  1  0
 57 56  1  0
 57 70  1  0
 57 58  1  0
 59 53  1  0
 59 58  1  0
 60 53  2  0
 61 65  1  0
 63 61  1  0
 63 66  1  0
 64 62  1  0
 65 52  1  0
 65 62  1  0
 66 64  1  0
 67 68  2  0
 68 87  1  0
 69 72  1  0
 69 68  1  0
 70 71  1  0
 70 67  1  0
 71 69  2  0
 72 73  1  0
 73 74  2  0
 75 78  1  0
 75 74  1  0
 76 75  2  0
 77 76  1  0
 77 72  2  0
 78 79  1  0
 79 80  1  0
 80 81  2  0
 82 81  1  0
 82 86  1  0
 83 82  2  0
 84 79  2  0
 84 83  1  0
 85 84  1  0
 87 88  1  0
 88 91  1  0
 88 90  1  0
 89 87  2  0
 92 67  1  0
 92 93  1  0
 94 92  1  0
M  ISO  4   6 101   9 101  53 100  66 100
M  END
>  <TORSDO>  (44) 
F 19

>  <SCORE>  (44) 
-10.589

>  <name>  (44) 
44

>  <ligand_id>  (44) 
44

>  <original_smiles>  (44) 
[H]c1c([H])c([H])c2c(c1[H])C([H])([H])C([H])([H])C([H])([H])C2([H])N([H])C(=O)C1([H])N(C(=O)C([H])(N([H])C(=O)C([H])(N([H])C([H])([H])[H])C([H])([H])[H])C(C([H])([H])[H])(C([H])([H])[H])C([H])([H])[H])C([H])([H])c2c([H])c(Oc3c([H])c(C([H])([H])[H])c(C([H])([H])C([H])([H])C([H])([H])C4([H])C([H])([H])C([H])([H])N(C(=O)N5C([H])([H])C([H])([H])C([H])([H])C([H])(n6nc(-c7c([H])c([H])c(Oc8c([H])c([H])c(F)c([H])c8F)c([H])c7[H])c(C(=O)N([H])[H])c6N([H])[H])C5([H])[H])C([H])([H])C4([H])[H])c([H])c3C([H])([H])[H])c([H])c([H])c2C1([H])[H]

>  <smiles>  (44) 
[H]c1c([H])c([H])c2c(c1[H])C([H])([H])C([H])([H])C([H])([H])C2([H])N([H])C(=O)C1([H])N(C(=O)C([H])(N([H])C(=O)C([H])(N([H])C([H])([H])[H])C([H])([H])[H])C(C([H])([H])[H])(C([H])([H])[H])C([H])([H])[H])C([H])([H])c2c([H])c(Oc3c([H])c(C([H])([H])[H])c(C([H])([H])C([H])([H])C([H])([H])C4([H])C([H])([H])C([H])([H])N(C(=O)N5C([H])([H])C([H])([H])C([H])([H])C([H])(n6nc(-c7c([H])c([H])c(Oc8c([H])c([H])c(F)c([H])c8F)c([H])c7[H])c(C(=O)N([H])[H])c6N([H])[H])C5([H])[H])C([H])([H])C4([H])[H])c([H])c3C([H])([H])[H])c([H])c([H])c2C1([H])[H]

$$$$
45:0:0
     RDKit          3D

 94103  0  0  1  0  0  0  0  0999 V2000
  -27.8960  -21.7080   21.1250 C   0  0  0  0  0  3  0  0  0  0  0  0
  -27.8910  -23.3640   21.3770 C   0  0  0  0  0  2  0  0  0  0  0  0
  -30.1490  -22.2110   20.2700 C   0  0  0  0  0  2  0  0  0  0  0  0
  -29.1070  -21.0050   20.3300 C   0  0  0  0  0  0  0  0  0  0  0  0
  -29.6890  -23.7200   19.7640 C   0  0  0  0  0  3  0  0  0  0  0  0
  -28.3360  -24.4550   20.2570 C   0  0  0  0  0  3  0  0  0  0  0  0
  -29.7930  -19.1760   18.6930 C   0  0  0  0  0  3  0  0  0  0  0  0
  -30.3180  -18.0090   18.1280 C   0  0  0  0  0  3  0  0  0  0  0  0
  -29.8120  -18.0410   20.8320 C   0  0  0  0  0  3  0  0  0  0  0  0
  -30.3250  -16.7070   20.2500 C   0  0  0  0  0  0  0  0  0  0  0  0
  -29.5510  -19.3530   20.0710 C   0  0  0  0  0  0  0  0  0  0  0  0
  -30.6650  -16.8650   18.8670 C   0  0  0  0  0  0  0  0  0  0  0  0
  -31.5660  -15.9170   18.0760 C   0  0  0  0  0  1  0  0  0  0  0  0
  -30.8510  -15.2750   20.9040 C   0  0  0  0  0  0  0  0  0  0  0  0
  -30.8180  -12.8400   20.0540 C   0  0  0  0  0  2  0  0  0  0  0  0
  -30.0070  -12.6460   18.7500 C   0  0  0  0  0  2  0  0  0  0  0  0
  -28.5150  -12.4410   19.0550 C   0  0  0  0  0  2  0  0  0  0  0  0
  -27.9890  -13.4340   20.1210 C   0  0  0  0  0  3  0  0  0  0  0  0
  -28.9330  -13.5810   21.3260 C   0  0  0  0  0  2  0  0  0  0  0  0
  -30.2320  -14.0080   20.7940 N   0  0  0  0  0  0  0  0  0  0  0  0
  -32.0800  -15.2000   21.0390 O   0  0  0  0  0  0  0  0  0  0  0  0
  -25.5680  -14.0320   20.6300 C   0  0  0  0  0  0  0  0  0  0  0  0
  -24.4680  -13.2770   20.9130 C   0  0  0  0  0  0  0  0  0  0  0  0
  -24.9220  -11.9200   20.9760 C   0  0  0  0  0  0  0  0  0  0  0  0
  -26.6200  -13.1440   20.5170 N   0  0  0  0  0  0  0  0  0  0  0  0
  -26.2380  -11.8700   20.7940 N   0  0  0  0  0  0  0  0  0  0  0  0
  -24.1700  -10.6690   21.1360 C   0  0  0  0  0  0  0  0  0  0  0  0
  -24.5310   -9.7120   22.1100 C   0  0  0  0  0  3  0  0  0  0  0  0
  -23.7830   -8.5260   22.2590 C   0  0  0  0  0  3  0  0  0  0  0  0
  -22.6570   -8.2880   21.4330 C   0  0  0  0  0  0  0  0  0  0  0  0
  -22.3110   -9.2360   20.4540 C   0  0  0  0  0  3  0  0  0  0  0  0
  -23.0570  -10.4170   20.3060 C   0  0  0  0  0  3  0  0  0  0  0  0
  -21.8890   -7.1520   21.4850 O   0  0  0  0  0  0  0  0  0  0  0  0
  -21.7870   -6.4010   22.6290 C   0  0  0  0  0  0  0  0  0  0  0  0
  -21.3200   -6.9540   23.8410 C   0  0  0  0  0  3  0  0  0  0  0  0
  -21.1700   -6.1340   24.9760 C   0  0  0  0  0  3  0  0  0  0  0  0
  -21.4690   -4.7610   24.8980 C   0  0  0  0  0  0  0  0  0  0  0  0
  -21.9240   -4.2050   23.6900 C   0  0  0  0  0  3  0  0  0  0  0  0
  -22.0820   -5.0240   22.5580 C   0  0  0  0  0  0  0  0  0  0  0  0
  -22.5030   -4.4810   21.3890 F   0  0  0  0  0  0  0  0  0  0  0  0
  -21.3160   -3.9720   25.9870 F   0  0  0  0  0  0  0  0  0  0  0  0
  -23.0540  -13.7690   21.0180 C   0  0  0  0  0  0  0  0  0  0  0  0
  -22.2430  -13.1270   21.8500 N   0  0  0  0  0  0  0  0  0  0  0  0
  -22.6760  -14.7590   20.3940 O   0  0  0  0  0  0  0  0  0  0  0  0
  -22.5660  -12.3310   22.3820 H   0  0  0  0  0  0  0  0  0  0  0  0
  -21.2870  -13.4380   21.9550 H   0  0  0  0  0  0  0  0  0  0  0  0
  -25.7590  -15.3970   20.4210 N   0  0  0  0  0  0  0  0  0  0  0  0
  -24.9880  -16.0540   20.4360 H   0  0  0  0  0  0  0  0  0  0  0  0
  -26.6370  -15.8210   20.1450 H   0  0  0  0  0  0  0  0  0  0  0  0
  -30.8150  -24.6620   19.9410 N   0  0  0  0  0  4  0  0  0  0  0  0
  -31.0830  -24.7250   20.9080 H   0  0  0  0  0  0  0  0  0  0  0  0
  -30.5430  -25.5880   19.6510 H   0  0  0  0  0  0  0  0  0  0  0  0
  -31.6180  -24.3800   19.4070 H   0  0  0  0  0  0  0  0  0  0  0  0
  -28.4020  -26.0610   20.4590 O   0  0  0  0  0  0  0  0  0  0  0  0
  -24.6360  -31.9070   23.1490 C   0  0  0  0  0  0  0  0  0  0  0  0
  -27.3410  -27.0660   20.3170 C   0  0  0  0  0  0  0  0  0  0  0  0
  -23.4990  -30.4400   21.5310 C   0  0  0  0  0  3  0  0  0  0  0  0
  -25.0040  -28.8450   20.1690 C   0  0  0  0  0  0  0  0  0  0  0  0
  -26.0560  -30.7250   21.4100 C   0  0  0  0  0  2  0  0  0  0  0  0
  -26.1640  -29.3080   20.8000 C   0  0  0  0  0  0  0  0  0  0  0  0
  -27.3300  -28.4350   20.8500 C   0  0  0  0  0  3  0  0  0  0  0  0
  -26.1580  -26.7370   19.6200 C   0  0  0  0  0  3  0  0  0  0  0  0
  -25.0200  -27.5800   19.5570 C   0  0  0  0  0  3  0  0  0  0  0  0
  -23.7570  -29.7240   20.1760 C   0  0  0  0  0  2  0  0  0  0  0  0
  -24.7520  -31.0520   22.0830 N   0  0  0  0  0  0  0  0  0  0  0  0
  -23.5340  -32.1810   23.6510 O   0  0  0  0  0  0  0  0  0  0  0  0
  -22.8200  -29.4490   22.5110 C   0  0  0  0  0  0  0  0  0  0  0  0
  -21.4910  -29.2760   22.3940 N   0  0  0  0  0  0  0  0  0  0  0  0
  -23.4940  -28.8370   23.3440 O   0  0  0  0  0  0  0  0  0  0  0  0
  -21.0010  -29.8190   21.6950 H   0  0  0  0  0  0  0  0  0  0  0  0
  -18.1110  -28.1000   22.9590 C   0  0  0  0  0  0  0  0  0  0  0  0
  -20.6740  -28.3470   23.1800 C   0  0  0  0  0  3  0  0  0  0  0  0
  -20.7580  -26.9130   22.6090 C   0  0  0  0  0  2  0  0  0  0  0  0
  -19.6370  -26.5940   21.6140 C   0  0  0  0  0  2  0  0  0  0  0  0
  -18.2670  -26.7480   22.2820 C   0  0  0  0  0  2  0  0  0  0  0  0
  -19.2390  -28.8580   23.3660 C   0  0  0  0  0  0  0  0  0  0  0  0
  -19.0370  -30.1200   23.9650 C   0  0  0  0  0  3  0  0  0  0  0  0
  -17.7370  -30.6260   24.1560 C   0  0  0  0  0  3  0  0  0  0  0  0
  -16.6230  -29.8680   23.7610 C   0  0  0  0  0  3  0  0  0  0  0  0
  -16.8090  -28.6050   23.1700 C   0  0  0  0  0  3  0  0  0  0  0  0
  -25.8840  -32.5920   23.7820 C   0  0  0  0  0  3  0  0  0  0  0  0
  -26.4070  -31.8550   25.0770 C   0  0  1  0  0  0  0  0  0  0  0  0
  -25.3060  -31.5960   26.1330 C   0  0  0  0  0  1  0  0  0  0  0  0
  -27.0320  -30.4900   24.7140 C   0  0  0  0  0  1  0  0  0  0  0  0
  -27.5260  -32.6910   25.7410 C   0  0  0  0  0  1  0  0  0  0  0  0
  -25.5200  -33.9820   24.1000 N   0  0  0  0  0  0  0  0  0  0  0  0
  -25.8640  -35.0530   23.3660 C   0  0  0  0  0  0  0  0  0  0  0  0
  -26.5810  -34.9720   22.3660 O   0  0  0  0  0  0  0  0  0  0  0  0
  -24.8830  -34.1160   24.8710 H   0  0  0  0  0  0  0  0  0  0  0  0
  -24.1310  -36.8260   22.9320 C   0  0  0  0  0  1  0  0  0  0  0  0
  -25.3290  -36.4290   23.8110 C   0  0  0  0  0  3  0  0  0  0  0  0
  -27.3960  -37.3340   24.7770 C   0  0  0  0  0  1  0  0  0  0  0  0
  -26.3490  -37.5010   23.7730 N   0  0  0  0  0  0  0  0  0  0  0  0
  -25.9190  -38.4110   23.9150 H   0  0  0  0  0  0  0  0  0  0  0  0
  1  2  1  0
  3  4  1  0
  4  1  2  0
  5 50  1  0
  5  6  1  0
  5  3  1  0
  6 54  1  0
  6  2  1  0
  7 11  1  0
  8  7  2  0
  8 12  1  0
 10  9  1  0
 10 14  1  0
 11  4  1  0
 11  9  2  0
 12 10  2  0
 13 12  1  0
 14 21  2  0
 15 20  1  0
 16 17  1  0
 16 15  1  0
 18 17  1  0
 18 25  1  0
 18 19  1  0
 20 14  1  0
 20 19  1  0
 22 23  2  0
 23 24  1  0
 23 42  1  0
 24 27  1  0
 25 22  1  0
 25 26  1  0
 26 24  2  0
 27 28  1  0
 28 29  2  0
 30 33  1  0
 30 29  1  0
 31 30  2  0
 32 31  1  0
 32 27  2  0
 33 34  1  0
 34 35  1  0
 35 36  2  0
 37 36  1  0
 37 41  1  0
 38 37  2  0
 39 34  2  0
 39 38  1  0
 40 39  1  0
 42 43  1  0
 43 46  1  0
 43 45  1  0
 44 42  2  0
 47 48  1  0
 47 22  1  0
 49 47  1  0
 50 51  1  0
 52 50  1  0
 53 50  1  0
 55 66  2  0
 56 54  1  0
 56 61  1  0
 57 65  1  0
 57 67  1  0
 58 64  1  0
 58 60  1  0
 59 65  1  0
 60 61  2  0
 60 59  1  0
 62 56  2  0
 63 62  1  0
 63 58  2  0
 64 57  1  0
 65 55  1  0
 67 69  2  0
 68 67  1  0
 70 68  1  0
 71 80  2  0
 71 76  1  0
 72 68  1  0
 72 76  1  0
 73 72  1  0
 74 75  1  0
 74 73  1  0
 75 71  1  0
 76 77  2  0
 77 78  1  0
 79 78  2  0
 80 79  1  0
 81 55  1  0
 81 86  1  0
 81 82  1  0
 82 85  1  1
 82 83  1  0
 84 82  1  0
 86 89  1  0
 87 91  1  0
 87 86  1  0
 88 87  2  0
 91 90  1  0
 93 91  1  0
 93 94  1  0
 93 92  1  0
M  ISO  4   6 101  10 100  14 100  54 101
M  END
>  <TORSDO>  (45) 
F 18

>  <SCORE>  (45) 
-15.028

>  <name>  (45) 
45

>  <ligand_id>  (45) 
45

>  <original_smiles>  (45) 
[H]c1c([H])c([H])c2c(c1[H])C([H])([H])C([H])([H])C([H])([H])C2([H])N([H])C(=O)C1([H])N(C(=O)C([H])(N([H])C(=O)C([H])(N([H])C([H])([H])[H])C([H])([H])[H])C(C([H])([H])[H])(C([H])([H])[H])C([H])([H])[H])C([H])([H])c2c([H])c(OC3([H])C([H])([H])C([H])([H])C([H])(c4c([H])c([H])c(C([H])([H])[H])c(C(=O)N5C([H])([H])C([H])([H])C([H])([H])C([H])(n6nc(-c7c([H])c([H])c(Oc8c([H])c([H])c(F)c([H])c8F)c([H])c7[H])c(C(=O)N([H])[H])c6N([H])[H])C5([H])[H])c4[H])C([H])([H])C3([H])[N+]([H])([H])[H])c([H])c([H])c2C1([H])[H]

>  <smiles>  (45) 
[H]c1c([H])c([H])c2c(c1[H])C([H])([H])C([H])([H])C([H])([H])C2([H])N([H])C(=O)C1([H])N(C(=O)C([H])(N([H])C(=O)C([H])(N([H])C([H])([H])[H])C([H])([H])[H])C(C([H])([H])[H])(C([H])([H])[H])C([H])([H])[H])C([H])([H])c2c([H])c(OC3([H])C([H])([H])C([H])([H])C([H])(c4c([H])c([H])c(C([H])([H])[H])c(C(=O)N5C([H])([H])C([H])([H])C([H])([H])C([H])(n6nc(-c7c([H])c([H])c(Oc8c([H])c([H])c(F)c([H])c8F)c([H])c7[H])c(C(=O)N([H])[H])c6N([H])[H])C5([H])[H])c4[H])C([H])([H])C3([H])[N+]([H])([H])[H])c([H])c([H])c2C1([H])[H]

$$$$
46:0:0
     RDKit          3D

 92100  0  0  1  0  0  0  0  0999 V2000
  -29.9520  -23.5220   19.8250 C   0  0  0  0  0  3  0  0  0  0  0  0
  -28.3800  -23.5540   21.6860 C   0  0  0  0  0  3  0  0  0  0  0  0
  -29.2670  -22.8440   20.8500 C   0  0  0  0  0  0  0  0  0  0  0  0
  -29.7090  -24.8970   19.5960 C   0  0  0  0  0  0  0  0  0  0  0  0
  -28.1280  -24.9270   21.4810 C   0  0  0  0  0  0  0  0  0  0  0  0
  -28.7380  -25.5820   20.3730 C   0  0  0  0  0  0  0  0  0  0  0  0
  -30.5490  -25.6320   18.5520 C   0  0  0  0  0  1  0  0  0  0  0  0
  -27.2590  -25.6650   22.4960 C   0  0  0  0  0  1  0  0  0  0  0  0
  -29.4430  -21.3900   21.0530 C   0  0  0  0  0  0  0  0  0  0  0  0
  -28.4900  -20.6070   21.0940 O   0  0  0  0  0  0  0  0  0  0  0  0
  -30.8840  -20.9170   21.3010 C   0  0  0  0  0  2  0  0  0  0  0  0
  -31.2490  -19.5300   20.7330 C   0  0  0  0  0  2  0  0  0  0  0  0
  -30.6220  -18.3250   21.4700 C   0  0  0  0  0  2  0  0  0  0  0  0
  -31.0820  -16.9920   20.8630 C   0  0  0  0  0  2  0  0  0  0  0  0
  -30.1610  -15.7630   21.1190 C   0  0  0  0  0  2  0  0  0  0  0  0
  -30.7680  -14.4710   20.5190 C   0  0  0  0  0  0  0  0  0  0  0  0
  -30.3870  -12.3320   19.3700 C   0  0  0  0  0  2  0  0  0  0  0  0
  -29.4730  -12.5590   18.1490 C   0  0  0  0  0  2  0  0  0  0  0  0
  -27.9940  -12.4420   18.5570 C   0  0  0  0  0  2  0  0  0  0  0  0
  -27.6530  -13.2960   19.8070 C   0  0  0  0  0  3  0  0  0  0  0  0
  -28.6910  -13.0980   20.9350 C   0  0  0  0  0  2  0  0  0  0  0  0
  -30.0310  -13.3380   20.3820 N   0  0  0  0  0  0  0  0  0  0  0  0
  -31.9050  -14.5560   20.0520 O   0  0  0  0  0  0  0  0  0  0  0  0
  -25.2440  -13.9170   20.4670 C   0  0  0  0  0  0  0  0  0  0  0  0
  -24.1690  -13.1530   20.8300 C   0  0  0  0  0  0  0  0  0  0  0  0
  -24.6270  -11.8000   20.8290 C   0  0  0  0  0  0  0  0  0  0  0  0
  -26.2920  -13.0310   20.2710 N   0  0  0  0  0  0  0  0  0  0  0  0
  -25.9230  -11.7530   20.5480 N   0  0  0  0  0  0  0  0  0  0  0  0
  -23.8940  -10.5430   21.0260 C   0  0  0  0  0  0  0  0  0  0  0  0
  -24.3210   -9.5780   21.9660 C   0  0  0  0  0  3  0  0  0  0  0  0
  -23.5880   -8.3850   22.1490 C   0  0  0  0  0  3  0  0  0  0  0  0
  -22.4150   -8.1510   21.3950 C   0  0  0  0  0  0  0  0  0  0  0  0
  -22.0130   -9.0980   20.4380 C   0  0  0  0  0  3  0  0  0  0  0  0
  -22.7450  -10.2830   20.2520 C   0  0  0  0  0  3  0  0  0  0  0  0
  -21.6530   -7.0110   21.4900 O   0  0  0  0  0  0  0  0  0  0  0  0
  -21.6130   -6.2670   22.6430 C   0  0  0  0  0  0  0  0  0  0  0  0
  -21.2160   -6.8260   23.8780 C   0  0  0  0  0  3  0  0  0  0  0  0
  -21.1190   -6.0080   25.0210 C   0  0  0  0  0  3  0  0  0  0  0  0
  -21.4070   -4.6330   24.9320 C   0  0  0  0  0  0  0  0  0  0  0  0
  -21.7960   -4.0750   23.7000 C   0  0  0  0  0  3  0  0  0  0  0  0
  -21.8940   -4.8900   22.5590 C   0  0  0  0  0  0  0  0  0  0  0  0
  -22.2480   -4.3420   21.3730 F   0  0  0  0  0  0  0  0  0  0  0  0
  -21.3060   -3.8460   26.0270 F   0  0  0  0  0  0  0  0  0  0  0  0
  -22.7660  -13.6330   21.0710 C   0  0  0  0  0  0  0  0  0  0  0  0
  -22.0270  -12.9500   21.9390 N   0  0  0  0  0  0  0  0  0  0  0  0
  -22.3370  -14.6510   20.5270 O   0  0  0  0  0  0  0  0  0  0  0  0
  -22.3910  -12.1290   22.3970 H   0  0  0  0  0  0  0  0  0  0  0  0
  -21.0840  -13.2460   22.1440 H   0  0  0  0  0  0  0  0  0  0  0  0
  -25.4150  -15.2840   20.2630 N   0  0  0  0  0  0  0  0  0  0  0  0
  -24.6460  -15.9410   20.3350 H   0  0  0  0  0  0  0  0  0  0  0  0
  -26.2740  -15.7110   19.9360 H   0  0  0  0  0  0  0  0  0  0  0  0
  -28.5060  -26.9020   20.0670 O   0  0  0  0  0  0  0  0  0  0  0  0
  -24.5570  -31.8710   23.2060 C   0  0  0  0  0  0  0  0  0  0  0  0
  -27.2670  -27.4970   20.1130 C   0  0  0  0  0  0  0  0  0  0  0  0
  -23.3540  -30.4540   21.5610 C   0  0  0  0  0  3  0  0  0  0  0  0
  -24.8200  -28.9160   20.1490 C   0  0  0  0  0  0  0  0  0  0  0  0
  -25.8660  -30.8420   21.3570 C   0  0  0  0  0  2  0  0  0  0  0  0
  -25.9650  -29.4710   20.7320 C   0  0  0  0  0  0  0  0  0  0  0  0
  -27.1800  -28.7610   20.7290 C   0  0  0  0  0  3  0  0  0  0  0  0
  -26.1130  -26.9380   19.5260 C   0  0  0  0  0  3  0  0  0  0  0  0
  -24.8840  -27.6350   19.5580 C   0  0  0  0  0  3  0  0  0  0  0  0
  -23.5620  -29.7570   20.1900 C   0  0  0  0  0  2  0  0  0  0  0  0
  -24.6090  -31.0690   22.1010 N   0  0  0  0  0  0  0  0  0  0  0  0
  -23.4810  -32.1460   23.7510 O   0  0  0  0  0  0  0  0  0  0  0  0
  -22.7120  -29.4360   22.5310 C   0  0  0  0  0  0  0  0  0  0  0  0
  -21.3850  -29.2590   22.4150 N   0  0  0  0  0  0  0  0  0  0  0  0
  -23.4010  -28.8030   23.3340 O   0  0  0  0  0  0  0  0  0  0  0  0
  -20.8850  -29.8140   21.7360 H   0  0  0  0  0  0  0  0  0  0  0  0
  -18.0140  -28.0900   22.9380 C   0  0  0  0  0  0  0  0  0  0  0  0
  -20.5780  -28.3200   23.1910 C   0  0  0  0  0  3  0  0  0  0  0  0
  -20.6660  -26.8910   22.6020 C   0  0  0  0  0  2  0  0  0  0  0  0
  -19.5530  -26.5910   21.5930 C   0  0  0  0  0  2  0  0  0  0  0  0
  -18.1760  -26.7420   22.2490 C   0  0  0  0  0  2  0  0  0  0  0  0
  -19.1460  -28.8330   23.3650 C   0  0  0  0  0  0  0  0  0  0  0  0
  -18.9470  -30.0990   23.9640 C   0  0  0  0  0  3  0  0  0  0  0  0
  -17.6510  -30.6120   24.1460 C   0  0  0  0  0  3  0  0  0  0  0  0
  -16.5330  -29.8600   23.7460 C   0  0  0  0  0  3  0  0  0  0  0  0
  -16.7170  -28.6010   23.1440 C   0  0  0  0  0  3  0  0  0  0  0  0
  -25.8480  -32.4980   23.8190 C   0  0  0  0  0  3  0  0  0  0  0  0
  -25.5430  -33.8950   24.1620 N   0  0  0  0  0  0  0  0  0  0  0  0
  -25.8640  -34.9520   23.4100 C   0  0  0  0  0  0  0  0  0  0  0  0
  -26.5200  -34.8600   22.3700 O   0  0  0  0  0  0  0  0  0  0  0  0
  -24.9700  -34.0460   24.9790 H   0  0  0  0  0  0  0  0  0  0  0  0
  -24.1190  -36.7310   23.0870 C   0  0  0  0  0  1  0  0  0  0  0  0
  -25.3720  -36.3340   23.8820 C   0  0  0  0  0  3  0  0  0  0  0  0
  -27.5090  -37.2310   24.6860 C   0  0  0  0  0  1  0  0  0  0  0  0
  -26.3930  -37.3960   23.7610 N   0  0  0  0  0  0  0  0  0  0  0  0
  -25.9810  -38.3100   23.9220 H   0  0  0  0  0  0  0  0  0  0  0  0
  -26.3890  -31.7160   25.0780 C   0  0  1  0  0  0  0  0  0  0  0  0
  -25.3090  -31.4690   26.1530 C   0  0  0  0  0  1  0  0  0  0  0  0
  -26.9690  -30.3480   24.6530 C   0  0  0  0  0  1  0  0  0  0  0  0
  -27.5430  -32.5070   25.7370 C   0  0  0  0  0  1  0  0  0  0  0  0
  1  3  1  0
  3  9  1  0
  3  2  2  0
  4  1  2  0
  4  6  1  0
  5  2  1  0
  5  8  1  0
  6  5  2  0
  7  4  1  0
  9 10  2  0
  9 11  1  0
 12 11  1  0
 12 13  1  0
 14 15  1  0
 14 13  1  0
 16 15  1  0
 17 22  1  0
 18 19  1  0
 18 17  1  0
 20 19  1  0
 20 27  1  0
 20 21  1  0
 22 16  1  0
 22 21  1  0
 23 16  2  0
 24 25  2  0
 25 44  1  0
 26 25  1  0
 26 29  1  0
 27 24  1  0
 27 28  1  0
 28 26  2  0
 29 30  1  0
 30 31  2  0
 32 35  1  0
 32 31  1  0
 33 32  2  0
 34 33  1  0
 34 29  2  0
 35 36  1  0
 36 37  1  0
 37 38  2  0
 39 38  1  0
 39 43  1  0
 40 39  2  0
 41 36  2  0
 41 40  1  0
 42 41  1  0
 44 45  1  0
 45 48  1  0
 45 47  1  0
 46 44  2  0
 49 50  1  0
 49 24  1  0
 51 49  1  0
 52 54  1  0
 52  6  1  0
 53 64  2  0
 54 59  1  0
 55 63  1  0
 55 65  1  0
 56 62  1  0
 56 58  1  0
 57 63  1  0
 58 57  1  0
 59 58  2  0
 60 61  1  0
 60 54  2  0
 61 56  2  0
 62 55  1  0
 63 53  1  0
 65 67  2  0
 66 65  1  0
 68 66  1  0
 69 78  2  0
 69 74  1  0
 70 66  1  0
 70 74  1  0
 71 70  1  0
 72 73  1  0
 72 71  1  0
 73 69  1  0
 74 75  2  0
 75 76  1  0
 77 76  2  0
 78 77  1  0
 79 53  1  0
 79 80  1  0
 79 89  1  0
 80 83  1  0
 81 85  1  0
 81 80  1  0
 82 81  2  0
 85 84  1  0
 87 85  1  0
 87 88  1  0
 87 86  1  0
 89 92  1  1
 89 90  1  0
 91 89  1  0
M  ISO  4   6 101  15 100  16 100  52 101
M  END
>  <TORSDO>  (46) 
F 22

>  <SCORE>  (46) 
-13.367

>  <name>  (46) 
46

>  <ligand_id>  (46) 
46

>  <original_smiles>  (46) 
[H]c1c([H])c([H])c2c(c1[H])C([H])([H])C([H])([H])C([H])([H])C2([H])N([H])C(=O)C1([H])N(C(=O)C([H])(N([H])C(=O)C([H])(N([H])C([H])([H])[H])C([H])([H])[H])C(C([H])([H])[H])(C([H])([H])[H])C([H])([H])[H])C([H])([H])c2c([H])c(Oc3c(C([H])([H])[H])c([H])c(C(=O)C([H])([H])C([H])([H])C([H])([H])C([H])([H])C([H])([H])C(=O)N4C([H])([H])C([H])([H])C([H])([H])C([H])(n5nc(-c6c([H])c([H])c(Oc7c([H])c([H])c(F)c([H])c7F)c([H])c6[H])c(C(=O)N([H])[H])c5N([H])[H])C4([H])[H])c([H])c3C([H])([H])[H])c([H])c([H])c2C1([H])[H]

>  <smiles>  (46) 
[H]c1c([H])c([H])c2c(c1[H])C([H])([H])C([H])([H])C([H])([H])C2([H])N([H])C(=O)C1([H])N(C(=O)C([H])(N([H])C(=O)C([H])(N([H])C([H])([H])[H])C([H])([H])[H])C(C([H])([H])[H])(C([H])([H])[H])C([H])([H])[H])C([H])([H])c2c([H])c(Oc3c(C([H])([H])[H])c([H])c(C(=O)C([H])([H])C([H])([H])C([H])([H])C([H])([H])C([H])([H])C(=O)N4C([H])([H])C([H])([H])C([H])([H])C([H])(n5nc(-c6c([H])c([H])c(Oc7c([H])c([H])c(F)c([H])c7F)c([H])c6[H])c(C(=O)N([H])[H])c5N([H])[H])C4([H])[H])c([H])c3C([H])([H])[H])c([H])c([H])c2C1([H])[H]

$$$$
47:0:0
     RDKit          3D

 91 99  0  0  1  0  0  0  0  0999 V2000
  -29.0050  -22.9710   19.4840 C   0  0  0  0  0  3  0  0  0  0  0  0
  -27.9260  -23.2520   21.6210 C   0  0  0  0  0  3  0  0  0  0  0  0
  -28.4920  -22.3740   20.6620 C   0  0  0  0  0  0  0  0  0  0  0  0
  -28.9700  -24.3850   19.2930 C   0  0  0  0  0  0  0  0  0  0  0  0
  -27.9040  -24.6620   21.4530 C   0  0  0  0  0  0  0  0  0  0  0  0
  -28.4180  -25.2620   20.2700 C   0  0  0  0  0  0  0  0  0  0  0  0
  -29.5450  -24.9710   18.0190 C   0  0  0  0  0  1  0  0  0  0  0  0
  -27.3340  -25.5090   22.5750 C   0  0  0  0  0  1  0  0  0  0  0  0
  -28.4510  -20.8740   20.9280 C   0  0  0  0  0  0  0  0  0  0  0  0
  -27.6630  -20.4130   21.7620 O   0  0  0  0  0  0  0  0  0  0  0  0
  -29.4140  -19.8700   20.2170 C   0  0  0  0  0  2  0  0  0  0  0  0
  -29.2450  -18.3680   20.6840 C   0  0  0  0  0  2  0  0  0  0  0  0
  -30.2200  -17.2670   20.1240 C   0  0  0  0  0  2  0  0  0  0  0  0
  -30.0350  -15.8500   20.7870 C   0  0  0  0  0  2  0  0  0  0  0  0
  -30.7820  -14.6300   20.1400 C   0  0  0  0  0  0  0  0  0  0  0  0
  -30.5220  -12.4540   18.9710 C   0  0  0  0  0  2  0  0  0  0  0  0
  -29.5420  -12.6700   17.7960 C   0  0  0  0  0  2  0  0  0  0  0  0
  -28.0780  -12.5200   18.2610 C   0  0  0  0  0  2  0  0  0  0  0  0
  -27.7770  -13.3230   19.5540 C   0  0  0  0  0  3  0  0  0  0  0  0
  -28.8650  -13.0760   20.6230 C   0  0  0  0  0  2  0  0  0  0  0  0
  -30.1620  -13.4190   20.0260 N   0  0  0  0  0  0  0  0  0  0  0  0
  -31.9010  -14.8210   19.6520 O   0  0  0  0  0  0  0  0  0  0  0  0
  -25.3970  -13.9240   20.3220 C   0  0  0  0  0  0  0  0  0  0  0  0
  -24.3410  -13.1500   20.7200 C   0  0  0  0  0  0  0  0  0  0  0  0
  -24.8050  -11.7990   20.6820 C   0  0  0  0  0  0  0  0  0  0  0  0
  -26.4380  -13.0460   20.0670 N   0  0  0  0  0  0  0  0  0  0  0  0
  -26.0880  -11.7630   20.3420 N   0  0  0  0  0  0  0  0  0  0  0  0
  -24.0880  -10.5350   20.8940 C   0  0  0  0  0  0  0  0  0  0  0  0
  -24.5300   -9.5860   21.8420 C   0  0  0  0  0  3  0  0  0  0  0  0
  -23.8130   -8.3870   22.0420 C   0  0  0  0  0  3  0  0  0  0  0  0
  -22.6410   -8.1280   21.2930 C   0  0  0  0  0  0  0  0  0  0  0  0
  -22.2170   -9.0650   20.3350 C   0  0  0  0  0  3  0  0  0  0  0  0
  -22.9350  -10.2580   20.1350 C   0  0  0  0  0  3  0  0  0  0  0  0
  -21.8950   -6.9790   21.3990 O   0  0  0  0  0  0  0  0  0  0  0  0
  -21.8330   -6.2680   22.5710 C   0  0  0  0  0  0  0  0  0  0  0  0
  -21.3790   -6.8510   23.7730 C   0  0  0  0  0  3  0  0  0  0  0  0
  -21.2640   -6.0650   24.9370 C   0  0  0  0  0  3  0  0  0  0  0  0
  -21.5950   -4.6980   24.9000 C   0  0  0  0  0  0  0  0  0  0  0  0
  -22.0430   -4.1150   23.7010 C   0  0  0  0  0  3  0  0  0  0  0  0
  -22.1580   -4.8970   22.5400 C   0  0  0  0  0  0  0  0  0  0  0  0
  -22.5690   -4.3250   21.3830 F   0  0  0  0  0  0  0  0  0  0  0  0
  -21.4770   -3.9400   26.0150 F   0  0  0  0  0  0  0  0  0  0  0  0
  -22.9490  -13.6230   21.0250 C   0  0  0  0  0  0  0  0  0  0  0  0
  -22.2440  -12.9300   21.9120 N   0  0  0  0  0  0  0  0  0  0  0  0
  -22.4940  -14.6440   20.5080 O   0  0  0  0  0  0  0  0  0  0  0  0
  -22.6230  -12.1020   22.3490 H   0  0  0  0  0  0  0  0  0  0  0  0
  -21.3110  -13.2320   22.1560 H   0  0  0  0  0  0  0  0  0  0  0  0
  -25.5540  -15.2940   20.1340 N   0  0  0  0  0  0  0  0  0  0  0  0
  -24.7920  -15.9500   20.2630 H   0  0  0  0  0  0  0  0  0  0  0  0
  -26.3910  -15.7280   19.7650 H   0  0  0  0  0  0  0  0  0  0  0  0
  -28.4640  -26.6530   20.0800 O   0  0  0  0  0  0  0  0  0  0  0  0
  -24.6490  -31.8600   23.1920 C   0  0  0  0  0  0  0  0  0  0  0  0
  -27.3100  -27.4280   20.0720 C   0  0  0  0  0  0  0  0  0  0  0  0
  -23.4550  -30.4780   21.5270 C   0  0  0  0  0  3  0  0  0  0  0  0
  -24.9180  -28.9620   20.0800 C   0  0  0  0  0  0  0  0  0  0  0  0
  -25.9810  -30.8390   21.3400 C   0  0  0  0  0  2  0  0  0  0  0  0
  -26.0750  -29.4720   20.6860 C   0  0  0  0  0  0  0  0  0  0  0  0
  -27.2740  -28.7110   20.6810 C   0  0  0  0  0  3  0  0  0  0  0  0
  -26.1390  -26.9510   19.4470 C   0  0  0  0  0  3  0  0  0  0  0  0
  -24.9470  -27.7020   19.4550 C   0  0  0  0  0  3  0  0  0  0  0  0
  -23.6710  -29.8190   20.1360 C   0  0  0  0  0  2  0  0  0  0  0  0
  -24.7140  -31.0760   22.0770 N   0  0  0  0  0  0  0  0  0  0  0  0
  -23.5650  -32.1150   23.7360 O   0  0  0  0  0  0  0  0  0  0  0  0
  -22.8060  -29.4400   22.4720 C   0  0  0  0  0  0  0  0  0  0  0  0
  -21.4790  -29.2680   22.3530 N   0  0  0  0  0  0  0  0  0  0  0  0
  -23.4920  -28.7930   23.2670 O   0  0  0  0  0  0  0  0  0  0  0  0
  -20.9830  -29.8440   21.6880 H   0  0  0  0  0  0  0  0  0  0  0  0
  -18.1000  -28.1030   22.8790 C   0  0  0  0  0  0  0  0  0  0  0  0
  -20.6650  -28.3170   23.1100 C   0  0  0  0  0  3  0  0  0  0  0  0
  -20.7390  -26.9050   22.4880 C   0  0  0  0  0  2  0  0  0  0  0  0
  -19.6130  -26.6300   21.4850 C   0  0  0  0  0  2  0  0  0  0  0  0
  -18.2450  -26.7730   22.1590 C   0  0  0  0  0  2  0  0  0  0  0  0
  -19.2370  -28.8350   23.3110 C   0  0  0  0  0  0  0  0  0  0  0  0
  -19.0480  -30.0830   23.9450 C   0  0  0  0  0  3  0  0  0  0  0  0
  -17.7540  -30.5960   24.1510 C   0  0  0  0  0  3  0  0  0  0  0  0
  -16.6310  -29.8600   23.7340 C   0  0  0  0  0  3  0  0  0  0  0  0
  -16.8050  -28.6160   23.1030 C   0  0  0  0  0  3  0  0  0  0  0  0
  -25.9290  -32.4890   23.8240 C   0  0  0  0  0  3  0  0  0  0  0  0
  -25.6120  -33.8810   24.1700 N   0  0  0  0  0  0  0  0  0  0  0  0
  -25.9460  -34.9440   23.4260 C   0  0  0  0  0  0  0  0  0  0  0  0
  -26.6230  -34.8570   22.3980 O   0  0  0  0  0  0  0  0  0  0  0  0
  -25.0060  -34.0210   24.9660 H   0  0  0  0  0  0  0  0  0  0  0  0
  -24.2090  -36.7330   23.0880 C   0  0  0  0  0  1  0  0  0  0  0  0
  -25.4500  -36.3250   23.8980 C   0  0  0  0  0  3  0  0  0  0  0  0
  -27.5770  -37.2100   24.7500 C   0  0  0  0  0  1  0  0  0  0  0  0
  -26.4770  -37.3840   23.8040 N   0  0  0  0  0  0  0  0  0  0  0  0
  -26.0630  -38.3000   23.9630 H   0  0  0  0  0  0  0  0  0  0  0  0
  -26.4440  -31.7030   25.0930 C   0  0  1  0  0  0  0  0  0  0  0  0
  -25.3490  -31.4560   26.1540 C   0  0  0  0  0  1  0  0  0  0  0  0
  -27.0270  -30.3300   24.6840 C   0  0  0  0  0  1  0  0  0  0  0  0
  -27.5870  -32.4930   25.7720 C   0  0  0  0  0  1  0  0  0  0  0  0
  1  3  1  0
  3  9  1  0
  3  2  2  0
  4  1  2  0
  4  6  1  0
  5  2  1  0
  5  8  1  0
  6  5  2  0
  7  4  1  0
  9 10  2  0
 11 12  1  0
 11  9  1  0
 13 12  1  0
 13 14  1  0
 15 14  1  0
 16 21  1  0
 17 18  1  0
 17 16  1  0
 19 18  1  0
 19 26  1  0
 19 20  1  0
 21 15  1  0
 21 20  1  0
 22 15  2  0
 23 24  2  0
 24 43  1  0
 25 24  1  0
 25 28  1  0
 26 23  1  0
 26 27  1  0
 27 25  2  0
 28 29  1  0
 29 30  2  0
 31 34  1  0
 31 30  1  0
 32 31  2  0
 33 32  1  0
 33 28  2  0
 34 35  1  0
 35 36  1  0
 36 37  2  0
 38 37  1  0
 38 42  1  0
 39 38  2  0
 40 35  2  0
 40 39  1  0
 41 40  1  0
 43 44  1  0
 44 47  1  0
 44 46  1  0
 45 43  2  0
 48 49  1  0
 48 23  1  0
 50 48  1  0
 51  6  1  0
 52 63  2  0
 53 51  1  0
 53 58  1  0
 54 62  1  0
 54 64  1  0
 55 61  1  0
 55 57  1  0
 56 62  1  0
 57 56  1  0
 58 57  2  0
 59 60  1  0
 59 53  2  0
 60 55  2  0
 61 54  1  0
 62 52  1  0
 64 66  2  0
 65 64  1  0
 67 65  1  0
 68 77  2  0
 68 73  1  0
 69 65  1  0
 69 73  1  0
 70 69  1  0
 71 72  1  0
 71 70  1  0
 72 68  1  0
 73 74  2  0
 74 75  1  0
 76 75  2  0
 77 76  1  0
 78 52  1  0
 78 79  1  0
 78 88  1  0
 79 82  1  0
 80 84  1  0
 80 79  1  0
 81 80  2  0
 84 83  1  0
 86 84  1  0
 86 87  1  0
 86 85  1  0
 88 91  1  1
 88 89  1  0
 90 88  1  0
M  ISO  4   6 101  14 100  15 100  51 101
M  END
>  <TORSDO>  (47) 
F 21

>  <SCORE>  (47) 
-12.173

>  <name>  (47) 
47

>  <ligand_id>  (47) 
47

>  <original_smiles>  (47) 
[H]c1c([H])c([H])c2c(c1[H])C([H])([H])C([H])([H])C([H])([H])C2([H])N([H])C(=O)C1([H])N(C(=O)C([H])(N([H])C(=O)C([H])(N([H])C([H])([H])[H])C([H])([H])[H])C(C([H])([H])[H])(C([H])([H])[H])C([H])([H])[H])C([H])([H])c2c([H])c(Oc3c(C([H])([H])[H])c([H])c(C(=O)C([H])([H])C([H])([H])C([H])([H])C([H])([H])C(=O)N4C([H])([H])C([H])([H])C([H])([H])C([H])(n5nc(-c6c([H])c([H])c(Oc7c([H])c([H])c(F)c([H])c7F)c([H])c6[H])c(C(=O)N([H])[H])c5N([H])[H])C4([H])[H])c([H])c3C([H])([H])[H])c([H])c([H])c2C1([H])[H]

>  <smiles>  (47) 
[H]c1c([H])c([H])c2c(c1[H])C([H])([H])C([H])([H])C([H])([H])C2([H])N([H])C(=O)C1([H])N(C(=O)C([H])(N([H])C(=O)C([H])(N([H])C([H])([H])[H])C([H])([H])[H])C(C([H])([H])[H])(C([H])([H])[H])C([H])([H])[H])C([H])([H])c2c([H])c(Oc3c(C([H])([H])[H])c([H])c(C(=O)C([H])([H])C([H])([H])C([H])([H])C([H])([H])C(=O)N4C([H])([H])C([H])([H])C([H])([H])C([H])(n5nc(-c6c([H])c([H])c(Oc7c([H])c([H])c(F)c([H])c7F)c([H])c6[H])c(C(=O)N([H])[H])c5N([H])[H])C4([H])[H])c([H])c3C([H])([H])[H])c([H])c([H])c2C1([H])[H]

$$$$
48:0:0
     RDKit          3D

 91100  0  0  1  0  0  0  0  0999 V2000
  -28.7900  -21.1850   20.6460 C   0  0  0  0  0  0  0  0  0  0  0  0
  -27.9700  -21.1120   21.5650 O   0  0  0  0  0  0  0  0  0  0  0  0
  -29.5680  -19.4190   18.7690 C   0  0  0  0  0  2  0  0  0  0  0  0
  -30.9790  -19.6540   20.8310 C   0  0  0  0  0  2  0  0  0  0  0  0
  -29.9100  -17.8910   18.7370 C   0  0  0  0  0  2  0  0  0  0  0  0
  -31.2920  -18.1190   20.8150 C   0  0  0  0  0  2  0  0  0  0  0  0
  -28.9620  -18.4400   20.8230 C   0  0  0  0  0  2  0  0  0  0  0  0
  -29.5400  -19.7990   20.2680 C   0  0  1  0  0  0  0  0  0  0  0  0
  -30.0280  -17.4560   20.2200 C   0  0  1  0  0  0  0  0  0  0  0  0
  -30.6450  -14.8420   20.1510 C   0  0  0  0  0  0  0  0  0  0  0  0
  -30.4320  -12.5820   19.1020 C   0  0  0  0  0  2  0  0  0  0  0  0
  -29.4570  -12.6860   17.9070 C   0  0  0  0  0  2  0  0  0  0  0  0
  -28.0000  -12.5050   18.3740 C   0  0  0  0  0  2  0  0  0  0  0  0
  -27.6640  -13.3630   19.6220 C   0  0  0  0  0  3  0  0  0  0  0  0
  -28.7540  -13.2400   20.7120 C   0  0  0  0  0  2  0  0  0  0  0  0
  -30.0340  -13.6090   20.0950 N   0  0  0  0  0  0  0  0  0  0  0  0
  -31.8060  -14.9710   19.7510 O   0  0  0  0  0  0  0  0  0  0  0  0
  -29.8560  -15.9460   20.4570 N   0  0  0  0  0  0  0  0  0  0  0  0
  -28.9380  -15.6860   20.7850 H   0  0  0  0  0  0  0  0  0  0  0  0
  -25.2920  -13.9400   20.4090 C   0  0  0  0  0  0  0  0  0  0  0  0
  -24.2400  -13.1600   20.8040 C   0  0  0  0  0  0  0  0  0  0  0  0
  -24.7080  -11.8120   20.7570 C   0  0  0  0  0  0  0  0  0  0  0  0
  -26.3330  -13.0670   20.1440 N   0  0  0  0  0  0  0  0  0  0  0  0
  -25.9910  -11.7810   20.4160 N   0  0  0  0  0  0  0  0  0  0  0  0
  -23.9930  -10.5450   20.9620 C   0  0  0  0  0  0  0  0  0  0  0  0
  -24.4410   -9.5850   21.8950 C   0  0  0  0  0  3  0  0  0  0  0  0
  -23.7240   -8.3840   22.0870 C   0  0  0  0  0  3  0  0  0  0  0  0
  -22.5450   -8.1340   21.3460 C   0  0  0  0  0  0  0  0  0  0  0  0
  -22.1170   -9.0830   20.4010 C   0  0  0  0  0  3  0  0  0  0  0  0
  -22.8340  -10.2750   20.2070 C   0  0  0  0  0  3  0  0  0  0  0  0
  -21.8000   -6.9850   21.4470 O   0  0  0  0  0  0  0  0  0  0  0  0
  -21.7560   -6.2540   22.6070 C   0  0  0  0  0  0  0  0  0  0  0  0
  -21.3080   -6.8150   23.8230 C   0  0  0  0  0  3  0  0  0  0  0  0
  -21.2130   -6.0100   24.9760 C   0  0  0  0  0  3  0  0  0  0  0  0
  -21.5560   -4.6460   24.9150 C   0  0  0  0  0  0  0  0  0  0  0  0
  -21.9990   -4.0850   23.7030 C   0  0  0  0  0  3  0  0  0  0  0  0
  -22.0950   -4.8870   22.5520 C   0  0  0  0  0  0  0  0  0  0  0  0
  -22.5020   -4.3380   21.3830 F   0  0  0  0  0  0  0  0  0  0  0  0
  -21.4590   -3.8710   26.0200 F   0  0  0  0  0  0  0  0  0  0  0  0
  -22.8470  -13.6300   21.1100 C   0  0  0  0  0  0  0  0  0  0  0  0
  -22.1410  -12.9260   21.9880 N   0  0  0  0  0  0  0  0  0  0  0  0
  -22.3930  -14.6570   20.6070 O   0  0  0  0  0  0  0  0  0  0  0  0
  -22.5230  -12.0950   22.4180 H   0  0  0  0  0  0  0  0  0  0  0  0
  -21.2080  -13.2220   22.2360 H   0  0  0  0  0  0  0  0  0  0  0  0
  -25.4430  -15.3130   20.2300 N   0  0  0  0  0  0  0  0  0  0  0  0
  -24.6710  -15.9570   20.3550 H   0  0  0  0  0  0  0  0  0  0  0  0
  -26.2680  -15.7560   19.8470 H   0  0  0  0  0  0  0  0  0  0  0  0
  -29.0210  -22.5560   19.9670 C   0  0  0  0  0  3  0  0  0  0  0  0
  -28.3920  -23.7620   20.2770 C   0  0  0  0  0  3  0  0  0  0  0  0
  -28.5110  -25.1640   19.5270 C   0  0  0  0  0  2  0  0  0  0  0  0
  -28.3750  -26.4810   20.2410 O   0  0  0  0  0  0  0  0  0  0  0  0
  -24.6140  -31.9100   23.2290 C   0  0  0  0  0  0  0  0  0  0  0  0
  -27.2490  -27.3360   20.1540 C   0  0  0  0  0  0  0  0  0  0  0  0
  -23.4200  -30.5150   21.5810 C   0  0  0  0  0  3  0  0  0  0  0  0
  -24.8790  -28.9720   20.1460 C   0  0  0  0  0  0  0  0  0  0  0  0
  -25.9610  -30.8320   21.4070 C   0  0  0  0  0  2  0  0  0  0  0  0
  -26.0460  -29.4540   20.7500 C   0  0  0  0  0  0  0  0  0  0  0  0
  -27.2280  -28.6470   20.7450 C   0  0  0  0  0  3  0  0  0  0  0  0
  -26.0500  -26.9150   19.5340 C   0  0  0  0  0  3  0  0  0  0  0  0
  -24.8870  -27.7120   19.5290 C   0  0  0  0  0  3  0  0  0  0  0  0
  -23.6390  -29.8450   20.1980 C   0  0  0  0  0  2  0  0  0  0  0  0
  -24.6840  -31.1050   22.1290 N   0  0  0  0  0  0  0  0  0  0  0  0
  -23.5280  -32.1820   23.7630 O   0  0  0  0  0  0  0  0  0  0  0  0
  -22.7570  -29.4930   22.5370 C   0  0  0  0  0  0  0  0  0  0  0  0
  -21.4310  -29.3180   22.4140 N   0  0  0  0  0  0  0  0  0  0  0  0
  -23.4380  -28.8610   23.3500 O   0  0  0  0  0  0  0  0  0  0  0  0
  -20.9400  -29.8790   21.7320 H   0  0  0  0  0  0  0  0  0  0  0  0
  -18.0520  -28.1250   22.9260 C   0  0  0  0  0  0  0  0  0  0  0  0
  -20.6130  -28.3750   23.1800 C   0  0  0  0  0  3  0  0  0  0  0  0
  -20.7070  -26.9490   22.5890 C   0  0  0  0  0  2  0  0  0  0  0  0
  -19.5970  -26.6410   21.5780 C   0  0  0  0  0  2  0  0  0  0  0  0
  -18.2200  -26.7830   22.2330 C   0  0  0  0  0  2  0  0  0  0  0  0
  -19.1760  -28.8790   23.3560 C   0  0  0  0  0  0  0  0  0  0  0  0
  -18.9650  -30.1360   23.9640 C   0  0  0  0  0  3  0  0  0  0  0  0
  -17.6620  -30.6380   24.1460 C   0  0  0  0  0  3  0  0  0  0  0  0
  -16.5540  -29.8800   23.7310 C   0  0  0  0  0  3  0  0  0  0  0  0
  -16.7490  -28.6260   23.1270 C   0  0  0  0  0  3  0  0  0  0  0  0
  -25.8910  -32.5480   23.8570 C   0  0  0  0  0  3  0  0  0  0  0  0
  -26.3990  -31.7830   25.1420 C   0  0  1  0  0  0  0  0  0  0  0  0
  -25.2990  -31.5490   26.2030 C   0  0  0  0  0  1  0  0  0  0  0  0
  -26.9870  -30.4040   24.7620 C   0  0  0  0  0  1  0  0  0  0  0  0
  -27.5440  -32.5820   25.8090 C   0  0  0  0  0  1  0  0  0  0  0  0
  -25.5770  -33.9480   24.1830 N   0  0  0  0  0  0  0  0  0  0  0  0
  -25.9110  -35.0000   23.4250 C   0  0  0  0  0  0  0  0  0  0  0  0
  -26.5830  -34.8950   22.3950 O   0  0  0  0  0  0  0  0  0  0  0  0
  -24.9790  -34.1020   24.9810 H   0  0  0  0  0  0  0  0  0  0  0  0
  -24.1860  -36.7960   23.0590 C   0  0  0  0  0  1  0  0  0  0  0  0
  -25.4210  -36.3890   23.8780 C   0  0  0  0  0  3  0  0  0  0  0  0
  -27.5480  -37.2760   24.7280 C   0  0  0  0  0  1  0  0  0  0  0  0
  -26.4560  -37.4410   23.7720 N   0  0  0  0  0  0  0  0  0  0  0  0
  -26.0490  -38.3630   23.9110 H   0  0  0  0  0  0  0  0  0  0  0  0
  1  2  2  0
  3  8  1  0
  5  3  1  0
  5  9  1  0
  6  4  1  0
  8  1  1  6
  8  7  1  0
  8  4  1  0
  9 18  1  6
  9  6  1  0
  9  7  1  0
 10 18  1  0
 11 16  1  0
 12 13  1  0
 12 11  1  0
 14 13  1  0
 14 23  1  0
 14 15  1  0
 16 10  1  0
 16 15  1  0
 17 10  2  0
 18 19  1  0
 20 21  2  0
 21 40  1  0
 22 21  1  0
 22 25  1  0
 23 20  1  0
 23 24  1  0
 24 22  2  0
 25 26  1  0
 26 27  2  0
 28 31  1  0
 28 27  1  0
 29 28  2  0
 30 29  1  0
 30 25  2  0
 31 32  1  0
 32 33  1  0
 33 34  2  0
 35 34  1  0
 35 39  1  0
 36 35  2  0
 37 32  2  0
 37 36  1  0
 38 37  1  0
 40 41  1  0
 41 44  1  0
 41 43  1  0
 42 40  2  0
 45 46  1  0
 45 20  1  0
 47 45  1  0
 48 49  2  0
 48  1  1  0
 50 51  1  0
 50 49  1  0
 52 63  2  0
 53 51  1  0
 53 58  1  0
 54 62  1  0
 54 64  1  0
 55 61  1  0
 55 57  1  0
 56 62  1  0
 57 56  1  0
 58 57  2  0
 59 53  2  0
 60 59  1  0
 60 55  2  0
 61 54  1  0
 62 52  1  0
 64 66  2  0
 65 64  1  0
 67 65  1  0
 68 77  2  0
 68 73  1  0
 69 65  1  0
 69 73  1  0
 70 69  1  0
 71 72  1  0
 71 70  1  0
 72 68  1  0
 73 74  2  0
 74 75  1  0
 76 75  2  0
 77 76  1  0
 78 52  1  0
 78 83  1  0
 78 79  1  0
 79 82  1  1
 79 80  1  0
 81 79  1  0
 83 86  1  0
 84 88  1  0
 84 83  1  0
 85 84  2  0
 88 87  1  0
 90 88  1  0
 90 91  1  0
 90 89  1  0
M  ISO  4  10 100  18 100  50 101  51 101
M  END
>  <TORSDO>  (48) 
F 19

>  <SCORE>  (48) 
-14.145

>  <name>  (48) 
48

>  <ligand_id>  (48) 
48

>  <original_smiles>  (48) 
[H]C(C(=O)C12C([H])([H])C([H])([H])C(N([H])C(=O)N3C([H])([H])C([H])([H])C([H])([H])C([H])(n4nc(-c5c([H])c([H])c(Oc6c([H])c([H])c(F)c([H])c6F)c([H])c5[H])c(C(=O)N([H])[H])c4N([H])[H])C3([H])[H])(C([H])([H])C1([H])[H])C2([H])[H])=C([H])C([H])([H])Oc1c([H])c([H])c2c(c1[H])C([H])([H])N(C(=O)C([H])(N([H])C(=O)C([H])(N([H])C([H])([H])[H])C([H])([H])[H])C(C([H])([H])[H])(C([H])([H])[H])C([H])([H])[H])C([H])(C(=O)N([H])C1([H])c3c([H])c([H])c([H])c([H])c3C([H])([H])C([H])([H])C1([H])[H])C2([H])[H]

>  <smiles>  (48) 
[H]C(C(=O)C12C([H])([H])C([H])([H])C(N([H])C(=O)N3C([H])([H])C([H])([H])C([H])([H])C([H])(n4nc(-c5c([H])c([H])c(Oc6c([H])c([H])c(F)c([H])c6F)c([H])c5[H])c(C(=O)N([H])[H])c4N([H])[H])C3([H])[H])(C([H])([H])C1([H])[H])C2([H])[H])=C([H])C([H])([H])Oc1c([H])c([H])c2c(c1[H])C([H])([H])N(C(=O)C([H])(N([H])C(=O)C([H])(N([H])C([H])([H])[H])C([H])([H])[H])C(C([H])([H])[H])(C([H])([H])[H])C([H])([H])[H])C([H])(C(=O)N([H])C1([H])c3c([H])c([H])c([H])c([H])c3C([H])([H])C([H])([H])C1([H])[H])C2([H])[H]

$$$$
49:0:0
     RDKit          3D

 91100  0  0  1  0  0  0  0  0999 V2000
  -30.6730  -22.9890   22.1930 C   0  0  0  0  0  3  0  0  0  0  0  0
  -30.5880  -21.6400   21.7880 C   0  0  0  0  0  3  0  0  0  0  0  0
  -29.9130  -24.0040   21.5730 C   0  0  0  0  0  3  0  0  0  0  0  0
  -28.9770  -22.3010   20.1010 C   0  0  0  0  0  3  0  0  0  0  0  0
  -29.7460  -21.2240   20.7320 C   0  0  0  0  0  0  0  0  0  0  0  0
  -29.0330  -23.7120   20.5150 C   0  0  0  0  0  0  0  0  0  0  0  0
  -29.5790  -18.7440   21.4100 C   0  0  0  0  0  3  0  0  0  0  0  0
  -29.7840  -19.6810   20.4340 C   0  0  0  0  0  0  0  0  0  0  0  0
  -29.7750  -17.1770   21.3480 C   0  0  0  0  0  2  0  0  0  0  0  0
  -30.3470  -19.0780   19.1330 C   0  0  0  0  0  2  0  0  0  0  0  0
  -30.8920  -17.5770   19.2160 C   0  0  0  0  0  2  0  0  0  0  0  0
  -30.0020  -16.4910   19.9430 C   0  0  2  0  0  0  0  0  0  0  0  0
  -28.6630  -16.4980   19.1930 C   0  0  0  0  0  1  0  0  0  0  0  0
  -30.6760  -14.9690   19.9130 C   0  0  0  0  0  0  0  0  0  0  0  0
  -30.4300  -12.6330   19.0090 C   0  0  0  0  0  2  0  0  0  0  0  0
  -29.4300  -12.5880   17.8330 C   0  0  0  0  0  2  0  0  0  0  0  0
  -28.0070  -12.3300   18.3590 C   0  0  0  0  0  2  0  0  0  0  0  0
  -27.6400  -13.2770   19.5220 C   0  0  0  0  0  3  0  0  0  0  0  0
  -28.7630  -13.3800   20.5840 C   0  0  0  0  0  2  0  0  0  0  0  0
  -30.0190  -13.7430   19.9130 N   0  0  0  0  0  0  0  0  0  0  0  0
  -31.8760  -14.9370   19.6300 O   0  0  0  0  0  0  0  0  0  0  0  0
  -25.3240  -13.8680   20.4480 C   0  0  0  0  0  0  0  0  0  0  0  0
  -24.2820  -13.0920   20.8670 C   0  0  0  0  0  0  0  0  0  0  0  0
  -24.7370  -11.7400   20.7700 C   0  0  0  0  0  0  0  0  0  0  0  0
  -26.3420  -12.9880   20.1130 N   0  0  0  0  0  0  0  0  0  0  0  0
  -26.0040  -11.7020   20.3760 N   0  0  0  0  0  0  0  0  0  0  0  0
  -24.0180  -10.4800   20.9670 C   0  0  0  0  0  0  0  0  0  0  0  0
  -24.4710   -9.5070   21.8830 C   0  0  0  0  0  3  0  0  0  0  0  0
  -23.7520   -8.3060   22.0670 C   0  0  0  0  0  3  0  0  0  0  0  0
  -22.5660   -8.0700   21.3330 C   0  0  0  0  0  0  0  0  0  0  0  0
  -22.1310   -9.0350   20.4070 C   0  0  0  0  0  3  0  0  0  0  0  0
  -22.8500  -10.2240   20.2210 C   0  0  0  0  0  3  0  0  0  0  0  0
  -21.8180   -6.9230   21.4270 O   0  0  0  0  0  0  0  0  0  0  0  0
  -21.7500   -6.2040   22.5950 C   0  0  0  0  0  0  0  0  0  0  0  0
  -21.3010   -6.7840   23.8020 C   0  0  0  0  0  3  0  0  0  0  0  0
  -21.1800   -5.9910   24.9590 C   0  0  0  0  0  3  0  0  0  0  0  0
  -21.4990   -4.6210   24.9120 C   0  0  0  0  0  0  0  0  0  0  0  0
  -21.9440   -4.0420   23.7110 C   0  0  0  0  0  3  0  0  0  0  0  0
  -22.0660   -4.8310   22.5550 C   0  0  0  0  0  0  0  0  0  0  0  0
  -22.4730   -4.2650   21.3930 F   0  0  0  0  0  0  0  0  0  0  0  0
  -21.3740   -3.8560   26.0220 F   0  0  0  0  0  0  0  0  0  0  0  0
  -22.9090  -13.5680   21.2380 C   0  0  0  0  0  0  0  0  0  0  0  0
  -22.2300  -12.8560   22.1290 N   0  0  0  0  0  0  0  0  0  0  0  0
  -22.4460  -14.6100   20.7730 O   0  0  0  0  0  0  0  0  0  0  0  0
  -22.6140  -12.0090   22.5240 H   0  0  0  0  0  0  0  0  0  0  0  0
  -21.3100  -13.1590   22.4160 H   0  0  0  0  0  0  0  0  0  0  0  0
  -25.4710  -15.2440   20.2950 N   0  0  0  0  0  0  0  0  0  0  0  0
  -24.7080  -15.8860   20.4770 H   0  0  0  0  0  0  0  0  0  0  0  0
  -26.2890  -15.6950   19.9100 H   0  0  0  0  0  0  0  0  0  0  0  0
  -28.1130  -24.9040   19.9490 C   0  0  0  0  0  2  0  0  0  0  0  0
  -28.3410  -26.3730   20.2740 O   0  0  0  0  0  0  0  0  0  0  0  0
  -24.6490  -31.8720   23.3000 C   0  0  0  0  0  0  0  0  0  0  0  0
  -27.2570  -27.2960   20.1890 C   0  0  0  0  0  0  0  0  0  0  0  0
  -23.4490  -30.5050   21.6310 C   0  0  0  0  0  3  0  0  0  0  0  0
  -24.9040  -28.9700   20.1790 C   0  0  0  0  0  0  0  0  0  0  0  0
  -25.9940  -30.8030   21.4660 C   0  0  0  0  0  2  0  0  0  0  0  0
  -26.0740  -29.4290   20.7960 C   0  0  0  0  0  0  0  0  0  0  0  0
  -27.2500  -28.6050   20.7900 C   0  0  0  0  0  3  0  0  0  0  0  0
  -26.0650  -26.9220   19.5240 C   0  0  0  0  0  3  0  0  0  0  0  0
  -24.9070  -27.7270   19.5290 C   0  0  0  0  0  3  0  0  0  0  0  0
  -23.6690  -29.8520   20.2410 C   0  0  0  0  0  2  0  0  0  0  0  0
  -24.7160  -31.0780   22.1890 N   0  0  0  0  0  0  0  0  0  0  0  0
  -23.5660  -32.1450   23.8350 O   0  0  0  0  0  0  0  0  0  0  0  0
  -22.7750  -29.4780   22.5740 C   0  0  0  0  0  0  0  0  0  0  0  0
  -21.4480  -29.3060   22.4420 N   0  0  0  0  0  0  0  0  0  0  0  0
  -23.4490  -28.8380   23.3870 O   0  0  0  0  0  0  0  0  0  0  0  0
  -20.9610  -29.8740   21.7640 H   0  0  0  0  0  0  0  0  0  0  0  0
  -18.0710  -28.0950   22.9190 C   0  0  0  0  0  0  0  0  0  0  0  0
  -20.6280  -28.3550   23.1970 C   0  0  0  0  0  3  0  0  0  0  0  0
  -20.7340  -26.9310   22.6030 C   0  0  0  0  0  2  0  0  0  0  0  0
  -19.6360  -26.6230   21.5800 C   0  0  0  0  0  2  0  0  0  0  0  0
  -18.2520  -26.7560   22.2220 C   0  0  0  0  0  2  0  0  0  0  0  0
  -19.1870  -28.8530   23.3630 C   0  0  0  0  0  0  0  0  0  0  0  0
  -18.9650  -30.1050   23.9750 C   0  0  0  0  0  3  0  0  0  0  0  0
  -17.6600  -30.6020   24.1440 C   0  0  0  0  0  3  0  0  0  0  0  0
  -16.5570  -29.8420   23.7160 C   0  0  0  0  0  3  0  0  0  0  0  0
  -16.7640  -28.5890   23.1100 C   0  0  0  0  0  3  0  0  0  0  0  0
  -25.9300  -32.4960   23.9340 C   0  0  0  0  0  3  0  0  0  0  0  0
  -25.6350  -33.9020   24.2500 N   0  0  0  0  0  0  0  0  0  0  0  0
  -25.9720  -34.9450   23.4790 C   0  0  0  0  0  0  0  0  0  0  0  0
  -26.6340  -34.8250   22.4450 O   0  0  0  0  0  0  0  0  0  0  0  0
  -25.0490  -34.0710   25.0550 H   0  0  0  0  0  0  0  0  0  0  0  0
  -24.2490  -36.7450   23.1340 C   0  0  0  0  0  1  0  0  0  0  0  0
  -25.5030  -36.3430   23.9260 C   0  0  0  0  0  3  0  0  0  0  0  0
  -27.6560  -37.2310   24.7060 C   0  0  0  0  0  1  0  0  0  0  0  0
  -26.5390  -37.3880   23.7780 N   0  0  0  0  0  0  0  0  0  0  0  0
  -26.1410  -38.3120   23.9160 H   0  0  0  0  0  0  0  0  0  0  0  0
  -26.4190  -31.7310   25.2250 C   0  0  1  0  0  0  0  0  0  0  0  0
  -25.3080  -31.5180   26.2790 C   0  0  0  0  0  1  0  0  0  0  0  0
  -26.9900  -30.3410   24.8570 C   0  0  0  0  0  1  0  0  0  0  0  0
  -27.5690  -32.5170   25.8980 C   0  0  0  0  0  1  0  0  0  0  0  0
  2  1  1  0
  3  1  2  0
  4  6  2  0
  4  5  1  0
  5  2  2  0
  6  3  1  0
  8  5  1  0
  8  7  2  0
  9  7  1  0
 10 11  1  0
 10  8  1  0
 11 12  1  0
 12 13  1  6
 12  9  1  0
 14 12  1  0
 15 20  1  0
 16 17  1  0
 16 15  1  0
 18 17  1  0
 18 25  1  0
 18 19  1  0
 20 14  1  0
 20 19  1  0
 21 14  2  0
 22 23  2  0
 23 42  1  0
 24 23  1  0
 24 27  1  0
 25 26  1  0
 25 22  1  0
 26 24  2  0
 27 28  1  0
 28 29  2  0
 30 33  1  0
 30 29  1  0
 31 30  2  0
 32 31  1  0
 32 27  2  0
 33 34  1  0
 34 35  1  0
 35 36  2  0
 37 36  1  0
 37 41  1  0
 38 37  2  0
 39 34  2  0
 39 38  1  0
 40 39  1  0
 42 43  1  0
 43 46  1  0
 43 45  1  0
 44 42  2  0
 47 22  1  0
 47 48  1  0
 49 47  1  0
 50 51  1  0
 50  6  1  0
 52 63  2  0
 53 51  1  0
 53 58  1  0
 54 62  1  0
 54 64  1  0
 55 61  1  0
 55 57  1  0
 56 62  1  0
 57 56  1  0
 58 57  2  0
 59 60  1  0
 59 53  2  0
 60 55  2  0
 61 54  1  0
 62 52  1  0
 64 66  2  0
 65 64  1  0
 67 65  1  0
 68 77  2  0
 68 73  1  0
 69 65  1  0
 69 73  1  0
 70 69  1  0
 71 72  1  0
 71 70  1  0
 72 68  1  0
 73 74  2  0
 74 75  1  0
 76 75  2  0
 77 76  1  0
 78 52  1  0
 78 79  1  0
 78 88  1  0
 79 82  1  0
 80 84  1  0
 80 79  1  0
 81 80  2  0
 84 83  1  0
 86 87  1  0
 86 84  1  0
 86 85  1  0
 88 91  1  1
 88 89  1  0
 90 88  1  0
M  ISO  4  12 100  14 100  50 101  51 101
M  END
>  <TORSDO>  (49) 
F 18

>  <SCORE>  (49) 
-14.413

>  <name>  (49) 
49

>  <ligand_id>  (49) 
49

>  <original_smiles>  (49) 
[H]C1=C(c2c([H])c([H])c([H])c(C([H])([H])Oc3c([H])c([H])c4c(c3[H])C([H])([H])N(C(=O)C([H])(N([H])C(=O)C([H])(N([H])C([H])([H])[H])C([H])([H])[H])C(C([H])([H])[H])(C([H])([H])[H])C([H])([H])[H])C([H])(C(=O)N([H])C3([H])c5c([H])c([H])c([H])c([H])c5C([H])([H])C([H])([H])C3([H])[H])C4([H])[H])c2[H])C([H])([H])C([H])([H])C(C(=O)N2C([H])([H])C([H])([H])C([H])([H])C([H])(n3nc(-c4c([H])c([H])c(Oc5c([H])c([H])c(F)c([H])c5F)c([H])c4[H])c(C(=O)N([H])[H])c3N([H])[H])C2([H])[H])(C([H])([H])[H])C1([H])[H]

>  <smiles>  (49) 
[H]C1=C(c2c([H])c([H])c([H])c(C([H])([H])Oc3c([H])c([H])c4c(c3[H])C([H])([H])N(C(=O)C([H])(N([H])C(=O)C([H])(N([H])C([H])([H])[H])C([H])([H])[H])C(C([H])([H])[H])(C([H])([H])[H])C([H])([H])[H])C([H])(C(=O)N([H])C3([H])c5c([H])c([H])c([H])c([H])c5C([H])([H])C([H])([H])C3([H])[H])C4([H])[H])c2[H])C([H])([H])C([H])([H])C(C(=O)N2C([H])([H])C([H])([H])C([H])([H])C([H])(n3nc(-c4c([H])c([H])c(Oc5c([H])c([H])c(F)c([H])c5F)c([H])c4[H])c(C(=O)N([H])[H])c3N([H])[H])C2([H])[H])(C([H])([H])[H])C1([H])[H]

$$$$
50:0:0
     RDKit          3D

 91100  0  0  1  0  0  0  0  0999 V2000
  -28.0250  -24.0840   22.5030 C   0  0  0  0  0  0  0  0  0  0  0  0
  -27.0680  -24.5990   21.4290 C   0  0  0  0  0  2  0  0  0  0  0  0
  -28.6970  -22.9840   20.5890 C   0  0  0  0  0  3  0  0  0  0  0  0
  -27.8790  -24.5040   20.0950 C   0  0  0  0  0  3  0  0  0  0  0  0
  -28.9170  -23.2370   21.9950 N   0  0  0  0  0  0  0  0  0  0  0  0
  -27.9610  -24.4180   23.6860 O   0  0  0  0  0  0  0  0  0  0  0  0
  -29.6460  -22.7830   22.5270 H   0  0  0  0  0  0  0  0  0  0  0  0
  -30.4580  -20.9130   19.6520 C   0  0  0  0  0  3  0  0  0  0  0  0
  -30.7430  -19.4320   19.6390 C   0  0  0  0  0  0  0  0  0  0  0  0
  -29.2490  -21.4100   20.1550 C   0  0  0  0  0  0  0  0  0  0  0  0
  -29.7750  -18.5440   20.1260 C   0  0  0  0  0  0  0  0  0  0  0  0
  -32.0540  -18.9070   19.1420 C   0  0  0  0  0  1  0  0  0  0  0  0
  -28.4550  -19.7830   20.5750 S   0  0  0  0  0  0  0  0  0  0  0  0
  -29.6510  -16.8340   20.3380 C   0  0  0  0  0  2  0  0  0  0  0  0
  -30.5740  -15.4080   20.0000 C   0  0  0  0  0  0  0  0  0  0  0  0
  -30.5860  -12.9730   19.1220 C   0  0  0  0  0  2  0  0  0  0  0  0
  -29.6190  -12.8140   17.9200 C   0  0  0  0  0  2  0  0  0  0  0  0
  -28.1790  -12.5460   18.3930 C   0  0  0  0  0  2  0  0  0  0  0  0
  -27.7660  -13.4870   19.5510 C   0  0  0  0  0  3  0  0  0  0  0  0
  -28.8500  -13.5910   20.6440 C   0  0  0  0  0  2  0  0  0  0  0  0
  -30.0800  -14.0800   20.0020 N   0  0  0  0  0  0  0  0  0  0  0  0
  -31.7610  -15.4870   19.6450 O   0  0  0  0  0  0  0  0  0  0  0  0
  -25.4220  -14.0330   20.4110 C   0  0  0  0  0  0  0  0  0  0  0  0
  -24.3750  -13.2480   20.8050 C   0  0  0  0  0  0  0  0  0  0  0  0
  -24.8380  -11.8980   20.7200 C   0  0  0  0  0  0  0  0  0  0  0  0
  -26.4530  -13.1630   20.1010 N   0  0  0  0  0  0  0  0  0  0  0  0
  -26.1160  -11.8710   20.3540 N   0  0  0  0  0  0  0  0  0  0  0  0
  -24.1160  -10.6320   20.9090 C   0  0  0  0  0  0  0  0  0  0  0  0
  -24.5080   -9.6980   21.8950 C   0  0  0  0  0  3  0  0  0  0  0  0
  -23.7840   -8.4980   22.0710 C   0  0  0  0  0  3  0  0  0  0  0  0
  -22.6550   -8.2250   21.2620 C   0  0  0  0  0  0  0  0  0  0  0  0
  -22.2840   -9.1480   20.2690 C   0  0  0  0  0  3  0  0  0  0  0  0
  -23.0080  -10.3400   20.0920 C   0  0  0  0  0  3  0  0  0  0  0  0
  -21.9080   -7.0750   21.3440 O   0  0  0  0  0  0  0  0  0  0  0  0
  -21.7120   -6.4260   22.5360 C   0  0  0  0  0  0  0  0  0  0  0  0
  -21.0850   -7.0570   23.6320 C   0  0  0  0  0  3  0  0  0  0  0  0
  -20.8400   -6.3330   24.8170 C   0  0  0  0  0  3  0  0  0  0  0  0
  -21.2140   -4.9780   24.9040 C   0  0  0  0  0  0  0  0  0  0  0  0
  -21.8330   -4.3470   23.8110 C   0  0  0  0  0  3  0  0  0  0  0  0
  -22.0790   -5.0690   22.6300 C   0  0  0  0  0  0  0  0  0  0  0  0
  -22.6570   -4.4490   21.5730 F   0  0  0  0  0  0  0  0  0  0  0  0
  -20.9720   -4.2800   26.0380 F   0  0  0  0  0  0  0  0  0  0  0  0
  -22.9900  -13.7190   21.1420 C   0  0  0  0  0  0  0  0  0  0  0  0
  -22.2940  -13.0030   22.0160 N   0  0  0  0  0  0  0  0  0  0  0  0
  -22.5370  -14.7590   20.6640 O   0  0  0  0  0  0  0  0  0  0  0  0
  -22.6740  -12.1630   22.4270 H   0  0  0  0  0  0  0  0  0  0  0  0
  -21.3660  -13.3010   22.2800 H   0  0  0  0  0  0  0  0  0  0  0  0
  -25.5740  -15.4090   20.2630 N   0  0  0  0  0  0  0  0  0  0  0  0
  -24.8050  -16.0500   20.4270 H   0  0  0  0  0  0  0  0  0  0  0  0
  -26.4010  -15.8700   19.9060 H   0  0  0  0  0  0  0  0  0  0  0  0
  -28.2100  -26.0980   19.9710 O   0  0  0  0  0  0  0  0  0  0  0  0
  -24.5510  -31.8270   23.1250 C   0  0  0  0  0  0  0  0  0  0  0  0
  -27.1860  -27.1700   19.9160 C   0  0  0  0  0  0  0  0  0  0  0  0
  -23.3650  -30.4520   21.4610 C   0  0  0  0  0  3  0  0  0  0  0  0
  -24.8340  -28.9470   19.9630 C   0  0  0  0  0  0  0  0  0  0  0  0
  -25.9200  -30.7530   21.2800 C   0  0  0  0  0  2  0  0  0  0  0  0
  -26.0180  -29.3750   20.5770 C   0  0  0  0  0  0  0  0  0  0  0  0
  -27.1900  -28.5060   20.5340 C   0  0  0  0  0  3  0  0  0  0  0  0
  -25.9730  -26.8860   19.2490 C   0  0  0  0  0  3  0  0  0  0  0  0
  -24.8330  -27.7230   19.2780 C   0  0  0  0  0  3  0  0  0  0  0  0
  -23.5890  -29.8230   20.0590 C   0  0  0  0  0  2  0  0  0  0  0  0
  -24.6330  -31.0350   22.0090 N   0  0  0  0  0  0  0  0  0  0  0  0
  -23.4640  -32.0720   23.6720 O   0  0  0  0  0  0  0  0  0  0  0  0
  -22.7170  -29.4060   22.4050 C   0  0  0  0  0  0  0  0  0  0  0  0
  -21.3950  -29.1870   22.2730 N   0  0  0  0  0  0  0  0  0  0  0  0
  -23.4070  -28.7930   23.2220 O   0  0  0  0  0  0  0  0  0  0  0  0
  -20.8880  -29.7360   21.5920 H   0  0  0  0  0  0  0  0  0  0  0  0
  -18.0670  -27.8170   22.7300 C   0  0  0  0  0  0  0  0  0  0  0  0
  -20.6090  -28.2020   23.0230 C   0  0  0  0  0  3  0  0  0  0  0  0
  -20.7840  -26.7840   22.4340 C   0  0  0  0  0  2  0  0  0  0  0  0
  -19.7100  -26.4200   21.4050 C   0  0  0  0  0  2  0  0  0  0  0  0
  -18.3160  -26.4890   22.0370 C   0  0  0  0  0  2  0  0  0  0  0  0
  -19.1430  -28.6290   23.1790 C   0  0  0  0  0  0  0  0  0  0  0  0
  -18.8550  -29.8680   23.7900 C   0  0  0  0  0  3  0  0  0  0  0  0
  -17.5250  -30.2990   23.9560 C   0  0  0  0  0  3  0  0  0  0  0  0
  -16.4640  -29.4860   23.5200 C   0  0  0  0  0  3  0  0  0  0  0  0
  -16.7350  -28.2470   22.9140 C   0  0  0  0  0  3  0  0  0  0  0  0
  -25.8170  -32.4800   23.7580 C   0  0  0  0  0  3  0  0  0  0  0  0
  -25.4770  -33.8660   24.1220 N   0  0  0  0  0  0  0  0  0  0  0  0
  -25.7740  -34.9470   23.3880 C   0  0  0  0  0  0  0  0  0  0  0  0
  -26.4260  -34.8830   22.3430 O   0  0  0  0  0  0  0  0  0  0  0  0
  -24.8920  -33.9860   24.9360 H   0  0  0  0  0  0  0  0  0  0  0  0
  -23.9990  -36.7140   23.1240 C   0  0  0  0  0  1  0  0  0  0  0  0
  -25.2700  -36.3150   23.8920 C   0  0  0  0  0  3  0  0  0  0  0  0
  -27.4000  -37.2360   24.6940 C   0  0  0  0  0  1  0  0  0  0  0  0
  -26.2750  -37.3940   23.7770 N   0  0  0  0  0  0  0  0  0  0  0  0
  -25.8510  -38.3010   23.9470 H   0  0  0  0  0  0  0  0  0  0  0  0
  -26.3490  -31.6980   25.0240 C   0  0  1  0  0  0  0  0  0  0  0  0
  -25.2600  -31.4200   26.0860 C   0  0  0  0  0  1  0  0  0  0  0  0
  -26.9650  -30.3390   24.6180 C   0  0  0  0  0  1  0  0  0  0  0  0
  -27.4770  -32.5090   25.7030 C   0  0  0  0  0  1  0  0  0  0  0  0
  1  6  2  0
  2  1  1  0
  3 10  1  0
  3  5  1  0
  4 51  1  0
  4  3  1  0
  4  2  1  0
  5  1  1  0
  5  7  1  0
  8 10  2  0
  9  8  1  0
  9 11  2  0
 10 13  1  0
 11 14  1  0
 11 13  1  0
 12  9  1  0
 15 21  1  0
 15 14  1  0
 16 21  1  0
 17 18  1  0
 17 16  1  0
 19 18  1  0
 19 26  1  0
 19 20  1  0
 21 20  1  0
 22 15  2  0
 23 24  2  0
 24 43  1  0
 25 24  1  0
 25 28  1  0
 26 27  1  0
 26 23  1  0
 27 25  2  0
 28 29  1  0
 29 30  2  0
 31 34  1  0
 31 30  1  0
 32 31  2  0
 33 32  1  0
 33 28  2  0
 34 35  1  0
 35 40  2  0
 35 36  1  0
 36 37  2  0
 37 38  1  0
 38 42  1  0
 39 38  2  0
 40 39  1  0
 41 40  1  0
 43 44  1  0
 44 47  1  0
 44 46  1  0
 45 43  2  0
 48 23  1  0
 48 49  1  0
 50 48  1  0
 52 63  2  0
 53 51  1  0
 53 58  1  0
 54 62  1  0
 54 64  1  0
 55 61  1  0
 55 57  1  0
 56 62  1  0
 57 56  1  0
 58 57  2  0
 59 60  1  0
 59 53  2  0
 60 55  2  0
 61 54  1  0
 62 52  1  0
 64 66  2  0
 65 64  1  0
 67 65  1  0
 68 77  2  0
 68 73  1  0
 69 65  1  0
 69 73  1  0
 70 69  1  0
 71 72  1  0
 71 70  1  0
 72 68  1  0
 73 74  2  0
 74 75  1  0
 76 75  2  0
 77 76  1  0
 78 52  1  0
 78 79  1  0
 78 88  1  0
 79 82  1  0
 80 84  1  0
 80 79  1  0
 81 80  2  0
 84 83  1  0
 86 84  1  0
 86 87  1  0
 86 85  1  0
 88 91  1  1
 88 89  1  0
 90 88  1  0
M  ISO  4   4 101  14 100  15 100  51 101
M  END
>  <TORSDO>  (50) 
F 18

>  <SCORE>  (50) 
-14.457

>  <name>  (50) 
50

>  <ligand_id>  (50) 
50

>  <original_smiles>  (50) 
[H]c1c([H])c([H])c2c(c1[H])C([H])([H])C([H])([H])C([H])([H])C2([H])N([H])C(=O)C1([H])N(C(=O)C([H])(N([H])C(=O)C([H])(N([H])C([H])([H])[H])C([H])([H])[H])C(C([H])([H])[H])(C([H])([H])[H])C([H])([H])[H])C([H])([H])c2c([H])c(OC3([H])C([H])([H])C(=O)N([H])C3([H])c3sc(C([H])([H])C(=O)N4C([H])([H])C([H])([H])C([H])([H])C([H])(n5nc(-c6c([H])c([H])c(Oc7c([H])c([H])c(F)c([H])c7F)c([H])c6[H])c(C(=O)N([H])[H])c5N([H])[H])C4([H])[H])c(C([H])([H])[H])c3[H])c([H])c([H])c2C1([H])[H]

>  <smiles>  (50) 
[H]c1c([H])c([H])c2c(c1[H])C([H])([H])C([H])([H])C([H])([H])C2([H])N([H])C(=O)C1([H])N(C(=O)C([H])(N([H])C(=O)C([H])(N([H])C([H])([H])[H])C([H])([H])[H])C(C([H])([H])[H])(C([H])([H])[H])C([H])([H])[H])C([H])([H])c2c([H])c(OC3([H])C([H])([H])C(=O)N([H])C3([H])c3sc(C([H])([H])C(=O)N4C([H])([H])C([H])([H])C([H])([H])C([H])(n5nc(-c6c([H])c([H])c(Oc7c([H])c([H])c(F)c([H])c7F)c([H])c6[H])c(C(=O)N([H])[H])c5N([H])[H])C4([H])[H])c(C([H])([H])[H])c3[H])c([H])c([H])c2C1([H])[H]

$$$$
51:0:0
     RDKit          3D

 92101  0  0  1  0  0  0  0  0999 V2000
  -30.5210  -15.0420   20.4350 C   0  0  0  0  0  0  0  0  0  0  0  0
  -30.4330  -12.6560   19.5130 C   0  0  0  0  0  2  0  0  0  0  0  0
  -29.5200  -12.5450   18.2670 C   0  0  0  0  0  2  0  0  0  0  0  0
  -28.0570  -12.3100   18.6840 C   0  0  0  0  0  2  0  0  0  0  0  0
  -27.6220  -13.2520   19.8340 C   0  0  0  0  0  3  0  0  0  0  0  0
  -28.6580  -13.2990   20.9740 C   0  0  0  0  0  2  0  0  0  0  0  0
  -29.9210  -13.7680   20.3830 N   0  0  0  0  0  0  0  0  0  0  0  0
  -31.7040  -15.0700   20.0670 O   0  0  0  0  0  0  0  0  0  0  0  0
  -29.1400  -21.8870   19.9620 C   0  0  0  0  0  3  0  0  0  0  0  0
  -29.1150  -20.5060   20.5410 C   0  0  0  0  0  0  0  0  0  0  0  0
  -28.2460  -20.3590   21.6490 C   0  0  0  0  0  0  0  0  0  0  0  0
  -28.3730  -23.0880   20.4160 C   0  0  0  0  0  0  0  0  0  0  0  0
  -27.3860  -21.4430   22.0370 C   0  0  0  0  0  0  0  0  0  0  0  0
  -27.4860  -22.7720   21.4840 C   0  0  0  0  0  0  0  0  0  0  0  0
  -30.1210  -19.2340   20.1990 C   0  0  0  0  0  2  0  0  0  0  0  0
  -28.3980  -19.0960   22.5410 C   0  0  0  0  0  2  0  0  0  0  0  0
  -28.0720  -17.6930   21.9380 C   0  0  0  0  0  2  0  0  0  0  0  0
  -29.8160  -17.6200   19.7410 C   0  0  0  0  0  2  0  0  0  0  0  0
  -29.2650  -16.6650   21.9410 C   0  0  0  0  0  2  0  0  0  0  0  0
  -26.3110  -21.1700   23.0910 C   0  0  0  0  0  1  0  0  0  0  0  0
  -26.6250  -23.8990   22.0500 C   0  0  0  0  0  1  0  0  0  0  0  0
  -29.7940  -16.2900   20.6100 N   0  0  0  0  0  0  0  0  0  0  0  0
  -25.2440  -13.8230   20.5730 C   0  0  0  0  0  0  0  0  0  0  0  0
  -24.1760  -13.0440   20.9230 C   0  0  0  0  0  0  0  0  0  0  0  0
  -24.6380  -11.6930   20.8760 C   0  0  0  0  0  0  0  0  0  0  0  0
  -26.2840  -12.9450   20.3220 N   0  0  0  0  0  0  0  0  0  0  0  0
  -25.9300  -11.6580   20.5730 N   0  0  0  0  0  0  0  0  0  0  0  0
  -23.9070  -10.4300   21.0420 C   0  0  0  0  0  0  0  0  0  0  0  0
  -24.3630   -9.4210   21.9200 C   0  0  0  0  0  3  0  0  0  0  0  0
  -23.6310   -8.2240   22.0760 C   0  0  0  0  0  3  0  0  0  0  0  0
  -22.4290   -8.0280   21.3540 C   0  0  0  0  0  0  0  0  0  0  0  0
  -21.9930   -9.0250   20.4640 C   0  0  0  0  0  3  0  0  0  0  0  0
  -22.7250  -10.2130   20.3060 C   0  0  0  0  0  3  0  0  0  0  0  0
  -21.6640   -6.8880   21.4240 O   0  0  0  0  0  0  0  0  0  0  0  0
  -21.6850   -6.0740   22.5280 C   0  0  0  0  0  0  0  0  0  0  0  0
  -21.4010   -6.5640   23.8220 C   0  0  0  0  0  3  0  0  0  0  0  0
  -21.3660   -5.6790   24.9180 C   0  0  0  0  0  3  0  0  0  0  0  0
  -21.6040   -4.3060   24.7220 C   0  0  0  0  0  0  0  0  0  0  0  0
  -21.8820   -3.8150   23.4340 C   0  0  0  0  0  3  0  0  0  0  0  0
  -21.9190   -4.6970   22.3400 C   0  0  0  0  0  0  0  0  0  0  0  0
  -22.1660   -4.2160   21.0980 F   0  0  0  0  0  0  0  0  0  0  0  0
  -21.5640   -3.4540   25.7740 F   0  0  0  0  0  0  0  0  0  0  0  0
  -22.7770  -13.5200   21.1890 C   0  0  0  0  0  0  0  0  0  0  0  0
  -22.0430  -12.8170   22.0430 N   0  0  0  0  0  0  0  0  0  0  0  0
  -22.3450  -14.5510   20.6740 O   0  0  0  0  0  0  0  0  0  0  0  0
  -22.4060  -11.9820   22.4780 H   0  0  0  0  0  0  0  0  0  0  0  0
  -21.1040  -13.1160   22.2640 H   0  0  0  0  0  0  0  0  0  0  0  0
  -25.4160  -15.1960   20.4210 N   0  0  0  0  0  0  0  0  0  0  0  0
  -24.6610  -15.8580   20.5530 H   0  0  0  0  0  0  0  0  0  0  0  0
  -26.2820  -15.6330   20.1350 H   0  0  0  0  0  0  0  0  0  0  0  0
  -28.3190  -24.6030   19.6750 C   0  0  0  0  0  2  0  0  0  0  0  0
  -28.2630  -26.0660   20.2830 O   0  0  0  0  0  0  0  0  0  0  0  0
  -24.6460  -31.8370   23.1790 C   0  0  0  0  0  0  0  0  0  0  0  0
  -27.2190  -27.0740   20.1510 C   0  0  0  0  0  0  0  0  0  0  0  0
  -23.4540  -30.4520   21.5260 C   0  0  0  0  0  3  0  0  0  0  0  0
  -24.9050  -28.8660   20.1050 C   0  0  0  0  0  0  0  0  0  0  0  0
  -26.0130  -30.6880   21.3890 C   0  0  0  0  0  2  0  0  0  0  0  0
  -26.0820  -29.2930   20.7310 C   0  0  0  0  0  0  0  0  0  0  0  0
  -27.2340  -28.4120   20.7400 C   0  0  0  0  0  3  0  0  0  0  0  0
  -26.0150  -26.7620   19.4820 C   0  0  0  0  0  3  0  0  0  0  0  0
  -24.8880  -27.6160   19.4670 C   0  0  0  0  0  3  0  0  0  0  0  0
  -23.6830  -29.7730   20.1490 C   0  0  0  0  0  2  0  0  0  0  0  0
  -24.7240  -31.0160   22.0860 N   0  0  0  0  0  0  0  0  0  0  0  0
  -23.5570  -32.1270   23.6980 O   0  0  0  0  0  0  0  0  0  0  0  0
  -22.7590  -29.4510   22.4830 C   0  0  0  0  0  0  0  0  0  0  0  0
  -21.4270  -29.3050   22.3590 N   0  0  0  0  0  0  0  0  0  0  0  0
  -23.4220  -28.8070   23.3000 O   0  0  0  0  0  0  0  0  0  0  0  0
  -20.9490  -29.8760   21.6750 H   0  0  0  0  0  0  0  0  0  0  0  0
  -18.0310  -28.1400   22.8480 C   0  0  0  0  0  0  0  0  0  0  0  0
  -20.5920  -28.3730   23.1220 C   0  0  0  0  0  3  0  0  0  0  0  0
  -20.6800  -26.9430   22.5400 C   0  0  0  0  0  2  0  0  0  0  0  0
  -19.5770  -26.6390   21.5210 C   0  0  0  0  0  2  0  0  0  0  0  0
  -18.1950  -26.7940   22.1620 C   0  0  0  0  0  2  0  0  0  0  0  0
  -19.1570  -28.8880   23.2840 C   0  0  0  0  0  0  0  0  0  0  0  0
  -18.9490  -30.1480   23.8870 C   0  0  0  0  0  3  0  0  0  0  0  0
  -17.6490  -30.6610   24.0560 C   0  0  0  0  0  3  0  0  0  0  0  0
  -16.5380  -29.9100   23.6340 C   0  0  0  0  0  3  0  0  0  0  0  0
  -16.7290  -28.6520   23.0360 C   0  0  0  0  0  3  0  0  0  0  0  0
  -25.9210  -32.4650   23.8200 C   0  0  0  0  0  3  0  0  0  0  0  0
  -25.5920  -33.8460   24.2120 N   0  0  0  0  0  0  0  0  0  0  0  0
  -25.9080  -34.9380   23.5040 C   0  0  0  0  0  0  0  0  0  0  0  0
  -26.5700  -34.8900   22.4640 O   0  0  0  0  0  0  0  0  0  0  0  0
  -24.9950  -33.9540   25.0180 H   0  0  0  0  0  0  0  0  0  0  0  0
  -24.1490  -36.7250   23.2640 C   0  0  0  0  0  1  0  0  0  0  0  0
  -25.4130  -36.3000   24.0300 C   0  0  0  0  0  3  0  0  0  0  0  0
  -27.5580  -37.1780   24.8470 C   0  0  0  0  0  1  0  0  0  0  0  0
  -26.4290  -37.3730   23.9400 N   0  0  0  0  0  0  0  0  0  0  0  0
  -26.0150  -38.2790   24.1420 H   0  0  0  0  0  0  0  0  0  0  0  0
  -26.4510  -31.6550   25.0670 C   0  0  1  0  0  0  0  0  0  0  0  0
  -25.3670  -31.3720   26.1330 C   0  0  0  0  0  1  0  0  0  0  0  0
  -27.0410  -30.2950   24.6280 C   0  0  0  0  0  1  0  0  0  0  0  0
  -27.5990  -32.4370   25.7480 C   0  0  0  0  0  1  0  0  0  0  0  0
  1 22  1  0
  2  7  1  0
  3  4  1  0
  3  2  1  0
  5  4  1  0
  5 26  1  0
  5  6  1  0
  7  1  1  0
  7  6  1  0
  8  1  2  0
  9 12  2  0
  9 10  1  0
 10 11  2  0
 11 13  1  0
 11 16  1  0
 12 14  1  0
 13 20  1  0
 14 13  2  0
 14 21  1  0
 15 10  1  0
 17 19  1  0
 17 16  1  0
 18 15  1  0
 18 22  1  0
 22 19  1  0
 23 24  2  0
 24 43  1  0
 25 24  1  0
 25 28  1  0
 26 27  1  0
 26 23  1  0
 27 25  2  0
 28 29  1  0
 29 30  2  0
 31 34  1  0
 31 30  1  0
 32 31  2  0
 33 32  1  0
 33 28  2  0
 34 35  1  0
 35 36  1  0
 36 37  2  0
 38 37  1  0
 38 42  1  0
 39 38  2  0
 40 35  2  0
 40 39  1  0
 41 40  1  0
 43 44  1  0
 44 47  1  0
 44 46  1  0
 45 43  2  0
 48 49  1  0
 48 23  1  0
 50 48  1  0
 51 52  1  0
 51 12  1  0
 53 64  2  0
 54 52  1  0
 54 59  1  0
 55 63  1  0
 55 65  1  0
 56 62  1  0
 56 58  1  0
 57 63  1  0
 58 59  2  0
 58 57  1  0
 60 54  2  0
 61 60  1  0
 61 56  2  0
 62 55  1  0
 63 53  1  0
 65 67  2  0
 66 65  1  0
 68 66  1  0
 69 78  2  0
 69 74  1  0
 70 66  1  0
 70 74  1  0
 71 70  1  0
 72 73  1  0
 72 71  1  0
 73 69  1  0
 74 75  2  0
 75 76  1  0
 77 76  2  0
 78 77  1  0
 79 53  1  0
 79 80  1  0
 79 89  1  0
 80 83  1  0
 81 85  1  0
 81 80  1  0
 82 81  2  0
 85 84  1  0
 87 85  1  0
 87 88  1  0
 87 86  1  0
 89 92  1  1
 89 90  1  0
 91 89  1  0
M  ISO  4   1 100  22 100  51 101  52 101
M  END
>  <TORSDO>  (51) 
F 16

>  <SCORE>  (51) 
5.574

>  <name>  (51) 
51

>  <ligand_id>  (51) 
51

>  <original_smiles>  (51) 
[H]c1c([H])c([H])c2c(c1[H])C([H])([H])C([H])([H])C([H])([H])C2([H])N([H])C(=O)C1([H])N(C(=O)C([H])(N([H])C(=O)C([H])(N([H])C([H])([H])[H])C([H])([H])[H])C(C([H])([H])[H])(C([H])([H])[H])C([H])([H])[H])C([H])([H])c2c([H])c(OC([H])([H])c3c([H])c4c(c(C([H])([H])[H])c3C([H])([H])[H])C([H])([H])C([H])([H])C([H])([H])N(C(=O)N3C([H])([H])C([H])([H])C([H])([H])C([H])(n5nc(-c6c([H])c([H])c(Oc7c([H])c([H])c(F)c([H])c7F)c([H])c6[H])c(C(=O)N([H])[H])c5N([H])[H])C3([H])[H])C([H])([H])C4([H])[H])c([H])c([H])c2C1([H])[H]

>  <smiles>  (51) 
[H]c1c([H])c([H])c2c(c1[H])C([H])([H])C([H])([H])C([H])([H])C2([H])N([H])C(=O)C1([H])N(C(=O)C([H])(N([H])C(=O)C([H])(N([H])C([H])([H])[H])C([H])([H])[H])C(C([H])([H])[H])(C([H])([H])[H])C([H])([H])[H])C([H])([H])c2c([H])c(OC([H])([H])c3c([H])c4c(c(C([H])([H])[H])c3C([H])([H])[H])C([H])([H])C([H])([H])C([H])([H])N(C(=O)N3C([H])([H])C([H])([H])C([H])([H])C([H])(n5nc(-c6c([H])c([H])c(Oc7c([H])c([H])c(F)c([H])c7F)c([H])c6[H])c(C(=O)N([H])[H])c5N([H])[H])C3([H])[H])C([H])([H])C4([H])[H])c([H])c([H])c2C1([H])[H]

$$$$
52:0:0
     RDKit          3D

 92101  0  0  1  0  0  0  0  0999 V2000
  -28.6780  -24.1760   19.8840 C   0  0  0  0  0  3  0  0  0  0  0  0
  -27.2270  -22.6400   21.0880 C   0  0  0  0  0  3  0  0  0  0  0  0
  -26.6940  -25.0480   20.9530 C   0  0  0  0  0  3  0  0  0  0  0  0
  -28.4130  -22.7970   20.3380 C   0  0  0  0  0  0  0  0  0  0  0  0
  -27.8290  -25.3440   20.1640 C   0  0  0  0  0  0  0  0  0  0  0  0
  -26.3740  -23.7410   21.3820 C   0  0  0  0  0  0  0  0  0  0  0  0
  -24.4220  -22.4390   21.9060 C   0  0  0  0  0  1  0  0  0  0  0  0
  -25.1950  -23.6190   22.0870 O   0  0  0  0  0  0  0  0  0  0  0  0
  -28.0490  -26.7250   19.7670 O   0  0  0  0  0  0  0  0  0  0  0  0
  -24.7280  -32.1000   23.4720 C   0  0  0  0  0  0  0  0  0  0  0  0
  -27.0340  -27.7220   19.8680 C   0  0  0  0  0  0  0  0  0  0  0  0
  -23.4320  -30.9580   21.7110 C   0  0  0  0  0  3  0  0  0  0  0  0
  -24.7790  -29.5060   20.0820 C   0  0  0  0  0  0  0  0  0  0  0  0
  -25.9860  -31.1490   21.5130 C   0  0  0  0  0  2  0  0  0  0  0  0
  -25.9840  -29.8440   20.7130 C   0  0  0  0  0  0  0  0  0  0  0  0
  -27.1160  -28.9630   20.5970 C   0  0  0  0  0  3  0  0  0  0  0  0
  -25.8130  -27.4740   19.2060 C   0  0  0  0  0  3  0  0  0  0  0  0
  -24.7010  -28.3300   19.3200 C   0  0  0  0  0  3  0  0  0  0  0  0
  -23.5960  -30.4420   20.2580 C   0  0  0  0  0  2  0  0  0  0  0  0
  -24.7360  -31.4160   22.2890 N   0  0  0  0  0  0  0  0  0  0  0  0
  -23.6670  -32.3660   24.0560 O   0  0  0  0  0  0  0  0  0  0  0  0
  -22.7340  -29.8690   22.5640 C   0  0  0  0  0  0  0  0  0  0  0  0
  -21.4070  -29.7280   22.4040 N   0  0  0  0  0  0  0  0  0  0  0  0
  -23.3870  -29.1600   23.3340 O   0  0  0  0  0  0  0  0  0  0  0  0
  -20.9390  -30.3550   21.7630 H   0  0  0  0  0  0  0  0  0  0  0  0
  -17.9920  -28.5860   22.8000 C   0  0  0  0  0  0  0  0  0  0  0  0
  -20.5590  -28.7380   23.0730 C   0  0  0  0  0  3  0  0  0  0  0  0
  -20.6140  -27.3760   22.3440 C   0  0  0  0  0  2  0  0  0  0  0  0
  -19.4970  -27.2000   21.3100 C   0  0  0  0  0  2  0  0  0  0  0  0
  -18.1240  -27.3150   21.9780 C   0  0  0  0  0  2  0  0  0  0  0  0
  -19.1370  -29.2630   23.3000 C   0  0  0  0  0  0  0  0  0  0  0  0
  -18.9600  -30.4560   24.0330 C   0  0  0  0  0  3  0  0  0  0  0  0
  -17.6720  -30.9740   24.2650 C   0  0  0  0  0  3  0  0  0  0  0  0
  -16.5430  -30.2940   23.7790 C   0  0  0  0  0  3  0  0  0  0  0  0
  -16.7030  -29.1010   23.0520 C   0  0  0  0  0  3  0  0  0  0  0  0
  -26.0490  -32.6000   24.1330 C   0  0  0  0  0  3  0  0  0  0  0  0
  -25.8290  -33.9840   24.5780 N   0  0  0  0  0  0  0  0  0  0  0  0
  -26.1850  -35.0740   23.8830 C   0  0  0  0  0  0  0  0  0  0  0  0
  -26.8010  -35.0130   22.8170 O   0  0  0  0  0  0  0  0  0  0  0  0
  -25.2850  -34.1080   25.4190 H   0  0  0  0  0  0  0  0  0  0  0  0
  -24.5300  -36.9670   23.7620 C   0  0  0  0  0  1  0  0  0  0  0  0
  -25.7940  -36.4480   24.4650 C   0  0  0  0  0  3  0  0  0  0  0  0
  -28.0120  -37.1770   25.2290 C   0  0  0  0  0  1  0  0  0  0  0  0
  -26.8710  -37.4590   24.3620 N   0  0  0  0  0  0  0  0  0  0  0  0
  -26.5190  -38.3840   24.5950 H   0  0  0  0  0  0  0  0  0  0  0  0
  -26.5160  -31.6990   25.3430 C   0  0  1  0  0  0  0  0  0  0  0  0
  -25.4100  -31.4510   26.3950 C   0  0  0  0  0  1  0  0  0  0  0  0
  -27.0090  -30.3210   24.8430 C   0  0  0  0  0  1  0  0  0  0  0  0
  -27.7140  -32.3640   26.0620 C   0  0  0  0  0  1  0  0  0  0  0  0
  -29.3310  -21.4960   20.0020 C   0  0  0  0  0  2  0  0  0  0  0  0
  -30.8230  -15.4920   20.8220 C   0  0  0  0  0  0  0  0  0  0  0  0
  -30.7630  -13.1210   19.9710 C   0  0  0  0  0  2  0  0  0  0  0  0
  -29.9490  -12.9930   18.6680 C   0  0  0  0  0  2  0  0  0  0  0  0
  -28.4620  -12.7550   18.9910 C   0  0  0  0  0  2  0  0  0  0  0  0
  -27.9260  -13.7330   20.0690 C   0  0  0  0  0  3  0  0  0  0  0  0
  -28.8810  -13.8670   21.2740 C   0  0  0  0  0  2  0  0  0  0  0  0
  -30.1910  -14.2570   20.7430 N   0  0  0  0  0  0  0  0  0  0  0  0
  -32.0530  -15.4940   20.7010 O   0  0  0  0  0  0  0  0  0  0  0  0
  -30.6590  -19.3680   21.1130 C   0  0  0  0  0  2  0  0  0  0  0  0
  -28.8040  -18.7670   19.7570 C   0  0  0  0  0  2  0  0  0  0  0  0
  -30.7050  -17.8950   21.7330 C   0  0  0  0  0  2  0  0  0  0  0  0
  -28.9110  -17.2310   20.2540 C   0  0  0  0  0  2  0  0  0  0  0  0
  -29.2720  -19.9650   20.6790 C   0  0  0  0  0  3  0  0  0  0  0  0
  -30.1420  -16.7370   20.9590 N   0  0  0  0  0  0  0  0  0  0  0  0
  -25.4980  -14.2890   20.6520 C   0  0  0  0  0  0  0  0  0  0  0  0
  -24.4180  -13.4990   20.9310 C   0  0  0  0  0  0  0  0  0  0  0  0
  -24.8980  -12.1530   20.9140 C   0  0  0  0  0  0  0  0  0  0  0  0
  -26.5630  -13.4230   20.4730 N   0  0  0  0  0  0  0  0  0  0  0  0
  -26.2070  -12.1320   20.6990 N   0  0  0  0  0  0  0  0  0  0  0  0
  -24.1720  -10.8820   21.0270 C   0  0  0  0  0  0  0  0  0  0  0  0
  -24.5250   -9.9140   21.9920 C   0  0  0  0  0  3  0  0  0  0  0  0
  -23.7970   -8.7090   22.0940 C   0  0  0  0  0  3  0  0  0  0  0  0
  -22.7040   -8.4640   21.2290 C   0  0  0  0  0  0  0  0  0  0  0  0
  -22.3720   -9.4220   20.2550 C   0  0  0  0  0  3  0  0  0  0  0  0
  -23.1000  -10.6190   20.1500 C   0  0  0  0  0  3  0  0  0  0  0  0
  -21.9570   -7.3110   21.2380 O   0  0  0  0  0  0  0  0  0  0  0  0
  -21.7820   -6.5770   22.3840 C   0  0  0  0  0  0  0  0  0  0  0  0
  -21.1730   -7.1240   23.5340 C   0  0  0  0  0  3  0  0  0  0  0  0
  -20.9490   -6.3140   24.6660 C   0  0  0  0  0  3  0  0  0  0  0  0
  -21.3260   -4.9580   24.6470 C   0  0  0  0  0  0  0  0  0  0  0  0
  -21.9270   -4.4090   23.5010 C   0  0  0  0  0  3  0  0  0  0  0  0
  -22.1530   -5.2160   22.3720 C   0  0  0  0  0  0  0  0  0  0  0  0
  -22.7140   -4.6780   21.2620 F   0  0  0  0  0  0  0  0  0  0  0  0
  -21.1030   -4.1770   25.7300 F   0  0  0  0  0  0  0  0  0  0  0  0
  -23.0010  -13.9620   21.1020 C   0  0  0  0  0  0  0  0  0  0  0  0
  -22.2150  -13.2510   21.9030 N   0  0  0  0  0  0  0  0  0  0  0  0
  -22.5970  -14.9910   20.5620 O   0  0  0  0  0  0  0  0  0  0  0  0
  -22.5550  -12.4200   22.3670 H   0  0  0  0  0  0  0  0  0  0  0  0
  -21.2620  -13.5460   22.0600 H   0  0  0  0  0  0  0  0  0  0  0  0
  -25.6550  -15.6640   20.5090 N   0  0  0  0  0  0  0  0  0  0  0  0
  -24.8630  -16.2940   20.5790 H   0  0  0  0  0  0  0  0  0  0  0  0
  -26.5110  -16.1300   20.2400 H   0  0  0  0  0  0  0  0  0  0  0  0
  1  5  2  0
  1  4  1  0
  2  6  1  0
  3  6  2  0
  4  2  2  0
  5  3  1  0
  6  8  1  0
  7  8  1  0
  9 11  1  0
  9  5  1  0
 10 21  2  0
 11 16  1  0
 12 20  1  0
 12 22  1  0
 13 19  1  0
 13 15  1  0
 14 20  1  0
 15 14  1  0
 16 15  2  0
 17 18  1  0
 17 11  2  0
 18 13  2  0
 19 12  1  0
 20 10  1  0
 22 24  2  0
 23 22  1  0
 25 23  1  0
 26 35  2  0
 26 31  1  0
 27 23  1  0
 27 31  1  0
 28 27  1  0
 29 30  1  0
 29 28  1  0
 30 26  1  0
 31 32  2  0
 32 33  1  0
 34 33  2  0
 35 34  1  0
 36 10  1  0
 36 37  1  0
 36 46  1  0
 37 40  1  0
 38 42  1  0
 38 37  1  0
 39 38  2  0
 42 41  1  0
 44 42  1  0
 44 45  1  0
 44 43  1  0
 46 49  1  1
 46 47  1  0
 48 46  1  0
 50  4  1  0
 51 64  1  0
 52 57  1  0
 53 54  1  0
 53 52  1  0
 55 54  1  0
 55 68  1  0
 55 56  1  0
 57 51  1  0
 57 56  1  0
 58 51  2  0
 59 61  1  0
 60 62  1  0
 60 63  1  0
 62 64  1  0
 63 50  1  0
 63 59  1  0
 64 61  1  0
 65 66  2  0
 66 85  1  0
 67 66  1  0
 67 70  1  0
 68 65  1  0
 68 69  1  0
 69 67  2  0
 70 71  1  0
 71 72  2  0
 73 76  1  0
 73 72  1  0
 74 73  2  0
 75 74  1  0
 75 70  2  0
 76 77  1  0
 77 78  1  0
 78 79  2  0
 80 79  1  0
 80 84  1  0
 81 80  2  0
 82 77  2  0
 82 81  1  0
 83 82  1  0
 85 86  1  0
 86 89  1  0
 86 88  1  0
 87 85  2  0
 90 91  1  0
 90 65  1  0
 92 90  1  0
M  ISO  4   5 101   9 101  51 100  64 100
M  END
>  <TORSDO>  (52) 
F 18

>  <SCORE>  (52) 
-11.131

>  <name>  (52) 
52

>  <ligand_id>  (52) 
52

>  <original_smiles>  (52) 
[H]c1c([H])c([H])c2c(c1[H])C([H])([H])C([H])([H])C([H])([H])C2([H])N([H])C(=O)C1([H])N(C(=O)C([H])(N([H])C(=O)C([H])(N([H])C([H])([H])[H])C([H])([H])[H])C(C([H])([H])[H])(C([H])([H])[H])C([H])([H])[H])C([H])([H])c2c([H])c(Oc3c([H])c(OC([H])([H])[H])c([H])c(C([H])([H])C4([H])C([H])([H])C([H])([H])N(C(=O)N5C([H])([H])C([H])([H])C([H])([H])C([H])(n6nc(-c7c([H])c([H])c(Oc8c([H])c([H])c(F)c([H])c8F)c([H])c7[H])c(C(=O)N([H])[H])c6N([H])[H])C5([H])[H])C([H])([H])C4([H])[H])c3[H])c([H])c([H])c2C1([H])[H]

>  <smiles>  (52) 
[H]c1c([H])c([H])c2c(c1[H])C([H])([H])C([H])([H])C([H])([H])C2([H])N([H])C(=O)C1([H])N(C(=O)C([H])(N([H])C(=O)C([H])(N([H])C([H])([H])[H])C([H])([H])[H])C(C([H])([H])[H])(C([H])([H])[H])C([H])([H])[H])C([H])([H])c2c([H])c(Oc3c([H])c(OC([H])([H])[H])c([H])c(C([H])([H])C4([H])C([H])([H])C([H])([H])N(C(=O)N5C([H])([H])C([H])([H])C([H])([H])C([H])(n6nc(-c7c([H])c([H])c(Oc8c([H])c([H])c(F)c([H])c8F)c([H])c7[H])c(C(=O)N([H])[H])c6N([H])[H])C5([H])[H])C([H])([H])C4([H])[H])c3[H])c([H])c([H])c2C1([H])[H]

$$$$
53:0:0
     RDKit          3D

 93102  0  0  1  0  0  0  0  0999 V2000
  -29.6910  -23.0580   19.3190 C   0  0  0  0  0  3  0  0  0  0  0  0
  -27.7330  -24.3590   20.8150 C   0  0  0  0  0  3  0  0  0  0  0  0
  -28.8770  -22.2090   20.1240 C   0  0  0  0  0  0  0  0  0  0  0  0
  -29.5370  -24.4890   19.2610 C   0  0  0  0  0  0  0  0  0  0  0  0
  -27.8780  -22.9250   20.8690 C   0  0  0  0  0  0  0  0  0  0  0  0
  -28.5520  -25.2020   20.0110 C   0  0  0  0  0  0  0  0  0  0  0  0
  -30.4710  -25.2790   18.3630 C   0  0  0  0  0  1  0  0  0  0  0  0
  -26.9080  -22.1580   21.7520 C   0  0  0  0  0  1  0  0  0  0  0  0
  -29.9810  -19.9760   21.2250 C   0  0  0  0  0  2  0  0  0  0  0  0
  -29.4160  -19.8450   18.8420 C   0  0  0  0  0  2  0  0  0  0  0  0
  -29.9400  -18.3920   21.3340 C   0  0  0  0  0  2  0  0  0  0  0  0
  -29.3790  -18.2550   18.9250 C   0  0  0  0  0  2  0  0  0  0  0  0
  -29.0230  -20.6010   20.1570 C   0  0  0  0  0  3  0  0  0  0  0  0
  -30.2650  -17.5760   20.0310 C   0  0  0  0  0  3  0  0  0  0  0  0
  -30.8810  -14.9730   19.9050 C   0  0  0  0  0  0  0  0  0  0  0  0
  -30.7030  -12.6730   18.9410 C   0  0  0  0  0  2  0  0  0  0  0  0
  -29.6900  -12.7060   17.7740 C   0  0  0  0  0  2  0  0  0  0  0  0
  -28.2520  -12.5080   18.2920 C   0  0  0  0  0  2  0  0  0  0  0  0
  -27.9310  -13.4020   19.5190 C   0  0  0  0  0  3  0  0  0  0  0  0
  -29.0550  -13.3440   20.5760 C   0  0  0  0  0  2  0  0  0  0  0  0
  -30.3040  -13.7240   19.9060 N   0  0  0  0  0  0  0  0  0  0  0  0
  -32.0340  -15.1220   19.4910 O   0  0  0  0  0  0  0  0  0  0  0  0
  -30.0640  -16.0620   20.1790 N   0  0  0  0  0  0  0  0  0  0  0  0
  -29.1430  -15.7910   20.4900 H   0  0  0  0  0  0  0  0  0  0  0  0
  -25.6040  -13.9620   20.4420 C   0  0  0  0  0  0  0  0  0  0  0  0
  -24.5640  -13.1730   20.8530 C   0  0  0  0  0  0  0  0  0  0  0  0
  -25.0180  -11.8250   20.7250 C   0  0  0  0  0  0  0  0  0  0  0  0
  -26.6230  -13.0940   20.0900 N   0  0  0  0  0  0  0  0  0  0  0  0
  -26.2830  -11.8000   20.3220 N   0  0  0  0  0  0  0  0  0  0  0  0
  -24.3010  -10.5560   20.9090 C   0  0  0  0  0  0  0  0  0  0  0  0
  -24.7070   -9.6120   21.8760 C   0  0  0  0  0  3  0  0  0  0  0  0
  -23.9900   -8.4070   22.0460 C   0  0  0  0  0  3  0  0  0  0  0  0
  -22.8540   -8.1390   21.2470 C   0  0  0  0  0  0  0  0  0  0  0  0
  -22.4680   -9.0720   20.2690 C   0  0  0  0  0  3  0  0  0  0  0  0
  -23.1850  -10.2680   20.0980 C   0  0  0  0  0  3  0  0  0  0  0  0
  -22.1120   -6.9850   21.3240 O   0  0  0  0  0  0  0  0  0  0  0  0
  -21.9000   -6.3440   22.5190 C   0  0  0  0  0  0  0  0  0  0  0  0
  -21.2390   -6.9760   23.5950 C   0  0  0  0  0  3  0  0  0  0  0  0
  -20.9800   -6.2570   24.7800 C   0  0  0  0  0  3  0  0  0  0  0  0
  -21.3710   -4.9090   24.8870 C   0  0  0  0  0  0  0  0  0  0  0  0
  -22.0230   -4.2770   23.8140 C   0  0  0  0  0  3  0  0  0  0  0  0
  -22.2830   -4.9930   22.6310 C   0  0  0  0  0  0  0  0  0  0  0  0
  -22.8930   -4.3730   21.5920 F   0  0  0  0  0  0  0  0  0  0  0  0
  -21.1140   -4.2170   26.0210 F   0  0  0  0  0  0  0  0  0  0  0  0
  -23.1930  -13.6390   21.2470 C   0  0  0  0  0  0  0  0  0  0  0  0
  -22.5270  -12.9040   22.1300 N   0  0  0  0  0  0  0  0  0  0  0  0
  -22.7230  -14.6890   20.8080 O   0  0  0  0  0  0  0  0  0  0  0  0
  -22.9210  -12.0550   22.5060 H   0  0  0  0  0  0  0  0  0  0  0  0
  -21.6080  -13.1950   22.4360 H   0  0  0  0  0  0  0  0  0  0  0  0
  -25.7590  -15.3400   20.3150 N   0  0  0  0  0  0  0  0  0  0  0  0
  -24.9980  -15.9840   20.5010 H   0  0  0  0  0  0  0  0  0  0  0  0
  -26.5650  -15.7930   19.9050 H   0  0  0  0  0  0  0  0  0  0  0  0
  -28.5170  -26.6380   20.0030 O   0  0  0  0  0  0  0  0  0  0  0  0
  -24.7270  -31.9170   23.2620 C   0  0  0  0  0  0  0  0  0  0  0  0
  -27.3690  -27.4580   20.0440 C   0  0  0  0  0  0  0  0  0  0  0  0
  -23.5350  -30.5760   21.5660 C   0  0  0  0  0  3  0  0  0  0  0  0
  -24.9970  -29.0770   20.0870 C   0  0  0  0  0  0  0  0  0  0  0  0
  -26.0740  -30.9040   21.4040 C   0  0  0  0  0  2  0  0  0  0  0  0
  -26.1620  -29.5450   20.7090 C   0  0  0  0  0  0  0  0  0  0  0  0
  -27.3470  -28.7460   20.6790 C   0  0  0  0  0  3  0  0  0  0  0  0
  -26.1840  -27.0510   19.3990 C   0  0  0  0  0  3  0  0  0  0  0  0
  -25.0120  -27.8370   19.4240 C   0  0  0  0  0  3  0  0  0  0  0  0
  -23.7560  -29.9480   20.1640 C   0  0  0  0  0  2  0  0  0  0  0  0
  -24.7970  -31.1490   22.1350 N   0  0  0  0  0  0  0  0  0  0  0  0
  -23.6400  -32.1700   23.8040 O   0  0  0  0  0  0  0  0  0  0  0  0
  -22.8730  -29.5230   22.4870 C   0  0  0  0  0  0  0  0  0  0  0  0
  -21.5490  -29.3410   22.3460 N   0  0  0  0  0  0  0  0  0  0  0  0
  -23.5520  -28.8750   23.2880 O   0  0  0  0  0  0  0  0  0  0  0  0
  -21.0610  -29.9150   21.6720 H   0  0  0  0  0  0  0  0  0  0  0  0
  -18.1720  -28.1310   22.8150 C   0  0  0  0  0  0  0  0  0  0  0  0
  -20.7330  -28.3700   23.0760 C   0  0  0  0  0  3  0  0  0  0  0  0
  -20.8250  -26.9680   22.4300 C   0  0  0  0  0  2  0  0  0  0  0  0
  -19.7140  -26.6990   21.4100 C   0  0  0  0  0  2  0  0  0  0  0  0
  -18.3380  -26.8170   22.0720 C   0  0  0  0  0  2  0  0  0  0  0  0
  -19.2960  -28.8690   23.2730 C   0  0  0  0  0  0  0  0  0  0  0  0
  -19.0850  -30.1010   23.9290 C   0  0  0  0  0  3  0  0  0  0  0  0
  -17.7840  -30.5950   24.1310 C   0  0  0  0  0  3  0  0  0  0  0  0
  -16.6740  -29.8540   23.6890 C   0  0  0  0  0  3  0  0  0  0  0  0
  -16.8680  -28.6230   23.0370 C   0  0  0  0  0  3  0  0  0  0  0  0
  -26.0040  -32.5320   23.9130 C   0  0  0  0  0  3  0  0  0  0  0  0
  -25.6920  -33.9230   24.2780 N   0  0  0  0  0  0  0  0  0  0  0  0
  -25.9870  -34.9930   23.5290 C   0  0  0  0  0  0  0  0  0  0  0  0
  -26.6200  -34.9150   22.4730 O   0  0  0  0  0  0  0  0  0  0  0  0
  -25.1240  -34.0560   25.1020 H   0  0  0  0  0  0  0  0  0  0  0  0
  -24.2120  -36.7610   23.2980 C   0  0  0  0  0  1  0  0  0  0  0  0
  -25.5050  -36.3680   24.0300 C   0  0  0  0  0  3  0  0  0  0  0  0
  -27.6620  -37.2900   24.7570 C   0  0  0  0  0  1  0  0  0  0  0  0
  -26.5120  -37.4410   23.8700 N   0  0  0  0  0  0  0  0  0  0  0  0
  -26.0960  -38.3530   24.0400 H   0  0  0  0  0  0  0  0  0  0  0  0
  -26.5070  -31.7290   25.1760 C   0  0  1  0  0  0  0  0  0  0  0  0
  -25.4030  -31.4620   26.2250 C   0  0  0  0  0  1  0  0  0  0  0  0
  -27.0960  -30.3620   24.7570 C   0  0  0  0  0  1  0  0  0  0  0  0
  -27.6490  -32.5070   25.8710 C   0  0  0  0  0  1  0  0  0  0  0  0
  1  3  1  0
  2  5  1  0
  3  5  2  0
  4  1  2  0
  4  6  1  0
  5  8  1  0
  6  2  2  0
  7  4  1  0
  9 11  1  0
 10 12  1  0
 10 13  1  0
 12 14  1  0
 13  3  1  0
 13  9  1  0
 14 23  1  0
 14 11  1  0
 15 21  1  0
 15 23  1  0
 16 21  1  0
 17 18  1  0
 17 16  1  0
 19 18  1  0
 19 28  1  0
 19 20  1  0
 21 20  1  0
 22 15  2  0
 23 24  1  0
 25 26  2  0
 26 45  1  0
 27 26  1  0
 27 30  1  0
 28 29  1  0
 28 25  1  0
 29 27  2  0
 30 31  1  0
 31 32  2  0
 33 36  1  0
 33 32  1  0
 34 33  2  0
 35 34  1  0
 35 30  2  0
 36 37  1  0
 37 42  2  0
 37 38  1  0
 38 39  2  0
 39 40  1  0
 40 44  1  0
 41 40  2  0
 42 41  1  0
 43 42  1  0
 45 46  1  0
 46 49  1  0
 46 48  1  0
 47 45  2  0
 50 25  1  0
 50 51  1  0
 52 50  1  0
 53  6  1  0
 53 55  1  0
 54 65  2  0
 55 60  1  0
 56 64  1  0
 56 66  1  0
 57 63  1  0
 57 59  1  0
 58 64  1  0
 59 58  1  0
 60 59  2  0
 61 62  1  0
 61 55  2  0
 62 57  2  0
 63 56  1  0
 64 54  1  0
 66 68  2  0
 67 66  1  0
 69 67  1  0
 70 79  2  0
 70 75  1  0
 71 67  1  0
 71 75  1  0
 72 71  1  0
 73 74  1  0
 73 72  1  0
 74 70  1  0
 75 76  2  0
 76 77  1  0
 78 77  2  0
 79 78  1  0
 80 54  1  0
 80 81  1  0
 80 90  1  0
 81 84  1  0
 82 86  1  0
 82 81  1  0
 83 82  2  0
 86 85  1  0
 88 86  1  0
 88 89  1  0
 88 87  1  0
 90 93  1  1
 90 91  1  0
 92 90  1  0
M  ISO  4   6 101  15 100  23 100  53 101
M  END
>  <TORSDO>  (53) 
F 17

>  <SCORE>  (53) 
-13.678

>  <name>  (53) 
53

>  <ligand_id>  (53) 
53

>  <original_smiles>  (53) 
[H]c1c([H])c([H])c2c(c1[H])C([H])([H])C([H])([H])C([H])([H])C2([H])N([H])C(=O)C1([H])N(C(=O)C([H])(N([H])C(=O)C([H])(N([H])C([H])([H])[H])C([H])([H])[H])C(C([H])([H])[H])(C([H])([H])[H])C([H])([H])[H])C([H])([H])c2c([H])c(Oc3c([H])c(C([H])([H])[H])c(C4([H])C([H])([H])C([H])([H])C([H])(N([H])C(=O)N5C([H])([H])C([H])([H])C([H])([H])C([H])(n6nc(-c7c([H])c([H])c(Oc8c([H])c([H])c(F)c([H])c8F)c([H])c7[H])c(C(=O)N([H])[H])c6N([H])[H])C5([H])[H])C([H])([H])C4([H])[H])c([H])c3C([H])([H])[H])c([H])c([H])c2C1([H])[H]

>  <smiles>  (53) 
[H]c1c([H])c([H])c2c(c1[H])C([H])([H])C([H])([H])C([H])([H])C2([H])N([H])C(=O)C1([H])N(C(=O)C([H])(N([H])C(=O)C([H])(N([H])C([H])([H])[H])C([H])([H])[H])C(C([H])([H])[H])(C([H])([H])[H])C([H])([H])[H])C([H])([H])c2c([H])c(Oc3c([H])c(C([H])([H])[H])c(C4([H])C([H])([H])C([H])([H])C([H])(N([H])C(=O)N5C([H])([H])C([H])([H])C([H])([H])C([H])(n6nc(-c7c([H])c([H])c(Oc8c([H])c([H])c(F)c([H])c8F)c([H])c7[H])c(C(=O)N([H])[H])c6N([H])[H])C5([H])[H])C([H])([H])C4([H])[H])c([H])c3C([H])([H])[H])c([H])c([H])c2C1([H])[H]

$$$$
54:0:0
     RDKit          3D

102111  0  0  1  0  0  0  0  0999 V2000
  -30.6510  -14.6670   20.3770 C   0  0  0  0  0  0  0  0  0  0  0  0
  -30.4680  -12.3450   19.4870 C   0  0  0  0  0  2  0  0  0  0  0  0
  -29.5330  -12.1630   18.2700 C   0  0  0  0  0  2  0  0  0  0  0  0
  -28.0250  -12.2700   18.6210 C   0  0  0  0  0  2  0  0  0  0  0  0
  -27.6500  -13.1990   19.8130 C   0  0  0  0  0  3  0  0  0  0  0  0
  -28.6960  -13.1400   20.9330 C   0  0  0  0  0  2  0  0  0  0  0  0
  -29.9900  -13.4660   20.3210 N   0  0  0  0  0  0  0  0  0  0  0  0
  -31.8800  -14.7000   20.2660 O   0  0  0  0  0  0  0  0  0  0  0  0
  -30.0080  -17.7910   18.3830 C   0  0  0  0  0  2  0  0  0  0  0  0
  -28.7960  -18.3010   19.1520 C   0  0  0  0  0  3  0  0  0  0  0  0
  -29.3190  -18.3950   20.5950 C   0  0  0  0  0  3  0  0  0  0  0  0
  -30.1530  -16.2920   18.6480 C   0  0  0  0  0  3  0  0  0  0  0  0
  -29.7360  -16.9240   21.1100 C   0  0  0  0  0  3  0  0  0  0  0  0
  -29.2130  -15.6230   17.6290 C   0  0  0  0  0  1  0  0  0  0  0  0
  -28.9190  -16.4510   22.3330 C   0  0  0  0  0  1  0  0  0  0  0  0
  -29.9310  -15.8170   20.0710 N   0  0  0  0  0  0  0  0  0  0  0  0
  -28.8380  -20.5370   17.8960 C   0  0  0  0  0  3  0  0  0  0  0  0
  -26.1130  -20.3500   17.2500 C   0  0  0  0  0  3  0  0  0  0  0  0
  -28.0790  -19.4720   18.4400 C   0  0  0  0  0  0  0  0  0  0  0  0
  -28.2530  -21.4850   17.0240 C   0  0  0  0  0  0  0  0  0  0  0  0
  -26.6860  -19.4180   18.1410 C   0  0  0  0  0  0  0  0  0  0  0  0
  -26.8930  -21.3610   16.6600 C   0  0  0  0  0  0  0  0  0  0  0  0
  -29.1030  -22.6020   16.4540 C   0  0  0  0  0  1  0  0  0  0  0  0
  -25.7600  -18.3510   18.7000 C   0  0  0  0  0  1  0  0  0  0  0  0
  -26.2530  -22.2680   15.6200 C   0  0  0  0  0  1  0  0  0  0  0  0
  -25.2630  -13.8160   20.5620 C   0  0  0  0  0  0  0  0  0  0  0  0
  -24.1850  -13.0440   20.9120 C   0  0  0  0  0  0  0  0  0  0  0  0
  -24.6360  -11.6910   20.8710 C   0  0  0  0  0  0  0  0  0  0  0  0
  -26.2990  -12.9280   20.3140 N   0  0  0  0  0  0  0  0  0  0  0  0
  -25.9270  -11.6500   20.5710 N   0  0  0  0  0  0  0  0  0  0  0  0
  -23.9010  -10.4290   21.0420 C   0  0  0  0  0  0  0  0  0  0  0  0
  -24.3580   -9.4190   21.9180 C   0  0  0  0  0  3  0  0  0  0  0  0
  -23.6230   -8.2250   22.0810 C   0  0  0  0  0  3  0  0  0  0  0  0
  -22.4220   -8.0280   21.3590 C   0  0  0  0  0  0  0  0  0  0  0  0
  -21.9830   -9.0240   20.4710 C   0  0  0  0  0  3  0  0  0  0  0  0
  -22.7180  -10.2090   20.3090 C   0  0  0  0  0  3  0  0  0  0  0  0
  -21.6660   -6.8810   21.4210 O   0  0  0  0  0  0  0  0  0  0  0  0
  -21.6890   -6.0680   22.5240 C   0  0  0  0  0  0  0  0  0  0  0  0
  -21.4010   -6.5610   23.8150 C   0  0  0  0  0  3  0  0  0  0  0  0
  -21.3660   -5.6780   24.9130 C   0  0  0  0  0  3  0  0  0  0  0  0
  -21.6060   -4.3060   24.7200 C   0  0  0  0  0  0  0  0  0  0  0  0
  -21.8820   -3.8120   23.4330 C   0  0  0  0  0  3  0  0  0  0  0  0
  -21.9210   -4.6910   22.3380 C   0  0  0  0  0  0  0  0  0  0  0  0
  -22.1700   -4.2080   21.0970 F   0  0  0  0  0  0  0  0  0  0  0  0
  -21.5650   -3.4570   25.7730 F   0  0  0  0  0  0  0  0  0  0  0  0
  -22.7890  -13.5300   21.1780 C   0  0  0  0  0  0  0  0  0  0  0  0
  -22.0540  -12.8290   22.0350 N   0  0  0  0  0  0  0  0  0  0  0  0
  -22.3550  -14.5580   20.6610 O   0  0  0  0  0  0  0  0  0  0  0  0
  -22.4140  -11.9850   22.4530 H   0  0  0  0  0  0  0  0  0  0  0  0
  -21.1200  -13.1400   22.2640 H   0  0  0  0  0  0  0  0  0  0  0  0
  -25.4460  -15.1830   20.4000 N   0  0  0  0  0  0  0  0  0  0  0  0
  -24.6900  -15.8540   20.4930 H   0  0  0  0  0  0  0  0  0  0  0  0
  -26.3040  -15.5880   20.0530 H   0  0  0  0  0  0  0  0  0  0  0  0
  -28.4710  -19.3430   21.5120 C   0  0  0  0  0  2  0  0  0  0  0  0
  -28.9850  -20.8120   21.7000 C   0  0  0  0  0  2  0  0  0  0  0  0
  -28.2750  -21.9250   20.9060 C   0  0  0  0  0  0  0  0  0  0  0  0
  -29.0130  -22.9980   20.5710 N   0  0  0  0  0  0  0  0  0  0  0  0
  -27.0770  -21.8390   20.6400 O   0  0  0  0  0  0  0  0  0  0  0  0
  -29.9920  -22.9730   20.8270 H   0  0  0  0  0  0  0  0  0  0  0  0
  -28.5730  -24.1970   19.8440 C   0  0  0  0  0  2  0  0  0  0  0  0
  -28.4480  -25.4420   20.7640 C   0  0  0  0  0  2  0  0  0  0  0  0
  -28.4180  -26.6980   20.0630 O   0  0  0  0  0  0  0  0  0  0  0  0
  -24.6190  -31.8660   23.2050 C   0  0  0  0  0  0  0  0  0  0  0  0
  -27.2470  -27.4220   20.1070 C   0  0  0  0  0  0  0  0  0  0  0  0
  -23.4100  -30.4800   21.5470 C   0  0  0  0  0  3  0  0  0  0  0  0
  -24.8590  -28.9340   20.1280 C   0  0  0  0  0  0  0  0  0  0  0  0
  -25.9350  -30.8340   21.3500 C   0  0  0  0  0  2  0  0  0  0  0  0
  -26.0200  -29.4600   20.7090 C   0  0  0  0  0  0  0  0  0  0  0  0
  -27.2170  -28.7070   20.6960 C   0  0  0  0  0  3  0  0  0  0  0  0
  -26.0730  -26.9080   19.5190 C   0  0  0  0  0  3  0  0  0  0  0  0
  -24.8810  -27.6560   19.5360 C   0  0  0  0  0  3  0  0  0  0  0  0
  -23.6160  -29.7940   20.1690 C   0  0  0  0  0  2  0  0  0  0  0  0
  -24.6740  -31.0750   22.0950 N   0  0  0  0  0  0  0  0  0  0  0  0
  -23.5360  -32.1420   23.7410 O   0  0  0  0  0  0  0  0  0  0  0  0
  -22.7440  -29.4680   22.5060 C   0  0  0  0  0  0  0  0  0  0  0  0
  -21.4140  -29.3130   22.3870 N   0  0  0  0  0  0  0  0  0  0  0  0
  -23.4190  -28.8170   23.3070 O   0  0  0  0  0  0  0  0  0  0  0  0
  -20.9250  -29.8900   21.7170 H   0  0  0  0  0  0  0  0  0  0  0  0
  -18.0290  -28.1360   22.8460 C   0  0  0  0  0  0  0  0  0  0  0  0
  -20.5890  -28.3670   23.1360 C   0  0  0  0  0  3  0  0  0  0  0  0
  -20.6800  -26.9470   22.5270 C   0  0  0  0  0  2  0  0  0  0  0  0
  -19.5780  -26.6600   21.5010 C   0  0  0  0  0  2  0  0  0  0  0  0
  -18.1980  -26.7970   22.1440 C   0  0  0  0  0  2  0  0  0  0  0  0
  -19.1530  -28.8810   23.2970 C   0  0  0  0  0  0  0  0  0  0  0  0
  -18.9430  -30.1400   23.9020 C   0  0  0  0  0  3  0  0  0  0  0  0
  -17.6430  -30.6510   24.0620 C   0  0  0  0  0  3  0  0  0  0  0  0
  -16.5340  -29.9040   23.6290 C   0  0  0  0  0  3  0  0  0  0  0  0
  -16.7260  -28.6480   23.0280 C   0  0  0  0  0  3  0  0  0  0  0  0
  -25.9070  -32.4790   23.8360 C   0  0  0  0  0  3  0  0  0  0  0  0
  -25.5950  -33.8580   24.2320 N   0  0  0  0  0  0  0  0  0  0  0  0
  -25.9050  -34.9440   23.5120 C   0  0  0  0  0  0  0  0  0  0  0  0
  -26.5570  -34.8880   22.4640 O   0  0  0  0  0  0  0  0  0  0  0  0
  -25.0100  -33.9730   25.0460 H   0  0  0  0  0  0  0  0  0  0  0  0
  -24.1510  -36.7310   23.2640 C   0  0  0  0  0  1  0  0  0  0  0  0
  -25.4130  -36.3080   24.0330 C   0  0  0  0  0  3  0  0  0  0  0  0
  -27.5580  -37.1800   24.8450 C   0  0  0  0  0  1  0  0  0  0  0  0
  -26.4300  -37.3770   23.9400 N   0  0  0  0  0  0  0  0  0  0  0  0
  -26.0170  -38.2850   24.1390 H   0  0  0  0  0  0  0  0  0  0  0  0
  -26.4470  -31.6570   25.0680 C   0  0  1  0  0  0  0  0  0  0  0  0
  -25.3750  -31.3680   26.1450 C   0  0  0  0  0  1  0  0  0  0  0  0
  -27.0300  -30.3040   24.6010 C   0  0  0  0  0  1  0  0  0  0  0  0
  -27.6080  -32.4230   25.7450 C   0  0  0  0  0  1  0  0  0  0  0  0
  2  7  1  0
  3  4  1  0
  3  2  1  0
  5  4  1  0
  5 29  1  0
  5  6  1  0
  7  1  1  0
  7  6  1  0
  8  1  2  0
  9 12  1  0
  9 10  1  0
 10 19  1  0
 10 11  1  0
 11 13  1  0
 11 54  1  0
 12 14  1  0
 12 16  1  0
 13 15  1  0
 16  1  1  0
 16 13  1  0
 17 19  1  0
 18 21  1  0
 20 17  2  0
 21 19  2  0
 21 24  1  0
 22 20  1  0
 22 18  2  0
 23 20  1  0
 25 22  1  0
 26 27  2  0
 27 46  1  0
 28 27  1  0
 28 31  1  0
 29 26  1  0
 29 30  1  0
 30 28  2  0
 31 32  1  0
 32 33  2  0
 34 37  1  0
 34 33  1  0
 35 34  2  0
 36 35  1  0
 36 31  2  0
 37 38  1  0
 38 39  1  0
 39 40  2  0
 41 40  1  0
 41 45  1  0
 42 41  2  0
 43 38  2  0
 43 42  1  0
 44 43  1  0
 46 47  1  0
 47 50  1  0
 47 49  1  0
 48 46  2  0
 51 52  1  0
 51 26  1  0
 53 51  1  0
 54 55  1  0
 56 55  1  0
 57 59  1  0
 57 56  1  0
 58 56  2  0
 60 57  1  0
 60 61  1  0
 62 64  1  0
 62 61  1  0
 63 74  2  0
 64 69  1  0
 65 73  1  0
 65 75  1  0
 66 72  1  0
 66 68  1  0
 67 73  1  0
 68 67  1  0
 69 68  2  0
 70 71  1  0
 70 64  2  0
 71 66  2  0
 72 65  1  0
 73 63  1  0
 75 77  2  0
 76 75  1  0
 78 76  1  0
 79 88  2  0
 79 84  1  0
 80 76  1  0
 80 84  1  0
 81 80  1  0
 82 83  1  0
 82 81  1  0
 83 79  1  0
 84 85  2  0
 85 86  1  0
 87 86  2  0
 88 87  1  0
 89 63  1  0
 89 90  1  0
 89 99  1  0
 90 93  1  0
 91 95  1  0
 91 90  1  0
 92 91  2  0
 95 94  1  0
 97 95  1  0
 97 98  1  0
 97 96  1  0
 99102  1  1
 99100  1  0
101 99  1  0
M  ISO  4   1 100  16 100  61 101  62 101
M  END
>  <TORSDO>  (54) 
F 21

>  <SCORE>  (54) 
-1.299

>  <name>  (54) 
54

>  <ligand_id>  (54) 
54

>  <original_smiles>  (54) 
[H]c1c([H])c([H])c2c(c1[H])C([H])([H])C([H])([H])C([H])([H])C2([H])N([H])C(=O)C1([H])N(C(=O)C([H])(N([H])C(=O)C([H])(N([H])C([H])([H])[H])C([H])([H])[H])C(C([H])([H])[H])(C([H])([H])[H])C([H])([H])[H])C([H])([H])c2c([H])c(OC([H])([H])C([H])([H])N([H])C(=O)C([H])([H])C([H])([H])C3([H])C([H])(c4c([H])c(C([H])([H])[H])c(C([H])([H])[H])c([H])c4C([H])([H])[H])C([H])([H])C([H])(C([H])([H])[H])N(C(=O)N4C([H])([H])C([H])([H])C([H])([H])C([H])(n5nc(-c6c([H])c([H])c(Oc7c([H])c([H])c(F)c([H])c7F)c([H])c6[H])c(C(=O)N([H])[H])c5N([H])[H])C4([H])[H])C3([H])C([H])([H])[H])c([H])c([H])c2C1([H])[H]

>  <smiles>  (54) 
[H]c1c([H])c([H])c2c(c1[H])C([H])([H])C([H])([H])C([H])([H])C2([H])N([H])C(=O)C1([H])N(C(=O)C([H])(N([H])C(=O)C([H])(N([H])C([H])([H])[H])C([H])([H])[H])C(C([H])([H])[H])(C([H])([H])[H])C([H])([H])[H])C([H])([H])c2c([H])c(OC([H])([H])C([H])([H])N([H])C(=O)C([H])([H])C([H])([H])C3([H])C([H])(c4c([H])c(C([H])([H])[H])c(C([H])([H])[H])c([H])c4C([H])([H])[H])C([H])([H])C([H])(C([H])([H])[H])N(C(=O)N4C([H])([H])C([H])([H])C([H])([H])C([H])(n5nc(-c6c([H])c([H])c(Oc7c([H])c([H])c(F)c([H])c7F)c([H])c6[H])c(C(=O)N([H])[H])c5N([H])[H])C4([H])[H])C3([H])C([H])([H])[H])c([H])c([H])c2C1([H])[H]

$$$$
55:0:0
     RDKit          3D

 94103  0  0  1  0  0  0  0  0999 V2000
  -28.9590  -24.6970   18.8640 C   0  0  0  0  0  3  0  0  0  0  0  0
  -27.2690  -23.7060   20.8380 C   0  0  0  0  0  0  0  0  0  0  0  0
  -27.3350  -25.0790   20.6150 C   0  0  0  0  0  0  0  0  0  0  0  0
  -28.9310  -23.2910   19.1280 C   0  0  0  0  0  0  0  0  0  0  0  0
  -28.1510  -25.6240   19.5950 C   0  0  0  0  0  0  0  0  0  0  0  0
  -28.0540  -22.7890   20.1180 C   0  0  0  0  0  0  0  0  0  0  0  0
  -26.3310  -23.4200   21.9170 C   0  0  0  0  0  0  0  0  0  0  0  0
  -26.5010  -25.8390   21.6180 C   0  0  0  0  0  3  0  0  0  0  0  0
  -25.8220  -24.7450   22.4720 C   0  0  0  0  0  3  0  0  0  0  0  0
  -25.9520  -22.3170   22.3230 O   0  0  0  0  0  0  0  0  0  0  0  0
  -28.0160  -21.4660   20.4080 F   0  0  0  0  0  0  0  0  0  0  0  0
  -28.2050  -26.9880   19.3540 O   0  0  0  0  0  0  0  0  0  0  0  0
  -24.6250  -31.8480   23.2230 C   0  0  0  0  0  0  0  0  0  0  0  0
  -27.0680  -27.7660   19.5080 C   0  0  0  0  0  0  0  0  0  0  0  0
  -23.3450  -30.7130   21.4370 C   0  0  0  0  0  3  0  0  0  0  0  0
  -24.7260  -29.3300   19.7940 C   0  0  0  0  0  0  0  0  0  0  0  0
  -25.8770  -31.0130   21.2350 C   0  0  0  0  0  2  0  0  0  0  0  0
  -25.9120  -29.7310   20.4240 C   0  0  0  0  0  0  0  0  0  0  0  0
  -27.0830  -28.9470   20.2910 C   0  0  0  0  0  3  0  0  0  0  0  0
  -25.8640  -27.3890   18.8790 C   0  0  0  0  0  3  0  0  0  0  0  0
  -24.6920  -28.1550   19.0250 C   0  0  0  0  0  3  0  0  0  0  0  0
  -23.5130  -30.2160   19.9780 C   0  0  0  0  0  2  0  0  0  0  0  0
  -24.6360  -31.1980   22.0260 N   0  0  0  0  0  0  0  0  0  0  0  0
  -23.5630  -32.0780   23.8170 O   0  0  0  0  0  0  0  0  0  0  0  0
  -22.6820  -29.5920   22.2710 C   0  0  0  0  0  0  0  0  0  0  0  0
  -21.3470  -29.4750   22.1620 N   0  0  0  0  0  0  0  0  0  0  0  0
  -23.3560  -28.8400   22.9790 O   0  0  0  0  0  0  0  0  0  0  0  0
  -20.8590  -30.1400   21.5780 H   0  0  0  0  0  0  0  0  0  0  0  0
  -17.9350  -28.3790   22.6690 C   0  0  0  0  0  0  0  0  0  0  0  0
  -20.5150  -28.4690   22.8250 C   0  0  0  0  0  3  0  0  0  0  0  0
  -20.5060  -27.1430   22.0310 C   0  0  0  0  0  2  0  0  0  0  0  0
  -19.3400  -27.0370   21.0430 C   0  0  0  0  0  2  0  0  0  0  0  0
  -18.0010  -27.1480   21.7810 C   0  0  0  0  0  2  0  0  0  0  0  0
  -19.1170  -29.0070   23.1460 C   0  0  0  0  0  0  0  0  0  0  0  0
  -19.0020  -30.1690   23.9390 C   0  0  0  0  0  3  0  0  0  0  0  0
  -17.7400  -30.7030   24.2580 C   0  0  0  0  0  3  0  0  0  0  0  0
  -16.5730  -30.0690   23.7940 C   0  0  0  0  0  3  0  0  0  0  0  0
  -16.6710  -28.9090   23.0070 C   0  0  0  0  0  3  0  0  0  0  0  0
  -25.9400  -32.3640   23.8890 C   0  0  0  0  0  3  0  0  0  0  0  0
  -25.6910  -33.7270   24.3830 N   0  0  0  0  0  0  0  0  0  0  0  0
  -26.0630  -34.8440   23.7480 C   0  0  0  0  0  0  0  0  0  0  0  0
  -26.7230  -34.8300   22.7050 O   0  0  0  0  0  0  0  0  0  0  0  0
  -25.1080  -33.8130   25.2050 H   0  0  0  0  0  0  0  0  0  0  0  0
  -24.4130  -36.7390   23.6110 C   0  0  0  0  0  1  0  0  0  0  0  0
  -25.6370  -36.1900   24.3660 C   0  0  0  0  0  3  0  0  0  0  0  0
  -27.8040  -36.8840   25.2870 C   0  0  0  0  0  1  0  0  0  0  0  0
  -26.7130  -37.2060   24.3700 N   0  0  0  0  0  0  0  0  0  0  0  0
  -26.3440  -38.1200   24.6220 H   0  0  0  0  0  0  0  0  0  0  0  0
  -26.4480  -31.4340   25.0610 C   0  0  1  0  0  0  0  0  0  0  0  0
  -25.3660  -31.1220   26.1210 C   0  0  0  0  0  1  0  0  0  0  0  0
  -26.9710  -30.0890   24.5060 C   0  0  0  0  0  1  0  0  0  0  0  0
  -27.6380  -32.1060   25.7880 C   0  0  0  0  0  1  0  0  0  0  0  0
  -29.8960  -22.3230   18.4210 C   0  0  0  0  0  2  0  0  0  0  0  0
  -29.3460  -20.9260   17.9670 C   0  0  0  0  0  2  0  0  0  0  0  0
  -30.1870  -19.6380   18.2790 C   0  0  0  0  0  2  0  0  0  0  0  0
  -29.8160  -18.7480   19.5140 C   0  0  0  0  0  2  0  0  0  0  0  0
  -30.4190  -17.2980   19.3800 C   0  0  0  0  0  2  0  0  0  0  0  0
  -30.4650  -16.3520   20.6300 C   0  0  0  0  0  2  0  0  0  0  0  0
  -31.1800  -15.0020   20.3140 C   0  0  0  0  0  0  0  0  0  0  0  0
  -30.9240  -12.7690   19.2960 C   0  0  0  0  0  2  0  0  0  0  0  0
  -29.9980  -12.8620   18.0670 C   0  0  0  0  0  2  0  0  0  0  0  0
  -28.5090  -12.7960   18.4710 C   0  0  0  0  0  2  0  0  0  0  0  0
  -28.1510  -13.7130   19.6820 C   0  0  0  0  0  3  0  0  0  0  0  0
  -29.1850  -13.5370   20.8120 C   0  0  0  0  0  2  0  0  0  0  0  0
  -30.5180  -13.8130   20.2580 N   0  0  0  0  0  0  0  0  0  0  0  0
  -32.3600  -15.0770   19.9680 O   0  0  0  0  0  0  0  0  0  0  0  0
  -25.7600  -14.3920   20.3540 C   0  0  0  0  0  0  0  0  0  0  0  0
  -24.6600  -13.6470   20.6960 C   0  0  0  0  0  0  0  0  0  0  0  0
  -25.0810  -12.2810   20.6770 C   0  0  0  0  0  0  0  0  0  0  0  0
  -26.7830  -13.4760   20.1510 N   0  0  0  0  0  0  0  0  0  0  0  0
  -26.3770  -12.2040   20.4070 N   0  0  0  0  0  0  0  0  0  0  0  0
  -24.3070  -11.0410   20.8420 C   0  0  0  0  0  0  0  0  0  0  0  0
  -24.6870  -10.0570   21.7810 C   0  0  0  0  0  3  0  0  0  0  0  0
  -23.9170   -8.8850   21.9390 C   0  0  0  0  0  3  0  0  0  0  0  0
  -22.7560   -8.6850   21.1580 C   0  0  0  0  0  0  0  0  0  0  0  0
  -22.3910   -9.6580   20.2100 C   0  0  0  0  0  3  0  0  0  0  0  0
  -23.1640  -10.8220   20.0500 C   0  0  0  0  0  3  0  0  0  0  0  0
  -21.9660   -7.5610   21.2230 O   0  0  0  0  0  0  0  0  0  0  0  0
  -21.8670   -6.8200   22.3760 C   0  0  0  0  0  0  0  0  0  0  0  0
  -21.4080   -7.3840   23.5870 C   0  0  0  0  0  3  0  0  0  0  0  0
  -21.2650   -6.5750   24.7320 C   0  0  0  0  0  3  0  0  0  0  0  0
  -21.5610   -5.1990   24.6620 C   0  0  0  0  0  0  0  0  0  0  0  0
  -22.0160   -4.6330   23.4560 C   0  0  0  0  0  3  0  0  0  0  0  0
  -22.1650   -5.4440   22.3150 C   0  0  0  0  0  0  0  0  0  0  0  0
  -22.5800   -4.8930   21.1490 F   0  0  0  0  0  0  0  0  0  0  0  0
  -21.4120   -4.4160   25.7540 F   0  0  0  0  0  0  0  0  0  0  0  0
  -23.2740  -14.1670   20.9310 C   0  0  0  0  0  0  0  0  0  0  0  0
  -22.5000  -13.5020   21.7810 N   0  0  0  0  0  0  0  0  0  0  0  0
  -22.8790  -15.1980   20.3870 O   0  0  0  0  0  0  0  0  0  0  0  0
  -22.8130  -12.6670   22.2580 H   0  0  0  0  0  0  0  0  0  0  0  0
  -21.5610  -13.8330   21.9610 H   0  0  0  0  0  0  0  0  0  0  0  0
  -25.9800  -15.7520   20.1690 N   0  0  0  0  0  0  0  0  0  0  0  0
  -25.2380  -16.4410   20.2450 H   0  0  0  0  0  0  0  0  0  0  0  0
  -26.8720  -16.1570   19.9230 H   0  0  0  0  0  0  0  0  0  0  0  0
  1  4  2  0
  1  5  1  0
  2  7  1  0
  3  2  1  0
  3  8  1  0
  4  6  1  0
  5  3  2  0
  6 11  1  0
  6  2  2  0
  7 10  2  0
  7  9  1  0
  8  9  2  0
 12 14  1  0
 12  5  1  0
 13 24  2  0
 14 19  1  0
 15 23  1  0
 15 25  1  0
 16 22  1  0
 16 18  1  0
 17 23  1  0
 18 17  1  0
 19 18  2  0
 20 21  1  0
 20 14  2  0
 21 16  2  0
 22 15  1  0
 23 13  1  0
 25 27  2  0
 26 25  1  0
 28 26  1  0
 29 38  2  0
 29 34  1  0
 30 26  1  0
 30 34  1  0
 31 30  1  0
 32 33  1  0
 32 31  1  0
 33 29  1  0
 34 35  2  0
 35 36  1  0
 37 36  2  0
 38 37  1  0
 39 13  1  0
 39 40  1  0
 39 49  1  0
 40 43  1  0
 41 45  1  0
 41 40  1  0
 42 41  2  0
 45 44  1  0
 45 47  1  0
 47 48  1  0
 47 46  1  0
 49 52  1  1
 49 50  1  0
 51 49  1  0
 53  4  1  0
 54 55  1  0
 54 53  1  0
 55 56  1  0
 57 56  1  0
 57 58  1  0
 59 58  1  0
 60 65  1  0
 61 62  1  0
 61 60  1  0
 63 62  1  0
 63 70  1  0
 63 64  1  0
 65 59  1  0
 65 64  1  0
 66 59  2  0
 67 68  2  0
 68 87  1  0
 69 68  1  0
 69 72  1  0
 70 67  1  0
 70 71  1  0
 71 69  2  0
 72 73  1  0
 73 74  2  0
 75 78  1  0
 75 74  1  0
 76 75  2  0
 77 76  1  0
 77 72  2  0
 78 79  1  0
 79 80  1  0
 80 81  2  0
 82 81  1  0
 82 86  1  0
 83 82  2  0
 84 79  2  0
 84 83  1  0
 85 84  1  0
 87 88  1  0
 88 91  1  0
 88 90  1  0
 89 87  2  0
 92 93  1  0
 92 67  1  0
 94 92  1  0
M  ISO  4   5 101  12 101  58 100  59 100
M  END
>  <TORSDO>  (55) 
F 22

>  <SCORE>  (55) 
-10.818

>  <name>  (55) 
55

>  <ligand_id>  (55) 
55

>  <original_smiles>  (55) 
[H]c1c([H])c([H])c2c(c1[H])C([H])([H])C([H])([H])C([H])([H])C2([H])N([H])C(=O)C1([H])N(C(=O)C([H])(N([H])C(=O)C([H])(N([H])C([H])([H])[H])C([H])([H])[H])C(C([H])([H])[H])(C([H])([H])[H])C([H])([H])[H])C([H])([H])c2c([H])c(Oc3c([H])c(C([H])([H])C([H])([H])C([H])([H])C([H])([H])C([H])([H])C([H])([H])C(=O)N4C([H])([H])C([H])([H])C([H])([H])C([H])(n5nc(-c6c([H])c([H])c(Oc7c([H])c([H])c(F)c([H])c7F)c([H])c6[H])c(C(=O)N([H])[H])c5N([H])[H])C4([H])[H])c(F)c4c3C([H])([H])C([H])([H])C4=O)c([H])c([H])c2C1([H])[H]

>  <smiles>  (55) 
[H]c1c([H])c([H])c2c(c1[H])C([H])([H])C([H])([H])C([H])([H])C2([H])N([H])C(=O)C1([H])N(C(=O)C([H])(N([H])C(=O)C([H])(N([H])C([H])([H])[H])C([H])([H])[H])C(C([H])([H])[H])(C([H])([H])[H])C([H])([H])[H])C([H])([H])c2c([H])c(Oc3c([H])c(C([H])([H])C([H])([H])C([H])([H])C([H])([H])C([H])([H])C([H])([H])C(=O)N4C([H])([H])C([H])([H])C([H])([H])C([H])(n5nc(-c6c([H])c([H])c(Oc7c([H])c([H])c(F)c([H])c7F)c([H])c6[H])c(C(=O)N([H])[H])c5N([H])[H])C4([H])[H])c(F)c4c3C([H])([H])C([H])([H])C4=O)c([H])c([H])c2C1([H])[H]

$$$$
56:0:0
     RDKit          3D

 96105  0  0  1  0  0  0  0  0999 V2000
  -31.6090  -21.8710   20.6190 C   0  0  0  0  0  3  0  0  0  0  0  0
  -29.3540  -21.8630   19.7260 C   0  0  0  0  0  3  0  0  0  0  0  0
  -30.3520  -22.5140   20.4950 C   0  0  0  0  0  0  0  0  0  0  0  0
  -30.8510  -20.0010   19.2350 C   0  0  0  0  0  0  0  0  0  0  0  0
  -31.8600  -20.6420   19.9820 C   0  0  0  0  0  0  0  0  0  0  0  0
  -29.5920  -20.6210   19.1100 C   0  0  0  0  0  0  0  0  0  0  0  0
  -33.0890  -20.0810   20.0870 F   0  0  0  0  0  0  0  0  0  0  0  0
  -28.6050  -20.0370   18.3850 F   0  0  0  0  0  0  0  0  0  0  0  0
  -27.6250  -23.6620   22.1160 C   0  0  0  0  0  2  0  0  0  0  0  0
  -27.1440  -24.8200   21.2170 C   0  0  0  0  0  2  0  0  0  0  0  0
  -29.1350  -23.6750   22.4010 C   0  0  0  0  0  2  0  0  0  0  0  0
  -29.4200  -24.8470   20.1190 C   0  0  0  0  0  2  0  0  0  0  0  0
  -28.2760  -25.7170   20.6540 C   0  0  0  0  0  3  0  0  0  0  0  0
  -30.0530  -23.8780   21.1610 C   0  0  2  0  0  0  0  0  0  0  0  0
  -31.3390  -24.5580   21.6870 C   0  0  0  0  0  1  0  0  0  0  0  0
  -27.8870  -26.5110   19.5300 O   0  0  0  0  0  0  0  0  0  0  0  0
  -24.3950  -31.6670   22.9910 C   0  0  0  0  0  0  0  0  0  0  0  0
  -26.7600  -27.2800   19.6640 C   0  0  0  0  0  0  0  0  0  0  0  0
  -23.0790  -30.3770   21.3380 C   0  0  0  0  0  3  0  0  0  0  0  0
  -24.4260  -28.8460   19.8110 C   0  0  0  0  0  0  0  0  0  0  0  0
  -25.6050  -30.6560   21.0670 C   0  0  0  0  0  2  0  0  0  0  0  0
  -25.6170  -29.3060   20.3870 C   0  0  0  0  0  0  0  0  0  0  0  0
  -26.7910  -28.5240   20.3220 C   0  0  0  0  0  3  0  0  0  0  0  0
  -25.5620  -26.8320   19.0720 C   0  0  0  0  0  3  0  0  0  0  0  0
  -24.3880  -27.6040   19.1540 C   0  0  0  0  0  3  0  0  0  0  0  0
  -23.2170  -29.7460   19.9270 C   0  0  0  0  0  2  0  0  0  0  0  0
  -24.3800  -30.9120   21.8580 N   0  0  0  0  0  0  0  0  0  0  0  0
  -23.3440  -31.9590   23.5790 O   0  0  0  0  0  0  0  0  0  0  0  0
  -22.4230  -29.3420   22.2790 C   0  0  0  0  0  0  0  0  0  0  0  0
  -21.0860  -29.2370   22.2080 N   0  0  0  0  0  0  0  0  0  0  0  0
  -23.1090  -28.6390   23.0250 O   0  0  0  0  0  0  0  0  0  0  0  0
  -20.5960  -29.8520   21.5750 H   0  0  0  0  0  0  0  0  0  0  0  0
  -17.6750  -28.2320   22.8340 C   0  0  0  0  0  0  0  0  0  0  0  0
  -20.2540  -28.3080   22.9710 C   0  0  0  0  0  3  0  0  0  0  0  0
  -20.2300  -26.9120   22.3080 C   0  0  0  0  0  2  0  0  0  0  0  0
  -19.0530  -26.7220   21.3440 C   0  0  0  0  0  2  0  0  0  0  0  0
  -17.7220  -26.9170   22.0760 C   0  0  0  0  0  2  0  0  0  0  0  0
  -18.8640  -28.8930   23.2410 C   0  0  0  0  0  0  0  0  0  0  0  0
  -18.7650  -30.1310   23.9130 C   0  0  0  0  0  3  0  0  0  0  0  0
  -17.5080  -30.7070   24.1770 C   0  0  0  0  0  3  0  0  0  0  0  0
  -16.3330  -30.0400   23.7890 C   0  0  0  0  0  3  0  0  0  0  0  0
  -16.4190  -28.8040   23.1240 C   0  0  0  0  0  3  0  0  0  0  0  0
  -25.7260  -32.2180   23.5900 C   0  0  0  0  0  3  0  0  0  0  0  0
  -25.4810  -33.6020   24.0130 N   0  0  0  0  0  0  0  0  0  0  0  0
  -25.8520  -34.6850   23.3160 C   0  0  0  0  0  0  0  0  0  0  0  0
  -26.5130  -34.6190   22.2760 O   0  0  0  0  0  0  0  0  0  0  0  0
  -24.8960  -33.7320   24.8260 H   0  0  0  0  0  0  0  0  0  0  0  0
  -24.2180  -36.5760   23.0590 C   0  0  0  0  0  1  0  0  0  0  0  0
  -25.4230  -36.0590   23.8610 C   0  0  0  0  0  3  0  0  0  0  0  0
  -27.5790  -36.7830   24.7870 C   0  0  0  0  0  1  0  0  0  0  0  0
  -26.5070  -37.0660   23.8350 N   0  0  0  0  0  0  0  0  0  0  0  0
  -26.1430  -37.9940   24.0350 H   0  0  0  0  0  0  0  0  0  0  0  0
  -26.2710  -31.3520   24.7910 C   0  0  1  0  0  0  0  0  0  0  0  0
  -25.2190  -31.0850   25.8910 C   0  0  0  0  0  1  0  0  0  0  0  0
  -26.7860  -29.9830   24.2840 C   0  0  0  0  0  1  0  0  0  0  0  0
  -27.4790  -32.0640   25.4470 C   0  0  0  0  0  1  0  0  0  0  0  0
  -31.1430  -18.6820   18.5370 C   0  0  0  0  0  2  0  0  0  0  0  0
  -31.4060  -17.5100   19.5000 C   0  0  0  0  0  2  0  0  0  0  0  0
  -30.1270  -16.8540   20.0680 C   0  0  0  0  0  2  0  0  0  0  0  0
  -30.3480  -15.6480   21.0220 C   0  0  0  0  0  2  0  0  0  0  0  0
  -30.9210  -14.4010   20.3200 C   0  0  0  0  0  0  0  0  0  0  0  0
  -30.5110  -12.3000   19.1050 C   0  0  0  0  0  2  0  0  0  0  0  0
  -29.5530  -12.5880   17.9330 C   0  0  0  0  0  2  0  0  0  0  0  0
  -28.0860  -12.4830   18.3950 C   0  0  0  0  0  2  0  0  0  0  0  0
  -27.8080  -13.2900   19.6930 C   0  0  0  0  0  3  0  0  0  0  0  0
  -28.8780  -12.9790   20.7610 C   0  0  0  0  0  2  0  0  0  0  0  0
  -30.1970  -13.2600   20.1750 N   0  0  0  0  0  0  0  0  0  0  0  0
  -32.0410  -14.5180   19.8140 O   0  0  0  0  0  0  0  0  0  0  0  0
  -25.4330  -13.9440   20.4400 C   0  0  0  0  0  0  0  0  0  0  0  0
  -24.3540  -13.1930   20.8240 C   0  0  0  0  0  0  0  0  0  0  0  0
  -24.7850  -11.8300   20.7750 C   0  0  0  0  0  0  0  0  0  0  0  0
  -26.4560  -13.0420   20.1900 N   0  0  0  0  0  0  0  0  0  0  0  0
  -26.0680  -11.7660   20.4430 N   0  0  0  0  0  0  0  0  0  0  0  0
  -24.0350  -10.5830   20.9710 C   0  0  0  0  0  0  0  0  0  0  0  0
  -24.4600   -9.6040   21.8960 C   0  0  0  0  0  3  0  0  0  0  0  0
  -23.7160   -8.4190   22.0800 C   0  0  0  0  0  3  0  0  0  0  0  0
  -22.5280   -8.2070   21.3410 C   0  0  0  0  0  0  0  0  0  0  0  0
  -22.1190   -9.1750   20.4070 C   0  0  0  0  0  3  0  0  0  0  0  0
  -22.8650  -10.3510   20.2200 C   0  0  0  0  0  3  0  0  0  0  0  0
  -21.7530   -7.0750   21.4330 O   0  0  0  0  0  0  0  0  0  0  0  0
  -21.7070   -6.3290   22.5820 C   0  0  0  0  0  0  0  0  0  0  0  0
  -21.2880   -6.8800   23.8130 C   0  0  0  0  0  3  0  0  0  0  0  0
  -21.1890   -6.0600   24.9550 C   0  0  0  0  0  3  0  0  0  0  0  0
  -21.4970   -4.6890   24.8660 C   0  0  0  0  0  0  0  0  0  0  0  0
  -21.9080   -4.1370   23.6400 C   0  0  0  0  0  3  0  0  0  0  0  0
  -22.0090   -4.9550   22.5000 C   0  0  0  0  0  0  0  0  0  0  0  0
  -22.3850   -4.4130   21.3170 F   0  0  0  0  0  0  0  0  0  0  0  0
  -21.3940   -3.8990   25.9600 F   0  0  0  0  0  0  0  0  0  0  0  0
  -22.9730  -13.6980   21.1240 C   0  0  0  0  0  0  0  0  0  0  0  0
  -22.2440  -13.0140   22.0010 N   0  0  0  0  0  0  0  0  0  0  0  0
  -22.5450  -14.7360   20.6210 O   0  0  0  0  0  0  0  0  0  0  0  0
  -22.5990  -12.1740   22.4330 H   0  0  0  0  0  0  0  0  0  0  0  0
  -21.3180  -13.3400   22.2450 H   0  0  0  0  0  0  0  0  0  0  0  0
  -25.6270  -15.3100   20.2660 N   0  0  0  0  0  0  0  0  0  0  0  0
  -24.8850  -15.9870   20.3980 H   0  0  0  0  0  0  0  0  0  0  0  0
  -26.4950  -15.7290   19.9580 H   0  0  0  0  0  0  0  0  0  0  0  0
  2  3  2  0
  3  1  1  0
  3 14  1  0
  4  5  1  0
  5  7  1  0
  5  1  2  0
  6  4  2  0
  6  2  1  0
  8  6  1  0
  9 11  1  0
 10  9  1  0
 12 13  1  0
 12 14  1  0
 13 16  1  0
 13 10  1  0
 14 15  1  1
 14 11  1  0
 16 18  1  0
 17 28  2  0
 18 23  1  0
 19 27  1  0
 19 29  1  0
 20 26  1  0
 20 22  1  0
 21 27  1  0
 22 21  1  0
 23 22  2  0
 24 25  1  0
 24 18  2  0
 25 20  2  0
 26 19  1  0
 27 17  1  0
 29 31  2  0
 30 29  1  0
 32 30  1  0
 33 42  2  0
 33 38  1  0
 34 30  1  0
 34 38  1  0
 35 34  1  0
 36 37  1  0
 36 35  1  0
 37 33  1  0
 38 39  2  0
 39 40  1  0
 41 40  2  0
 42 41  1  0
 43 17  1  0
 43 44  1  0
 43 53  1  0
 44 47  1  0
 45 49  1  0
 45 44  1  0
 46 45  2  0
 49 48  1  0
 51 49  1  0
 51 52  1  0
 51 50  1  0
 53 56  1  1
 53 54  1  0
 55 53  1  0
 57  4  1  0
 57 58  1  0
 58 59  1  0
 59 60  1  0
 61 60  1  0
 62 67  1  0
 63 64  1  0
 63 62  1  0
 65 64  1  0
 65 72  1  0
 65 66  1  0
 67 61  1  0
 67 66  1  0
 68 61  2  0
 69 70  2  0
 70 89  1  0
 71 70  1  0
 71 74  1  0
 72 69  1  0
 72 73  1  0
 73 71  2  0
 74 75  1  0
 75 76  2  0
 77 80  1  0
 77 76  1  0
 78 77  2  0
 79 78  1  0
 79 74  2  0
 80 81  1  0
 81 82  1  0
 82 83  2  0
 84 83  1  0
 84 88  1  0
 85 84  2  0
 86 81  2  0
 86 85  1  0
 87 86  1  0
 89 90  1  0
 90 93  1  0
 90 92  1  0
 91 89  2  0
 94 95  1  0
 94 69  1  0
 96 94  1  0
M  ISO  4  13 101  16 101  60 100  61 100
M  END
>  <TORSDO>  (56) 
F 21

>  <SCORE>  (56) 
-12.412

>  <name>  (56) 
56

>  <ligand_id>  (56) 
56

>  <original_smiles>  (56) 
[H]c1c([H])c([H])c2c(c1[H])C([H])([H])C([H])([H])C([H])([H])C2([H])N([H])C(=O)C1([H])N(C(=O)C([H])(N([H])C(=O)C([H])(N([H])C([H])([H])[H])C([H])([H])[H])C(C([H])([H])[H])(C([H])([H])[H])C([H])([H])[H])C([H])([H])c2c([H])c(OC3([H])C([H])([H])C([H])([H])C([H])([H])C(c4c([H])c(F)c(C([H])([H])C([H])([H])C([H])([H])C([H])([H])C(=O)N5C([H])([H])C([H])([H])C([H])([H])C([H])(n6nc(-c7c([H])c([H])c(Oc8c([H])c([H])c(F)c([H])c8F)c([H])c7[H])c(C(=O)N([H])[H])c6N([H])[H])C5([H])[H])c(F)c4[H])(C([H])([H])[H])C3([H])[H])c([H])c([H])c2C1([H])[H]

>  <smiles>  (56) 
[H]c1c([H])c([H])c2c(c1[H])C([H])([H])C([H])([H])C([H])([H])C2([H])N([H])C(=O)C1([H])N(C(=O)C([H])(N([H])C(=O)C([H])(N([H])C([H])([H])[H])C([H])([H])[H])C(C([H])([H])[H])(C([H])([H])[H])C([H])([H])[H])C([H])([H])c2c([H])c(OC3([H])C([H])([H])C([H])([H])C([H])([H])C(c4c([H])c(F)c(C([H])([H])C([H])([H])C([H])([H])C([H])([H])C(=O)N5C([H])([H])C([H])([H])C([H])([H])C([H])(n6nc(-c7c([H])c([H])c(Oc8c([H])c([H])c(F)c([H])c8F)c([H])c7[H])c(C(=O)N([H])[H])c6N([H])[H])C5([H])[H])c(F)c4[H])(C([H])([H])[H])C3([H])[H])c([H])c([H])c2C1([H])[H]

$$$$
57:0:0
     RDKit          3D

 94103  0  0  1  0  0  0  0  0999 V2000
  -30.4720  -17.2580   20.1630 C   0  0  0  0  0  0  0  0  0  0  0  0
  -29.9420  -20.0000   19.9210 C   0  0  0  0  0  0  0  0  0  0  0  0
  -28.8670  -19.5810   19.0920 C   0  0  0  0  0  0  0  0  0  0  0  0
  -30.6690  -18.7590   20.5080 C   0  0  0  0  0  0  0  0  0  0  0  0
  -29.7270  -17.2180   18.9480 C   0  0  0  0  0  0  0  0  0  0  0  0
  -28.8280  -18.2540   18.5480 C   0  0  0  0  0  0  0  0  0  0  0  0
  -27.7520  -20.5570   18.6900 C   0  0  0  0  0  2  0  0  0  0  0  0
  -30.1800  -21.7290   20.1190 C   0  0  0  0  0  2  0  0  0  0  0  0
  -27.8650  -23.0110   19.5180 C   0  0  0  0  0  2  0  0  0  0  0  0
  -27.2750  -21.6000   19.7270 C   0  0  0  0  0  3  0  0  0  0  0  0
  -29.4090  -23.1980   19.3920 C   0  0  2  0  0  0  0  0  0  0  0  0
  -31.7570  -19.0490   21.5240 C   0  0  0  0  0  1  0  0  0  0  0  0
  -30.0820  -16.1720   17.8870 C   0  0  0  0  0  1  0  0  0  0  0  0
  -27.8080  -17.9470   17.4410 C   0  0  0  0  0  1  0  0  0  0  0  0
  -27.2110  -21.1270   21.2020 C   0  0  0  0  0  1  0  0  0  0  0  0
  -29.8220  -23.1650   17.9120 C   0  0  0  0  0  1  0  0  0  0  0  0
  -31.1810  -15.8040   20.6840 C   0  0  0  0  0  0  0  0  0  0  0  0
  -31.1960  -13.2450   20.2290 C   0  0  0  0  0  2  0  0  0  0  0  0
  -30.4690  -12.8310   18.9220 C   0  0  0  0  0  2  0  0  0  0  0  0
  -28.9460  -12.7250   19.1280 C   0  0  0  0  0  2  0  0  0  0  0  0
  -28.3700  -13.8380   20.0410 C   0  0  0  0  0  3  0  0  0  0  0  0
  -29.2460  -14.1270   21.2710 C   0  0  0  0  0  2  0  0  0  0  0  0
  -30.5800  -14.5110   20.7690 N   0  0  0  0  0  0  0  0  0  0  0  0
  -32.4170  -15.7440   20.7810 O   0  0  0  0  0  0  0  0  0  0  0  0
  -25.9610  -14.5800   20.3920 C   0  0  0  0  0  0  0  0  0  0  0  0
  -24.8070  -13.8850   20.6260 C   0  0  0  0  0  0  0  0  0  0  0  0
  -25.1850  -12.5130   20.7420 C   0  0  0  0  0  0  0  0  0  0  0  0
  -26.9670  -13.6310   20.3650 N   0  0  0  0  0  0  0  0  0  0  0  0
  -26.5030  -12.3880   20.6420 N   0  0  0  0  0  0  0  0  0  0  0  0
  -24.3640  -11.3070   20.8850 C   0  0  0  0  0  0  0  0  0  0  0  0
  -24.6720  -10.3130   21.8380 C   0  0  0  0  0  3  0  0  0  0  0  0
  -23.8520   -9.1720   21.9700 C   0  0  0  0  0  3  0  0  0  0  0  0
  -22.7110   -9.0180   21.1480 C   0  0  0  0  0  0  0  0  0  0  0  0
  -22.4210  -10.0020   20.1880 C   0  0  0  0  0  3  0  0  0  0  0  0
  -23.2400  -11.1340   20.0520 C   0  0  0  0  0  3  0  0  0  0  0  0
  -21.8710   -7.9330   21.1910 O   0  0  0  0  0  0  0  0  0  0  0  0
  -21.8180   -7.1070   22.2840 C   0  0  0  0  0  0  0  0  0  0  0  0
  -21.5270   -7.5970   23.5780 C   0  0  0  0  0  3  0  0  0  0  0  0
  -21.4150   -6.7000   24.6600 C   0  0  0  0  0  3  0  0  0  0  0  0
  -21.5840   -5.3180   24.4530 C   0  0  0  0  0  0  0  0  0  0  0  0
  -21.8690   -4.8300   23.1640 C   0  0  0  0  0  3  0  0  0  0  0  0
  -21.9820   -5.7210   22.0850 C   0  0  0  0  0  0  0  0  0  0  0  0
  -22.2350   -5.2430   20.8430 F   0  0  0  0  0  0  0  0  0  0  0  0
  -21.4690   -4.4570   25.4900 F   0  0  0  0  0  0  0  0  0  0  0  0
  -23.4190  -14.4560   20.6470 C   0  0  0  0  0  0  0  0  0  0  0  0
  -22.5300  -13.8680   21.4380 N   0  0  0  0  0  0  0  0  0  0  0  0
  -23.1300  -15.4590   19.9960 O   0  0  0  0  0  0  0  0  0  0  0  0
  -22.7740  -13.0610   21.9930 H   0  0  0  0  0  0  0  0  0  0  0  0
  -21.5900  -14.2370   21.4990 H   0  0  0  0  0  0  0  0  0  0  0  0
  -26.2370  -15.9260   20.1760 N   0  0  0  0  0  0  0  0  0  0  0  0
  -25.5130  -16.6330   20.1610 H   0  0  0  0  0  0  0  0  0  0  0  0
  -27.1650  -16.3050   20.0200 H   0  0  0  0  0  0  0  0  0  0  0  0
  -29.5800  -24.9510   19.7860 C   0  0  0  0  0  2  0  0  0  0  0  0
  -29.1240  -26.4230   19.2170 O   0  0  0  0  0  0  0  0  0  0  0  0
  -24.8030  -31.2930   23.0620 C   0  0  0  0  0  0  0  0  0  0  0  0
  -27.9400  -27.2870   19.4300 C   0  0  0  0  0  0  0  0  0  0  0  0
  -23.7940  -30.0330   21.2000 C   0  0  0  0  0  3  0  0  0  0  0  0
  -25.4350  -28.8450   19.5970 C   0  0  0  0  0  0  0  0  0  0  0  0
  -26.3140  -30.5780   21.1520 C   0  0  0  0  0  2  0  0  0  0  0  0
  -26.5590  -29.2990   20.3020 C   0  0  0  0  0  0  0  0  0  0  0  0
  -27.8060  -28.5460   20.1900 C   0  0  0  0  0  3  0  0  0  0  0  0
  -26.7710  -26.9690   18.7070 C   0  0  0  0  0  3  0  0  0  0  0  0
  -25.5610  -27.7060   18.7830 C   0  0  0  0  0  3  0  0  0  0  0  0
  -24.1170  -29.5980   19.7440 C   0  0  0  0  0  2  0  0  0  0  0  0
  -24.9880  -30.6530   21.8650 N   0  0  0  0  0  0  0  0  0  0  0  0
  -23.6830  -31.3700   23.5950 O   0  0  0  0  0  0  0  0  0  0  0  0
  -23.2210  -28.8270   21.9870 C   0  0  0  0  0  0  0  0  0  0  0  0
  -21.9380  -28.4900   21.7650 N   0  0  0  0  0  0  0  0  0  0  0  0
  -23.9390  -28.1970   22.7680 O   0  0  0  0  0  0  0  0  0  0  0  0
  -21.4000  -29.0550   21.1240 H   0  0  0  0  0  0  0  0  0  0  0  0
  -18.7840  -26.7010   21.8550 C   0  0  0  0  0  0  0  0  0  0  0  0
  -21.2390  -27.3470   22.3600 C   0  0  0  0  0  3  0  0  0  0  0  0
  -21.6210  -26.0290   21.6480 C   0  0  0  0  0  2  0  0  0  0  0  0
  -20.6600  -25.6530   20.5160 C   0  0  0  0  0  2  0  0  0  0  0  0
  -19.2340  -25.4910   21.0520 C   0  0  0  0  0  2  0  0  0  0  0  0
  -19.7240  -27.5800   22.4560 C   0  0  0  0  0  0  0  0  0  0  0  0
  -19.2520  -28.7050   23.1650 C   0  0  0  0  0  3  0  0  0  0  0  0
  -17.8720  -28.9590   23.2780 C   0  0  0  0  0  3  0  0  0  0  0  0
  -16.9460  -28.0780   22.6940 C   0  0  0  0  0  3  0  0  0  0  0  0
  -17.4010  -26.9500   21.9880 C   0  0  0  0  0  3  0  0  0  0  0  0
  -25.9870  -31.9780   23.8130 C   0  0  0  0  0  3  0  0  0  0  0  0
  -25.5300  -33.3000   24.2740 N   0  0  0  0  0  0  0  0  0  0  0  0
  -25.8150  -34.4620   23.6710 C   0  0  0  0  0  0  0  0  0  0  0  0
  -26.5490  -34.5390   22.6840 O   0  0  0  0  0  0  0  0  0  0  0  0
  -24.8810  -33.3130   25.0460 H   0  0  0  0  0  0  0  0  0  0  0  0
  -23.9470  -36.1350   23.4280 C   0  0  0  0  0  1  0  0  0  0  0  0
  -25.1840  -35.7440   24.2540 C   0  0  0  0  0  3  0  0  0  0  0  0
  -27.1830  -36.7110   25.3020 C   0  0  0  0  0  1  0  0  0  0  0  0
  -26.1210  -36.8870   24.3140 N   0  0  0  0  0  0  0  0  0  0  0  0
  -25.6240  -37.7460   24.5360 H   0  0  0  0  0  0  0  0  0  0  0  0
  -26.5170  -31.1300   25.0340 C   0  0  1  0  0  0  0  0  0  0  0  0
  -25.4100  -30.7070   26.0280 C   0  0  0  0  0  1  0  0  0  0  0  0
  -27.2260  -29.8450   24.5490 C   0  0  0  0  0  1  0  0  0  0  0  0
  -27.5770  -31.9440   25.8160 C   0  0  0  0  0  1  0  0  0  0  0  0
  1  4  1  0
  1 17  1  0
  2  8  1  0
  2  4  2  0
  3  2  1  0
  4 12  1  0
  5  1  2  0
  6  5  1  0
  6  3  2  0
  7  3  1  0
  7 10  1  0
  9 10  1  0
 10 15  1  0
 11 16  1  6
 11  9  1  0
 11 53  1  0
 11  8  1  0
 13  5  1  0
 14  6  1  0
 17 23  1  0
 17 24  2  0
 18 23  1  0
 19 20  1  0
 19 18  1  0
 21 20  1  0
 21 28  1  0
 21 22  1  0
 23 22  1  0
 25 26  2  0
 26 45  1  0
 26 27  1  0
 27 30  1  0
 28 25  1  0
 28 29  1  0
 29 27  2  0
 30 31  1  0
 31 32  2  0
 33 36  1  0
 33 32  1  0
 34 33  2  0
 35 34  1  0
 35 30  2  0
 36 37  1  0
 37 38  1  0
 38 39  2  0
 40 39  1  0
 40 44  1  0
 41 40  2  0
 42 37  2  0
 42 41  1  0
 43 42  1  0
 45 46  1  0
 46 49  1  0
 46 48  1  0
 47 45  2  0
 50 25  1  0
 51 50  1  0
 52 50  1  0
 54 56  1  0
 54 53  1  0
 55 66  2  0
 56 61  1  0
 57 65  1  0
 57 67  1  0
 58 64  1  0
 58 60  1  0
 59 65  1  0
 60 59  1  0
 61 60  2  0
 62 63  1  0
 62 56  2  0
 63 58  2  0
 64 57  1  0
 65 55  1  0
 67 69  2  0
 68 67  1  0
 70 68  1  0
 71 80  2  0
 71 76  1  0
 72 68  1  0
 72 76  1  0
 73 72  1  0
 74 75  1  0
 74 73  1  0
 75 71  1  0
 76 77  2  0
 77 78  1  0
 79 78  2  0
 80 79  1  0
 81 55  1  0
 81 82  1  0
 81 91  1  0
 82 85  1  0
 83 87  1  0
 83 82  1  0
 84 83  2  0
 87 86  1  0
 87 89  1  0
 89 90  1  0
 89 88  1  0
 91 94  1  1
 91 92  1  0
 93 91  1  0
M  ISO  4   1 100  17 100  53 101  54 101
M  END
>  <TORSDO>  (57) 
F 17

>  <SCORE>  (57) 
-9.509

>  <name>  (57) 
57

>  <ligand_id>  (57) 
57

>  <original_smiles>  (57) 
[H]c1c([H])c([H])c2c(c1[H])C([H])([H])C([H])([H])C([H])([H])C2([H])N([H])C(=O)C1([H])N(C(=O)C([H])(N([H])C(=O)C([H])(N([H])C([H])([H])[H])C([H])([H])[H])C(C([H])([H])[H])(C([H])([H])[H])C([H])([H])[H])C([H])([H])c2c([H])c(OC([H])([H])C3(C([H])([H])[H])C([H])([H])c4c(C([H])([H])[H])c(C(=O)N5C([H])([H])C([H])([H])C([H])([H])C([H])(n6nc(-c7c([H])c([H])c(Oc8c([H])c([H])c(F)c([H])c8F)c([H])c7[H])c(C(=O)N([H])[H])c6N([H])[H])C5([H])[H])c(C([H])([H])[H])c(C([H])([H])[H])c4C([H])([H])C([H])(C([H])([H])[H])C3([H])[H])c([H])c([H])c2C1([H])[H]

>  <smiles>  (57) 
[H]c1c([H])c([H])c2c(c1[H])C([H])([H])C([H])([H])C([H])([H])C2([H])N([H])C(=O)C1([H])N(C(=O)C([H])(N([H])C(=O)C([H])(N([H])C([H])([H])[H])C([H])([H])[H])C(C([H])([H])[H])(C([H])([H])[H])C([H])([H])[H])C([H])([H])c2c([H])c(OC([H])([H])C3(C([H])([H])[H])C([H])([H])c4c(C([H])([H])[H])c(C(=O)N5C([H])([H])C([H])([H])C([H])([H])C([H])(n6nc(-c7c([H])c([H])c(Oc8c([H])c([H])c(F)c([H])c8F)c([H])c7[H])c(C(=O)N([H])[H])c6N([H])[H])C5([H])[H])c(C([H])([H])[H])c(C([H])([H])[H])c4C([H])([H])C([H])(C([H])([H])[H])C3([H])[H])c([H])c([H])c2C1([H])[H]

$$$$
58:0:0
     RDKit          3D

 96105  0  0  1  0  0  0  0  0999 V2000
  -29.0010  -21.3460   17.5140 C   0  0  0  0  0  2  0  0  0  0  0  0
  -29.2240  -19.9100   18.0200 C   0  0  0  0  0  2  0  0  0  0  0  0
  -27.9940  -22.1030   18.3930 C   0  0  0  0  0  2  0  0  0  0  0  0
  -28.5310  -20.6300   20.3650 C   0  0  0  0  0  2  0  0  0  0  0  0
  -29.5800  -19.8710   19.5210 C   0  0  0  0  0  3  0  0  0  0  0  0
  -28.4420  -22.0980   19.8710 C   0  0  0  0  0  3  0  0  0  0  0  0
  -28.9730  -17.5440   20.5100 C   0  0  0  0  0  3  0  0  0  0  0  0
  -31.2360  -18.0190   19.8690 C   0  0  0  0  0  3  0  0  0  0  0  0
  -30.5800  -15.6710   20.3000 C   0  0  0  0  0  0  0  0  0  0  0  0
  -29.9090  -18.4460   19.9680 C   0  0  0  0  0  0  0  0  0  0  0  0
  -29.3370  -16.1980   20.7790 C   0  0  0  0  0  0  0  0  0  0  0  0
  -31.5890  -16.6760   20.0850 C   0  0  0  0  0  0  0  0  0  0  0  0
  -28.5180  -15.5270   21.8650 C   0  0  0  0  0  1  0  0  0  0  0  0
  -33.0920  -16.4060   20.0390 C   0  0  0  0  0  1  0  0  0  0  0  0
  -30.8370  -14.2580   19.7050 C   0  0  0  0  0  0  0  0  0  0  0  0
  -30.1860  -12.2220   18.4680 C   0  0  0  0  0  2  0  0  0  0  0  0
  -29.1370  -12.5620   17.3900 C   0  0  0  0  0  2  0  0  0  0  0  0
  -27.7150  -12.4620   17.9700 C   0  0  0  0  0  2  0  0  0  0  0  0
  -27.5760  -13.1910   19.3360 C   0  0  0  0  0  3  0  0  0  0  0  0
  -28.7490  -12.8090   20.2710 C   0  0  0  0  0  2  0  0  0  0  0  0
  -30.0000  -13.1700   19.5990 N   0  0  0  0  0  0  0  0  0  0  0  0
  -31.8850  -14.1970   19.0620 O   0  0  0  0  0  0  0  0  0  0  0  0
  -25.2570  -13.8240   20.2650 C   0  0  0  0  0  0  0  0  0  0  0  0
  -24.2250  -13.0640   20.7430 C   0  0  0  0  0  0  0  0  0  0  0  0
  -24.6530  -11.7060   20.6420 C   0  0  0  0  0  0  0  0  0  0  0  0
  -26.2690  -12.9300   19.9370 N   0  0  0  0  0  0  0  0  0  0  0  0
  -25.9070  -11.6490   20.2090 N   0  0  0  0  0  0  0  0  0  0  0  0
  -23.9200  -10.4550   20.8810 C   0  0  0  0  0  0  0  0  0  0  0  0
  -24.3990   -9.4780   21.7790 C   0  0  0  0  0  3  0  0  0  0  0  0
  -23.6680   -8.2910   22.0030 C   0  0  0  0  0  3  0  0  0  0  0  0
  -22.4430   -8.0760   21.3290 C   0  0  0  0  0  0  0  0  0  0  0  0
  -21.9820   -9.0410   20.4180 C   0  0  0  0  0  3  0  0  0  0  0  0
  -22.7130  -10.2200   20.1910 C   0  0  0  0  0  3  0  0  0  0  0  0
  -21.6750   -6.9440   21.4670 O   0  0  0  0  0  0  0  0  0  0  0  0
  -21.6740   -6.2120   22.6280 C   0  0  0  0  0  0  0  0  0  0  0  0
  -21.3210   -6.7840   23.8700 C   0  0  0  0  0  3  0  0  0  0  0  0
  -21.2670   -5.9800   25.0260 C   0  0  0  0  0  3  0  0  0  0  0  0
  -21.5540   -4.6040   24.9420 C   0  0  0  0  0  0  0  0  0  0  0  0
  -21.9000   -4.0320   23.7050 C   0  0  0  0  0  3  0  0  0  0  0  0
  -21.9580   -4.8340   22.5520 C   0  0  0  0  0  0  0  0  0  0  0  0
  -22.2720   -4.2720   21.3600 F   0  0  0  0  0  0  0  0  0  0  0  0
  -21.4950   -3.8300   26.0510 F   0  0  0  0  0  0  0  0  0  0  0  0
  -22.8760  -13.5680   21.1710 C   0  0  0  0  0  0  0  0  0  0  0  0
  -22.2390  -12.8860   22.1160 N   0  0  0  0  0  0  0  0  0  0  0  0
  -22.4000  -14.6040   20.7040 O   0  0  0  0  0  0  0  0  0  0  0  0
  -22.6360  -12.0480   22.5120 H   0  0  0  0  0  0  0  0  0  0  0  0
  -21.3410  -13.2080   22.4480 H   0  0  0  0  0  0  0  0  0  0  0  0
  -25.4020  -15.1920   20.0630 N   0  0  0  0  0  0  0  0  0  0  0  0
  -24.6500  -15.8460   20.2530 H   0  0  0  0  0  0  0  0  0  0  0  0
  -26.2120  -15.6270   19.6400 H   0  0  0  0  0  0  0  0  0  0  0  0
  -27.5420  -22.9370   20.6970 N   0  0  0  0  0  4  0  0  0  0  0  0
  -27.3360  -22.4320   21.5460 H   0  0  0  0  0  0  0  0  0  0  0  0
  -26.6620  -23.0450   20.2150 H   0  0  0  0  0  0  0  0  0  0  0  0
  -28.0640  -24.2760   21.1020 C   0  0  0  0  0  2  0  0  0  0  0  0
  -28.6060  -25.1580   19.9440 C   0  0  0  0  0  2  0  0  0  0  0  0
  -28.5970  -26.5530   20.2790 O   0  0  0  0  0  0  0  0  0  0  0  0
  -24.6330  -31.7020   23.1680 C   0  0  0  0  0  0  0  0  0  0  0  0
  -27.4030  -27.2450   20.2190 C   0  0  0  0  0  0  0  0  0  0  0  0
  -23.4890  -30.2660   21.5140 C   0  0  0  0  0  3  0  0  0  0  0  0
  -24.9940  -28.7310   20.1520 C   0  0  0  0  0  0  0  0  0  0  0  0
  -26.0170  -30.6490   21.3820 C   0  0  0  0  0  2  0  0  0  0  0  0
  -26.1310  -29.2720   20.7620 C   0  0  0  0  0  0  0  0  0  0  0  0
  -27.3380  -28.5370   20.7920 C   0  0  0  0  0  3  0  0  0  0  0  0
  -26.2380  -26.7200   19.6070 C   0  0  0  0  0  3  0  0  0  0  0  0
  -25.0430  -27.4540   19.5730 C   0  0  0  0  0  3  0  0  0  0  0  0
  -23.7430  -29.5740   20.1500 C   0  0  0  0  0  2  0  0  0  0  0  0
  -24.7290  -30.8890   22.0790 N   0  0  0  0  0  0  0  0  0  0  0  0
  -23.5340  -31.9690   23.6730 O   0  0  0  0  0  0  0  0  0  0  0  0
  -22.8240  -29.2460   22.4670 C   0  0  0  0  0  0  0  0  0  0  0  0
  -21.4970  -29.0890   22.3450 N   0  0  0  0  0  0  0  0  0  0  0  0
  -23.5000  -28.6010   23.2730 O   0  0  0  0  0  0  0  0  0  0  0  0
  -21.0150  -29.6620   21.6650 H   0  0  0  0  0  0  0  0  0  0  0  0
  -18.0940  -28.0060   22.8880 C   0  0  0  0  0  0  0  0  0  0  0  0
  -20.6640  -28.1630   23.1100 C   0  0  0  0  0  3  0  0  0  0  0  0
  -20.7020  -26.7440   22.4950 C   0  0  0  0  0  2  0  0  0  0  0  0
  -19.5660  -26.4880   21.4980 C   0  0  0  0  0  2  0  0  0  0  0  0
  -18.2060  -26.6680   22.1780 C   0  0  0  0  0  2  0  0  0  0  0  0
  -19.2490  -28.7150   23.3120 C   0  0  0  0  0  0  0  0  0  0  0  0
  -19.0910  -29.9720   23.9360 C   0  0  0  0  0  3  0  0  0  0  0  0
  -17.8090  -30.5170   24.1420 C   0  0  0  0  0  3  0  0  0  0  0  0
  -16.6680  -29.8030   23.7370 C   0  0  0  0  0  3  0  0  0  0  0  0
  -16.8120  -28.5490   23.1150 C   0  0  0  0  0  3  0  0  0  0  0  0
  -25.8950  -32.3560   23.8160 C   0  0  0  0  0  3  0  0  0  0  0  0
  -26.4160  -31.5780   25.0860 C   0  0  1  0  0  0  0  0  0  0  0  0
  -25.3180  -31.3020   26.1390 C   0  0  0  0  0  1  0  0  0  0  0  0
  -27.0320  -30.2190   24.6790 C   0  0  0  0  0  1  0  0  0  0  0  0
  -27.5430  -32.3870   25.7710 C   0  0  0  0  0  1  0  0  0  0  0  0
  -25.5470  -33.7390   24.1580 N   0  0  0  0  0  0  0  0  0  0  0  0
  -25.8600  -34.8090   23.4150 C   0  0  0  0  0  0  0  0  0  0  0  0
  -26.5440  -34.7350   22.3900 O   0  0  0  0  0  0  0  0  0  0  0  0
  -24.9410  -33.8710   24.9560 H   0  0  0  0  0  0  0  0  0  0  0  0
  -24.0860  -36.5560   23.0610 C   0  0  0  0  0  1  0  0  0  0  0  0
  -25.3300  -36.1780   23.8810 C   0  0  0  0  0  3  0  0  0  0  0  0
  -27.4310  -37.1090   24.7440 C   0  0  0  0  0  1  0  0  0  0  0  0
  -26.3350  -37.2610   23.7920 N   0  0  0  0  0  0  0  0  0  0  0  0
  -25.9010  -38.1670   23.9470 H   0  0  0  0  0  0  0  0  0  0  0  0
  1  2  1  0
  1  3  1  0
  2  5  1  0
  3  6  1  0
  5 10  1  0
  5  4  1  0
  6  4  1  0
  6 51  1  0
  7 11  1  0
  8 10  1  0
  8 12  2  0
  9 11  2  0
 10  7  2  0
 11 13  1  0
 12  9  1  0
 14 12  1  0
 15  9  1  0
 16 21  1  0
 17 18  1  0
 17 16  1  0
 19 18  1  0
 19 26  1  0
 19 20  1  0
 21 15  1  0
 21 20  1  0
 22 15  2  0
 23 24  2  0
 24 43  1  0
 25 24  1  0
 25 28  1  0
 26 27  1  0
 26 23  1  0
 27 25  2  0
 28 29  1  0
 29 30  2  0
 31 34  1  0
 31 30  1  0
 32 31  2  0
 33 32  1  0
 33 28  2  0
 34 35  1  0
 35 36  1  0
 36 37  2  0
 38 37  1  0
 38 42  1  0
 39 38  2  0
 40 35  2  0
 40 39  1  0
 41 40  1  0
 43 44  1  0
 44 47  1  0
 44 46  1  0
 45 43  2  0
 48 49  1  0
 48 23  1  0
 50 48  1  0
 51 54  1  0
 51 52  1  0
 53 51  1  0
 55 56  1  0
 55 54  1  0
 57 68  2  0
 58 56  1  0
 58 63  1  0
 59 67  1  0
 59 69  1  0
 60 62  1  0
 61 67  1  0
 62 63  2  0
 62 61  1  0
 64 58  2  0
 65 64  1  0
 65 60  2  0
 66 60  1  0
 66 59  1  0
 67 57  1  0
 69 71  2  0
 70 69  1  0
 72 70  1  0
 73 82  2  0
 73 78  1  0
 74 70  1  0
 74 78  1  0
 75 74  1  0
 76 77  1  0
 76 75  1  0
 77 73  1  0
 78 79  2  0
 79 80  1  0
 81 80  2  0
 82 81  1  0
 83 57  1  0
 83 88  1  0
 83 84  1  0
 84 87  1  1
 84 85  1  0
 86 84  1  0
 88 91  1  0
 89 93  1  0
 89 88  1  0
 90 89  2  0
 93 92  1  0
 95 93  1  0
 95 96  1  0
 95 94  1  0
M  ISO  4   9 100  15 100  55 101  56 101
M  END
>  <TORSDO>  (58) 
F 20

>  <SCORE>  (58) 
-11.826

>  <name>  (58) 
58

>  <ligand_id>  (58) 
58

>  <original_smiles>  (58) 
[H]c1c([H])c([H])c2c(c1[H])C([H])([H])C([H])([H])C([H])([H])C2([H])N([H])C(=O)C1([H])N(C(=O)C([H])(N([H])C(=O)C([H])(N([H])C([H])([H])[H])C([H])([H])[H])C(C([H])([H])[H])(C([H])([H])[H])C([H])([H])[H])C([H])([H])c2c([H])c(OC([H])([H])C([H])([H])[N+]([H])([H])C3([H])C([H])([H])C([H])([H])C([H])([H])C([H])(c4c([H])c(C([H])([H])[H])c(C(=O)N5C([H])([H])C([H])([H])C([H])([H])C([H])(n6nc(-c7c([H])c([H])c(Oc8c([H])c([H])c(F)c([H])c8F)c([H])c7[H])c(C(=O)N([H])[H])c6N([H])[H])C5([H])[H])c(C([H])([H])[H])c4[H])C3([H])[H])c([H])c([H])c2C1([H])[H]

>  <smiles>  (58) 
[H]c1c([H])c([H])c2c(c1[H])C([H])([H])C([H])([H])C([H])([H])C2([H])N([H])C(=O)C1([H])N(C(=O)C([H])(N([H])C(=O)C([H])(N([H])C([H])([H])[H])C([H])([H])[H])C(C([H])([H])[H])(C([H])([H])[H])C([H])([H])[H])C([H])([H])c2c([H])c(OC([H])([H])C([H])([H])[N+]([H])([H])C3([H])C([H])([H])C([H])([H])C([H])([H])C([H])(c4c([H])c(C([H])([H])[H])c(C(=O)N5C([H])([H])C([H])([H])C([H])([H])C([H])(n6nc(-c7c([H])c([H])c(Oc8c([H])c([H])c(F)c([H])c8F)c([H])c7[H])c(C(=O)N([H])[H])c6N([H])[H])C5([H])[H])c(C([H])([H])[H])c4[H])C3([H])[H])c([H])c([H])c2C1([H])[H]

$$$$
59:0:0
     RDKit          3D

 93103  0  0  1  0  0  0  0  0999 V2000
  -29.3090  -23.3990   22.4410 C   0  0  0  0  0  3  0  0  0  0  0  0
  -28.6240  -23.5490   19.7940 C   0  0  0  0  0  3  0  0  0  0  0  0
  -29.4090  -22.1960   21.6870 C   0  0  0  0  0  0  0  0  0  0  0  0
  -29.0320  -22.1960   20.3310 C   0  0  0  0  0  0  0  0  0  0  0  0
  -28.5350  -24.8470   20.5540 C   0  0  0  0  0  0  0  0  0  0  0  0
  -28.8910  -24.6550   21.9110 C   0  0  0  0  0  0  0  0  0  0  0  0
  -29.9500  -20.9540   22.3130 C   0  0  0  0  0  3  0  0  0  0  0  0
  -30.2250  -19.7650   21.7090 C   0  0  0  0  0  3  0  0  0  0  0  0
  -29.3110  -17.9440   20.0590 C   0  0  0  0  0  0  0  0  0  0  0  0
  -29.5320  -16.5050   20.0020 C   0  0  0  0  0  3  0  0  0  0  0  0
  -27.8860  -18.4170   19.7500 C   0  0  0  0  0  2  0  0  0  0  0  0
  -27.7460  -19.9770   19.7550 C   0  0  0  0  0  2  0  0  0  0  0  0
  -30.0070  -19.4220   20.2340 C   0  0  0  0  0  3  0  0  0  0  0  0
  -29.1120  -20.6940   19.6130 C   0  0  2  0  0  0  0  0  0  0  0  0
  -29.4770  -20.8690   18.1300 C   0  0  0  0  0  1  0  0  0  0  0  0
  -28.9020  -25.7300   22.7380 F   0  0  0  0  0  0  0  0  0  0  0  0
  -30.5620  -15.3000   19.9890 C   0  0  0  0  0  0  0  0  0  0  0  0
  -30.5500  -12.8790   19.1200 C   0  0  0  0  0  2  0  0  0  0  0  0
  -29.5620  -12.7360   17.9330 C   0  0  0  0  0  2  0  0  0  0  0  0
  -28.1260  -12.4710   18.4300 C   0  0  0  0  0  2  0  0  0  0  0  0
  -27.7310  -13.4210   19.5860 C   0  0  0  0  0  3  0  0  0  0  0  0
  -28.8310  -13.5110   20.6650 C   0  0  0  0  0  2  0  0  0  0  0  0
  -30.0610  -13.9820   20.0080 N   0  0  0  0  0  0  0  0  0  0  0  0
  -31.7690  -15.3930   19.7260 O   0  0  0  0  0  0  0  0  0  0  0  0
  -25.4060  -13.9960   20.4810 C   0  0  0  0  0  0  0  0  0  0  0  0
  -24.3590  -13.2180   20.8870 C   0  0  0  0  0  0  0  0  0  0  0  0
  -24.8100  -11.8660   20.7910 C   0  0  0  0  0  0  0  0  0  0  0  0
  -26.4260  -13.1170   20.1540 N   0  0  0  0  0  0  0  0  0  0  0  0
  -26.0820  -11.8290   20.4100 N   0  0  0  0  0  0  0  0  0  0  0  0
  -24.0860  -10.6040   20.9820 C   0  0  0  0  0  0  0  0  0  0  0  0
  -24.5040   -9.6470   21.9320 C   0  0  0  0  0  3  0  0  0  0  0  0
  -23.7780   -8.4500   22.1090 C   0  0  0  0  0  3  0  0  0  0  0  0
  -22.6190   -8.2010   21.3350 C   0  0  0  0  0  0  0  0  0  0  0  0
  -22.2200   -9.1470   20.3740 C   0  0  0  0  0  3  0  0  0  0  0  0
  -22.9470  -10.3360   20.1950 C   0  0  0  0  0  3  0  0  0  0  0  0
  -21.8670   -7.0550   21.4210 O   0  0  0  0  0  0  0  0  0  0  0  0
  -21.7250   -6.3750   22.6030 C   0  0  0  0  0  0  0  0  0  0  0  0
  -21.1420   -6.9730   23.7420 C   0  0  0  0  0  3  0  0  0  0  0  0
  -20.9520   -6.2150   24.9150 C   0  0  0  0  0  3  0  0  0  0  0  0
  -21.3340   -4.8600   24.9490 C   0  0  0  0  0  0  0  0  0  0  0  0
  -21.9090   -4.2620   23.8140 C   0  0  0  0  0  3  0  0  0  0  0  0
  -22.1010   -5.0170   22.6440 C   0  0  0  0  0  0  0  0  0  0  0  0
  -22.6350   -4.4290   21.5450 F   0  0  0  0  0  0  0  0  0  0  0  0
  -21.1440   -4.1310   26.0730 F   0  0  0  0  0  0  0  0  0  0  0  0
  -22.9800  -13.6970   21.2410 C   0  0  0  0  0  0  0  0  0  0  0  0
  -22.2870  -12.9810   22.1200 N   0  0  0  0  0  0  0  0  0  0  0  0
  -22.5280  -14.7420   20.7740 O   0  0  0  0  0  0  0  0  0  0  0  0
  -22.6660  -12.1370   22.5210 H   0  0  0  0  0  0  0  0  0  0  0  0
  -21.3650  -13.2860   22.3970 H   0  0  0  0  0  0  0  0  0  0  0  0
  -25.5690  -15.3700   20.3360 N   0  0  0  0  0  0  0  0  0  0  0  0
  -24.8070  -16.0180   20.5090 H   0  0  0  0  0  0  0  0  0  0  0  0
  -26.3890  -15.8200   19.9530 H   0  0  0  0  0  0  0  0  0  0  0  0
  -28.4020  -26.2670   20.1010 O   0  0  0  0  0  0  0  0  0  0  0  0
  -24.6430  -31.9590   23.1980 C   0  0  0  0  0  0  0  0  0  0  0  0
  -27.3000  -27.2180   20.2020 C   0  0  0  0  0  0  0  0  0  0  0  0
  -23.4690  -30.5370   21.5640 C   0  0  0  0  0  3  0  0  0  0  0  0
  -24.9430  -28.9610   20.1570 C   0  0  0  0  0  0  0  0  0  0  0  0
  -26.0210  -30.8270   21.4030 C   0  0  0  0  0  2  0  0  0  0  0  0
  -26.1180  -29.4210   20.7670 C   0  0  0  0  0  0  0  0  0  0  0  0
  -27.2950  -28.5670   20.7680 C   0  0  0  0  0  3  0  0  0  0  0  0
  -26.0930  -26.8710   19.5590 C   0  0  0  0  0  3  0  0  0  0  0  0
  -24.9460  -27.7000   19.5380 C   0  0  0  0  0  3  0  0  0  0  0  0
  -23.7050  -29.8500   20.1930 C   0  0  0  0  0  2  0  0  0  0  0  0
  -24.7320  -31.1320   22.1100 N   0  0  0  0  0  0  0  0  0  0  0  0
  -23.5520  -32.2290   23.7240 O   0  0  0  0  0  0  0  0  0  0  0  0
  -22.8000  -29.5270   22.5330 C   0  0  0  0  0  0  0  0  0  0  0  0
  -21.4750  -29.3300   22.4020 N   0  0  0  0  0  0  0  0  0  0  0  0
  -23.4790  -28.9200   23.3650 O   0  0  0  0  0  0  0  0  0  0  0  0
  -20.9830  -29.8730   21.7080 H   0  0  0  0  0  0  0  0  0  0  0  0
  -18.1150  -28.0710   22.9150 C   0  0  0  0  0  0  0  0  0  0  0  0
  -20.6700  -28.3800   23.1750 C   0  0  0  0  0  3  0  0  0  0  0  0
  -20.7940  -26.9480   22.6020 C   0  0  0  0  0  2  0  0  0  0  0  0
  -19.6960  -26.6050   21.5900 C   0  0  0  0  0  2  0  0  0  0  0  0
  -18.3130  -26.7260   22.2370 C   0  0  0  0  0  2  0  0  0  0  0  0
  -19.2210  -28.8550   23.3400 C   0  0  0  0  0  0  0  0  0  0  0  0
  -18.9800  -30.1120   23.9350 C   0  0  0  0  0  3  0  0  0  0  0  0
  -17.6660  -30.5870   24.1070 C   0  0  0  0  0  3  0  0  0  0  0  0
  -16.5760  -29.8020   23.6950 C   0  0  0  0  0  3  0  0  0  0  0  0
  -16.8000  -28.5460   23.1060 C   0  0  0  0  0  3  0  0  0  0  0  0
  -25.9080  -32.6210   23.8260 C   0  0  0  0  0  3  0  0  0  0  0  0
  -25.5700  -34.0140   24.1580 N   0  0  0  0  0  0  0  0  0  0  0  0
  -25.8840  -35.0780   23.4050 C   0  0  0  0  0  0  0  0  0  0  0  0
  -26.5520  -34.9890   22.3720 O   0  0  0  0  0  0  0  0  0  0  0  0
  -24.9750  -34.1570   24.9620 H   0  0  0  0  0  0  0  0  0  0  0  0
  -24.1380  -36.8570   23.0540 C   0  0  0  0  0  1  0  0  0  0  0  0
  -25.3770  -36.4590   23.8700 C   0  0  0  0  0  3  0  0  0  0  0  0
  -27.4890  -37.3700   24.7310 C   0  0  0  0  0  1  0  0  0  0  0  0
  -26.3980  -37.5250   23.7730 N   0  0  0  0  0  0  0  0  0  0  0  0
  -25.9790  -38.4400   23.9150 H   0  0  0  0  0  0  0  0  0  0  0  0
  -26.4280  -31.8650   25.1110 C   0  0  1  0  0  0  0  0  0  0  0  0
  -25.3310  -31.6070   26.1710 C   0  0  0  0  0  1  0  0  0  0  0  0
  -27.0450  -30.4990   24.7330 C   0  0  0  0  0  1  0  0  0  0  0  0
  -27.5560  -32.6860   25.7790 C   0  0  0  0  0  1  0  0  0  0  0  0
  2  4  2  0
  2  5  1  0
  3  7  1  0
  3  1  2  0
  4  3  1  0
  5  6  2  0
  6  1  1  0
  6 16  1  0
  8  7  2  0
  9 13  1  0
 10  9  2  0
 11 12  1  0
 11  9  1  0
 13  8  1  0
 14 15  1  6
 14 12  1  0
 14 13  1  0
 14  4  1  0
 17 10  1  0
 17 23  1  0
 18 23  1  0
 19 20  1  0
 19 18  1  0
 21 20  1  0
 21 28  1  0
 21 22  1  0
 23 22  1  0
 24 17  2  0
 25 26  2  0
 26 45  1  0
 27 26  1  0
 27 30  1  0
 28 29  1  0
 28 25  1  0
 29 27  2  0
 30 31  1  0
 31 32  2  0
 33 36  1  0
 33 32  1  0
 34 33  2  0
 35 34  1  0
 35 30  2  0
 36 37  1  0
 37 42  2  0
 37 38  1  0
 38 39  2  0
 39 40  1  0
 40 44  1  0
 41 40  2  0
 42 41  1  0
 43 42  1  0
 45 46  1  0
 46 49  1  0
 46 48  1  0
 47 45  2  0
 50 25  1  0
 50 51  1  0
 52 50  1  0
 53 55  1  0
 53  5  1  0
 54 65  2  0
 55 60  1  0
 56 64  1  0
 56 66  1  0
 57 63  1  0
 57 59  1  0
 58 64  1  0
 59 60  2  0
 59 58  1  0
 61 55  2  0
 62 61  1  0
 62 57  2  0
 63 56  1  0
 64 54  1  0
 66 68  2  0
 67 66  1  0
 69 67  1  0
 70 79  2  0
 70 75  1  0
 71 67  1  0
 71 75  1  0
 72 71  1  0
 73 74  1  0
 73 72  1  0
 74 70  1  0
 75 76  2  0
 76 77  1  0
 78 77  2  0
 79 78  1  0
 80 54  1  0
 80 81  1  0
 80 90  1  0
 81 84  1  0
 82 86  1  0
 82 81  1  0
 83 82  2  0
 86 85  1  0
 88 86  1  0
 88 89  1  0
 88 87  1  0
 90 93  1  1
 90 91  1  0
 92 90  1  0
M  ISO  4   5 101  10 100  17 100  53 101
M  END
>  <TORSDO>  (59) 
F 16

>  <SCORE>  (59) 
-15.610

>  <name>  (59) 
59

>  <ligand_id>  (59) 
59

>  <original_smiles>  (59) 
[H]C(C(=O)N1C([H])([H])C([H])([H])C([H])([H])C([H])(n2nc(-c3c([H])c([H])c(Oc4c([H])c([H])c(F)c([H])c4F)c([H])c3[H])c(C(=O)N([H])[H])c2N([H])[H])C1([H])[H])=C1C([H])([H])C([H])([H])C2(C([H])([H])[H])c3c([H])c(Oc4c([H])c([H])c5c(c4[H])C([H])([H])N(C(=O)C([H])(N([H])C(=O)C([H])(N([H])C([H])([H])[H])C([H])([H])[H])C(C([H])([H])[H])(C([H])([H])[H])C([H])([H])[H])C([H])(C(=O)N([H])C4([H])c6c([H])c([H])c([H])c([H])c6C([H])([H])C([H])([H])C4([H])[H])C5([H])[H])c(F)c([H])c3C([H])=C([H])C12[H]

>  <smiles>  (59) 
[H]C(C(=O)N1C([H])([H])C([H])([H])C([H])([H])C([H])(n2nc(-c3c([H])c([H])c(Oc4c([H])c([H])c(F)c([H])c4F)c([H])c3[H])c(C(=O)N([H])[H])c2N([H])[H])C1([H])[H])=C1C([H])([H])C([H])([H])C2(C([H])([H])[H])c3c([H])c(Oc4c([H])c([H])c5c(c4[H])C([H])([H])N(C(=O)C([H])(N([H])C(=O)C([H])(N([H])C([H])([H])[H])C([H])([H])[H])C(C([H])([H])[H])(C([H])([H])[H])C([H])([H])[H])C([H])(C(=O)N([H])C4([H])c6c([H])c([H])c([H])c([H])c6C([H])([H])C([H])([H])C4([H])[H])C5([H])[H])c(F)c([H])c3C([H])=C([H])C12[H]

$$$$
60:0:0
     RDKit          3D

 89 98  0  0  1  0  0  0  0  0999 V2000
  -27.8020  -19.0060   18.9000 C   0  0  0  0  0  3  0  0  0  0  0  0
  -29.5340  -17.5940   20.2210 C   0  0  0  0  0  0  0  0  0  0  0  0
  -28.0270  -20.3360   19.3910 C   0  0  0  0  0  0  0  0  0  0  0  0
  -29.0500  -20.5300   20.3220 C   0  0  0  0  0  0  0  0  0  0  0  0
  -28.4920  -17.7690   19.2270 C   0  0  0  0  0  0  0  0  0  0  0  0
  -29.7750  -19.1230   20.6920 C   0  0  0  0  0  0  0  0  0  0  0  0
  -27.1250  -21.5560   18.9460 C   0  0  0  0  0  3  0  0  0  0  0  0
  -29.1440  -22.3090   20.6900 C   0  0  0  0  0  3  0  0  0  0  0  0
  -27.6400  -23.0870   18.8650 C   0  0  0  0  0  3  0  0  0  0  0  0
  -28.0930  -23.7990   20.1890 C   0  0  0  0  0  0  0  0  0  0  0  0
  -28.0680  -16.6230   18.3250 C   0  0  0  0  0  1  0  0  0  0  0  0
  -30.9290  -19.2800   21.6610 C   0  0  0  0  0  1  0  0  0  0  0  0
  -30.3190  -15.9660   20.4340 C   0  0  0  0  0  0  0  0  0  0  0  0
  -30.5450  -13.3690   19.7400 C   0  0  0  0  0  2  0  0  0  0  0  0
  -29.7210  -12.8430   18.5240 C   0  0  0  0  0  2  0  0  0  0  0  0
  -28.3000  -12.4380   18.9470 C   0  0  0  0  0  2  0  0  0  0  0  0
  -27.7040  -13.4610   19.9360 C   0  0  0  0  0  3  0  0  0  0  0  0
  -28.6740  -13.9100   21.0530 C   0  0  0  0  0  2  0  0  0  0  0  0
  -29.8470  -14.5640   20.4120 N   0  0  0  0  0  0  0  0  0  0  0  0
  -31.5660  -15.8860   20.4130 O   0  0  0  0  0  0  0  0  0  0  0  0
  -25.3230  -13.9610   20.6480 C   0  0  0  0  0  0  0  0  0  0  0  0
  -24.2620  -13.1640   20.9680 C   0  0  0  0  0  0  0  0  0  0  0  0
  -24.7510  -11.8220   20.9370 C   0  0  0  0  0  0  0  0  0  0  0  0
  -26.3840  -13.1030   20.4240 N   0  0  0  0  0  0  0  0  0  0  0  0
  -26.0530  -11.8090   20.6660 N   0  0  0  0  0  0  0  0  0  0  0  0
  -24.0340  -10.5500   21.0920 C   0  0  0  0  0  0  0  0  0  0  0  0
  -24.4300   -9.5910   22.0510 C   0  0  0  0  0  3  0  0  0  0  0  0
  -23.7090   -8.3860   22.1970 C   0  0  0  0  0  3  0  0  0  0  0  0
  -22.5800   -8.1310   21.3820 C   0  0  0  0  0  0  0  0  0  0  0  0
  -22.2040   -9.0780   20.4140 C   0  0  0  0  0  3  0  0  0  0  0  0
  -22.9260  -10.2740   20.2670 C   0  0  0  0  0  3  0  0  0  0  0  0
  -21.8350   -6.9770   21.4360 O   0  0  0  0  0  0  0  0  0  0  0  0
  -21.7050   -6.2580   22.5960 C   0  0  0  0  0  0  0  0  0  0  0  0
  -21.1450   -6.8240   23.7640 C   0  0  0  0  0  3  0  0  0  0  0  0
  -20.9660   -6.0300   24.9140 C   0  0  0  0  0  3  0  0  0  0  0  0
  -21.3340   -4.6720   24.8980 C   0  0  0  0  0  0  0  0  0  0  0  0
  -21.8850   -4.1060   23.7340 C   0  0  0  0  0  3  0  0  0  0  0  0
  -22.0670   -4.8970   22.5870 C   0  0  0  0  0  0  0  0  0  0  0  0
  -22.5800   -4.3420   21.4630 F   0  0  0  0  0  0  0  0  0  0  0  0
  -21.1540   -3.9070   25.9990 F   0  0  0  0  0  0  0  0  0  0  0  0
  -22.8510  -13.6220   21.1910 C   0  0  0  0  0  0  0  0  0  0  0  0
  -22.1050  -12.9160   22.0320 N   0  0  0  0  0  0  0  0  0  0  0  0
  -22.4190  -14.6420   20.6550 O   0  0  0  0  0  0  0  0  0  0  0  0
  -22.4680  -12.0910   22.4860 H   0  0  0  0  0  0  0  0  0  0  0  0
  -21.1570  -13.2050   22.2260 H   0  0  0  0  0  0  0  0  0  0  0  0
  -25.4710  -15.3370   20.5010 N   0  0  0  0  0  0  0  0  0  0  0  0
  -24.6980  -15.9790   20.6290 H   0  0  0  0  0  0  0  0  0  0  0  0
  -26.3440  -15.8050   20.2900 H   0  0  0  0  0  0  0  0  0  0  0  0
  -28.1670  -25.5980   20.1700 O   0  0  0  0  0  0  0  0  0  0  0  0
  -24.6250  -31.9160   23.1450 C   0  0  0  0  0  0  0  0  0  0  0  0
  -27.1700  -26.8130   20.1370 C   0  0  0  0  0  0  0  0  0  0  0  0
  -23.4340  -30.5050   21.5220 C   0  0  0  0  0  3  0  0  0  0  0  0
  -24.8810  -28.8580   20.1020 C   0  0  0  0  0  0  0  0  0  0  0  0
  -26.0110  -30.6600   21.3740 C   0  0  0  0  0  2  0  0  0  0  0  0
  -26.0830  -29.2190   20.7210 C   0  0  0  0  0  0  0  0  0  0  0  0
  -27.2080  -28.2280   20.7020 C   0  0  0  0  0  3  0  0  0  0  0  0
  -25.9260  -26.6750   19.4640 C   0  0  0  0  0  3  0  0  0  0  0  0
  -24.8440  -27.6130   19.4480 C   0  0  0  0  0  3  0  0  0  0  0  0
  -23.6680  -29.8040   20.1520 C   0  0  0  0  0  2  0  0  0  0  0  0
  -24.7150  -31.0610   22.0670 N   0  0  0  0  0  0  0  0  0  0  0  0
  -23.5340  -32.2090   23.6640 O   0  0  0  0  0  0  0  0  0  0  0  0
  -22.7310  -29.5270   22.5040 C   0  0  0  0  0  0  0  0  0  0  0  0
  -21.4000  -29.3570   22.3870 N   0  0  0  0  0  0  0  0  0  0  0  0
  -23.3970  -28.9180   23.3430 O   0  0  0  0  0  0  0  0  0  0  0  0
  -20.9100  -29.9030   21.6910 H   0  0  0  0  0  0  0  0  0  0  0  0
  -18.0300  -28.1080   22.9350 C   0  0  0  0  0  0  0  0  0  0  0  0
  -20.5900  -28.4130   23.1680 C   0  0  0  0  0  3  0  0  0  0  0  0
  -20.7020  -26.9800   22.5970 C   0  0  0  0  0  2  0  0  0  0  0  0
  -19.5960  -26.6420   21.5930 C   0  0  0  0  0  2  0  0  0  0  0  0
  -18.2190  -26.7640   22.2510 C   0  0  0  0  0  2  0  0  0  0  0  0
  -19.1420  -28.8900   23.3500 C   0  0  0  0  0  0  0  0  0  0  0  0
  -18.9060  -30.1430   23.9560 C   0  0  0  0  0  3  0  0  0  0  0  0
  -17.5940  -30.6170   24.1450 C   0  0  0  0  0  3  0  0  0  0  0  0
  -16.4980  -29.8360   23.7410 C   0  0  0  0  0  3  0  0  0  0  0  0
  -16.7170  -28.5820   23.1430 C   0  0  0  0  0  3  0  0  0  0  0  0
  -25.8870  -32.5800   23.7760 C   0  0  0  0  0  3  0  0  0  0  0  0
  -25.5580  -33.9800   24.1090 N   0  0  0  0  0  0  0  0  0  0  0  0
  -25.8990  -35.0500   23.3770 C   0  0  0  0  0  0  0  0  0  0  0  0
  -26.5810  -34.9620   22.3540 O   0  0  0  0  0  0  0  0  0  0  0  0
  -24.9550  -34.1200   24.9060 H   0  0  0  0  0  0  0  0  0  0  0  0
  -24.1920  -36.8710   23.0240 C   0  0  0  0  0  1  0  0  0  0  0  0
  -25.4110  -36.4360   23.8520 C   0  0  0  0  0  3  0  0  0  0  0  0
  -27.5290  -37.3010   24.7500 C   0  0  0  0  0  1  0  0  0  0  0  0
  -26.4520  -37.4860   23.7820 N   0  0  0  0  0  0  0  0  0  0  0  0
  -26.0450  -38.4060   23.9350 H   0  0  0  0  0  0  0  0  0  0  0  0
  -26.3950  -31.8310   25.0700 C   0  0  1  0  0  0  0  0  0  0  0  0
  -25.2930  -31.6030   26.1320 C   0  0  0  0  0  1  0  0  0  0  0  0
  -26.9880  -30.4490   24.7140 C   0  0  0  0  0  1  0  0  0  0  0  0
  -27.5380  -32.6400   25.7280 C   0  0  0  0  0  1  0  0  0  0  0  0
  1  5  2  0
  1  3  1  0
  2 13  1  0
  2  6  2  0
  3  4  1  0
  4  8  2  0
  4  6  1  0
  5  2  1  0
  6 12  1  0
  7  3  2  0
  9  7  1  0
  9 10  2  0
 10  8  1  0
 11  5  1  0
 14 19  1  0
 15 16  1  0
 15 14  1  0
 17 16  1  0
 17 24  1  0
 17 18  1  0
 19 13  1  0
 19 18  1  0
 20 13  2  0
 21 22  2  0
 22 41  1  0
 23 22  1  0
 23 26  1  0
 24 21  1  0
 24 25  1  0
 25 23  2  0
 26 27  1  0
 27 28  2  0
 29 32  1  0
 29 28  1  0
 30 29  2  0
 31 30  1  0
 31 26  2  0
 32 33  1  0
 33 34  1  0
 34 35  2  0
 36 35  1  0
 36 40  1  0
 37 36  2  0
 38 33  2  0
 38 37  1  0
 39 38  1  0
 41 42  1  0
 42 45  1  0
 42 44  1  0
 43 41  2  0
 46 47  1  0
 46 21  1  0
 48 46  1  0
 49 10  1  0
 50 61  2  0
 51 49  1  0
 51 56  1  0
 52 60  1  0
 52 62  1  0
 53 59  1  0
 53 55  1  0
 54 60  1  0
 55 54  1  0
 56 55  2  0
 57 51  2  0
 58 57  1  0
 58 53  2  0
 59 52  1  0
 60 50  1  0
 62 64  2  0
 63 62  1  0
 65 63  1  0
 66 75  2  0
 66 71  1  0
 67 63  1  0
 67 71  1  0
 68 67  1  0
 69 70  1  0
 69 68  1  0
 70 66  1  0
 71 72  2  0
 72 73  1  0
 74 73  2  0
 75 74  1  0
 76 50  1  0
 76 77  1  0
 76 86  1  0
 77 80  1  0
 78 82  1  0
 78 77  1  0
 79 78  2  0
 82 81  1  0
 84 82  1  0
 84 85  1  0
 84 83  1  0
 86 89  1  1
 86 87  1  0
 88 86  1  0
M  ISO  4   2 100  10 101  13 100  49 101
M  END
>  <TORSDO>  (60) 
F 16

>  <SCORE>  (60) 
-16.415

>  <name>  (60) 
60

>  <ligand_id>  (60) 
60

>  <original_smiles>  (60) 
[H]c1c([H])c([H])c2c(c1[H])C([H])([H])C([H])([H])C([H])([H])C2([H])N([H])C(=O)C1([H])N(C(=O)C([H])(N([H])C(=O)C([H])(N([H])C([H])([H])[H])C([H])([H])[H])C(C([H])([H])[H])(C([H])([H])[H])C([H])([H])[H])C([H])([H])c2c([H])c(OC3([H])C([H])([H])c4c(C([H])([H])[H])c(C(=O)N5C([H])([H])C([H])([H])C([H])([H])C([H])(n6nc(-c7c([H])c([H])c(Oc8c([H])c([H])c(F)c([H])c8F)c([H])c7[H])c(C(=O)N([H])[H])c6N([H])[H])C5([H])[H])c(C([H])([H])[H])c([H])c4C([H])([H])C3([H])[H])c([H])c([H])c2C1([H])[H]

>  <smiles>  (60) 
[H]c1c([H])c([H])c2c(c1[H])C([H])([H])C([H])([H])C([H])([H])C2([H])N([H])C(=O)C1([H])N(C(=O)C([H])(N([H])C(=O)C([H])(N([H])C([H])([H])[H])C([H])([H])[H])C(C([H])([H])[H])(C([H])([H])[H])C([H])([H])[H])C([H])([H])c2c([H])c(OC3([H])C([H])([H])c4c(C([H])([H])[H])c(C(=O)N5C([H])([H])C([H])([H])C([H])([H])C([H])(n6nc(-c7c([H])c([H])c(Oc8c([H])c([H])c(F)c([H])c8F)c([H])c7[H])c(C(=O)N([H])[H])c6N([H])[H])C5([H])[H])c(C([H])([H])[H])c([H])c4C([H])([H])C3([H])[H])c([H])c([H])c2C1([H])[H]

$$$$
61:0:0
     RDKit          3D

 96 98  0  0  1  0  0  0  0  0999 V2000
  -22.3840  -23.9120   20.8800 C   0  0  0  0  0  2  0  0  0  0  0  0
  -20.8890  -24.9670   21.1950 C   0  0  0  0  0  3  0  0  0  0  0  0
  -20.9930  -26.7730   19.8040 C   0  0  0  0  0  3  0  0  0  0  0  0
  -23.7710  -24.1180   19.8040 C   0  0  0  0  0  2  0  0  0  0  0  0
  -22.6980  -26.8260   18.9790 C   0  0  0  0  0  3  0  0  0  0  0  0
  -23.5980  -25.4670   18.9530 C   0  0  0  0  0  3  0  0  0  0  0  0
  -17.6710  -26.1530   23.0280 C   0  0  0  0  0  3  0  0  0  0  0  0
  -20.1230  -25.1840   22.8600 C   0  0  0  0  0  1  0  0  0  0  0  0
  -17.0470  -27.0330   20.0810 C   0  0  0  0  0  1  0  0  0  0  0  0
  -18.3880  -28.0380   19.3970 C   0  0  0  0  0  1  0  0  0  0  0  0
  -19.8360  -28.2160   20.4690 C   0  0  0  0  0  2  0  0  0  0  0  0
  -19.3000  -26.9570   23.1850 C   0  0  0  0  0  2  0  0  0  0  0  0
  -17.0800  -25.4880   23.8990 O   0  0  0  0  0  0  0  0  0  0  0  0
  -24.6510  -25.6100   18.1100 F   0  0  0  0  0  0  0  0  0  0  0  0
  -24.1090  -27.6930   19.3050 O   0  0  0  0  0  0  0  0  0  0  0  0
  -24.8020  -30.6450   23.9860 C   0  0  0  0  0  0  0  0  0  0  0  0
  -25.4130  -28.1400   18.8000 C   0  0  0  0  0  3  0  0  0  0  0  0
  -23.4670  -30.3700   22.0570 C   0  0  0  0  0  3  0  0  0  0  0  0
  -24.4330  -30.3140   19.6780 C   0  0  0  0  0  3  0  0  0  0  0  0
  -25.9180  -30.5890   21.6970 C   0  0  0  0  0  2  0  0  0  0  0  0
  -25.6050  -29.9400   20.3420 C   0  0  0  0  0  3  0  0  0  0  0  0
  -26.2330  -28.8020   19.7900 C   0  0  0  0  0  2  0  0  0  0  0  0
  -25.0590  -28.9460   17.7630 C   0  0  0  0  0  2  0  0  0  0  0  0
  -24.2340  -29.9420   18.3140 C   0  0  0  0  0  2  0  0  0  0  0  0
  -23.3400  -30.8360   20.5470 C   0  0  0  0  0  2  0  0  0  0  0  0
  -24.7650  -30.6320   22.6240 N   0  0  0  0  0  0  0  0  0  0  0  0
  -23.7690  -30.6370   24.6810 O   0  0  0  0  0  0  0  0  0  0  0  0
  -23.3020  -28.8270   22.3610 C   0  0  0  0  0  0  0  0  0  0  0  0
  -22.6860  -28.2960   23.3860 N   0  0  0  0  0  0  0  0  0  0  0  0
  -23.8520  -27.9790   21.7310 O   0  0  0  0  0  0  0  0  0  0  0  0
  -22.5350  -28.8950   24.1850 H   0  0  0  0  0  0  0  0  0  0  0  0
  -17.8120  -28.3060   22.4140 C   0  0  0  0  0  3  0  0  0  0  0  0
  -21.5340  -27.3890   23.0240 C   0  0  0  0  0  3  0  0  0  0  0  0
  -21.7890  -25.9920   21.8230 C   0  0  0  0  0  3  0  0  0  0  0  0
  -19.3630  -26.4810   19.9720 C   0  0  0  0  0  2  0  0  0  0  0  0
  -17.8850  -27.4810   20.8950 C   0  0  0  0  0  3  0  0  0  0  0  0
  -19.3410  -28.6220   22.7000 C   0  0  0  0  0  2  0  0  0  0  0  0
  -19.8680  -30.4020   23.7980 C   0  0  0  0  0  1  0  0  0  0  0  0
  -18.5810  -31.2560   24.4810 C   0  0  0  0  0  3  0  0  0  0  0  0
  -17.0260  -30.7110   24.1840 C   0  0  0  0  0  3  0  0  0  0  0  0
  -16.6520  -29.3260   23.2330 C   0  0  0  0  0  2  0  0  0  0  0  0
  -26.1490  -30.6450   24.7110 C   0  0  0  0  0  3  0  0  0  0  0  0
  -26.2880  -29.4540   25.7310 C   0  0  1  0  0  0  0  0  0  0  0  0
  -25.0950  -29.2960   26.7060 C   0  0  0  0  0  1  0  0  0  0  0  0
  -26.4760  -28.1080   24.9970 C   0  0  0  0  0  1  0  0  0  0  0  0
  -27.5680  -29.6690   26.5620 C   0  0  0  0  0  1  0  0  0  0  0  0
  -26.2210  -31.9370   25.3930 N   0  0  0  0  0  0  0  0  0  0  0  0
  -26.9340  -32.9740   24.9430 C   0  0  0  0  0  0  0  0  0  0  0  0
  -27.6770  -32.8940   23.9610 O   0  0  0  0  0  0  0  0  0  0  0  0
  -25.5980  -32.0780   26.1760 H   0  0  0  0  0  0  0  0  0  0  0  0
  -25.9940  -35.3060   24.8990 C   0  0  0  0  0  1  0  0  0  0  0  0
  -26.8150  -34.2970   25.7160 C   0  0  0  0  0  3  0  0  0  0  0  0
  -28.8810  -34.0700   27.0220 C   0  0  0  0  0  1  0  0  0  0  0  0
  -28.1250  -34.8830   26.0720 N   0  0  0  0  0  0  0  0  0  0  0  0
  -28.0030  -35.8060   26.4790 H   0  0  0  0  0  0  0  0  0  0  0  0
  -25.7200  -23.2990   19.6150 C   0  0  0  0  0 15  0  0  0  0  0  0
  -27.3310  -21.9850   18.8090 C   0  0  0  0  0 15  0  0  0  0  0  0
  -29.1550  -20.7400   19.1060 C   0  0  0  0  0 15  0  0  0  0  0  0
  -31.2900  -17.7990   19.5590 C   0  0  0  0  0  0  0  0  0  0  0  0
  -32.3420  -15.1500   19.4380 C   0  0  0  0  0  2  0  0  0  0  0  0
  -31.8070  -14.1110   18.3810 C   0  0  0  0  0  2  0  0  0  0  0  0
  -30.3880  -13.6410   18.7440 C   0  0  0  0  0  2  0  0  0  0  0  0
  -29.6140  -14.8190   19.3540 C   0  0  0  0  0  3  0  0  0  0  0  0
  -30.3310  -15.5350   20.4960 C   0  0  0  0  0  2  0  0  0  0  0  0
  -31.3200  -16.3080   19.7880 N   0  0  0  0  0  0  0  0  0  0  0  0
  -32.5580  -17.9640   19.4880 O   0  0  0  0  0  0  0  0  0  0  0  0
  -30.0060  -18.9270   19.3300 N   0  0  0  0  0  2  0  0  0  0  0  0
  -29.2020  -18.3140   19.3640 H   0  0  0  0  0  0  0  0  0  0  0  0
  -27.2790  -15.4810   19.8920 C   0  0  0  0  0  0  0  0  0  0  0  0
  -26.1800  -14.7600   20.2380 C   0  0  0  0  0  0  0  0  0  0  0  0
  -26.6060  -13.3970   20.3210 C   0  0  0  0  0  0  0  0  0  0  0  0
  -28.2790  -14.5450   19.7540 N   0  0  0  0  0  0  0  0  0  0  0  0
  -27.9050  -13.2940   20.0930 N   0  0  0  0  0  0  0  0  0  0  0  0
  -25.8380  -12.1730   20.5300 C   0  0  0  0  0  0  0  0  0  0  0  0
  -25.9680  -11.4140   21.7120 C   0  0  0  0  0  3  0  0  0  0  0  0
  -25.1990  -10.2450   21.8940 C   0  0  0  0  0  3  0  0  0  0  0  0
  -24.2920   -9.8310   20.8910 C   0  0  0  0  0  0  0  0  0  0  0  0
  -24.1880  -10.5780   19.7060 C   0  0  0  0  0  3  0  0  0  0  0  0
  -24.9540  -11.7380   19.5230 C   0  0  0  0  0  3  0  0  0  0  0  0
  -23.5220   -8.6970   20.9690 O   0  0  0  0  0  0  0  0  0  0  0  0
  -22.6250   -8.5080   21.9880 C   0  0  0  0  0  0  0  0  0  0  0  0
  -21.6460   -9.4740   22.3100 C   0  0  0  0  0  3  0  0  0  0  0  0
  -20.7060   -9.2090   23.3240 C   0  0  0  0  0  3  0  0  0  0  0  0
  -20.7340   -7.9780   24.0070 C   0  0  0  0  0  0  0  0  0  0  0  0
  -21.7030   -7.0140   23.6840 C   0  0  0  0  0  3  0  0  0  0  0  0
  -22.6470   -7.2780   22.6760 C   0  0  0  0  0  0  0  0  0  0  0  0
  -23.5690   -6.3390   22.3520 F   0  0  0  0  0  0  0  0  0  0  0  0
  -19.8220   -7.7190   24.9730 F   0  0  0  0  0  0  0  0  0  0  0  0
  -24.7910  -15.2960   20.3570 C   0  0  0  0  0  0  0  0  0  0  0  0
  -23.9910  -14.7200   21.2430 N   0  0  0  0  0  0  0  0  0  0  0  0
  -24.4290  -16.2660   19.6920 O   0  0  0  0  0  0  0  0  0  0  0  0
  -24.2990  -13.9330   21.7960 H   0  0  0  0  0  0  0  0  0  0  0  0
  -23.0530  -15.0690   21.3730 H   0  0  0  0  0  0  0  0  0  0  0  0
  -27.5120  -16.8340   19.6370 N   0  0  0  0  0  0  0  0  0  0  0  0
  -26.6810  -17.4130   19.5720 H   0  0  0  0  0  0  0  0  0  0  0  0
  -28.1600  -17.0360   18.8870 H   0  0  0  0  0  0  0  0  0  0  0  0
  1  2  1  0
  2 34  1  0
  2  8  1  0
  3 35  1  0
  3 11  1  0
  4  1  1  0
  5 15  1  0
  5  3  1  0
  6 14  1  0
  6  5  1  0
  6  4  1  0
  7 12  1  0
  7 13  2  0
  9 36  1  0
 10 36  1  0
 16 27  2  0
 17 23  1  0
 17 15  1  0
 17 22  1  0
 18 25  1  0
 18 28  1  0
 18 26  1  0
 19 24  1  0
 19 21  1  0
 19 25  1  0
 20 26  1  0
 21 22  1  0
 21 20  1  0
 23 24  1  0
 26 16  1  0
 28 29  1  0
 29 31  1  0
 30 28  2  0
 32 37  1  0
 32 41  1  0
 33 29  1  0
 34 33  2  0
 35 11  1  0
 36 32  1  0
 37 12  1  0
 38 39  1  0
 40 39  2  0
 41 40  1  0
 42 16  1  0
 42 47  1  0
 42 43  1  0
 43 46  1  1
 43 44  1  0
 45 43  1  0
 47 50  1  0
 48 47  1  0
 48 52  1  0
 49 48  2  0
 52 51  1  0
 52 54  1  0
 54 55  1  0
 54 53  1  0
 59 65  1  0
 60 65  1  0
 61 62  1  0
 61 60  1  0
 63 62  1  0
 63 72  1  0
 63 64  1  0
 65 64  1  0
 66 59  2  0
 67 68  1  0
 67 59  1  0
 69 70  2  0
 70 71  1  0
 70 89  1  0
 71 74  1  0
 72 69  1  0
 72 73  1  0
 73 71  2  0
 74 75  1  0
 75 76  2  0
 77 80  1  0
 77 76  1  0
 78 77  2  0
 79 78  1  0
 79 74  2  0
 80 81  1  0
 81 82  2  0
 81 86  1  0
 82 83  1  0
 83 84  2  0
 84 88  1  0
 85 84  1  0
 86 85  2  0
 87 86  1  0
 89 90  1  0
 90 93  1  0
 90 92  1  0
 91 89  2  0
 94 69  1  0
 95 94  1  0
 96 94  1  0
M  ISO  4   5 101  15 101  59 100  67 100
M  END
>  <TORSDO>  (61) 
F 19

>  <SCORE>  (61) 
-3.421

>  <name>  (61) 
61

>  <ligand_id>  (61) 
61

>  <original_smiles>  (61) 
[H]c1c([H])c([H])c2c(c1[H])C([H])([H])C([H])([H])C([H])([H])C2([H])N([H])C(=O)C1([H])N(C(=O)C([H])(N([H])C(=O)C([H])(N([H])C([H])([H])[H])C([H])([H])[H])C(C([H])([H])[H])(C([H])([H])[H])C([H])([H])[H])C([H])([H])c2c([H])c(Oc3c(F)c(C([H])([H])C([H])([H])C([H])([H])N([H])C(=O)N4C([H])([H])C([H])([H])C([H])([H])C([H])(n5nc(-c6c([H])c([H])c(Oc7c([H])c([H])c(F)c([H])c7F)c([H])c6[H])c(C(=O)N([H])[H])c5N([H])[H])C4([H])[H])c([H])c4c3C3([H])C([H])([H])C([H])([H])C(=O)C3([H])C4([H])[H])c([H])c([H])c2C1([H])[H]

>  <smiles>  (61) 
[H]c1c([H])c([H])c2c(c1[H])C([H])([H])C([H])([H])C([H])([H])C2([H])N([H])C(=O)C1([H])N(C(=O)C([H])(N([H])C(=O)C([H])(N([H])C([H])([H])[H])C([H])([H])[H])C(C([H])([H])[H])(C([H])([H])[H])C([H])([H])[H])C([H])([H])c2c([H])c(Oc3c(F)c(C([H])([H])C([H])([H])C([H])([H])N([H])C(=O)N4C([H])([H])C([H])([H])C([H])([H])C([H])(n5nc(-c6c([H])c([H])c(Oc7c([H])c([H])c(F)c([H])c7F)c([H])c6[H])c(C(=O)N([H])[H])c5N([H])[H])C4([H])[H])c([H])c4c3C3([H])C([H])([H])C([H])([H])C(=O)C3([H])C4([H])[H])c([H])c([H])c2C1([H])[H]

$$$$
62:0:0
     RDKit          3D

 91 99  0  0  1  0  0  0  0  0999 V2000
  -27.1180  -24.7360   21.2200 C   0  0  0  0  0  3  0  0  0  0  0  0
  -26.8140  -23.4100   21.5980 C   0  0  0  0  0  0  0  0  0  0  0  0
  -29.0770  -23.8960   20.0640 C   0  0  0  0  0  0  0  0  0  0  0  0
  -28.8130  -22.4790   20.4570 C   0  0  0  0  0  0  0  0  0  0  0  0
  -28.2370  -25.0700   20.4290 C   0  0  0  0  0  0  0  0  0  0  0  0
  -27.6370  -22.3150   21.2330 C   0  0  0  0  0  0  0  0  0  0  0  0
  -25.5620  -23.1660   22.4260 C   0  0  0  0  0  1  0  0  0  0  0  0
  -30.3120  -24.1670   19.2290 C   0  0  0  0  0  1  0  0  0  0  0  0
  -27.2640  -21.0790   21.6640 O   0  0  0  0  0  0  0  0  0  0  0  0
  -27.8870  -20.4130   21.3930 H   0  0  0  0  0  0  0  0  0  0  0  0
  -28.4450  -26.4920   20.1270 O   0  0  0  0  0  0  0  0  0  0  0  0
  -24.7760  -32.0020   23.3690 C   0  0  0  0  0  0  0  0  0  0  0  0
  -27.3930  -27.4750   20.1330 C   0  0  0  0  0  0  0  0  0  0  0  0
  -23.5960  -30.6910   21.6470 C   0  0  0  0  0  3  0  0  0  0  0  0
  -25.0620  -29.1950   20.1600 C   0  0  0  0  0  0  0  0  0  0  0  0
  -26.1490  -30.9720   21.5240 C   0  0  0  0  0  2  0  0  0  0  0  0
  -26.2300  -29.6160   20.8090 C   0  0  0  0  0  0  0  0  0  0  0  0
  -27.3980  -28.7670   20.7890 C   0  0  0  0  0  3  0  0  0  0  0  0
  -26.2080  -27.1580   19.4370 C   0  0  0  0  0  3  0  0  0  0  0  0
  -25.0600  -27.9780   19.4630 C   0  0  0  0  0  3  0  0  0  0  0  0
  -23.8320  -30.0860   20.2380 C   0  0  0  0  0  2  0  0  0  0  0  0
  -24.8600  -31.2400   22.2370 N   0  0  0  0  0  0  0  0  0  0  0  0
  -23.6840  -32.2580   23.8990 O   0  0  0  0  0  0  0  0  0  0  0  0
  -22.9100  -29.6340   22.5490 C   0  0  0  0  0  0  0  0  0  0  0  0
  -21.5830  -29.4680   22.3980 N   0  0  0  0  0  0  0  0  0  0  0  0
  -23.5740  -28.9690   23.3470 O   0  0  0  0  0  0  0  0  0  0  0  0
  -21.1040  -30.0580   21.7330 H   0  0  0  0  0  0  0  0  0  0  0  0
  -18.1940  -28.2650   22.8240 C   0  0  0  0  0  0  0  0  0  0  0  0
  -20.7540  -28.4940   23.1120 C   0  0  0  0  0  3  0  0  0  0  0  0
  -20.8480  -27.0960   22.4570 C   0  0  0  0  0  2  0  0  0  0  0  0
  -19.7470  -26.8400   21.4240 C   0  0  0  0  0  2  0  0  0  0  0  0
  -18.3640  -26.9570   22.0710 C   0  0  0  0  0  2  0  0  0  0  0  0
  -19.3170  -28.9940   23.3000 C   0  0  0  0  0  0  0  0  0  0  0  0
  -19.1030  -30.2210   23.9650 C   0  0  0  0  0  3  0  0  0  0  0  0
  -17.8000  -30.7190   24.1580 C   0  0  0  0  0  3  0  0  0  0  0  0
  -16.6930  -29.9860   23.6980 C   0  0  0  0  0  3  0  0  0  0  0  0
  -16.8910  -28.7600   23.0370 C   0  0  0  0  0  3  0  0  0  0  0  0
  -26.0460  -32.6060   24.0400 C   0  0  0  0  0  3  0  0  0  0  0  0
  -25.7460  -34.0030   24.3930 N   0  0  0  0  0  0  0  0  0  0  0  0
  -26.1130  -35.0700   23.6690 C   0  0  0  0  0  0  0  0  0  0  0  0
  -26.8050  -34.9800   22.6520 O   0  0  0  0  0  0  0  0  0  0  0  0
  -25.1340  -34.1470   25.1830 H   0  0  0  0  0  0  0  0  0  0  0  0
  -24.4160  -36.8950   23.3280 C   0  0  0  0  0  1  0  0  0  0  0  0
  -25.6380  -36.4550   24.1490 C   0  0  0  0  0  3  0  0  0  0  0  0
  -27.7700  -37.2930   25.0350 C   0  0  0  0  0  1  0  0  0  0  0  0
  -26.6860  -37.4950   24.0760 N   0  0  0  0  0  0  0  0  0  0  0  0
  -26.2900  -38.4180   24.2360 H   0  0  0  0  0  0  0  0  0  0  0  0
  -26.5130  -31.8050   25.3190 C   0  0  1  0  0  0  0  0  0  0  0  0
  -25.3830  -31.5610   26.3470 C   0  0  0  0  0  1  0  0  0  0  0  0
  -27.0920  -30.4280   24.9220 C   0  0  0  0  0  1  0  0  0  0  0  0
  -27.6500  -32.5730   26.0320 C   0  0  0  0  0  1  0  0  0  0  0  0
  -29.7320  -21.1530   20.0770 C   0  0  0  0  0  3  0  0  0  0  0  0
  -29.4860  -19.5480   20.5500 C   0  0  0  0  0  3  0  0  0  0  0  0
  -30.3870  -18.2020   20.0950 C   0  0  0  0  0  3  0  0  0  0  0  0
  -30.0670  -16.6230   20.5760 C   0  0  0  0  0  3  0  0  0  0  0  0
  -30.8750  -15.2560   20.1130 C   0  0  0  0  0  0  0  0  0  0  0  0
  -30.7420  -12.9480   19.0700 C   0  0  0  0  0  2  0  0  0  0  0  0
  -29.7730  -12.9790   17.8640 C   0  0  0  0  0  2  0  0  0  0  0  0
  -28.3170  -12.7640   18.3220 C   0  0  0  0  0  2  0  0  0  0  0  0
  -27.9510  -13.6370   19.5500 C   0  0  0  0  0  3  0  0  0  0  0  0
  -29.0330  -13.5740   20.6480 C   0  0  0  0  0  2  0  0  0  0  0  0
  -30.3040  -13.9890   20.0420 N   0  0  0  0  0  0  0  0  0  0  0  0
  -32.0430  -15.3630   19.7220 O   0  0  0  0  0  0  0  0  0  0  0  0
  -25.5790  -14.1930   20.3420 C   0  0  0  0  0  0  0  0  0  0  0  0
  -24.5260  -13.4070   20.7230 C   0  0  0  0  0  0  0  0  0  0  0  0
  -24.9980  -12.0600   20.6620 C   0  0  0  0  0  0  0  0  0  0  0  0
  -26.6220  -13.3250   20.0690 N   0  0  0  0  0  0  0  0  0  0  0  0
  -26.2820  -12.0360   20.3260 N   0  0  0  0  0  0  0  0  0  0  0  0
  -24.2820  -10.7900   20.8480 C   0  0  0  0  0  0  0  0  0  0  0  0
  -24.6760   -9.8570   21.8320 C   0  0  0  0  0  3  0  0  0  0  0  0
  -23.9590   -8.6520   22.0050 C   0  0  0  0  0  3  0  0  0  0  0  0
  -22.8350   -8.3730   21.1920 C   0  0  0  0  0  0  0  0  0  0  0  0
  -22.4600   -9.2960   20.2000 C   0  0  0  0  0  3  0  0  0  0  0  0
  -23.1780  -10.4900   20.0250 C   0  0  0  0  0  3  0  0  0  0  0  0
  -22.0940   -7.2180   21.2710 O   0  0  0  0  0  0  0  0  0  0  0  0
  -21.9010   -6.5660   22.4630 C   0  0  0  0  0  0  0  0  0  0  0  0
  -21.3040   -7.2040   23.5730 C   0  0  0  0  0  3  0  0  0  0  0  0
  -21.0620   -6.4770   24.7550 C   0  0  0  0  0  3  0  0  0  0  0  0
  -21.4070   -5.1140   24.8280 C   0  0  0  0  0  0  0  0  0  0  0  0
  -21.9960   -4.4770   23.7230 C   0  0  0  0  0  3  0  0  0  0  0  0
  -22.2390   -5.2000   22.5420 C   0  0  0  0  0  0  0  0  0  0  0  0
  -22.7890   -4.5760   21.4730 F   0  0  0  0  0  0  0  0  0  0  0  0
  -21.1660   -4.4130   25.9610 F   0  0  0  0  0  0  0  0  0  0  0  0
  -23.1310  -13.8720   21.0280 C   0  0  0  0  0  0  0  0  0  0  0  0
  -22.4300  -13.1650   21.9090 N   0  0  0  0  0  0  0  0  0  0  0  0
  -22.6730  -14.8950   20.5230 O   0  0  0  0  0  0  0  0  0  0  0  0
  -22.8150  -12.3380   22.3400 H   0  0  0  0  0  0  0  0  0  0  0  0
  -21.4960  -13.4580   22.1570 H   0  0  0  0  0  0  0  0  0  0  0  0
  -25.7330  -15.5680   20.1830 N   0  0  0  0  0  0  0  0  0  0  0  0
  -24.9680  -16.2200   20.3250 H   0  0  0  0  0  0  0  0  0  0  0  0
  -26.5760  -16.0140   19.8470 H   0  0  0  0  0  0  0  0  0  0  0  0
  1  2  1  0
  2  7  1  0
  3  5  1  0
  3  4  2  0
  4  6  1  0
  5  1  2  0
  6  2  2  0
  6  9  1  0
  8  3  1  0
 10  9  1  0
 11 13  1  0
 11  5  1  0
 12 23  2  0
 13 18  1  0
 14 22  1  0
 14 24  1  0
 15 21  1  0
 15 17  1  0
 16 22  1  0
 17 16  1  0
 18 17  2  0
 19 20  1  0
 19 13  2  0
 20 15  2  0
 21 14  1  0
 22 12  1  0
 24 26  2  0
 25 24  1  0
 27 25  1  0
 28 37  2  0
 28 33  1  0
 29 25  1  0
 29 33  1  0
 30 29  1  0
 31 32  1  0
 31 30  1  0
 32 28  1  0
 33 34  2  0
 34 35  1  0
 36 35  2  0
 37 36  1  0
 38 12  1  0
 38 39  1  0
 38 48  1  0
 39 42  1  0
 40 44  1  0
 40 39  1  0
 41 40  2  0
 44 43  1  0
 46 44  1  0
 46 47  1  0
 46 45  1  0
 48 51  1  1
 48 49  1  0
 50 48  1  0
 52  4  1  0
 52 53  2  0
 54 53  1  0
 54 55  2  0
 56 55  1  0
 57 62  1  0
 58 59  1  0
 58 57  1  0
 60 59  1  0
 60 67  1  0
 60 61  1  0
 62 56  1  0
 62 61  1  0
 63 56  2  0
 64 65  2  0
 65 84  1  0
 66 65  1  0
 66 69  1  0
 67 68  1  0
 67 64  1  0
 68 66  2  0
 69 70  1  0
 70 71  2  0
 72 75  1  0
 72 71  1  0
 73 72  2  0
 74 73  1  0
 74 69  2  0
 75 76  1  0
 76 81  2  0
 76 77  1  0
 77 78  2  0
 78 79  1  0
 79 83  1  0
 80 79  2  0
 81 80  1  0
 82 81  1  0
 84 85  1  0
 85 88  1  0
 85 87  1  0
 86 84  2  0
 89 90  1  0
 89 64  1  0
 91 89  1  0
M  ISO  4   5 101  11 101  55 100  56 100
M  END
>  <TORSDO>  (62) 
F 21

>  <SCORE>  (62) 
-11.998

>  <name>  (62) 
62

>  <ligand_id>  (62) 
62

>  <original_smiles>  (62) 
[H]Oc1c(C([H])([H])[H])c([H])c(Oc2c([H])c([H])c3c(c2[H])C([H])([H])N(C(=O)C([H])(N([H])C(=O)C([H])(N([H])C([H])([H])[H])C([H])([H])[H])C(C([H])([H])[H])(C([H])([H])[H])C([H])([H])[H])C([H])(C(=O)N([H])C2([H])c4c([H])c([H])c([H])c([H])c4C([H])([H])C([H])([H])C2([H])[H])C3([H])[H])c(C([H])([H])[H])c1C([H])([H])C([H])([H])C([H])([H])C([H])([H])C(=O)N1C([H])([H])C([H])([H])C([H])([H])C([H])(n2nc(-c3c([H])c([H])c(Oc4c([H])c([H])c(F)c([H])c4F)c([H])c3[H])c(C(=O)N([H])[H])c2N([H])[H])C1([H])[H]

>  <smiles>  (62) 
[H]Oc1c(C([H])([H])[H])c([H])c(Oc2c([H])c([H])c3c(c2[H])C([H])([H])N(C(=O)C([H])(N([H])C(=O)C([H])(N([H])C([H])([H])[H])C([H])([H])[H])C(C([H])([H])[H])(C([H])([H])[H])C([H])([H])[H])C([H])(C(=O)N([H])C2([H])c4c([H])c([H])c([H])c([H])c4C([H])([H])C([H])([H])C2([H])[H])C3([H])[H])c(C([H])([H])[H])c1C([H])([H])C([H])([H])C([H])([H])C([H])([H])C(=O)N1C([H])([H])C([H])([H])C([H])([H])C([H])(n2nc(-c3c([H])c([H])c(Oc4c([H])c([H])c(F)c([H])c4F)c([H])c3[H])c(C(=O)N([H])[H])c2N([H])[H])C1([H])[H]

$$$$
63:0:0
     RDKit          3D

 95103  0  0  1  0  0  0  0  0999 V2000
  -27.8610  -20.4240   20.7810 C   0  0  0  0  0  2  0  0  0  0  0  0
  -28.8140  -21.6360   20.5870 C   0  0  0  0  0  0  0  0  0  0  0  0
  -28.2340  -22.8570   20.5060 N   0  0  0  0  0  0  0  0  0  0  0  0
  -30.0320  -21.4780   20.4980 O   0  0  0  0  0  0  0  0  0  0  0  0
  -27.2300  -22.8740   20.6230 H   0  0  0  0  0  0  0  0  0  0  0  0
  -28.8550  -24.1600   20.1650 C   0  0  0  0  0  2  0  0  0  0  0  0
  -28.1990  -25.3640   20.9120 C   0  0  0  0  0  2  0  0  0  0  0  0
  -28.4220  -26.6830   20.3340 O   0  0  0  0  0  0  0  0  0  0  0  0
  -24.6040  -31.9440   23.3010 C   0  0  0  0  0  0  0  0  0  0  0  0
  -27.2950  -27.4840   20.2720 C   0  0  0  0  0  0  0  0  0  0  0  0
  -23.4250  -30.5290   21.6520 C   0  0  0  0  0  3  0  0  0  0  0  0
  -24.9050  -29.0040   20.2360 C   0  0  0  0  0  0  0  0  0  0  0  0
  -25.9540  -30.9010   21.4770 C   0  0  0  0  0  2  0  0  0  0  0  0
  -26.0560  -29.5290   20.8370 C   0  0  0  0  0  0  0  0  0  0  0  0
  -27.2600  -28.7790   20.8470 C   0  0  0  0  0  3  0  0  0  0  0  0
  -26.1310  -26.9920   19.6410 C   0  0  0  0  0  3  0  0  0  0  0  0
  -24.9400  -27.7370   19.6290 C   0  0  0  0  0  3  0  0  0  0  0  0
  -23.6540  -29.8540   20.2730 C   0  0  0  0  0  2  0  0  0  0  0  0
  -24.6780  -31.1400   22.2020 N   0  0  0  0  0  0  0  0  0  0  0  0
  -23.5150  -32.2080   23.8320 O   0  0  0  0  0  0  0  0  0  0  0  0
  -22.7730  -29.5040   22.6080 C   0  0  0  0  0  0  0  0  0  0  0  0
  -21.4500  -29.3120   22.4730 N   0  0  0  0  0  0  0  0  0  0  0  0
  -23.4550  -28.8830   23.4270 O   0  0  0  0  0  0  0  0  0  0  0  0
  -20.9600  -29.8630   21.7840 H   0  0  0  0  0  0  0  0  0  0  0  0
  -18.0790  -28.1010   22.9550 C   0  0  0  0  0  0  0  0  0  0  0  0
  -20.6350  -28.3690   23.2390 C   0  0  0  0  0  3  0  0  0  0  0  0
  -20.7480  -26.9390   22.6610 C   0  0  0  0  0  2  0  0  0  0  0  0
  -19.6520  -26.6150   21.6420 C   0  0  0  0  0  2  0  0  0  0  0  0
  -18.2670  -26.7530   22.2800 C   0  0  0  0  0  2  0  0  0  0  0  0
  -19.1920  -28.8670   23.3920 C   0  0  0  0  0  0  0  0  0  0  0  0
  -18.9650  -30.1290   23.9820 C   0  0  0  0  0  3  0  0  0  0  0  0
  -17.6570  -30.6240   24.1420 C   0  0  0  0  0  3  0  0  0  0  0  0
  -16.5580  -29.8540   23.7240 C   0  0  0  0  0  3  0  0  0  0  0  0
  -16.7700  -28.5950   23.1340 C   0  0  0  0  0  3  0  0  0  0  0  0
  -25.8780  -32.5890   23.9290 C   0  0  0  0  0  3  0  0  0  0  0  0
  -25.5620  -33.9920   24.2310 N   0  0  0  0  0  0  0  0  0  0  0  0
  -25.9040  -35.0320   23.4580 C   0  0  0  0  0  0  0  0  0  0  0  0
  -26.5910  -34.9120   22.4400 O   0  0  0  0  0  0  0  0  0  0  0  0
  -24.9570  -34.1600   25.0220 H   0  0  0  0  0  0  0  0  0  0  0  0
  -24.1830  -36.8160   23.0390 C   0  0  0  0  0  1  0  0  0  0  0  0
  -25.4070  -36.4270   23.8830 C   0  0  0  0  0  3  0  0  0  0  0  0
  -27.5250  -37.3260   24.7420 C   0  0  0  0  0  1  0  0  0  0  0  0
  -26.4420  -37.4780   23.7740 N   0  0  0  0  0  0  0  0  0  0  0  0
  -26.0330  -38.4020   23.9000 H   0  0  0  0  0  0  0  0  0  0  0  0
  -26.3790  -31.8400   25.2240 C   0  0  1  0  0  0  0  0  0  0  0  0
  -25.2710  -31.6120   26.2780 C   0  0  0  0  0  1  0  0  0  0  0  0
  -26.9750  -30.4590   24.8610 C   0  0  0  0  0  1  0  0  0  0  0  0
  -27.5150  -32.6500   25.8920 C   0  0  0  0  0  1  0  0  0  0  0  0
  -28.4130  -18.9560   20.9780 C   0  0  0  0  0  2  0  0  0  0  0  0
  -29.6620  -16.8380   20.3480 C   0  0  0  0  0  3  0  0  0  0  0  0
  -30.6090  -16.0840   19.6050 C   0  0  0  0  0  0  0  0  0  0  0  0
  -29.1730  -18.1060   19.9160 C   0  0  0  0  0  0  0  0  0  0  0  0
  -31.1600  -16.7140   18.4350 C   0  0  0  0  0  0  0  0  0  0  0  0
  -29.4560  -18.5040   18.5810 C   0  0  0  0  0  0  0  0  0  0  0  0
  -30.5070  -17.8530   17.8740 C   0  0  0  0  0  0  0  0  0  0  0  0
  -28.6590  -19.6160   17.9080 C   0  0  0  0  0  1  0  0  0  0  0  0
  -31.0210  -18.4310   16.5480 C   0  0  0  0  0  1  0  0  0  0  0  0
  -31.1750  -14.7690   20.1510 C   0  0  0  0  0  0  0  0  0  0  0  0
  -30.7460  -12.5560   19.2290 C   0  0  0  0  0  2  0  0  0  0  0  0
  -29.8040  -12.7150   18.0160 C   0  0  0  0  0  2  0  0  0  0  0  0
  -28.3430  -12.6090   18.4600 C   0  0  0  0  0  2  0  0  0  0  0  0
  -28.0210  -13.5430   19.6560 C   0  0  0  0  0  3  0  0  0  0  0  0
  -29.0880  -13.4470   20.7660 C   0  0  0  0  0  2  0  0  0  0  0  0
  -30.4160  -13.6370   20.1660 N   0  0  0  0  0  0  0  0  0  0  0  0
  -32.3980  -14.7060   20.1890 O   0  0  0  0  0  0  0  0  0  0  0  0
  -25.6500  -14.2000   20.3880 C   0  0  0  0  0  0  0  0  0  0  0  0
  -24.5600  -13.4520   20.7470 C   0  0  0  0  0  0  0  0  0  0  0  0
  -24.9890  -12.0890   20.7190 C   0  0  0  0  0  0  0  0  0  0  0  0
  -26.6730  -13.2940   20.1600 N   0  0  0  0  0  0  0  0  0  0  0  0
  -26.2810  -12.0210   20.4270 N   0  0  0  0  0  0  0  0  0  0  0  0
  -24.2310  -10.8430   20.9000 C   0  0  0  0  0  0  0  0  0  0  0  0
  -24.6350   -9.8600   21.8300 C   0  0  0  0  0  3  0  0  0  0  0  0
  -23.8790   -8.6800   22.0000 C   0  0  0  0  0  3  0  0  0  0  0  0
  -22.7030   -8.4740   21.2400 C   0  0  0  0  0  0  0  0  0  0  0  0
  -22.3180   -9.4450   20.2980 C   0  0  0  0  0  3  0  0  0  0  0  0
  -23.0740  -10.6160   20.1270 C   0  0  0  0  0  3  0  0  0  0  0  0
  -21.9200   -7.3470   21.3190 O   0  0  0  0  0  0  0  0  0  0  0  0
  -21.8280   -6.6150   22.4750 C   0  0  0  0  0  0  0  0  0  0  0  0
  -21.3900   -7.1890   23.6890 C   0  0  0  0  0  3  0  0  0  0  0  0
  -21.2460   -6.3840   24.8370 C   0  0  0  0  0  3  0  0  0  0  0  0
  -21.5280   -5.0070   24.7710 C   0  0  0  0  0  0  0  0  0  0  0  0
  -21.9580   -4.4310   23.5620 C   0  0  0  0  0  3  0  0  0  0  0  0
  -22.1050   -5.2340   22.4170 C   0  0  0  0  0  0  0  0  0  0  0  0
  -22.4990   -4.6710   21.2500 F   0  0  0  0  0  0  0  0  0  0  0  0
  -21.3810   -4.2320   25.8710 F   0  0  0  0  0  0  0  0  0  0  0  0
  -23.1720  -13.9610   21.0040 C   0  0  0  0  0  0  0  0  0  0  0  0
  -22.4320  -13.3060   21.8910 N   0  0  0  0  0  0  0  0  0  0  0  0
  -22.7520  -14.9770   20.4510 O   0  0  0  0  0  0  0  0  0  0  0  0
  -22.7850  -12.4860   22.3610 H   0  0  0  0  0  0  0  0  0  0  0  0
  -21.5000  -13.6310   22.1060 H   0  0  0  0  0  0  0  0  0  0  0  0
  -25.8540  -15.5650   20.2110 N   0  0  0  0  0  0  0  0  0  0  0  0
  -25.1110  -16.2440   20.3240 H   0  0  0  0  0  0  0  0  0  0  0  0
  -26.7310  -15.9790   19.9180 H   0  0  0  0  0  0  0  0  0  0  0  0
  -32.5350  -15.2190   16.7590 C   0  0  0  0  0  1  0  0  0  0  0  0
  -32.5290  -16.3150   17.8290 C   0  0  0  0  0  2  0  0  0  0  0  0
  1 49  1  0
  2  1  1  0
  3  2  1  0
  3  5  1  0
  4  2  2  0
  6  3  1  0
  6  7  1  0
  8  7  1  0
  9 20  2  0
 10  8  1  0
 10 15  1  0
 11 19  1  0
 11 21  1  0
 12 18  1  0
 12 14  1  0
 13 19  1  0
 14 15  2  0
 14 13  1  0
 16 10  2  0
 17 16  1  0
 17 12  2  0
 18 11  1  0
 19  9  1  0
 21 23  2  0
 22 21  1  0
 24 22  1  0
 25 34  2  0
 25 30  1  0
 26 22  1  0
 26 30  1  0
 27 26  1  0
 28 29  1  0
 28 27  1  0
 29 25  1  0
 30 31  2  0
 31 32  1  0
 33 32  2  0
 34 33  1  0
 35  9  1  0
 35 36  1  0
 35 45  1  0
 36 39  1  0
 37 41  1  0
 37 36  1  0
 38 37  2  0
 41 40  1  0
 43 41  1  0
 43 44  1  0
 43 42  1  0
 45 48  1  1
 45 46  1  0
 47 45  1  0
 51 58  1  0
 51 50  2  0
 52 50  1  0
 52 49  1  0
 53 51  1  0
 54 52  2  0
 55 53  2  0
 55 54  1  0
 56 54  1  0
 57 55  1  0
 58 64  1  0
 58 65  2  0
 59 64  1  0
 60 61  1  0
 60 59  1  0
 62 61  1  0
 62 69  1  0
 62 63  1  0
 64 63  1  0
 66 67  2  0
 67 86  1  0
 68 67  1  0
 68 71  1  0
 69 66  1  0
 69 70  1  0
 70 68  2  0
 71 72  1  0
 72 73  2  0
 74 77  1  0
 74 73  1  0
 75 74  2  0
 76 75  1  0
 76 71  2  0
 77 78  1  0
 78 79  1  0
 79 80  2  0
 81 80  1  0
 81 85  1  0
 82 81  2  0
 83 78  2  0
 83 82  1  0
 84 83  1  0
 86 87  1  0
 87 90  1  0
 87 89  1  0
 88 86  2  0
 91 92  1  0
 91 66  1  0
 93 91  1  0
 94 95  1  0
 95 53  1  0
M  ISO  4   7 101   8 101  51 100  58 100
M  END
>  <TORSDO>  (63) 
F 22

>  <SCORE>  (63) 
-12.551

>  <name>  (63) 
63

>  <ligand_id>  (63) 
63

>  <original_smiles>  (63) 
[H]c1c([H])c([H])c2c(c1[H])C([H])([H])C([H])([H])C([H])([H])C2([H])N([H])C(=O)C1([H])N(C(=O)C([H])(N([H])C(=O)C([H])(N([H])C([H])([H])[H])C([H])([H])[H])C(C([H])([H])[H])(C([H])([H])[H])C([H])([H])[H])C([H])([H])c2c([H])c(OC([H])([H])C([H])([H])N([H])C(=O)C([H])([H])C([H])([H])c3c([H])c(C(=O)N4C([H])([H])C([H])([H])C([H])([H])C([H])(n5nc(-c6c([H])c([H])c(Oc7c([H])c([H])c(F)c([H])c7F)c([H])c6[H])c(C(=O)N([H])[H])c5N([H])[H])C4([H])[H])c(C([H])([H])C([H])([H])[H])c(C([H])([H])[H])c3C([H])([H])[H])c([H])c([H])c2C1([H])[H]

>  <smiles>  (63) 
[H]c1c([H])c([H])c2c(c1[H])C([H])([H])C([H])([H])C([H])([H])C2([H])N([H])C(=O)C1([H])N(C(=O)C([H])(N([H])C(=O)C([H])(N([H])C([H])([H])[H])C([H])([H])[H])C(C([H])([H])[H])(C([H])([H])[H])C([H])([H])[H])C([H])([H])c2c([H])c(OC([H])([H])C([H])([H])N([H])C(=O)C([H])([H])C([H])([H])c3c([H])c(C(=O)N4C([H])([H])C([H])([H])C([H])([H])C([H])(n5nc(-c6c([H])c([H])c(Oc7c([H])c([H])c(F)c([H])c7F)c([H])c6[H])c(C(=O)N([H])[H])c5N([H])[H])C4([H])[H])c(C([H])([H])C([H])([H])[H])c(C([H])([H])[H])c3C([H])([H])[H])c([H])c([H])c2C1([H])[H]

$$$$
64:0:0
     RDKit          3D

 90 98  0  0  1  0  0  0  0  0999 V2000
  -30.6340  -21.4380   19.7810 C   0  0  0  0  0  3  0  0  0  0  0  0
  -29.3430  -20.9780   20.1180 C   0  0  0  0  0  0  0  0  0  0  0  0
  -31.0490  -22.8010   19.7480 C   0  0  0  0  0  0  0  0  0  0  0  0
  -28.7710  -23.9480   20.1100 C   0  0  0  0  0  0  0  0  0  0  0  0
  -28.4650  -22.3520   20.3470 C   0  0  0  0  0  0  0  0  0  0  0  0
  -30.1840  -23.9500   19.8310 C   0  0  0  0  0  0  0  0  0  0  0  0
  -32.5620  -23.0110   19.8070 C   0  0  0  0  0  1  0  0  0  0  0  0
  -27.2490  -22.1290   20.8950 F   0  0  0  0  0  0  0  0  0  0  0  0
  -30.8100  -25.1560   19.7470 F   0  0  0  0  0  0  0  0  0  0  0  0
  -29.5300  -19.1550   20.5340 C   0  0  0  0  0  0  0  0  0  0  0  0
  -29.8230  -19.0930   21.7340 O   0  0  0  0  0  0  0  0  0  0  0  0
  -28.5470  -17.2220   18.9220 C   0  0  0  0  0  2  0  0  0  0  0  0
  -29.5280  -17.4240   19.8430 C   0  0  0  0  0  0  0  0  0  0  0  0
  -30.3080  -15.8540   19.9270 C   0  0  0  0  0  0  0  0  0  0  0  0
  -30.3840  -13.3130   19.0110 C   0  0  0  0  0  2  0  0  0  0  0  0
  -29.4320  -12.8610   17.8590 C   0  0  0  0  0  2  0  0  0  0  0  0
  -28.0510  -12.4640   18.3960 C   0  0  0  0  0  2  0  0  0  0  0  0
  -27.5780  -13.4580   19.4790 C   0  0  0  0  0  3  0  0  0  0  0  0
  -28.6580  -13.8140   20.5240 C   0  0  0  0  0  2  0  0  0  0  0  0
  -29.7760  -14.4810   19.8090 N   0  0  0  0  0  0  0  0  0  0  0  0
  -31.5460  -15.7090   19.8310 O   0  0  0  0  0  0  0  0  0  0  0  0
  -25.2650  -13.9540   20.4010 C   0  0  0  0  0  0  0  0  0  0  0  0
  -24.2320  -13.1580   20.8060 C   0  0  0  0  0  0  0  0  0  0  0  0
  -24.7100  -11.8120   20.7190 C   0  0  0  0  0  0  0  0  0  0  0  0
  -26.3000  -13.0950   20.0770 N   0  0  0  0  0  0  0  0  0  0  0  0
  -25.9840  -11.7990   20.3330 N   0  0  0  0  0  0  0  0  0  0  0  0
  -23.9980  -10.5410   20.9160 C   0  0  0  0  0  0  0  0  0  0  0  0
  -24.4500   -9.5720   21.8390 C   0  0  0  0  0  3  0  0  0  0  0  0
  -23.7330   -8.3700   22.0280 C   0  0  0  0  0  3  0  0  0  0  0  0
  -22.5470   -8.1280   21.2960 C   0  0  0  0  0  0  0  0  0  0  0  0
  -22.1130   -9.0840   20.3620 C   0  0  0  0  0  3  0  0  0  0  0  0
  -22.8300  -10.2780   20.1720 C   0  0  0  0  0  3  0  0  0  0  0  0
  -21.8010   -6.9780   21.3940 O   0  0  0  0  0  0  0  0  0  0  0  0
  -21.7580   -6.2490   22.5520 C   0  0  0  0  0  0  0  0  0  0  0  0
  -21.2810   -6.7980   23.7640 C   0  0  0  0  0  3  0  0  0  0  0  0
  -21.1890   -5.9900   24.9160 C   0  0  0  0  0  3  0  0  0  0  0  0
  -21.5570   -4.6330   24.8570 C   0  0  0  0  0  0  0  0  0  0  0  0
  -22.0210   -4.0820   23.6500 C   0  0  0  0  0  3  0  0  0  0  0  0
  -22.1170   -4.8860   22.5000 C   0  0  0  0  0  0  0  0  0  0  0  0
  -22.5460   -4.3430   21.3370 F   0  0  0  0  0  0  0  0  0  0  0  0
  -21.4590   -3.8540   25.9610 F   0  0  0  0  0  0  0  0  0  0  0  0
  -22.8490  -13.6160   21.1550 C   0  0  0  0  0  0  0  0  0  0  0  0
  -22.1710  -12.8930   22.0420 N   0  0  0  0  0  0  0  0  0  0  0  0
  -22.3830  -14.6530   20.6820 O   0  0  0  0  0  0  0  0  0  0  0  0
  -22.5720  -12.0560   22.4410 H   0  0  0  0  0  0  0  0  0  0  0  0
  -21.2420  -13.1760   22.3220 H   0  0  0  0  0  0  0  0  0  0  0  0
  -25.4090  -15.3290   20.2440 N   0  0  0  0  0  0  0  0  0  0  0  0
  -24.6380  -15.9710   20.3960 H   0  0  0  0  0  0  0  0  0  0  0  0
  -26.2360  -15.7830   19.8750 H   0  0  0  0  0  0  0  0  0  0  0  0
  -28.3120  -25.5230   20.3920 O   0  0  0  0  0  0  0  0  0  0  0  0
  -24.6240  -31.8170   23.1480 C   0  0  0  0  0  0  0  0  0  0  0  0
  -27.2770  -26.7000   20.2200 C   0  0  0  0  0  0  0  0  0  0  0  0
  -23.4770  -30.4080   21.4920 C   0  0  0  0  0  3  0  0  0  0  0  0
  -24.9700  -28.7510   20.0970 C   0  0  0  0  0  0  0  0  0  0  0  0
  -26.0590  -30.5520   21.4130 C   0  0  0  0  0  2  0  0  0  0  0  0
  -26.1470  -29.1100   20.7650 C   0  0  0  0  0  0  0  0  0  0  0  0
  -27.2640  -28.1130   20.7980 C   0  0  0  0  0  3  0  0  0  0  0  0
  -26.0620  -26.5690   19.4850 C   0  0  0  0  0  3  0  0  0  0  0  0
  -24.9730  -27.5060   19.4330 C   0  0  0  0  0  3  0  0  0  0  0  0
  -23.7480  -29.7040   20.1230 C   0  0  0  0  0  2  0  0  0  0  0  0
  -24.7450  -30.9640   22.0690 N   0  0  0  0  0  0  0  0  0  0  0  0
  -23.5210  -32.1150   23.6380 O   0  0  0  0  0  0  0  0  0  0  0  0
  -22.7380  -29.4370   22.4490 C   0  0  0  0  0  0  0  0  0  0  0  0
  -21.4050  -29.3100   22.3280 N   0  0  0  0  0  0  0  0  0  0  0  0
  -23.3860  -28.7980   23.2810 O   0  0  0  0  0  0  0  0  0  0  0  0
  -20.9350  -29.8770   21.6360 H   0  0  0  0  0  0  0  0  0  0  0  0
  -17.9970  -28.1610   22.8530 C   0  0  0  0  0  0  0  0  0  0  0  0
  -20.5650  -28.3750   23.0900 C   0  0  0  0  0  3  0  0  0  0  0  0
  -20.6320  -26.9550   22.4840 C   0  0  0  0  0  2  0  0  0  0  0  0
  -19.5150  -26.6750   21.4760 C   0  0  0  0  0  2  0  0  0  0  0  0
  -18.1430  -26.8270   22.1380 C   0  0  0  0  0  2  0  0  0  0  0  0
  -19.1350  -28.8960   23.2830 C   0  0  0  0  0  0  0  0  0  0  0  0
  -18.9400  -30.1420   23.9180 C   0  0  0  0  0  3  0  0  0  0  0  0
  -17.6460  -30.6550   24.1210 C   0  0  0  0  0  3  0  0  0  0  0  0
  -16.5240  -29.9190   23.7010 C   0  0  0  0  0  3  0  0  0  0  0  0
  -16.7010  -28.6720   23.0730 C   0  0  0  0  0  3  0  0  0  0  0  0
  -25.8710  -32.4760   23.8090 C   0  0  0  0  0  3  0  0  0  0  0  0
  -25.5430  -33.8790   24.1350 N   0  0  0  0  0  0  0  0  0  0  0  0
  -25.8830  -34.9450   23.3960 C   0  0  0  0  0  0  0  0  0  0  0  0
  -26.5660  -34.8500   22.3720 O   0  0  0  0  0  0  0  0  0  0  0  0
  -24.9390  -34.0220   24.9310 H   0  0  0  0  0  0  0  0  0  0  0  0
  -24.1560  -36.7470   23.0490 C   0  0  0  0  0  1  0  0  0  0  0  0
  -25.3930  -36.3310   23.8650 C   0  0  0  0  0  3  0  0  0  0  0  0
  -27.5150  -37.2220   24.7230 C   0  0  0  0  0  1  0  0  0  0  0  0
  -26.4210  -37.3910   23.7690 N   0  0  0  0  0  0  0  0  0  0  0  0
  -26.0090  -38.3070   23.9220 H   0  0  0  0  0  0  0  0  0  0  0  0
  -26.3420  -31.7270   25.1210 C   0  0  1  0  0  0  0  0  0  0  0  0
  -25.2090  -31.5040   26.1510 C   0  0  0  0  0  1  0  0  0  0  0  0
  -26.9440  -30.3450   24.7850 C   0  0  0  0  0  1  0  0  0  0  0  0
  -27.4670  -32.5320   25.8140 C   0  0  0  0  0  1  0  0  0  0  0  0
  1  2  1  0
  2  5  2  0
  2 10  1  0
  3  1  2  0
  3  7  1  0
  3  6  1  0
  4  5  1  0
  4 50  1  0
  5  8  1  0
  6  4  2  0
  9  6  1  0
 10 11  2  0
 12 13  2  0
 13 14  1  0
 13 10  1  0
 15 20  1  0
 16 17  1  0
 16 15  1  0
 18 17  1  0
 18 25  1  0
 18 19  1  0
 20 14  1  0
 20 19  1  0
 21 14  2  0
 22 23  2  0
 23 42  1  0
 24 23  1  0
 24 27  1  0
 25 26  1  0
 25 22  1  0
 26 24  2  0
 27 28  1  0
 28 29  2  0
 30 33  1  0
 30 29  1  0
 31 30  2  0
 32 31  1  0
 32 27  2  0
 33 34  1  0
 34 35  1  0
 35 36  2  0
 37 36  1  0
 37 41  1  0
 38 37  2  0
 39 34  2  0
 39 38  1  0
 40 39  1  0
 42 43  1  0
 43 46  1  0
 43 45  1  0
 44 42  2  0
 47 48  1  0
 47 22  1  0
 49 47  1  0
 51 62  2  0
 52 50  1  0
 52 57  1  0
 53 61  1  0
 53 63  1  0
 54 60  1  0
 54 56  1  0
 55 61  1  0
 56 57  2  0
 56 55  1  0
 58 52  2  0
 59 58  1  0
 59 54  2  0
 60 53  1  0
 61 51  1  0
 63 65  2  0
 64 63  1  0
 66 64  1  0
 67 76  2  0
 67 72  1  0
 68 64  1  0
 68 72  1  0
 69 68  1  0
 70 71  1  0
 70 69  1  0
 71 67  1  0
 72 73  2  0
 73 74  1  0
 75 74  2  0
 76 75  1  0
 77 51  1  0
 77 78  1  0
 77 87  1  0
 78 81  1  0
 79 83  1  0
 79 78  1  0
 80 79  2  0
 83 82  1  0
 85 83  1  0
 85 86  1  0
 85 84  1  0
 87 90  1  1
 87 88  1  0
 89 87  1  0
M  ISO  4   4 101  13 100  14 100  50 101
M  END
>  <TORSDO>  (64) 
F 18

>  <SCORE>  (64) 
-16.472

>  <name>  (64) 
64

>  <ligand_id>  (64) 
64

>  <original_smiles>  (64) 
[H]C([H])=C(C(=O)c1c([H])c(C([H])([H])[H])c(F)c(Oc2c([H])c([H])c3c(c2[H])C([H])([H])N(C(=O)C([H])(N([H])C(=O)C([H])(N([H])C([H])([H])[H])C([H])([H])[H])C(C([H])([H])[H])(C([H])([H])[H])C([H])([H])[H])C([H])(C(=O)N([H])C2([H])c4c([H])c([H])c([H])c([H])c4C([H])([H])C([H])([H])C2([H])[H])C3([H])[H])c1F)C(=O)N1C([H])([H])C([H])([H])C([H])([H])C([H])(n2nc(-c3c([H])c([H])c(Oc4c([H])c([H])c(F)c([H])c4F)c([H])c3[H])c(C(=O)N([H])[H])c2N([H])[H])C1([H])[H]

>  <smiles>  (64) 
[H]C([H])=C(C(=O)c1c([H])c(C([H])([H])[H])c(F)c(Oc2c([H])c([H])c3c(c2[H])C([H])([H])N(C(=O)C([H])(N([H])C(=O)C([H])(N([H])C([H])([H])[H])C([H])([H])[H])C(C([H])([H])[H])(C([H])([H])[H])C([H])([H])[H])C([H])(C(=O)N([H])C2([H])c4c([H])c([H])c([H])c([H])c4C([H])([H])C([H])([H])C2([H])[H])C3([H])[H])c1F)C(=O)N1C([H])([H])C([H])([H])C([H])([H])C([H])(n2nc(-c3c([H])c([H])c(Oc4c([H])c([H])c(F)c([H])c4F)c([H])c3[H])c(C(=O)N([H])[H])c2N([H])[H])C1([H])[H]

$$$$
65:0:0
     RDKit          3D

 92101  0  0  1  0  0  0  0  0999 V2000
  -28.4520  -22.0850   19.9620 C   0  0  0  0  0  3  0  0  0  0  0  0
  -30.3650  -22.2580   21.4350 C   0  0  0  0  0  3  0  0  0  0  0  0
  -28.2100  -23.4770   20.1120 C   0  0  0  0  0  3  0  0  0  0  0  0
  -30.1280  -23.6450   21.5780 C   0  0  0  0  0  3  0  0  0  0  0  0
  -29.5180  -21.4440   20.6450 C   0  0  0  0  0  0  0  0  0  0  0  0
  -29.0360  -24.2770   20.9370 C   0  0  0  0  0  0  0  0  0  0  0  0
  -29.3710  -19.2260   19.5000 C   0  0  0  0  0  3  0  0  0  0  0  0
  -29.7530  -19.9600   20.5700 C   0  0  0  0  0  0  0  0  0  0  0  0
  -29.5090  -17.7030   19.3550 C   0  0  0  0  0  2  0  0  0  0  0  0
  -30.3480  -19.2240   21.7730 C   0  0  0  0  0  2  0  0  0  0  0  0
  -30.0400  -17.7050   21.8120 C   0  0  0  0  0  2  0  0  0  0  0  0
  -30.3340  -17.0070   20.4700 C   0  0  0  0  0  3  0  0  0  0  0  0
  -30.7510  -14.5290   20.0270 C   0  0  0  0  0  0  0  0  0  0  0  0
  -30.4130  -12.3510   18.9100 C   0  0  0  0  0  2  0  0  0  0  0  0
  -29.3980  -12.5480   17.7630 C   0  0  0  0  0  2  0  0  0  0  0  0
  -27.9520  -12.4060   18.2800 C   0  0  0  0  0  2  0  0  0  0  0  0
  -27.6890  -13.2410   19.5620 C   0  0  0  0  0  3  0  0  0  0  0  0
  -28.8110  -13.0220   20.6040 C   0  0  0  0  0  2  0  0  0  0  0  0
  -30.0950  -13.3370   19.9570 N   0  0  0  0  0  0  0  0  0  0  0  0
  -31.8540  -14.7130   19.5030 O   0  0  0  0  0  0  0  0  0  0  0  0
  -30.0380  -15.5560   20.5460 N   0  0  0  0  0  0  0  0  0  0  0  0
  -29.1460  -15.3000   20.9400 H   0  0  0  0  0  0  0  0  0  0  0  0
  -25.3510  -13.8510   20.4470 C   0  0  0  0  0  0  0  0  0  0  0  0
  -24.2990  -13.0810   20.8610 C   0  0  0  0  0  0  0  0  0  0  0  0
  -24.7370  -11.7250   20.7550 C   0  0  0  0  0  0  0  0  0  0  0  0
  -26.3670  -12.9660   20.1190 N   0  0  0  0  0  0  0  0  0  0  0  0
  -26.0040  -11.6790   20.3620 N   0  0  0  0  0  0  0  0  0  0  0  0
  -24.0070  -10.4660   20.9510 C   0  0  0  0  0  0  0  0  0  0  0  0
  -24.4580   -9.4840   21.8610 C   0  0  0  0  0  3  0  0  0  0  0  0
  -23.7290   -8.2900   22.0450 C   0  0  0  0  0  3  0  0  0  0  0  0
  -22.5330   -8.0690   21.3200 C   0  0  0  0  0  0  0  0  0  0  0  0
  -22.1010   -9.0400   20.4000 C   0  0  0  0  0  3  0  0  0  0  0  0
  -22.8310  -10.2250   20.2130 C   0  0  0  0  0  3  0  0  0  0  0  0
  -21.7730   -6.9290   21.4160 O   0  0  0  0  0  0  0  0  0  0  0  0
  -21.7080   -6.2020   22.5780 C   0  0  0  0  0  0  0  0  0  0  0  0
  -21.2530   -6.7710   23.7880 C   0  0  0  0  0  3  0  0  0  0  0  0
  -21.1360   -5.9710   24.9410 C   0  0  0  0  0  3  0  0  0  0  0  0
  -21.4620   -4.6020   24.8870 C   0  0  0  0  0  0  0  0  0  0  0  0
  -21.9110   -4.0330   23.6820 C   0  0  0  0  0  3  0  0  0  0  0  0
  -22.0300   -4.8310   22.5300 C   0  0  0  0  0  0  0  0  0  0  0  0
  -22.4420   -4.2720   21.3660 F   0  0  0  0  0  0  0  0  0  0  0  0
  -21.3430   -3.8320   25.9930 F   0  0  0  0  0  0  0  0  0  0  0  0
  -22.9300  -13.5650   21.2400 C   0  0  0  0  0  0  0  0  0  0  0  0
  -22.2540  -12.8530   22.1360 N   0  0  0  0  0  0  0  0  0  0  0  0
  -22.4700  -14.6100   20.7810 O   0  0  0  0  0  0  0  0  0  0  0  0
  -22.6400  -12.0080   22.5290 H   0  0  0  0  0  0  0  0  0  0  0  0
  -21.3380  -13.1580   22.4330 H   0  0  0  0  0  0  0  0  0  0  0  0
  -25.5250  -15.2250   20.3020 N   0  0  0  0  0  0  0  0  0  0  0  0
  -24.7750  -15.8850   20.4830 H   0  0  0  0  0  0  0  0  0  0  0  0
  -26.3550  -15.6640   19.9250 H   0  0  0  0  0  0  0  0  0  0  0  0
  -28.6860  -25.7420   21.2730 C   0  0  0  0  0  2  0  0  0  0  0  0
  -28.6420  -26.6790   20.1770 O   0  0  0  0  0  0  0  0  0  0  0  0
  -24.6820  -31.8040   23.2300 C   0  0  0  0  0  0  0  0  0  0  0  0
  -27.4980  -27.4510   20.1600 C   0  0  0  0  0  0  0  0  0  0  0  0
  -23.5470  -30.3910   21.5490 C   0  0  0  0  0  3  0  0  0  0  0  0
  -25.0710  -28.9070   20.1350 C   0  0  0  0  0  0  0  0  0  0  0  0
  -26.0680  -30.8140   21.4080 C   0  0  0  0  0  2  0  0  0  0  0  0
  -26.2050  -29.4500   20.7560 C   0  0  0  0  0  0  0  0  0  0  0  0
  -27.4240  -28.7270   20.7700 C   0  0  0  0  0  3  0  0  0  0  0  0
  -26.3530  -26.9290   19.5270 C   0  0  0  0  0  3  0  0  0  0  0  0
  -25.1410  -27.6470   19.5170 C   0  0  0  0  0  3  0  0  0  0  0  0
  -23.8040  -29.7330   20.1660 C   0  0  0  0  0  2  0  0  0  0  0  0
  -24.7830  -31.0180   22.1200 N   0  0  0  0  0  0  0  0  0  0  0  0
  -23.5840  -32.0420   23.7520 O   0  0  0  0  0  0  0  0  0  0  0  0
  -22.9030  -29.3420   22.4850 C   0  0  0  0  0  0  0  0  0  0  0  0
  -21.5880  -29.1230   22.3260 N   0  0  0  0  0  0  0  0  0  0  0  0
  -23.5860  -28.7310   23.3120 O   0  0  0  0  0  0  0  0  0  0  0  0
  -21.0980  -29.6680   21.6310 H   0  0  0  0  0  0  0  0  0  0  0  0
  -18.2440  -27.8070   22.7170 C   0  0  0  0  0  0  0  0  0  0  0  0
  -20.7820  -28.1540   23.0690 C   0  0  0  0  0  3  0  0  0  0  0  0
  -20.9540  -26.7290   22.4930 C   0  0  0  0  0  2  0  0  0  0  0  0
  -19.8950  -26.3720   21.4440 C   0  0  0  0  0  2  0  0  0  0  0  0
  -18.4900  -26.4660   22.0450 C   0  0  0  0  0  2  0  0  0  0  0  0
  -19.3210  -28.6060   23.1840 C   0  0  0  0  0  0  0  0  0  0  0  0
  -19.0390  -29.8590   23.7700 C   0  0  0  0  0  3  0  0  0  0  0  0
  -17.7140  -30.3140   23.8960 C   0  0  0  0  0  3  0  0  0  0  0  0
  -16.6510  -29.5110   23.4460 C   0  0  0  0  0  3  0  0  0  0  0  0
  -16.9170  -28.2600   22.8630 C   0  0  0  0  0  3  0  0  0  0  0  0
  -25.9390  -32.4620   23.8820 C   0  0  0  0  0  3  0  0  0  0  0  0
  -25.5960  -33.8560   24.1950 N   0  0  0  0  0  0  0  0  0  0  0  0
  -25.9190  -34.9080   23.4300 C   0  0  0  0  0  0  0  0  0  0  0  0
  -26.6060  -34.8080   22.4090 O   0  0  0  0  0  0  0  0  0  0  0  0
  -24.9880  -34.0040   24.9860 H   0  0  0  0  0  0  0  0  0  0  0  0
  -24.1520  -36.6540   23.0410 C   0  0  0  0  0  1  0  0  0  0  0  0
  -25.3960  -36.2900   23.8670 C   0  0  0  0  0  3  0  0  0  0  0  0
  -27.5000  -37.2360   24.7050 C   0  0  0  0  0  1  0  0  0  0  0  0
  -26.4050  -37.3650   23.7480 N   0  0  0  0  0  0  0  0  0  0  0  0
  -25.9750  -38.2770   23.8780 H   0  0  0  0  0  0  0  0  0  0  0  0
  -26.4370  -31.7050   25.1740 C   0  0  1  0  0  0  0  0  0  0  0  0
  -25.3200  -31.4500   26.2130 C   0  0  0  0  0  1  0  0  0  0  0  0
  -27.0570  -30.3380   24.8020 C   0  0  0  0  0  1  0  0  0  0  0  0
  -27.5540  -32.5240   25.8630 C   0  0  0  0  0  1  0  0  0  0  0  0
  1  3  2  0
  1  5  1  0
  2  4  1  0
  3  6  1  0
  5  2  2  0
  6 51  1  0
  6  4  2  0
  7  8  2  0
  8  5  1  0
  8 10  1  0
  9  7  1  0
  9 12  1  0
 10 11  1  0
 12 21  1  0
 12 11  1  0
 13 21  1  0
 14 19  1  0
 15 16  1  0
 15 14  1  0
 17 16  1  0
 17 26  1  0
 17 18  1  0
 19 13  1  0
 19 18  1  0
 20 13  2  0
 21 22  1  0
 23 24  2  0
 24 43  1  0
 25 24  1  0
 25 28  1  0
 26 27  1  0
 26 23  1  0
 27 25  2  0
 28 29  1  0
 29 30  2  0
 31 34  1  0
 31 30  1  0
 32 31  2  0
 33 32  1  0
 33 28  2  0
 34 35  1  0
 35 36  1  0
 36 37  2  0
 38 37  1  0
 38 42  1  0
 39 38  2  0
 40 35  2  0
 40 39  1  0
 41 40  1  0
 43 44  1  0
 44 47  1  0
 44 46  1  0
 45 43  2  0
 48 23  1  0
 48 49  1  0
 50 48  1  0
 52 51  1  0
 53 64  2  0
 54 52  1  0
 54 59  1  0
 55 63  1  0
 55 65  1  0
 56 62  1  0
 56 58  1  0
 57 63  1  0
 58 59  2  0
 58 57  1  0
 60 54  2  0
 61 60  1  0
 61 56  2  0
 62 55  1  0
 63 53  1  0
 65 67  2  0
 66 65  1  0
 68 66  1  0
 69 78  2  0
 69 74  1  0
 70 66  1  0
 70 74  1  0
 71 70  1  0
 72 73  1  0
 72 71  1  0
 73 69  1  0
 74 75  2  0
 75 76  1  0
 77 76  2  0
 78 77  1  0
 79 53  1  0
 79 80  1  0
 79 89  1  0
 80 83  1  0
 81 85  1  0
 81 80  1  0
 82 81  2  0
 85 84  1  0
 87 85  1  0
 87 88  1  0
 87 86  1  0
 89 92  1  1
 89 90  1  0
 91 89  1  0
M  ISO  4  13 100  21 100  51 101  52 101
M  END
>  <TORSDO>  (65) 
F 18

>  <SCORE>  (65) 
-14.271

>  <name>  (65) 
65

>  <ligand_id>  (65) 
65

>  <original_smiles>  (65) 
[H]C1=C(c2c([H])c([H])c(C([H])([H])Oc3c([H])c([H])c4c(c3[H])C([H])([H])N(C(=O)C([H])(N([H])C(=O)C([H])(N([H])C([H])([H])[H])C([H])([H])[H])C(C([H])([H])[H])(C([H])([H])[H])C([H])([H])[H])C([H])(C(=O)N([H])C3([H])c5c([H])c([H])c([H])c([H])c5C([H])([H])C([H])([H])C3([H])[H])C4([H])[H])c([H])c2[H])C([H])([H])C([H])([H])C([H])(N([H])C(=O)N2C([H])([H])C([H])([H])C([H])([H])C([H])(n3nc(-c4c([H])c([H])c(Oc5c([H])c([H])c(F)c([H])c5F)c([H])c4[H])c(C(=O)N([H])[H])c3N([H])[H])C2([H])[H])C1([H])[H]

>  <smiles>  (65) 
[H]C1=C(c2c([H])c([H])c(C([H])([H])Oc3c([H])c([H])c4c(c3[H])C([H])([H])N(C(=O)C([H])(N([H])C(=O)C([H])(N([H])C([H])([H])[H])C([H])([H])[H])C(C([H])([H])[H])(C([H])([H])[H])C([H])([H])[H])C([H])(C(=O)N([H])C3([H])c5c([H])c([H])c([H])c([H])c5C([H])([H])C([H])([H])C3([H])[H])C4([H])[H])c([H])c2[H])C([H])([H])C([H])([H])C([H])(N([H])C(=O)N2C([H])([H])C([H])([H])C([H])([H])C([H])(n3nc(-c4c([H])c([H])c(Oc5c([H])c([H])c(F)c([H])c5F)c([H])c4[H])c(C(=O)N([H])[H])c3N([H])[H])C2([H])[H])C1([H])[H]

$$$$
66:0:0
     RDKit          3D

 92101  0  0  1  0  0  0  0  0999 V2000
  -27.6950  -23.8840   22.3360 C   0  0  0  0  0  3  0  0  0  0  0  0
  -28.1590  -22.6560   21.8350 C   0  0  0  0  0  3  0  0  0  0  0  0
  -27.7410  -25.0600   21.5770 C   0  0  0  0  0  3  0  0  0  0  0  0
  -28.6840  -22.4730   20.5280 C   0  0  0  0  0  0  0  0  0  0  0  0
  -28.7300  -23.7520   19.7560 C   0  0  0  0  0  0  0  0  0  0  0  0
  -28.2590  -25.0760   20.2690 C   0  0  0  0  0  0  0  0  0  0  0  0
  -29.3130  -23.7170   18.3600 C   0  0  0  0  0  1  0  0  0  0  0  0
  -29.2700  -20.2850   19.0230 C   0  0  0  0  0  3  0  0  0  0  0  0
  -29.0910  -20.9290   20.2210 C   0  0  0  0  0  0  0  0  0  0  0  0
  -29.6330  -18.7480   18.7450 C   0  0  0  0  0  2  0  0  0  0  0  0
  -29.3530  -19.9260   21.3940 C   0  0  0  0  0  2  0  0  0  0  0  0
  -29.3580  -18.3570   21.1340 C   0  0  0  0  0  2  0  0  0  0  0  0
  -30.1520  -17.7920   19.9200 C   0  0  0  0  0  3  0  0  0  0  0  0
  -30.8590  -15.1240   19.5920 C   0  0  0  0  0  0  0  0  0  0  0  0
  -30.7380  -12.7460   18.7380 C   0  0  0  0  0  2  0  0  0  0  0  0
  -29.6830  -12.6430   17.6100 C   0  0  0  0  0  2  0  0  0  0  0  0
  -28.2760  -12.4110   18.1970 C   0  0  0  0  0  2  0  0  0  0  0  0
  -27.9600  -13.3720   19.3740 C   0  0  0  0  0  3  0  0  0  0  0  0
  -29.1220  -13.4350   20.3890 C   0  0  0  0  0  2  0  0  0  0  0  0
  -30.3180  -13.8470   19.6430 N   0  0  0  0  0  0  0  0  0  0  0  0
  -32.0220  -15.2570   19.1940 O   0  0  0  0  0  0  0  0  0  0  0  0
  -30.0130  -16.2310   19.8070 N   0  0  0  0  0  0  0  0  0  0  0  0
  -29.0770  -15.9200   20.0200 H   0  0  0  0  0  0  0  0  0  0  0  0
  -25.7080  -13.9320   20.4610 C   0  0  0  0  0  0  0  0  0  0  0  0
  -24.6810  -13.1460   20.9060 C   0  0  0  0  0  0  0  0  0  0  0  0
  -25.1020  -11.7960   20.7090 C   0  0  0  0  0  0  0  0  0  0  0  0
  -26.6880  -13.0590   20.0160 N   0  0  0  0  0  0  0  0  0  0  0  0
  -26.3400  -11.7630   20.2300 N   0  0  0  0  0  0  0  0  0  0  0  0
  -24.3720  -10.5340   20.8940 C   0  0  0  0  0  0  0  0  0  0  0  0
  -24.7930   -9.5700   21.8370 C   0  0  0  0  0  3  0  0  0  0  0  0
  -24.0660   -8.3720   22.0090 C   0  0  0  0  0  3  0  0  0  0  0  0
  -22.9050   -8.1310   21.2390 C   0  0  0  0  0  0  0  0  0  0  0  0
  -22.5030   -9.0820   20.2850 C   0  0  0  0  0  3  0  0  0  0  0  0
  -23.2310  -10.2720   20.1110 C   0  0  0  0  0  3  0  0  0  0  0  0
  -22.1500   -6.9850   21.3190 O   0  0  0  0  0  0  0  0  0  0  0  0
  -21.9410   -6.3430   22.5130 C   0  0  0  0  0  0  0  0  0  0  0  0
  -21.3190   -6.9840   23.6070 C   0  0  0  0  0  3  0  0  0  0  0  0
  -21.0620   -6.2670   24.7910 C   0  0  0  0  0  3  0  0  0  0  0  0
  -21.4180   -4.9070   24.8830 C   0  0  0  0  0  0  0  0  0  0  0  0
  -22.0330   -4.2650   23.7930 C   0  0  0  0  0  3  0  0  0  0  0  0
  -22.2910   -4.9810   22.6110 C   0  0  0  0  0  0  0  0  0  0  0  0
  -22.8650   -4.3520   21.5580 F   0  0  0  0  0  0  0  0  0  0  0  0
  -21.1650   -4.2140   26.0190 F   0  0  0  0  0  0  0  0  0  0  0  0
  -23.3410  -13.6230   21.3900 C   0  0  0  0  0  0  0  0  0  0  0  0
  -22.7140  -12.8770   22.2920 N   0  0  0  0  0  0  0  0  0  0  0  0
  -22.8670  -14.6890   21.0040 O   0  0  0  0  0  0  0  0  0  0  0  0
  -23.1110  -12.0120   22.6280 H   0  0  0  0  0  0  0  0  0  0  0  0
  -21.8190  -13.1750   22.6540 H   0  0  0  0  0  0  0  0  0  0  0  0
  -25.8790  -15.3100   20.3700 N   0  0  0  0  0  0  0  0  0  0  0  0
  -25.1360  -15.9560   20.6210 H   0  0  0  0  0  0  0  0  0  0  0  0
  -26.6610  -15.7680   19.9200 H   0  0  0  0  0  0  0  0  0  0  0  0
  -28.3240  -26.4030   19.6680 O   0  0  0  0  0  0  0  0  0  0  0  0
  -24.7270  -31.8180   23.1290 C   0  0  0  0  0  0  0  0  0  0  0  0
  -27.2550  -27.3550   19.7530 C   0  0  0  0  0  0  0  0  0  0  0  0
  -23.4830  -30.4960   21.4590 C   0  0  0  0  0  3  0  0  0  0  0  0
  -24.8970  -29.0250   19.8990 C   0  0  0  0  0  0  0  0  0  0  0  0
  -26.0200  -30.8210   21.2120 C   0  0  0  0  0  2  0  0  0  0  0  0
  -26.0890  -29.4680   20.4890 C   0  0  0  0  0  0  0  0  0  0  0  0
  -27.2710  -28.6460   20.4050 C   0  0  0  0  0  3  0  0  0  0  0  0
  -26.0410  -27.0030   19.1330 C   0  0  0  0  0  3  0  0  0  0  0  0
  -24.8810  -27.8040   19.2060 C   0  0  0  0  0  3  0  0  0  0  0  0
  -23.6590  -29.8950   20.0380 C   0  0  0  0  0  2  0  0  0  0  0  0
  -24.7650  -31.0640   21.9880 N   0  0  0  0  0  0  0  0  0  0  0  0
  -23.6600  -32.0560   23.7130 O   0  0  0  0  0  0  0  0  0  0  0  0
  -22.8570  -29.4270   22.3880 C   0  0  0  0  0  0  0  0  0  0  0  0
  -21.5360  -29.2030   22.2630 N   0  0  0  0  0  0  0  0  0  0  0  0
  -23.5620  -28.8030   23.1860 O   0  0  0  0  0  0  0  0  0  0  0  0
  -21.0230  -29.7620   21.5960 H   0  0  0  0  0  0  0  0  0  0  0  0
  -18.2230  -27.8100   22.7040 C   0  0  0  0  0  0  0  0  0  0  0  0
  -20.7610  -28.2060   23.0050 C   0  0  0  0  0  3  0  0  0  0  0  0
  -20.9460  -26.7940   22.4020 C   0  0  0  0  0  2  0  0  0  0  0  0
  -19.8740  -26.4330   21.3680 C   0  0  0  0  0  2  0  0  0  0  0  0
  -18.4800  -26.4880   22.0000 C   0  0  0  0  0  2  0  0  0  0  0  0
  -19.2940  -28.6240   23.1610 C   0  0  0  0  0  0  0  0  0  0  0  0
  -18.9980  -29.8580   23.7790 C   0  0  0  0  0  3  0  0  0  0  0  0
  -17.6660  -30.2810   23.9440 C   0  0  0  0  0  3  0  0  0  0  0  0
  -16.6100  -29.4660   23.5040 C   0  0  0  0  0  3  0  0  0  0  0  0
  -16.8900  -28.2320   22.8890 C   0  0  0  0  0  3  0  0  0  0  0  0
  -26.0230  -32.4370   23.7390 C   0  0  0  0  0  3  0  0  0  0  0  0
  -25.7200  -33.8240   24.1220 N   0  0  0  0  0  0  0  0  0  0  0  0
  -26.0620  -34.9060   23.4100 C   0  0  0  0  0  0  0  0  0  0  0  0
  -26.7340  -34.8400   22.3780 O   0  0  0  0  0  0  0  0  0  0  0  0
  -25.1230  -33.9480   24.9270 H   0  0  0  0  0  0  0  0  0  0  0  0
  -24.3670  -36.7420   23.1070 C   0  0  0  0  0  1  0  0  0  0  0  0
  -25.5850  -36.2800   23.9230 C   0  0  0  0  0  3  0  0  0  0  0  0
  -27.7110  -37.0950   24.8450 C   0  0  0  0  0  1  0  0  0  0  0  0
  -26.6340  -37.3220   23.8840 N   0  0  0  0  0  0  0  0  0  0  0  0
  -26.2370  -38.2410   24.0630 H   0  0  0  0  0  0  0  0  0  0  0  0
  -26.5690  -31.6290   24.9810 C   0  0  1  0  0  0  0  0  0  0  0  0
  -25.4980  -31.3490   26.0620 C   0  0  0  0  0  1  0  0  0  0  0  0
  -27.1550  -30.2680   24.5390 C   0  0  0  0  0  1  0  0  0  0  0  0
  -27.7250  -32.4120   25.6460 C   0  0  0  0  0  1  0  0  0  0  0  0
  2  1  1  0
  3  1  2  0
  4  2  2  0
  5  6  2  0
  5  4  1  0
  6  3  1  0
  7  5  1  0
  8  9  2  0
  9  4  1  0
  9 11  1  0
 10  8  1  0
 10 13  1  0
 12 11  1  0
 13 22  1  0
 13 12  1  0
 14 20  1  0
 14 22  1  0
 15 20  1  0
 16 17  1  0
 16 15  1  0
 18 17  1  0
 18 27  1  0
 18 19  1  0
 20 19  1  0
 21 14  2  0
 22 23  1  0
 24 25  2  0
 25 44  1  0
 26 29  1  0
 26 25  1  0
 27 28  1  0
 27 24  1  0
 28 26  2  0
 29 30  1  0
 30 31  2  0
 32 35  1  0
 32 31  1  0
 33 32  2  0
 34 33  1  0
 34 29  2  0
 35 36  1  0
 36 41  2  0
 36 37  1  0
 37 38  2  0
 38 39  1  0
 39 43  1  0
 40 39  2  0
 41 40  1  0
 42 41  1  0
 44 45  1  0
 45 47  1  0
 45 48  1  0
 46 44  2  0
 49 24  1  0
 49 50  1  0
 51 49  1  0
 52 54  1  0
 52  6  1  0
 53 64  2  0
 54 59  1  0
 55 63  1  0
 55 65  1  0
 56 62  1  0
 56 58  1  0
 57 63  1  0
 58 57  1  0
 59 58  2  0
 60 61  1  0
 60 54  2  0
 61 56  2  0
 62 55  1  0
 63 53  1  0
 65 67  2  0
 66 65  1  0
 68 66  1  0
 69 78  2  0
 69 74  1  0
 70 66  1  0
 70 74  1  0
 71 70  1  0
 72 73  1  0
 72 71  1  0
 73 69  1  0
 74 75  2  0
 75 76  1  0
 77 76  2  0
 78 77  1  0
 79 53  1  0
 79 80  1  0
 79 89  1  0
 80 83  1  0
 81 85  1  0
 81 80  1  0
 82 81  2  0
 85 84  1  0
 87 85  1  0
 87 88  1  0
 87 86  1  0
 89 92  1  1
 89 90  1  0
 91 89  1  0
M  ISO  4   6 101  14 100  22 100  52 101
M  END
>  <TORSDO>  (66) 
F 17

>  <SCORE>  (66) 
-13.164

>  <name>  (66) 
66

>  <ligand_id>  (66) 
66

>  <original_smiles>  (66) 
[H]C1=C(c2c([H])c([H])c([H])c(Oc3c([H])c([H])c4c(c3[H])C([H])([H])N(C(=O)C([H])(N([H])C(=O)C([H])(N([H])C([H])([H])[H])C([H])([H])[H])C(C([H])([H])[H])(C([H])([H])[H])C([H])([H])[H])C([H])(C(=O)N([H])C3([H])c5c([H])c([H])c([H])c([H])c5C([H])([H])C([H])([H])C3([H])[H])C4([H])[H])c2C([H])([H])[H])C([H])([H])C([H])([H])C([H])(N([H])C(=O)N2C([H])([H])C([H])([H])C([H])([H])C([H])(n3nc(-c4c([H])c([H])c(Oc5c([H])c([H])c(F)c([H])c5F)c([H])c4[H])c(C(=O)N([H])[H])c3N([H])[H])C2([H])[H])C1([H])[H]

>  <smiles>  (66) 
[H]C1=C(c2c([H])c([H])c([H])c(Oc3c([H])c([H])c4c(c3[H])C([H])([H])N(C(=O)C([H])(N([H])C(=O)C([H])(N([H])C([H])([H])[H])C([H])([H])[H])C(C([H])([H])[H])(C([H])([H])[H])C([H])([H])[H])C([H])(C(=O)N([H])C3([H])c5c([H])c([H])c([H])c([H])c5C([H])([H])C([H])([H])C3([H])[H])C4([H])[H])c2C([H])([H])[H])C([H])([H])C([H])([H])C([H])(N([H])C(=O)N2C([H])([H])C([H])([H])C([H])([H])C([H])(n3nc(-c4c([H])c([H])c(Oc5c([H])c([H])c(F)c([H])c5F)c([H])c4[H])c(C(=O)N([H])[H])c3N([H])[H])C2([H])[H])C1([H])[H]

$$$$
67:0:0
     RDKit          3D

 95105  0  0  1  0  0  0  0  0999 V2000
  -29.0180  -18.3790   18.5130 C   0  0  0  0  0  3  0  0  0  0  0  0
  -29.6450  -17.2420   19.1140 C   0  0  0  0  0  0  0  0  0  0  0  0
  -30.1490  -17.2170   20.4690 C   0  0  0  0  0  0  0  0  0  0  0  0
  -28.8870  -19.6330   19.1410 C   0  0  0  0  0  0  0  0  0  0  0  0
  -29.4010  -19.8430   20.4110 C   0  0  0  0  0  0  0  0  0  0  0  0
  -30.0230  -18.6160   21.0760 C   0  0  0  0  0  0  0  0  0  0  0  0
  -28.1850  -20.8600   18.5250 C   0  0  0  0  0  2  0  0  0  0  0  0
  -29.3070  -24.2250   20.9600 C   0  0  0  0  0  2  0  0  0  0  0  0
  -29.9130  -22.6840   20.8400 C   0  0  0  0  0  2  0  0  0  0  0  0
  -28.0350  -23.5410   19.0300 C   0  0  0  0  0  2  0  0  0  0  0  0
  -27.9880  -21.9690   19.6140 C   0  0  0  0  0  3  0  0  0  0  0  0
  -28.1430  -24.8320   20.0090 C   0  0  0  0  0  3  0  0  0  0  0  0
  -28.9380  -21.4140   20.7910 C   0  0  1  0  0  0  0  0  0  0  0  0
  -30.5640  -18.8140   22.4770 C   0  0  0  0  0  1  0  0  0  0  0  0
  -28.1600  -21.3450   22.1190 C   0  0  0  0  0  1  0  0  0  0  0  0
  -30.9390  -15.8320   20.9870 C   0  0  0  0  0  0  0  0  0  0  0  0
  -31.1990  -13.3480   20.3450 C   0  0  0  0  0  2  0  0  0  0  0  0
  -30.4420  -12.9020   19.0690 C   0  0  0  0  0  2  0  0  0  0  0  0
  -28.9570  -12.6180   19.3510 C   0  0  0  0  0  2  0  0  0  0  0  0
  -28.3140  -13.6300   20.3320 C   0  0  0  0  0  3  0  0  0  0  0  0
  -29.2180  -13.9660   21.5280 C   0  0  0  0  0  2  0  0  0  0  0  0
  -30.4720  -14.4980   20.9780 N   0  0  0  0  0  0  0  0  0  0  0  0
  -32.1730  -15.9070   21.0730 O   0  0  0  0  0  0  0  0  0  0  0  0
  -25.8630  -14.0240   20.9190 C   0  0  0  0  0  0  0  0  0  0  0  0
  -24.8270  -13.1720   21.1850 C   0  0  0  0  0  0  0  0  0  0  0  0
  -25.3830  -11.8560   21.1700 C   0  0  0  0  0  0  0  0  0  0  0  0
  -26.9760  -13.2230   20.7420 N   0  0  0  0  0  0  0  0  0  0  0  0
  -26.6950  -11.9130   20.9690 N   0  0  0  0  0  0  0  0  0  0  0  0
  -24.7310  -10.5430   21.2750 C   0  0  0  0  0  0  0  0  0  0  0  0
  -25.0490   -9.6380   22.3120 C   0  0  0  0  0  3  0  0  0  0  0  0
  -24.3910   -8.3920   22.4030 C   0  0  0  0  0  3  0  0  0  0  0  0
  -23.4020   -8.0430   21.4540 C   0  0  0  0  0  0  0  0  0  0  0  0
  -23.1040   -8.9370   20.4100 C   0  0  0  0  0  3  0  0  0  0  0  0
  -23.7640  -10.1740   20.3190 C   0  0  0  0  0  3  0  0  0  0  0  0
  -22.7280   -6.8460   21.4470 O   0  0  0  0  0  0  0  0  0  0  0  0
  -22.3710   -6.2140   22.6120 C   0  0  0  0  0  0  0  0  0  0  0  0
  -21.5570   -6.8420   23.5810 C   0  0  0  0  0  3  0  0  0  0  0  0
  -21.1580   -6.1310   24.7310 C   0  0  0  0  0  3  0  0  0  0  0  0
  -21.5630   -4.7940   24.9090 C   0  0  0  0  0  0  0  0  0  0  0  0
  -22.3690   -4.1670   23.9420 C   0  0  0  0  0  3  0  0  0  0  0  0
  -22.7680   -4.8750   22.7950 C   0  0  0  0  0  0  0  0  0  0  0  0
  -23.5270   -4.2590   21.8560 F   0  0  0  0  0  0  0  0  0  0  0  0
  -21.1750   -4.1100   26.0090 F   0  0  0  0  0  0  0  0  0  0  0  0
  -23.3830  -13.5510   21.3380 C   0  0  0  0  0  0  0  0  0  0  0  0
  -22.6350  -12.7920   22.1310 N   0  0  0  0  0  0  0  0  0  0  0  0
  -22.9240  -14.5540   20.7960 O   0  0  0  0  0  0  0  0  0  0  0  0
  -23.0180  -11.9790   22.5880 H   0  0  0  0  0  0  0  0  0  0  0  0
  -21.6640  -13.0290   22.2850 H   0  0  0  0  0  0  0  0  0  0  0  0
  -25.9530  -15.4070   20.7820 N   0  0  0  0  0  0  0  0  0  0  0  0
  -25.1430  -16.0130   20.8550 H   0  0  0  0  0  0  0  0  0  0  0  0
  -26.8040  -15.9110   20.5710 H   0  0  0  0  0  0  0  0  0  0  0  0
  -29.9030  -16.1420   18.1430 C   0  0  0  0  0  0  0  0  0  0  0  0
  -28.6910  -15.5290   17.4490 C   0  0  0  0  0  1  0  0  0  0  0  0
  -31.0310  -15.7530   17.8390 O   0  0  0  0  0  0  0  0  0  0  0  0
  -28.2290  -26.3990   19.5920 O   0  0  0  0  0  0  0  0  0  0  0  0
  -24.7840  -32.0040   23.1640 C   0  0  0  0  0  0  0  0  0  0  0  0
  -27.1910  -27.4350   19.6850 C   0  0  0  0  0  0  0  0  0  0  0  0
  -23.5180  -30.7560   21.4590 C   0  0  0  0  0  3  0  0  0  0  0  0
  -24.9000  -29.2730   19.8620 C   0  0  0  0  0  0  0  0  0  0  0  0
  -26.0720  -30.9870   21.2320 C   0  0  0  0  0  2  0  0  0  0  0  0
  -26.1090  -29.6400   20.4670 C   0  0  0  0  0  0  0  0  0  0  0  0
  -27.2510  -28.7450   20.3510 C   0  0  0  0  0  3  0  0  0  0  0  0
  -25.9540  -27.1970   19.0510 C   0  0  0  0  0  3  0  0  0  0  0  0
  -24.8430  -28.0730   19.1350 C   0  0  0  0  0  3  0  0  0  0  0  0
  -23.6890  -30.1860   20.0240 C   0  0  0  0  0  2  0  0  0  0  0  0
  -24.8140  -31.2700   22.0080 N   0  0  0  0  0  0  0  0  0  0  0  0
  -23.7170  -32.2490   23.7510 O   0  0  0  0  0  0  0  0  0  0  0  0
  -22.8560  -29.6850   22.3630 C   0  0  0  0  0  0  0  0  0  0  0  0
  -21.5240  -29.5200   22.2570 N   0  0  0  0  0  0  0  0  0  0  0  0
  -23.5450  -29.0020   23.1260 O   0  0  0  0  0  0  0  0  0  0  0  0
  -21.0200  -30.1280   21.6250 H   0  0  0  0  0  0  0  0  0  0  0  0
  -18.1550  -28.2810   22.7730 C   0  0  0  0  0  0  0  0  0  0  0  0
  -20.7240  -28.5220   22.9730 C   0  0  0  0  0  3  0  0  0  0  0  0
  -20.8000  -27.1410   22.2810 C   0  0  0  0  0  2  0  0  0  0  0  0
  -19.6650  -26.9050   21.2790 C   0  0  0  0  0  2  0  0  0  0  0  0
  -18.3050  -26.9950   21.9770 C   0  0  0  0  0  2  0  0  0  0  0  0
  -19.2890  -29.0060   23.2260 C   0  0  0  0  0  0  0  0  0  0  0  0
  -19.0930  -30.2110   23.9330 C   0  0  0  0  0  3  0  0  0  0  0  0
  -17.7940  -30.6940   24.1870 C   0  0  0  0  0  3  0  0  0  0  0  0
  -16.6750  -29.9650   23.7470 C   0  0  0  0  0  3  0  0  0  0  0  0
  -16.8570  -28.7610   23.0450 C   0  0  0  0  0  3  0  0  0  0  0  0
  -26.0830  -32.5820   23.8020 C   0  0  0  0  0  3  0  0  0  0  0  0
  -25.7700  -33.9160   24.3410 N   0  0  0  0  0  0  0  0  0  0  0  0
  -26.0580  -35.0760   23.7370 C   0  0  0  0  0  0  0  0  0  0  0  0
  -26.6800  -35.1350   22.6730 O   0  0  0  0  0  0  0  0  0  0  0  0
  -25.2180  -33.9410   25.1860 H   0  0  0  0  0  0  0  0  0  0  0  0
  -24.3050  -36.8840   23.7200 C   0  0  0  0  0  1  0  0  0  0  0  0
  -25.5800  -36.3770   24.4140 C   0  0  0  0  0  3  0  0  0  0  0  0
  -27.7370  -37.1590   25.2840 C   0  0  0  0  0  1  0  0  0  0  0  0
  -26.5990  -37.4490   24.4180 N   0  0  0  0  0  0  0  0  0  0  0  0
  -26.1900  -38.3330   24.7140 H   0  0  0  0  0  0  0  0  0  0  0  0
  -26.6740  -31.6640   24.9410 C   0  0  1  0  0  0  0  0  0  0  0  0
  -25.6460  -31.2790   26.0310 C   0  0  0  0  0  1  0  0  0  0  0  0
  -27.2440  -30.3530   24.3550 C   0  0  0  0  0  1  0  0  0  0  0  0
  -27.8540  -32.3840   25.6340 C   0  0  0  0  0  1  0  0  0  0  0  0
  1  2  2  0
  1  4  1  0
  2  3  1  0
  3 16  1  0
  3  6  2  0
  4  5  2  0
  5 13  1  0
  5  6  1  0
  6 14  1  0
  7  4  1  0
  9  8  1  0
 10 11  1  0
 10 12  1  0
 11  7  1  0
 11 13  1  0
 12 55  1  0
 12  8  1  0
 13  9  1  0
 13 15  1  1
 16 23  2  0
 17 22  1  0
 18 19  1  0
 18 17  1  0
 20 19  1  0
 20 27  1  0
 20 21  1  0
 22 16  1  0
 22 21  1  0
 24 25  2  0
 25 44  1  0
 26 25  1  0
 26 29  1  0
 27 24  1  0
 27 28  1  0
 28 26  2  0
 29 30  1  0
 30 31  2  0
 32 31  1  0
 33 32  2  0
 34 33  1  0
 34 29  2  0
 35 32  1  0
 35 36  1  0
 36 41  2  0
 36 37  1  0
 37 38  2  0
 38 39  1  0
 39 43  1  0
 40 39  2  0
 41 40  1  0
 42 41  1  0
 44 45  1  0
 45 48  1  0
 45 47  1  0
 46 44  2  0
 49 50  1  0
 49 24  1  0
 51 49  1  0
 52  2  1  0
 53 52  1  0
 54 52  2  0
 55 57  1  0
 56 67  2  0
 57 62  1  0
 58 66  1  0
 58 68  1  0
 59 65  1  0
 59 61  1  0
 60 66  1  0
 61 60  1  0
 62 61  2  0
 63 64  1  0
 63 57  2  0
 64 59  2  0
 65 58  1  0
 66 56  1  0
 68 70  2  0
 69 68  1  0
 71 69  1  0
 72 81  2  0
 72 77  1  0
 73 69  1  0
 73 77  1  0
 74 73  1  0
 75 76  1  0
 75 74  1  0
 76 72  1  0
 77 78  2  0
 78 79  1  0
 80 79  2  0
 81 80  1  0
 82 56  1  0
 82 83  1  0
 82 92  1  0
 83 86  1  0
 84 83  1  0
 84 88  1  0
 85 84  2  0
 88 87  1  0
 88 90  1  0
 90 91  1  0
 90 89  1  0
 92 95  1  1
 92 93  1  0
 94 92  1  0
M  ISO  4   3 100  12 101  16 100  55 101
M  END
>  <TORSDO>  (67) 
F 17

>  <SCORE>  (67) 
-7.314

>  <name>  (67) 
67

>  <ligand_id>  (67) 
67

>  <original_smiles>  (67) 
[H]c1c([H])c([H])c2c(c1[H])C([H])([H])C([H])([H])C([H])([H])C2([H])N([H])C(=O)C1([H])N(C(=O)C([H])(N([H])C(=O)C([H])(N([H])C([H])([H])[H])C([H])([H])[H])C(C([H])([H])[H])(C([H])([H])[H])C([H])([H])[H])C([H])([H])c2c([H])c(OC3([H])C([H])([H])C([H])([H])C4(C([H])([H])[H])c5c(C([H])([H])[H])c(C(=O)N6C([H])([H])C([H])([H])C([H])([H])C([H])(n7nc(-c8c([H])c([H])c(Oc9c([H])c([H])c(F)c([H])c9F)c([H])c8[H])c(C(=O)N([H])[H])c7N([H])[H])C6([H])[H])c(C(=O)C([H])([H])[H])c([H])c5C([H])([H])C4([H])C3([H])[H])c([H])c([H])c2C1([H])[H]

>  <smiles>  (67) 
[H]c1c([H])c([H])c2c(c1[H])C([H])([H])C([H])([H])C([H])([H])C2([H])N([H])C(=O)C1([H])N(C(=O)C([H])(N([H])C(=O)C([H])(N([H])C([H])([H])[H])C([H])([H])[H])C(C([H])([H])[H])(C([H])([H])[H])C([H])([H])[H])C([H])([H])c2c([H])c(OC3([H])C([H])([H])C([H])([H])C4(C([H])([H])[H])c5c(C([H])([H])[H])c(C(=O)N6C([H])([H])C([H])([H])C([H])([H])C([H])(n7nc(-c8c([H])c([H])c(Oc9c([H])c([H])c(F)c([H])c9F)c([H])c8[H])c(C(=O)N([H])[H])c7N([H])[H])C6([H])[H])c(C(=O)C([H])([H])[H])c([H])c5C([H])([H])C4([H])C3([H])[H])c([H])c([H])c2C1([H])[H]

$$$$
68:0:0
     RDKit          3D

 90 99  0  0  1  0  0  0  0  0999 V2000
  -29.2500  -18.4880   19.6930 C   0  0  0  0  0  3  0  0  0  0  0  0
  -30.3660  -18.0300   18.8630 C   0  0  0  0  0  0  0  0  0  0  0  0
  -29.9900  -20.8780   18.2140 C   0  0  0  0  0  0  0  0  0  0  0  0
  -28.9550  -21.0670   19.0970 C   0  0  0  0  0  0  0  0  0  0  0  0
  -30.6760  -19.4200   18.1210 C   0  0  0  0  0  0  0  0  0  0  0  0
  -28.6140  -19.8420   19.8190 C   0  0  0  0  0  3  0  0  0  0  0  0
  -30.0550  -22.5180   17.5960 C   0  0  0  0  0  3  0  0  0  0  0  0
  -28.3810  -22.6500   19.1680 C   0  0  0  0  0  3  0  0  0  0  0  0
  -28.8300  -23.8000   17.9940 C   0  0  0  0  0  0  0  0  0  0  0  0
  -31.1110  -16.3390   18.9390 C   0  0  0  0  0  0  0  0  0  0  0  0
  -31.3220  -13.6430   18.6130 C   0  0  0  0  0  2  0  0  0  0  0  0
  -30.3860  -12.9300   17.5870 C   0  0  0  0  0  2  0  0  0  0  0  0
  -29.0470  -12.5590   18.2350 C   0  0  0  0  0  2  0  0  0  0  0  0
  -28.5370  -13.7120   19.1300 C   0  0  0  0  0  3  0  0  0  0  0  0
  -29.6190  -14.3260   20.0530 C   0  0  0  0  0  2  0  0  0  0  0  0
  -30.6780  -14.9300   19.1940 N   0  0  0  0  0  0  0  0  0  0  0  0
  -32.3160  -16.2110   18.6280 O   0  0  0  0  0  0  0  0  0  0  0  0
  -26.3760  -14.2940   20.3190 C   0  0  0  0  0  0  0  0  0  0  0  0
  -25.3310  -13.5470   20.7810 C   0  0  0  0  0  0  0  0  0  0  0  0
  -25.6820  -12.1810   20.5460 C   0  0  0  0  0  0  0  0  0  0  0  0
  -27.2990  -13.3910   19.8270 N   0  0  0  0  0  0  0  0  0  0  0  0
  -26.9030  -12.1010   20.0240 N   0  0  0  0  0  0  0  0  0  0  0  0
  -24.8900  -10.9570   20.7430 C   0  0  0  0  0  0  0  0  0  0  0  0
  -25.3100   -9.9400   21.6300 C   0  0  0  0  0  3  0  0  0  0  0  0
  -24.5220   -8.7830   21.8160 C   0  0  0  0  0  3  0  0  0  0  0  0
  -23.3000   -8.6340   21.1180 C   0  0  0  0  0  0  0  0  0  0  0  0
  -22.8970   -9.6400   20.2220 C   0  0  0  0  0  3  0  0  0  0  0  0
  -23.6830  -10.7890   20.0340 C   0  0  0  0  0  3  0  0  0  0  0  0
  -22.4780   -7.5390   21.2200 O   0  0  0  0  0  0  0  0  0  0  0  0
  -22.2990   -6.8810   22.4110 C   0  0  0  0  0  0  0  0  0  0  0  0
  -21.7290   -7.5200   23.5350 C   0  0  0  0  0  3  0  0  0  0  0  0
  -21.5000   -6.7890   24.7170 C   0  0  0  0  0  3  0  0  0  0  0  0
  -21.8250   -5.4190   24.7760 C   0  0  0  0  0  0  0  0  0  0  0  0
  -22.3810   -4.7810   23.6530 C   0  0  0  0  0  3  0  0  0  0  0  0
  -22.6160   -5.5090   22.4730 C   0  0  0  0  0  0  0  0  0  0  0  0
  -23.1360   -4.8840   21.3910 F   0  0  0  0  0  0  0  0  0  0  0  0
  -21.5940   -4.7160   25.9070 F   0  0  0  0  0  0  0  0  0  0  0  0
  -24.0350  -14.0850   21.3100 C   0  0  0  0  0  0  0  0  0  0  0  0
  -23.4070  -13.3680   22.2320 N   0  0  0  0  0  0  0  0  0  0  0  0
  -23.5980  -15.1740   20.9410 O   0  0  0  0  0  0  0  0  0  0  0  0
  -23.7830  -12.4910   22.5590 H   0  0  0  0  0  0  0  0  0  0  0  0
  -22.5350  -13.7040   22.6210 H   0  0  0  0  0  0  0  0  0  0  0  0
  -26.6120  -15.6640   20.2460 N   0  0  0  0  0  0  0  0  0  0  0  0
  -25.9290  -16.3440   20.5580 H   0  0  0  0  0  0  0  0  0  0  0  0
  -27.4310  -16.0850   19.8230 H   0  0  0  0  0  0  0  0  0  0  0  0
  -33.2090  -19.5630   17.7260 C   0  0  0  0  0  1  0  0  0  0  0  0
  -31.8140  -19.3660   17.1080 C   0  0  0  0  0  2  0  0  0  0  0  0
  -27.8820  -20.3000   22.0280 C   0  0  0  0  0  1  0  0  0  0  0  0
  -27.5550  -19.9820   20.6780 O   0  0  0  0  0  0  0  0  0  0  0  0
  -28.7490  -25.6500   17.9750 O   0  0  0  0  0  0  0  0  0  0  0  0
  -25.5300  -31.0410   22.7870 C   0  0  0  0  0  0  0  0  0  0  0  0
  -27.7860  -26.8750   18.3310 C   0  0  0  0  0  0  0  0  0  0  0  0
  -24.2210  -30.1410   20.9100 C   0  0  0  0  0  3  0  0  0  0  0  0
  -25.5490  -28.9170   19.0090 C   0  0  0  0  0  0  0  0  0  0  0  0
  -26.7930  -30.2790   20.6640 C   0  0  0  0  0  2  0  0  0  0  0  0
  -26.7940  -29.0660   19.6350 C   0  0  0  0  0  0  0  0  0  0  0  0
  -27.8800  -28.0830   19.2760 C   0  0  0  0  0  3  0  0  0  0  0  0
  -26.5040  -26.9790   17.7220 C   0  0  0  0  0  3  0  0  0  0  0  0
  -25.4510  -27.9020   18.0350 C   0  0  0  0  0  3  0  0  0  0  0  0
  -24.3690  -29.8350   19.3900 C   0  0  0  0  0  2  0  0  0  0  0  0
  -25.5450  -30.5070   21.5130 N   0  0  0  0  0  0  0  0  0  0  0  0
  -24.4750  -31.1940   23.4280 O   0  0  0  0  0  0  0  0  0  0  0  0
  -23.5440  -28.9430   21.6320 C   0  0  0  0  0  0  0  0  0  0  0  0
  -22.2000  -28.8430   21.5860 N   0  0  0  0  0  0  0  0  0  0  0  0
  -24.2380  -28.1000   22.2060 O   0  0  0  0  0  0  0  0  0  0  0  0
  -21.6820  -29.5700   21.1130 H   0  0  0  0  0  0  0  0  0  0  0  0
  -18.8270  -27.6320   22.1810 C   0  0  0  0  0  0  0  0  0  0  0  0
  -21.4130  -27.7310   22.1310 C   0  0  0  0  0  3  0  0  0  0  0  0
  -21.3320  -26.5630   21.1190 C   0  0  0  0  0  2  0  0  0  0  0  0
  -20.0870  -26.6250   20.2290 C   0  0  0  0  0  2  0  0  0  0  0  0
  -18.8150  -26.5840   21.0830 C   0  0  0  0  0  2  0  0  0  0  0  0
  -20.0450  -28.1830   22.6640 C   0  0  0  0  0  0  0  0  0  0  0  0
  -19.9930  -29.1770   23.6650 C   0  0  0  0  0  3  0  0  0  0  0  0
  -18.7600  -29.6170   24.1820 C   0  0  0  0  0  3  0  0  0  0  0  0
  -17.5590  -29.0600   23.7060 C   0  0  0  0  0  3  0  0  0  0  0  0
  -17.5950  -28.0660   22.7120 C   0  0  0  0  0  3  0  0  0  0  0  0
  -26.8360  -31.5010   23.5030 C   0  0  0  0  0  3  0  0  0  0  0  0
  -26.5260  -32.7010   24.3060 N   0  0  0  0  0  0  0  0  0  0  0  0
  -26.8210  -33.9630   23.9640 C   0  0  0  0  0  0  0  0  0  0  0  0
  -27.4360  -34.2430   22.9300 O   0  0  0  0  0  0  0  0  0  0  0  0
  -25.9720  -32.5470   25.1330 H   0  0  0  0  0  0  0  0  0  0  0  0
  -25.1010  -35.7670   24.3580 C   0  0  0  0  0  1  0  0  0  0  0  0
  -26.3690  -35.0940   24.9130 C   0  0  0  0  0  3  0  0  0  0  0  0
  -28.5330  -35.6530   25.9400 C   0  0  0  0  0  1  0  0  0  0  0  0
  -27.4060  -36.1260   25.1430 N   0  0  0  0  0  0  0  0  0  0  0  0
  -27.0100  -36.9400   25.6040 H   0  0  0  0  0  0  0  0  0  0  0  0
  -27.4530  -30.3870   24.4380 C   0  0  1  0  0  0  0  0  0  0  0  0
  -26.4480  -29.7980   25.4560 C   0  0  0  0  0  1  0  0  0  0  0  0
  -28.0100  -29.2120   23.6050 C   0  0  0  0  0  1  0  0  0  0  0  0
  -28.6510  -30.9710   25.2250 C   0  0  0  0  0  1  0  0  0  0  0  0
  1  6  1  0
  2 10  1  0
  2  1  2  0
  3  4  1  0
  4  8  2  0
  4  6  1  0
  5  3  2  0
  5  2  1  0
  6 49  1  0
  7  9  2  0
  7  3  1  0
  9  8  1  0
 10 16  1  0
 11 16  1  0
 12 13  1  0
 12 11  1  0
 14 13  1  0
 14 21  1  0
 14 15  1  0
 16 15  1  0
 17 10  2  0
 18 19  2  0
 19 38  1  0
 20 23  1  0
 20 19  1  0
 21 22  1  0
 21 18  1  0
 22 20  2  0
 23 24  1  0
 24 25  2  0
 26 29  1  0
 26 25  1  0
 27 26  2  0
 28 27  1  0
 28 23  2  0
 29 30  1  0
 30 35  2  0
 30 31  1  0
 31 32  2  0
 32 33  1  0
 33 37  1  0
 34 33  2  0
 35 34  1  0
 36 35  1  0
 38 39  1  0
 39 41  1  0
 39 42  1  0
 40 38  2  0
 43 18  1  0
 43 44  1  0
 45 43  1  0
 47 46  1  0
 47  5  1  0
 49 48  1  0
 50  9  1  0
 50 52  1  0
 51 62  2  0
 52 57  1  0
 53 61  1  0
 53 63  1  0
 54 60  1  0
 54 56  1  0
 55 61  1  0
 56 55  1  0
 57 56  2  0
 58 59  1  0
 58 52  2  0
 59 54  2  0
 60 53  1  0
 61 51  1  0
 63 65  2  0
 64 63  1  0
 66 64  1  0
 67 72  2  0
 67 76  1  0
 68 64  1  0
 68 72  1  0
 69 68  1  0
 70 71  1  0
 70 69  1  0
 71 67  1  0
 72 73  1  0
 73 74  2  0
 75 74  1  0
 76 75  2  0
 77 51  1  0
 77 78  1  0
 77 87  1  0
 78 81  1  0
 79 78  1  0
 79 83  1  0
 80 79  2  0
 83 82  1  0
 83 85  1  0
 85 86  1  0
 85 84  1  0
 87 90  1  1
 87 88  1  0
 89 87  1  0
M  ISO  4   2 100   9 101  10 100  50 101
M  END
>  <TORSDO>  (68) 
F 18

>  <SCORE>  (68) 
-5.911

>  <name>  (68) 
68

>  <ligand_id>  (68) 
68

>  <original_smiles>  (68) 
[H]c1c([H])c([H])c2c(c1[H])C([H])([H])C([H])([H])C([H])([H])C2([H])N([H])C(=O)C1([H])N(C(=O)C([H])(N([H])C(=O)C([H])(N([H])C([H])([H])[H])C([H])([H])[H])C(C([H])([H])[H])(C([H])([H])[H])C([H])([H])[H])C([H])([H])c2c([H])c(OC3([H])C([H])([H])c4c(OC([H])([H])[H])c([H])c(C(=O)N5C([H])([H])C([H])([H])C([H])([H])C([H])(n6nc(-c7c([H])c([H])c(Oc8c([H])c([H])c(F)c([H])c8F)c([H])c7[H])c(C(=O)N([H])[H])c6N([H])[H])C5([H])[H])c(C([H])([H])C([H])([H])[H])c4C3([H])[H])c([H])c([H])c2C1([H])[H]

>  <smiles>  (68) 
[H]c1c([H])c([H])c2c(c1[H])C([H])([H])C([H])([H])C([H])([H])C2([H])N([H])C(=O)C1([H])N(C(=O)C([H])(N([H])C(=O)C([H])(N([H])C([H])([H])[H])C([H])([H])[H])C(C([H])([H])[H])(C([H])([H])[H])C([H])([H])[H])C([H])([H])c2c([H])c(OC3([H])C([H])([H])c4c(OC([H])([H])[H])c([H])c(C(=O)N5C([H])([H])C([H])([H])C([H])([H])C([H])(n6nc(-c7c([H])c([H])c(Oc8c([H])c([H])c(F)c([H])c8F)c([H])c7[H])c(C(=O)N([H])[H])c6N([H])[H])C5([H])[H])c(C([H])([H])C([H])([H])[H])c4C3([H])[H])c([H])c([H])c2C1([H])[H]

$$$$
69:0:0
     RDKit          3D

 94103  0  0  1  0  0  0  0  0999 V2000
  -30.6080  -22.3370   22.1440 C   0  0  0  0  0  3  0  0  0  0  0  0
  -30.2270  -23.5570   22.7350 C   0  0  0  0  0  3  0  0  0  0  0  0
  -29.5110  -23.0090   20.0810 C   0  0  0  0  0  3  0  0  0  0  0  0
  -30.2480  -22.0420   20.8140 C   0  0  0  0  0  0  0  0  0  0  0  0
  -29.4670  -24.5060   22.0160 C   0  0  0  0  0  0  0  0  0  0  0  0
  -29.1160  -24.2480   20.6670 C   0  0  0  0  0  0  0  0  0  0  0  0
  -29.0140  -25.7700   22.7300 C   0  0  0  0  0  1  0  0  0  0  0  0
  -30.7380  -20.7230   20.1830 C   0  0  0  0  0  2  0  0  0  0  0  0
  -29.6090  -17.3320   18.9510 C   0  0  0  0  0  2  0  0  0  0  0  0
  -29.6730  -18.8500   18.7880 C   0  0  0  0  0  2  0  0  0  0  0  0
  -30.3860  -18.2350   21.0370 C   0  0  0  0  0  2  0  0  0  0  0  0
  -30.6170  -17.0460   20.0640 C   0  0  0  0  0  3  0  0  0  0  0  0
  -29.8010  -19.4470   20.2130 C   0  0  1  0  0  0  0  0  0  0  0  0
  -28.3860  -19.7910   20.7360 C   0  0  0  0  0  1  0  0  0  0  0  0
  -31.1680  -14.6000   20.2660 C   0  0  0  0  0  0  0  0  0  0  0  0
  -30.8300  -12.4130   19.1840 C   0  0  0  0  0  2  0  0  0  0  0  0
  -29.8890  -12.6280   17.9800 C   0  0  0  0  0  2  0  0  0  0  0  0
  -28.4130  -12.5320   18.4190 C   0  0  0  0  0  2  0  0  0  0  0  0
  -28.1030  -13.3940   19.6720 C   0  0  0  0  0  3  0  0  0  0  0  0
  -29.1580  -13.1650   20.7800 C   0  0  0  0  0  2  0  0  0  0  0  0
  -30.4870  -13.4220   20.2010 N   0  0  0  0  0  0  0  0  0  0  0  0
  -32.3110  -14.7280   19.8210 O   0  0  0  0  0  0  0  0  0  0  0  0
  -30.4260  -15.6800   20.6080 N   0  0  0  0  0  0  0  0  0  0  0  0
  -29.5090  -15.4670   20.9710 H   0  0  0  0  0  0  0  0  0  0  0  0
  -25.7390  -14.0840   20.4140 C   0  0  0  0  0  0  0  0  0  0  0  0
  -24.6480  -13.3490   20.7920 C   0  0  0  0  0  0  0  0  0  0  0  0
  -25.0580  -11.9810   20.7420 C   0  0  0  0  0  0  0  0  0  0  0  0
  -26.7470  -13.1660   20.1630 N   0  0  0  0  0  0  0  0  0  0  0  0
  -26.3410  -11.8960   20.4180 N   0  0  0  0  0  0  0  0  0  0  0  0
  -24.2880  -10.7470   20.9290 C   0  0  0  0  0  0  0  0  0  0  0  0
  -24.6640   -9.7780   21.8860 C   0  0  0  0  0  3  0  0  0  0  0  0
  -23.8960   -8.6060   22.0590 C   0  0  0  0  0  3  0  0  0  0  0  0
  -22.7370   -8.3960   21.2740 C   0  0  0  0  0  0  0  0  0  0  0  0
  -22.3780   -9.3510   20.3080 C   0  0  0  0  0  3  0  0  0  0  0  0
  -23.1480  -10.5140   20.1320 C   0  0  0  0  0  3  0  0  0  0  0  0
  -21.9480   -7.2730   21.3540 O   0  0  0  0  0  0  0  0  0  0  0  0
  -21.8010   -6.5770   22.5260 C   0  0  0  0  0  0  0  0  0  0  0  0
  -21.2840   -7.1830   23.6940 C   0  0  0  0  0  3  0  0  0  0  0  0
  -21.0840   -6.4120   24.8570 C   0  0  0  0  0  3  0  0  0  0  0  0
  -21.3900   -5.0380   24.8540 C   0  0  0  0  0  0  0  0  0  0  0  0
  -21.8990   -4.4330   23.6920 C   0  0  0  0  0  3  0  0  0  0  0  0
  -22.1000   -5.2000   22.5300 C   0  0  0  0  0  0  0  0  0  0  0  0
  -22.5710   -4.6070   21.4070 F   0  0  0  0  0  0  0  0  0  0  0  0
  -21.1920   -4.2960   25.9680 F   0  0  0  0  0  0  0  0  0  0  0  0
  -23.2740  -13.8760   21.0870 C   0  0  0  0  0  0  0  0  0  0  0  0
  -22.5350  -13.2130   21.9710 N   0  0  0  0  0  0  0  0  0  0  0  0
  -22.8620  -14.9140   20.5700 O   0  0  0  0  0  0  0  0  0  0  0  0
  -22.8750  -12.3730   22.4160 H   0  0  0  0  0  0  0  0  0  0  0  0
  -21.6140  -13.5550   22.2090 H   0  0  0  0  0  0  0  0  0  0  0  0
  -25.9530  -15.4500   20.2440 N   0  0  0  0  0  0  0  0  0  0  0  0
  -25.2070  -16.1280   20.3540 H   0  0  0  0  0  0  0  0  0  0  0  0
  -26.8040  -15.8530   19.8780 H   0  0  0  0  0  0  0  0  0  0  0  0
  -28.1840  -25.1860   19.8830 C   0  0  0  0  0  2  0  0  0  0  0  0
  -28.4230  -26.6160   19.9600 O   0  0  0  0  0  0  0  0  0  0  0  0
  -24.5940  -31.7640   23.0910 C   0  0  0  0  0  0  0  0  0  0  0  0
  -27.2800  -27.4040   19.9040 C   0  0  0  0  0  0  0  0  0  0  0  0
  -23.4080  -30.3940   21.4130 C   0  0  0  0  0  3  0  0  0  0  0  0
  -24.8800  -28.9210   19.9420 C   0  0  0  0  0  0  0  0  0  0  0  0
  -25.9370  -30.7740   21.2360 C   0  0  0  0  0  2  0  0  0  0  0  0
  -26.0360  -29.4260   20.5500 C   0  0  0  0  0  0  0  0  0  0  0  0
  -27.2410  -28.6770   20.5280 C   0  0  0  0  0  3  0  0  0  0  0  0
  -26.1050  -26.9410   19.2620 C   0  0  0  0  0  3  0  0  0  0  0  0
  -24.9120  -27.6790   19.2930 C   0  0  0  0  0  3  0  0  0  0  0  0
  -23.6260  -29.7630   20.0140 C   0  0  0  0  0  2  0  0  0  0  0  0
  -24.6640  -30.9920   21.9710 N   0  0  0  0  0  0  0  0  0  0  0  0
  -23.5080  -32.0110   23.6350 O   0  0  0  0  0  0  0  0  0  0  0  0
  -22.7650  -29.3360   22.3420 C   0  0  0  0  0  0  0  0  0  0  0  0
  -21.4400  -29.1560   22.2180 N   0  0  0  0  0  0  0  0  0  0  0  0
  -23.4560  -28.6840   23.1290 O   0  0  0  0  0  0  0  0  0  0  0  0
  -20.9420  -29.7310   21.5540 H   0  0  0  0  0  0  0  0  0  0  0  0
  -18.0680  -27.9700   22.7370 C   0  0  0  0  0  0  0  0  0  0  0  0
  -20.6330  -28.1930   22.9660 C   0  0  0  0  0  3  0  0  0  0  0  0
  -20.7100  -26.7870   22.3280 C   0  0  0  0  0  2  0  0  0  0  0  0
  -19.5840  -26.5180   21.3240 C   0  0  0  0  0  2  0  0  0  0  0  0
  -18.2170  -26.6490   22.0000 C   0  0  0  0  0  2  0  0  0  0  0  0
  -19.2010  -28.7020   23.1770 C   0  0  0  0  0  0  0  0  0  0  0  0
  -19.0070  -29.9400   23.8260 C   0  0  0  0  0  3  0  0  0  0  0  0
  -17.7120  -30.4450   24.0400 C   0  0  0  0  0  3  0  0  0  0  0  0
  -16.5920  -29.7090   23.6180 C   0  0  0  0  0  3  0  0  0  0  0  0
  -16.7710  -28.4720   22.9710 C   0  0  0  0  0  3  0  0  0  0  0  0
  -25.8710  -32.3930   23.7300 C   0  0  0  0  0  3  0  0  0  0  0  0
  -26.3920  -31.5990   24.9900 C   0  0  1  0  0  0  0  0  0  0  0  0
  -25.2980  -31.3260   26.0490 C   0  0  0  0  0  1  0  0  0  0  0  0
  -26.9910  -30.2360   24.5690 C   0  0  0  0  0  1  0  0  0  0  0  0
  -27.5310  -32.3920   25.6720 C   0  0  0  0  0  1  0  0  0  0  0  0
  -25.5470  -33.7790   24.0880 N   0  0  0  0  0  0  0  0  0  0  0  0
  -25.8770  -34.8510   23.3540 C   0  0  0  0  0  0  0  0  0  0  0  0
  -26.5560  -34.7760   22.3260 O   0  0  0  0  0  0  0  0  0  0  0  0
  -24.9480  -33.9140   24.8890 H   0  0  0  0  0  0  0  0  0  0  0  0
  -24.1440  -36.6400   23.0090 C   0  0  0  0  0  1  0  0  0  0  0  0
  -25.3720  -36.2240   23.8360 C   0  0  0  0  0  3  0  0  0  0  0  0
  -27.4780  -37.1050   24.7360 C   0  0  0  0  0  1  0  0  0  0  0  0
  -26.4000  -37.2860   23.7680 N   0  0  0  0  0  0  0  0  0  0  0  0
  -25.9850  -38.2000   23.9240 H   0  0  0  0  0  0  0  0  0  0  0  0
  1  2  1  0
  3  6  2  0
  3  4  1  0
  4  1  2  0
  5  7  1  0
  5  2  2  0
  6  5  1  0
  8 13  1  0
  8  4  1  0
  9 12  1  0
 10  9  1  0
 10 13  1  0
 12 23  1  0
 12 11  1  0
 13 14  1  1
 13 11  1  0
 15 23  1  0
 16 21  1  0
 17 18  1  0
 17 16  1  0
 19 18  1  0
 19 28  1  0
 19 20  1  0
 21 15  1  0
 21 20  1  0
 22 15  2  0
 23 24  1  0
 25 26  2  0
 26 45  1  0
 27 26  1  0
 27 30  1  0
 28 25  1  0
 28 29  1  0
 29 27  2  0
 30 31  1  0
 31 32  2  0
 33 36  1  0
 33 32  1  0
 34 33  2  0
 35 34  1  0
 35 30  2  0
 36 37  1  0
 37 42  2  0
 37 38  1  0
 38 39  2  0
 40 39  1  0
 40 44  1  0
 41 40  2  0
 42 41  1  0
 43 42  1  0
 45 46  1  0
 46 49  1  0
 46 48  1  0
 47 45  2  0
 50 51  1  0
 50 25  1  0
 52 50  1  0
 53 54  1  0
 53  6  1  0
 55 66  2  0
 56 54  1  0
 56 61  1  0
 57 65  1  0
 57 67  1  0
 58 64  1  0
 58 60  1  0
 59 65  1  0
 60 59  1  0
 61 60  2  0
 62 63  1  0
 62 56  2  0
 63 58  2  0
 64 57  1  0
 65 55  1  0
 67 69  2  0
 68 67  1  0
 70 68  1  0
 71 80  2  0
 71 76  1  0
 72 68  1  0
 72 76  1  0
 73 72  1  0
 74 75  1  0
 74 73  1  0
 75 71  1  0
 76 77  2  0
 77 78  1  0
 79 78  2  0
 80 79  1  0
 81 55  1  0
 81 86  1  0
 81 82  1  0
 82 85  1  1
 82 83  1  0
 84 82  1  0
 86 89  1  0
 87 91  1  0
 87 86  1  0
 88 87  2  0
 91 90  1  0
 93 91  1  0
 93 94  1  0
 93 92  1  0
M  ISO  4  15 100  23 100  53 101  54 101
M  END
>  <TORSDO>  (69) 
F 19

>  <SCORE>  (69) 
-14.017

>  <name>  (69) 
69

>  <ligand_id>  (69) 
69

>  <original_smiles>  (69) 
[H]c1c([H])c([H])c2c(c1[H])C([H])([H])C([H])([H])C([H])([H])C2([H])N([H])C(=O)C1([H])N(C(=O)C([H])(N([H])C(=O)C([H])(N([H])C([H])([H])[H])C([H])([H])[H])C(C([H])([H])[H])(C([H])([H])[H])C([H])([H])[H])C([H])([H])c2c([H])c(OC([H])([H])c3c([H])c(C([H])([H])C4(C([H])([H])[H])C([H])([H])C([H])([H])C([H])(N([H])C(=O)N5C([H])([H])C([H])([H])C([H])([H])C([H])(n6nc(-c7c([H])c([H])c(Oc8c([H])c([H])c(F)c([H])c8F)c([H])c7[H])c(C(=O)N([H])[H])c6N([H])[H])C5([H])[H])C4([H])[H])c([H])c([H])c3C([H])([H])[H])c([H])c([H])c2C1([H])[H]

>  <smiles>  (69) 
[H]c1c([H])c([H])c2c(c1[H])C([H])([H])C([H])([H])C([H])([H])C2([H])N([H])C(=O)C1([H])N(C(=O)C([H])(N([H])C(=O)C([H])(N([H])C([H])([H])[H])C([H])([H])[H])C(C([H])([H])[H])(C([H])([H])[H])C([H])([H])[H])C([H])([H])c2c([H])c(OC([H])([H])c3c([H])c(C([H])([H])C4(C([H])([H])[H])C([H])([H])C([H])([H])C([H])(N([H])C(=O)N5C([H])([H])C([H])([H])C([H])([H])C([H])(n6nc(-c7c([H])c([H])c(Oc8c([H])c([H])c(F)c([H])c8F)c([H])c7[H])c(C(=O)N([H])[H])c6N([H])[H])C5([H])[H])C4([H])[H])c([H])c([H])c3C([H])([H])[H])c([H])c([H])c2C1([H])[H]

$$$$
70:0:0
     RDKit          3D

 92101  0  0  1  0  0  0  0  0999 V2000
  -29.4840  -21.0820   19.2060 C   0  0  0  0  0  3  0  0  0  0  0  0
  -29.5340  -20.1620   21.8070 C   0  0  0  0  0  3  0  0  0  0  0  0
  -29.6900  -19.6580   19.4750 C   0  0  0  0  0  0  0  0  0  0  0  0
  -29.7680  -19.1720   20.8000 C   0  0  0  0  0  0  0  0  0  0  0  0
  -29.3110  -22.1080   20.2180 C   0  0  0  0  0  0  0  0  0  0  0  0
  -29.3180  -21.5620   21.5420 C   0  0  0  0  0  0  0  0  0  0  0  0
  -29.9390  -18.6430   18.3880 C   0  0  0  0  0  0  0  0  0  0  0  0
  -29.7790  -17.1050   18.6520 C   0  0  0  0  0  2  0  0  0  0  0  0
  -30.2410  -17.6770   21.1410 C   0  0  0  0  0  3  0  0  0  0  0  0
  -29.9160  -16.4810   20.0930 C   0  0  0  0  0  3  0  0  0  0  0  0
  -29.1770  -22.4970   22.7330 C   0  0  0  0  0  1  0  0  0  0  0  0
  -31.7320  -17.7350   21.5120 C   0  0  0  0  0  1  0  0  0  0  0  0
  -30.2220  -18.9930   17.2400 O   0  0  0  0  0  0  0  0  0  0  0  0
  -30.7410  -15.0460   20.0410 C   0  0  0  0  0  0  0  0  0  0  0  0
  -30.5540  -12.7440   19.0380 C   0  0  0  0  0  2  0  0  0  0  0  0
  -29.5590  -12.8130   17.8570 C   0  0  0  0  0  2  0  0  0  0  0  0
  -28.1160  -12.5980   18.3500 C   0  0  0  0  0  2  0  0  0  0  0  0
  -27.7850  -13.4520   19.6010 C   0  0  0  0  0  3  0  0  0  0  0  0
  -28.8990  -13.3890   20.6650 C   0  0  0  0  0  2  0  0  0  0  0  0
  -30.1530  -13.7870   20.0230 N   0  0  0  0  0  0  0  0  0  0  0  0
  -31.9350  -15.1010   19.7330 O   0  0  0  0  0  0  0  0  0  0  0  0
  -25.4500  -13.9960   20.4990 C   0  0  0  0  0  0  0  0  0  0  0  0
  -24.4080  -13.2020   20.8940 C   0  0  0  0  0  0  0  0  0  0  0  0
  -24.8720  -11.8550   20.7800 C   0  0  0  0  0  0  0  0  0  0  0  0
  -26.4780  -13.1320   20.1600 N   0  0  0  0  0  0  0  0  0  0  0  0
  -26.1420  -11.8360   20.3950 N   0  0  0  0  0  0  0  0  0  0  0  0
  -24.1580  -10.5860   20.9570 C   0  0  0  0  0  0  0  0  0  0  0  0
  -24.5780   -9.6250   21.9040 C   0  0  0  0  0  3  0  0  0  0  0  0
  -23.8600   -8.4200   22.0680 C   0  0  0  0  0  3  0  0  0  0  0  0
  -22.7090   -8.1680   21.2840 C   0  0  0  0  0  0  0  0  0  0  0  0
  -22.3110   -9.1160   20.3250 C   0  0  0  0  0  3  0  0  0  0  0  0
  -23.0290  -10.3120   20.1590 C   0  0  0  0  0  3  0  0  0  0  0  0
  -21.9610   -7.0170   21.3610 O   0  0  0  0  0  0  0  0  0  0  0  0
  -21.7910   -6.3440   22.5440 C   0  0  0  0  0  0  0  0  0  0  0  0
  -21.1870   -6.9530   23.6660 C   0  0  0  0  0  3  0  0  0  0  0  0
  -20.9670   -6.2060   24.8400 C   0  0  0  0  0  3  0  0  0  0  0  0
  -21.3400   -4.8490   24.8920 C   0  0  0  0  0  0  0  0  0  0  0  0
  -21.9360   -4.2390   23.7740 C   0  0  0  0  0  3  0  0  0  0  0  0
  -22.1570   -4.9850   22.6020 C   0  0  0  0  0  0  0  0  0  0  0  0
  -22.7130   -4.3860   21.5220 F   0  0  0  0  0  0  0  0  0  0  0  0
  -21.1220   -4.1280   26.0170 F   0  0  0  0  0  0  0  0  0  0  0  0
  -23.0280  -13.6640   21.2600 C   0  0  0  0  0  0  0  0  0  0  0  0
  -22.3520  -12.9350   22.1410 N   0  0  0  0  0  0  0  0  0  0  0  0
  -22.5600  -14.7050   20.8000 O   0  0  0  0  0  0  0  0  0  0  0  0
  -22.7450  -12.0920   22.5330 H   0  0  0  0  0  0  0  0  0  0  0  0
  -21.4230  -13.2210   22.4210 H   0  0  0  0  0  0  0  0  0  0  0  0
  -25.6000  -15.3740   20.3740 N   0  0  0  0  0  0  0  0  0  0  0  0
  -24.8320  -16.0130   20.5480 H   0  0  0  0  0  0  0  0  0  0  0  0
  -26.4250  -15.8390   20.0200 H   0  0  0  0  0  0  0  0  0  0  0  0
  -29.3970  -23.7220   19.9170 C   0  0  0  0  0  3  0  0  0  0  0  0
  -28.1990  -24.8640   19.9730 C   0  0  0  0  0  3  0  0  0  0  0  0
  -28.4540  -26.3880   19.9590 O   0  0  0  0  0  0  0  0  0  0  0  0
  -24.7220  -31.7750   23.2680 C   0  0  0  0  0  0  0  0  0  0  0  0
  -27.3720  -27.3260   19.9620 C   0  0  0  0  0  0  0  0  0  0  0  0
  -23.5470  -30.4810   21.5280 C   0  0  0  0  0  3  0  0  0  0  0  0
  -25.0220  -29.0190   20.0210 C   0  0  0  0  0  0  0  0  0  0  0  0
  -26.0980  -30.7860   21.4070 C   0  0  0  0  0  2  0  0  0  0  0  0
  -26.1890  -29.4440   20.6680 C   0  0  0  0  0  0  0  0  0  0  0  0
  -27.3650  -28.6130   20.6250 C   0  0  0  0  0  3  0  0  0  0  0  0
  -26.1770  -26.9960   19.2830 C   0  0  0  0  0  3  0  0  0  0  0  0
  -25.0270  -27.8090   19.3130 C   0  0  0  0  0  3  0  0  0  0  0  0
  -23.7850  -29.8960   20.1120 C   0  0  0  0  0  2  0  0  0  0  0  0
  -24.8070  -31.0310   22.1250 N   0  0  0  0  0  0  0  0  0  0  0  0
  -23.6290  -32.0160   23.8030 O   0  0  0  0  0  0  0  0  0  0  0  0
  -22.8710  -29.4040   22.4140 C   0  0  0  0  0  0  0  0  0  0  0  0
  -21.5440  -29.2430   22.2720 N   0  0  0  0  0  0  0  0  0  0  0  0
  -23.5420  -28.7200   23.1910 O   0  0  0  0  0  0  0  0  0  0  0  0
  -21.0590  -29.8480   21.6260 H   0  0  0  0  0  0  0  0  0  0  0  0
  -18.1510  -28.0640   22.7380 C   0  0  0  0  0  0  0  0  0  0  0  0
  -20.7200  -28.2560   22.9740 C   0  0  0  0  0  3  0  0  0  0  0  0
  -20.7820  -26.8780   22.2720 C   0  0  0  0  0  2  0  0  0  0  0  0
  -19.6560  -26.6670   21.2560 C   0  0  0  0  0  2  0  0  0  0  0  0
  -18.2890  -26.7790   21.9390 C   0  0  0  0  0  2  0  0  0  0  0  0
  -19.2930  -28.7660   23.2090 C   0  0  0  0  0  0  0  0  0  0  0  0
  -19.1100  -29.9730   23.9170 C   0  0  0  0  0  3  0  0  0  0  0  0
  -17.8170  -30.4780   24.1570 C   0  0  0  0  0  3  0  0  0  0  0  0
  -16.6920  -29.7710   23.7010 C   0  0  0  0  0  3  0  0  0  0  0  0
  -16.8590  -28.5650   22.9970 C   0  0  0  0  0  3  0  0  0  0  0  0
  -25.9900  -32.3750   23.9480 C   0  0  0  0  0  3  0  0  0  0  0  0
  -25.6750  -33.7580   24.3420 N   0  0  0  0  0  0  0  0  0  0  0  0
  -25.9770  -34.8440   23.6190 C   0  0  0  0  0  0  0  0  0  0  0  0
  -26.6200  -34.7890   22.5680 O   0  0  0  0  0  0  0  0  0  0  0  0
  -25.1050  -33.8740   25.1670 H   0  0  0  0  0  0  0  0  0  0  0  0
  -24.2040  -36.6190   23.4090 C   0  0  0  0  0  1  0  0  0  0  0  0
  -25.4910  -36.2090   24.1450 C   0  0  0  0  0  3  0  0  0  0  0  0
  -27.6420  -37.1140   24.9100 C   0  0  0  0  0  1  0  0  0  0  0  0
  -26.4990  -37.2850   24.0170 N   0  0  0  0  0  0  0  0  0  0  0  0
  -26.0830  -38.1940   24.2050 H   0  0  0  0  0  0  0  0  0  0  0  0
  -26.4760  -31.5440   25.1990 C   0  0  1  0  0  0  0  0  0  0  0  0
  -25.3580  -31.2590   26.2290 C   0  0  0  0  0  1  0  0  0  0  0  0
  -27.0650  -30.1830   24.7610 C   0  0  0  0  0  1  0  0  0  0  0  0
  -27.6140  -32.2990   25.9230 C   0  0  0  0  0  1  0  0  0  0  0  0
  1  3  2  0
  1  5  1  0
  3  4  1  0
  4  9  1  0
  4  2  2  0
  5  6  2  0
  6  2  1  0
  6 11  1  0
  7  8  1  0
  7  3  1  0
  8 10  1  0
  9 12  1  0
 10 14  1  0
 10  9  1  0
 13  7  2  0
 15 20  1  0
 16 17  1  0
 16 15  1  0
 18 17  1  0
 18 25  1  0
 18 19  1  0
 20 14  1  0
 20 19  1  0
 21 14  2  0
 22 23  2  0
 23 42  1  0
 24 23  1  0
 24 27  1  0
 25 26  1  0
 25 22  1  0
 26 24  2  0
 27 28  1  0
 28 29  2  0
 30 33  1  0
 30 29  1  0
 31 30  2  0
 32 31  1  0
 32 27  2  0
 33 34  1  0
 34 39  2  0
 34 35  1  0
 35 36  2  0
 36 37  1  0
 37 41  1  0
 38 37  2  0
 39 38  1  0
 40 39  1  0
 42 43  1  0
 43 46  1  0
 43 45  1  0
 44 42  2  0
 47 22  1  0
 47 48  1  0
 49 47  1  0
 50 51  2  0
 50  5  1  0
 52 54  1  0
 52 51  1  0
 53 64  2  0
 54 59  1  0
 55 63  1  0
 55 65  1  0
 56 62  1  0
 56 58  1  0
 57 63  1  0
 58 57  1  0
 59 58  2  0
 60 61  1  0
 60 54  2  0
 61 56  2  0
 62 55  1  0
 63 53  1  0
 65 67  2  0
 66 65  1  0
 68 66  1  0
 69 78  2  0
 69 74  1  0
 70 66  1  0
 70 74  1  0
 71 70  1  0
 72 73  1  0
 72 71  1  0
 73 69  1  0
 74 75  2  0
 75 76  1  0
 77 76  2  0
 78 77  1  0
 79 53  1  0
 79 80  1  0
 79 89  1  0
 80 83  1  0
 81 85  1  0
 81 80  1  0
 82 81  2  0
 85 84  1  0
 87 85  1  0
 87 88  1  0
 87 86  1  0
 89 92  1  1
 89 90  1  0
 91 89  1  0
M  ISO  4  10 100  14 100  51 101  52 101
M  END
>  <TORSDO>  (70) 
F 18

>  <SCORE>  (70) 
-13.880

>  <name>  (70) 
70

>  <ligand_id>  (70) 
70

>  <original_smiles>  (70) 
[H]c1c([H])c([H])c2c(c1[H])C([H])([H])C([H])([H])C([H])([H])C2([H])N([H])C(=O)C1([H])N(C(=O)C([H])(N([H])C(=O)C([H])(N([H])C([H])([H])[H])C([H])([H])[H])C(C([H])([H])[H])(C([H])([H])[H])C([H])([H])[H])C([H])([H])c2c([H])c(OC([H])([H])C([H])([H])c3c([H])c4c(c([H])c3C([H])([H])[H])C([H])(C([H])([H])[H])C([H])(C(=O)N3C([H])([H])C([H])([H])C([H])([H])C([H])(n5nc(-c6c([H])c([H])c(Oc7c([H])c([H])c(F)c([H])c7F)c([H])c6[H])c(C(=O)N([H])[H])c5N([H])[H])C3([H])[H])C([H])([H])C4=O)c([H])c([H])c2C1([H])[H]

>  <smiles>  (70) 
[H]c1c([H])c([H])c2c(c1[H])C([H])([H])C([H])([H])C([H])([H])C2([H])N([H])C(=O)C1([H])N(C(=O)C([H])(N([H])C(=O)C([H])(N([H])C([H])([H])[H])C([H])([H])[H])C(C([H])([H])[H])(C([H])([H])[H])C([H])([H])[H])C([H])([H])c2c([H])c(OC([H])([H])C([H])([H])c3c([H])c4c(c([H])c3C([H])([H])[H])C([H])(C([H])([H])[H])C([H])(C(=O)N3C([H])([H])C([H])([H])C([H])([H])C([H])(n5nc(-c6c([H])c([H])c(Oc7c([H])c([H])c(F)c([H])c7F)c([H])c6[H])c(C(=O)N([H])[H])c5N([H])[H])C3([H])[H])C([H])([H])C4=O)c([H])c([H])c2C1([H])[H]

$$$$
71:0:0
     RDKit          3D

 92101  0  0  1  0  0  0  0  0999 V2000
  -27.8950  -23.5550   17.9540 C   0  0  0  0  0  3  0  0  0  0  0  0
  -27.8860  -24.9260   18.3140 C   0  0  0  0  0  3  0  0  0  0  0  0
  -29.1570  -23.0600   19.9400 C   0  0  0  0  0  3  0  0  0  0  0  0
  -28.5010  -22.5910   18.7850 C   0  0  0  0  0  0  0  0  0  0  0  0
  -29.1770  -24.4360   20.2960 C   0  0  0  0  0  0  0  0  0  0  0  0
  -28.4620  -25.3970   19.5290 C   0  0  0  0  0  0  0  0  0  0  0  0
  -29.9400  -24.8280   21.5450 C   0  0  0  0  0  1  0  0  0  0  0  0
  -28.3840  -26.7310   19.9610 O   0  0  0  0  0  0  0  0  0  0  0  0
  -24.5700  -31.9000   23.2410 C   0  0  0  0  0  0  0  0  0  0  0  0
  -27.1780  -27.4340   20.0950 C   0  0  0  0  0  0  0  0  0  0  0  0
  -23.3390  -30.5100   21.6190 C   0  0  0  0  0  3  0  0  0  0  0  0
  -24.7680  -28.9710   20.1780 C   0  0  0  0  0  0  0  0  0  0  0  0
  -25.8730  -30.8500   21.3950 C   0  0  0  0  0  2  0  0  0  0  0  0
  -25.9440  -29.4830   20.7400 C   0  0  0  0  0  0  0  0  0  0  0  0
  -27.1430  -28.7260   20.6910 C   0  0  0  0  0  3  0  0  0  0  0  0
  -25.9480  -26.9230   19.6190 C   0  0  0  0  0  3  0  0  0  0  0  0
  -24.7700  -27.6870   19.6180 C   0  0  0  0  0  3  0  0  0  0  0  0
  -23.5290  -29.8410   20.2340 C   0  0  0  0  0  2  0  0  0  0  0  0
  -24.6130  -31.0990   22.1430 N   0  0  0  0  0  0  0  0  0  0  0  0
  -23.4940  -32.1720   23.7990 O   0  0  0  0  0  0  0  0  0  0  0  0
  -22.6950  -29.4800   22.5740 C   0  0  0  0  0  0  0  0  0  0  0  0
  -21.3750  -29.2930   22.4450 N   0  0  0  0  0  0  0  0  0  0  0  0
  -23.3850  -28.8580   23.3830 O   0  0  0  0  0  0  0  0  0  0  0  0
  -20.8870  -29.8340   21.7460 H   0  0  0  0  0  0  0  0  0  0  0  0
  -18.0060  -28.0960   22.9430 C   0  0  0  0  0  0  0  0  0  0  0  0
  -20.5610  -28.3540   23.2150 C   0  0  0  0  0  3  0  0  0  0  0  0
  -20.6730  -26.9250   22.6350 C   0  0  0  0  0  2  0  0  0  0  0  0
  -19.5700  -26.6010   21.6240 C   0  0  0  0  0  2  0  0  0  0  0  0
  -18.1870  -26.7450   22.2700 C   0  0  0  0  0  2  0  0  0  0  0  0
  -19.1240  -28.8550   23.3740 C   0  0  0  0  0  0  0  0  0  0  0  0
  -18.9060  -30.1230   23.9620 C   0  0  0  0  0  3  0  0  0  0  0  0
  -17.6020  -30.6150   24.1410 C   0  0  0  0  0  3  0  0  0  0  0  0
  -16.4980  -29.8500   23.7360 C   0  0  0  0  0  3  0  0  0  0  0  0
  -16.7000  -28.5970   23.1290 C   0  0  0  0  0  3  0  0  0  0  0  0
  -25.8580  -32.5210   23.8550 C   0  0  0  0  0  3  0  0  0  0  0  0
  -25.5590  -33.9240   24.1720 N   0  0  0  0  0  0  0  0  0  0  0  0
  -25.8970  -34.9700   23.4070 C   0  0  0  0  0  0  0  0  0  0  0  0
  -26.5760  -34.8620   22.3820 O   0  0  0  0  0  0  0  0  0  0  0  0
  -24.9470  -34.0860   24.9600 H   0  0  0  0  0  0  0  0  0  0  0  0
  -24.1910  -36.7790   23.0200 C   0  0  0  0  0  1  0  0  0  0  0  0
  -25.4100  -36.3600   23.8560 C   0  0  0  0  0  3  0  0  0  0  0  0
  -27.5280  -37.2350   24.7380 C   0  0  0  0  0  1  0  0  0  0  0  0
  -26.4510  -37.4070   23.7660 N   0  0  0  0  0  0  0  0  0  0  0  0
  -26.0460  -38.3300   23.9000 H   0  0  0  0  0  0  0  0  0  0  0  0
  -26.3710  -31.7550   25.1360 C   0  0  1  0  0  0  0  0  0  0  0  0
  -25.2730  -31.5200   26.1980 C   0  0  0  0  0  1  0  0  0  0  0  0
  -26.9440  -30.3730   24.7530 C   0  0  0  0  0  1  0  0  0  0  0  0
  -27.5230  -32.5420   25.7960 C   0  0  0  0  0  1  0  0  0  0  0  0
  -28.3860  -21.0770   18.4940 C   0  0  0  0  0  2  0  0  0  0  0  0
  -29.6720  -20.2060   18.6580 C   0  0  0  0  0  2  0  0  0  0  0  0
  -30.8090  -14.6660   20.3700 C   0  0  0  0  0  0  0  0  0  0  0  0
  -30.4150  -12.4430   19.4390 C   0  0  0  0  0  2  0  0  0  0  0  0
  -29.4770  -12.4640   18.2220 C   0  0  0  0  0  2  0  0  0  0  0  0
  -28.0150  -12.3170   18.6650 C   0  0  0  0  0  2  0  0  0  0  0  0
  -27.6330  -13.2470   19.8430 C   0  0  0  0  0  3  0  0  0  0  0  0
  -28.7150  -13.3080   20.9520 C   0  0  0  0  0  2  0  0  0  0  0  0
  -30.0050  -13.5610   20.2960 N   0  0  0  0  0  0  0  0  0  0  0  0
  -32.0320  -14.5240   20.4040 O   0  0  0  0  0  0  0  0  0  0  0  0
  -30.8520  -18.4550   20.0720 C   0  0  0  0  0  2  0  0  0  0  0  0
  -29.0990  -17.5920   18.4840 C   0  0  0  0  0  2  0  0  0  0  0  0
  -31.3540  -17.0080   19.9070 C   0  0  0  0  0  2  0  0  0  0  0  0
  -29.1220  -16.2320   19.2680 C   0  0  0  0  0  2  0  0  0  0  0  0
  -29.5320  -18.8010   19.3540 C   0  0  0  0  0  3  0  0  0  0  0  0
  -30.3400  -15.9280   20.0550 N   0  0  0  0  0  0  0  0  0  0  0  0
  -25.2480  -13.8550   20.5490 C   0  0  0  0  0  0  0  0  0  0  0  0
  -24.1770  -13.0900   20.9000 C   0  0  0  0  0  0  0  0  0  0  0  0
  -24.6430  -11.7350   20.8930 C   0  0  0  0  0  0  0  0  0  0  0  0
  -26.2980  -12.9730   20.3440 N   0  0  0  0  0  0  0  0  0  0  0  0
  -25.9410  -11.6940   20.6230 N   0  0  0  0  0  0  0  0  0  0  0  0
  -23.9190  -10.4740   21.0730 C   0  0  0  0  0  0  0  0  0  0  0  0
  -24.3490   -9.5100   22.0090 C   0  0  0  0  0  3  0  0  0  0  0  0
  -23.6320   -8.3100   22.1790 C   0  0  0  0  0  3  0  0  0  0  0  0
  -22.4670   -8.0610   21.4150 C   0  0  0  0  0  0  0  0  0  0  0  0
  -22.0560   -9.0160   20.4680 C   0  0  0  0  0  3  0  0  0  0  0  0
  -22.7740  -10.2100   20.2960 C   0  0  0  0  0  3  0  0  0  0  0  0
  -21.7170   -6.9120   21.4940 O   0  0  0  0  0  0  0  0  0  0  0  0
  -21.6660   -6.1680   22.6450 C   0  0  0  0  0  0  0  0  0  0  0  0
  -21.2260   -6.7160   23.8710 C   0  0  0  0  0  3  0  0  0  0  0  0
  -21.1220   -5.8960   25.0120 C   0  0  0  0  0  3  0  0  0  0  0  0
  -21.4500   -4.5280   24.9270 C   0  0  0  0  0  0  0  0  0  0  0  0
  -21.8860   -3.9810   23.7070 C   0  0  0  0  0  3  0  0  0  0  0  0
  -21.9900   -4.8000   22.5690 C   0  0  0  0  0  0  0  0  0  0  0  0
  -22.3870   -4.2620   21.3910 F   0  0  0  0  0  0  0  0  0  0  0  0
  -21.3440   -3.7380   26.0230 F   0  0  0  0  0  0  0  0  0  0  0  0
  -22.7700  -13.5620   21.1340 C   0  0  0  0  0  0  0  0  0  0  0  0
  -22.0240  -12.8630   21.9740 N   0  0  0  0  0  0  0  0  0  0  0  0
  -22.3450  -14.5870   20.5940 O   0  0  0  0  0  0  0  0  0  0  0  0
  -22.3820  -12.0340   22.4230 H   0  0  0  0  0  0  0  0  0  0  0  0
  -21.0810  -13.1620   22.1850 H   0  0  0  0  0  0  0  0  0  0  0  0
  -25.4230  -15.2240   20.3570 N   0  0  0  0  0  0  0  0  0  0  0  0
  -24.6660  -15.8920   20.4520 H   0  0  0  0  0  0  0  0  0  0  0  0
  -26.2820  -15.6500   20.0430 H   0  0  0  0  0  0  0  0  0  0  0  0
  1  2  2  0
  1  4  1  0
  2  6  1  0
  3  5  1  0
  4  3  2  0
  5  7  1  0
  6  8  1  0
  6  5  2  0
  8 10  1  0
  9 20  2  0
 10 15  1  0
 11 19  1  0
 11 21  1  0
 12 18  1  0
 12 14  1  0
 13 19  1  0
 14 13  1  0
 15 14  2  0
 16 10  2  0
 17 16  1  0
 17 12  2  0
 18 11  1  0
 19  9  1  0
 21 23  2  0
 22 21  1  0
 24 22  1  0
 25 34  2  0
 25 30  1  0
 26 22  1  0
 26 30  1  0
 27 26  1  0
 28 29  1  0
 28 27  1  0
 29 25  1  0
 30 31  2  0
 31 32  1  0
 33 32  2  0
 34 33  1  0
 35  9  1  0
 35 36  1  0
 35 45  1  0
 36 39  1  0
 37 41  1  0
 37 36  1  0
 38 37  2  0
 41 40  1  0
 43 41  1  0
 43 44  1  0
 43 42  1  0
 45 48  1  1
 45 46  1  0
 47 45  1  0
 49 50  1  0
 49  4  1  0
 51 58  2  0
 52 57  1  0
 53 54  1  0
 53 52  1  0
 55 54  1  0
 55 68  1  0
 55 56  1  0
 57 51  1  0
 57 56  1  0
 60 62  1  0
 60 63  1  0
 61 64  1  0
 61 59  1  0
 62 64  1  0
 63 50  1  0
 63 59  1  0
 64 51  1  0
 65 66  2  0
 66 85  1  0
 67 66  1  0
 67 70  1  0
 68 65  1  0
 68 69  1  0
 69 67  2  0
 70 71  1  0
 71 72  2  0
 73 76  1  0
 73 72  1  0
 74 73  2  0
 75 74  1  0
 75 70  2  0
 76 77  1  0
 77 78  1  0
 78 79  2  0
 80 79  1  0
 80 84  1  0
 81 80  2  0
 82 77  2  0
 82 81  1  0
 83 82  1  0
 85 86  1  0
 86 89  1  0
 86 88  1  0
 87 85  2  0
 90 91  1  0
 90 65  1  0
 92 90  1  0
M  ISO  4   6 101   8 101  51 100  64 100
M  END
>  <TORSDO>  (71) 
F 18

>  <SCORE>  (71) 
-14.635

>  <name>  (71) 
71

>  <ligand_id>  (71) 
71

>  <original_smiles>  (71) 
[H]c1c([H])c([H])c2c(c1[H])C([H])([H])C([H])([H])C([H])([H])C2([H])N([H])C(=O)C1([H])N(C(=O)C([H])(N([H])C(=O)C([H])(N([H])C([H])([H])[H])C([H])([H])[H])C(C([H])([H])[H])(C([H])([H])[H])C([H])([H])[H])C([H])([H])c2c([H])c(Oc3c([H])c([H])c(C([H])([H])C([H])([H])C4([H])C([H])([H])C([H])([H])N(C(=O)N5C([H])([H])C([H])([H])C([H])([H])C([H])(n6nc(-c7c([H])c([H])c(Oc8c([H])c([H])c(F)c([H])c8F)c([H])c7[H])c(C(=O)N([H])[H])c6N([H])[H])C5([H])[H])C([H])([H])C4([H])[H])c([H])c3C([H])([H])[H])c([H])c([H])c2C1([H])[H]

>  <smiles>  (71) 
[H]c1c([H])c([H])c2c(c1[H])C([H])([H])C([H])([H])C([H])([H])C2([H])N([H])C(=O)C1([H])N(C(=O)C([H])(N([H])C(=O)C([H])(N([H])C([H])([H])[H])C([H])([H])[H])C(C([H])([H])[H])(C([H])([H])[H])C([H])([H])[H])C([H])([H])c2c([H])c(Oc3c([H])c([H])c(C([H])([H])C([H])([H])C4([H])C([H])([H])C([H])([H])N(C(=O)N5C([H])([H])C([H])([H])C([H])([H])C([H])(n6nc(-c7c([H])c([H])c(Oc8c([H])c([H])c(F)c([H])c8F)c([H])c7[H])c(C(=O)N([H])[H])c6N([H])[H])C5([H])[H])C([H])([H])C4([H])[H])c([H])c3C([H])([H])[H])c([H])c([H])c2C1([H])[H]

$$$$
72:0:0
     RDKit          3D

 94103  0  0  1  0  0  0  0  0999 V2000
  -28.4200  -22.3170   21.8020 C   0  0  0  0  0  3  0  0  0  0  0  0
  -28.1240  -23.4690   22.5620 C   0  0  0  0  0  3  0  0  0  0  0  0
  -28.6700  -22.3940   20.4210 C   0  0  0  0  0  0  0  0  0  0  0  0
  -28.5960  -23.7570   19.8440 C   0  0  0  0  0  0  0  0  0  0  0  0
  -28.0660  -24.7630   21.9960 C   0  0  0  0  0  0  0  0  0  0  0  0
  -28.2920  -24.9830   20.6100 C   0  0  0  0  0  0  0  0  0  0  0  0
  -28.8460  -23.9080   18.3560 C   0  0  0  0  0  1  0  0  0  0  0  0
  -27.8080  -25.8360   22.8470 N   0  0  0  0  0  0  0  0  0  0  0  0
  -27.3150  -25.6470   23.7130 H   0  0  0  0  0  0  0  0  0  0  0  0
  -27.5000  -26.6920   22.3980 H   0  0  0  0  0  0  0  0  0  0  0  0
  -28.3330  -26.3570   20.1300 O   0  0  0  0  0  0  0  0  0  0  0  0
  -24.6230  -31.8990   23.1890 C   0  0  0  0  0  0  0  0  0  0  0  0
  -27.2390  -27.2690   20.1460 C   0  0  0  0  0  0  0  0  0  0  0  0
  -23.4280  -30.4950   21.5470 C   0  0  0  0  0  3  0  0  0  0  0  0
  -24.8860  -28.9370   20.1230 C   0  0  0  0  0  0  0  0  0  0  0  0
  -25.9710  -30.8020   21.3700 C   0  0  0  0  0  2  0  0  0  0  0  0
  -26.0570  -29.4130   20.7260 C   0  0  0  0  0  0  0  0  0  0  0  0
  -27.2370  -28.5930   20.7240 C   0  0  0  0  0  3  0  0  0  0  0  0
  -26.0470  -26.8700   19.5120 C   0  0  0  0  0  3  0  0  0  0  0  0
  -24.8870  -27.6750   19.5040 C   0  0  0  0  0  3  0  0  0  0  0  0
  -23.6500  -29.8190   20.1690 C   0  0  0  0  0  2  0  0  0  0  0  0
  -24.6930  -31.0870   22.0910 N   0  0  0  0  0  0  0  0  0  0  0  0
  -23.5370  -32.1710   23.7230 O   0  0  0  0  0  0  0  0  0  0  0  0
  -22.7660  -29.4790   22.5110 C   0  0  0  0  0  0  0  0  0  0  0  0
  -21.4410  -29.2960   22.3880 N   0  0  0  0  0  0  0  0  0  0  0  0
  -23.4480  -28.8590   23.3320 O   0  0  0  0  0  0  0  0  0  0  0  0
  -20.9470  -29.8480   21.7010 H   0  0  0  0  0  0  0  0  0  0  0  0
  -18.0720  -28.0710   22.9000 C   0  0  0  0  0  0  0  0  0  0  0  0
  -20.6310  -28.3520   23.1610 C   0  0  0  0  0  3  0  0  0  0  0  0
  -20.7400  -26.9210   22.5840 C   0  0  0  0  0  2  0  0  0  0  0  0
  -19.6380  -26.5910   21.5720 C   0  0  0  0  0  2  0  0  0  0  0  0
  -18.2580  -26.7240   22.2210 C   0  0  0  0  0  2  0  0  0  0  0  0
  -19.1860  -28.8420   23.3270 C   0  0  0  0  0  0  0  0  0  0  0  0
  -18.9570  -30.1020   23.9230 C   0  0  0  0  0  3  0  0  0  0  0  0
  -17.6460  -30.5900   24.0940 C   0  0  0  0  0  3  0  0  0  0  0  0
  -16.5490  -29.8170   23.6800 C   0  0  0  0  0  3  0  0  0  0  0  0
  -16.7630  -28.5590   23.0880 C   0  0  0  0  0  3  0  0  0  0  0  0
  -25.9000  -32.5410   23.8120 C   0  0  0  0  0  3  0  0  0  0  0  0
  -25.5790  -33.9350   24.1520 N   0  0  0  0  0  0  0  0  0  0  0  0
  -25.9010  -34.9980   23.4040 C   0  0  0  0  0  0  0  0  0  0  0  0
  -26.5700  -34.9080   22.3710 O   0  0  0  0  0  0  0  0  0  0  0  0
  -24.9810  -34.0780   24.9540 H   0  0  0  0  0  0  0  0  0  0  0  0
  -24.1650  -36.7860   23.0640 C   0  0  0  0  0  1  0  0  0  0  0  0
  -25.4060  -36.3800   23.8740 C   0  0  0  0  0  3  0  0  0  0  0  0
  -27.5320  -37.2720   24.7180 C   0  0  0  0  0  1  0  0  0  0  0  0
  -26.4330  -37.4400   23.7740 N   0  0  0  0  0  0  0  0  0  0  0  0
  -26.0200  -38.3560   23.9260 H   0  0  0  0  0  0  0  0  0  0  0  0
  -26.4230  -31.7710   25.0870 C   0  0  1  0  0  0  0  0  0  0  0  0
  -25.3340  -31.5230   26.1570 C   0  0  0  0  0  1  0  0  0  0  0  0
  -27.0150  -30.3980   24.6930 C   0  0  0  0  0  1  0  0  0  0  0  0
  -27.5670  -32.5720   25.7510 C   0  0  0  0  0  1  0  0  0  0  0  0
  -28.9390  -21.0040   19.6210 C   0  0  0  0  0  2  0  0  0  0  0  0
  -30.7020  -14.9360   20.0400 C   0  0  0  0  0  0  0  0  0  0  0  0
  -30.3910  -12.6490   19.0400 C   0  0  0  0  0  2  0  0  0  0  0  0
  -29.4140  -12.6420   17.8500 C   0  0  0  0  0  2  0  0  0  0  0  0
  -27.9720  -12.4480   18.3480 C   0  0  0  0  0  2  0  0  0  0  0  0
  -27.6300  -13.3540   19.5620 C   0  0  0  0  0  3  0  0  0  0  0  0
  -28.7410  -13.3590   20.6330 C   0  0  0  0  0  2  0  0  0  0  0  0
  -29.9740  -13.7570   19.9470 N   0  0  0  0  0  0  0  0  0  0  0  0
  -31.9060  -14.8360   19.7750 O   0  0  0  0  0  0  0  0  0  0  0  0
  -30.5040  -18.8270   19.3150 C   0  0  0  0  0  2  0  0  0  0  0  0
  -28.4420  -18.3280   20.3800 C   0  0  0  0  0  2  0  0  0  0  0  0
  -31.0760  -17.4090   19.7480 C   0  0  0  0  0  2  0  0  0  0  0  0
  -28.9660  -16.8400   20.7620 C   0  0  0  0  0  2  0  0  0  0  0  0
  -29.4590  -19.5380   20.2350 C   0  0  0  0  0  3  0  0  0  0  0  0
  -30.1490  -16.2570   20.0410 N   0  0  0  0  0  0  0  0  0  0  0  0
  -25.2860  -13.9140   20.4160 C   0  0  0  0  0  0  0  0  0  0  0  0
  -24.2410  -13.1290   20.8160 C   0  0  0  0  0  0  0  0  0  0  0  0
  -24.7060  -11.7810   20.7430 C   0  0  0  0  0  0  0  0  0  0  0  0
  -26.3200  -13.0430   20.1190 N   0  0  0  0  0  0  0  0  0  0  0  0
  -25.9840  -11.7540   20.3810 N   0  0  0  0  0  0  0  0  0  0  0  0
  -23.9890  -10.5130   20.9370 C   0  0  0  0  0  0  0  0  0  0  0  0
  -24.4360   -9.5480   21.8660 C   0  0  0  0  0  3  0  0  0  0  0  0
  -23.7170   -8.3470   22.0510 C   0  0  0  0  0  3  0  0  0  0  0  0
  -22.5370   -8.1030   21.3070 C   0  0  0  0  0  0  0  0  0  0  0  0
  -22.1110   -9.0580   20.3670 C   0  0  0  0  0  3  0  0  0  0  0  0
  -22.8300  -10.2500   20.1810 C   0  0  0  0  0  3  0  0  0  0  0  0
  -21.7890   -6.9550   21.4030 O   0  0  0  0  0  0  0  0  0  0  0  0
  -21.7260   -6.2310   22.5660 C   0  0  0  0  0  0  0  0  0  0  0  0
  -21.2640   -6.7990   23.7740 C   0  0  0  0  0  3  0  0  0  0  0  0
  -21.1500   -6.0000   24.9300 C   0  0  0  0  0  3  0  0  0  0  0  0
  -21.4870   -4.6350   24.8770 C   0  0  0  0  0  0  0  0  0  0  0  0
  -21.9420   -4.0660   23.6750 C   0  0  0  0  0  3  0  0  0  0  0  0
  -22.0590   -4.8620   22.5220 C   0  0  0  0  0  0  0  0  0  0  0  0
  -22.4760   -4.3040   21.3600 F   0  0  0  0  0  0  0  0  0  0  0  0
  -21.3710   -3.8650   25.9860 F   0  0  0  0  0  0  0  0  0  0  0  0
  -22.8550  -13.5990   21.1480 C   0  0  0  0  0  0  0  0  0  0  0  0
  -22.1610  -12.8860   22.0280 N   0  0  0  0  0  0  0  0  0  0  0  0
  -22.3980  -14.6340   20.6650 O   0  0  0  0  0  0  0  0  0  0  0  0
  -22.5450  -12.0490   22.4400 H   0  0  0  0  0  0  0  0  0  0  0  0
  -21.2320  -13.1820   22.2920 H   0  0  0  0  0  0  0  0  0  0  0  0
  -25.4340  -15.2870   20.2510 N   0  0  0  0  0  0  0  0  0  0  0  0
  -24.6660  -15.9310   20.4010 H   0  0  0  0  0  0  0  0  0  0  0  0
  -26.2590  -15.7360   19.8760 H   0  0  0  0  0  0  0  0  0  0  0  0
  1  2  1  0
  3  1  2  0
  4  3  1  0
  4  6  2  0
  5  2  2  0
  5  8  1  0
  6  5  1  0
  7  4  1  0
  8  9  1  0
 10  8  1  0
 11 13  1  0
 11  6  1  0
 12 23  2  0
 13 18  1  0
 14 22  1  0
 14 24  1  0
 15 21  1  0
 15 17  1  0
 16 22  1  0
 17 16  1  0
 18 17  2  0
 19 13  2  0
 20 19  1  0
 20 15  2  0
 21 14  1  0
 22 12  1  0
 24 26  2  0
 25 24  1  0
 27 25  1  0
 28 37  2  0
 28 33  1  0
 29 25  1  0
 29 33  1  0
 30 29  1  0
 31 32  1  0
 31 30  1  0
 32 28  1  0
 33 34  2  0
 34 35  1  0
 36 35  2  0
 37 36  1  0
 38 12  1  0
 38 39  1  0
 38 48  1  0
 39 42  1  0
 40 44  1  0
 40 39  1  0
 41 40  2  0
 44 43  1  0
 46 44  1  0
 46 47  1  0
 46 45  1  0
 48 51  1  1
 48 49  1  0
 50 48  1  0
 52  3  1  0
 53 66  1  0
 54 59  1  0
 55 56  1  0
 55 54  1  0
 57 56  1  0
 57 70  1  0
 57 58  1  0
 59 53  1  0
 59 58  1  0
 60 53  2  0
 61 63  1  0
 61 65  1  0
 62 64  1  0
 63 66  1  0
 65 52  1  0
 65 62  1  0
 66 64  1  0
 67 68  2  0
 68 87  1  0
 69 68  1  0
 69 72  1  0
 70 71  1  0
 70 67  1  0
 71 69  2  0
 72 73  1  0
 73 74  2  0
 75 78  1  0
 75 74  1  0
 76 75  2  0
 77 76  1  0
 77 72  2  0
 78 79  1  0
 79 80  1  0
 80 81  2  0
 82 81  1  0
 82 86  1  0
 83 82  2  0
 84 79  2  0
 84 83  1  0
 85 84  1  0
 87 88  1  0
 88 91  1  0
 88 90  1  0
 89 87  2  0
 92 93  1  0
 92 67  1  0
 94 92  1  0
M  ISO  4   6 101  11 101  53 100  66 100
M  END
>  <TORSDO>  (72) 
F 18

>  <SCORE>  (72) 
-14.770

>  <name>  (72) 
72

>  <ligand_id>  (72) 
72

>  <original_smiles>  (72) 
[H]c1c([H])c([H])c2c(c1[H])C([H])([H])C([H])([H])C([H])([H])C2([H])N([H])C(=O)C1([H])N(C(=O)C([H])(N([H])C(=O)C([H])(N([H])C([H])([H])[H])C([H])([H])[H])C(C([H])([H])[H])(C([H])([H])[H])C([H])([H])[H])C([H])([H])c2c([H])c(Oc3c(N([H])[H])c([H])c([H])c(C([H])([H])C4([H])C([H])([H])C([H])([H])N(C(=O)N5C([H])([H])C([H])([H])C([H])([H])C([H])(n6nc(-c7c([H])c([H])c(Oc8c([H])c([H])c(F)c([H])c8F)c([H])c7[H])c(C(=O)N([H])[H])c6N([H])[H])C5([H])[H])C([H])([H])C4([H])[H])c3C([H])([H])[H])c([H])c([H])c2C1([H])[H]

>  <smiles>  (72) 
[H]c1c([H])c([H])c2c(c1[H])C([H])([H])C([H])([H])C([H])([H])C2([H])N([H])C(=O)C1([H])N(C(=O)C([H])(N([H])C(=O)C([H])(N([H])C([H])([H])[H])C([H])([H])[H])C(C([H])([H])[H])(C([H])([H])[H])C([H])([H])[H])C([H])([H])c2c([H])c(Oc3c(N([H])[H])c([H])c([H])c(C([H])([H])C4([H])C([H])([H])C([H])([H])N(C(=O)N5C([H])([H])C([H])([H])C([H])([H])C([H])(n6nc(-c7c([H])c([H])c(Oc8c([H])c([H])c(F)c([H])c8F)c([H])c7[H])c(C(=O)N([H])[H])c6N([H])[H])C5([H])[H])C([H])([H])C4([H])[H])c3C([H])([H])[H])c([H])c([H])c2C1([H])[H]

$$$$
73:0:0
     RDKit          3D

 95105  0  0  1  0  0  0  0  0999 V2000
  -29.0960  -18.5860   21.5410 C   0  0  0  0  0  3  0  0  0  0  0  0
  -30.0350  -17.0660   19.7440 C   0  0  0  0  0  0  0  0  0  0  0  0
  -28.9490  -19.7670   20.7650 C   0  0  0  0  0  0  0  0  0  0  0  0
  -29.3900  -19.7910   19.4350 C   0  0  0  0  0  0  0  0  0  0  0  0
  -29.6480  -17.3370   21.1020 C   0  0  0  0  0  0  0  0  0  0  0  0
  -29.9010  -18.3970   18.9540 C   0  0  0  0  0  0  0  0  0  0  0  0
  -27.8700  -24.1080   17.6040 C   0  0  0  0  0  0  0  0  0  0  0  0
  -28.2310  -21.0070   21.3560 C   0  0  0  0  0  2  0  0  0  0  0  0
  -27.6650  -22.6820   17.0220 C   0  0  0  0  0  2  0  0  0  0  0  0
  -28.8180  -22.4390   21.0760 C   0  0  0  0  0  2  0  0  0  0  0  0
  -27.8840  -21.4120   17.9080 C   0  0  0  0  0  2  0  0  0  0  0  0
  -28.0800  -24.3400   19.1160 C   0  0  0  0  0  3  0  0  0  0  0  0
  -29.0100  -22.8780   19.5950 C   0  0  0  0  0  3  0  0  0  0  0  0
  -29.1920  -21.3650   18.7310 C   0  0  1  0  0  0  0  0  0  0  0  0
  -29.8620  -16.3370   22.2300 C   0  0  0  0  0  1  0  0  0  0  0  0
  -30.3060  -18.3180   17.4940 C   0  0  0  0  0  1  0  0  0  0  0  0
  -30.3920  -21.5710   17.7840 C   0  0  0  0  0  1  0  0  0  0  0  0
  -27.8490  -25.0660   16.8270 O   0  0  0  0  0  0  0  0  0  0  0  0
  -30.7010  -15.5450   19.3250 C   0  0  0  0  0  0  0  0  0  0  0  0
  -30.6410  -13.0610   18.5150 C   0  0  0  0  0  2  0  0  0  0  0  0
  -29.5880  -12.8130   17.4000 C   0  0  0  0  0  2  0  0  0  0  0  0
  -28.2100  -12.5010   18.0060 C   0  0  0  0  0  2  0  0  0  0  0  0
  -27.8750  -13.4660   19.1670 C   0  0  0  0  0  3  0  0  0  0  0  0
  -29.0420  -13.6530   20.1520 C   0  0  0  0  0  2  0  0  0  0  0  0
  -30.1850  -14.2060   19.4010 N   0  0  0  0  0  0  0  0  0  0  0  0
  -31.8360  -15.5410   18.8200 O   0  0  0  0  0  0  0  0  0  0  0  0
  -25.6690  -13.9900   20.3280 C   0  0  0  0  0  0  0  0  0  0  0  0
  -24.6580  -13.2000   20.7980 C   0  0  0  0  0  0  0  0  0  0  0  0
  -25.0800  -11.8510   20.5920 C   0  0  0  0  0  0  0  0  0  0  0  0
  -26.6350  -13.1240   19.8510 N   0  0  0  0  0  0  0  0  0  0  0  0
  -26.3060  -11.8240   20.0760 N   0  0  0  0  0  0  0  0  0  0  0  0
  -24.3590  -10.5870   20.7980 C   0  0  0  0  0  0  0  0  0  0  0  0
  -24.8180   -9.6130   21.7120 C   0  0  0  0  0  3  0  0  0  0  0  0
  -24.0940   -8.4170   21.9070 C   0  0  0  0  0  3  0  0  0  0  0  0
  -22.8960   -8.1870   21.1890 C   0  0  0  0  0  0  0  0  0  0  0  0
  -22.4570   -9.1500   20.2620 C   0  0  0  0  0  3  0  0  0  0  0  0
  -23.1810  -10.3380   20.0670 C   0  0  0  0  0  3  0  0  0  0  0  0
  -22.1400   -7.0450   21.2950 O   0  0  0  0  0  0  0  0  0  0  0  0
  -21.9630   -6.4060   22.4950 C   0  0  0  0  0  0  0  0  0  0  0  0
  -21.3850   -7.0560   23.6070 C   0  0  0  0  0  3  0  0  0  0  0  0
  -21.1580   -6.3420   24.8000 C   0  0  0  0  0  3  0  0  0  0  0  0
  -21.5000   -4.9800   24.8820 C   0  0  0  0  0  0  0  0  0  0  0  0
  -22.0700   -4.3290   23.7750 C   0  0  0  0  0  3  0  0  0  0  0  0
  -22.2980   -5.0390   22.5830 C   0  0  0  0  0  0  0  0  0  0  0  0
  -22.8280   -4.4020   21.5120 F   0  0  0  0  0  0  0  0  0  0  0  0
  -21.2750   -4.2910   26.0270 F   0  0  0  0  0  0  0  0  0  0  0  0
  -23.3320  -13.6730   21.3170 C   0  0  0  0  0  0  0  0  0  0  0  0
  -22.7380  -12.9340   22.2460 N   0  0  0  0  0  0  0  0  0  0  0  0
  -22.8360  -14.7320   20.9320 O   0  0  0  0  0  0  0  0  0  0  0  0
  -23.1570  -12.0780   22.5790 H   0  0  0  0  0  0  0  0  0  0  0  0
  -21.8530  -13.2280   22.6340 H   0  0  0  0  0  0  0  0  0  0  0  0
  -25.8400  -15.3690   20.2390 N   0  0  0  0  0  0  0  0  0  0  0  0
  -25.1270  -16.0240   20.5380 H   0  0  0  0  0  0  0  0  0  0  0  0
  -26.6590  -15.8250   19.8580 H   0  0  0  0  0  0  0  0  0  0  0  0
  -28.2470  -25.9810   19.3620 O   0  0  0  0  0  0  0  0  0  0  0  0
  -24.7180  -31.6150   22.9770 C   0  0  0  0  0  0  0  0  0  0  0  0
  -27.2130  -27.0640   19.4210 C   0  0  0  0  0  0  0  0  0  0  0  0
  -23.4740  -30.3440   21.2770 C   0  0  0  0  0  3  0  0  0  0  0  0
  -24.8830  -28.9010   19.6500 C   0  0  0  0  0  0  0  0  0  0  0  0
  -26.0280  -30.6160   21.0360 C   0  0  0  0  0  2  0  0  0  0  0  0
  -26.0910  -29.2720   20.2510 C   0  0  0  0  0  0  0  0  0  0  0  0
  -27.2480  -28.3770   20.1130 C   0  0  0  0  0  3  0  0  0  0  0  0
  -25.9660  -26.8530   18.7890 C   0  0  0  0  0  3  0  0  0  0  0  0
  -24.8450  -27.7180   18.8980 C   0  0  0  0  0  3  0  0  0  0  0  0
  -23.6520  -29.7890   19.8360 C   0  0  0  0  0  2  0  0  0  0  0  0
  -24.7640  -30.8800   21.8180 N   0  0  0  0  0  0  0  0  0  0  0  0
  -23.6480  -31.8360   23.5690 O   0  0  0  0  0  0  0  0  0  0  0  0
  -22.8410  -29.2530   22.1800 C   0  0  0  0  0  0  0  0  0  0  0  0
  -21.5100  -29.0670   22.0930 N   0  0  0  0  0  0  0  0  0  0  0  0
  -23.5520  -28.5770   22.9270 O   0  0  0  0  0  0  0  0  0  0  0  0
  -20.9860  -29.6640   21.4680 H   0  0  0  0  0  0  0  0  0  0  0  0
  -18.1830  -27.7100   22.6080 C   0  0  0  0  0  0  0  0  0  0  0  0
  -20.7420  -28.0460   22.8150 C   0  0  0  0  0  3  0  0  0  0  0  0
  -20.8710  -26.6660   22.1320 C   0  0  0  0  0  2  0  0  0  0  0  0
  -19.7490  -26.3810   21.1270 C   0  0  0  0  0  2  0  0  0  0  0  0
  -18.3840  -26.4260   21.8200 C   0  0  0  0  0  2  0  0  0  0  0  0
  -19.2890  -28.4790   23.0600 C   0  0  0  0  0  0  0  0  0  0  0  0
  -19.0450  -29.6800   23.7610 C   0  0  0  0  0  3  0  0  0  0  0  0
  -17.7290  -30.1140   24.0090 C   0  0  0  0  0  3  0  0  0  0  0  0
  -16.6390  -29.3430   23.5710 C   0  0  0  0  0  3  0  0  0  0  0  0
  -16.8680  -28.1420   22.8750 C   0  0  0  0  0  3  0  0  0  0  0  0
  -26.0050  -32.2280   23.6070 C   0  0  0  0  0  3  0  0  0  0  0  0
  -25.6850  -33.5930   24.0580 N   0  0  0  0  0  0  0  0  0  0  0  0
  -25.9380  -34.7110   23.3630 C   0  0  0  0  0  0  0  0  0  0  0  0
  -26.5290  -34.7010   22.2800 O   0  0  0  0  0  0  0  0  0  0  0  0
  -25.1530  -33.6730   24.9110 H   0  0  0  0  0  0  0  0  0  0  0  0
  -24.1360  -36.4690   23.3120 C   0  0  0  0  0  1  0  0  0  0  0  0
  -25.4650  -36.0510   23.9610 C   0  0  0  0  0  3  0  0  0  0  0  0
  -27.6430  -36.9620   24.6410 C   0  0  0  0  0  1  0  0  0  0  0  0
  -26.4510  -37.1450   23.8170 N   0  0  0  0  0  0  0  0  0  0  0  0
  -26.0330  -38.0400   24.0580 H   0  0  0  0  0  0  0  0  0  0  0  0
  -26.5700  -31.3770   24.8130 C   0  0  1  0  0  0  0  0  0  0  0  0
  -25.5170  -31.0630   25.9020 C   0  0  0  0  0  1  0  0  0  0  0  0
  -27.1470  -30.0300   24.3220 C   0  0  0  0  0  1  0  0  0  0  0  0
  -27.7410  -32.1350   25.4840 C   0  0  0  0  0  1  0  0  0  0  0  0
  2  5  2  0
  3  8  1  0
  3  1  2  0
  4  3  1  0
  5  1  1  0
  5 15  1  0
  6  4  2  0
  6  2  1  0
  7 12  1  0
  9  7  1  0
  9 11  1  0
 10  8  1  0
 11 14  1  0
 12 55  1  0
 12 13  1  0
 13 10  1  0
 14 17  1  6
 14  4  1  0
 14 13  1  0
 16  6  1  0
 18  7  2  0
 19 25  1  0
 19  2  1  0
 20 25  1  0
 21 22  1  0
 21 20  1  0
 23 22  1  0
 23 30  1  0
 23 24  1  0
 25 24  1  0
 26 19  2  0
 27 28  2  0
 28 47  1  0
 29 32  1  0
 29 28  1  0
 30 31  1  0
 30 27  1  0
 31 29  2  0
 32 33  1  0
 33 34  2  0
 35 38  1  0
 35 34  1  0
 36 35  2  0
 37 36  1  0
 37 32  2  0
 38 39  1  0
 39 44  2  0
 39 40  1  0
 40 41  2  0
 41 42  1  0
 42 46  1  0
 43 42  2  0
 44 43  1  0
 45 44  1  0
 47 48  1  0
 48 50  1  0
 48 51  1  0
 49 47  2  0
 52 27  1  0
 52 53  1  0
 54 52  1  0
 55 57  1  0
 56 67  2  0
 57 62  1  0
 58 66  1  0
 58 68  1  0
 59 65  1  0
 59 61  1  0
 60 66  1  0
 61 60  1  0
 62 61  2  0
 63 64  1  0
 63 57  2  0
 64 59  2  0
 65 58  1  0
 66 56  1  0
 68 70  2  0
 69 68  1  0
 71 69  1  0
 72 81  2  0
 72 77  1  0
 73 69  1  0
 73 77  1  0
 74 73  1  0
 75 76  1  0
 75 74  1  0
 76 72  1  0
 77 78  2  0
 78 79  1  0
 80 79  2  0
 81 80  1  0
 82 56  1  0
 82 83  1  0
 82 92  1  0
 83 86  1  0
 84 88  1  0
 84 83  1  0
 85 84  2  0
 88 87  1  0
 90 88  1  0
 90 91  1  0
 90 89  1  0
 92 95  1  1
 92 93  1  0
 94 92  1  0
M  ISO  4   2 100  12 101  19 100  55 101
M  END
>  <TORSDO>  (73) 
F 16

>  <SCORE>  (73) 
-12.698

>  <name>  (73) 
73

>  <ligand_id>  (73) 
73

>  <original_smiles>  (73) 
[H]c1c([H])c([H])c2c(c1[H])C([H])([H])C([H])([H])C([H])([H])C2([H])N([H])C(=O)C1([H])N(C(=O)C([H])(N([H])C(=O)C([H])(N([H])C([H])([H])[H])C([H])([H])[H])C(C([H])([H])[H])(C([H])([H])[H])C([H])([H])[H])C([H])([H])c2c([H])c(OC3([H])C(=O)C([H])([H])C([H])([H])C4(C([H])([H])[H])c5c(C([H])([H])[H])c(C(=O)N6C([H])([H])C([H])([H])C([H])([H])C([H])(n7nc(-c8c([H])c([H])c(Oc9c([H])c([H])c(F)c([H])c9F)c([H])c8[H])c(C(=O)N([H])[H])c7N([H])[H])C6([H])[H])c(C([H])([H])[H])c([H])c5C([H])([H])C([H])([H])C34[H])c([H])c([H])c2C1([H])[H]

>  <smiles>  (73) 
[H]c1c([H])c([H])c2c(c1[H])C([H])([H])C([H])([H])C([H])([H])C2([H])N([H])C(=O)C1([H])N(C(=O)C([H])(N([H])C(=O)C([H])(N([H])C([H])([H])[H])C([H])([H])[H])C(C([H])([H])[H])(C([H])([H])[H])C([H])([H])[H])C([H])([H])c2c([H])c(OC3([H])C(=O)C([H])([H])C([H])([H])C4(C([H])([H])[H])c5c(C([H])([H])[H])c(C(=O)N6C([H])([H])C([H])([H])C([H])([H])C([H])(n7nc(-c8c([H])c([H])c(Oc9c([H])c([H])c(F)c([H])c9F)c([H])c8[H])c(C(=O)N([H])[H])c7N([H])[H])C6([H])[H])c(C([H])([H])[H])c([H])c5C([H])([H])C([H])([H])C34[H])c([H])c([H])c2C1([H])[H]

$$$$
74:0:0
     RDKit          3D

 95 96  0  0  1  0  0  0  0  0999 V2000
  -29.2750  -20.9540   18.2360 C   0  0  0  0  0  2  0  0  0  0  0  0
  -30.0880  -19.7540   17.7730 C   0  0  0  0  0  3  0  0  0  0  0  0
  -28.7800  -17.2320   18.0390 C   0  0  0  0  0  1  0  0  0  0  0  0
  -29.8580  -18.2300   17.5890 C   0  0  0  0  0  3  0  0  0  0  0  0
  -27.9540  -19.0610   18.7230 C   0  0  0  0  0  1  0  0  0  0  0  0
  -28.0150  -21.1610   18.9270 C   0  0  0  0  0  1  0  0  0  0  0  0
  -28.8060  -14.0770   17.8510 C   0  0  0  0  0  2  0  0  0  0  0  0
  -26.7000  -18.7030   19.5040 C   0  0  0  0  0  1  0  0  0  0  0  0
  -27.5760  -23.2390   19.6190 O   0  0  0  0  0 15  0  0  0  0  0  0
  -24.5590  -31.4650   22.9960 C   0  0  0  0  0  0  0  0  0  0  0  0
  -26.8560  -25.1470   19.7590 C   0  0  0  0  0  3  0  0  0  0  0  0
  -23.4220  -30.0580   21.3580 C   0  0  0  0  0  3  0  0  0  0  0  0
  -24.8160  -28.1440   19.9360 C   0  0  0  0  0  0  0  0  0  0  0  0
  -26.0180  -29.7280   21.3780 C   0  0  0  0  0  2  0  0  0  0  0  0
  -26.0290  -28.1620   20.6260 C   0  0  0  0  0  0  0  0  0  0  0  0
  -26.9510  -26.7570   20.4960 C   0  0  0  0  0  3  0  0  0  0  0  0
  -25.6630  -25.7560   19.0550 C   0  0  0  0  0  3  0  0  0  0  0  0
  -24.7620  -26.9710   19.1220 C   0  0  0  0  0  3  0  0  0  0  0  0
  -23.7050  -29.2900   20.0070 C   0  0  0  0  0  2  0  0  0  0  0  0
  -24.7190  -30.4900   21.9660 N   0  0  0  0  0  0  0  0  0  0  0  0
  -23.4390  -31.8100   23.4360 O   0  0  0  0  0  0  0  0  0  0  0  0
  -22.5960  -29.1890   22.3560 C   0  0  0  0  0  0  0  0  0  0  0  0
  -21.2480  -29.1220   22.2690 N   0  0  0  0  0  0  0  0  0  0  0  0
  -23.2080  -28.5470   23.2110 O   0  0  0  0  0  0  0  0  0  0  0  0
  -20.7830  -29.6900   21.5760 H   0  0  0  0  0  0  0  0  0  0  0  0
  -17.8440  -27.8890   22.8260 C   0  0  0  0  0  0  0  0  0  0  0  0
  -20.4100  -28.1820   23.0400 C   0  0  0  0  0  3  0  0  0  0  0  0
  -20.5050  -26.7650   22.4290 C   0  0  0  0  0  2  0  0  0  0  0  0
  -19.3920  -26.4700   21.4180 C   0  0  0  0  0  2  0  0  0  0  0  0
  -18.0200  -26.5760   22.0850 C   0  0  0  0  0  2  0  0  0  0  0  0
  -18.9630  -28.6530   23.2550 C   0  0  0  0  0  0  0  0  0  0  0  0
  -18.7350  -29.8780   23.9170 C   0  0  0  0  0  3  0  0  0  0  0  0
  -17.4230  -30.3380   24.1510 C   0  0  0  0  0  3  0  0  0  0  0  0
  -16.3220  -29.5740   23.7260 C   0  0  0  0  0  3  0  0  0  0  0  0
  -16.5350  -28.3490   23.0730 C   0  0  0  0  0  3  0  0  0  0  0  0
  -25.7400  -32.2260   23.7050 C   0  0  0  0  0  3  0  0  0  0  0  0
  -26.1030  -31.6050   25.1120 C   0  0  1  0  0  0  0  0  0  0  0  0
  -24.9040  -31.4940   26.0840 C   0  0  0  0  0  1  0  0  0  0  0  0
  -26.6960  -30.1980   24.9570 C   0  0  0  0  0  1  0  0  0  0  0  0
  -27.1910  -32.4560   25.8070 C   0  0  0  0  0  1  0  0  0  0  0  0
  -25.3960  -33.6660   23.9270 N   0  0  0  0  0  0  0  0  0  0  0  0
  -25.8320  -34.7190   23.2150 C   0  0  0  0  0  0  0  0  0  0  0  0
  -26.5800  -34.5820   22.2480 O   0  0  0  0  0  0  0  0  0  0  0  0
  -24.7430  -33.8520   24.6730 H   0  0  0  0  0  0  0  0  0  0  0  0
  -24.1700  -36.5830   22.8010 C   0  0  0  0  0  1  0  0  0  0  0  0
  -25.3900  -36.1470   23.6330 C   0  0  0  0  0  3  0  0  0  0  0  0
  -27.5400  -37.0350   24.4500 C   0  0  0  0  0  1  0  0  0  0  0  0
  -26.4490  -37.1790   23.4910 N   0  0  0  0  0  0  0  0  0  0  0  0
  -26.0610  -38.1150   23.5900 H   0  0  0  0  0  0  0  0  0  0  0  0
  -31.5490  -20.2630   17.6430 C   0  0  0  0  0  2  0  0  0  0  0  0
  -32.5720  -19.8140   18.7530 C   0  0  0  0  0  2  0  0  0  0  0  0
  -32.2220  -19.8850   20.2790 C   0  0  0  0  0  2  0  0  0  0  0  0
  -31.1310  -18.9490   20.8950 C   0  0  0  0  0  2  0  0  0  0  0  0
  -31.5680  -17.4810   21.0440 C   0  0  0  0  0  2  0  0  0  0  0  0
  -30.9800  -16.7200   22.2790 C   0  0  0  0  0  2  0  0  0  0  0  0
  -30.7980  -15.2560   21.8940 C   0  0  0  0  0  0  0  0  0  0  0  0
  -30.4100  -14.1140   19.7520 C   0  0  0  0  0  2  0  0  0  0  0  0
  -29.3010  -13.3820   18.4850 C   0  0  0  0  0  2  0  0  0  0  0  0
  -27.4770  -13.7970   18.5530 C   0  0  0  0  0  1  0  0  0  0  0  0
  -26.5510  -14.4450   20.1750 C   0  0  0  0  0  1  0  0  0  0  0  0
  -27.9350  -15.2320   21.7430 C   0  0  0  0  0 15  0  0  0  0  0  0
  -29.7550  -15.0840   21.1370 N   0  0  0  0  0  2  0  0  0  0  0  0
  -31.8040  -14.5710   21.7630 O   0  0  0  0  0  0  0  0  0  0  0  0
  -24.5070  -13.5110   21.0610 C   0  0  0  0  0  0  0  0  0  0  0  0
  -23.7270  -12.4360   21.2390 C   0  0  0  0  0  0  0  0  0  0  0  0
  -24.4860  -11.2500   21.0400 C   0  0  0  0  0  0  0  0  0  0  0  0
  -25.6900  -13.1560   20.6270 N   0  0  0  0  0  0  0  0  0  0  0  0
  -25.7400  -11.6940   20.6470 N   0  0  0  0  0  0  0  0  0  0  0  0
  -23.9040   -9.8420   21.1940 C   0  0  0  0  0  0  0  0  0  0  0  0
  -24.3500   -8.8440   22.1100 C   0  0  0  0  0  3  0  0  0  0  0  0
  -23.6420   -7.6200   22.3150 C   0  0  0  0  0  3  0  0  0  0  0  0
  -22.4420   -7.3510   21.6180 C   0  0  0  0  0  0  0  0  0  0  0  0
  -21.9830   -8.3280   20.7180 C   0  0  0  0  0  3  0  0  0  0  0  0
  -22.6960   -9.5350   20.5100 C   0  0  0  0  0  3  0  0  0  0  0  0
  -21.7010   -6.1880   21.7150 O   0  0  0  0  0  0  0  0  0  0  0  0
  -21.7120   -5.3820   22.8360 C   0  0  0  0  0  0  0  0  0  0  0  0
  -21.2960   -5.8670   24.0940 C   0  0  0  0  0  3  0  0  0  0  0  0
  -21.2560   -5.0040   25.2070 C   0  0  0  0  0  3  0  0  0  0  0  0
  -21.6180   -3.6480   25.0620 C   0  0  0  0  0  0  0  0  0  0  0  0
  -22.0140   -3.1560   23.8030 C   0  0  0  0  0  3  0  0  0  0  0  0
  -22.0550   -4.0190   22.6920 C   0  0  0  0  0  0  0  0  0  0  0  0
  -22.4150   -3.5290   21.4780 F   0  0  0  0  0  0  0  0  0  0  0  0
  -21.5860   -2.8210   26.1260 F   0  0  0  0  0  0  0  0  0  0  0  0
  -22.2870  -12.6590   21.4990 C   0  0  0  0  0  0  0  0  0  0  0  0
  -21.6920  -11.9010   22.4030 N   0  0  0  0  0  0  0  0  0  0  0  0
  -21.7210  -13.6130   20.9660 O   0  0  0  0  0  0  0  0  0  0  0  0
  -22.1990  -11.1570   22.8550 H   0  0  0  0  0  0  0  0  0  0  0  0
  -20.7240  -12.0590   22.6550 H   0  0  0  0  0  0  0  0  0  0  0  0
  -24.2320  -14.8530   21.2330 N   0  0  0  0  0  0  0  0  0  0  0  0
  -23.2650  -15.1040   21.4440 H   0  0  0  0  0  0  0  0  0  0  0  0
  -24.8880  -15.6130   21.3740 H   0  0  0  0  0  0  0  0  0  0  0  0
  -31.0790  -17.7040   16.8500 C   0  0  0  0  0  2  0  0  0  0  0  0
  -31.5130  -18.3650   15.5380 C   0  0  0  0  0  2  0  0  0  0  0  0
  -33.9610  -17.4400   15.6550 C   0  0  0  0  0  1  0  0  0  0  0  0
  -33.0380  -18.6720   15.4800 C   0  0  0  0  0  2  0  0  0  0  0  0
  1  6  1  0
  2 50  1  0
  2  1  1  0
  4  2  1  0
  4  3  1  0
  5  8  1  0
  7 58  1  0
  7 59  1  0
 10 21  2  0
 11 16  1  0
 12 20  1  0
 12 22  1  0
 13 19  1  0
 13 15  1  0
 14 20  1  0
 15 14  1  0
 16 15  2  0
 17 18  1  0
 17 11  2  0
 18 13  2  0
 19 12  1  0
 20 10  1  0
 22 24  2  0
 23 22  1  0
 25 23  1  0
 26 35  2  0
 26 31  1  0
 27 23  1  0
 27 31  1  0
 28 27  1  0
 29 30  1  0
 29 28  1  0
 30 26  1  0
 31 32  2  0
 32 33  1  0
 34 33  2  0
 35 34  1  0
 36 10  1  0
 36 41  1  0
 36 37  1  0
 37 40  1  1
 37 38  1  0
 39 37  1  0
 41 44  1  0
 42 46  1  0
 42 41  1  0
 43 42  2  0
 46 45  1  0
 48 49  1  0
 48 46  1  0
 48 47  1  0
 50 51  1  0
 51 52  1  0
 52 53  1  0
 53 54  1  0
 54 55  1  0
 56 55  1  0
 57 62  1  0
 58 57  1  0
 60 67  1  0
 62 56  1  0
 63 56  2  0
 64 89  1  0
 64 65  2  0
 65 84  1  0
 66 69  1  0
 66 65  1  0
 67 68  1  0
 67 64  1  0
 68 66  2  0
 69 70  1  0
 70 71  2  0
 72 75  1  0
 72 71  1  0
 73 72  2  0
 74 73  1  0
 74 69  2  0
 75 76  1  0
 76 77  1  0
 77 78  2  0
 79 78  1  0
 79 83  1  0
 80 79  2  0
 81 76  2  0
 81 80  1  0
 82 81  1  0
 84 85  1  0
 85 88  1  0
 85 87  1  0
 86 84  2  0
 89 91  1  0
 89 90  1  0
 92  4  1  0
 93 92  1  0
 95 93  1  0
 95 94  1  0
M  ISO  4   6 101   9 101  55 100  56 100
M  END
>  <TORSDO>  (74) 
F 25

>  <SCORE>  (74) 
-7.610

>  <name>  (74) 
74

>  <ligand_id>  (74) 
74

>  <original_smiles>  (74) 
[H]c1c([H])c([H])c2c(c1[H])C([H])([H])C([H])([H])C([H])([H])C2([H])N([H])C(=O)C1([H])N(C(=O)C([H])(N([H])C(=O)C([H])(N([H])C([H])([H])[H])C([H])([H])[H])C(C([H])([H])[H])(C([H])([H])[H])C([H])([H])[H])C([H])([H])c2c([H])c(Oc3c([H])c(C([H])([H])C([H])([H])C([H])([H])C([H])([H])C([H])([H])C([H])([H])C(=O)N4C([H])([H])C([H])([H])C([H])([H])C([H])(n5nc(-c6c([H])c([H])c(Oc7c([H])c([H])c(F)c([H])c7F)c([H])c6[H])c(C(=O)N([H])[H])c5N([H])[H])C4([H])[H])c(C([H])([H])C([H])([H])C([H])([H])C([H])([H])[H])c(C([H])([H])[H])c3C([H])([H])[H])c([H])c([H])c2C1([H])[H]

>  <smiles>  (74) 
[H]c1c([H])c([H])c2c(c1[H])C([H])([H])C([H])([H])C([H])([H])C2([H])N([H])C(=O)C1([H])N(C(=O)C([H])(N([H])C(=O)C([H])(N([H])C([H])([H])[H])C([H])([H])[H])C(C([H])([H])[H])(C([H])([H])[H])C([H])([H])[H])C([H])([H])c2c([H])c(Oc3c([H])c(C([H])([H])C([H])([H])C([H])([H])C([H])([H])C([H])([H])C([H])([H])C(=O)N4C([H])([H])C([H])([H])C([H])([H])C([H])(n5nc(-c6c([H])c([H])c(Oc7c([H])c([H])c(F)c([H])c7F)c([H])c6[H])c(C(=O)N([H])[H])c5N([H])[H])C4([H])[H])c(C([H])([H])C([H])([H])C([H])([H])C([H])([H])[H])c(C([H])([H])[H])c3C([H])([H])[H])c([H])c([H])c2C1([H])[H]

$$$$
75:0:0
     RDKit          3D

100108  0  0  1  0  0  0  0  0999 V2000
  -29.4340  -23.2000   20.3460 C   0  0  0  0  0  3  0  0  0  0  0  0
  -30.7380  -22.4750   20.3700 N   0  0  0  0  0  4  0  0  0  0  0  0
  -30.9700  -22.1800   19.4370 H   0  0  0  0  0  0  0  0  0  0  0  0
  -31.4470  -23.1290   20.6630 H   0  0  0  0  0  0  0  0  0  0  0  0
  -30.8300  -21.3090   21.2910 C   0  0  0  0  0  2  0  0  0  0  0  0
  -31.6380  -20.1370   20.6900 C   0  0  0  0  0  2  0  0  0  0  0  0
  -31.3590  -18.7910   21.3930 C   0  0  0  0  0  2  0  0  0  0  0  0
  -31.9470  -17.5790   20.6450 C   0  0  0  0  0  2  0  0  0  0  0  0
  -31.5270  -16.2150   21.2460 C   0  0  0  0  0  2  0  0  0  0  0  0
  -32.0390  -15.0180   20.4140 C   0  0  0  0  0  0  0  0  0  0  0  0
  -31.5650  -12.9640   19.1350 C   0  0  0  0  0  2  0  0  0  0  0  0
  -30.6390  -13.3160   17.9530 C   0  0  0  0  0  2  0  0  0  0  0  0
  -29.1610  -13.2600   18.3870 C   0  0  0  0  0  2  0  0  0  0  0  0
  -28.8950  -14.0460   19.7010 C   0  0  0  0  0  3  0  0  0  0  0  0
  -29.9340  -13.6710   20.7820 C   0  0  0  0  0  2  0  0  0  0  0  0
  -31.2740  -13.9090   20.2230 N   0  0  0  0  0  0  0  0  0  0  0  0
  -33.1410  -15.1460   19.8720 O   0  0  0  0  0  0  0  0  0  0  0  0
  -26.5470  -14.7900   20.4490 C   0  0  0  0  0  0  0  0  0  0  0  0
  -25.4250  -14.0830   20.7840 C   0  0  0  0  0  0  0  0  0  0  0  0
  -25.7820  -12.7030   20.6740 C   0  0  0  0  0  0  0  0  0  0  0  0
  -27.5240  -13.8480   20.1680 N   0  0  0  0  0  0  0  0  0  0  0  0
  -27.0660  -12.5840   20.3550 N   0  0  0  0  0  0  0  0  0  0  0  0
  -24.9640  -11.4910   20.8000 C   0  0  0  0  0  0  0  0  0  0  0  0
  -25.2660  -10.4910   21.7510 C   0  0  0  0  0  3  0  0  0  0  0  0
  -24.4530   -9.3440   21.8650 C   0  0  0  0  0  3  0  0  0  0  0  0
  -23.3240   -9.1870   21.0270 C   0  0  0  0  0  0  0  0  0  0  0  0
  -23.0410  -10.1730   20.0660 C   0  0  0  0  0  3  0  0  0  0  0  0
  -23.8540  -11.3130   19.9500 C   0  0  0  0  0  3  0  0  0  0  0  0
  -22.4930   -8.0930   21.0490 O   0  0  0  0  0  0  0  0  0  0  0  0
  -22.2040   -7.4320   22.2170 C   0  0  0  0  0  0  0  0  0  0  0  0
  -21.6310   -8.0940   23.3250 C   0  0  0  0  0  3  0  0  0  0  0  0
  -21.2850   -7.3630   24.4790 C   0  0  0  0  0  3  0  0  0  0  0  0
  -21.5030   -5.9730   24.5240 C   0  0  0  0  0  0  0  0  0  0  0  0
  -22.0690   -5.3120   23.4210 C   0  0  0  0  0  3  0  0  0  0  0  0
  -22.4160   -6.0390   22.2680 C   0  0  0  0  0  0  0  0  0  0  0  0
  -22.9410   -5.3950   21.1990 F   0  0  0  0  0  0  0  0  0  0  0  0
  -21.1640   -5.2700   25.6300 F   0  0  0  0  0  0  0  0  0  0  0  0
  -24.0690  -14.6470   21.0970 C   0  0  0  0  0  0  0  0  0  0  0  0
  -23.3080  -13.9720   21.9520 N   0  0  0  0  0  0  0  0  0  0  0  0
  -23.6970  -15.7190   20.6200 O   0  0  0  0  0  0  0  0  0  0  0  0
  -23.6230  -13.1020   22.3550 H   0  0  0  0  0  0  0  0  0  0  0  0
  -22.3990  -14.3300   22.2060 H   0  0  0  0  0  0  0  0  0  0  0  0
  -26.8150  -16.1500   20.3400 N   0  0  0  0  0  0  0  0  0  0  0  0
  -26.0960  -16.8520   20.4710 H   0  0  0  0  0  0  0  0  0  0  0  0
  -27.6980  -16.5340   20.0290 H   0  0  0  0  0  0  0  0  0  0  0  0
  -28.5050  -22.7510   19.1720 C   0  0  0  0  0  2  0  0  0  0  0  0
  -30.3440  -22.3480   15.2380 C   0  0  0  0  0  3  0  0  0  0  0  0
  -30.2060  -21.2170   16.0570 C   0  0  0  0  0  0  0  0  0  0  0  0
  -29.8800  -23.6050   15.6590 C   0  0  0  0  0  0  0  0  0  0  0  0
  -29.6080  -21.3350   17.3360 C   0  0  0  0  0  0  0  0  0  0  0  0
  -29.2780  -23.7480   16.9350 C   0  0  0  0  0  0  0  0  0  0  0  0
  -29.1490  -22.6080   17.7850 C   0  0  0  0  0  0  0  0  0  0  0  0
  -30.7020  -19.8820   15.5230 C   0  0  0  0  0  1  0  0  0  0  0  0
  -30.0400  -24.7770   14.7040 C   0  0  0  0  0  1  0  0  0  0  0  0
  -29.4490  -20.0760   18.1890 C   0  0  0  0  0  1  0  0  0  0  0  0
  -27.2270  -25.2290   17.1840 C   0  0  0  0  0  1  0  0  0  0  0  0
  -28.7480  -25.1220   17.3550 C   0  0  0  0  0  2  0  0  0  0  0  0
  -29.6840  -24.7310   20.2430 C   0  0  0  0  0  2  0  0  0  0  0  0
  -28.7070  -25.6070   21.0590 C   0  0  0  0  0  2  0  0  0  0  0  0
  -28.8700  -26.9920   20.7420 O   0  0  0  0  0  0  0  0  0  0  0  0
  -24.7580  -31.9700   23.7080 C   0  0  0  0  0  0  0  0  0  0  0  0
  -27.6910  -27.6960   20.6840 C   0  0  0  0  0  0  0  0  0  0  0  0
  -23.6890  -30.6050   21.9400 C   0  0  0  0  0  3  0  0  0  0  0  0
  -25.2670  -29.1340   20.5760 C   0  0  0  0  0  0  0  0  0  0  0  0
  -26.2130  -31.0170   21.9290 C   0  0  0  0  0  2  0  0  0  0  0  0
  -26.3690  -29.6690   21.2570 C   0  0  0  0  0  0  0  0  0  0  0  0
  -27.5860  -28.9560   21.3090 C   0  0  0  0  0  3  0  0  0  0  0  0
  -26.5760  -27.1640   20.0040 C   0  0  0  0  0  3  0  0  0  0  0  0
  -25.3620  -27.8780   19.9500 C   0  0  0  0  0  3  0  0  0  0  0  0
  -24.0060  -29.9690   20.5580 C   0  0  0  0  0  2  0  0  0  0  0  0
  -24.8990  -31.2100   22.5860 N   0  0  0  0  0  0  0  0  0  0  0  0
  -23.6380  -32.2120   24.1800 O   0  0  0  0  0  0  0  0  0  0  0  0
  -22.9900  -29.5460   22.8190 C   0  0  0  0  0  0  0  0  0  0  0  0
  -21.6770  -29.3630   22.6010 N   0  0  0  0  0  0  0  0  0  0  0  0
  -23.6250  -28.8910   23.6490 O   0  0  0  0  0  0  0  0  0  0  0  0
  -21.2270  -29.9480   21.9100 H   0  0  0  0  0  0  0  0  0  0  0  0
  -18.2740  -28.1830   22.8800 C   0  0  0  0  0  0  0  0  0  0  0  0
  -20.8180  -28.3930   23.2780 C   0  0  0  0  0  3  0  0  0  0  0  0
  -20.9330  -26.9980   22.6230 C   0  0  0  0  0  2  0  0  0  0  0  0
  -19.8740  -26.7470   21.5440 C   0  0  0  0  0  2  0  0  0  0  0  0
  -18.4660  -26.8730   22.1340 C   0  0  0  0  0  2  0  0  0  0  0  0
  -19.3800  -28.9050   23.4020 C   0  0  0  0  0  0  0  0  0  0  0  0
  -19.1500  -30.1370   24.0520 C   0  0  0  0  0  3  0  0  0  0  0  0
  -17.8450  -30.6460   24.1870 C   0  0  0  0  0  3  0  0  0  0  0  0
  -16.7520  -29.9190   23.6840 C   0  0  0  0  0  3  0  0  0  0  0  0
  -16.9660  -28.6900   23.0370 C   0  0  0  0  0  3  0  0  0  0  0  0
  -25.9900  -32.5920   24.4390 C   0  0  0  0  0  3  0  0  0  0  0  0
  -25.7600  -34.0380   24.5370 N   0  0  0  0  0  0  0  0  0  0  0  0
  -26.2910  -34.9500   23.7120 C   0  0  0  0  0  0  0  0  0  0  0  0
  -27.0930  -34.6600   22.8200 O   0  0  0  0  0  0  0  0  0  0  0  0
  -25.0750  -34.3420   25.2130 H   0  0  0  0  0  0  0  0  0  0  0  0
  -24.7890  -36.7820   22.8700 C   0  0  0  0  0  1  0  0  0  0  0  0
  -25.8640  -36.4170   23.9050 C   0  0  0  0  0  3  0  0  0  0  0  0
  -27.9310  -37.2600   24.9270 C   0  0  0  0  0  1  0  0  0  0  0  0
  -26.9880  -37.3730   23.8180 N   0  0  0  0  0  0  0  0  0  0  0  0
  -26.6470  -38.3300   23.7880 H   0  0  0  0  0  0  0  0  0  0  0  0
  -26.2490  -31.9690   25.8660 C   0  0  1  0  0  0  0  0  0  0  0  0
  -24.9900  -31.9330   26.7640 C   0  0  0  0  0  1  0  0  0  0  0  0
  -26.7840  -30.5240   25.7400 C   0  0  0  0  0  1  0  0  0  0  0  0
  -27.3390  -32.7820   26.6050 C   0  0  0  0  0  1  0  0  0  0  0  0
  1 46  1  0
  1  2  1  0
  2  4  1  0
  2  5  1  0
  3  2  1  0
  6  5  1  0
  6  7  1  0
  8  9  1  0
  8  7  1  0
 10  9  1  0
 11 16  1  0
 12 13  1  0
 12 11  1  0
 14 13  1  0
 14 21  1  0
 14 15  1  0
 16 10  1  0
 16 15  1  0
 17 10  2  0
 18 19  2  0
 19 38  1  0
 20 19  1  0
 20 23  1  0
 21 22  1  0
 21 18  1  0
 22 20  2  0
 23 24  1  0
 24 25  2  0
 26 29  1  0
 26 25  1  0
 27 26  2  0
 28 27  1  0
 28 23  2  0
 29 30  1  0
 30 35  2  0
 30 31  1  0
 31 32  2  0
 32 33  1  0
 33 37  1  0
 34 33  2  0
 35 34  1  0
 36 35  1  0
 38 39  1  0
 39 42  1  0
 39 41  1  0
 40 38  2  0
 43 18  1  0
 43 44  1  0
 45 43  1  0
 47 49  2  0
 47 48  1  0
 48 50  2  0
 49 51  1  0
 50 52  1  0
 50 55  1  0
 51 57  1  0
 51 52  2  0
 52 46  1  0
 53 48  1  0
 54 49  1  0
 56 57  1  0
 58  1  1  0
 58 59  1  0
 60 59  1  0
 61 72  2  0
 62 60  1  0
 62 67  1  0
 63 71  1  0
 63 73  1  0
 64 66  1  0
 65 71  1  0
 66 67  2  0
 66 65  1  0
 68 62  2  0
 69 68  1  0
 69 64  2  0
 70 64  1  0
 70 63  1  0
 71 61  1  0
 73 75  2  0
 74 73  1  0
 76 74  1  0
 77 86  2  0
 77 82  1  0
 78 74  1  0
 78 82  1  0
 79 78  1  0
 80 81  1  0
 80 79  1  0
 81 77  1  0
 82 83  2  0
 83 84  1  0
 85 84  2  0
 86 85  1  0
 87 61  1  0
 87 88  1  0
 87 97  1  0
 88 91  1  0
 89 93  1  0
 89 88  1  0
 90 89  2  0
 93 92  1  0
 95 93  1  0
 95 94  1  0
 96 95  1  0
 97100  1  1
 97 98  1  0
 99 97  1  0
M  ISO  4   9 100  10 100  59 101  60 101
M  END
>  <TORSDO>  (75) 
F 27

>  <SCORE>  (75) 
-8.947

>  <name>  (75) 
75

>  <ligand_id>  (75) 
75

>  <original_smiles>  (75) 
[H]c1c([H])c([H])c2c(c1[H])C([H])([H])C([H])([H])C([H])([H])C2([H])N([H])C(=O)C1([H])N(C(=O)C([H])(N([H])C(=O)C([H])(N([H])C([H])([H])[H])C([H])([H])[H])C(C([H])([H])[H])(C([H])([H])[H])C([H])([H])[H])C([H])([H])c2c([H])c(OC([H])([H])C([H])([H])C([H])(C([H])([H])c3c(C([H])([H])[H])c(C([H])([H])[H])c([H])c(C([H])([H])[H])c3C([H])([H])C([H])([H])[H])[N+]([H])([H])C([H])([H])C([H])([H])C([H])([H])C([H])([H])C([H])([H])C(=O)N3C([H])([H])C([H])([H])C([H])([H])C([H])(n4nc(-c5c([H])c([H])c(Oc6c([H])c([H])c(F)c([H])c6F)c([H])c5[H])c(C(=O)N([H])[H])c4N([H])[H])C3([H])[H])c([H])c([H])c2C1([H])[H]

>  <smiles>  (75) 
[H]c1c([H])c([H])c2c(c1[H])C([H])([H])C([H])([H])C([H])([H])C2([H])N([H])C(=O)C1([H])N(C(=O)C([H])(N([H])C(=O)C([H])(N([H])C([H])([H])[H])C([H])([H])[H])C(C([H])([H])[H])(C([H])([H])[H])C([H])([H])[H])C([H])([H])c2c([H])c(OC([H])([H])C([H])([H])C([H])(C([H])([H])c3c(C([H])([H])[H])c(C([H])([H])[H])c([H])c(C([H])([H])[H])c3C([H])([H])C([H])([H])[H])[N+]([H])([H])C([H])([H])C([H])([H])C([H])([H])C([H])([H])C([H])([H])C(=O)N3C([H])([H])C([H])([H])C([H])([H])C([H])(n4nc(-c5c([H])c([H])c(Oc6c([H])c([H])c(F)c([H])c6F)c([H])c5[H])c(C(=O)N([H])[H])c4N([H])[H])C3([H])[H])c([H])c([H])c2C1([H])[H]

$$$$
76:0:0
     RDKit          3D

 92101  0  0  1  0  0  0  0  0999 V2000
  -27.8510  -20.7500   20.4960 C   0  0  0  0  0  3  0  0  0  0  0  0
  -27.7610  -22.1570   20.7010 C   0  0  0  0  0  3  0  0  0  0  0  0
  -30.2390  -20.8840   20.4480 C   0  0  0  0  0  3  0  0  0  0  0  0
  -29.0860  -20.0460   20.4070 C   0  0  0  0  0  0  0  0  0  0  0  0
  -28.9040  -22.9880   20.7990 C   0  0  0  0  0  0  0  0  0  0  0  0
  -30.1550  -22.3110   20.6380 C   0  0  0  0  0  0  0  0  0  0  0  0
  -31.6790  -24.2230   19.7390 C   0  0  0  0  0  2  0  0  0  0  0  0
  -32.5380  -22.9820   19.7200 C   0  0  0  0  0  2  0  0  0  0  0  0
  -31.4210  -23.1130   20.7320 C   0  0  0  0  0  3  0  0  0  0  0  0
  -28.7880  -24.3430   21.4920 C   0  0  0  0  0  3  0  0  0  0  0  0
  -28.5460  -25.6860   21.2660 C   0  0  0  0  0  3  0  0  0  0  0  0
  -28.3280  -26.4660   20.1300 O   0  0  0  0  0  0  0  0  0  0  0  0
  -24.6170  -31.8860   23.2300 C   0  0  0  0  0  0  0  0  0  0  0  0
  -27.2460  -27.3540   20.1580 C   0  0  0  0  0  0  0  0  0  0  0  0
  -23.4150  -30.4830   21.5910 C   0  0  0  0  0  3  0  0  0  0  0  0
  -24.8740  -28.9410   20.1610 C   0  0  0  0  0  0  0  0  0  0  0  0
  -25.9520  -30.8150   21.4020 C   0  0  0  0  0  2  0  0  0  0  0  0
  -26.0410  -29.4370   20.7610 C   0  0  0  0  0  0  0  0  0  0  0  0
  -27.2330  -28.6510   20.7580 C   0  0  0  0  0  3  0  0  0  0  0  0
  -26.0630  -26.9060   19.5430 C   0  0  0  0  0  3  0  0  0  0  0  0
  -24.8850  -27.6790   19.5460 C   0  0  0  0  0  3  0  0  0  0  0  0
  -23.6310  -29.8080   20.2100 C   0  0  0  0  0  2  0  0  0  0  0  0
  -24.6800  -31.0790   22.1320 N   0  0  0  0  0  0  0  0  0  0  0  0
  -23.5340  -32.1580   23.7690 O   0  0  0  0  0  0  0  0  0  0  0  0
  -22.7600  -29.4620   22.5510 C   0  0  0  0  0  0  0  0  0  0  0  0
  -21.4330  -29.2840   22.4320 N   0  0  0  0  0  0  0  0  0  0  0  0
  -23.4440  -28.8340   23.3640 O   0  0  0  0  0  0  0  0  0  0  0  0
  -20.9390  -29.8410   21.7490 H   0  0  0  0  0  0  0  0  0  0  0  0
  -18.0620  -28.0830   22.9490 C   0  0  0  0  0  0  0  0  0  0  0  0
  -20.6200  -28.3440   23.2050 C   0  0  0  0  0  3  0  0  0  0  0  0
  -20.7200  -26.9140   22.6240 C   0  0  0  0  0  2  0  0  0  0  0  0
  -19.6120  -26.5940   21.6150 C   0  0  0  0  0  2  0  0  0  0  0  0
  -18.2350  -26.7370   22.2660 C   0  0  0  0  0  2  0  0  0  0  0  0
  -19.1820  -28.8460   23.3750 C   0  0  0  0  0  0  0  0  0  0  0  0
  -18.9660  -30.1060   23.9730 C   0  0  0  0  0  3  0  0  0  0  0  0
  -17.6630  -30.6060   24.1480 C   0  0  0  0  0  3  0  0  0  0  0  0
  -16.5560  -29.8420   23.7380 C   0  0  0  0  0  3  0  0  0  0  0  0
  -16.7570  -28.5820   23.1460 C   0  0  0  0  0  3  0  0  0  0  0  0
  -25.9000  -32.5220   23.8490 C   0  0  0  0  0  3  0  0  0  0  0  0
  -25.5880  -33.9190   24.1830 N   0  0  0  0  0  0  0  0  0  0  0  0
  -25.9100  -34.9740   23.4240 C   0  0  0  0  0  0  0  0  0  0  0  0
  -26.5740  -34.8740   22.3890 O   0  0  0  0  0  0  0  0  0  0  0  0
  -24.9970  -34.0690   24.9890 H   0  0  0  0  0  0  0  0  0  0  0  0
  -24.1710  -36.7590   23.0840 C   0  0  0  0  0  1  0  0  0  0  0  0
  -25.4200  -36.3600   23.8860 C   0  0  0  0  0  3  0  0  0  0  0  0
  -27.5550  -37.2520   24.7070 C   0  0  0  0  0  1  0  0  0  0  0  0
  -26.4470  -37.4190   23.7710 N   0  0  0  0  0  0  0  0  0  0  0  0
  -26.0360  -38.3360   23.9270 H   0  0  0  0  0  0  0  0  0  0  0  0
  -26.4240  -31.7500   25.1230 C   0  0  1  0  0  0  0  0  0  0  0  0
  -25.3350  -31.5090   26.1930 C   0  0  0  0  0  1  0  0  0  0  0  0
  -27.0090  -30.3740   24.7270 C   0  0  0  0  0  1  0  0  0  0  0  0
  -27.5740  -32.5470   25.7830 C   0  0  0  0  0  1  0  0  0  0  0  0
  -29.0490  -18.4980   20.2240 C   0  0  0  0  0  0  0  0  0  0  0  0
  -27.9960  -17.9720   19.8530 O   0  0  0  0  0  0  0  0  0  0  0  0
  -30.2480  -17.4980   20.4900 C   0  0  0  0  0  2  0  0  0  0  0  0
  -29.8690  -15.9940   20.9500 C   0  0  0  0  0  2  0  0  0  0  0  0
  -30.6370  -14.7230   20.3770 C   0  0  0  0  0  0  0  0  0  0  0  0
  -30.4240  -12.4960   19.2640 C   0  0  0  0  0  2  0  0  0  0  0  0
  -29.4760  -12.6500   18.0530 C   0  0  0  0  0  2  0  0  0  0  0  0
  -28.0040  -12.4830   18.4820 C   0  0  0  0  0  2  0  0  0  0  0  0
  -27.6530  -13.3210   19.7390 C   0  0  0  0  0  3  0  0  0  0  0  0
  -28.7170  -13.1460   20.8460 C   0  0  0  0  0  2  0  0  0  0  0  0
  -30.0230  -13.4990   20.2730 N   0  0  0  0  0  0  0  0  0  0  0  0
  -31.7790  -14.8800   19.9370 O   0  0  0  0  0  0  0  0  0  0  0  0
  -25.2610  -13.9180   20.4540 C   0  0  0  0  0  0  0  0  0  0  0  0
  -24.1950  -13.1440   20.8230 C   0  0  0  0  0  0  0  0  0  0  0  0
  -24.6590  -11.7920   20.8000 C   0  0  0  0  0  0  0  0  0  0  0  0
  -26.3070  -13.0380   20.2240 N   0  0  0  0  0  0  0  0  0  0  0  0
  -25.9500  -11.7550   20.4930 N   0  0  0  0  0  0  0  0  0  0  0  0
  -23.9330  -10.5310   20.9970 C   0  0  0  0  0  0  0  0  0  0  0  0
  -24.3650   -9.5700   21.9380 C   0  0  0  0  0  3  0  0  0  0  0  0
  -23.6400   -8.3730   22.1230 C   0  0  0  0  0  3  0  0  0  0  0  0
  -22.4690   -8.1280   21.3670 C   0  0  0  0  0  0  0  0  0  0  0  0
  -22.0570   -9.0770   20.4140 C   0  0  0  0  0  3  0  0  0  0  0  0
  -22.7810  -10.2660   20.2280 C   0  0  0  0  0  3  0  0  0  0  0  0
  -21.7170   -6.9820   21.4610 O   0  0  0  0  0  0  0  0  0  0  0  0
  -21.6640   -6.2480   22.6180 C   0  0  0  0  0  0  0  0  0  0  0  0
  -21.2290   -6.8090   23.8380 C   0  0  0  0  0  3  0  0  0  0  0  0
  -21.1260   -6.0020   24.9880 C   0  0  0  0  0  3  0  0  0  0  0  0
  -21.4450   -4.6320   24.9180 C   0  0  0  0  0  0  0  0  0  0  0  0
  -21.8740   -4.0700   23.7020 C   0  0  0  0  0  3  0  0  0  0  0  0
  -21.9800   -4.8760   22.5550 C   0  0  0  0  0  0  0  0  0  0  0  0
  -22.3730   -4.3240   21.3820 F   0  0  0  0  0  0  0  0  0  0  0  0
  -21.3370   -3.8540   26.0200 F   0  0  0  0  0  0  0  0  0  0  0  0
  -22.7960  -13.6200   21.0910 C   0  0  0  0  0  0  0  0  0  0  0  0
  -22.0680  -12.9270   21.9590 N   0  0  0  0  0  0  0  0  0  0  0  0
  -22.3570  -14.6420   20.5670 O   0  0  0  0  0  0  0  0  0  0  0  0
  -22.4380  -12.1010   22.4080 H   0  0  0  0  0  0  0  0  0  0  0  0
  -21.1290  -13.2280   22.1810 H   0  0  0  0  0  0  0  0  0  0  0  0
  -25.4230  -15.2890   20.2760 N   0  0  0  0  0  0  0  0  0  0  0  0
  -24.6570  -15.9410   20.4030 H   0  0  0  0  0  0  0  0  0  0  0  0
  -26.2770  -15.7410   19.9710 H   0  0  0  0  0  0  0  0  0  0  0  0
  1  2  1  0
  2  5  2  0
  3  6  2  0
  4  3  1  0
  4  1  2  0
  5 10  1  0
  6  9  1  0
  6  5  1  0
  7  9  1  0
  8  7  1  0
  8  9  1  0
 11 10  2  0
 12 14  1  0
 12 11  1  0
 13 24  2  0
 14 19  1  0
 15 23  1  0
 15 25  1  0
 16 22  1  0
 16 18  1  0
 17 23  1  0
 18 17  1  0
 19 18  2  0
 20 21  1  0
 20 14  2  0
 21 16  2  0
 22 15  1  0
 23 13  1  0
 25 27  2  0
 26 25  1  0
 28 26  1  0
 29 38  2  0
 29 34  1  0
 30 26  1  0
 30 34  1  0
 31 30  1  0
 32 33  1  0
 32 31  1  0
 33 29  1  0
 34 35  2  0
 35 36  1  0
 37 36  2  0
 38 37  1  0
 39 13  1  0
 39 40  1  0
 39 49  1  0
 40 43  1  0
 41 45  1  0
 41 40  1  0
 42 41  2  0
 45 44  1  0
 47 45  1  0
 47 48  1  0
 47 46  1  0
 49 52  1  1
 49 50  1  0
 51 49  1  0
 53  4  1  0
 53 55  1  0
 54 53  2  0
 55 56  1  0
 57 56  1  0
 58 63  1  0
 59 60  1  0
 59 58  1  0
 61 60  1  0
 61 68  1  0
 61 62  1  0
 63 57  1  0
 63 62  1  0
 64 57  2  0
 65 66  2  0
 66 85  1  0
 67 66  1  0
 67 70  1  0
 68 65  1  0
 68 69  1  0
 69 67  2  0
 70 71  1  0
 71 72  2  0
 73 76  1  0
 73 72  1  0
 74 73  2  0
 75 74  1  0
 75 70  2  0
 76 77  1  0
 77 78  1  0
 78 79  2  0
 80 79  1  0
 80 84  1  0
 81 80  2  0
 82 77  2  0
 82 81  1  0
 83 82  1  0
 85 86  1  0
 86 89  1  0
 86 88  1  0
 87 85  2  0
 90 91  1  0
 90 65  1  0
 92 90  1  0
M  ISO  4  11 101  12 101  56 100  57 100
M  END
>  <TORSDO>  (76) 
F 21

>  <SCORE>  (76) 
-13.678

>  <name>  (76) 
76

>  <ligand_id>  (76) 
76

>  <original_smiles>  (76) 
[H]C(Oc1c([H])c([H])c2c(c1[H])C([H])([H])N(C(=O)C([H])(N([H])C(=O)C([H])(N([H])C([H])([H])[H])C([H])([H])[H])C(C([H])([H])[H])(C([H])([H])[H])C([H])([H])[H])C([H])(C(=O)N([H])C1([H])c3c([H])c([H])c([H])c([H])c3C([H])([H])C([H])([H])C1([H])[H])C2([H])[H])=C([H])c1c([H])c([H])c(C(=O)C([H])([H])C([H])([H])C(=O)N2C([H])([H])C([H])([H])C([H])([H])C([H])(n3nc(-c4c([H])c([H])c(Oc5c([H])c([H])c(F)c([H])c5F)c([H])c4[H])c(C(=O)N([H])[H])c3N([H])[H])C2([H])[H])c([H])c1C1([H])C([H])([H])C1([H])[H]

>  <smiles>  (76) 
[H]C(Oc1c([H])c([H])c2c(c1[H])C([H])([H])N(C(=O)C([H])(N([H])C(=O)C([H])(N([H])C([H])([H])[H])C([H])([H])[H])C(C([H])([H])[H])(C([H])([H])[H])C([H])([H])[H])C([H])(C(=O)N([H])C1([H])c3c([H])c([H])c([H])c([H])c3C([H])([H])C([H])([H])C1([H])[H])C2([H])[H])=C([H])c1c([H])c([H])c(C(=O)C([H])([H])C([H])([H])C(=O)N2C([H])([H])C([H])([H])C([H])([H])C([H])(n3nc(-c4c([H])c([H])c(Oc5c([H])c([H])c(F)c([H])c5F)c([H])c4[H])c(C(=O)N([H])[H])c3N([H])[H])C2([H])[H])c([H])c1C1([H])C([H])([H])C1([H])[H]

$$$$
77:0:0
     RDKit          3D

 92101  0  0  1  0  0  0  0  0999 V2000
  -28.9960  -24.1010   19.5280 C   0  0  0  0  0  3  0  0  0  0  0  0
  -28.5830  -25.2290   20.3340 C   0  0  0  0  0  0  0  0  0  0  0  0
  -29.0970  -22.9450   20.2910 C   0  0  0  0  0  0  0  0  0  0  0  0
  -28.3720  -24.6990   21.5830 C   0  0  0  0  0  0  0  0  0  0  0  0
  -27.9140  -25.3780   22.8370 C   0  0  0  0  0  1  0  0  0  0  0  0
  -28.8540  -22.4990   22.7610 C   0  0  0  0  0  1  0  0  0  0  0  0
  -28.7500  -23.3470   21.5790 N   0  0  0  0  0  0  0  0  0  0  0  0
  -28.5380  -26.5930   19.9760 O   0  0  0  0  0  0  0  0  0  0  0  0
  -24.5510  -31.7430   23.1240 C   0  0  0  0  0  0  0  0  0  0  0  0
  -27.3660  -27.3480   20.0230 C   0  0  0  0  0  0  0  0  0  0  0  0
  -23.4150  -30.3170   21.4570 C   0  0  0  0  0  3  0  0  0  0  0  0
  -24.9330  -28.8310   20.0350 C   0  0  0  0  0  0  0  0  0  0  0  0
  -25.9360  -30.7440   21.2900 C   0  0  0  0  0  2  0  0  0  0  0  0
  -26.0760  -29.3740   20.6380 C   0  0  0  0  0  0  0  0  0  0  0  0
  -27.2970  -28.6420   20.6240 C   0  0  0  0  0  3  0  0  0  0  0  0
  -26.1990  -26.8420   19.4140 C   0  0  0  0  0  3  0  0  0  0  0  0
  -24.9940  -27.5700   19.4200 C   0  0  0  0  0  3  0  0  0  0  0  0
  -23.6630  -29.6550   20.0750 C   0  0  0  0  0  2  0  0  0  0  0  0
  -24.6520  -30.9520   22.0150 N   0  0  0  0  0  0  0  0  0  0  0  0
  -23.4540  -31.9700   23.6530 O   0  0  0  0  0  0  0  0  0  0  0  0
  -22.7840  -29.2670   22.4020 C   0  0  0  0  0  0  0  0  0  0  0  0
  -21.4680  -29.0420   22.2580 N   0  0  0  0  0  0  0  0  0  0  0  0
  -23.4780  -28.6580   23.2200 O   0  0  0  0  0  0  0  0  0  0  0  0
  -20.9660  -29.5850   21.5700 H   0  0  0  0  0  0  0  0  0  0  0  0
  -18.1350  -27.7010   22.6950 C   0  0  0  0  0  0  0  0  0  0  0  0
  -20.6760  -28.0630   23.0070 C   0  0  0  0  0  3  0  0  0  0  0  0
  -20.8460  -26.6410   22.4210 C   0  0  0  0  0  2  0  0  0  0  0  0
  -19.7730  -26.2830   21.3870 C   0  0  0  0  0  2  0  0  0  0  0  0
  -18.3780  -26.3650   22.0110 C   0  0  0  0  0  2  0  0  0  0  0  0
  -19.2160  -28.5040   23.1490 C   0  0  0  0  0  0  0  0  0  0  0  0
  -18.9350  -29.7530   23.7460 C   0  0  0  0  0  3  0  0  0  0  0  0
  -17.6080  -30.1990   23.8930 C   0  0  0  0  0  3  0  0  0  0  0  0
  -16.5430  -29.3920   23.4560 C   0  0  0  0  0  3  0  0  0  0  0  0
  -16.8070  -28.1450   22.8640 C   0  0  0  0  0  3  0  0  0  0  0  0
  -25.8030  -32.4150   23.7670 C   0  0  0  0  0  3  0  0  0  0  0  0
  -25.4400  -33.7980   24.1060 N   0  0  0  0  0  0  0  0  0  0  0  0
  -25.7370  -34.8690   23.3570 C   0  0  0  0  0  0  0  0  0  0  0  0
  -26.4130  -34.7980   22.3270 O   0  0  0  0  0  0  0  0  0  0  0  0
  -24.8380  -33.9230   24.9060 H   0  0  0  0  0  0  0  0  0  0  0  0
  -23.9400  -36.5970   23.0120 C   0  0  0  0  0  1  0  0  0  0  0  0
  -25.1960  -36.2350   23.8230 C   0  0  0  0  0  3  0  0  0  0  0  0
  -27.2930  -37.1980   24.6630 C   0  0  0  0  0  1  0  0  0  0  0  0
  -26.1870  -37.3280   23.7170 N   0  0  0  0  0  0  0  0  0  0  0  0
  -25.7470  -38.2310   23.8660 H   0  0  0  0  0  0  0  0  0  0  0  0
  -26.3310  -31.6510   25.0420 C   0  0  1  0  0  0  0  0  0  0  0  0
  -25.2360  -31.3660   26.0960 C   0  0  0  0  0  1  0  0  0  0  0  0
  -26.9650  -30.2990   24.6440 C   0  0  0  0  0  1  0  0  0  0  0  0
  -27.4460  -32.4780   25.7250 C   0  0  0  0  0  1  0  0  0  0  0  0
  -29.6280  -21.5090   19.9840 C   0  0  0  0  0  3  0  0  0  0  0  0
  -28.6160  -20.2990   19.8650 C   0  0  0  0  0  3  0  0  0  0  0  0
  -30.8770  -14.6870   19.9900 C   0  0  0  0  0  0  0  0  0  0  0  0
  -30.4710  -12.4640   18.9620 C   0  0  0  0  0  2  0  0  0  0  0  0
  -29.4860  -12.5850   17.7830 C   0  0  0  0  0  2  0  0  0  0  0  0
  -28.0370  -12.4470   18.2840 C   0  0  0  0  0  2  0  0  0  0  0  0
  -27.7470  -13.3300   19.5280 C   0  0  0  0  0  3  0  0  0  0  0  0
  -28.8620  -13.2180   20.5920 C   0  0  0  0  0  2  0  0  0  0  0  0
  -30.1250  -13.5390   19.9210 N   0  0  0  0  0  0  0  0  0  0  0  0
  -32.0610  -14.6280   19.6400 O   0  0  0  0  0  0  0  0  0  0  0  0
  -29.1780  -17.9910   21.2020 C   0  0  0  0  0  2  0  0  0  0  0  0
  -30.3330  -18.4010   19.0340 C   0  0  0  0  0  2  0  0  0  0  0  0
  -29.2710  -16.4260   20.9990 C   0  0  0  0  0  2  0  0  0  0  0  0
  -31.0690  -17.0760   19.4290 C   0  0  0  0  0  2  0  0  0  0  0  0
  -29.0860  -18.7630   19.8600 C   0  0  0  0  0  3  0  0  0  0  0  0
  -30.2830  -15.9470   20.0180 N   0  0  0  0  0  0  0  0  0  0  0  0
  -25.4130  -13.9460   20.3930 C   0  0  0  0  0  0  0  0  0  0  0  0
  -24.3560  -13.1830   20.8090 C   0  0  0  0  0  0  0  0  0  0  0  0
  -24.7960  -11.8240   20.7330 C   0  0  0  0  0  0  0  0  0  0  0  0
  -26.4280  -13.0540   20.0870 N   0  0  0  0  0  0  0  0  0  0  0  0
  -26.0680  -11.7720   20.3560 N   0  0  0  0  0  0  0  0  0  0  0  0
  -24.0590  -10.5700   20.9410 C   0  0  0  0  0  0  0  0  0  0  0  0
  -24.4780   -9.6200   21.8980 C   0  0  0  0  0  3  0  0  0  0  0  0
  -23.7440   -8.4310   22.0980 C   0  0  0  0  0  3  0  0  0  0  0  0
  -22.5760   -8.1840   21.3380 C   0  0  0  0  0  0  0  0  0  0  0  0
  -22.1770   -9.1220   20.3710 C   0  0  0  0  0  3  0  0  0  0  0  0
  -22.9120  -10.3020   20.1700 C   0  0  0  0  0  3  0  0  0  0  0  0
  -21.8160   -7.0450   21.4420 O   0  0  0  0  0  0  0  0  0  0  0  0
  -21.6870   -6.3700   22.6300 C   0  0  0  0  0  0  0  0  0  0  0  0
  -21.1760   -6.9910   23.7910 C   0  0  0  0  0  3  0  0  0  0  0  0
  -20.9940   -6.2420   24.9700 C   0  0  0  0  0  3  0  0  0  0  0  0
  -21.3180   -4.8730   24.9920 C   0  0  0  0  0  0  0  0  0  0  0  0
  -21.8230   -4.2500   23.8360 C   0  0  0  0  0  3  0  0  0  0  0  0
  -22.0040   -4.9960   22.6590 C   0  0  0  0  0  0  0  0  0  0  0  0
  -22.4710   -4.3860   21.5440 F   0  0  0  0  0  0  0  0  0  0  0  0
  -21.1400   -4.1520   26.1240 F   0  0  0  0  0  0  0  0  0  0  0  0
  -22.9820  -13.6740   21.1610 C   0  0  0  0  0  0  0  0  0  0  0  0
  -22.2990  -12.9860   22.0690 N   0  0  0  0  0  0  0  0  0  0  0  0
  -22.5220  -14.7030   20.6660 O   0  0  0  0  0  0  0  0  0  0  0  0
  -22.6850  -12.1530   22.4870 H   0  0  0  0  0  0  0  0  0  0  0  0
  -21.3830  -13.2970   22.3560 H   0  0  0  0  0  0  0  0  0  0  0  0
  -25.5880  -15.3180   20.2290 N   0  0  0  0  0  0  0  0  0  0  0  0
  -24.8410  -15.9790   20.4030 H   0  0  0  0  0  0  0  0  0  0  0  0
  -26.4230  -15.7590   19.8640 H   0  0  0  0  0  0  0  0  0  0  0  0
  1  3  2  0
  1  2  1  0
  2  4  2  0
  3  7  1  0
  4  5  1  0
  7  4  1  0
  7  6  1  0
  8 10  1  0
  8  2  1  0
  9 20  2  0
 10 15  1  0
 11 19  1  0
 11 21  1  0
 12 18  1  0
 12 14  1  0
 13 19  1  0
 14 13  1  0
 15 14  2  0
 16 17  1  0
 16 10  2  0
 17 12  2  0
 18 11  1  0
 19  9  1  0
 21 23  2  0
 22 21  1  0
 24 22  1  0
 25 34  2  0
 25 30  1  0
 26 22  1  0
 26 30  1  0
 27 26  1  0
 28 29  1  0
 28 27  1  0
 29 25  1  0
 30 31  2  0
 31 32  1  0
 33 32  2  0
 34 33  1  0
 35  9  1  0
 35 36  1  0
 35 45  1  0
 36 39  1  0
 37 41  1  0
 37 36  1  0
 38 37  2  0
 41 40  1  0
 43 41  1  0
 43 44  1  0
 43 42  1  0
 45 48  1  1
 45 46  1  0
 47 45  1  0
 49  3  1  0
 50 49  2  0
 51 64  1  0
 52 57  1  0
 53 54  1  0
 53 52  1  0
 55 54  1  0
 55 68  1  0
 55 56  1  0
 57 51  1  0
 57 56  1  0
 58 51  2  0
 60 62  1  0
 60 63  1  0
 61 59  1  0
 62 64  1  0
 63 50  1  0
 63 59  1  0
 64 61  1  0
 65 66  2  0
 66 85  1  0
 67 66  1  0
 67 70  1  0
 68 69  1  0
 68 65  1  0
 69 67  2  0
 70 71  1  0
 71 72  2  0
 73 76  1  0
 73 72  1  0
 74 73  2  0
 75 74  1  0
 75 70  2  0
 76 77  1  0
 77 82  2  0
 77 78  1  0
 78 79  2  0
 79 80  1  0
 80 84  1  0
 81 80  2  0
 82 81  1  0
 83 82  1  0
 85 86  1  0
 86 89  1  0
 86 88  1  0
 87 85  2  0
 90 65  1  0
 90 91  1  0
 92 90  1  0
M  ISO  4   2 101   8 101  51 100  64 100
M  END
>  <TORSDO>  (77) 
F 18

>  <SCORE>  (77) 
-14.003

>  <name>  (77) 
77

>  <ligand_id>  (77) 
77

>  <original_smiles>  (77) 
[H]c1c([H])c([H])c2c(c1[H])C([H])([H])C([H])([H])C([H])([H])C2([H])N([H])C(=O)C1([H])N(C(=O)C([H])(N([H])C(=O)C([H])(N([H])C([H])([H])[H])C([H])([H])[H])C(C([H])([H])[H])(C([H])([H])[H])C([H])([H])[H])C([H])([H])c2c([H])c(Oc3c([H])c(C([H])([H])C([H])([H])C4([H])C([H])([H])C([H])([H])N(C(=O)N5C([H])([H])C([H])([H])C([H])([H])C([H])(n6nc(-c7c([H])c([H])c(Oc8c([H])c([H])c(F)c([H])c8F)c([H])c7[H])c(C(=O)N([H])[H])c6N([H])[H])C5([H])[H])C([H])([H])C4([H])[H])n(C([H])([H])[H])c3C([H])([H])[H])c([H])c([H])c2C1([H])[H]

>  <smiles>  (77) 
[H]c1c([H])c([H])c2c(c1[H])C([H])([H])C([H])([H])C([H])([H])C2([H])N([H])C(=O)C1([H])N(C(=O)C([H])(N([H])C(=O)C([H])(N([H])C([H])([H])[H])C([H])([H])[H])C(C([H])([H])[H])(C([H])([H])[H])C([H])([H])[H])C([H])([H])c2c([H])c(Oc3c([H])c(C([H])([H])C([H])([H])C4([H])C([H])([H])C([H])([H])N(C(=O)N5C([H])([H])C([H])([H])C([H])([H])C([H])(n6nc(-c7c([H])c([H])c(Oc8c([H])c([H])c(F)c([H])c8F)c([H])c7[H])c(C(=O)N([H])[H])c6N([H])[H])C5([H])[H])C([H])([H])C4([H])[H])n(C([H])([H])[H])c3C([H])([H])[H])c([H])c([H])c2C1([H])[H]

$$$$
78:0:0
     RDKit          3D

 92101  0  0  1  0  0  0  0  0999 V2000
  -28.1360  -22.2790   21.0240 C   0  0  0  0  0  3  0  0  0  0  0  0
  -29.0170  -23.9720   19.0510 C   0  0  0  0  0  3  0  0  0  0  0  0
  -28.8620  -21.5570   19.9980 C   0  0  0  0  0  0  0  0  0  0  0  0
  -27.8820  -23.7360   21.0700 C   0  0  0  0  0  0  0  0  0  0  0  0
  -29.2810  -22.5310   19.0120 C   0  0  0  0  0  0  0  0  0  0  0  0
  -28.2960  -24.7010   20.0670 C   0  0  0  0  0  0  0  0  0  0  0  0
  -27.1520  -24.2860   22.2790 C   0  0  0  0  0  1  0  0  0  0  0  0
  -30.5650  -15.1610   20.1560 C   0  0  0  0  0  0  0  0  0  0  0  0
  -30.3570  -12.7870   19.2510 C   0  0  0  0  0  2  0  0  0  0  0  0
  -29.4140  -12.6560   18.0370 C   0  0  0  0  0  2  0  0  0  0  0  0
  -27.9730  -12.4150   18.5120 C   0  0  0  0  0  2  0  0  0  0  0  0
  -27.5660  -13.3690   19.6660 C   0  0  0  0  0  3  0  0  0  0  0  0
  -28.6460  -13.4980   20.7620 C   0  0  0  0  0  2  0  0  0  0  0  0
  -29.8740  -13.9390   20.0880 N   0  0  0  0  0  0  0  0  0  0  0  0
  -31.7770  -15.0480   19.9330 O   0  0  0  0  0  0  0  0  0  0  0  0
  -30.5790  -19.2620   20.0790 C   0  0  0  0  0  2  0  0  0  0  0  0
  -28.3620  -18.7290   20.6560 C   0  0  0  0  0  2  0  0  0  0  0  0
  -30.8730  -17.7030   19.7030 C   0  0  0  0  0  2  0  0  0  0  0  0
  -28.6290  -17.1150   20.3670 C   0  0  0  0  0  2  0  0  0  0  0  0
  -29.1410  -19.8810   19.8570 C   0  0  0  0  0  3  0  0  0  0  0  0
  -30.0160  -16.5220   20.1630 N   0  0  0  0  0  0  0  0  0  0  0  0
  -25.2130  -13.9130   20.4860 C   0  0  0  0  0  0  0  0  0  0  0  0
  -24.1620  -13.1270   20.8680 C   0  0  0  0  0  0  0  0  0  0  0  0
  -24.6330  -11.7790   20.8040 C   0  0  0  0  0  0  0  0  0  0  0  0
  -26.2530  -13.0450   20.2060 N   0  0  0  0  0  0  0  0  0  0  0  0
  -25.9180  -11.7540   20.4660 N   0  0  0  0  0  0  0  0  0  0  0  0
  -23.9140  -10.5100   20.9890 C   0  0  0  0  0  0  0  0  0  0  0  0
  -24.3460   -9.5440   21.9250 C   0  0  0  0  0  3  0  0  0  0  0  0
  -23.6250   -8.3440   22.0990 C   0  0  0  0  0  3  0  0  0  0  0  0
  -22.4570   -8.0990   21.3370 C   0  0  0  0  0  0  0  0  0  0  0  0
  -22.0460   -9.0530   20.3910 C   0  0  0  0  0  3  0  0  0  0  0  0
  -22.7670  -10.2450   20.2150 C   0  0  0  0  0  3  0  0  0  0  0  0
  -21.7080   -6.9510   21.4220 O   0  0  0  0  0  0  0  0  0  0  0  0
  -21.6230   -6.2290   22.5850 C   0  0  0  0  0  0  0  0  0  0  0  0
  -21.1260   -6.7960   23.7790 C   0  0  0  0  0  3  0  0  0  0  0  0
  -20.9910   -6.0000   24.9330 C   0  0  0  0  0  3  0  0  0  0  0  0
  -21.3440   -4.6380   24.8960 C   0  0  0  0  0  0  0  0  0  0  0  0
  -21.8340   -4.0700   23.7070 C   0  0  0  0  0  3  0  0  0  0  0  0
  -21.9710   -4.8640   22.5550 C   0  0  0  0  0  0  0  0  0  0  0  0
  -22.4240   -4.3060   21.4050 F   0  0  0  0  0  0  0  0  0  0  0  0
  -21.2070   -3.8700   26.0030 F   0  0  0  0  0  0  0  0  0  0  0  0
  -22.7700  -13.5940   21.1730 C   0  0  0  0  0  0  0  0  0  0  0  0
  -22.0640  -12.8850   22.0460 N   0  0  0  0  0  0  0  0  0  0  0  0
  -22.3200  -14.6240   20.6740 O   0  0  0  0  0  0  0  0  0  0  0  0
  -22.4450  -12.0520   22.4710 H   0  0  0  0  0  0  0  0  0  0  0  0
  -21.1320  -13.1800   22.2950 H   0  0  0  0  0  0  0  0  0  0  0  0
  -25.3670  -15.2860   20.3220 N   0  0  0  0  0  0  0  0  0  0  0  0
  -24.5990  -15.9360   20.4520 H   0  0  0  0  0  0  0  0  0  0  0  0
  -26.2040  -15.7310   19.9670 H   0  0  0  0  0  0  0  0  0  0  0  0
  -30.0010  -22.0810   17.9430 O   0  0  0  0  0  0  0  0  0  0  0  0
  -30.2710  -21.1750   18.0310 H   0  0  0  0  0  0  0  0  0  0  0  0
  -28.2580  -26.1970   20.1260 O   0  0  0  0  0  0  0  0  0  0  0  0
  -24.6520  -31.9180   23.2140 C   0  0  0  0  0  0  0  0  0  0  0  0
  -27.1650  -27.1590   20.1310 C   0  0  0  0  0  0  0  0  0  0  0  0
  -23.4230  -30.5360   21.5810 C   0  0  0  0  0  3  0  0  0  0  0  0
  -24.8440  -28.9430   20.1320 C   0  0  0  0  0  0  0  0  0  0  0  0
  -25.9760  -30.7780   21.3860 C   0  0  0  0  0  2  0  0  0  0  0  0
  -26.0330  -29.3780   20.7330 C   0  0  0  0  0  0  0  0  0  0  0  0
  -27.1890  -28.5010   20.7130 C   0  0  0  0  0  3  0  0  0  0  0  0
  -25.9500  -26.8360   19.4940 C   0  0  0  0  0  3  0  0  0  0  0  0
  -24.8170  -27.6890   19.4990 C   0  0  0  0  0  3  0  0  0  0  0  0
  -23.6260  -29.8580   20.1970 C   0  0  0  0  0  2  0  0  0  0  0  0
  -24.7050  -31.1020   22.1160 N   0  0  0  0  0  0  0  0  0  0  0  0
  -23.5730  -32.2060   23.7590 O   0  0  0  0  0  0  0  0  0  0  0  0
  -22.7490  -29.5330   22.5500 C   0  0  0  0  0  0  0  0  0  0  0  0
  -21.4190  -29.3600   22.4300 N   0  0  0  0  0  0  0  0  0  0  0  0
  -23.4240  -28.9120   23.3730 O   0  0  0  0  0  0  0  0  0  0  0  0
  -20.9270  -29.9150   21.7430 H   0  0  0  0  0  0  0  0  0  0  0  0
  -18.0460  -28.1420   22.9480 C   0  0  0  0  0  0  0  0  0  0  0  0
  -20.6060  -28.4200   23.2070 C   0  0  0  0  0  3  0  0  0  0  0  0
  -20.7120  -26.9880   22.6340 C   0  0  0  0  0  2  0  0  0  0  0  0
  -19.6100  -26.6580   21.6220 C   0  0  0  0  0  2  0  0  0  0  0  0
  -18.2290  -26.7940   22.2710 C   0  0  0  0  0  2  0  0  0  0  0  0
  -19.1620  -28.9120   23.3730 C   0  0  0  0  0  0  0  0  0  0  0  0
  -18.9350  -30.1720   23.9690 C   0  0  0  0  0  3  0  0  0  0  0  0
  -17.6280  -30.6630   24.1420 C   0  0  0  0  0  3  0  0  0  0  0  0
  -16.5280  -29.8910   23.7310 C   0  0  0  0  0  3  0  0  0  0  0  0
  -16.7370  -28.6320   23.1400 C   0  0  0  0  0  3  0  0  0  0  0  0
  -25.9390  -32.5470   23.8300 C   0  0  0  0  0  3  0  0  0  0  0  0
  -25.6340  -33.9400   24.1920 N   0  0  0  0  0  0  0  0  0  0  0  0
  -25.9230  -35.0090   23.4380 C   0  0  0  0  0  0  0  0  0  0  0  0
  -26.5400  -34.9250   22.3730 O   0  0  0  0  0  0  0  0  0  0  0  0
  -25.0830  -34.0780   25.0270 H   0  0  0  0  0  0  0  0  0  0  0  0
  -24.1590  -36.7910   23.2130 C   0  0  0  0  0  1  0  0  0  0  0  0
  -25.4510  -36.3880   23.9410 C   0  0  0  0  0  3  0  0  0  0  0  0
  -27.6200  -37.2950   24.6540 C   0  0  0  0  0  1  0  0  0  0  0  0
  -26.4630  -37.4540   23.7770 N   0  0  0  0  0  0  0  0  0  0  0  0
  -26.0570  -38.3700   23.9530 H   0  0  0  0  0  0  0  0  0  0  0  0
  -26.4710  -31.7580   25.0900 C   0  0  1  0  0  0  0  0  0  0  0  0
  -25.3930  -31.5070   26.1700 C   0  0  0  0  0  1  0  0  0  0  0  0
  -27.0450  -30.3840   24.6760 C   0  0  0  0  0  1  0  0  0  0  0  0
  -27.6330  -32.5390   25.7480 C   0  0  0  0  0  1  0  0  0  0  0  0
  1  4  1  0
  2  6  1  0
  3  1  2  0
  4  7  1  0
  5  2  2  0
  5  3  1  0
  6 52  1  0
  6  4  2  0
  8 21  1  0
  9 14  1  0
 10 11  1  0
 10  9  1  0
 12 11  1  0
 12 25  1  0
 12 13  1  0
 14  8  1  0
 14 13  1  0
 15  8  2  0
 18 16  1  0
 18 21  1  0
 19 17  1  0
 20  3  1  0
 20 16  1  0
 20 17  1  0
 21 19  1  0
 22 23  2  0
 23 42  1  0
 24 23  1  0
 24 27  1  0
 25 26  1  0
 25 22  1  0
 26 24  2  0
 27 28  1  0
 28 29  2  0
 30 33  1  0
 30 29  1  0
 31 30  2  0
 32 31  1  0
 32 27  2  0
 33 34  1  0
 34 35  1  0
 35 36  2  0
 37 36  1  0
 37 41  1  0
 38 37  2  0
 39 34  2  0
 39 38  1  0
 40 39  1  0
 42 43  1  0
 43 46  1  0
 43 45  1  0
 44 42  2  0
 47 48  1  0
 47 22  1  0
 49 47  1  0
 50 51  1  0
 50  5  1  0
 52 54  1  0
 53 64  2  0
 54 59  1  0
 55 63  1  0
 55 65  1  0
 56 62  1  0
 56 58  1  0
 57 63  1  0
 58 57  1  0
 59 58  2  0
 60 61  1  0
 60 54  2  0
 61 56  2  0
 62 55  1  0
 63 53  1  0
 65 67  2  0
 66 65  1  0
 68 66  1  0
 69 78  2  0
 69 74  1  0
 70 66  1  0
 70 74  1  0
 71 70  1  0
 72 73  1  0
 72 71  1  0
 73 69  1  0
 74 75  2  0
 75 76  1  0
 77 76  2  0
 78 77  1  0
 79 53  1  0
 79 80  1  0
 79 89  1  0
 80 83  1  0
 81 85  1  0
 81 80  1  0
 82 81  2  0
 85 84  1  0
 87 85  1  0
 87 88  1  0
 87 86  1  0
 89 92  1  1
 89 90  1  0
 91 89  1  0
M  ISO  4   6 101   8 100  21 100  52 101
M  END
>  <TORSDO>  (78) 
F 17

>  <SCORE>  (78) 
-15.672

>  <name>  (78) 
78

>  <ligand_id>  (78) 
78

>  <original_smiles>  (78) 
[H]Oc1c([H])c(Oc2c([H])c([H])c3c(c2[H])C([H])([H])N(C(=O)C([H])(N([H])C(=O)C([H])(N([H])C([H])([H])[H])C([H])([H])[H])C(C([H])([H])[H])(C([H])([H])[H])C([H])([H])[H])C([H])(C(=O)N([H])C2([H])c4c([H])c([H])c([H])c([H])c4C([H])([H])C([H])([H])C2([H])[H])C3([H])[H])c(C([H])([H])[H])c([H])c1C1([H])C([H])([H])C([H])([H])N(C(=O)N2C([H])([H])C([H])([H])C([H])([H])C([H])(n3nc(-c4c([H])c([H])c(Oc5c([H])c([H])c(F)c([H])c5F)c([H])c4[H])c(C(=O)N([H])[H])c3N([H])[H])C2([H])[H])C([H])([H])C1([H])[H]

>  <smiles>  (78) 
[H]Oc1c([H])c(Oc2c([H])c([H])c3c(c2[H])C([H])([H])N(C(=O)C([H])(N([H])C(=O)C([H])(N([H])C([H])([H])[H])C([H])([H])[H])C(C([H])([H])[H])(C([H])([H])[H])C([H])([H])[H])C([H])(C(=O)N([H])C2([H])c4c([H])c([H])c([H])c([H])c4C([H])([H])C([H])([H])C2([H])[H])C3([H])[H])c(C([H])([H])[H])c([H])c1C1([H])C([H])([H])C([H])([H])N(C(=O)N2C([H])([H])C([H])([H])C([H])([H])C([H])(n3nc(-c4c([H])c([H])c(Oc5c([H])c([H])c(F)c([H])c5F)c([H])c4[H])c(C(=O)N([H])[H])c3N([H])[H])C2([H])[H])C([H])([H])C1([H])[H]

$$$$
79:0:0
     RDKit          3D

 92101  0  0  1  0  0  0  0  0999 V2000
  -28.7970  -22.3330   19.0340 C   0  0  0  0  0  3  0  0  0  0  0  0
  -28.7860  -23.9170   21.2850 C   0  0  0  0  0  3  0  0  0  0  0  0
  -29.0730  -21.5590   20.2230 C   0  0  0  0  0  0  0  0  0  0  0  0
  -28.5490  -23.7880   18.9680 C   0  0  0  0  0  0  0  0  0  0  0  0
  -29.0160  -22.4570   21.3610 C   0  0  0  0  0  0  0  0  0  0  0  0
  -28.5420  -24.6990   20.0960 C   0  0  0  0  0  0  0  0  0  0  0  0
  -28.3200  -24.4020   17.6010 C   0  0  0  0  0  1  0  0  0  0  0  0
  -30.8760  -15.1920   19.9410 C   0  0  0  0  0  0  0  0  0  0  0  0
  -30.6740  -12.8300   18.9950 C   0  0  0  0  0  2  0  0  0  0  0  0
  -29.7050  -12.7180   17.8000 C   0  0  0  0  0  2  0  0  0  0  0  0
  -28.2720  -12.4680   18.3030 C   0  0  0  0  0  2  0  0  0  0  0  0
  -27.8880  -13.3980   19.4840 C   0  0  0  0  0  3  0  0  0  0  0  0
  -28.9910  -13.5030   20.5570 C   0  0  0  0  0  2  0  0  0  0  0  0
  -30.2000  -13.9620   19.8620 N   0  0  0  0  0  0  0  0  0  0  0  0
  -32.0870  -15.0990   19.6980 O   0  0  0  0  0  0  0  0  0  0  0  0
  -28.5040  -18.6710   20.2000 C   0  0  0  0  0  2  0  0  0  0  0  0
  -30.6580  -19.2720   19.4680 C   0  0  0  0  0  2  0  0  0  0  0  0
  -28.9880  -17.1110   20.4900 C   0  0  0  0  0  2  0  0  0  0  0  0
  -31.1980  -17.7670   19.8070 C   0  0  0  0  0  2  0  0  0  0  0  0
  -29.5090  -19.9130   20.3420 C   0  0  0  0  0  3  0  0  0  0  0  0
  -30.3000  -16.5400   19.9710 N   0  0  0  0  0  0  0  0  0  0  0  0
  -25.5490  -13.9210   20.3660 C   0  0  0  0  0  0  0  0  0  0  0  0
  -24.5120  -13.1250   20.7610 C   0  0  0  0  0  0  0  0  0  0  0  0
  -24.9870  -11.7800   20.6700 C   0  0  0  0  0  0  0  0  0  0  0  0
  -26.5880  -13.0630   20.0510 N   0  0  0  0  0  0  0  0  0  0  0  0
  -26.2640  -11.7670   20.3010 N   0  0  0  0  0  0  0  0  0  0  0  0
  -24.2790  -10.5060   20.8560 C   0  0  0  0  0  0  0  0  0  0  0  0
  -24.6880   -9.5670   21.8260 C   0  0  0  0  0  3  0  0  0  0  0  0
  -23.9760   -8.3600   21.9990 C   0  0  0  0  0  3  0  0  0  0  0  0
  -22.8420   -8.0840   21.1990 C   0  0  0  0  0  0  0  0  0  0  0  0
  -22.4530   -9.0130   20.2180 C   0  0  0  0  0  3  0  0  0  0  0  0
  -23.1670  -10.2100   20.0440 C   0  0  0  0  0  3  0  0  0  0  0  0
  -22.1050   -6.9280   21.2780 O   0  0  0  0  0  0  0  0  0  0  0  0
  -21.8730   -6.3010   22.4760 C   0  0  0  0  0  0  0  0  0  0  0  0
  -21.2120   -6.9520   23.5410 C   0  0  0  0  0  3  0  0  0  0  0  0
  -20.9320   -6.2490   24.7290 C   0  0  0  0  0  3  0  0  0  0  0  0
  -21.3050   -4.8980   24.8540 C   0  0  0  0  0  0  0  0  0  0  0  0
  -21.9590   -4.2470   23.7930 C   0  0  0  0  0  3  0  0  0  0  0  0
  -22.2400   -4.9470   22.6070 C   0  0  0  0  0  0  0  0  0  0  0  0
  -22.8520   -4.3100   21.5800 F   0  0  0  0  0  0  0  0  0  0  0  0
  -21.0310   -4.2210   25.9940 F   0  0  0  0  0  0  0  0  0  0  0  0
  -23.1230  -13.5830   21.1010 C   0  0  0  0  0  0  0  0  0  0  0  0
  -22.4440  -12.8710   21.9940 N   0  0  0  0  0  0  0  0  0  0  0  0
  -22.6520  -14.6070   20.6120 O   0  0  0  0  0  0  0  0  0  0  0  0
  -22.8390  -12.0450   22.4170 H   0  0  0  0  0  0  0  0  0  0  0  0
  -21.5140  -13.1620   22.2610 H   0  0  0  0  0  0  0  0  0  0  0  0
  -25.6850  -15.2970   20.2170 N   0  0  0  0  0  0  0  0  0  0  0  0
  -24.9140  -15.9340   20.3850 H   0  0  0  0  0  0  0  0  0  0  0  0
  -26.5030  -15.7550   19.8400 H   0  0  0  0  0  0  0  0  0  0  0  0
  -29.4260  -22.6100   23.7380 C   0  0  0  0  0  1  0  0  0  0  0  0
  -29.2340  -21.8250   22.5700 O   0  0  0  0  0  0  0  0  0  0  0  0
  -28.5640  -26.1950   20.0100 O   0  0  0  0  0  0  0  0  0  0  0  0
  -24.9100  -31.7540   23.3550 C   0  0  0  0  0  0  0  0  0  0  0  0
  -27.4980  -27.1840   20.0510 C   0  0  0  0  0  0  0  0  0  0  0  0
  -23.7420  -30.5040   21.5810 C   0  0  0  0  0  3  0  0  0  0  0  0
  -25.2060  -29.0020   20.0840 C   0  0  0  0  0  0  0  0  0  0  0  0
  -26.3050  -30.7220   21.5120 C   0  0  0  0  0  2  0  0  0  0  0  0
  -26.3750  -29.3730   20.7600 C   0  0  0  0  0  0  0  0  0  0  0  0
  -27.5190  -28.4820   20.7250 C   0  0  0  0  0  3  0  0  0  0  0  0
  -26.3070  -26.9290   19.3430 C   0  0  0  0  0  3  0  0  0  0  0  0
  -25.1890  -27.7970   19.3610 C   0  0  0  0  0  3  0  0  0  0  0  0
  -23.9960  -29.9240   20.1630 C   0  0  0  0  0  2  0  0  0  0  0  0
  -25.0060  -31.0140   22.2050 N   0  0  0  0  0  0  0  0  0  0  0  0
  -23.8130  -32.0160   23.8700 O   0  0  0  0  0  0  0  0  0  0  0  0
  -23.0180  -29.4410   22.4480 C   0  0  0  0  0  0  0  0  0  0  0  0
  -21.6890  -29.3140   22.2830 N   0  0  0  0  0  0  0  0  0  0  0  0
  -23.6570  -28.7360   23.2320 O   0  0  0  0  0  0  0  0  0  0  0  0
  -21.2300  -29.9360   21.6320 H   0  0  0  0  0  0  0  0  0  0  0  0
  -18.2640  -28.1940   22.6770 C   0  0  0  0  0  0  0  0  0  0  0  0
  -20.8310  -28.3360   22.9600 C   0  0  0  0  0  3  0  0  0  0  0  0
  -20.8800  -26.9660   22.2470 C   0  0  0  0  0  2  0  0  0  0  0  0
  -19.7680  -26.7860   21.2080 C   0  0  0  0  0  2  0  0  0  0  0  0
  -18.3920  -26.9140   21.8670 C   0  0  0  0  0  2  0  0  0  0  0  0
  -19.4090  -28.8690   23.1770 C   0  0  0  0  0  0  0  0  0  0  0  0
  -19.2350  -30.0710   23.8970 C   0  0  0  0  0  3  0  0  0  0  0  0
  -17.9470  -30.5980   24.1180 C   0  0  0  0  0  3  0  0  0  0  0  0
  -16.8180  -29.9170   23.6340 C   0  0  0  0  0  3  0  0  0  0  0  0
  -16.9760  -28.7160   22.9190 C   0  0  0  0  0  3  0  0  0  0  0  0
  -26.1750  -32.3230   24.0660 C   0  0  0  0  0  3  0  0  0  0  0  0
  -25.8880  -33.7150   24.4490 N   0  0  0  0  0  0  0  0  0  0  0  0
  -26.2300  -34.7940   23.7310 C   0  0  0  0  0  0  0  0  0  0  0  0
  -26.8860  -34.7210   22.6900 O   0  0  0  0  0  0  0  0  0  0  0  0
  -25.3030  -33.8460   25.2610 H   0  0  0  0  0  0  0  0  0  0  0  0
  -24.5090  -36.6180   23.5010 C   0  0  0  0  0  1  0  0  0  0  0  0
  -25.7740  -36.1730   24.2510 C   0  0  0  0  0  3  0  0  0  0  0  0
  -27.9390  -37.0230   25.0420 C   0  0  0  0  0  1  0  0  0  0  0  0
  -26.8140  -37.2200   24.1330 N   0  0  0  0  0  0  0  0  0  0  0  0
  -26.4200  -38.1400   24.3120 H   0  0  0  0  0  0  0  0  0  0  0  0
  -26.6040  -31.4850   25.3330 C   0  0  1  0  0  0  0  0  0  0  0  0
  -25.4570  -31.2550   26.3450 C   0  0  0  0  0  1  0  0  0  0  0  0
  -27.1480  -30.0990   24.9200 C   0  0  0  0  0  1  0  0  0  0  0  0
  -27.7570  -32.2060   26.0730 C   0  0  0  0  0  1  0  0  0  0  0  0
  1  3  1  0
  2  5  1  0
  3  5  2  0
  4  1  2  0
  4  6  1  0
  5 51  1  0
  6  2  2  0
  7  4  1  0
  8 21  1  0
  9 14  1  0
 10 11  1  0
 10  9  1  0
 12 11  1  0
 12 25  1  0
 12 13  1  0
 14  8  1  0
 14 13  1  0
 15  8  2  0
 16 20  1  0
 16 18  1  0
 17 19  1  0
 17 20  1  0
 19 21  1  0
 20  3  1  0
 21 18  1  0
 22 23  2  0
 23 42  1  0
 24 23  1  0
 24 27  1  0
 25 26  1  0
 25 22  1  0
 26 24  2  0
 27 28  1  0
 28 29  2  0
 30 33  1  0
 30 29  1  0
 31 30  2  0
 32 31  1  0
 32 27  2  0
 33 34  1  0
 34 39  2  0
 34 35  1  0
 35 36  2  0
 36 37  1  0
 37 41  1  0
 38 37  2  0
 39 38  1  0
 40 39  1  0
 42 43  1  0
 43 46  1  0
 43 45  1  0
 44 42  2  0
 47 22  1  0
 47 48  1  0
 49 47  1  0
 51 50  1  0
 52 54  1  0
 52  6  1  0
 53 64  2  0
 54 59  1  0
 55 63  1  0
 55 65  1  0
 56 62  1  0
 56 58  1  0
 57 63  1  0
 58 57  1  0
 59 58  2  0
 60 61  1  0
 60 54  2  0
 61 56  2  0
 62 55  1  0
 63 53  1  0
 65 67  2  0
 66 65  1  0
 68 66  1  0
 69 78  2  0
 69 74  1  0
 70 66  1  0
 70 74  1  0
 71 70  1  0
 72 73  1  0
 72 71  1  0
 73 69  1  0
 74 75  2  0
 75 76  1  0
 77 76  2  0
 78 77  1  0
 79 53  1  0
 79 80  1  0
 79 89  1  0
 80 83  1  0
 81 85  1  0
 81 80  1  0
 82 81  2  0
 85 84  1  0
 87 85  1  0
 87 88  1  0
 87 86  1  0
 89 92  1  1
 89 90  1  0
 91 89  1  0
M  ISO  4   6 101   8 100  21 100  52 101
M  END
>  <TORSDO>  (79) 
F 17

>  <SCORE>  (79) 
-14.695

>  <name>  (79) 
79

>  <ligand_id>  (79) 
79

>  <original_smiles>  (79) 
[H]c1c([H])c([H])c2c(c1[H])C([H])([H])C([H])([H])C([H])([H])C2([H])N([H])C(=O)C1([H])N(C(=O)C([H])(N([H])C(=O)C([H])(N([H])C([H])([H])[H])C([H])([H])[H])C(C([H])([H])[H])(C([H])([H])[H])C([H])([H])[H])C([H])([H])c2c([H])c(Oc3c([H])c(OC([H])([H])[H])c(C4([H])C([H])([H])C([H])([H])N(C(=O)N5C([H])([H])C([H])([H])C([H])([H])C([H])(n6nc(-c7c([H])c([H])c(Oc8c([H])c([H])c(F)c([H])c8F)c([H])c7[H])c(C(=O)N([H])[H])c6N([H])[H])C5([H])[H])C([H])([H])C4([H])[H])c([H])c3C([H])([H])[H])c([H])c([H])c2C1([H])[H]

>  <smiles>  (79) 
[H]c1c([H])c([H])c2c(c1[H])C([H])([H])C([H])([H])C([H])([H])C2([H])N([H])C(=O)C1([H])N(C(=O)C([H])(N([H])C(=O)C([H])(N([H])C([H])([H])[H])C([H])([H])[H])C(C([H])([H])[H])(C([H])([H])[H])C([H])([H])[H])C([H])([H])c2c([H])c(Oc3c([H])c(OC([H])([H])[H])c(C4([H])C([H])([H])C([H])([H])N(C(=O)N5C([H])([H])C([H])([H])C([H])([H])C([H])(n6nc(-c7c([H])c([H])c(Oc8c([H])c([H])c(F)c([H])c8F)c([H])c7[H])c(C(=O)N([H])[H])c6N([H])[H])C5([H])[H])C([H])([H])C4([H])[H])c([H])c3C([H])([H])[H])c([H])c([H])c2C1([H])[H]

$$$$
80:0:0
     RDKit          3D

 92100  0  0  1  0  0  0  0  0999 V2000
  -28.7580  -18.4380   21.1190 C   0  0  0  0  0  3  0  0  0  0  0  0
  -29.3530  -17.2320   20.6140 C   0  0  0  0  0  0  0  0  0  0  0  0
  -29.9630  -17.1250   19.3120 C   0  0  0  0  0  0  0  0  0  0  0  0
  -29.9770  -18.6540   18.7530 C   0  0  0  0  0  0  0  0  0  0  0  0
  -29.3870  -20.0580   19.3250 C   0  0  0  0  0  0  0  0  0  0  0  0
  -28.7380  -19.7330   20.5320 C   0  0  0  0  0  0  0  0  0  0  0  0
  -30.7070  -18.8160   17.4290 C   0  0  0  0  0  1  0  0  0  0  0  0
  -30.6290  -15.5200   18.8450 C   0  0  0  0  0  0  0  0  0  0  0  0
  -30.6460  -12.9420   18.0770 C   0  0  0  0  0  2  0  0  0  0  0  0
  -29.5450  -12.4960   17.0670 C   0  0  0  0  0  2  0  0  0  0  0  0
  -28.2350  -12.1250   17.7790 C   0  0  0  0  0  2  0  0  0  0  0  0
  -27.9280  -13.1210   18.9160 C   0  0  0  0  0  3  0  0  0  0  0  0
  -29.1510  -13.4520   19.7960 C   0  0  0  0  0  2  0  0  0  0  0  0
  -30.1730  -14.1190   18.9500 N   0  0  0  0  0  0  0  0  0  0  0  0
  -31.7420  -15.4770   18.2850 O   0  0  0  0  0  0  0  0  0  0  0  0
  -25.9090  -13.6200   20.3730 C   0  0  0  0  0  0  0  0  0  0  0  0
  -24.8940  -12.8450   20.8620 C   0  0  0  0  0  0  0  0  0  0  0  0
  -25.1890  -11.5060   20.4590 C   0  0  0  0  0  0  0  0  0  0  0  0
  -26.7520  -12.7600   19.6980 N   0  0  0  0  0  0  0  0  0  0  0  0
  -26.3500  -11.4650   19.8100 N   0  0  0  0  0  0  0  0  0  0  0  0
  -24.3960  -10.2750   20.6040 C   0  0  0  0  0  0  0  0  0  0  0  0
  -24.8440   -9.1940   21.3940 C   0  0  0  0  0  3  0  0  0  0  0  0
  -24.0510   -8.0340   21.5420 C   0  0  0  0  0  3  0  0  0  0  0  0
  -22.7930   -7.9460   20.8980 C   0  0  0  0  0  0  0  0  0  0  0  0
  -22.3610   -9.0170   20.0970 C   0  0  0  0  0  3  0  0  0  0  0  0
  -23.1520  -10.1670   19.9470 C   0  0  0  0  0  3  0  0  0  0  0  0
  -21.9720   -6.8460   20.9560 O   0  0  0  0  0  0  0  0  0  0  0  0
  -21.8330   -6.1130   22.1080 C   0  0  0  0  0  0  0  0  0  0  0  0
  -21.4310   -6.7050   23.3250 C   0  0  0  0  0  3  0  0  0  0  0  0
  -21.2290   -5.9040   24.4660 C   0  0  0  0  0  3  0  0  0  0  0  0
  -21.4210   -4.5110   24.3930 C   0  0  0  0  0  0  0  0  0  0  0  0
  -21.8190   -3.9190   23.1800 C   0  0  0  0  0  3  0  0  0  0  0  0
  -22.0200   -4.7170   22.0400 C   0  0  0  0  0  0  0  0  0  0  0  0
  -22.3810   -4.1390   20.8690 F   0  0  0  0  0  0  0  0  0  0  0  0
  -21.2210   -3.7400   25.4860 F   0  0  0  0  0  0  0  0  0  0  0  0
  -23.6650  -13.3450   21.5630 C   0  0  0  0  0  0  0  0  0  0  0  0
  -23.1240  -12.5660   22.4920 N   0  0  0  0  0  0  0  0  0  0  0  0
  -23.2020  -14.4600   21.3190 O   0  0  0  0  0  0  0  0  0  0  0  0
  -23.5170  -11.6640   22.7160 H   0  0  0  0  0  0  0  0  0  0  0  0
  -22.3060  -12.8800   22.9980 H   0  0  0  0  0  0  0  0  0  0  0  0
  -26.1650  -14.9870   20.4110 N   0  0  0  0  0  0  0  0  0  0  0  0
  -25.4950  -15.6350   20.8140 H   0  0  0  0  0  0  0  0  0  0  0  0
  -26.8980  -15.4510   19.8910 H   0  0  0  0  0  0  0  0  0  0  0  0
  -29.4670  -16.1380   21.6350 C   0  0  0  0  0  0  0  0  0  0  0  0
  -30.4640  -15.9710   22.3430 O   0  0  0  0  0  0  0  0  0  0  0  0
  -28.6020  -13.7060   21.9050 C   0  0  0  0  0  1  0  0  0  0  0  0
  -28.2560  -15.2080   21.8280 C   0  0  0  0  0  2  0  0  0  0  0  0
  -28.1150  -20.7240   21.2260 O   0  0  0  0  0  0  0  0  0  0  0  0
  -28.1190  -21.5520   20.7600 H   0  0  0  0  0  0  0  0  0  0  0  0
  -29.4290  -21.9000   18.9490 C   0  0  0  0  0  3  0  0  0  0  0  0
  -28.4590  -23.5740   19.2700 C   0  0  0  0  0  3  0  0  0  0  0  0
  -28.5750  -25.3390   19.1250 O   0  0  0  0  0  0  0  0  0  0  0  0
  -25.2110  -31.3870   22.7320 C   0  0  0  0  0  0  0  0  0  0  0  0
  -27.5810  -26.5330   19.2600 C   0  0  0  0  0  0  0  0  0  0  0  0
  -23.9330  -30.0810   21.0880 C   0  0  0  0  0  3  0  0  0  0  0  0
  -25.2980  -28.5410   19.4860 C   0  0  0  0  0  0  0  0  0  0  0  0
  -26.4990  -30.2610   20.8110 C   0  0  0  0  0  2  0  0  0  0  0  0
  -26.5320  -28.8720   20.0590 C   0  0  0  0  0  0  0  0  0  0  0  0
  -27.6590  -27.9010   19.9080 C   0  0  0  0  0  3  0  0  0  0  0  0
  -26.3040  -26.4140   18.6580 C   0  0  0  0  0  3  0  0  0  0  0  0
  -25.2210  -27.3400   18.7610 C   0  0  0  0  0  3  0  0  0  0  0  0
  -24.0890  -29.4730   19.6630 C   0  0  0  0  0  2  0  0  0  0  0  0
  -25.2410  -30.6070   21.5960 N   0  0  0  0  0  0  0  0  0  0  0  0
  -24.1490  -31.6400   23.3280 O   0  0  0  0  0  0  0  0  0  0  0  0
  -23.2850  -29.0370   22.0390 C   0  0  0  0  0  0  0  0  0  0  0  0
  -21.9550  -28.8440   21.9600 N   0  0  0  0  0  0  0  0  0  0  0  0
  -23.9940  -28.3980   22.8210 O   0  0  0  0  0  0  0  0  0  0  0  0
  -21.4290  -29.4140   21.3120 H   0  0  0  0  0  0  0  0  0  0  0  0
  -18.6290  -27.4990   22.5550 C   0  0  0  0  0  0  0  0  0  0  0  0
  -21.1890  -27.8470   22.7220 C   0  0  0  0  0  3  0  0  0  0  0  0
  -21.3100  -26.4440   22.0780 C   0  0  0  0  0  2  0  0  0  0  0  0
  -20.1770  -26.1310   21.0960 C   0  0  0  0  0  2  0  0  0  0  0  0
  -18.8210  -26.1950   21.8030 C   0  0  0  0  0  2  0  0  0  0  0  0
  -19.7380  -28.2840   22.9730 C   0  0  0  0  0  0  0  0  0  0  0  0
  -19.4980  -29.5030   23.6450 C   0  0  0  0  0  3  0  0  0  0  0  0
  -18.1830  -29.9390   23.8980 C   0  0  0  0  0  3  0  0  0  0  0  0
  -17.0910  -29.1530   23.4920 C   0  0  0  0  0  3  0  0  0  0  0  0
  -17.3140  -27.9340   22.8280 C   0  0  0  0  0  3  0  0  0  0  0  0
  -26.5070  -32.0130   23.3310 C   0  0  0  0  0  3  0  0  0  0  0  0
  -26.1600  -33.3270   23.9070 N   0  0  0  0  0  0  0  0  0  0  0  0
  -26.3360  -34.5090   23.2990 C   0  0  0  0  0  0  0  0  0  0  0  0
  -26.8620  -34.6110   22.1880 O   0  0  0  0  0  0  0  0  0  0  0  0
  -25.6700  -33.3140   24.7900 H   0  0  0  0  0  0  0  0  0  0  0  0
  -24.4790  -36.2040   23.5020 C   0  0  0  0  0  1  0  0  0  0  0  0
  -25.8570  -35.7780   24.0360 C   0  0  0  0  0  3  0  0  0  0  0  0
  -28.0440  -36.7100   24.6600 C   0  0  0  0  0  1  0  0  0  0  0  0
  -26.7980  -36.9170   23.9280 N   0  0  0  0  0  0  0  0  0  0  0  0
  -26.3680  -37.7720   24.2710 H   0  0  0  0  0  0  0  0  0  0  0  0
  -27.1780  -31.1060   24.4370 C   0  0  1  0  0  0  0  0  0  0  0  0
  -26.2030  -30.6520   25.5500 C   0  0  0  0  0  1  0  0  0  0  0  0
  -27.7890  -29.8310   23.8140 C   0  0  0  0  0  1  0  0  0  0  0  0
  -28.3450  -31.8710   25.1060 C   0  0  0  0  0  1  0  0  0  0  0  0
  2  1  1  0
  2 44  1  0
  3  2  2  0
  4  3  1  0
  4  5  2  0
  5  6  1  0
  6  1  2  0
  6 48  1  0
  7  4  1  0
  8 14  1  0
  8  3  1  0
  9 14  1  0
 10 11  1  0
 10  9  1  0
 12 11  1  0
 12 19  1  0
 12 13  1  0
 14 13  1  0
 15  8  2  0
 16 41  1  0
 16 17  2  0
 17 36  1  0
 18 21  1  0
 18 17  1  0
 19 20  1  0
 19 16  1  0
 20 18  2  0
 21 22  1  0
 22 23  2  0
 24 27  1  0
 24 23  1  0
 25 24  2  0
 26 25  1  0
 26 21  2  0
 27 28  1  0
 28 29  1  0
 29 30  2  0
 31 30  1  0
 31 35  1  0
 32 31  2  0
 33 28  2  0
 33 32  1  0
 34 33  1  0
 36 37  1  0
 37 39  1  0
 37 40  1  0
 38 36  2  0
 41 42  1  0
 43 41  1  0
 44 47  1  0
 44 45  2  0
 47 46  1  0
 49 48  1  0
 50 51  2  0
 50  5  1  0
 52 54  1  0
 52 51  1  0
 53 64  2  0
 54 59  1  0
 55 63  1  0
 55 65  1  0
 56 62  1  0
 56 58  1  0
 57 63  1  0
 58 57  1  0
 59 58  2  0
 60 61  1  0
 60 54  2  0
 61 56  2  0
 62 55  1  0
 63 53  1  0
 65 67  2  0
 66 65  1  0
 68 66  1  0
 69 78  2  0
 69 74  1  0
 70 66  1  0
 70 74  1  0
 71 70  1  0
 72 73  1  0
 72 71  1  0
 73 69  1  0
 74 75  2  0
 75 76  1  0
 77 76  2  0
 78 77  1  0
 79 53  1  0
 79 80  1  0
 79 89  1  0
 80 83  1  0
 81 80  1  0
 81 85  1  0
 82 81  2  0
 85 84  1  0
 87 85  1  0
 87 88  1  0
 87 86  1  0
 89 92  1  1
 89 90  1  0
 91 89  1  0
M  ISO  4   3 100   8 100  51 101  52 101
M  END
>  <TORSDO>  (80) 
F 21

>  <SCORE>  (80) 
-7.869

>  <name>  (80) 
80

>  <ligand_id>  (80) 
80

>  <original_smiles>  (80) 
[H]Oc1c([H])c(C(=O)C([H])([H])C([H])([H])[H])c(C(=O)N2C([H])([H])C([H])([H])C([H])([H])C([H])(n3nc(-c4c([H])c([H])c(Oc5c([H])c([H])c(F)c([H])c5F)c([H])c4[H])c(C(=O)N([H])[H])c3N([H])[H])C2([H])[H])c(C([H])([H])[H])c1C([H])([H])C([H])([H])Oc1c([H])c([H])c2c(c1[H])C([H])([H])N(C(=O)C([H])(N([H])C(=O)C([H])(N([H])C([H])([H])[H])C([H])([H])[H])C(C([H])([H])[H])(C([H])([H])[H])C([H])([H])[H])C([H])(C(=O)N([H])C1([H])c3c([H])c([H])c([H])c([H])c3C([H])([H])C([H])([H])C1([H])[H])C2([H])[H]

>  <smiles>  (80) 
[H]Oc1c([H])c(C(=O)C([H])([H])C([H])([H])[H])c(C(=O)N2C([H])([H])C([H])([H])C([H])([H])C([H])(n3nc(-c4c([H])c([H])c(Oc5c([H])c([H])c(F)c([H])c5F)c([H])c4[H])c(C(=O)N([H])[H])c3N([H])[H])C2([H])[H])c(C([H])([H])[H])c1C([H])([H])C([H])([H])Oc1c([H])c([H])c2c(c1[H])C([H])([H])N(C(=O)C([H])(N([H])C(=O)C([H])(N([H])C([H])([H])[H])C([H])([H])[H])C(C([H])([H])[H])(C([H])([H])[H])C([H])([H])[H])C([H])(C(=O)N([H])C1([H])c3c([H])c([H])c([H])c([H])c3C([H])([H])C([H])([H])C1([H])[H])C2([H])[H]

$$$$
81:0:0
     RDKit          3D

 95102  0  0  1  0  0  0  0  0999 V2000
  -22.0870  -24.2390   21.6380 C   0  0  0  0  0  2  0  0  0  0  0  0
  -20.8880  -25.2980   21.2850 C   0  0  0  0  0  2  0  0  0  0  0  0
  -24.0030  -25.3940   20.0900 C   0  0  0  0  0  3  0  0  0  0  0  0
  -23.5410  -24.2910   21.0080 C   0  0  0  0  0  0  0  0  0  0  0  0
  -21.6770  -26.7580   19.8060 C   0  0  0  0  0  3  0  0  0  0  0  0
  -23.4380  -26.6980   19.5950 C   0  0  0  0  0  3  0  0  0  0  0  0
  -20.9120  -27.4630   18.6490 C   0  0  0  0  0  1  0  0  0  0  0  0
  -24.8050  -27.6420   19.8600 O   0  0  0  0  0  0  0  0  0  0  0  0
  -24.2310  -31.9850   23.1470 C   0  0  0  0  0  0  0  0  0  0  0  0
  -26.0700  -28.1440   19.3060 C   0  0  0  0  0  3  0  0  0  0  0  0
  -23.1730  -31.0980   21.1460 C   0  0  0  0  0  3  0  0  0  0  0  0
  -24.6520  -30.2730   19.2130 C   0  0  0  0  0  0  0  0  0  0  0  0
  -25.6970  -31.4320   21.1760 C   0  0  0  0  0  2  0  0  0  0  0  0
  -25.7160  -30.3320   20.1180 C   0  0  0  0  0  3  0  0  0  0  0  0
  -26.6160  -29.2490   20.0550 C   0  0  0  0  0  2  0  0  0  0  0  0
  -25.7700  -28.4690   18.0130 C   0  0  0  0  0  2  0  0  0  0  0  0
  -24.7400  -29.4240   18.0700 C   0  0  0  0  0  3  0  0  0  0  0  0
  -23.4400  -31.0600   19.6020 C   0  0  0  0  0  2  0  0  0  0  0  0
  -24.3820  -31.5750   21.8570 N   0  0  0  0  0  0  0  0  0  0  0  0
  -23.1120  -32.0370   23.6880 O   0  0  0  0  0  0  0  0  0  0  0  0
  -22.7940  -29.7800   21.8540 C   0  0  0  0  0  0  0  0  0  0  0  0
  -21.6260  -29.6670   22.4440 N   0  0  0  0  0  0  0  0  0  0  0  0
  -23.6250  -28.8960   22.0180 O   0  0  0  0  0  0  0  0  0  0  0  0
  -20.9810  -30.4440   22.4340 H   0  0  0  0  0  0  0  0  0  0  0  0
  -18.1480  -28.7270   22.2930 C   0  0  0  0  0  0  0  0  0  0  0  0
  -21.1000  -28.3690   22.8540 C   0  0  0  0  0  2  0  0  0  0  0  0
  -21.8020  -26.8880   21.7310 C   0  0  0  0  0  2  0  0  0  0  0  0
  -19.1920  -26.8150   19.6400 C   0  0  0  0  0 15  0  0  0  0  0  0
  -17.8710  -27.8630   20.7290 C   0  0  0  0  0  1  0  0  0  0  0  0
  -19.4640  -28.9440   23.0720 C   0  0  0  0  0  0  0  0  0  0  0  0
  -19.3970  -29.8440   24.2040 C   0  0  0  0  0  3  0  0  0  0  0  0
  -18.2300  -30.4140   24.7560 C   0  0  0  0  0  3  0  0  0  0  0  0
  -17.0010  -30.0440   24.2030 C   0  0  0  0  0  3  0  0  0  0  0  0
  -16.9830  -29.2280   23.0270 C   0  0  0  0  0  3  0  0  0  0  0  0
  -25.4510  -32.4260   23.9820 C   0  0  0  0  0  3  0  0  0  0  0  0
  -25.6610  -31.5730   25.2910 C   0  0  1  0  0  0  0  0  0  0  0  0
  -24.3750  -31.3600   26.1230 C   0  0  0  0  0  1  0  0  0  0  0  0
  -26.2410  -30.1790   24.9580 C   0  0  0  0  0  1  0  0  0  0  0  0
  -26.7030  -32.2780   26.1850 C   0  0  0  0  0  1  0  0  0  0  0  0
  -25.2130  -33.8360   24.3130 N   0  0  0  0  0  0  0  0  0  0  0  0
  -25.5970  -34.8610   23.5470 C   0  0  0  0  0  0  0  0  0  0  0  0
  -26.2840  -34.7150   22.5330 O   0  0  0  0  0  0  0  0  0  0  0  0
  -24.6130  -34.0220   25.1030 H   0  0  0  0  0  0  0  0  0  0  0  0
  -23.8880  -36.6770   23.2200 C   0  0  0  0  0  1  0  0  0  0  0  0
  -25.1580  -36.2700   23.9840 C   0  0  0  0  0  3  0  0  0  0  0  0
  -27.3490  -37.1220   24.6860 C   0  0  0  0  0  1  0  0  0  0  0  0
  -26.2080  -37.2920   23.7900 N   0  0  0  0  0  0  0  0  0  0  0  0
  -25.8300  -38.2260   23.9290 H   0  0  0  0  0  0  0  0  0  0  0  0
  -24.7270  -23.1000   21.2040 C   0  0  0  0  0  2  0  0  0  0  0  0
  -26.4620  -23.1980   21.1840 C   0  0  0  0  0  2  0  0  0  0  0  0
  -27.5650  -22.7020   19.9350 C   0  0  0  0  0  2  0  0  0  0  0  0
  -31.4010  -22.1210   21.4080 C   0  0  0  0  0  2  0  0  0  0  0  0
  -29.9630  -22.6950   21.2200 C   0  0  0  0  0  2  0  0  0  0  0  0
  -32.4140  -22.4440   20.2740 C   0  0  0  0  0  2  0  0  0  0  0  0
  -30.3780  -22.1890   18.7590 C   0  0  0  0  0  2  0  0  0  0  0  0
  -29.2040  -22.1170   20.0020 C   0  0  0  0  0  3  0  0  0  0  0  0
  -32.0340  -21.7840   18.9370 C   0  0  0  0  0  3  0  0  0  0  0  0
  -34.4490  -21.4690   17.3560 C   0  0  0  0  0  0  0  0  0  0  0  0
  -36.6610  -22.3360   16.3820 C   0  0  0  0  0  2  0  0  0  0  0  0
  -37.1410  -23.5250   17.2570 C   0  0  0  0  0  2  0  0  0  0  0  0
  -36.3840  -24.8280   16.9180 C   0  0  0  0  0  2  0  0  0  0  0  0
  -34.8640  -24.5800   16.7600 C   0  0  0  0  0  3  0  0  0  0  0  0
  -34.5930  -23.4070   15.8050 C   0  0  0  0  0  2  0  0  0  0  0  0
  -35.1700  -22.2540   16.4700 N   0  0  0  0  0  0  0  0  0  0  0  0
  -35.0200  -20.4280   17.7400 O   0  0  0  0  0  0  0  0  0  0  0  0
  -33.1920  -22.0180   17.8400 N   0  0  0  0  0  0  0  0  0  0  0  0
  -32.9870  -22.8440   17.2980 H   0  0  0  0  0  0  0  0  0  0  0  0
  -33.3050  -26.5670   17.0860 C   0  0  0  0  0  0  0  0  0  0  0  0
  -32.8880  -27.5460   16.2270 C   0  0  0  0  0  0  0  0  0  0  0  0
  -33.4860  -27.2450   14.9670 C   0  0  0  0  0  0  0  0  0  0  0  0
  -34.1280  -25.7460   16.3340 N   0  0  0  0  0  0  0  0  0  0  0  0
  -34.1810  -26.1190   15.0360 N   0  0  0  0  0  0  0  0  0  0  0  0
  -33.4940  -27.9980   13.7110 C   0  0  0  0  0  0  0  0  0  0  0  0
  -33.1150  -27.3990   12.4900 C   0  0  0  0  0  3  0  0  0  0  0  0
  -33.1190  -28.1500   11.2980 C   0  0  0  0  0  3  0  0  0  0  0  0
  -33.5040  -29.5110   11.3200 C   0  0  0  0  0  0  0  0  0  0  0  0
  -33.9050  -30.0940   12.5330 C   0  0  0  0  0  3  0  0  0  0  0  0
  -33.9060  -29.3440   13.7200 C   0  0  0  0  0  3  0  0  0  0  0  0
  -33.5620  -30.3150   10.2070 O   0  0  0  0  0  0  0  0  0  0  0  0
  -32.8370  -30.0300    9.0780 C   0  0  0  0  0  0  0  0  0  0  0  0
  -31.4270  -29.9780    9.0910 C   0  0  0  0  0  3  0  0  0  0  0  0
  -30.7210  -29.7520    7.8920 C   0  0  0  0  0  3  0  0  0  0  0  0
  -31.4200  -29.5860    6.6810 C   0  0  0  0  0  0  0  0  0  0  0  0
  -32.8250  -29.6430    6.6670 C   0  0  0  0  0  3  0  0  0  0  0  0
  -33.5310  -29.8670    7.8630 C   0  0  0  0  0  0  0  0  0  0  0  0
  -34.8840  -29.9410    7.8390 F   0  0  0  0  0  0  0  0  0  0  0  0
  -30.7420  -29.3790    5.5300 F   0  0  0  0  0  0  0  0  0  0  0  0
  -32.0640  -28.7470   16.5830 C   0  0  0  0  0  0  0  0  0  0  0  0
  -31.1560  -29.1480   15.7020 N   0  0  0  0  0  0  0  0  0  0  0  0
  -32.1930  -29.3110   17.6670 O   0  0  0  0  0  0  0  0  0  0  0  0
  -31.0360  -28.6710   14.8210 H   0  0  0  0  0  0  0  0  0  0  0  0
  -30.5660  -29.9380   15.9160 H   0  0  0  0  0  0  0  0  0  0  0  0
  -33.0800  -26.3230   18.4350 N   0  0  0  0  0  0  0  0  0  0  0  0
  -32.5450  -26.9660   19.0110 H   0  0  0  0  0  0  0  0  0  0  0  0
  -33.5730  -25.6270   18.9770 H   0  0  0  0  0  0  0  0  0  0  0  0
  2  1  1  0
  2 27  1  0
  3  4  2  0
  4 49  1  0
  4  1  1  0
  5  7  1  0
  5 27  1  0
  6  5  1  0
  6  8  1  0
  6  3  1  0
  9 20  2  0
 10  8  1  0
 10 15  1  0
 11 21  1  0
 11 19  1  0
 12 18  1  0
 12 14  1  0
 13 19  1  0
 14 15  1  0
 14 13  1  0
 16 17  1  0
 16 10  1  0
 17 12  2  0
 18 11  1  0
 19  9  1  0
 21 23  2  0
 21 22  1  0
 22 26  1  0
 24 22  1  0
 25 34  2  0
 25 30  1  0
 26 30  1  0
 29 25  1  0
 30 31  2  0
 31 32  1  0
 33 32  2  0
 34 33  1  0
 35  9  1  0
 35 40  1  0
 35 36  1  0
 36 37  1  1
 36 39  1  0
 38 36  1  0
 40 43  1  0
 41 45  1  0
 41 40  1  0
 42 41  2  0
 45 44  1  0
 47 48  1  0
 47 45  1  0
 47 46  1  0
 50 49  1  0
 51 50  1  0
 53 52  1  0
 54 52  1  0
 55 57  1  0
 55 56  1  0
 56 51  1  0
 56 53  1  0
 57 66  1  0
 57 54  1  0
 58 65  2  0
 58 66  1  0
 59 64  1  0
 59 60  1  0
 61 60  1  0
 62 63  1  0
 62 61  1  0
 63 64  1  0
 64 58  1  0
 67 66  1  0
 68 93  1  0
 69 88  1  0
 69 68  2  0
 70 72  2  0
 70 69  1  0
 71 62  1  0
 71 68  1  0
 72 71  1  0
 73 78  1  0
 73 70  1  0
 74 73  2  0
 75 76  2  0
 75 74  1  0
 76 77  1  0
 77 78  2  0
 79 76  1  0
 80 81  1  0
 80 79  1  0
 82 81  2  0
 83 82  1  0
 84 83  2  0
 84 85  1  0
 85 80  2  0
 86 85  1  0
 87 83  1  0
 88 90  2  0
 89 92  1  0
 89 88  1  0
 91 89  1  0
 93 95  1  0
 93 94  1  0
M  ISO  4   6 101   8 101  58 100  66 100
M  END
>  <TORSDO>  (81) 
F 20

>  <SCORE>  (81) 
-5.346

>  <name>  (81) 
81

>  <ligand_id>  (81) 
81

>  <original_smiles>  (81) 
[H]c1c([H])c([H])c2c(c1[H])C([H])([H])C([H])([H])C([H])([H])C2([H])N([H])C(=O)C1([H])N(C(=O)C([H])(N([H])C(=O)C([H])(N([H])C([H])([H])[H])C([H])([H])[H])C(C([H])([H])[H])(C([H])([H])[H])C([H])([H])[H])C([H])([H])c2c([H])c(Oc3c([H])c(C([H])([H])C([H])([H])C([H])([H])C4([H])C([H])([H])C([H])([H])C([H])([H])C([H])(N([H])C(=O)N5C([H])([H])C([H])([H])C([H])([H])C([H])(n6nc(-c7c([H])c([H])c(Oc8c([H])c([H])c(F)c([H])c8F)c([H])c7[H])c(C(=O)N([H])[H])c6N([H])[H])C5([H])[H])C4([H])[H])c([H])c([H])c3C([H])([H])[H])c([H])c([H])c2C1([H])[H]

>  <smiles>  (81) 
[H]c1c([H])c([H])c2c(c1[H])C([H])([H])C([H])([H])C([H])([H])C2([H])N([H])C(=O)C1([H])N(C(=O)C([H])(N([H])C(=O)C([H])(N([H])C([H])([H])[H])C([H])([H])[H])C(C([H])([H])[H])(C([H])([H])[H])C([H])([H])[H])C([H])([H])c2c([H])c(Oc3c([H])c(C([H])([H])C([H])([H])C([H])([H])C4([H])C([H])([H])C([H])([H])C([H])([H])C([H])(N([H])C(=O)N5C([H])([H])C([H])([H])C([H])([H])C([H])(n6nc(-c7c([H])c([H])c(Oc8c([H])c([H])c(F)c([H])c8F)c([H])c7[H])c(C(=O)N([H])[H])c6N([H])[H])C5([H])[H])C4([H])[H])c([H])c([H])c3C([H])([H])[H])c([H])c([H])c2C1([H])[H]

$$$$
82:0:0
     RDKit          3D

 97106  0  0  1  0  0  0  0  0999 V2000
  -26.0240  -22.8850   18.9310 C   0  0  0  0  0  3  0  0  0  0  0  0
  -28.6810  -23.0520   19.7750 C   0  0  0  0  0  0  0  0  0  0  0  0
  -27.7910  -24.1190   20.1020 C   0  0  0  0  0  0  0  0  0  0  0  0
  -26.4090  -23.8560   19.8760 C   0  0  0  0  0  0  0  0  0  0  0  0
  -26.9870  -22.0940   18.2830 C   0  0  0  0  0  0  0  0  0  0  0  0
  -28.3320  -22.1520   18.7210 C   0  0  0  0  0  0  0  0  0  0  0  0
  -29.7720  -22.7230   20.7570 C   0  0  0  0  0  0  0  0  0  0  0  0
  -30.1500  -23.8420   21.7280 C   0  0  0  0  0  2  0  0  0  0  0  0
  -28.3340  -25.4170   20.7790 C   0  0  0  0  0  3  0  0  0  0  0  0
  -29.8240  -25.2580   21.2100 C   0  0  0  0  0  3  0  0  0  0  0  0
  -25.2900  -24.4780   20.7030 C   0  0  0  0  0  1  0  0  0  0  0  0
  -26.5410  -21.0930   17.2290 C   0  0  0  0  0  1  0  0  0  0  0  0
  -29.3630  -21.2240   18.0760 C   0  0  0  0  0  1  0  0  0  0  0  0
  -30.8370  -25.6740   20.1120 C   0  0  0  0  0  1  0  0  0  0  0  0
  -30.2440  -21.5310   20.8440 N   0  0  0  0  0  0  0  0  0  0  0  0
  -28.3160  -26.6460   19.9830 O   0  0  0  0  0  0  0  0  0  0  0  0
  -24.5790  -31.8190   23.2310 C   0  0  0  0  0  0  0  0  0  0  0  0
  -27.1930  -27.4500   20.0010 C   0  0  0  0  0  0  0  0  0  0  0  0
  -23.3750  -30.4880   21.5340 C   0  0  0  0  0  3  0  0  0  0  0  0
  -24.8260  -29.0070   20.0500 C   0  0  0  0  0  0  0  0  0  0  0  0
  -25.9070  -30.8210   21.3750 C   0  0  0  0  0  2  0  0  0  0  0  0
  -25.9830  -29.4760   20.6850 C   0  0  0  0  0  0  0  0  0  0  0  0
  -27.1700  -28.6980   20.6730 C   0  0  0  0  0  3  0  0  0  0  0  0
  -26.0570  -27.0730   19.2640 C   0  0  0  0  0  3  0  0  0  0  0  0
  -24.8570  -27.8020   19.3360 C   0  0  0  0  0  3  0  0  0  0  0  0
  -23.5850  -29.8660   20.1310 C   0  0  0  0  0  2  0  0  0  0  0  0
  -24.6380  -31.0560   22.1030 N   0  0  0  0  0  0  0  0  0  0  0  0
  -23.4950  -32.0800   23.7720 O   0  0  0  0  0  0  0  0  0  0  0  0
  -22.7120  -29.4350   22.4500 C   0  0  0  0  0  0  0  0  0  0  0  0
  -21.3910  -29.2450   22.2880 N   0  0  0  0  0  0  0  0  0  0  0  0
  -23.3830  -28.7930   23.2630 O   0  0  0  0  0  0  0  0  0  0  0  0
  -20.9130  -29.8130   21.6030 H   0  0  0  0  0  0  0  0  0  0  0  0
  -18.0180  -28.0150   22.6830 C   0  0  0  0  0  0  0  0  0  0  0  0
  -20.5670  -28.2820   23.0170 C   0  0  0  0  0  3  0  0  0  0  0  0
  -20.6930  -26.8670   22.4050 C   0  0  0  0  0  2  0  0  0  0  0  0
  -19.6160  -26.5650   21.3590 C   0  0  0  0  0  2  0  0  0  0  0  0
  -18.2190  -26.6850   21.9750 C   0  0  0  0  0  2  0  0  0  0  0  0
  -19.1210  -28.7730   23.1570 C   0  0  0  0  0  0  0  0  0  0  0  0
  -18.8810  -30.0180   23.7760 C   0  0  0  0  0  3  0  0  0  0  0  0
  -17.5700  -30.5070   23.9260 C   0  0  0  0  0  3  0  0  0  0  0  0
  -16.4800  -29.7450   23.4660 C   0  0  0  0  0  3  0  0  0  0  0  0
  -16.7060  -28.4990   22.8530 C   0  0  0  0  0  3  0  0  0  0  0  0
  -25.8640  -32.4200   23.8780 C   0  0  0  0  0  3  0  0  0  0  0  0
  -25.5790  -33.8240   24.1980 N   0  0  0  0  0  0  0  0  0  0  0  0
  -25.9470  -34.8660   23.4380 C   0  0  0  0  0  0  0  0  0  0  0  0
  -26.6310  -34.7430   22.4190 O   0  0  0  0  0  0  0  0  0  0  0  0
  -24.9640  -33.9950   24.9800 H   0  0  0  0  0  0  0  0  0  0  0  0
  -24.2630  -36.6940   23.0490 C   0  0  0  0  0  1  0  0  0  0  0  0
  -25.4830  -36.2670   23.8810 C   0  0  0  0  0  3  0  0  0  0  0  0
  -27.6190  -37.1110   24.7500 C   0  0  0  0  0  1  0  0  0  0  0  0
  -26.5400  -37.2980   23.7820 N   0  0  0  0  0  0  0  0  0  0  0  0
  -26.1500  -38.2260   23.9210 H   0  0  0  0  0  0  0  0  0  0  0  0
  -26.3360  -31.6360   25.1640 C   0  0  1  0  0  0  0  0  0  0  0  0
  -25.2150  -31.4130   26.2050 C   0  0  0  0  0  1  0  0  0  0  0  0
  -26.9010  -30.2470   24.7830 C   0  0  0  0  0  1  0  0  0  0  0  0
  -27.4900  -32.4050   25.8530 C   0  0  0  0  0  1  0  0  0  0  0  0
  -31.1570  -21.1020   21.8880 C   0  0  0  0  0  2  0  0  0  0  0  0
  -31.6570  -19.6640   21.6040 C   0  0  0  0  0  2  0  0  0  0  0  0
  -30.6140  -18.5200   21.7200 C   0  0  0  0  0  2  0  0  0  0  0  0
  -31.2300  -17.1600   21.3090 C   0  0  0  0  0  2  0  0  0  0  0  0
  -30.3220  -15.8920   21.3800 C   0  0  0  0  0  2  0  0  0  0  0  0
  -30.9280  -14.6850   20.6140 C   0  0  0  0  0  0  0  0  0  0  0  0
  -30.5860  -12.5950   19.3430 C   0  0  0  0  0  2  0  0  0  0  0  0
  -29.6720  -12.8700   18.1330 C   0  0  0  0  0  2  0  0  0  0  0  0
  -28.1920  -12.7170   18.5310 C   0  0  0  0  0  2  0  0  0  0  0  0
  -27.8410  -13.5030   19.8230 C   0  0  0  0  0  3  0  0  0  0  0  0
  -28.8790  -13.2550   20.9420 C   0  0  0  0  0  2  0  0  0  0  0  0
  -30.2160  -13.5440   20.4060 N   0  0  0  0  0  0  0  0  0  0  0  0
  -32.0460  -14.8390   20.1130 O   0  0  0  0  0  0  0  0  0  0  0  0
  -25.4150  -14.0770   20.4570 C   0  0  0  0  0  0  0  0  0  0  0  0
  -24.3500  -13.2900   20.8030 C   0  0  0  0  0  0  0  0  0  0  0  0
  -24.8330  -11.9450   20.7990 C   0  0  0  0  0  0  0  0  0  0  0  0
  -26.4800  -13.2110   20.2670 N   0  0  0  0  0  0  0  0  0  0  0  0
  -26.1320  -11.9250   20.5300 N   0  0  0  0  0  0  0  0  0  0  0  0
  -24.1190  -10.6740   20.9820 C   0  0  0  0  0  0  0  0  0  0  0  0
  -24.5200   -9.7390   21.9620 C   0  0  0  0  0  3  0  0  0  0  0  0
  -23.8080   -8.5300   22.1320 C   0  0  0  0  0  3  0  0  0  0  0  0
  -22.6820   -8.2510   21.3210 C   0  0  0  0  0  0  0  0  0  0  0  0
  -22.3010   -9.1760   20.3330 C   0  0  0  0  0  3  0  0  0  0  0  0
  -23.0130  -10.3740   20.1620 C   0  0  0  0  0  3  0  0  0  0  0  0
  -21.9450   -7.0940   21.3970 O   0  0  0  0  0  0  0  0  0  0  0  0
  -21.8190   -6.3980   22.5730 C   0  0  0  0  0  0  0  0  0  0  0  0
  -21.2560   -6.9820   23.7290 C   0  0  0  0  0  3  0  0  0  0  0  0
  -21.0810   -6.2080   24.8960 C   0  0  0  0  0  3  0  0  0  0  0  0
  -21.4600   -4.8530   24.9050 C   0  0  0  0  0  0  0  0  0  0  0  0
  -22.0150   -4.2690   23.7540 C   0  0  0  0  0  3  0  0  0  0  0  0
  -22.1930   -5.0390   22.5910 C   0  0  0  0  0  0  0  0  0  0  0  0
  -22.7100   -4.4640   21.4780 F   0  0  0  0  0  0  0  0  0  0  0  0
  -21.2830   -4.1090   26.0220 F   0  0  0  0  0  0  0  0  0  0  0  0
  -22.9390  -13.7480   21.0340 C   0  0  0  0  0  0  0  0  0  0  0  0
  -22.2010  -13.0470   21.8870 N   0  0  0  0  0  0  0  0  0  0  0  0
  -22.4980  -14.7600   20.4910 O   0  0  0  0  0  0  0  0  0  0  0  0
  -22.5700  -12.2250   22.3430 H   0  0  0  0  0  0  0  0  0  0  0  0
  -21.2540  -13.3350   22.0890 H   0  0  0  0  0  0  0  0  0  0  0  0
  -25.5630  -15.4480   20.2690 N   0  0  0  0  0  0  0  0  0  0  0  0
  -24.7860  -16.0950   20.3520 H   0  0  0  0  0  0  0  0  0  0  0  0
  -26.4210  -15.8970   19.9720 H   0  0  0  0  0  0  0  0  0  0  0  0
  1  4  1  0
  2  3  1  0
  2  7  1  0
  3  9  1  0
  4  3  2  0
  4 11  1  0
  5  6  1  0
  5  1  2  0
  6  2  2  0
  7 15  2  0
  7  8  1  0
  9 16  1  0
  9 10  1  0
 10 14  1  0
 10  8  1  0
 12  5  1  0
 13  6  1  0
 15 57  1  0
 16 18  1  0
 17 28  2  0
 18 23  1  0
 19 27  1  0
 19 29  1  0
 20 26  1  0
 20 22  1  0
 21 27  1  0
 22 21  1  0
 23 22  2  0
 24 25  1  0
 24 18  2  0
 25 20  2  0
 26 19  1  0
 27 17  1  0
 29 31  2  0
 30 29  1  0
 32 30  1  0
 33 42  2  0
 33 38  1  0
 34 30  1  0
 34 38  1  0
 35 34  1  0
 36 37  1  0
 36 35  1  0
 37 33  1  0
 38 39  2  0
 39 40  1  0
 41 40  2  0
 42 41  1  0
 43 17  1  0
 43 44  1  0
 43 53  1  0
 44 47  1  0
 45 49  1  0
 45 44  1  0
 46 45  2  0
 49 48  1  0
 51 49  1  0
 51 52  1  0
 51 50  1  0
 53 56  1  1
 53 54  1  0
 55 53  1  0
 58 59  1  0
 58 57  1  0
 60 61  1  0
 60 59  1  0
 62 61  1  0
 63 68  1  0
 64 65  1  0
 64 63  1  0
 66 65  1  0
 66 73  1  0
 66 67  1  0
 68 62  1  0
 68 67  1  0
 69 62  2  0
 70 71  2  0
 71 90  1  0
 72 71  1  0
 72 75  1  0
 73 70  1  0
 73 74  1  0
 74 72  2  0
 75 76  1  0
 76 77  2  0
 78 81  1  0
 78 77  1  0
 79 78  2  0
 80 79  1  0
 80 75  2  0
 81 82  1  0
 82 87  2  0
 82 83  1  0
 83 84  2  0
 84 85  1  0
 85 89  1  0
 86 85  2  0
 87 86  1  0
 88 87  1  0
 90 91  1  0
 91 94  1  0
 91 93  1  0
 92 90  2  0
 95 96  1  0
 95 70  1  0
 97 95  1  0
M  ISO  4   9 101  16 101  61 100  62 100
M  END
>  <TORSDO>  (82) 
F 21

>  <SCORE>  (82) 
-13.720

>  <name>  (82) 
82

>  <ligand_id>  (82) 
82

>  <original_smiles>  (82) 
[H]c1c([H])c([H])c2c(c1[H])C([H])([H])C([H])([H])C([H])([H])C2([H])N([H])C(=O)C1([H])N(C(=O)C([H])(N([H])C(=O)C([H])(N([H])C([H])([H])[H])C([H])([H])[H])C(C([H])([H])[H])(C([H])([H])[H])C([H])([H])[H])C([H])([H])c2c([H])c(OC3([H])c4c(c(C([H])([H])[H])c(C([H])([H])[H])c([H])c4C([H])([H])[H])C(=NC([H])([H])C([H])([H])C([H])([H])C([H])([H])C([H])([H])C(=O)N4C([H])([H])C([H])([H])C([H])([H])C([H])(n5nc(-c6c([H])c([H])c(Oc7c([H])c([H])c(F)c([H])c7F)c([H])c6[H])c(C(=O)N([H])[H])c5N([H])[H])C4([H])[H])C([H])([H])C3([H])C([H])([H])[H])c([H])c([H])c2C1([H])[H]

>  <smiles>  (82) 
[H]c1c([H])c([H])c2c(c1[H])C([H])([H])C([H])([H])C([H])([H])C2([H])N([H])C(=O)C1([H])N(C(=O)C([H])(N([H])C(=O)C([H])(N([H])C([H])([H])[H])C([H])([H])[H])C(C([H])([H])[H])(C([H])([H])[H])C([H])([H])[H])C([H])([H])c2c([H])c(OC3([H])c4c(c(C([H])([H])[H])c(C([H])([H])[H])c([H])c4C([H])([H])[H])C(=NC([H])([H])C([H])([H])C([H])([H])C([H])([H])C([H])([H])C(=O)N4C([H])([H])C([H])([H])C([H])([H])C([H])(n5nc(-c6c([H])c([H])c(Oc7c([H])c([H])c(F)c([H])c7F)c([H])c6[H])c(C(=O)N([H])[H])c5N([H])[H])C4([H])[H])C([H])([H])C3([H])C([H])([H])[H])c([H])c([H])c2C1([H])[H]

$$$$
83:0:0
     RDKit          3D

 90 99  0  0  1  0  0  0  0  0999 V2000
  -27.9520  -19.1230   20.5440 C   0  0  0  0  0  3  0  0  0  0  0  0
  -28.3320  -20.4860   20.2600 C   0  0  0  0  0  0  0  0  0  0  0  0
  -30.0240  -17.7620   19.8060 C   0  0  0  0  0  0  0  0  0  0  0  0
  -29.5960  -20.7030   19.6880 C   0  0  0  0  0  0  0  0  0  0  0  0
  -30.3980  -19.3050   19.4970 C   0  0  0  0  0  0  0  0  0  0  0  0
  -28.7050  -17.8930   20.3580 C   0  0  0  0  0  0  0  0  0  0  0  0
  -27.3590  -21.6770   20.4890 C   0  0  0  0  0  0  0  0  0  0  0  0
  -29.8140  -22.4870   19.4130 C   0  0  0  0  0  2  0  0  0  0  0  0
  -27.7870  -23.2140   20.6870 C   0  0  0  0  0  2  0  0  0  0  0  0
  -28.6530  -23.9650   19.5970 C   0  0  0  0  0  3  0  0  0  0  0  0
  -31.7750  -19.4940   18.8960 C   0  0  0  0  0  1  0  0  0  0  0  0
  -26.1510  -21.4480   20.5920 O   0  0  0  0  0  0  0  0  0  0  0  0
  -28.0790  -16.7710   20.7610 F   0  0  0  0  0  0  0  0  0  0  0  0
  -30.8080  -16.1230   19.6980 C   0  0  0  0  0  0  0  0  0  0  0  0
  -30.9840  -13.5120   19.0140 C   0  0  0  0  0  2  0  0  0  0  0  0
  -30.0530  -12.9930   17.8730 C   0  0  0  0  0  2  0  0  0  0  0  0
  -28.6590  -12.6190   18.4000 C   0  0  0  0  0  2  0  0  0  0  0  0
  -28.1710  -13.6510   19.4400 C   0  0  0  0  0  3  0  0  0  0  0  0
  -29.2480  -14.0260   20.4830 C   0  0  0  0  0  2  0  0  0  0  0  0
  -30.3550  -14.7100   19.7570 N   0  0  0  0  0  0  0  0  0  0  0  0
  -32.0230  -16.0500   19.4140 O   0  0  0  0  0  0  0  0  0  0  0  0
  -25.8730  -14.1680   20.3840 C   0  0  0  0  0  0  0  0  0  0  0  0
  -24.8290  -13.3870   20.7850 C   0  0  0  0  0  0  0  0  0  0  0  0
  -25.2780  -12.0350   20.6640 C   0  0  0  0  0  0  0  0  0  0  0  0
  -26.8890  -13.2990   20.0370 N   0  0  0  0  0  0  0  0  0  0  0  0
  -26.5480  -12.0030   20.2680 N   0  0  0  0  0  0  0  0  0  0  0  0
  -24.5430  -10.7750   20.8490 C   0  0  0  0  0  0  0  0  0  0  0  0
  -24.9390   -9.8200   21.8110 C   0  0  0  0  0  3  0  0  0  0  0  0
  -24.1990   -8.6290   21.9850 C   0  0  0  0  0  3  0  0  0  0  0  0
  -23.0490   -8.3860   21.1970 C   0  0  0  0  0  0  0  0  0  0  0  0
  -22.6730   -9.3300   20.2250 C   0  0  0  0  0  3  0  0  0  0  0  0
  -23.4130  -10.5110   20.0500 C   0  0  0  0  0  3  0  0  0  0  0  0
  -22.2860   -7.2460   21.2780 O   0  0  0  0  0  0  0  0  0  0  0  0
  -22.0550   -6.6180   22.4750 C   0  0  0  0  0  0  0  0  0  0  0  0
  -21.4290   -7.2770   23.5540 C   0  0  0  0  0  3  0  0  0  0  0  0
  -21.1480   -6.5730   24.7420 C   0  0  0  0  0  3  0  0  0  0  0  0
  -21.4850   -5.2100   24.8500 C   0  0  0  0  0  0  0  0  0  0  0  0
  -22.1030   -4.5500   23.7740 C   0  0  0  0  0  3  0  0  0  0  0  0
  -22.3840   -5.2510   22.5890 C   0  0  0  0  0  0  0  0  0  0  0  0
  -22.9620   -4.6050   21.5470 F   0  0  0  0  0  0  0  0  0  0  0  0
  -21.2080   -4.5310   25.9890 F   0  0  0  0  0  0  0  0  0  0  0  0
  -23.4610  -13.8700   21.1690 C   0  0  0  0  0  0  0  0  0  0  0  0
  -22.7860  -13.1540   22.0600 N   0  0  0  0  0  0  0  0  0  0  0  0
  -23.0070  -14.9200   20.7170 O   0  0  0  0  0  0  0  0  0  0  0  0
  -23.1710  -12.3050   22.4460 H   0  0  0  0  0  0  0  0  0  0  0  0
  -21.8710  -13.4590   22.3590 H   0  0  0  0  0  0  0  0  0  0  0  0
  -26.0350  -15.5430   20.2600 N   0  0  0  0  0  0  0  0  0  0  0  0
  -25.3050  -16.1880   20.5410 H   0  0  0  0  0  0  0  0  0  0  0  0
  -26.9480  -15.9800   20.2080 H   0  0  0  0  0  0  0  0  0  0  0  0
  -28.7280  -25.7650   19.7350 O   0  0  0  0  0  0  0  0  0  0  0  0
  -25.0680  -31.6840   23.3390 C   0  0  0  0  0  0  0  0  0  0  0  0
  -27.7340  -26.9850   19.8110 C   0  0  0  0  0  0  0  0  0  0  0  0
  -23.9440  -30.4920   21.5070 C   0  0  0  0  0  3  0  0  0  0  0  0
  -25.4490  -29.0310   19.9450 C   0  0  0  0  0  0  0  0  0  0  0  0
  -26.5270  -30.6500   21.4840 C   0  0  0  0  0  2  0  0  0  0  0  0
  -26.6240  -29.3040   20.6540 C   0  0  0  0  0  0  0  0  0  0  0  0
  -27.7480  -28.3170   20.5540 C   0  0  0  0  0  3  0  0  0  0  0  0
  -26.5220  -26.9430   19.0740 C   0  0  0  0  0  3  0  0  0  0  0  0
  -25.4400  -27.8820   19.1360 C   0  0  0  0  0  3  0  0  0  0  0  0
  -24.2320  -29.9680   20.0690 C   0  0  0  0  0  2  0  0  0  0  0  0
  -25.2030  -30.9700   22.1670 N   0  0  0  0  0  0  0  0  0  0  0  0
  -23.9560  -31.9140   23.8480 O   0  0  0  0  0  0  0  0  0  0  0  0
  -23.2050  -29.4020   22.3300 C   0  0  0  0  0  0  0  0  0  0  0  0
  -21.8780  -29.2590   22.1500 N   0  0  0  0  0  0  0  0  0  0  0  0
  -23.8410  -28.6830   23.1040 O   0  0  0  0  0  0  0  0  0  0  0  0
  -21.4130  -29.8900   21.5110 H   0  0  0  0  0  0  0  0  0  0  0  0
  -18.4780  -28.0090   22.4650 C   0  0  0  0  0  0  0  0  0  0  0  0
  -21.0390  -28.2280   22.7750 C   0  0  0  0  0  3  0  0  0  0  0  0
  -21.1370  -26.8900   22.0040 C   0  0  0  0  0  2  0  0  0  0  0  0
  -20.0400  -26.7220   20.9470 C   0  0  0  0  0  2  0  0  0  0  0  0
  -18.6560  -26.7740   21.5970 C   0  0  0  0  0  2  0  0  0  0  0  0
  -19.5960  -28.7010   23.0040 C   0  0  0  0  0  0  0  0  0  0  0  0
  -19.3730  -29.8570   23.7810 C   0  0  0  0  0  3  0  0  0  0  0  0
  -18.0660  -30.3250   24.0200 C   0  0  0  0  0  3  0  0  0  0  0  0
  -16.9640  -29.6310   23.4920 C   0  0  0  0  0  3  0  0  0  0  0  0
  -17.1700  -28.4740   22.7220 C   0  0  0  0  0  3  0  0  0  0  0  0
  -26.3020  -32.2630   24.0970 C   0  0  0  0  0  3  0  0  0  0  0  0
  -25.9660  -33.6250   24.5580 N   0  0  0  0  0  0  0  0  0  0  0  0
  -26.2920  -34.7600   23.9230 C   0  0  0  0  0  0  0  0  0  0  0  0
  -26.9620  -34.7700   22.8880 O   0  0  0  0  0  0  0  0  0  0  0  0
  -25.3690  -33.6890   25.3690 H   0  0  0  0  0  0  0  0  0  0  0  0
  -24.5360  -36.5640   23.7950 C   0  0  0  0  0  1  0  0  0  0  0  0
  -25.8030  -36.0930   24.5280 C   0  0  0  0  0  3  0  0  0  0  0  0
  -27.9390  -36.9380   25.4010 C   0  0  0  0  0  1  0  0  0  0  0  0
  -26.8200  -37.1690   24.4920 N   0  0  0  0  0  0  0  0  0  0  0  0
  -26.4030  -38.0670   24.7230 H   0  0  0  0  0  0  0  0  0  0  0  0
  -26.7390  -31.3770   25.3300 C   0  0  1  0  0  0  0  0  0  0  0  0
  -25.5870  -31.0670   26.3160 C   0  0  0  0  0  1  0  0  0  0  0  0
  -27.3260  -30.0260   24.8640 C   0  0  0  0  0  1  0  0  0  0  0  0
  -27.8620  -32.0920   26.1160 C   0  0  0  0  0  1  0  0  0  0  0  0
  2  7  1  0
  2  1  2  0
  3  6  2  0
  4  2  1  0
  5  4  2  0
  5  3  1  0
  6  1  1  0
  6 13  1  0
  7 12  2  0
  7  9  1  0
  8 10  1  0
  8  4  1  0
 10 50  1  0
 10  9  1  0
 11  5  1  0
 14 20  1  0
 14  3  1  0
 15 20  1  0
 16 17  1  0
 16 15  1  0
 18 17  1  0
 18 25  1  0
 18 19  1  0
 20 19  1  0
 21 14  2  0
 22 23  2  0
 23 42  1  0
 24 23  1  0
 24 27  1  0
 25 26  1  0
 25 22  1  0
 26 24  2  0
 27 28  1  0
 28 29  2  0
 30 33  1  0
 30 29  1  0
 31 30  2  0
 32 31  1  0
 32 27  2  0
 33 34  1  0
 34 39  2  0
 34 35  1  0
 35 36  2  0
 36 37  1  0
 37 41  1  0
 38 37  2  0
 39 38  1  0
 40 39  1  0
 42 43  1  0
 43 46  1  0
 43 45  1  0
 44 42  2  0
 47 22  1  0
 47 48  1  0
 49 47  1  0
 50 52  1  0
 51 62  2  0
 52 57  1  0
 53 61  1  0
 53 63  1  0
 54 60  1  0
 54 56  1  0
 55 61  1  0
 56 55  1  0
 57 56  2  0
 58 59  1  0
 58 52  2  0
 59 54  2  0
 60 53  1  0
 61 51  1  0
 63 65  2  0
 64 63  1  0
 66 64  1  0
 67 76  2  0
 67 72  1  0
 68 64  1  0
 68 72  1  0
 69 68  1  0
 70 71  1  0
 70 69  1  0
 71 67  1  0
 72 73  2  0
 73 74  1  0
 75 74  2  0
 76 75  1  0
 77 51  1  0
 77 78  1  0
 77 87  1  0
 78 81  1  0
 79 83  1  0
 79 78  1  0
 80 79  2  0
 83 82  1  0
 85 83  1  0
 85 86  1  0
 85 84  1  0
 87 90  1  1
 87 88  1  0
 89 87  1  0
M  ISO  4   3 100  10 101  14 100  50 101
M  END
>  <TORSDO>  (83) 
F 16

>  <SCORE>  (83) 
-13.064

>  <name>  (83) 
83

>  <ligand_id>  (83) 
83

>  <original_smiles>  (83) 
[H]c1c([H])c([H])c2c(c1[H])C([H])([H])C([H])([H])C([H])([H])C2([H])N([H])C(=O)C1([H])N(C(=O)C([H])(N([H])C(=O)C([H])(N([H])C([H])([H])[H])C([H])([H])[H])C(C([H])([H])[H])(C([H])([H])[H])C([H])([H])[H])C([H])([H])c2c([H])c(OC3([H])C([H])([H])C(=O)c4c([H])c(F)c(C(=O)N5C([H])([H])C([H])([H])C([H])([H])C([H])(n6nc(-c7c([H])c([H])c(Oc8c([H])c([H])c(F)c([H])c8F)c([H])c7[H])c(C(=O)N([H])[H])c6N([H])[H])C5([H])[H])c(C([H])([H])[H])c4C3([H])[H])c([H])c([H])c2C1([H])[H]

>  <smiles>  (83) 
[H]c1c([H])c([H])c2c(c1[H])C([H])([H])C([H])([H])C([H])([H])C2([H])N([H])C(=O)C1([H])N(C(=O)C([H])(N([H])C(=O)C([H])(N([H])C([H])([H])[H])C([H])([H])[H])C(C([H])([H])[H])(C([H])([H])[H])C([H])([H])[H])C([H])([H])c2c([H])c(OC3([H])C([H])([H])C(=O)c4c([H])c(F)c(C(=O)N5C([H])([H])C([H])([H])C([H])([H])C([H])(n6nc(-c7c([H])c([H])c(Oc8c([H])c([H])c(F)c([H])c8F)c([H])c7[H])c(C(=O)N([H])[H])c6N([H])[H])C5([H])[H])c(C([H])([H])[H])c4C3([H])[H])c([H])c([H])c2C1([H])[H]

$$$$
84:0:0
     RDKit          3D

 96105  0  0  1  0  0  0  0  0999 V2000
  -30.1630  -23.0040   22.0510 C   0  0  0  0  0  0  0  0  0  0  0  0
  -29.1130  -24.1560   21.8780 C   0  0  0  0  0  2  0  0  0  0  0  0
  -28.7310  -22.8220   19.7140 C   0  0  0  0  0  2  0  0  0  0  0  0
  -28.4180  -24.3650   20.4930 C   0  0  0  0  0  3  0  0  0  0  0  0
  -29.0010  -21.2920   20.5630 C   0  0  2  0  0  0  0  0  0  0  0  0
  -27.6300  -21.1060   21.2700 C   0  0  0  0  0  1  0  0  0  0  0  0
  -29.9710  -21.7480   21.5600 N   0  0  0  0  0  0  0  0  0  0  0  0
  -31.1830  -23.2400   22.6980 O   0  0  0  0  0  0  0  0  0  0  0  0
  -30.6950  -21.0800   21.7740 H   0  0  0  0  0  0  0  0  0  0  0  0
  -29.1250  -18.1160   18.0470 C   0  0  0  0  0  3  0  0  0  0  0  0
  -30.3140  -16.9700   19.9270 C   0  0  0  0  0  0  0  0  0  0  0  0
  -29.4020  -19.6630   19.9720 C   0  0  0  0  0  0  0  0  0  0  0  0
  -29.8250  -17.0140   18.5840 C   0  0  0  0  0  0  0  0  0  0  0  0
  -28.8660  -19.3440   18.6930 C   0  0  0  0  0  0  0  0  0  0  0  0
  -30.1290  -18.3950   20.5520 C   0  0  0  0  0  0  0  0  0  0  0  0
  -30.1220  -15.9290   17.5570 C   0  0  0  0  0  1  0  0  0  0  0  0
  -28.0010  -20.3140   17.9000 C   0  0  0  0  0  1  0  0  0  0  0  0
  -31.1530  -15.5420   20.3650 C   0  0  0  0  0  0  0  0  0  0  0  0
  -31.3130  -13.0200   19.7040 C   0  0  0  0  0  2  0  0  0  0  0  0
  -30.4330  -12.5810   18.5060 C   0  0  0  0  0  2  0  0  0  0  0  0
  -28.9500  -12.4030   18.8920 C   0  0  0  0  0  2  0  0  0  0  0  0
  -28.4580  -13.3960   19.9750 C   0  0  0  0  0  3  0  0  0  0  0  0
  -29.4850  -13.6600   21.0830 C   0  0  0  0  0  2  0  0  0  0  0  0
  -30.6770  -14.1950   20.4120 N   0  0  0  0  0  0  0  0  0  0  0  0
  -32.3940  -15.5670   20.3180 O   0  0  0  0  0  0  0  0  0  0  0  0
  -26.1030  -13.9250   20.7900 C   0  0  0  0  0  0  0  0  0  0  0  0
  -25.0420  -13.1300   21.1320 C   0  0  0  0  0  0  0  0  0  0  0  0
  -25.5090  -11.7840   21.0340 C   0  0  0  0  0  0  0  0  0  0  0  0
  -27.1390  -13.0570   20.4930 N   0  0  0  0  0  0  0  0  0  0  0  0
  -26.7970  -11.7630   20.7160 N   0  0  0  0  0  0  0  0  0  0  0  0
  -24.7830  -10.5130   21.1650 C   0  0  0  0  0  0  0  0  0  0  0  0
  -25.1200   -9.5730   22.1640 C   0  0  0  0  0  3  0  0  0  0  0  0
  -24.3890   -8.3710   22.2890 C   0  0  0  0  0  3  0  0  0  0  0  0
  -23.3120   -8.0990   21.4130 C   0  0  0  0  0  0  0  0  0  0  0  0
  -22.9990   -9.0290   20.4050 C   0  0  0  0  0  3  0  0  0  0  0  0
  -23.7290  -10.2210   20.2770 C   0  0  0  0  0  3  0  0  0  0  0  0
  -22.5700   -6.9430   21.4420 O   0  0  0  0  0  0  0  0  0  0  0  0
  -22.2260   -6.3360   22.6250 C   0  0  0  0  0  0  0  0  0  0  0  0
  -21.4740   -7.0080   23.6140 C   0  0  0  0  0  3  0  0  0  0  0  0
  -21.0760   -6.3250   24.7800 C   0  0  0  0  0  3  0  0  0  0  0  0
  -21.4260   -4.9730   24.9600 C   0  0  0  0  0  0  0  0  0  0  0  0
  -22.1730   -4.3020   23.9760 C   0  0  0  0  0  3  0  0  0  0  0  0
  -22.5670   -4.9810   22.8100 C   0  0  0  0  0  0  0  0  0  0  0  0
  -23.2640   -4.3210   21.8540 F   0  0  0  0  0  0  0  0  0  0  0  0
  -21.0380   -4.3170   26.0790 F   0  0  0  0  0  0  0  0  0  0  0  0
  -23.6480  -13.5950   21.4300 C   0  0  0  0  0  0  0  0  0  0  0  0
  -22.9280  -12.8690   22.2780 N   0  0  0  0  0  0  0  0  0  0  0  0
  -23.2050  -14.6340   20.9440 O   0  0  0  0  0  0  0  0  0  0  0  0
  -23.3030  -12.0280   22.6890 H   0  0  0  0  0  0  0  0  0  0  0  0
  -21.9900  -13.1590   22.5140 H   0  0  0  0  0  0  0  0  0  0  0  0
  -26.2660  -15.3030   20.6740 N   0  0  0  0  0  0  0  0  0  0  0  0
  -25.5090  -15.9570   20.8210 H   0  0  0  0  0  0  0  0  0  0  0  0
  -27.1190  -15.7590   20.3700 H   0  0  0  0  0  0  0  0  0  0  0  0
  -29.8130  -18.2140   23.0720 C   0  0  0  0  0  1  0  0  0  0  0  0
  -30.7780  -18.5450   21.9190 C   0  0  0  0  0  2  0  0  0  0  0  0
  -28.5120  -25.9640   20.0930 O   0  0  0  0  0  0  0  0  0  0  0  0
  -24.7890  -31.7530   23.2290 C   0  0  0  0  0  0  0  0  0  0  0  0
  -27.4640  -27.0180   20.1260 C   0  0  0  0  0  0  0  0  0  0  0  0
  -23.6510  -30.3920   21.5230 C   0  0  0  0  0  3  0  0  0  0  0  0
  -25.1490  -28.8590   20.0810 C   0  0  0  0  0  0  0  0  0  0  0  0
  -26.2130  -30.6530   21.4320 C   0  0  0  0  0  2  0  0  0  0  0  0
  -26.3180  -29.2640   20.7390 C   0  0  0  0  0  0  0  0  0  0  0  0
  -27.4780  -28.3680   20.7280 C   0  0  0  0  0  3  0  0  0  0  0  0
  -26.2630  -26.7550   19.4390 C   0  0  0  0  0  3  0  0  0  0  0  0
  -25.1450  -27.6280   19.4090 C   0  0  0  0  0  3  0  0  0  0  0  0
  -23.9180  -29.7600   20.1280 C   0  0  0  0  0  2  0  0  0  0  0  0
  -24.9050  -30.9570   22.1170 N   0  0  0  0  0  0  0  0  0  0  0  0
  -23.6850  -32.0080   23.7380 O   0  0  0  0  0  0  0  0  0  0  0  0
  -22.9560  -29.3520   22.4400 C   0  0  0  0  0  0  0  0  0  0  0  0
  -21.6260  -29.1980   22.3060 N   0  0  0  0  0  0  0  0  0  0  0  0
  -23.6190  -28.6880   23.2420 O   0  0  0  0  0  0  0  0  0  0  0  0
  -21.1450  -29.7870   21.6400 H   0  0  0  0  0  0  0  0  0  0  0  0
  -18.2290  -28.0240   22.8120 C   0  0  0  0  0  0  0  0  0  0  0  0
  -20.7990  -28.2280   23.0330 C   0  0  0  0  0  3  0  0  0  0  0  0
  -20.8620  -26.8340   22.3660 C   0  0  0  0  0  2  0  0  0  0  0  0
  -19.7320  -26.5970   21.3590 C   0  0  0  0  0  2  0  0  0  0  0  0
  -18.3670  -26.7210   22.0420 C   0  0  0  0  0  2  0  0  0  0  0  0
  -19.3710  -28.7390   23.2610 C   0  0  0  0  0  0  0  0  0  0  0  0
  -19.1890  -29.9600   23.9470 C   0  0  0  0  0  3  0  0  0  0  0  0
  -17.8970  -30.4660   24.1840 C   0  0  0  0  0  3  0  0  0  0  0  0
  -16.7690  -29.7490   23.7460 C   0  0  0  0  0  3  0  0  0  0  0  0
  -16.9360  -28.5300   23.0660 C   0  0  0  0  0  3  0  0  0  0  0  0
  -26.0380  -32.3930   23.9060 C   0  0  0  0  0  3  0  0  0  0  0  0
  -25.6840  -33.7690   24.3010 N   0  0  0  0  0  0  0  0  0  0  0  0
  -26.0090  -34.8720   23.6150 C   0  0  0  0  0  0  0  0  0  0  0  0
  -26.7000  -34.8430   22.5940 O   0  0  0  0  0  0  0  0  0  0  0  0
  -25.0770  -33.8630   25.1020 H   0  0  0  0  0  0  0  0  0  0  0  0
  -24.2600  -36.6630   23.3210 C   0  0  0  0  0  1  0  0  0  0  0  0
  -25.4860  -36.2260   24.1410 C   0  0  0  0  0  3  0  0  0  0  0  0
  -27.5750  -37.0990   25.0920 C   0  0  0  0  0  1  0  0  0  0  0  0
  -26.5020  -37.3020   24.1210 N   0  0  0  0  0  0  0  0  0  0  0  0
  -26.0740  -38.2040   24.3110 H   0  0  0  0  0  0  0  0  0  0  0  0
  -26.5470  -31.5800   25.1610 C   0  0  1  0  0  0  0  0  0  0  0  0
  -25.4400  -31.2830   26.1990 C   0  0  0  0  0  1  0  0  0  0  0  0
  -27.1660  -30.2290   24.7350 C   0  0  0  0  0  1  0  0  0  0  0  0
  -27.6670  -32.3690   25.8790 C   0  0  0  0  0  1  0  0  0  0  0  0
  1  8  2  0
  2  1  1  0
  3  4  1  0
  3  5  1  0
  4 56  1  0
  4  2  1  0
  5  6  1  1
  5  7  1  0
  7  9  1  0
  7  1  1  0
 10 13  2  0
 10 14  1  0
 11 18  1  0
 11 15  2  0
 12 15  1  0
 12  5  1  0
 13 11  1  0
 14 12  2  0
 15 55  1  0
 16 13  1  0
 17 14  1  0
 18 24  1  0
 19 24  1  0
 20 21  1  0
 20 19  1  0
 22 21  1  0
 22 29  1  0
 22 23  1  0
 24 23  1  0
 25 18  2  0
 26 27  2  0
 27 46  1  0
 28 27  1  0
 28 31  1  0
 29 30  1  0
 29 26  1  0
 30 28  2  0
 31 32  1  0
 32 33  2  0
 34 37  1  0
 34 33  1  0
 35 34  2  0
 36 35  1  0
 36 31  2  0
 37 38  1  0
 38 43  2  0
 38 39  1  0
 39 40  2  0
 40 41  1  0
 41 45  1  0
 42 41  2  0
 43 42  1  0
 44 43  1  0
 46 47  1  0
 47 50  1  0
 47 49  1  0
 48 46  2  0
 51 26  1  0
 51 52  1  0
 53 51  1  0
 55 54  1  0
 56 58  1  0
 57 68  2  0
 58 63  1  0
 59 67  1  0
 59 69  1  0
 60 66  1  0
 60 62  1  0
 61 67  1  0
 62 61  1  0
 63 62  2  0
 64 58  2  0
 65 64  1  0
 65 60  2  0
 66 59  1  0
 67 57  1  0
 69 71  2  0
 70 69  1  0
 72 70  1  0
 73 82  2  0
 73 78  1  0
 74 70  1  0
 74 78  1  0
 75 74  1  0
 76 77  1  0
 76 75  1  0
 77 73  1  0
 78 79  2  0
 79 80  1  0
 81 80  2  0
 82 81  1  0
 83 57  1  0
 83 84  1  0
 83 93  1  0
 84 87  1  0
 85 89  1  0
 85 84  1  0
 86 85  2  0
 89 88  1  0
 91 89  1  0
 91 92  1  0
 91 90  1  0
 93 96  1  1
 93 94  1  0
 95 93  1  0
M  ISO  4   4 101  11 100  18 100  56 101
M  END
>  <TORSDO>  (84) 
F 18

>  <SCORE>  (84) 
-9.968

>  <name>  (84) 
84

>  <ligand_id>  (84) 
84

>  <original_smiles>  (84) 
[H]c1c([H])c([H])c2c(c1[H])C([H])([H])C([H])([H])C([H])([H])C2([H])N([H])C(=O)C1([H])N(C(=O)C([H])(N([H])C(=O)C([H])(N([H])C([H])([H])[H])C([H])([H])[H])C(C([H])([H])[H])(C([H])([H])[H])C([H])([H])[H])C([H])([H])c2c([H])c(OC3([H])C([H])([H])C(=O)N([H])C(c4c(C([H])([H])[H])c([H])c(C([H])([H])[H])c(C(=O)N5C([H])([H])C([H])([H])C([H])([H])C([H])(n6nc(-c7c([H])c([H])c(Oc8c([H])c([H])c(F)c([H])c8F)c([H])c7[H])c(C(=O)N([H])[H])c6N([H])[H])C5([H])[H])c4C([H])([H])C([H])([H])[H])(C([H])([H])[H])C3([H])[H])c([H])c([H])c2C1([H])[H]

>  <smiles>  (84) 
[H]c1c([H])c([H])c2c(c1[H])C([H])([H])C([H])([H])C([H])([H])C2([H])N([H])C(=O)C1([H])N(C(=O)C([H])(N([H])C(=O)C([H])(N([H])C([H])([H])[H])C([H])([H])[H])C(C([H])([H])[H])(C([H])([H])[H])C([H])([H])[H])C([H])([H])c2c([H])c(OC3([H])C([H])([H])C(=O)N([H])C(c4c(C([H])([H])[H])c([H])c(C([H])([H])[H])c(C(=O)N5C([H])([H])C([H])([H])C([H])([H])C([H])(n6nc(-c7c([H])c([H])c(Oc8c([H])c([H])c(F)c([H])c8F)c([H])c7[H])c(C(=O)N([H])[H])c6N([H])[H])C5([H])[H])c4C([H])([H])C([H])([H])[H])(C([H])([H])[H])C3([H])[H])c([H])c([H])c2C1([H])[H]

$$$$
85:0:0
     RDKit          3D

 95104  0  0  1  0  0  0  0  0999 V2000
  -29.1700  -22.2100   19.9110 C   0  0  0  0  0  0  0  0  0  0  0  0
  -29.6980  -23.1240   18.9300 C   0  0  0  0  0  0  0  0  0  0  0  0
  -28.2700  -22.8430   20.8420 C   0  0  0  0  0  0  0  0  0  0  0  0
  -29.3670  -24.5350   18.9160 C   0  0  0  0  0  0  0  0  0  0  0  0
  -28.0570  -24.2760   20.9010 C   0  0  0  0  0  0  0  0  0  0  0  0
  -28.6020  -25.1760   19.9320 C   0  0  0  0  0  0  0  0  0  0  0  0
  -30.6370  -22.6190   17.8330 C   0  0  0  0  0  1  0  0  0  0  0  0
  -27.4330  -21.9740   21.7730 C   0  0  0  0  0  1  0  0  0  0  0  0
  -29.8210  -25.4130   17.7600 C   0  0  0  0  0  1  0  0  0  0  0  0
  -27.1920  -24.8560   22.0180 C   0  0  0  0  0  1  0  0  0  0  0  0
  -29.2030  -19.8010   18.9190 C   0  0  0  0  0  3  0  0  0  0  0  0
  -29.4550  -20.6560   19.9550 C   0  0  0  0  0  0  0  0  0  0  0  0
  -29.4280  -18.2440   18.8480 C   0  0  0  0  0  2  0  0  0  0  0  0
  -30.1450  -19.9480   21.1500 C   0  0  0  0  0  2  0  0  0  0  0  0
  -29.9240  -18.3810   21.2660 C   0  0  0  0  0  2  0  0  0  0  0  0
  -30.2530  -17.5400   19.9890 C   0  0  0  0  0  3  0  0  0  0  0  0
  -30.8210  -14.9190   19.8740 C   0  0  0  0  0  0  0  0  0  0  0  0
  -30.6150  -12.6080   18.9380 C   0  0  0  0  0  2  0  0  0  0  0  0
  -29.5940  -12.6370   17.7780 C   0  0  0  0  0  2  0  0  0  0  0  0
  -28.1640  -12.4520   18.3180 C   0  0  0  0  0  2  0  0  0  0  0  0
  -27.8590  -13.3670   19.5350 C   0  0  0  0  0  3  0  0  0  0  0  0
  -28.9870  -13.3080   20.5860 C   0  0  0  0  0  2  0  0  0  0  0  0
  -30.2340  -13.6740   19.8970 N   0  0  0  0  0  0  0  0  0  0  0  0
  -31.9730  -15.0500   19.4460 O   0  0  0  0  0  0  0  0  0  0  0  0
  -30.0220  -16.0230   20.1390 N   0  0  0  0  0  0  0  0  0  0  0  0
  -29.1040  -15.7680   20.4720 H   0  0  0  0  0  0  0  0  0  0  0  0
  -25.5470  -13.9580   20.4720 C   0  0  0  0  0  0  0  0  0  0  0  0
  -24.4980  -13.1800   20.8870 C   0  0  0  0  0  0  0  0  0  0  0  0
  -24.9360  -11.8270   20.7530 C   0  0  0  0  0  0  0  0  0  0  0  0
  -26.5530  -13.0760   20.1140 N   0  0  0  0  0  0  0  0  0  0  0  0
  -26.1980  -11.7880   20.3440 N   0  0  0  0  0  0  0  0  0  0  0  0
  -24.2070  -10.5650   20.9380 C   0  0  0  0  0  0  0  0  0  0  0  0
  -24.6260   -9.6020   21.8820 C   0  0  0  0  0  3  0  0  0  0  0  0
  -23.8970   -8.4050   22.0540 C   0  0  0  0  0  3  0  0  0  0  0  0
  -22.7350   -8.1640   21.2810 C   0  0  0  0  0  0  0  0  0  0  0  0
  -22.3340   -9.1180   20.3290 C   0  0  0  0  0  3  0  0  0  0  0  0
  -23.0640  -10.3060   20.1560 C   0  0  0  0  0  3  0  0  0  0  0  0
  -21.9810   -7.0180   21.3600 O   0  0  0  0  0  0  0  0  0  0  0  0
  -21.8200   -6.3440   22.5460 C   0  0  0  0  0  0  0  0  0  0  0  0
  -21.2250   -6.9520   23.6720 C   0  0  0  0  0  3  0  0  0  0  0  0
  -21.0160   -6.2030   24.8480 C   0  0  0  0  0  3  0  0  0  0  0  0
  -21.3860   -4.8460   24.8950 C   0  0  0  0  0  0  0  0  0  0  0  0
  -21.9740   -4.2380   23.7730 C   0  0  0  0  0  3  0  0  0  0  0  0
  -22.1860   -4.9850   22.6010 C   0  0  0  0  0  0  0  0  0  0  0  0
  -22.7320   -4.3860   21.5150 F   0  0  0  0  0  0  0  0  0  0  0  0
  -21.1780   -4.1260   26.0230 F   0  0  0  0  0  0  0  0  0  0  0  0
  -23.1350  -13.6620   21.2900 C   0  0  0  0  0  0  0  0  0  0  0  0
  -22.4650  -12.9320   22.1760 N   0  0  0  0  0  0  0  0  0  0  0  0
  -22.6770  -14.7190   20.8600 O   0  0  0  0  0  0  0  0  0  0  0  0
  -22.8480  -12.0730   22.5400 H   0  0  0  0  0  0  0  0  0  0  0  0
  -21.5580  -13.2380   22.4960 H   0  0  0  0  0  0  0  0  0  0  0  0
  -25.7200  -15.3340   20.3530 N   0  0  0  0  0  0  0  0  0  0  0  0
  -24.9840  -15.9910   20.5950 H   0  0  0  0  0  0  0  0  0  0  0  0
  -26.5460  -15.7850   19.9840 H   0  0  0  0  0  0  0  0  0  0  0  0
  -28.5350  -26.6110   19.9870 O   0  0  0  0  0  0  0  0  0  0  0  0
  -24.7240  -31.8430   23.2420 C   0  0  0  0  0  0  0  0  0  0  0  0
  -27.3890  -27.4290   19.9870 C   0  0  0  0  0  0  0  0  0  0  0  0
  -23.5460  -30.5310   21.5130 C   0  0  0  0  0  3  0  0  0  0  0  0
  -25.0180  -29.0470   20.0210 C   0  0  0  0  0  0  0  0  0  0  0  0
  -26.0870  -30.8540   21.3830 C   0  0  0  0  0  2  0  0  0  0  0  0
  -26.1770  -29.5090   20.6600 C   0  0  0  0  0  0  0  0  0  0  0  0
  -27.3600  -28.7110   20.6270 C   0  0  0  0  0  3  0  0  0  0  0  0
  -26.2100  -27.0210   19.3280 C   0  0  0  0  0  3  0  0  0  0  0  0
  -25.0370  -27.8110   19.3440 C   0  0  0  0  0  3  0  0  0  0  0  0
  -23.7790  -29.9180   20.1030 C   0  0  0  0  0  2  0  0  0  0  0  0
  -24.8060  -31.0880   22.1050 N   0  0  0  0  0  0  0  0  0  0  0  0
  -23.6320  -32.0990   23.7730 O   0  0  0  0  0  0  0  0  0  0  0  0
  -22.8650  -29.4750   22.4170 C   0  0  0  0  0  0  0  0  0  0  0  0
  -21.5410  -29.3110   22.2680 N   0  0  0  0  0  0  0  0  0  0  0  0
  -23.5310  -28.8030   23.2070 O   0  0  0  0  0  0  0  0  0  0  0  0
  -21.0600  -29.9050   21.6070 H   0  0  0  0  0  0  0  0  0  0  0  0
  -18.1560  -28.1180   22.7040 C   0  0  0  0  0  0  0  0  0  0  0  0
  -20.7170  -28.3340   22.9800 C   0  0  0  0  0  3  0  0  0  0  0  0
  -20.8030  -26.9440   22.3100 C   0  0  0  0  0  2  0  0  0  0  0  0
  -19.6970  -26.7010   21.2780 C   0  0  0  0  0  2  0  0  0  0  0  0
  -18.3160  -26.8180   21.9320 C   0  0  0  0  0  2  0  0  0  0  0  0
  -19.2840  -28.8360   23.1810 C   0  0  0  0  0  0  0  0  0  0  0  0
  -19.0810  -30.0580   23.8580 C   0  0  0  0  0  3  0  0  0  0  0  0
  -17.7840  -30.5650   24.0570 C   0  0  0  0  0  3  0  0  0  0  0  0
  -16.6690  -29.8420   23.6000 C   0  0  0  0  0  3  0  0  0  0  0  0
  -16.8570  -28.6200   22.9300 C   0  0  0  0  0  3  0  0  0  0  0  0
  -25.9970  -32.4430   23.9160 C   0  0  0  0  0  3  0  0  0  0  0  0
  -25.7130  -33.8490   24.2390 N   0  0  0  0  0  0  0  0  0  0  0  0
  -26.0620  -34.8930   23.4750 C   0  0  0  0  0  0  0  0  0  0  0  0
  -26.7260  -34.7730   22.4410 O   0  0  0  0  0  0  0  0  0  0  0  0
  -25.1040  -34.0180   25.0290 H   0  0  0  0  0  0  0  0  0  0  0  0
  -24.3430  -36.7060   23.1570 C   0  0  0  0  0  1  0  0  0  0  0  0
  -25.6060  -36.2950   23.9280 C   0  0  0  0  0  3  0  0  0  0  0  0
  -27.7690  -37.1780   24.6860 C   0  0  0  0  0  1  0  0  0  0  0  0
  -26.6460  -37.3320   23.7660 N   0  0  0  0  0  0  0  0  0  0  0  0
  -26.2520  -38.2610   23.8970 H   0  0  0  0  0  0  0  0  0  0  0  0
  -26.4440  -31.6590   25.2130 C   0  0  1  0  0  0  0  0  0  0  0  0
  -25.3040  -31.4360   26.2350 C   0  0  0  0  0  1  0  0  0  0  0  0
  -27.0190  -30.2700   24.8510 C   0  0  0  0  0  1  0  0  0  0  0  0
  -27.5840  -32.4320   25.9160 C   0  0  0  0  0  1  0  0  0  0  0  0
  1 12  1  0
  1  3  1  0
  2  1  2  0
  3  5  2  0
  3  8  1  0
  4  2  1  0
  4  6  2  0
  5 10  1  0
  6 55  1  0
  6  5  1  0
  7  2  1  0
  9  4  1  0
 11 12  2  0
 12 14  1  0
 13 11  1  0
 13 16  1  0
 14 15  1  0
 16 25  1  0
 16 15  1  0
 17 23  1  0
 17 25  1  0
 18 23  1  0
 19 20  1  0
 19 18  1  0
 21 20  1  0
 21 30  1  0
 21 22  1  0
 23 22  1  0
 24 17  2  0
 25 26  1  0
 27 28  2  0
 28 47  1  0
 29 28  1  0
 29 32  1  0
 30 31  1  0
 30 27  1  0
 31 29  2  0
 32 33  1  0
 33 34  2  0
 35 38  1  0
 35 34  1  0
 36 35  2  0
 37 36  1  0
 37 32  2  0
 38 39  1  0
 39 44  2  0
 39 40  1  0
 40 41  2  0
 41 42  1  0
 42 46  1  0
 43 42  2  0
 44 43  1  0
 45 44  1  0
 47 48  1  0
 48 51  1  0
 48 50  1  0
 49 47  2  0
 52 27  1  0
 52 53  1  0
 54 52  1  0
 55 57  1  0
 56 67  2  0
 57 62  1  0
 58 66  1  0
 58 68  1  0
 59 65  1  0
 59 61  1  0
 60 66  1  0
 61 60  1  0
 62 61  2  0
 63 64  1  0
 63 57  2  0
 64 59  2  0
 65 58  1  0
 66 56  1  0
 68 70  2  0
 69 68  1  0
 71 69  1  0
 72 81  2  0
 72 77  1  0
 73 69  1  0
 73 77  1  0
 74 73  1  0
 75 76  1  0
 75 74  1  0
 76 72  1  0
 77 78  2  0
 78 79  1  0
 80 79  2  0
 81 80  1  0
 82 56  1  0
 82 83  1  0
 82 92  1  0
 83 86  1  0
 84 88  1  0
 84 83  1  0
 85 84  2  0
 88 87  1  0
 90 91  1  0
 90 88  1  0
 90 89  1  0
 92 95  1  1
 92 93  1  0
 94 92  1  0
M  ISO  4   6 101  17 100  25 100  55 101
M  END
>  <TORSDO>  (85) 
F 17

>  <SCORE>  (85) 
-14.219

>  <name>  (85) 
85

>  <ligand_id>  (85) 
85

>  <original_smiles>  (85) 
[H]C1=C(c2c(C([H])([H])[H])c(C([H])([H])[H])c(Oc3c([H])c([H])c4c(c3[H])C([H])([H])N(C(=O)C([H])(N([H])C(=O)C([H])(N([H])C([H])([H])[H])C([H])([H])[H])C(C([H])([H])[H])(C([H])([H])[H])C([H])([H])[H])C([H])(C(=O)N([H])C3([H])c5c([H])c([H])c([H])c([H])c5C([H])([H])C([H])([H])C3([H])[H])C4([H])[H])c(C([H])([H])[H])c2C([H])([H])[H])C([H])([H])C([H])([H])C([H])(N([H])C(=O)N2C([H])([H])C([H])([H])C([H])([H])C([H])(n3nc(-c4c([H])c([H])c(Oc5c([H])c([H])c(F)c([H])c5F)c([H])c4[H])c(C(=O)N([H])[H])c3N([H])[H])C2([H])[H])C1([H])[H]

>  <smiles>  (85) 
[H]C1=C(c2c(C([H])([H])[H])c(C([H])([H])[H])c(Oc3c([H])c([H])c4c(c3[H])C([H])([H])N(C(=O)C([H])(N([H])C(=O)C([H])(N([H])C([H])([H])[H])C([H])([H])[H])C(C([H])([H])[H])(C([H])([H])[H])C([H])([H])[H])C([H])(C(=O)N([H])C3([H])c5c([H])c([H])c([H])c([H])c5C([H])([H])C([H])([H])C3([H])[H])C4([H])[H])c(C([H])([H])[H])c2C([H])([H])[H])C([H])([H])C([H])([H])C([H])(N([H])C(=O)N2C([H])([H])C([H])([H])C([H])([H])C([H])(n3nc(-c4c([H])c([H])c(Oc5c([H])c([H])c(F)c([H])c5F)c([H])c4[H])c(C(=O)N([H])[H])c3N([H])[H])C2([H])[H])C1([H])[H]

$$$$
86:0:0
     RDKit          3D

 93101  0  0  1  0  0  0  0  0999 V2000
  -29.5150  -23.3570   19.7990 C   0  0  0  0  0  3  0  0  0  0  0  0
  -29.3890  -24.6920   19.3770 C   0  0  0  0  0  3  0  0  0  0  0  0
  -29.3180  -23.0130   21.1520 C   0  0  0  0  0  0  0  0  0  0  0  0
  -28.9730  -24.0250   22.0930 C   0  0  0  0  0  0  0  0  0  0  0  0
  -28.9000  -25.3820   21.6680 C   0  0  0  0  0  0  0  0  0  0  0  0
  -29.0900  -25.7130   20.2950 C   0  0  0  0  0  0  0  0  0  0  0  0
  -28.6780  -23.6720   23.5520 C   0  0  0  0  0  1  0  0  0  0  0  0
  -28.6530  -26.4830   22.6920 C   0  0  0  0  0  1  0  0  0  0  0  0
  -29.6080  -21.6150   21.5630 C   0  0  0  0  0  0  0  0  0  0  0  0
  -30.2520  -21.3520   22.5830 O   0  0  0  0  0  0  0  0  0  0  0  0
  -29.0250  -20.5000   20.6820 C   0  0  0  0  0  2  0  0  0  0  0  0
  -29.1660  -19.0760   21.2710 C   0  0  0  0  0  2  0  0  0  0  0  0
  -30.4850  -18.3880   20.8840 C   0  0  0  0  0  2  0  0  0  0  0  0
  -30.7800  -17.1160   21.7030 C   0  0  0  0  0  2  0  0  0  0  0  0
  -31.8650  -16.2330   21.0640 C   0  0  0  0  0  2  0  0  0  0  0  0
  -31.3080  -15.4530   19.8610 C   0  0  0  0  0  2  0  0  0  0  0  0
  -31.9290  -14.0750   19.6330 C   0  0  0  0  0  0  0  0  0  0  0  0
  -31.4400  -11.7280   19.0810 C   0  0  0  0  0  2  0  0  0  0  0  0
  -30.4500  -11.6920   17.8980 C   0  0  0  0  0  2  0  0  0  0  0  0
  -28.9970  -11.7620   18.4040 C   0  0  0  0  0  2  0  0  0  0  0  0
  -28.7690  -12.9180   19.4140 C   0  0  0  0  0  3  0  0  0  0  0  0
  -29.8690  -12.9240   20.5010 C   0  0  0  0  0  2  0  0  0  0  0  0
  -31.1790  -12.9620   19.8320 N   0  0  0  0  0  0  0  0  0  0  0  0
  -33.0380  -14.0490   19.0970 O   0  0  0  0  0  0  0  0  0  0  0  0
  -26.6000  -13.9020   20.3930 C   0  0  0  0  0  0  0  0  0  0  0  0
  -25.4300  -13.3160   20.7980 C   0  0  0  0  0  0  0  0  0  0  0  0
  -25.6110  -11.9110   20.6160 C   0  0  0  0  0  0  0  0  0  0  0  0
  -27.4300  -12.8650   19.9980 N   0  0  0  0  0  0  0  0  0  0  0  0
  -26.8400  -11.6570   20.1860 N   0  0  0  0  0  0  0  0  0  0  0  0
  -24.6680  -10.7960   20.7730 C   0  0  0  0  0  0  0  0  0  0  0  0
  -24.9570   -9.6990   21.6130 C   0  0  0  0  0  3  0  0  0  0  0  0
  -24.0280   -8.6460   21.7610 C   0  0  0  0  0  3  0  0  0  0  0  0
  -22.7960   -8.6850   21.0680 C   0  0  0  0  0  0  0  0  0  0  0  0
  -22.5220   -9.7700   20.2170 C   0  0  0  0  0  3  0  0  0  0  0  0
  -23.4490  -10.8150   20.0670 C   0  0  0  0  0  3  0  0  0  0  0  0
  -21.8450   -7.6950   21.1310 O   0  0  0  0  0  0  0  0  0  0  0  0
  -21.6630   -6.9430   22.2640 C   0  0  0  0  0  0  0  0  0  0  0  0
  -21.3620   -7.5340   23.5100 C   0  0  0  0  0  3  0  0  0  0  0  0
  -21.1120   -6.7200   24.6330 C   0  0  0  0  0  3  0  0  0  0  0  0
  -21.1540   -5.3180   24.5120 C   0  0  0  0  0  0  0  0  0  0  0  0
  -21.4460   -4.7280   23.2700 C   0  0  0  0  0  3  0  0  0  0  0  0
  -21.6980   -5.5380   22.1490 C   0  0  0  0  0  0  0  0  0  0  0  0
  -21.9590   -4.9630   20.9510 F   0  0  0  0  0  0  0  0  0  0  0  0
  -20.9050   -4.5380   25.5890 F   0  0  0  0  0  0  0  0  0  0  0  0
  -24.1800  -14.0230   21.2360 C   0  0  0  0  0  0  0  0  0  0  0  0
  -23.4190  -13.4210   22.1460 N   0  0  0  0  0  0  0  0  0  0  0  0
  -23.8940  -15.1400   20.8070 O   0  0  0  0  0  0  0  0  0  0  0  0
  -23.6590  -12.5130   22.5130 H   0  0  0  0  0  0  0  0  0  0  0  0
  -22.5840  -13.8820   22.4810 H   0  0  0  0  0  0  0  0  0  0  0  0
  -27.0180  -15.2270   20.3120 N   0  0  0  0  0  0  0  0  0  0  0  0
  -26.4070  -16.0030   20.5450 H   0  0  0  0  0  0  0  0  0  0  0  0
  -27.9200  -15.5240   19.9590 H   0  0  0  0  0  0  0  0  0  0  0  0
  -29.0470  -27.0030   19.8040 O   0  0  0  0  0  0  0  0  0  0  0  0
  -25.0860  -31.6640   23.3760 C   0  0  0  0  0  0  0  0  0  0  0  0
  -27.8610  -27.6910   19.8430 C   0  0  0  0  0  0  0  0  0  0  0  0
  -23.9190  -30.4090   21.5910 C   0  0  0  0  0  3  0  0  0  0  0  0
  -25.4170  -29.0860   20.0050 C   0  0  0  0  0  0  0  0  0  0  0  0
  -26.4280  -30.8780   21.4340 C   0  0  0  0  0  2  0  0  0  0  0  0
  -26.5560  -29.5950   20.6420 C   0  0  0  0  0  0  0  0  0  0  0  0
  -27.7850  -28.9130   20.5450 C   0  0  0  0  0  3  0  0  0  0  0  0
  -26.7120  -27.1880   19.2000 C   0  0  0  0  0  3  0  0  0  0  0  0
  -25.4890  -27.8830   19.2770 C   0  0  0  0  0  3  0  0  0  0  0  0
  -24.1440  -29.8880   20.1460 C   0  0  0  0  0  2  0  0  0  0  0  0
  -25.1620  -30.9930   22.1940 N   0  0  0  0  0  0  0  0  0  0  0  0
  -23.9990  -31.8440   23.9430 O   0  0  0  0  0  0  0  0  0  0  0  0
  -23.3030  -29.2730   22.4350 C   0  0  0  0  0  0  0  0  0  0  0  0
  -21.9900  -29.0460   22.2650 N   0  0  0  0  0  0  0  0  0  0  0  0
  -24.0020  -28.6000   23.1980 O   0  0  0  0  0  0  0  0  0  0  0  0
  -21.4830  -29.6530   21.6370 H   0  0  0  0  0  0  0  0  0  0  0  0
  -18.6880  -27.6040   22.5180 C   0  0  0  0  0  0  0  0  0  0  0  0
  -21.2080  -28.0010   22.9230 C   0  0  0  0  0  3  0  0  0  0  0  0
  -21.4290  -26.6280   22.2470 C   0  0  0  0  0  2  0  0  0  0  0  0
  -20.3920  -26.3190   21.1620 C   0  0  0  0  0  2  0  0  0  0  0  0
  -18.9810  -26.3220   21.7550 C   0  0  0  0  0  2  0  0  0  0  0  0
  -19.7340  -28.4000   23.0500 C   0  0  0  0  0  0  0  0  0  0  0  0
  -19.4100  -29.6050   23.7120 C   0  0  0  0  0  3  0  0  0  0  0  0
  -18.0700  -30.0130   23.8510 C   0  0  0  0  0  3  0  0  0  0  0  0
  -17.0350  -29.2100   23.3400 C   0  0  0  0  0  3  0  0  0  0  0  0
  -17.3450  -28.0070   22.6780 C   0  0  0  0  0  3  0  0  0  0  0  0
  -26.3560  -32.2620   24.0610 C   0  0  0  0  0  3  0  0  0  0  0  0
  -26.0210  -33.6240   24.4960 N   0  0  0  0  0  0  0  0  0  0  0  0
  -26.3840  -34.7390   23.8490 C   0  0  0  0  0  0  0  0  0  0  0  0
  -27.1070  -34.7290   22.8490 O   0  0  0  0  0  0  0  0  0  0  0  0
  -25.3840  -33.7030   25.2750 H   0  0  0  0  0  0  0  0  0  0  0  0
  -24.6670  -36.5520   23.5540 C   0  0  0  0  0  1  0  0  0  0  0  0
  -25.8610  -36.0810   24.3990 C   0  0  0  0  0  3  0  0  0  0  0  0
  -27.9420  -36.8860   25.4250 C   0  0  0  0  0  1  0  0  0  0  0  0
  -26.8920  -37.1400   24.4420 N   0  0  0  0  0  0  0  0  0  0  0  0
  -26.4730  -38.0410   24.6530 H   0  0  0  0  0  0  0  0  0  0  0  0
  -26.8720  -31.3990   25.2760 C   0  0  1  0  0  0  0  0  0  0  0  0
  -25.7740  -31.0660   26.3140 C   0  0  0  0  0  1  0  0  0  0  0  0
  -27.4790  -30.0640   24.7820 C   0  0  0  0  0  1  0  0  0  0  0  0
  -28.0050  -32.1540   26.0110 C   0  0  0  0  0  1  0  0  0  0  0  0
  1  3  1  0
  2  1  2  0
  2  6  1  0
  3  9  1  0
  3  4  2  0
  4  7  1  0
  5  4  1  0
  5  8  1  0
  6  5  2  0
  9 10  2  0
 11 12  1  0
 11  9  1  0
 13 12  1  0
 13 14  1  0
 15 14  1  0
 16 15  1  0
 17 23  1  0
 17 16  1  0
 18 23  1  0
 19 20  1  0
 19 18  1  0
 21 20  1  0
 21 28  1  0
 21 22  1  0
 23 22  1  0
 24 17  2  0
 25 26  2  0
 26 45  1  0
 27 30  1  0
 27 26  1  0
 28 29  1  0
 28 25  1  0
 29 27  2  0
 30 31  1  0
 31 32  2  0
 33 36  1  0
 33 32  1  0
 34 33  2  0
 35 34  1  0
 35 30  2  0
 36 37  1  0
 37 38  1  0
 38 39  2  0
 40 39  1  0
 40 44  1  0
 41 40  2  0
 42 37  2  0
 42 41  1  0
 43 42  1  0
 45 46  1  0
 46 49  1  0
 46 48  1  0
 47 45  2  0
 50 25  1  0
 50 51  1  0
 52 50  1  0
 53 55  1  0
 53  6  1  0
 54 65  2  0
 55 60  1  0
 56 64  1  0
 56 66  1  0
 57 63  1  0
 57 59  1  0
 58 64  1  0
 59 58  1  0
 60 59  2  0
 61 62  1  0
 61 55  2  0
 62 57  2  0
 63 56  1  0
 64 54  1  0
 66 68  2  0
 67 66  1  0
 69 67  1  0
 70 79  2  0
 70 75  1  0
 71 67  1  0
 71 75  1  0
 72 71  1  0
 73 74  1  0
 73 72  1  0
 74 70  1  0
 75 76  2  0
 76 77  1  0
 78 77  2  0
 79 78  1  0
 80 54  1  0
 80 81  1  0
 80 90  1  0
 81 84  1  0
 82 86  1  0
 82 81  1  0
 83 82  2  0
 86 85  1  0
 86 88  1  0
 88 89  1  0
 88 87  1  0
 90 93  1  1
 90 91  1  0
 92 90  1  0
M  ISO  4   6 101  16 100  17 100  53 101
M  END
>  <TORSDO>  (86) 
F 23

>  <SCORE>  (86) 
-9.511

>  <name>  (86) 
86

>  <ligand_id>  (86) 
86

>  <original_smiles>  (86) 
[H]c1c([H])c([H])c2c(c1[H])C([H])([H])C([H])([H])C([H])([H])C2([H])N([H])C(=O)C1([H])N(C(=O)C([H])(N([H])C(=O)C([H])(N([H])C([H])([H])[H])C([H])([H])[H])C(C([H])([H])[H])(C([H])([H])[H])C([H])([H])[H])C([H])([H])c2c([H])c(Oc3c([H])c([H])c(C(=O)C([H])([H])C([H])([H])C([H])([H])C([H])([H])C([H])([H])C([H])([H])C(=O)N4C([H])([H])C([H])([H])C([H])([H])C([H])(n5nc(-c6c([H])c([H])c(Oc7c([H])c([H])c(F)c([H])c7F)c([H])c6[H])c(C(=O)N([H])[H])c5N([H])[H])C4([H])[H])c(C([H])([H])[H])c3C([H])([H])[H])c([H])c([H])c2C1([H])[H]

>  <smiles>  (86) 
[H]c1c([H])c([H])c2c(c1[H])C([H])([H])C([H])([H])C([H])([H])C2([H])N([H])C(=O)C1([H])N(C(=O)C([H])(N([H])C(=O)C([H])(N([H])C([H])([H])[H])C([H])([H])[H])C(C([H])([H])[H])(C([H])([H])[H])C([H])([H])[H])C([H])([H])c2c([H])c(Oc3c([H])c([H])c(C(=O)C([H])([H])C([H])([H])C([H])([H])C([H])([H])C([H])([H])C([H])([H])C(=O)N4C([H])([H])C([H])([H])C([H])([H])C([H])(n5nc(-c6c([H])c([H])c(Oc7c([H])c([H])c(F)c([H])c7F)c([H])c6[H])c(C(=O)N([H])[H])c5N([H])[H])C4([H])[H])c(C([H])([H])[H])c3C([H])([H])[H])c([H])c([H])c2C1([H])[H]

$$$$
87:0:0
     RDKit          3D

 92101  0  0  1  0  0  0  0  0999 V2000
  -29.4880  -19.1330   19.9250 C   0  0  0  0  0  0  0  0  0  0  0  0
  -29.4590  -20.4810   20.3870 N   0  0  0  0  0  0  0  0  0  0  0  0
  -28.7990  -18.8130   18.9580 O   0  0  0  0  0  0  0  0  0  0  0  0
  -30.0810  -20.6420   21.1680 H   0  0  0  0  0  0  0  0  0  0  0  0
  -31.8720  -18.1350   20.5550 C   0  0  0  0  0  2  0  0  0  0  0  0
  -29.9670  -18.2390   22.1530 C   0  0  0  0  0  2  0  0  0  0  0  0
  -32.4430  -17.0200   21.4580 C   0  0  0  0  0  2  0  0  0  0  0  0
  -30.4740  -17.0720   22.9790 C   0  0  0  0  0  2  0  0  0  0  0  0
  -30.2340  -16.2340   20.7040 C   0  0  0  0  0  3  0  0  0  0  0  0
  -30.3530  -17.9390   20.6710 C   0  0  1  0  0  0  0  0  0  0  0  0
  -31.1990  -16.2190   21.9420 C   0  0  1  0  0  0  0  0  0  0  0  0
  -31.5990  -14.8770   22.6010 C   0  0  0  0  0  1  0  0  0  0  0  0
  -30.7900  -14.9930   19.7410 C   0  0  0  0  0  0  0  0  0  0  0  0
  -30.4210  -12.7910   18.5050 C   0  0  0  0  0  2  0  0  0  0  0  0
  -29.3490  -12.9560   17.4020 C   0  0  0  0  0  2  0  0  0  0  0  0
  -27.9310  -12.7720   17.9770 C   0  0  0  0  0  2  0  0  0  0  0  0
  -27.7290  -13.5660   19.2930 C   0  0  0  0  0  3  0  0  0  0  0  0
  -28.8990  -13.3530   20.2750 C   0  0  0  0  0  2  0  0  0  0  0  0
  -30.1310  -13.7720   19.5900 N   0  0  0  0  0  0  0  0  0  0  0  0
  -31.8630  -15.1130   19.1370 O   0  0  0  0  0  0  0  0  0  0  0  0
  -25.4730  -14.1910   20.3330 C   0  0  0  0  0  0  0  0  0  0  0  0
  -24.4160  -13.4360   20.7610 C   0  0  0  0  0  0  0  0  0  0  0  0
  -24.8030  -12.0730   20.5760 C   0  0  0  0  0  0  0  0  0  0  0  0
  -26.4370  -13.2910   19.9110 N   0  0  0  0  0  0  0  0  0  0  0  0
  -26.0480  -12.0050   20.1190 N   0  0  0  0  0  0  0  0  0  0  0  0
  -24.0360  -10.8320   20.7530 C   0  0  0  0  0  0  0  0  0  0  0  0
  -24.5010   -9.7880   21.5820 C   0  0  0  0  0  3  0  0  0  0  0  0
  -23.7360   -8.6130   21.7500 C   0  0  0  0  0  3  0  0  0  0  0  0
  -22.4920   -8.4750   21.0900 C   0  0  0  0  0  0  0  0  0  0  0  0
  -22.0460   -9.5070   20.2450 C   0  0  0  0  0  3  0  0  0  0  0  0
  -22.8110  -10.6740   20.0750 C   0  0  0  0  0  3  0  0  0  0  0  0
  -21.6940   -7.3600   21.1730 O   0  0  0  0  0  0  0  0  0  0  0  0
  -21.6810   -6.5660   22.2920 C   0  0  0  0  0  0  0  0  0  0  0  0
  -21.3800   -7.0840   23.5690 C   0  0  0  0  0  3  0  0  0  0  0  0
  -21.3080   -6.2210   24.6820 C   0  0  0  0  0  3  0  0  0  0  0  0
  -21.5290   -4.8410   24.5160 C   0  0  0  0  0  0  0  0  0  0  0  0
  -21.8240   -4.3210   23.2440 C   0  0  0  0  0  3  0  0  0  0  0  0
  -21.8960   -5.1820   22.1340 C   0  0  0  0  0  0  0  0  0  0  0  0
  -22.1600   -4.6730   20.9070 F   0  0  0  0  0  0  0  0  0  0  0  0
  -21.4530   -4.0100   25.5830 F   0  0  0  0  0  0  0  0  0  0  0  0
  -23.0830  -13.9500   21.2240 C   0  0  0  0  0  0  0  0  0  0  0  0
  -22.4280  -13.2290   22.1280 N   0  0  0  0  0  0  0  0  0  0  0  0
  -22.6360  -15.0230   20.8190 O   0  0  0  0  0  0  0  0  0  0  0  0
  -22.8050  -12.3590   22.4740 H   0  0  0  0  0  0  0  0  0  0  0  0
  -21.5370  -13.5520   22.4790 H   0  0  0  0  0  0  0  0  0  0  0  0
  -25.6880  -15.5630   20.2440 N   0  0  0  0  0  0  0  0  0  0  0  0
  -24.9760  -16.2400   20.4950 H   0  0  0  0  0  0  0  0  0  0  0  0
  -26.5190  -15.9890   19.8540 H   0  0  0  0  0  0  0  0  0  0  0  0
  -28.5560  -21.7260   20.0400 C   0  0  0  0  0  2  0  0  0  0  0  0
  -28.8560  -23.3220   20.4950 C   0  0  0  0  0  3  0  0  0  0  0  0
  -27.8650  -24.6300   20.1190 C   0  0  0  0  0  3  0  0  0  0  0  0
  -28.1160  -26.1470   20.3530 O   0  0  0  0  0  0  0  0  0  0  0  0
  -24.5500  -31.9300   23.1790 C   0  0  0  0  0  0  0  0  0  0  0  0
  -27.0650  -27.1290   20.2490 C   0  0  0  0  0  0  0  0  0  0  0  0
  -23.3270  -30.5110   21.5770 C   0  0  0  0  0  3  0  0  0  0  0  0
  -24.7520  -28.8880   20.1830 C   0  0  0  0  0  0  0  0  0  0  0  0
  -25.8820  -30.7450   21.3970 C   0  0  0  0  0  2  0  0  0  0  0  0
  -25.9370  -29.3390   20.7770 C   0  0  0  0  0  0  0  0  0  0  0  0
  -27.0940  -28.4740   20.7950 C   0  0  0  0  0  3  0  0  0  0  0  0
  -25.8560  -26.7790   19.6060 C   0  0  0  0  0  3  0  0  0  0  0  0
  -24.7240  -27.6210   19.5820 C   0  0  0  0  0  3  0  0  0  0  0  0
  -23.5340  -29.7980   20.2140 C   0  0  0  0  0  2  0  0  0  0  0  0
  -24.6060  -31.0840   22.1050 N   0  0  0  0  0  0  0  0  0  0  0  0
  -23.4700  -32.2410   23.7030 O   0  0  0  0  0  0  0  0  0  0  0  0
  -22.6400  -29.5340   22.5640 C   0  0  0  0  0  0  0  0  0  0  0  0
  -21.3140  -29.3530   22.4240 N   0  0  0  0  0  0  0  0  0  0  0  0
  -23.3020  -28.9420   23.4200 O   0  0  0  0  0  0  0  0  0  0  0  0
  -20.8380  -29.8820   21.7080 H   0  0  0  0  0  0  0  0  0  0  0  0
  -17.9400  -28.1190   22.8840 C   0  0  0  0  0  0  0  0  0  0  0  0
  -20.4850  -28.4410   23.2170 C   0  0  0  0  0  3  0  0  0  0  0  0
  -20.6280  -26.9840   22.7200 C   0  0  0  0  0  2  0  0  0  0  0  0
  -19.5650  -26.5900   21.6900 C   0  0  0  0  0  2  0  0  0  0  0  0
  -18.1610  -26.7410   22.2830 C   0  0  0  0  0  2  0  0  0  0  0  0
  -19.0320  -28.9230   23.3070 C   0  0  0  0  0  0  0  0  0  0  0  0
  -18.7700  -30.2090   23.8280 C   0  0  0  0  0  3  0  0  0  0  0  0
  -17.4520  -30.6920   23.9310 C   0  0  0  0  0  3  0  0  0  0  0  0
  -16.3750  -29.8860   23.5230 C   0  0  0  0  0  3  0  0  0  0  0  0
  -16.6210  -28.6010   23.0040 C   0  0  0  0  0  3  0  0  0  0  0  0
  -25.8380  -32.5640   23.7860 C   0  0  0  0  0  3  0  0  0  0  0  0
  -26.3580  -31.8040   25.0680 C   0  0  1  0  0  0  0  0  0  0  0  0
  -25.2700  -31.5780   26.1430 C   0  0  0  0  0  1  0  0  0  0  0  0
  -26.9380  -30.4200   24.6910 C   0  0  0  0  0  1  0  0  0  0  0  0
  -27.5140  -32.6000   25.7180 C   0  0  0  0  0  1  0  0  0  0  0  0
  -25.5380  -33.9680   24.1100 N   0  0  0  0  0  0  0  0  0  0  0  0
  -25.8610  -35.0160   23.3410 C   0  0  0  0  0  0  0  0  0  0  0  0
  -26.5110  -34.9020   22.2980 O   0  0  0  0  0  0  0  0  0  0  0  0
  -24.9580  -34.1290   24.9200 H   0  0  0  0  0  0  0  0  0  0  0  0
  -24.1280  -36.8130   23.0200 C   0  0  0  0  0  1  0  0  0  0  0  0
  -25.3900  -36.4110   23.8000 C   0  0  0  0  0  3  0  0  0  0  0  0
  -27.5510  -37.2950   24.5610 C   0  0  0  0  0  1  0  0  0  0  0  0
  -26.4230  -37.4600   23.6490 N   0  0  0  0  0  0  0  0  0  0  0  0
  -26.0240  -38.3820   23.8010 H   0  0  0  0  0  0  0  0  0  0  0  0
  1  2  1  0
  2  4  1  0
  3  1  2  0
  5 10  1  0
  5  7  1  0
  6  8  1  0
  7 11  1  0
  9 13  1  0
  9 11  1  0
 10  1  1  6
 10  9  1  0
 10  6  1  0
 11 12  1  1
 11  8  1  0
 14 19  1  0
 15 16  1  0
 15 14  1  0
 17 16  1  0
 17 24  1  0
 17 18  1  0
 19 13  1  0
 19 18  1  0
 20 13  2  0
 21 22  2  0
 22 41  1  0
 23 26  1  0
 23 22  1  0
 24 25  1  0
 24 21  1  0
 25 23  2  0
 26 27  1  0
 27 28  2  0
 29 32  1  0
 29 28  1  0
 30 29  2  0
 31 30  1  0
 31 26  2  0
 32 33  1  0
 33 34  1  0
 34 35  2  0
 36 35  1  0
 36 40  1  0
 37 36  2  0
 38 33  2  0
 38 37  1  0
 39 38  1  0
 41 42  1  0
 42 44  1  0
 42 45  1  0
 43 41  2  0
 46 21  1  0
 46 47  1  0
 48 46  1  0
 49  2  1  0
 49 50  1  0
 51 52  1  0
 51 50  2  0
 53 64  2  0
 54 52  1  0
 54 59  1  0
 55 63  1  0
 55 65  1  0
 56 62  1  0
 56 58  1  0
 57 63  1  0
 58 59  2  0
 58 57  1  0
 60 54  2  0
 61 60  1  0
 61 56  2  0
 62 55  1  0
 63 53  1  0
 65 67  2  0
 66 65  1  0
 68 66  1  0
 69 78  2  0
 69 74  1  0
 70 66  1  0
 70 74  1  0
 71 70  1  0
 72 73  1  0
 72 71  1  0
 73 69  1  0
 74 75  2  0
 75 76  1  0
 77 76  2  0
 78 77  1  0
 79 53  1  0
 79 84  1  0
 79 80  1  0
 80 83  1  1
 80 81  1  0
 82 80  1  0
 84 87  1  0
 85 89  1  0
 85 84  1  0
 86 85  2  0
 89 88  1  0
 91 89  1  0
 91 92  1  0
 91 90  1  0
M  ISO  4   9 100  13 100  51 101  52 101
M  END
>  <TORSDO>  (87) 
F 20

>  <SCORE>  (87) 
-9.520

>  <name>  (87) 
87

>  <ligand_id>  (87) 
87

>  <original_smiles>  (87) 
[H]c1c([H])c([H])c2c(c1[H])C([H])([H])C([H])([H])C([H])([H])C2([H])N([H])C(=O)C1([H])N(C(=O)C([H])(N([H])C(=O)C([H])(N([H])C([H])([H])[H])C([H])([H])[H])C(C([H])([H])[H])(C([H])([H])[H])C([H])([H])[H])C([H])([H])c2c([H])c(OC([H])([H])C([H])([H])C([H])([H])N([H])C(=O)C34C([H])([H])C([H])([H])C(C([H])([H])[H])(C([H])([H])C3([H])[H])C4([H])C(=O)N3C([H])([H])C([H])([H])C([H])([H])C([H])(n4nc(-c5c([H])c([H])c(Oc6c([H])c([H])c(F)c([H])c6F)c([H])c5[H])c(C(=O)N([H])[H])c4N([H])[H])C3([H])[H])c([H])c([H])c2C1([H])[H]

>  <smiles>  (87) 
[H]c1c([H])c([H])c2c(c1[H])C([H])([H])C([H])([H])C([H])([H])C2([H])N([H])C(=O)C1([H])N(C(=O)C([H])(N([H])C(=O)C([H])(N([H])C([H])([H])[H])C([H])([H])[H])C(C([H])([H])[H])(C([H])([H])[H])C([H])([H])[H])C([H])([H])c2c([H])c(OC([H])([H])C([H])([H])C([H])([H])N([H])C(=O)C34C([H])([H])C([H])([H])C(C([H])([H])[H])(C([H])([H])C3([H])[H])C4([H])C(=O)N3C([H])([H])C([H])([H])C([H])([H])C([H])(n4nc(-c5c([H])c([H])c(Oc6c([H])c([H])c(F)c([H])c6F)c([H])c5[H])c(C(=O)N([H])[H])c4N([H])[H])C3([H])[H])c([H])c([H])c2C1([H])[H]

$$$$
88:0:0
     RDKit          3D

 98107  0  0  1  0  0  0  0  0999 V2000
  -29.0320  -19.2200   20.1760 C   0  0  0  0  0  0  0  0  0  0  0  0
  -27.9320  -18.8340   19.4810 C   0  0  0  0  0  0  0  0  0  0  0  0
  -29.4250  -20.6900   20.3150 C   0  0  0  0  0  2  0  0  0  0  0  0
  -26.9580  -19.7950   18.8190 C   0  0  0  0  0  2  0  0  0  0  0  0
  -27.1060  -21.2140   19.3890 C   0  0  0  0  0  2  0  0  0  0  0  0
  -28.5920  -21.6380   19.4240 C   0  0  0  0  0  3  0  0  0  0  0  0
  -29.7670  -23.8510   19.0710 C   0  0  0  0  0  3  0  0  0  0  0  0
  -30.0030  -25.2040   19.3780 C   0  0  0  0  0  3  0  0  0  0  0  0
  -28.1560  -23.7060   20.8960 C   0  0  0  0  0  3  0  0  0  0  0  0
  -28.8290  -23.0950   19.8120 C   0  0  0  0  0  0  0  0  0  0  0  0
  -29.2920  -25.8220   20.4250 C   0  0  0  0  0  0  0  0  0  0  0  0
  -28.3850  -25.0620   21.2030 C   0  0  0  0  0  0  0  0  0  0  0  0
  -27.7120  -25.6460   22.2250 F   0  0  0  0  0  0  0  0  0  0  0  0
  -29.4050  -27.1770   20.6050 O   0  0  0  0  0  0  0  0  0  0  0  0
  -24.9610  -31.7730   23.6690 C   0  0  0  0  0  0  0  0  0  0  0  0
  -28.2190  -27.8610   20.5070 C   0  0  0  0  0  0  0  0  0  0  0  0
  -24.0360  -30.4800   21.7730 C   0  0  0  0  0  3  0  0  0  0  0  0
  -25.7390  -29.1910   20.3850 C   0  0  0  0  0  0  0  0  0  0  0  0
  -26.5310  -31.0110   21.9000 C   0  0  0  0  0  2  0  0  0  0  0  0
  -26.7830  -29.7230   21.1530 C   0  0  0  0  0  0  0  0  0  0  0  0
  -28.0280  -29.0630   21.2170 C   0  0  0  0  0  3  0  0  0  0  0  0
  -27.1660  -27.3470   19.7150 C   0  0  0  0  0  3  0  0  0  0  0  0
  -25.9230  -28.0020   19.6640 C   0  0  0  0  0  3  0  0  0  0  0  0
  -24.4350  -29.9540   20.3710 C   0  0  0  0  0  2  0  0  0  0  0  0
  -25.1870  -31.0970   22.5090 N   0  0  0  0  0  0  0  0  0  0  0  0
  -23.8140  -31.9270   24.1080 O   0  0  0  0  0  0  0  0  0  0  0  0
  -23.3570  -29.3340   22.5530 C   0  0  0  0  0  0  0  0  0  0  0  0
  -22.0540  -29.1310   22.2980 N   0  0  0  0  0  0  0  0  0  0  0  0
  -23.9980  -28.6380   23.3450 O   0  0  0  0  0  0  0  0  0  0  0  0
  -21.6040  -29.7270   21.6170 H   0  0  0  0  0  0  0  0  0  0  0  0
  -18.6720  -27.8760   22.5120 C   0  0  0  0  0  0  0  0  0  0  0  0
  -21.2200  -28.0840   22.8870 C   0  0  0  0  0  3  0  0  0  0  0  0
  -21.3430  -26.7590   22.0910 C   0  0  0  0  0  2  0  0  0  0  0  0
  -20.2600  -26.6000   21.0150 C   0  0  0  0  0  2  0  0  0  0  0  0
  -18.8660  -26.6410   21.6470 C   0  0  0  0  0  2  0  0  0  0  0  0
  -19.7780  -28.5630   23.0800 C   0  0  0  0  0  0  0  0  0  0  0  0
  -19.5450  -29.7260   23.8440 C   0  0  0  0  0  3  0  0  0  0  0  0
  -18.2380  -30.2010   24.0510 C   0  0  0  0  0  3  0  0  0  0  0  0
  -17.1440  -29.5060   23.5050 C   0  0  0  0  0  3  0  0  0  0  0  0
  -17.3600  -28.3460   22.7390 C   0  0  0  0  0  3  0  0  0  0  0  0
  -26.1280  -32.4130   24.4860 C   0  0  0  0  0  3  0  0  0  0  0  0
  -25.8210  -33.8390   24.6510 N   0  0  0  0  0  0  0  0  0  0  0  0
  -26.2940  -34.8150   23.8640 C   0  0  0  0  0  0  0  0  0  0  0  0
  -27.1040  -34.6110   22.9550 O   0  0  0  0  0  0  0  0  0  0  0  0
  -25.1240  -34.0740   25.3420 H   0  0  0  0  0  0  0  0  0  0  0  0
  -24.6820  -36.5960   23.1220 C   0  0  0  0  0  1  0  0  0  0  0  0
  -25.7890  -36.2450   24.1290 C   0  0  0  0  0  3  0  0  0  0  0  0
  -27.8210  -37.1650   25.1570 C   0  0  0  0  0  1  0  0  0  0  0  0
  -26.8590  -37.2670   24.0640 N   0  0  0  0  0  0  0  0  0  0  0  0
  -26.4640  -38.2040   24.0740 H   0  0  0  0  0  0  0  0  0  0  0  0
  -26.3550  -31.7230   25.8860 C   0  0  1  0  0  0  0  0  0  0  0  0
  -25.0690  -31.5920   26.7320 C   0  0  0  0  0  1  0  0  0  0  0  0
  -26.9500  -30.3080   25.7040 C   0  0  0  0  0  1  0  0  0  0  0  0
  -27.3820  -32.5370   26.7110 C   0  0  0  0  0  1  0  0  0  0  0  0
  -29.7350  -18.2690   21.0250 C   0  0  0  0  0  0  0  0  0  0  0  0
  -30.7430  -17.6400   20.4040 N   0  0  0  0  0  0  0  0  0  0  0  0
  -29.4800  -18.0790   22.2170 O   0  0  0  0  0  0  0  0  0  0  0  0
  -30.9170  -17.8580   19.4310 H   0  0  0  0  0  0  0  0  0  0  0  0
  -31.6370  -16.6930   21.0690 C   0  0  0  0  0  2  0  0  0  0  0  0
  -30.9650  -15.3120   21.2550 C   0  0  0  0  0  2  0  0  0  0  0  0
  -31.2450  -14.3120   20.1200 C   0  0  0  0  0  0  0  0  0  0  0  0
  -30.7610  -12.2050   18.9370 C   0  0  0  0  0  2  0  0  0  0  0  0
  -29.7600  -12.4050   17.7870 C   0  0  0  0  0  2  0  0  0  0  0  0
  -28.3120  -12.3150   18.3020 C   0  0  0  0  0  2  0  0  0  0  0  0
  -28.0690  -13.2110   19.5480 C   0  0  0  0  0  3  0  0  0  0  0  0
  -29.1650  -12.9530   20.6070 C   0  0  0  0  0  2  0  0  0  0  0  0
  -30.4720  -13.2040   19.9760 N   0  0  0  0  0  0  0  0  0  0  0  0
  -32.2250  -14.5220   19.3950 O   0  0  0  0  0  0  0  0  0  0  0  0
  -25.7350  -13.9410   20.3670 C   0  0  0  0  0  0  0  0  0  0  0  0
  -24.6490  -13.2220   20.7890 C   0  0  0  0  0  0  0  0  0  0  0  0
  -25.0400  -11.8510   20.7360 C   0  0  0  0  0  0  0  0  0  0  0  0
  -26.7260  -13.0100   20.0910 N   0  0  0  0  0  0  0  0  0  0  0  0
  -26.3090  -11.7470   20.3630 N   0  0  0  0  0  0  0  0  0  0  0  0
  -24.2660  -10.6230   20.9630 C   0  0  0  0  0  0  0  0  0  0  0  0
  -24.6810   -9.6520   21.9020 C   0  0  0  0  0  3  0  0  0  0  0  0
  -23.9100   -8.4900   22.1180 C   0  0  0  0  0  3  0  0  0  0  0  0
  -22.7120   -8.2880   21.3940 C   0  0  0  0  0  0  0  0  0  0  0  0
  -22.3130   -9.2470   20.4470 C   0  0  0  0  0  3  0  0  0  0  0  0
  -23.0840  -10.4010   20.2290 C   0  0  0  0  0  3  0  0  0  0  0  0
  -21.9170   -7.1750   21.5160 O   0  0  0  0  0  0  0  0  0  0  0  0
  -21.8080   -6.4950   22.7030 C   0  0  0  0  0  0  0  0  0  0  0  0
  -21.3540   -7.1230   23.8820 C   0  0  0  0  0  3  0  0  0  0  0  0
  -21.1910   -6.3720   25.0620 C   0  0  0  0  0  3  0  0  0  0  0  0
  -21.4710   -4.9920   25.0640 C   0  0  0  0  0  0  0  0  0  0  0  0
  -21.9190   -4.3630   23.8890 C   0  0  0  0  0  3  0  0  0  0  0  0
  -22.0830   -5.1120   22.7100 C   0  0  0  0  0  0  0  0  0  0  0  0
  -22.4940   -4.4970   21.5740 F   0  0  0  0  0  0  0  0  0  0  0  0
  -21.3060   -4.2680   26.1940 F   0  0  0  0  0  0  0  0  0  0  0  0
  -23.2930  -13.7680   21.1360 C   0  0  0  0  0  0  0  0  0  0  0  0
  -22.5910  -13.1250   22.0600 N   0  0  0  0  0  0  0  0  0  0  0  0
  -22.8700  -14.8000   20.6200 O   0  0  0  0  0  0  0  0  0  0  0  0
  -22.9510  -12.2890   22.5000 H   0  0  0  0  0  0  0  0  0  0  0  0
  -21.6810  -13.4730   22.3310 H   0  0  0  0  0  0  0  0  0  0  0  0
  -25.9590  -15.3020   20.1810 N   0  0  0  0  0  0  0  0  0  0  0  0
  -25.2380  -15.9990   20.3240 H   0  0  0  0  0  0  0  0  0  0  0  0
  -26.8380  -15.6980   19.8720 H   0  0  0  0  0  0  0  0  0  0  0  0
  -27.5040  -17.5700   19.3340 O   0  0  0  0  0  0  0  0  0  0  0  0
  -26.8090  -17.5810   18.6880 H   0  0  0  0  0  0  0  0  0  0  0  0
  1  3  1  0
  1 55  1  0
  2  1  2  0
  4  5  1  0
  4  2  1  0
  5  6  1  0
  6 10  1  0
  6  3  1  0
  7  8  2  0
  7 10  1  0
  8 11  1  0
  9 12  1  0
 10  9  2  0
 11 14  1  0
 11 12  2  0
 12 13  1  0
 15 26  2  0
 16 14  1  0
 16 21  1  0
 17 25  1  0
 17 27  1  0
 18 20  1  0
 19 25  1  0
 20 21  2  0
 20 19  1  0
 22 16  2  0
 23 22  1  0
 23 18  2  0
 24 18  1  0
 24 17  1  0
 25 15  1  0
 27 29  2  0
 28 27  1  0
 30 28  1  0
 31 40  2  0
 31 36  1  0
 32 28  1  0
 32 36  1  0
 33 32  1  0
 34 35  1  0
 34 33  1  0
 35 31  1  0
 36 37  2  0
 37 38  1  0
 39 38  2  0
 40 39  1  0
 41 15  1  0
 41 42  1  0
 41 51  1  0
 42 45  1  0
 43 47  1  0
 43 42  1  0
 44 43  2  0
 47 46  1  0
 49 50  1  0
 49 47  1  0
 49 48  1  0
 51 54  1  1
 51 52  1  0
 53 51  1  0
 55 57  2  0
 56 55  1  0
 56 59  1  0
 58 56  1  0
 59 60  1  0
 61 60  1  0
 62 67  1  0
 63 64  1  0
 63 62  1  0
 65 64  1  0
 65 72  1  0
 65 66  1  0
 67 61  1  0
 67 66  1  0
 68 61  2  0
 69 70  2  0
 70 89  1  0
 71 70  1  0
 71 74  1  0
 72 73  1  0
 72 69  1  0
 73 71  2  0
 74 75  1  0
 75 76  2  0
 77 80  1  0
 77 76  1  0
 78 77  2  0
 79 78  1  0
 79 74  2  0
 80 81  1  0
 81 86  2  0
 81 82  1  0
 82 83  2  0
 83 84  1  0
 84 88  1  0
 85 84  2  0
 86 85  1  0
 87 86  1  0
 89 90  1  0
 90 93  1  0
 90 92  1  0
 91 89  2  0
 94 95  1  0
 94 69  1  0
 96 94  1  0
 97  2  1  0
 98 97  1  0
M  ISO  4  11 101  14 101  60 100  61 100
M  END
>  <TORSDO>  (88) 
F 21

>  <SCORE>  (88) 
-11.805

>  <name>  (88) 
88

>  <ligand_id>  (88) 
88

>  <original_smiles>  (88) 
[H]OC1=C(C(=O)N([H])C([H])([H])C([H])([H])C(=O)N2C([H])([H])C([H])([H])C([H])([H])C([H])(n3nc(-c4c([H])c([H])c(Oc5c([H])c([H])c(F)c([H])c5F)c([H])c4[H])c(C(=O)N([H])[H])c3N([H])[H])C2([H])[H])C([H])([H])C([H])(c2c([H])c([H])c(Oc3c([H])c([H])c4c(c3[H])C([H])([H])N(C(=O)C([H])(N([H])C(=O)C([H])(N([H])C([H])([H])[H])C([H])([H])[H])C(C([H])([H])[H])(C([H])([H])[H])C([H])([H])[H])C([H])(C(=O)N([H])C3([H])c5c([H])c([H])c([H])c([H])c5C([H])([H])C([H])([H])C3([H])[H])C4([H])[H])c(F)c2[H])C([H])([H])C1([H])[H]

>  <smiles>  (88) 
[H]OC1=C(C(=O)N([H])C([H])([H])C([H])([H])C(=O)N2C([H])([H])C([H])([H])C([H])([H])C([H])(n3nc(-c4c([H])c([H])c(Oc5c([H])c([H])c(F)c([H])c5F)c([H])c4[H])c(C(=O)N([H])[H])c3N([H])[H])C2([H])[H])C([H])([H])C([H])(c2c([H])c([H])c(Oc3c([H])c([H])c4c(c3[H])C([H])([H])N(C(=O)C([H])(N([H])C(=O)C([H])(N([H])C([H])([H])[H])C([H])([H])[H])C(C([H])([H])[H])(C([H])([H])[H])C([H])([H])[H])C([H])(C(=O)N([H])C3([H])c5c([H])c([H])c([H])c([H])c5C([H])([H])C([H])([H])C3([H])[H])C4([H])[H])c(F)c2[H])C([H])([H])C1([H])[H]

$$$$
89:0:0
     RDKit          3D

 92 97  0  0  1  0  0  0  0  0999 V2000
  -21.8230  -26.4550   19.8600 C   0  0  0  0  0  1  0  0  0  0  0  0
  -22.8070  -28.3080   20.5150 C   0  0  0  0  0  2  0  0  0  0  0  0
  -25.0740  -27.1210   19.5920 C   0  0  0  0  0  3  0  0  0  0  0  0
  -24.4650  -25.8560   19.0180 C   0  0  0  0  0  0  0  0  0  0  0  0
  -22.9250  -25.4750   19.1590 C   0  0  0  0  0  3  0  0  0  0  0  0
  -24.5890  -28.2720   20.4510 C   0  0  0  0  0  3  0  0  0  0  0  0
  -22.4150  -24.1690   18.5700 C   0  0  0  0  0  1  0  0  0  0  0  0
  -25.5980  -24.9670   18.2170 C   0  0  0  0  0  0  0  0  0  0  0  0
  -25.2130  -24.2040   17.3290 O   0  0  0  0  0  0  0  0  0  0  0  0
  -27.2590  -24.9490   18.4240 C   0  0  0  0  0  3  0  0  0  0  0  0
  -28.4120  -24.4750   17.2580 C   0  0  0  0  0  3  0  0  0  0  0  0
  -30.1070  -24.6950   17.2770 C   0  0  0  0  0  3  0  0  0  0  0  0
  -31.2050  -24.2950   16.0320 C   0  0  0  0  0  3  0  0  0  0  0  0
  -32.8660  -24.6840   15.8400 C   0  0  0  0  0  3  0  0  0  0  0  0
  -33.8830  -24.0170   14.6440 C   0  0  0  0  0  3  0  0  0  0  0  0
  -35.3790  -24.4360   13.9420 C   0  0  0  0  0  0  0  0  0  0  0  0
  -36.5520  -24.8890   11.6950 C   0  0  0  0  0  2  0  0  0  0  0  0
  -35.7500  -25.9780   10.9250 C   0  0  0  0  0  2  0  0  0  0  0  0
  -34.4860  -25.3940   10.2490 C   0  0  0  0  0  2  0  0  0  0  0  0
  -33.7150  -24.4550   11.2060 C   0  0  0  0  0  3  0  0  0  0  0  0
  -34.6740  -23.4100   11.7980 C   0  0  0  0  0  2  0  0  0  0  0  0
  -35.6160  -24.1640   12.6040 N   0  0  0  0  0  0  0  0  0  0  0  0
  -36.3150  -24.9970   14.5450 O   0  0  0  0  0  0  0  0  0  0  0  0
  -31.2290  -24.0970   10.7290 C   0  0  0  0  0  0  0  0  0  0  0  0
  -30.5790  -23.2220    9.9050 C   0  0  0  0  0  0  0  0  0  0  0  0
  -31.5960  -22.4140    9.3090 C   0  0  0  0  0  0  0  0  0  0  0  0
  -32.5760  -23.8040   10.5940 N   0  0  0  0  0  0  0  0  0  0  0  0
  -32.7880  -22.7390    9.7850 N   0  0  0  0  0  0  0  0  0  0  0  0
  -31.5140  -21.3960    8.2610 C   0  0  0  0  0  0  0  0  0  0  0  0
  -31.7740  -20.0360    8.5370 C   0  0  0  0  0  3  0  0  0  0  0  0
  -31.6750  -19.0710    7.5130 C   0  0  0  0  0  3  0  0  0  0  0  0
  -31.3100  -19.4610    6.2030 C   0  0  0  0  0  0  0  0  0  0  0  0
  -31.0750  -20.8200    5.9310 C   0  0  0  0  0  3  0  0  0  0  0  0
  -31.1780  -21.7820    6.9490 C   0  0  0  0  0  3  0  0  0  0  0  0
  -31.2110  -18.5980    5.1400 O   0  0  0  0  0  0  0  0  0  0  0  0
  -30.7260  -17.3240    5.2910 C   0  0  0  0  0  0  0  0  0  0  0  0
  -29.3940  -17.0760    5.6910 C   0  0  0  0  0  3  0  0  0  0  0  0
  -28.9170  -15.7530    5.7660 C   0  0  0  0  0  3  0  0  0  0  0  0
  -29.7640  -14.6790    5.4340 C   0  0  0  0  0  0  0  0  0  0  0  0
  -31.0890  -14.9240    5.0330 C   0  0  0  0  0  3  0  0  0  0  0  0
  -31.5680  -16.2440    4.9580 C   0  0  0  0  0  0  0  0  0  0  0  0
  -32.8380  -16.4770    4.5500 F   0  0  0  0  0  0  0  0  0  0  0  0
  -29.3040  -13.4080    5.4970 F   0  0  0  0  0  0  0  0  0  0  0  0
  -29.1080  -23.2040    9.6070 C   0  0  0  0  0  0  0  0  0  0  0  0
  -28.5250  -22.0190    9.4630 N   0  0  0  0  0  0  0  0  0  0  0  0
  -28.4570  -24.2460    9.5480 O   0  0  0  0  0  0  0  0  0  0  0  0
  -29.0540  -21.1620    9.5330 H   0  0  0  0  0  0  0  0  0  0  0  0
  -27.5320  -21.9690    9.2800 H   0  0  0  0  0  0  0  0  0  0  0  0
  -30.7910  -25.1310   11.5490 N   0  0  0  0  0  0  0  0  0  0  0  0
  -29.8130  -25.3960   11.5940 H   0  0  0  0  0  0  0  0  0  0  0  0
  -31.3950  -25.7620   12.0590 H   0  0  0  0  0  0  0  0  0  0  0  0
  -25.9420  -28.3640   21.4500 O   0  0  0  0  0  0  0  0  0  0  0  0
  -24.3340  -28.4610   26.6430 C   0  0  0  0  0  0  0  0  0  0  0  0
  -27.1950  -29.0740   21.7480 C   0  0  0  0  0  3  0  0  0  0  0  0
  -23.6960  -29.5170   24.5430 C   0  0  0  0  0  3  0  0  0  0  0  0
  -25.5350  -30.5100   23.0410 C   0  0  0  0  0  3  0  0  0  0  0  0
  -26.1170  -29.6460   25.3300 C   0  0  0  0  0  2  0  0  0  0  0  0
  -26.4410  -29.8120   23.8520 C   0  0  0  0  0  3  0  0  0  0  0  0
  -27.4790  -29.1580   23.1590 C   0  0  0  0  0  2  0  0  0  0  0  0
  -27.0610  -30.2980   21.1530 C   0  0  0  0  0  2  0  0  0  0  0  0
  -25.9150  -30.8810   21.7190 C   0  0  0  0  0  2  0  0  0  0  0  0
  -24.1300  -30.6450   23.5470 C   0  0  0  0  0  2  0  0  0  0  0  0
  -24.7180  -29.2280   25.5830 N   0  0  0  0  0  0  0  0  0  0  0  0
  -23.1520  -28.1090   26.7940 O   0  0  0  0  0  0  0  0  0  0  0  0
  -23.3840  -28.1590   23.8970 C   0  0  0  0  0  0  0  0  0  0  0  0
  -22.2270  -27.9680   23.3060 N   0  0  0  0  0  0  0  0  0  0  0  0
  -24.1490  -27.2150   24.0280 O   0  0  0  0  0  0  0  0  0  0  0  0
  -21.5270  -28.6960   23.3190 H   0  0  0  0  0  0  0  0  0  0  0  0
  -19.5480  -27.8540   20.9740 C   0  0  0  0  0  0  0  0  0  0  0  0
  -22.0130  -26.8400   22.3880 C   0  0  0  0  0  2  0  0  0  0  0  0
  -23.4820  -26.6470   21.0420 C   0  0  0  0  0  1  0  0  0  0  0  0
  -22.0350  -28.4680   18.6730 C   0  0  0  0  0 15  0  0  0  0  0  0
  -20.1850  -28.5700   19.4430 C   0  0  0  0  0  1  0  0  0  0  0  0
  -20.3270  -27.2420   22.1530 C   0  0  0  0  0  0  0  0  0  0  0  0
  -19.5700  -26.9820   23.3560 C   0  0  0  0  0  3  0  0  0  0  0  0
  -18.1680  -27.0450   23.4910 C   0  0  0  0  0  3  0  0  0  0  0  0
  -17.4190  -27.3340   22.3500 C   0  0  0  0  0  3  0  0  0  0  0  0
  -18.0970  -27.7190   21.1460 C   0  0  0  0  0  3  0  0  0  0  0  0
  -25.3480  -28.0110   27.7200 C   0  0  0  0  0  3  0  0  0  0  0  0
  -24.5460  -27.6930   28.9070 N   0  0  0  0  0  0  0  0  0  0  0  0
  -24.4250  -28.4950   29.9670 C   0  0  0  0  0  0  0  0  0  0  0  0
  -25.0630  -29.5440   30.0870 O   0  0  0  0  0  0  0  0  0  0  0  0
  -23.9570  -26.8750   28.8520 H   0  0  0  0  0  0  0  0  0  0  0  0
  -22.0500  -28.6190   30.7840 C   0  0  0  0  0  1  0  0  0  0  0  0
  -23.4500  -28.0570   31.0750 C   0  0  0  0  0  3  0  0  0  0  0  0
  -25.1850  -27.9220   32.8040 C   0  0  0  0  0  1  0  0  0  0  0  0
  -23.8840  -28.4670   32.4270 N   0  0  0  0  0  0  0  0  0  0  0  0
  -23.2040  -28.1800   33.1270 H   0  0  0  0  0  0  0  0  0  0  0  0
  -26.2210  -26.7670   27.2900 C   0  0  1  0  0  0  0  0  0  0  0  0
  -25.3970  -25.5480   26.8110 C   0  0  0  0  0  1  0  0  0  0  0  0
  -27.1980  -27.1450   26.1530 C   0  0  0  0  0  1  0  0  0  0  0  0
  -27.0880  -26.3180   28.4870 C   0  0  0  0  0  1  0  0  0  0  0  0
  2 71  1  0
  4  5  1  0
  4  3  2  0
  5  1  1  0
  6  3  1  0
  6  2  1  0
  6 52  1  0
  7  5  1  0
  8 10  1  0
  8  4  1  0
  9  8  2  0
 11 12  1  0
 11 10  2  0
 13 12  2  0
 14 13  1  0
 15 14  2  0
 16 23  2  0
 16 15  1  0
 17 22  1  0
 18 17  1  0
 19 18  1  0
 20 19  1  0
 20 21  1  0
 21 22  1  0
 22 16  1  0
 24 49  1  0
 25 24  2  0
 26 28  2  0
 26 25  1  0
 27 24  1  0
 27 20  1  0
 28 27  1  0
 29 30  1  0
 29 26  1  0
 31 30  2  0
 32 31  1  0
 33 32  2  0
 33 34  1  0
 34 29  2  0
 35 36  1  0
 35 32  1  0
 36 37  1  0
 37 38  2  0
 39 43  1  0
 39 38  1  0
 40 39  2  0
 41 40  1  0
 41 36  2  0
 42 41  1  0
 44 25  1  0
 45 47  1  0
 45 44  1  0
 46 44  2  0
 48 45  1  0
 49 50  1  0
 49 51  1  0
 53 64  2  0
 54 52  1  0
 54 59  1  0
 55 65  1  0
 55 63  1  0
 56 61  1  0
 56 62  1  0
 56 58  1  0
 57 63  1  0
 58 59  1  0
 58 57  1  0
 60 61  1  0
 60 54  1  0
 62 55  1  0
 63 53  1  0
 65 67  2  0
 66 68  1  0
 66 65  1  0
 69 78  2  0
 69 74  1  0
 70 66  1  0
 73 69  1  0
 74 70  1  0
 74 75  2  0
 75 76  1  0
 77 76  2  0
 78 77  1  0
 79 53  1  0
 79 80  1  0
 80 81  1  0
 81 82  2  0
 81 85  1  0
 83 80  1  0
 85 84  1  0
 85 87  1  0
 87 86  1  0
 87 88  1  0
 89 79  1  0
 89 92  1  1
 90 89  1  0
 91 89  1  0
M  ISO  4   6 101  15 100  16 100  52 101
M  END
>  <TORSDO>  (89) 
F 23

>  <SCORE>  (89) 
-3.456

>  <name>  (89) 
89

>  <ligand_id>  (89) 
89

>  <original_smiles>  (89) 
[H]c1c([H])c([H])c2c(c1[H])C([H])([H])C([H])([H])C([H])([H])C2([H])N([H])C(=O)C1([H])N(C(=O)C([H])(N([H])C(=O)C([H])(N([H])C([H])([H])[H])C([H])([H])[H])C(C([H])([H])[H])(C([H])([H])[H])C([H])([H])[H])C([H])([H])c2c([H])c(Oc3c([H])c([H])c(C([H])([H])[H])c(C(=O)C([H])([H])C([H])([H])C([H])([H])C([H])([H])C([H])([H])C([H])([H])C(=O)N4C([H])([H])C([H])([H])C([H])([H])C([H])(n5nc(-c6c([H])c([H])c(Oc7c([H])c([H])c(F)c([H])c7F)c([H])c6[H])c(C(=O)N([H])[H])c5N([H])[H])C4([H])[H])c3[H])c([H])c([H])c2C1([H])[H]

>  <smiles>  (89) 
[H]c1c([H])c([H])c2c(c1[H])C([H])([H])C([H])([H])C([H])([H])C2([H])N([H])C(=O)C1([H])N(C(=O)C([H])(N([H])C(=O)C([H])(N([H])C([H])([H])[H])C([H])([H])[H])C(C([H])([H])[H])(C([H])([H])[H])C([H])([H])[H])C([H])([H])c2c([H])c(Oc3c([H])c([H])c(C([H])([H])[H])c(C(=O)C([H])([H])C([H])([H])C([H])([H])C([H])([H])C([H])([H])C([H])([H])C(=O)N4C([H])([H])C([H])([H])C([H])([H])C([H])(n5nc(-c6c([H])c([H])c(Oc7c([H])c([H])c(F)c([H])c7F)c([H])c6[H])c(C(=O)N([H])[H])c5N([H])[H])C4([H])[H])c3[H])c([H])c([H])c2C1([H])[H]

$$$$
91:0:0
     RDKit          3D

 91 99  0  0  1  0  0  0  0  0999 V2000
  -32.6440  -20.4460   19.8560 C   0  0  0  0  0  3  0  0  0  0  0  0
  -32.4120  -21.8060   19.9150 C   0  0  0  0  0  3  0  0  0  0  0  0
  -31.5780  -19.5900   20.0630 C   0  0  0  0  0  3  0  0  0  0  0  0
  -31.1270  -22.3370   20.1450 C   0  0  0  0  0  0  0  0  0  0  0  0
  -30.2200  -19.9640   20.2020 C   0  0  0  0  0  0  0  0  0  0  0  0
  -29.9160  -21.5320   20.1720 C   0  0  0  0  0  0  0  0  0  0  0  0
  -30.9080  -24.1670   21.9500 C   0  0  0  0  0  1  0  0  0  0  0  0
  -31.1840  -23.8380   20.4650 C   0  0  0  0  0  2  0  0  0  0  0  0
  -29.5560  -18.4110   20.5280 C   0  0  0  0  0  2  0  0  0  0  0  0
  -30.5000  -17.1420   18.3460 C   0  0  0  0  0  1  0  0  0  0  0  0
  -28.3300  -16.5810   19.2220 C   0  0  0  0  0  1  0  0  0  0  0  0
  -29.7680  -16.8270   19.6790 C   0  0  2  0  0  0  0  0  0  0  0  0
  -30.4470  -15.2340   20.0720 C   0  0  0  0  0  0  0  0  0  0  0  0
  -30.3750  -12.7690   19.2750 C   0  0  0  0  0  2  0  0  0  0  0  0
  -29.4440  -12.5260   18.0600 C   0  0  0  0  0  2  0  0  0  0  0  0
  -28.0050  -12.2410   18.5270 C   0  0  0  0  0  2  0  0  0  0  0  0
  -27.5490  -13.2280   19.6250 C   0  0  0  0  0  3  0  0  0  0  0  0
  -28.6120  -13.4600   20.7200 C   0  0  0  0  0  2  0  0  0  0  0  0
  -29.8460  -13.9390   20.0670 N   0  0  0  0  0  0  0  0  0  0  0  0
  -31.6810  -15.1440   19.9970 O   0  0  0  0  0  0  0  0  0  0  0  0
  -25.1860  -13.8140   20.3850 C   0  0  0  0  0  0  0  0  0  0  0  0
  -24.1290  -13.0480   20.7760 C   0  0  0  0  0  0  0  0  0  0  0  0
  -24.5990  -11.6970   20.7730 C   0  0  0  0  0  0  0  0  0  0  0  0
  -26.2310  -12.9340   20.1590 N   0  0  0  0  0  0  0  0  0  0  0  0
  -25.8880  -11.6560   20.4590 N   0  0  0  0  0  0  0  0  0  0  0  0
  -23.8770  -10.4400   20.9880 C   0  0  0  0  0  0  0  0  0  0  0  0
  -24.3190   -9.4900   21.9330 C   0  0  0  0  0  3  0  0  0  0  0  0
  -23.5920   -8.2970   22.1380 C   0  0  0  0  0  3  0  0  0  0  0  0
  -22.4120   -8.0500   21.3990 C   0  0  0  0  0  0  0  0  0  0  0  0
  -21.9890   -8.9900   20.4430 C   0  0  0  0  0  3  0  0  0  0  0  0
  -22.7160  -10.1730   20.2360 C   0  0  0  0  0  3  0  0  0  0  0  0
  -21.6570   -6.9070   21.5130 O   0  0  0  0  0  0  0  0  0  0  0  0
  -21.6250   -6.1820   22.6760 C   0  0  0  0  0  0  0  0  0  0  0  0
  -21.2280   -6.7570   23.9030 C   0  0  0  0  0  3  0  0  0  0  0  0
  -21.1440   -5.9600   25.0610 C   0  0  0  0  0  3  0  0  0  0  0  0
  -21.4420   -4.5850   24.9940 C   0  0  0  0  0  0  0  0  0  0  0  0
  -21.8310   -4.0090   23.7720 C   0  0  0  0  0  3  0  0  0  0  0  0
  -21.9180   -4.8040   22.6160 C   0  0  0  0  0  0  0  0  0  0  0  0
  -22.2720   -4.2390   21.4370 F   0  0  0  0  0  0  0  0  0  0  0  0
  -21.3540   -3.8170   26.1030 F   0  0  0  0  0  0  0  0  0  0  0  0
  -22.7330  -13.5280   21.0450 C   0  0  0  0  0  0  0  0  0  0  0  0
  -22.0140  -12.8530   21.9320 N   0  0  0  0  0  0  0  0  0  0  0  0
  -22.2910  -14.5420   20.5040 O   0  0  0  0  0  0  0  0  0  0  0  0
  -22.3910  -12.0330   22.3860 H   0  0  0  0  0  0  0  0  0  0  0  0
  -21.0810  -13.1600   22.1660 H   0  0  0  0  0  0  0  0  0  0  0  0
  -25.3260  -15.1820   20.1720 N   0  0  0  0  0  0  0  0  0  0  0  0
  -24.5430  -15.8180   20.2760 H   0  0  0  0  0  0  0  0  0  0  0  0
  -26.1600  -15.6280   19.8130 H   0  0  0  0  0  0  0  0  0  0  0  0
  -28.5590  -22.5960   20.2930 C   0  0  0  0  0  2  0  0  0  0  0  0
  -28.0750  -24.2370   19.6630 C   0  0  0  0  0  2  0  0  0  0  0  0
  -28.2010  -25.8480   19.9610 O   0  0  0  0  0  0  0  0  0  0  0  0
  -24.5530  -31.6810   22.9750 C   0  0  0  0  0  0  0  0  0  0  0  0
  -27.1500  -26.9080   19.8640 C   0  0  0  0  0  0  0  0  0  0  0  0
  -23.3550  -30.3050   21.3150 C   0  0  0  0  0  3  0  0  0  0  0  0
  -24.8090  -28.7340   19.8540 C   0  0  0  0  0  0  0  0  0  0  0  0
  -25.9140  -30.5490   21.1540 C   0  0  0  0  0  2  0  0  0  0  0  0
  -25.9910  -29.1520   20.4760 C   0  0  0  0  0  0  0  0  0  0  0  0
  -27.1480  -28.2590   20.4590 C   0  0  0  0  0  3  0  0  0  0  0  0
  -25.9430  -26.6420   19.1740 C   0  0  0  0  0  3  0  0  0  0  0  0
  -24.8070  -27.5010   19.1770 C   0  0  0  0  0  3  0  0  0  0  0  0
  -23.5820  -29.6410   19.9260 C   0  0  0  0  0  2  0  0  0  0  0  0
  -24.6270  -30.8730   21.8700 N   0  0  0  0  0  0  0  0  0  0  0  0
  -23.4700  -31.9520   23.5150 O   0  0  0  0  0  0  0  0  0  0  0  0
  -22.6700  -29.2970   22.2760 C   0  0  0  0  0  0  0  0  0  0  0  0
  -21.3340  -29.1600   22.1910 N   0  0  0  0  0  0  0  0  0  0  0  0
  -23.3500  -28.6300   23.0610 O   0  0  0  0  0  0  0  0  0  0  0  0
  -20.8360  -29.7560   21.5440 H   0  0  0  0  0  0  0  0  0  0  0  0
  -17.9430  -28.0280   22.8210 C   0  0  0  0  0  0  0  0  0  0  0  0
  -20.5220  -28.2150   22.9680 C   0  0  0  0  0  3  0  0  0  0  0  0
  -20.5520  -26.8060   22.3330 C   0  0  0  0  0  2  0  0  0  0  0  0
  -19.3930  -26.5560   21.3620 C   0  0  0  0  0  2  0  0  0  0  0  0
  -18.0490  -26.7060   22.0790 C   0  0  0  0  0  2  0  0  0  0  0  0
  -19.1040  -28.7420   23.2240 C   0  0  0  0  0  0  0  0  0  0  0  0
  -18.9480  -29.9780   23.8880 C   0  0  0  0  0  3  0  0  0  0  0  0
  -17.6670  -30.4960   24.1530 C   0  0  0  0  0  3  0  0  0  0  0  0
  -16.5230  -29.7800   23.7610 C   0  0  0  0  0  3  0  0  0  0  0  0
  -16.6620  -28.5480   23.1000 C   0  0  0  0  0  3  0  0  0  0  0  0
  -25.8290  -32.3190   23.6040 C   0  0  0  0  0  3  0  0  0  0  0  0
  -25.4920  -33.6980   24.0020 N   0  0  0  0  0  0  0  0  0  0  0  0
  -25.8120  -34.8000   23.3090 C   0  0  0  0  0  0  0  0  0  0  0  0
  -26.4800  -34.7630   22.2730 O   0  0  0  0  0  0  0  0  0  0  0  0
  -24.8960  -33.8010   24.8120 H   0  0  0  0  0  0  0  0  0  0  0  0
  -24.0620  -36.5980   23.0780 C   0  0  0  0  0  1  0  0  0  0  0  0
  -25.3160  -36.1570   23.8510 C   0  0  0  0  0  3  0  0  0  0  0  0
  -27.4500  -37.0160   24.7080 C   0  0  0  0  0  1  0  0  0  0  0  0
  -26.3340  -37.2270   23.7900 N   0  0  0  0  0  0  0  0  0  0  0  0
  -25.9190  -38.1310   24.0020 H   0  0  0  0  0  0  0  0  0  0  0  0
  -26.3800  -31.5170   24.8480 C   0  0  1  0  0  0  0  0  0  0  0  0
  -25.3160  -31.2360   25.9340 C   0  0  0  0  0  1  0  0  0  0  0  0
  -26.9760  -30.1580   24.4140 C   0  0  0  0  0  1  0  0  0  0  0  0
  -27.5260  -32.3130   25.5150 C   0  0  0  0  0  1  0  0  0  0  0  0
  1  2  2  0
  1  3  1  0
  2  4  1  0
  3  5  2  0
  4  6  2  0
  4  8  1  0
  5  9  1  0
  6  5  1  0
  6 49  1  0
  8  7  1  0
 12 10  1  6
 11 12  1  0
 12 13  1  0
 12  9  1  0
 14 19  1  0
 15 16  1  0
 15 14  1  0
 17 16  1  0
 17 24  1  0
 17 18  1  0
 19 13  1  0
 19 18  1  0
 20 13  2  0
 21 22  2  0
 22 41  1  0
 23 22  1  0
 23 26  1  0
 24 21  1  0
 24 25  1  0
 25 23  2  0
 26 27  1  0
 27 28  2  0
 29 32  1  0
 29 28  1  0
 30 29  2  0
 31 30  1  0
 31 26  2  0
 32 33  1  0
 33 34  1  0
 34 35  2  0
 36 35  1  0
 36 40  1  0
 37 36  2  0
 38 33  2  0
 38 37  1  0
 39 38  1  0
 41 42  1  0
 42 45  1  0
 42 44  1  0
 43 41  2  0
 46 47  1  0
 46 21  1  0
 48 46  1  0
 50 51  1  0
 50 49  1  0
 52 63  2  0
 53 51  1  0
 53 58  1  0
 54 62  1  0
 54 64  1  0
 55 61  1  0
 55 57  1  0
 56 62  1  0
 57 56  1  0
 58 57  2  0
 59 60  1  0
 59 53  2  0
 60 55  2  0
 61 54  1  0
 62 52  1  0
 64 66  2  0
 65 64  1  0
 67 65  1  0
 68 77  2  0
 68 73  1  0
 69 65  1  0
 69 73  1  0
 70 69  1  0
 71 72  1  0
 71 70  1  0
 72 68  1  0
 73 74  2  0
 74 75  1  0
 76 75  2  0
 77 76  1  0
 78 52  1  0
 78 79  1  0
 78 88  1  0
 79 82  1  0
 80 84  1  0
 80 79  1  0
 81 80  2  0
 84 83  1  0
 86 84  1  0
 86 87  1  0
 86 85  1  0
 88 91  1  1
 88 89  1  0
 90 88  1  0
M  ISO  4  12 100  13 100  50 101  51 101
M  END
>  <TORSDO>  (90) 
F 21

>  <SCORE>  (90) 
-15.014

>  <name>  (90) 
91

>  <ligand_id>  (90) 
91

>  <original_smiles>  (90) 
[H]c1c([H])c([H])c2c(c1[H])C([H])([H])C([H])([H])C([H])([H])C2([H])N([H])C(=O)C1([H])N(C(=O)C([H])(N([H])C(=O)C([H])(N([H])C([H])([H])[H])C([H])([H])[H])C(C([H])([H])[H])(C([H])([H])[H])C([H])([H])[H])C([H])([H])c2c([H])c(OC([H])([H])C([H])([H])c3c(C([H])([H])C([H])([H])[H])c([H])c([H])c([H])c3C([H])([H])C(C(=O)N3C([H])([H])C([H])([H])C([H])([H])C([H])(n4nc(-c5c([H])c([H])c(Oc6c([H])c([H])c(F)c([H])c6F)c([H])c5[H])c(C(=O)N([H])[H])c4N([H])[H])C3([H])[H])(C([H])([H])[H])C([H])([H])[H])c([H])c([H])c2C1([H])[H]

>  <smiles>  (90) 
[H]c1c([H])c([H])c2c(c1[H])C([H])([H])C([H])([H])C([H])([H])C2([H])N([H])C(=O)C1([H])N(C(=O)C([H])(N([H])C(=O)C([H])(N([H])C([H])([H])[H])C([H])([H])[H])C(C([H])([H])[H])(C([H])([H])[H])C([H])([H])[H])C([H])([H])c2c([H])c(OC([H])([H])C([H])([H])c3c(C([H])([H])C([H])([H])[H])c([H])c([H])c([H])c3C([H])([H])C(C(=O)N3C([H])([H])C([H])([H])C([H])([H])C([H])(n4nc(-c5c([H])c([H])c(Oc6c([H])c([H])c(F)c([H])c6F)c([H])c5[H])c(C(=O)N([H])[H])c4N([H])[H])C3([H])[H])(C([H])([H])[H])C([H])([H])[H])c([H])c([H])c2C1([H])[H]

$$$$
92:0:0
     RDKit          3D

 92101  0  0  1  0  0  0  0  0999 V2000
  -30.5590  -15.1240   20.3240 C   0  0  0  0  0  0  0  0  0  0  0  0
  -30.4600  -12.6950   19.5090 C   0  0  0  0  0  2  0  0  0  0  0  0
  -29.5810  -12.5300   18.2490 C   0  0  0  0  0  2  0  0  0  0  0  0
  -28.1120  -12.3080   18.6490 C   0  0  0  0  0  2  0  0  0  0  0  0
  -27.6500  -13.2960   19.7520 C   0  0  0  0  0  3  0  0  0  0  0  0
  -28.6670  -13.4380   20.9040 C   0  0  0  0  0  2  0  0  0  0  0  0
  -29.9310  -13.8630   20.2950 N   0  0  0  0  0  0  0  0  0  0  0  0
  -31.7710  -15.0790   20.0710 O   0  0  0  0  0  0  0  0  0  0  0  0
  -29.6810  -23.7660   19.2510 C   0  0  0  0  0  3  0  0  0  0  0  0
  -27.9350  -20.5880   19.6550 C   0  0  0  0  0  3  0  0  0  0  0  0
  -30.3130  -22.5540   19.5790 C   0  0  0  0  0  0  0  0  0  0  0  0
  -27.3030  -21.8520   19.6660 C   0  0  0  0  0  0  0  0  0  0  0  0
  -30.0280  -21.3520   20.6120 C   0  0  0  0  0  2  0  0  0  0  0  0
  -27.5570  -23.2920   20.3710 C   0  0  0  0  0  2  0  0  0  0  0  0
  -30.1540  -19.0280   19.2100 C   0  0  0  0  0  2  0  0  0  0  0  0
  -29.1780  -18.8520   21.3660 C   0  0  0  0  0  2  0  0  0  0  0  0
  -30.0180  -17.3970   19.0470 C   0  0  0  0  0  2  0  0  0  0  0  0
  -29.0130  -17.2170   21.1640 C   0  0  0  0  0  2  0  0  0  0  0  0
  -28.2950  -24.4660   19.5470 C   0  0  0  0  0  3  0  0  0  0  0  0
  -29.2930  -19.9690   20.1930 C   0  0  2  0  0  0  0  0  0  0  0  0
  -31.6380  -22.2840   18.8790 C   0  0  0  0  0  1  0  0  0  0  0  0
  -26.0080  -21.9440   18.8720 C   0  0  0  0  0  1  0  0  0  0  0  0
  -29.8730  -16.4160   20.2030 N   0  0  0  0  0  0  0  0  0  0  0  0
  -25.2610  -13.8810   20.4300 C   0  0  0  0  0  0  0  0  0  0  0  0
  -24.1880  -13.1150   20.7890 C   0  0  0  0  0  0  0  0  0  0  0  0
  -24.6520  -11.7630   20.7980 C   0  0  0  0  0  0  0  0  0  0  0  0
  -26.3070  -12.9990   20.2320 N   0  0  0  0  0  0  0  0  0  0  0  0
  -25.9510  -11.7200   20.5230 N   0  0  0  0  0  0  0  0  0  0  0  0
  -23.9170  -10.5070   20.9960 C   0  0  0  0  0  0  0  0  0  0  0  0
  -24.3310   -9.5480   21.9470 C   0  0  0  0  0  3  0  0  0  0  0  0
  -23.5950   -8.3580   22.1330 C   0  0  0  0  0  3  0  0  0  0  0  0
  -22.4280   -8.1180   21.3690 C   0  0  0  0  0  0  0  0  0  0  0  0
  -22.0320   -9.0650   20.4070 C   0  0  0  0  0  3  0  0  0  0  0  0
  -22.7700  -10.2460   20.2190 C   0  0  0  0  0  3  0  0  0  0  0  0
  -21.6630   -6.9810   21.4640 O   0  0  0  0  0  0  0  0  0  0  0  0
  -21.6060   -6.2470   22.6210 C   0  0  0  0  0  0  0  0  0  0  0  0
  -21.2020   -6.8180   23.8470 C   0  0  0  0  0  3  0  0  0  0  0  0
  -21.0920   -6.0110   24.9980 C   0  0  0  0  0  3  0  0  0  0  0  0
  -21.3740   -4.6340   24.9220 C   0  0  0  0  0  0  0  0  0  0  0  0
  -21.7700   -4.0610   23.7000 C   0  0  0  0  0  3  0  0  0  0  0  0
  -21.8820   -4.8660   22.5520 C   0  0  0  0  0  0  0  0  0  0  0  0
  -22.2440   -4.3060   21.3740 F   0  0  0  0  0  0  0  0  0  0  0  0
  -21.2600   -3.8570   26.0240 F   0  0  0  0  0  0  0  0  0  0  0  0
  -22.7850  -13.6000   21.0070 C   0  0  0  0  0  0  0  0  0  0  0  0
  -22.0350  -12.9340   21.8770 N   0  0  0  0  0  0  0  0  0  0  0  0
  -22.3630  -14.6090   20.4420 O   0  0  0  0  0  0  0  0  0  0  0  0
  -22.3880  -12.1210   22.3600 H   0  0  0  0  0  0  0  0  0  0  0  0
  -21.0910  -13.2420   22.0650 H   0  0  0  0  0  0  0  0  0  0  0  0
  -25.4310  -15.2470   20.2270 N   0  0  0  0  0  0  0  0  0  0  0  0
  -24.6660  -15.9060   20.3110 H   0  0  0  0  0  0  0  0  0  0  0  0
  -26.2920  -15.6760   19.9130 H   0  0  0  0  0  0  0  0  0  0  0  0
  -28.3450  -26.0410   19.8620 O   0  0  0  0  0  0  0  0  0  0  0  0
  -24.7290  -31.7360   22.9910 C   0  0  0  0  0  0  0  0  0  0  0  0
  -27.2820  -27.0450   19.8080 C   0  0  0  0  0  0  0  0  0  0  0  0
  -23.5120  -30.3620   21.3450 C   0  0  0  0  0  3  0  0  0  0  0  0
  -24.9470  -28.8240   19.8520 C   0  0  0  0  0  0  0  0  0  0  0  0
  -26.0630  -30.6380   21.1410 C   0  0  0  0  0  2  0  0  0  0  0  0
  -26.1350  -29.2550   20.4520 C   0  0  0  0  0  0  0  0  0  0  0  0
  -27.2980  -28.3820   20.4090 C   0  0  0  0  0  3  0  0  0  0  0  0
  -26.0630  -26.7350   19.1680 C   0  0  0  0  0  3  0  0  0  0  0  0
  -24.9280  -27.5840   19.1920 C   0  0  0  0  0  3  0  0  0  0  0  0
  -23.7140  -29.7170   19.9460 C   0  0  0  0  0  2  0  0  0  0  0  0
  -24.7900  -30.9370   21.8800 N   0  0  0  0  0  0  0  0  0  0  0  0
  -23.6500  -31.9980   23.5450 O   0  0  0  0  0  0  0  0  0  0  0  0
  -22.8590  -29.3310   22.3000 C   0  0  0  0  0  0  0  0  0  0  0  0
  -21.5260  -29.1720   22.2190 N   0  0  0  0  0  0  0  0  0  0  0  0
  -23.5550  -28.6780   23.0820 O   0  0  0  0  0  0  0  0  0  0  0  0
  -21.0170  -29.7510   21.5660 H   0  0  0  0  0  0  0  0  0  0  0  0
  -18.1580  -27.9770   22.8290 C   0  0  0  0  0  0  0  0  0  0  0  0
  -20.7300  -28.2120   22.9890 C   0  0  0  0  0  3  0  0  0  0  0  0
  -20.7900  -26.8020   22.3540 C   0  0  0  0  0  2  0  0  0  0  0  0
  -19.6420  -26.5280   21.3790 C   0  0  0  0  0  2  0  0  0  0  0  0
  -18.2910  -26.6560   22.0900 C   0  0  0  0  0  2  0  0  0  0  0  0
  -19.3020  -28.7150   23.2360 C   0  0  0  0  0  0  0  0  0  0  0  0
  -19.1190  -29.9520   23.8920 C   0  0  0  0  0  3  0  0  0  0  0  0
  -17.8260  -30.4520   24.1410 C   0  0  0  0  0  3  0  0  0  0  0  0
  -16.6980  -29.7090   23.7490 C   0  0  0  0  0  3  0  0  0  0  0  0
  -16.8650  -28.4740   23.0990 C   0  0  0  0  0  3  0  0  0  0  0  0
  -26.0100  -32.3760   23.6080 C   0  0  0  0  0  3  0  0  0  0  0  0
  -25.6700  -33.7440   24.0360 N   0  0  0  0  0  0  0  0  0  0  0  0
  -25.9360  -34.8560   23.3370 C   0  0  0  0  0  0  0  0  0  0  0  0
  -26.5620  -34.8390   22.2740 O   0  0  0  0  0  0  0  0  0  0  0  0
  -25.1130  -33.8270   24.8730 H   0  0  0  0  0  0  0  0  0  0  0  0
  -24.1420  -36.6150   23.1840 C   0  0  0  0  0  1  0  0  0  0  0  0
  -25.4340  -36.1970   23.9060 C   0  0  0  0  0  3  0  0  0  0  0  0
  -27.5810  -37.0980   24.6860 C   0  0  0  0  0  1  0  0  0  0  0  0
  -26.4280  -37.2890   23.8120 N   0  0  0  0  0  0  0  0  0  0  0  0
  -26.0020  -38.1840   24.0380 H   0  0  0  0  0  0  0  0  0  0  0  0
  -26.5900  -31.5540   24.8240 C   0  0  1  0  0  0  0  0  0  0  0  0
  -25.5450  -31.2350   25.9190 C   0  0  0  0  0  1  0  0  0  0  0  0
  -27.1910  -30.2120   24.3480 C   0  0  0  0  0  1  0  0  0  0  0  0
  -27.7470  -32.3410   25.4830 C   0  0  0  0  0  1  0  0  0  0  0  0
  2  7  1  0
  3  4  1  0
  3  2  1  0
  5  4  1  0
  5 27  1  0
  5  6  1  0
  7  1  1  0
  7  6  1  0
  8  1  2  0
  9 19  1  0
  9 11  2  0
 10 12  2  0
 10 20  1  0
 11 13  1  0
 12 14  1  0
 17 15  1  0
 17 23  1  0
 18 16  1  0
 19 52  1  0
 19 14  1  0
 20 15  1  6
 20 13  1  0
 20 16  1  0
 21 11  1  0
 22 12  1  0
 23  1  1  0
 23 18  1  0
 24 25  2  0
 25 26  1  0
 25 44  1  0
 26 29  1  0
 27 24  1  0
 27 28  1  0
 28 26  2  0
 29 30  1  0
 30 31  2  0
 32 35  1  0
 32 31  1  0
 33 32  2  0
 34 33  1  0
 34 29  2  0
 35 36  1  0
 36 37  1  0
 37 38  2  0
 39 38  1  0
 39 43  1  0
 40 39  2  0
 41 36  2  0
 41 40  1  0
 42 41  1  0
 44 45  1  0
 45 48  1  0
 45 47  1  0
 46 44  2  0
 49 50  1  0
 49 24  1  0
 51 49  1  0
 53 64  2  0
 54 52  1  0
 54 59  1  0
 55 63  1  0
 55 65  1  0
 56 62  1  0
 56 58  1  0
 57 63  1  0
 58 57  1  0
 59 58  2  0
 60 61  1  0
 60 54  2  0
 61 56  2  0
 62 55  1  0
 63 53  1  0
 65 67  2  0
 66 65  1  0
 68 66  1  0
 69 78  2  0
 69 74  1  0
 70 66  1  0
 70 74  1  0
 71 70  1  0
 72 73  1  0
 72 71  1  0
 73 69  1  0
 74 75  2  0
 75 76  1  0
 77 76  2  0
 78 77  1  0
 79 53  1  0
 79 80  1  0
 79 89  1  0
 80 83  1  0
 81 85  1  0
 81 80  1  0
 82 81  2  0
 85 84  1  0
 87 85  1  0
 87 88  1  0
 87 86  1  0
 89 92  1  1
 89 90  1  0
 91 89  1  0
M  ISO  4   1 100  19 101  23 100  52 101
M  END
>  <TORSDO>  (91) 
F 15

>  <SCORE>  (91) 
-14.898

>  <name>  (91) 
92

>  <ligand_id>  (91) 
92

>  <original_smiles>  (91) 
[H]C1=C(C([H])([H])[H])C([H])([H])C2(C([H])=C(C([H])([H])[H])C([H])([H])C1([H])Oc1c([H])c([H])c3c(c1[H])C([H])([H])N(C(=O)C([H])(N([H])C(=O)C([H])(N([H])C([H])([H])[H])C([H])([H])[H])C(C([H])([H])[H])(C([H])([H])[H])C([H])([H])[H])C([H])(C(=O)N([H])C1([H])c4c([H])c([H])c([H])c([H])c4C([H])([H])C([H])([H])C1([H])[H])C3([H])[H])C([H])([H])C([H])([H])N(C(=O)N1C([H])([H])C([H])([H])C([H])([H])C([H])(n3nc(-c4c([H])c([H])c(Oc5c([H])c([H])c(F)c([H])c5F)c([H])c4[H])c(C(=O)N([H])[H])c3N([H])[H])C1([H])[H])C([H])([H])C2([H])[H]

>  <smiles>  (91) 
[H]C1=C(C([H])([H])[H])C([H])([H])C2(C([H])=C(C([H])([H])[H])C([H])([H])C1([H])Oc1c([H])c([H])c3c(c1[H])C([H])([H])N(C(=O)C([H])(N([H])C(=O)C([H])(N([H])C([H])([H])[H])C([H])([H])[H])C(C([H])([H])[H])(C([H])([H])[H])C([H])([H])[H])C([H])(C(=O)N([H])C1([H])c4c([H])c([H])c([H])c([H])c4C([H])([H])C([H])([H])C1([H])[H])C3([H])[H])C([H])([H])C([H])([H])N(C(=O)N1C([H])([H])C([H])([H])C([H])([H])C([H])(n3nc(-c4c([H])c([H])c(Oc5c([H])c([H])c(F)c([H])c5F)c([H])c4[H])c(C(=O)N([H])[H])c3N([H])[H])C1([H])[H])C([H])([H])C2([H])[H]

$$$$
93:0:0
     RDKit          3D

 94103  0  0  1  0  0  0  0  0999 V2000
  -26.5730  -22.6690   21.0750 C   0  0  0  0  0  3  0  0  0  0  0  0
  -29.1700  -23.4540   20.4360 C   0  0  0  0  0  3  0  0  0  0  0  0
  -27.4910  -21.6960   20.6360 C   0  0  0  0  0  0  0  0  0  0  0  0
  -26.9480  -24.0190   21.2540 C   0  0  0  0  0  0  0  0  0  0  0  0
  -28.8270  -22.0760   20.3700 C   0  0  0  0  0  0  0  0  0  0  0  0
  -28.2540  -24.4490   20.8890 C   0  0  0  0  0  0  0  0  0  0  0  0
  -27.0150  -20.2530   20.4920 C   0  0  0  0  0  1  0  0  0  0  0  0
  -25.9200  -24.9270   21.9040 C   0  0  0  0  0  1  0  0  0  0  0  0
  -29.9100  -21.0020   20.1630 C   0  0  0  0  0  2  0  0  0  0  0  0
  -29.8340  -20.1700   18.8580 C   0  0  0  0  0  2  0  0  0  0  0  0
  -31.1480  -15.0090   20.4510 C   0  0  0  0  0  0  0  0  0  0  0  0
  -30.8570  -12.7010   19.6050 C   0  0  0  0  0  2  0  0  0  0  0  0
  -30.0050  -12.6970   18.3120 C   0  0  0  0  0  2  0  0  0  0  0  0
  -28.5060  -13.0070   18.5480 C   0  0  0  0  0  2  0  0  0  0  0  0
  -28.1460  -13.0820   20.0420 C   0  0  0  0  0  3  0  0  0  0  0  0
  -29.1220  -13.6670   21.0610 C   0  0  0  0  0  2  0  0  0  0  0  0
  -30.4280  -13.8530   20.4250 N   0  0  0  0  0  0  0  0  0  0  0  0
  -32.3690  -14.9920   20.2910 O   0  0  0  0  0  0  0  0  0  0  0  0
  -29.4630  -17.5390   18.6660 C   0  0  0  0  0  2  0  0  0  0  0  0
  -31.5690  -18.3940   19.8850 C   0  0  0  0  0  2  0  0  0  0  0  0
  -29.2300  -16.6170   19.8920 C   0  0  0  0  0  2  0  0  0  0  0  0
  -31.1400  -17.4480   21.0420 C   0  0  0  0  0  2  0  0  0  0  0  0
  -30.4550  -18.7240   18.8560 C   0  0  0  0  0  3  0  0  0  0  0  0
  -30.4890  -16.2190   20.5560 N   0  0  0  0  0  0  0  0  0  0  0  0
  -25.7380  -14.1210   20.4940 C   0  0  0  0  0  0  0  0  0  0  0  0
  -24.5960  -13.4290   20.8180 C   0  0  0  0  0  0  0  0  0  0  0  0
  -24.9640  -12.0520   20.8210 C   0  0  0  0  0  0  0  0  0  0  0  0
  -26.7280  -13.1390   20.3630 N   0  0  0  0  0  0  0  0  0  0  0  0
  -26.2340  -11.9120   20.5790 N   0  0  0  0  0  0  0  0  0  0  0  0
  -24.2130  -10.8190   20.9800 C   0  0  0  0  0  0  0  0  0  0  0  0
  -24.5940   -9.8600   21.9430 C   0  0  0  0  0  3  0  0  0  0  0  0
  -23.8690   -8.6600   22.0720 C   0  0  0  0  0  3  0  0  0  0  0  0
  -22.7520   -8.4210   21.2390 C   0  0  0  0  0  0  0  0  0  0  0  0
  -22.4020   -9.3650   20.2580 C   0  0  0  0  0  3  0  0  0  0  0  0
  -23.1290  -10.5550   20.1240 C   0  0  0  0  0  3  0  0  0  0  0  0
  -21.9930   -7.2790   21.2780 O   0  0  0  0  0  0  0  0  0  0  0  0
  -21.8110   -6.5840   22.4450 C   0  0  0  0  0  0  0  0  0  0  0  0
  -21.2450   -7.1880   23.5880 C   0  0  0  0  0  3  0  0  0  0  0  0
  -21.0180   -6.4180   24.7460 C   0  0  0  0  0  3  0  0  0  0  0  0
  -21.3360   -5.0480   24.7550 C   0  0  0  0  0  0  0  0  0  0  0  0
  -21.8900   -4.4440   23.6120 C   0  0  0  0  0  3  0  0  0  0  0  0
  -22.1260   -5.2130   22.4590 C   0  0  0  0  0  0  0  0  0  0  0  0
  -22.6440   -4.6280   21.3510 F   0  0  0  0  0  0  0  0  0  0  0  0
  -21.1030   -4.3050   25.8610 F   0  0  0  0  0  0  0  0  0  0  0  0
  -23.2070  -13.9610   21.0350 C   0  0  0  0  0  0  0  0  0  0  0  0
  -22.4200  -13.2900   21.8710 N   0  0  0  0  0  0  0  0  0  0  0  0
  -22.8230  -14.9990   20.4940 O   0  0  0  0  0  0  0  0  0  0  0  0
  -22.7390  -12.4500   22.3320 H   0  0  0  0  0  0  0  0  0  0  0  0
  -21.4860  -13.6200   22.0590 H   0  0  0  0  0  0  0  0  0  0  0  0
  -26.0030  -15.4740   20.2980 N   0  0  0  0  0  0  0  0  0  0  0  0
  -26.8780  -15.8070   19.9140 H   0  0  0  0  0  0  0  0  0  0  0  0
  -25.2790  -16.1830   20.3090 H   0  0  0  0  0  0  0  0  0  0  0  0
  -28.7560  -25.8970   21.1300 C   0  0  0  0  0  2  0  0  0  0  0  0
  -28.4830  -26.8870   20.1200 O   0  0  0  0  0  0  0  0  0  0  0  0
  -24.5320  -31.9860   23.2970 C   0  0  0  0  0  0  0  0  0  0  0  0
  -27.3140  -27.6130   20.2060 C   0  0  0  0  0  0  0  0  0  0  0  0
  -23.3940  -30.6110   21.5880 C   0  0  0  0  0  3  0  0  0  0  0  0
  -24.9080  -29.1090   20.1840 C   0  0  0  0  0  0  0  0  0  0  0  0
  -25.9240  -30.9840   21.4870 C   0  0  0  0  0  2  0  0  0  0  0  0
  -26.0440  -29.6230   20.8250 C   0  0  0  0  0  0  0  0  0  0  0  0
  -27.2510  -28.8840   20.8330 C   0  0  0  0  0  3  0  0  0  0  0  0
  -26.1650  -27.1190   19.5600 C   0  0  0  0  0  3  0  0  0  0  0  0
  -24.9630  -27.8530   19.5530 C   0  0  0  0  0  3  0  0  0  0  0  0
  -23.6570  -29.9650   20.2040 C   0  0  0  0  0  2  0  0  0  0  0  0
  -24.6320  -31.2100   22.1800 N   0  0  0  0  0  0  0  0  0  0  0  0
  -23.4340  -32.2370   23.8100 O   0  0  0  0  0  0  0  0  0  0  0  0
  -22.7220  -29.5650   22.5060 C   0  0  0  0  0  0  0  0  0  0  0  0
  -21.4050  -29.3690   22.3280 N   0  0  0  0  0  0  0  0  0  0  0  0
  -23.3830  -28.9350   23.3350 O   0  0  0  0  0  0  0  0  0  0  0  0
  -20.9330  -29.9310   21.6340 H   0  0  0  0  0  0  0  0  0  0  0  0
  -18.0280  -28.1340   22.6900 C   0  0  0  0  0  0  0  0  0  0  0  0
  -20.5730  -28.4080   23.0500 C   0  0  0  0  0  3  0  0  0  0  0  0
  -20.7080  -26.9920   22.4490 C   0  0  0  0  0  2  0  0  0  0  0  0
  -19.6430  -26.6830   21.3910 C   0  0  0  0  0  2  0  0  0  0  0  0
  -18.2390  -26.8020   21.9920 C   0  0  0  0  0  2  0  0  0  0  0  0
  -19.1250  -28.8950   23.1740 C   0  0  0  0  0  0  0  0  0  0  0  0
  -18.8770  -30.1450   23.7840 C   0  0  0  0  0  3  0  0  0  0  0  0
  -17.5640  -30.6330   23.9160 C   0  0  0  0  0  3  0  0  0  0  0  0
  -16.4790  -29.8680   23.4490 C   0  0  0  0  0  3  0  0  0  0  0  0
  -16.7130  -28.6200   22.8430 C   0  0  0  0  0  3  0  0  0  0  0  0
  -25.7920  -32.6170   23.9680 C   0  0  0  0  0  3  0  0  0  0  0  0
  -26.2440  -31.8600   25.2780 C   0  0  1  0  0  0  0  0  0  0  0  0
  -25.0990  -31.6220   26.2880 C   0  0  0  0  0  1  0  0  0  0  0  0
  -26.8580  -30.4840   24.9290 C   0  0  0  0  0  1  0  0  0  0  0  0
  -27.3480  -32.6690   25.9990 C   0  0  0  0  0  1  0  0  0  0  0  0
  -25.4760  -34.0220   24.2620 N   0  0  0  0  0  0  0  0  0  0  0  0
  -25.8560  -35.0600   23.5050 C   0  0  0  0  0  0  0  0  0  0  0  0
  -26.5750  -34.9380   22.5110 O   0  0  0  0  0  0  0  0  0  0  0  0
  -24.8340  -34.1900   25.0220 H   0  0  0  0  0  0  0  0  0  0  0  0
  -24.1540  -36.8560   23.0480 C   0  0  0  0  0  1  0  0  0  0  0  0
  -25.3560  -36.4570   23.9190 C   0  0  0  0  0  3  0  0  0  0  0  0
  -27.4600  -37.3480   24.8230 C   0  0  0  0  0  1  0  0  0  0  0  0
  -26.3990  -37.5030   23.8310 N   0  0  0  0  0  0  0  0  0  0  0  0
  -25.9920  -38.4290   23.9440 H   0  0  0  0  0  0  0  0  0  0  0  0
  1  4  1  0
  2  6  1  0
  3  1  2  0
  4  8  1  0
  5  2  2  0
  5  3  1  0
  6 53  1  0
  6  4  2  0
  7  3  1  0
  9  5  1  0
 10  9  1  0
 11 24  1  0
 12 17  1  0
 13 14  1  0
 13 12  1  0
 15 14  1  0
 15 28  1  0
 15 16  1  0
 17 11  1  0
 17 16  1  0
 18 11  2  0
 19 23  1  0
 19 21  1  0
 20 22  1  0
 21 24  1  0
 23 10  1  0
 23 20  1  0
 24 22  1  0
 25 26  2  0
 26 27  1  0
 26 45  1  0
 27 30  1  0
 28 25  1  0
 28 29  1  0
 29 27  2  0
 30 31  1  0
 31 32  2  0
 33 36  1  0
 33 32  1  0
 34 33  2  0
 35 34  1  0
 35 30  2  0
 36 37  1  0
 37 42  2  0
 37 38  1  0
 38 39  2  0
 39 40  1  0
 40 44  1  0
 41 40  2  0
 42 41  1  0
 43 42  1  0
 45 46  1  0
 46 49  1  0
 46 48  1  0
 47 45  2  0
 50 52  1  0
 50 25  1  0
 51 50  1  0
 54 56  1  0
 54 53  1  0
 55 66  2  0
 56 61  1  0
 57 65  1  0
 57 67  1  0
 58 64  1  0
 58 60  1  0
 59 65  1  0
 60 61  2  0
 60 59  1  0
 62 56  2  0
 63 62  1  0
 63 58  2  0
 64 57  1  0
 65 55  1  0
 67 69  2  0
 68 67  1  0
 70 68  1  0
 71 80  2  0
 71 76  1  0
 72 68  1  0
 72 76  1  0
 73 72  1  0
 74 75  1  0
 74 73  1  0
 75 71  1  0
 76 77  2  0
 77 78  1  0
 79 78  2  0
 80 79  1  0
 81 55  1  0
 81 86  1  0
 81 82  1  0
 82 85  1  1
 82 83  1  0
 84 82  1  0
 86 89  1  0
 87 91  1  0
 87 86  1  0
 88 87  2  0
 91 90  1  0
 93 91  1  0
 93 94  1  0
 93 92  1  0
M  ISO  4  11 100  24 100  53 101  54 101
M  END
>  <TORSDO>  (92) 
F 19

>  <SCORE>  (92) 
-12.758

>  <name>  (92) 
93

>  <ligand_id>  (92) 
93

>  <original_smiles>  (92) 
[H]c1c([H])c([H])c2c(c1[H])C([H])([H])C([H])([H])C([H])([H])C2([H])N([H])C(=O)C1([H])N(C(=O)C([H])(N([H])C(=O)C([H])(N([H])C([H])([H])[H])C([H])([H])[H])C(C([H])([H])[H])(C([H])([H])[H])C([H])([H])[H])C([H])([H])c2c([H])c(OC([H])([H])c3c([H])c(C([H])([H])C([H])([H])C4([H])C([H])([H])C([H])([H])N(C(=O)N5C([H])([H])C([H])([H])C([H])([H])C([H])(n6nc(-c7c([H])c([H])c(Oc8c([H])c([H])c(F)c([H])c8F)c([H])c7[H])c(C(=O)N([H])[H])c6N([H])[H])C5([H])[H])C([H])([H])C4([H])[H])c(C([H])([H])[H])c([H])c3C([H])([H])[H])c([H])c([H])c2C1([H])[H]

>  <smiles>  (92) 
[H]c1c([H])c([H])c2c(c1[H])C([H])([H])C([H])([H])C([H])([H])C2([H])N([H])C(=O)C1([H])N(C(=O)C([H])(N([H])C(=O)C([H])(N([H])C([H])([H])[H])C([H])([H])[H])C(C([H])([H])[H])(C([H])([H])[H])C([H])([H])[H])C([H])([H])c2c([H])c(OC([H])([H])c3c([H])c(C([H])([H])C([H])([H])C4([H])C([H])([H])C([H])([H])N(C(=O)N5C([H])([H])C([H])([H])C([H])([H])C([H])(n6nc(-c7c([H])c([H])c(Oc8c([H])c([H])c(F)c([H])c8F)c([H])c7[H])c(C(=O)N([H])[H])c6N([H])[H])C5([H])[H])C([H])([H])C4([H])[H])c(C([H])([H])[H])c([H])c3C([H])([H])[H])c([H])c([H])c2C1([H])[H]

$$$$
