0:0:0
     RDKit          3D

 97106  0  0  1  0  0  0  0  0999 V2000
  -30.4890  -22.1530   22.6670 C   0  0  0  0  0  3  0  0  0  0  0  0
  -31.6540  -21.3880   22.4860 C   0  0  0  0  0  3  0  0  0  0  0  0
  -29.2080  -20.4500   21.4910 C   0  0  0  0  0  3  0  0  0  0  0  0
  -29.2690  -21.7100   22.1260 C   0  0  0  0  0  0  0  0  0  0  0  0
  -31.6240  -20.1830   21.7490 C   0  0  0  0  0  0  0  0  0  0  0  0
  -30.3750  -19.6740   21.2930 C   0  0  0  0  0  0  0  0  0  0  0  0
  -32.9670  -19.5430   21.3970 C   0  0  0  0  0  2  0  0  0  0  0  0
  -33.4970  -19.9220   19.9950 C   0  0  0  0  0  2  0  0  0  0  0  0
  -34.0210  -21.7310   18.2740 C   0  0  0  0  0  1  0  0  0  0  0  0
  -33.5790  -21.4310   19.7120 C   0  0  0  0  0  2  0  0  0  0  0  0
  -30.2620  -18.4430   20.3970 C   0  0  0  0  0  2  0  0  0  0  0  0
  -30.5230  -17.0230   20.9920 C   0  0  0  0  0  2  0  0  0  0  0  0
  -31.0100  -16.7150   17.8160 C   0  0  0  0  0  2  0  0  0  0  0  0
  -29.9950  -15.9220   18.6270 C   0  0  0  0  0  2  0  0  0  0  0  0
  -32.0190  -16.3680   18.9040 C   0  0  0  0  0  2  0  0  0  0  0  0
  -30.8800  -15.9620   19.9080 C   0  0  1  0  0  0  0  0  0  0  0  0
  -31.3310  -14.5920   20.5490 C   0  0  0  0  0  0  0  0  0  0  0  0
  -30.9690  -12.3030   19.7970 C   0  0  0  0  0  2  0  0  0  0  0  0
  -30.1540  -12.3220   18.4910 C   0  0  0  0  0  2  0  0  0  0  0  0
  -28.6360  -12.3570   18.7910 C   0  0  0  0  0  2  0  0  0  0  0  0
  -28.2100  -13.3250   19.9350 C   0  0  0  0  0  3  0  0  0  0  0  0
  -29.1990  -13.3310   21.1160 C   0  0  0  0  0  2  0  0  0  0  0  0
  -30.5590  -13.4710   20.5860 N   0  0  0  0  0  0  0  0  0  0  0  0
  -32.5490  -14.5010   20.6850 O   0  0  0  0  0  0  0  0  0  0  0  0
  -25.8110  -14.0510   20.4690 C   0  0  0  0  0  0  0  0  0  0  0  0
  -24.6890  -13.3370   20.7810 C   0  0  0  0  0  0  0  0  0  0  0  0
  -25.0970  -11.9680   20.8410 C   0  0  0  0  0  0  0  0  0  0  0  0
  -26.8300  -13.1190   20.3520 N   0  0  0  0  0  0  0  0  0  0  0  0
  -26.4040  -11.8650   20.6410 N   0  0  0  0  0  0  0  0  0  0  0  0
  -24.3120  -10.7440   21.0190 C   0  0  0  0  0  0  0  0  0  0  0  0
  -24.6570   -9.7830   21.9960 C   0  0  0  0  0  3  0  0  0  0  0  0
  -23.8760   -8.6220   22.1620 C   0  0  0  0  0  3  0  0  0  0  0  0
  -22.7350   -8.4120   21.3500 C   0  0  0  0  0  0  0  0  0  0  0  0
  -22.4100   -9.3600   20.3650 C   0  0  0  0  0  3  0  0  0  0  0  0
  -23.1920  -10.5140   20.1960 C   0  0  0  0  0  3  0  0  0  0  0  0
  -21.9300   -7.3010   21.4260 O   0  0  0  0  0  0  0  0  0  0  0  0
  -21.8070   -6.5810   22.5880 C   0  0  0  0  0  0  0  0  0  0  0  0
  -21.3750   -7.1770   23.7920 C   0  0  0  0  0  3  0  0  0  0  0  0
  -21.1950   -6.3860   24.9450 C   0  0  0  0  0  3  0  0  0  0  0  0
  -21.4380   -5.0000   24.8920 C   0  0  0  0  0  0  0  0  0  0  0  0
  -21.8650   -4.4040   23.6910 C   0  0  0  0  0  3  0  0  0  0  0  0
  -22.0460   -5.1930   22.5420 C   0  0  0  0  0  0  0  0  0  0  0  0
  -22.4360   -4.6110   21.3830 F   0  0  0  0  0  0  0  0  0  0  0  0
  -21.2570   -4.2370   25.9950 F   0  0  0  0  0  0  0  0  0  0  0  0
  -23.2950  -13.8770   20.9210 C   0  0  0  0  0  0  0  0  0  0  0  0
  -22.4780  -13.2520   21.7600 N   0  0  0  0  0  0  0  0  0  0  0  0
  -22.9390  -14.8900   20.3190 O   0  0  0  0  0  0  0  0  0  0  0  0
  -22.7810  -12.4320   22.2680 H   0  0  0  0  0  0  0  0  0  0  0  0
  -21.5400  -13.5960   21.8990 H   0  0  0  0  0  0  0  0  0  0  0  0
  -26.0430  -15.4070   20.2510 N   0  0  0  0  0  0  0  0  0  0  0  0
  -25.3000  -16.0970   20.2850 H   0  0  0  0  0  0  0  0  0  0  0  0
  -26.9400  -15.8010   19.9980 H   0  0  0  0  0  0  0  0  0  0  0  0
  -28.0470  -22.6150   22.1610 C   0  0  0  0  0  2  0  0  0  0  0  0
  -27.9720  -23.4430   20.9980 O   0  0  0  0  0  0  0  0  0  0  0  0
  -28.5820  -24.7240   21.1410 C   0  0  0  0  0  2  0  0  0  0  0  0
  -28.7390  -25.4120   19.7690 C   0  0  0  0  0  2  0  0  0  0  0  0
  -28.6310  -26.8360   19.8750 O   0  0  0  0  0  0  0  0  0  0  0  0
  -24.5480  -31.6830   23.0720 C   0  0  0  0  0  0  0  0  0  0  0  0
  -27.3910  -27.4440   19.8960 C   0  0  0  0  0  0  0  0  0  0  0  0
  -23.4080  -30.2850   21.3770 C   0  0  0  0  0  3  0  0  0  0  0  0
  -24.9320  -28.8450   19.9270 C   0  0  0  0  0  0  0  0  0  0  0  0
  -25.9170  -30.7510   21.2100 C   0  0  0  0  0  2  0  0  0  0  0  0
  -26.0610  -29.4020   20.5380 C   0  0  0  0  0  0  0  0  0  0  0  0
  -27.2900  -28.7080   20.5170 C   0  0  0  0  0  3  0  0  0  0  0  0
  -26.2370  -26.8950   19.2870 C   0  0  0  0  0  3  0  0  0  0  0  0
  -25.0140  -27.5900   19.3020 C   0  0  0  0  0  3  0  0  0  0  0  0
  -23.6550  -29.6520   19.9820 C   0  0  0  0  0  2  0  0  0  0  0  0
  -24.6430  -30.9190   21.9460 N   0  0  0  0  0  0  0  0  0  0  0  0
  -23.4520  -31.8970   23.6100 O   0  0  0  0  0  0  0  0  0  0  0  0
  -22.7890  -29.2130   22.3020 C   0  0  0  0  0  0  0  0  0  0  0  0
  -21.4680  -29.0060   22.1760 N   0  0  0  0  0  0  0  0  0  0  0  0
  -23.4930  -28.5680   23.0850 O   0  0  0  0  0  0  0  0  0  0  0  0
  -20.9600  -29.5800   21.5180 H   0  0  0  0  0  0  0  0  0  0  0  0
  -18.1190  -27.7450   22.6670 C   0  0  0  0  0  0  0  0  0  0  0  0
  -20.6780  -28.0220   22.9140 C   0  0  0  0  0  3  0  0  0  0  0  0
  -20.7880  -26.6220   22.2660 C   0  0  0  0  0  2  0  0  0  0  0  0
  -19.6740  -26.3360   21.2550 C   0  0  0  0  0  2  0  0  0  0  0  0
  -18.3020  -26.4320   21.9270 C   0  0  0  0  0  2  0  0  0  0  0  0
  -19.2350  -28.4990   23.1170 C   0  0  0  0  0  0  0  0  0  0  0  0
  -19.0110  -29.7310   23.7700 C   0  0  0  0  0  3  0  0  0  0  0  0
  -17.7030  -30.2080   23.9780 C   0  0  0  0  0  3  0  0  0  0  0  0
  -16.6010  -29.4490   23.5450 C   0  0  0  0  0  3  0  0  0  0  0  0
  -16.8110  -28.2190   22.8950 C   0  0  0  0  0  3  0  0  0  0  0  0
  -25.8030  -32.3410   23.7240 C   0  0  0  0  0  3  0  0  0  0  0  0
  -26.3370  -31.5520   24.9810 C   0  0  1  0  0  0  0  0  0  0  0  0
  -25.2470  -31.2480   26.0330 C   0  0  0  0  0  1  0  0  0  0  0  0
  -26.9650  -30.2080   24.5490 C   0  0  0  0  0  1  0  0  0  0  0  0
  -27.4580  -32.3640   25.6720 C   0  0  0  0  0  1  0  0  0  0  0  0
  -25.4420  -33.7170   24.0880 N   0  0  0  0  0  0  0  0  0  0  0  0
  -25.7490  -34.8010   23.3630 C   0  0  0  0  0  0  0  0  0  0  0  0
  -26.4370  -34.7490   22.3400 O   0  0  0  0  0  0  0  0  0  0  0  0
  -24.8290  -33.8290   24.8830 H   0  0  0  0  0  0  0  0  0  0  0  0
  -23.9600  -36.5380   23.0360 C   0  0  0  0  0  1  0  0  0  0  0  0
  -25.2060  -36.1590   23.8510 C   0  0  0  0  0  3  0  0  0  0  0  0
  -27.2990  -37.0950   24.7280 C   0  0  0  0  0  1  0  0  0  0  0  0
  -26.2010  -37.2500   23.7770 N   0  0  0  0  0  0  0  0  0  0  0  0
  -25.7600  -38.1500   23.9460 H   0  0  0  0  0  0  0  0  0  0  0  0
  2  1  1  0
  3  4  1  0
  4 53  1  0
  4  1  2  0
  5  2  2  0
  6  3  2  0
  6  5  1  0
  7  5  1  0
  8  7  1  0
  9 10  1  0
 10  8  1  0
 11 12  1  0
 11  6  1  0
 13 14  1  0
 13 15  1  0
 14 16  1  0
 15 16  1  0
 16 17  1  0
 16 12  1  1
 17 23  1  0
 17 24  2  0
 18 23  1  0
 19 20  1  0
 19 18  1  0
 21 20  1  0
 21 28  1  0
 21 22  1  0
 23 22  1  0
 25 26  2  0
 26 27  1  0
 26 45  1  0
 27 30  1  0
 28 25  1  0
 28 29  1  0
 29 27  2  0
 30 31  1  0
 31 32  2  0
 33 36  1  0
 33 32  1  0
 34 33  2  0
 35 34  1  0
 35 30  2  0
 36 37  1  0
 37 38  1  0
 38 39  2  0
 40 39  1  0
 40 44  1  0
 41 40  2  0
 42 37  2  0
 42 41  1  0
 43 42  1  0
 45 46  1  0
 46 49  1  0
 46 48  1  0
 47 45  2  0
 50 51  1  0
 50 25  1  0
 52 50  1  0
 54 55  1  0
 54 53  1  0
 56 57  1  0
 56 55  1  0
 57 59  1  0
 58 69  2  0
 59 64  1  0
 60 68  1  0
 60 70  1  0
 61 67  1  0
 61 63  1  0
 62 68  1  0
 63 62  1  0
 64 63  2  0
 65 66  1  0
 65 59  2  0
 66 61  2  0
 67 60  1  0
 68 58  1  0
 70 72  2  0
 71 70  1  0
 73 71  1  0
 74 83  2  0
 74 79  1  0
 75 71  1  0
 75 79  1  0
 76 75  1  0
 77 78  1  0
 77 76  1  0
 78 74  1  0
 79 80  2  0
 80 81  1  0
 82 81  2  0
 83 82  1  0
 84 58  1  0
 84 89  1  0
 84 85  1  0
 85 88  1  1
 85 86  1  0
 87 85  1  0
 89 92  1  0
 90 94  1  0
 90 89  1  0
 91 90  2  0
 94 93  1  0
 96 94  1  0
 96 97  1  0
 96 95  1  0
M  ISO  4  16 100  17 100  56 101  57 101
M  END
>  <TORSDO>  (1) 
F 26

>  <SCORE>  (1) 
-11.139

>  <name>  (1) 
0

>  <ligand_id>  (1) 
0

>  <original_smiles>  (1) 
[H]c1c([H])c([H])c2c(c1[H])C([H])([H])C([H])([H])C([H])([H])C2([H])N([H])C(=O)C1([H])N(C(=O)C([H])(N([H])C(=O)C([H])(N([H])C([H])([H])[H])C([H])([H])[H])C(C([H])([H])[H])(C([H])([H])[H])C([H])([H])[H])C([H])([H])c2c([H])c(OC([H])([H])C([H])([H])OC([H])([H])c3c([H])c([H])c(C([H])([H])C([H])([H])C([H])([H])C([H])([H])[H])c(C([H])([H])C([H])([H])C4(C(=O)N5C([H])([H])C([H])([H])C([H])([H])C([H])(n6nc(-c7c([H])c([H])c(Oc8c([H])c([H])c(F)c([H])c8F)c([H])c7[H])c(C(=O)N([H])[H])c6N([H])[H])C5([H])[H])C([H])([H])C([H])([H])C4([H])[H])c3[H])c([H])c([H])c2C1([H])[H]

>  <smiles>  (1) 
[H]c1c([H])c([H])c2c(c1[H])C([H])([H])C([H])([H])C([H])([H])C2([H])N([H])C(=O)C1([H])N(C(=O)C([H])(N([H])C(=O)C([H])(N([H])C([H])([H])[H])C([H])([H])[H])C(C([H])([H])[H])(C([H])([H])[H])C([H])([H])[H])C([H])([H])c2c([H])c(OC([H])([H])C([H])([H])OC([H])([H])c3c([H])c([H])c(C([H])([H])C([H])([H])C([H])([H])C([H])([H])[H])c(C([H])([H])C([H])([H])C4(C(=O)N5C([H])([H])C([H])([H])C([H])([H])C([H])(n6nc(-c7c([H])c([H])c(Oc8c([H])c([H])c(F)c([H])c8F)c([H])c7[H])c(C(=O)N([H])[H])c6N([H])[H])C5([H])[H])C([H])([H])C([H])([H])C4([H])[H])c3[H])c([H])c([H])c2C1([H])[H]

$$$$
1:0:0
     RDKit          3D

 96106  0  0  1  0  0  0  0  0999 V2000
  -28.6020  -21.6710   18.7250 C   0  0  0  0  0  3  0  0  0  0  0  0
  -28.8140  -19.3660   17.9380 C   0  0  0  0  0  0  0  0  0  0  0  0
  -29.0990  -21.3730   20.0080 C   0  0  0  0  0  0  0  0  0  0  0  0
  -29.3250  -18.9530   19.2050 C   0  0  0  0  0  0  0  0  0  0  0  0
  -29.4770  -19.9480   20.2450 C   0  0  0  0  0  0  0  0  0  0  0  0
  -28.4520  -20.7150   17.7100 C   0  0  0  0  0  0  0  0  0  0  0  0
  -29.7080  -17.4170   19.3490 C   0  0  0  0  0  2  0  0  0  0  0  0
  -30.0020  -19.3460   21.5720 C   0  0  0  0  0  2  0  0  0  0  0  0
  -30.7640  -17.9370   21.4960 C   0  0  0  0  0  2  0  0  0  0  0  0
  -30.0740  -16.7500   20.7210 C   0  0  0  0  0  3  0  0  0  0  0  0
  -27.8670  -21.1810   16.3790 C   0  0  0  0  0  1  0  0  0  0  0  0
  -30.8970  -15.3380   20.5530 C   0  0  0  0  0  0  0  0  0  0  0  0
  -30.8020  -13.0320   19.5630 C   0  0  0  0  0  2  0  0  0  0  0  0
  -29.9120  -13.0830   18.2990 C   0  0  0  0  0  2  0  0  0  0  0  0
  -28.4300  -12.8790   18.6660 C   0  0  0  0  0  2  0  0  0  0  0  0
  -27.9910  -13.7530   19.8700 C   0  0  0  0  0  3  0  0  0  0  0  0
  -29.0060  -13.6930   21.0290 C   0  0  0  0  0  2  0  0  0  0  0  0
  -30.3170  -14.0820   20.4970 N   0  0  0  0  0  0  0  0  0  0  0  0
  -32.1020  -15.4170   20.2930 O   0  0  0  0  0  0  0  0  0  0  0  0
  -25.5860  -14.3090   20.5550 C   0  0  0  0  0  0  0  0  0  0  0  0
  -24.5110  -13.5190   20.8610 C   0  0  0  0  0  0  0  0  0  0  0  0
  -24.9790  -12.1710   20.7910 C   0  0  0  0  0  0  0  0  0  0  0  0
  -26.6360  -13.4400   20.3120 N   0  0  0  0  0  0  0  0  0  0  0  0
  -26.2780  -12.1470   20.5190 N   0  0  0  0  0  0  0  0  0  0  0  0
  -24.2480  -10.9020   20.9080 C   0  0  0  0  0  0  0  0  0  0  0  0
  -24.6260   -9.9160   21.8460 C   0  0  0  0  0  3  0  0  0  0  0  0
  -23.8950   -8.7130   21.9520 C   0  0  0  0  0  3  0  0  0  0  0  0
  -22.7740   -8.4870   21.1200 C   0  0  0  0  0  0  0  0  0  0  0  0
  -22.4160   -9.4630   20.1710 C   0  0  0  0  0  3  0  0  0  0  0  0
  -23.1480  -10.6570   20.0620 C   0  0  0  0  0  3  0  0  0  0  0  0
  -22.0180   -7.3400   21.1360 O   0  0  0  0  0  0  0  0  0  0  0  0
  -21.8270   -6.6200   22.2880 C   0  0  0  0  0  0  0  0  0  0  0  0
  -21.2200   -7.1880   23.4290 C   0  0  0  0  0  3  0  0  0  0  0  0
  -20.9800   -6.3930   24.5670 C   0  0  0  0  0  3  0  0  0  0  0  0
  -21.3370   -5.0320   24.5650 C   0  0  0  0  0  0  0  0  0  0  0  0
  -21.9380   -4.4630   23.4280 C   0  0  0  0  0  3  0  0  0  0  0  0
  -22.1790   -5.2550   22.2920 C   0  0  0  0  0  0  0  0  0  0  0  0
  -22.7390   -4.6980   21.1910 F   0  0  0  0  0  0  0  0  0  0  0  0
  -21.1000   -4.2660   25.6570 F   0  0  0  0  0  0  0  0  0  0  0  0
  -23.1060  -13.9850   21.1070 C   0  0  0  0  0  0  0  0  0  0  0  0
  -22.3600  -13.2680   21.9420 N   0  0  0  0  0  0  0  0  0  0  0  0
  -22.6750  -15.0190   20.5970 O   0  0  0  0  0  0  0  0  0  0  0  0
  -22.7220  -12.4330   22.3780 H   0  0  0  0  0  0  0  0  0  0  0  0
  -21.4170  -13.5610   22.1500 H   0  0  0  0  0  0  0  0  0  0  0  0
  -25.7530  -15.6860   20.4400 N   0  0  0  0  0  0  0  0  0  0  0  0
  -24.9810  -16.3330   20.5560 H   0  0  0  0  0  0  0  0  0  0  0  0
  -26.6090  -16.1430   20.1550 H   0  0  0  0  0  0  0  0  0  0  0  0
  -27.5720  -23.0270   21.3940 C   0  0  0  0  0  2  0  0  0  0  0  0
  -27.2350  -24.4980   20.9750 C   0  0  0  0  0  2  0  0  0  0  0  0
  -29.5010  -24.1520   20.5040 C   0  0  0  0  0  2  0  0  0  0  0  0
  -29.0300  -22.6650   20.9810 C   0  0  0  0  0  3  0  0  0  0  0  0
  -28.5360  -25.3160   21.0800 C   0  0  0  0  0  3  0  0  0  0  0  0
  -28.6150  -26.7890   20.6460 O   0  0  0  0  0  0  0  0  0  0  0  0
  -24.8460  -32.2860   23.7230 C   0  0  0  0  0  0  0  0  0  0  0  0
  -27.5150  -27.6940   20.6660 C   0  0  0  0  0  0  0  0  0  0  0  0
  -23.6870  -30.9200   22.0290 C   0  0  0  0  0  3  0  0  0  0  0  0
  -25.1720  -29.3840   20.6120 C   0  0  0  0  0  0  0  0  0  0  0  0
  -26.2370  -31.2140   21.9240 C   0  0  0  0  0  2  0  0  0  0  0  0
  -26.3320  -29.8380   21.2550 C   0  0  0  0  0  0  0  0  0  0  0  0
  -27.5080  -29.0080   21.2640 C   0  0  0  0  0  3  0  0  0  0  0  0
  -26.3380  -27.3340   19.9780 C   0  0  0  0  0  3  0  0  0  0  0  0
  -25.1830  -28.1420   19.9610 C   0  0  0  0  0  3  0  0  0  0  0  0
  -23.9390  -30.2680   20.6430 C   0  0  0  0  0  2  0  0  0  0  0  0
  -24.9410  -31.4920   22.6140 N   0  0  0  0  0  0  0  0  0  0  0  0
  -23.7480  -32.5560   24.2330 O   0  0  0  0  0  0  0  0  0  0  0  0
  -22.9950  -29.8880   22.9530 C   0  0  0  0  0  0  0  0  0  0  0  0
  -21.6890  -29.6520   22.7350 N   0  0  0  0  0  0  0  0  0  0  0  0
  -23.6370  -29.3000   23.8280 O   0  0  0  0  0  0  0  0  0  0  0  0
  -21.2280  -30.1810   22.0070 H   0  0  0  0  0  0  0  0  0  0  0  0
  -18.3410  -28.3000   23.0050 C   0  0  0  0  0  0  0  0  0  0  0  0
  -20.8580  -28.6870   23.4570 C   0  0  0  0  0  3  0  0  0  0  0  0
  -21.0690  -27.2540   22.9150 C   0  0  0  0  0  2  0  0  0  0  0  0
  -20.0630  -26.8650   21.8270 C   0  0  0  0  0  2  0  0  0  0  0  0
  -18.6310  -26.9520   22.3640 C   0  0  0  0  0  2  0  0  0  0  0  0
  -19.3870  -29.1210   23.5020 C   0  0  0  0  0  0  0  0  0  0  0  0
  -19.0660  -30.3780   24.0580 C   0  0  0  0  0  3  0  0  0  0  0  0
  -17.7300  -30.8180   24.1200 C   0  0  0  0  0  3  0  0  0  0  0  0
  -16.6970  -29.9950   23.6390 C   0  0  0  0  0  3  0  0  0  0  0  0
  -17.0030  -28.7380   23.0880 C   0  0  0  0  0  3  0  0  0  0  0  0
  -26.1100  -32.9100   24.3910 C   0  0  0  0  0  3  0  0  0  0  0  0
  -25.8170  -34.3260   24.6640 N   0  0  0  0  0  0  0  0  0  0  0  0
  -26.2110  -35.3490   23.8950 C   0  0  0  0  0  0  0  0  0  0  0  0
  -26.9270  -35.1990   22.9010 O   0  0  0  0  0  0  0  0  0  0  0  0
  -25.1910  -34.5160   25.4320 H   0  0  0  0  0  0  0  0  0  0  0  0
  -24.5450  -37.1720   23.4110 C   0  0  0  0  0  1  0  0  0  0  0  0
  -25.7380  -36.7610   24.2900 C   0  0  0  0  0  3  0  0  0  0  0  0
  -27.8500  -37.6260   25.1980 C   0  0  0  0  0  1  0  0  0  0  0  0
  -26.8000  -37.7880   24.1950 N   0  0  0  0  0  0  0  0  0  0  0  0
  -26.4100  -38.7200   24.2920 H   0  0  0  0  0  0  0  0  0  0  0  0
  -26.5400  -32.1700   25.7170 C   0  0  1  0  0  0  0  0  0  0  0  0
  -25.3750  -31.9390   26.7070 C   0  0  0  0  0  1  0  0  0  0  0  0
  -27.1650  -30.7920   25.4000 C   0  0  0  0  0  1  0  0  0  0  0  0
  -27.6310  -32.9910   26.4430 C   0  0  0  0  0  1  0  0  0  0  0  0
  -28.5990  -18.3800   16.8370 C   0  0  0  0  0  0  0  0  0  0  0  0
  -29.7310  -18.2250   15.8350 C   0  0  0  0  0  1  0  0  0  0  0  0
  -27.5740  -17.7050   16.7170 O   0  0  0  0  0  0  0  0  0  0  0  0
  1  3  1  0
  2  4  2  0
  3  5  2  0
  4  7  1  0
  4  5  1  0
  5  8  1  0
  6  2  1  0
  6  1  2  0
  7 10  1  0
  9  8  1  0
 10 12  1  0
 10  9  1  0
 11  6  1  0
 13 18  1  0
 14 15  1  0
 14 13  1  0
 16 15  1  0
 16 23  1  0
 16 17  1  0
 18 12  1  0
 18 17  1  0
 19 12  2  0
 20 21  2  0
 21 40  1  0
 22 21  1  0
 22 25  1  0
 23 24  1  0
 23 20  1  0
 24 22  2  0
 25 26  1  0
 26 27  2  0
 28 31  1  0
 28 27  1  0
 29 28  2  0
 30 29  1  0
 30 25  2  0
 31 32  1  0
 32 37  2  0
 32 33  1  0
 33 34  2  0
 35 34  1  0
 35 39  1  0
 36 35  2  0
 37 36  1  0
 38 37  1  0
 40 41  1  0
 41 44  1  0
 41 43  1  0
 42 40  2  0
 45 20  1  0
 45 46  1  0
 47 45  1  0
 49 52  1  0
 49 48  1  0
 50 51  1  0
 50 52  1  0
 51  3  1  0
 51 48  1  0
 52 53  1  0
 53 55  1  0
 54 65  2  0
 55 60  1  0
 56 64  1  0
 56 66  1  0
 57 63  1  0
 57 59  1  0
 58 64  1  0
 59 60  2  0
 59 58  1  0
 61 55  2  0
 62 61  1  0
 62 57  2  0
 63 56  1  0
 64 54  1  0
 66 68  2  0
 67 66  1  0
 69 67  1  0
 70 79  2  0
 70 75  1  0
 71 67  1  0
 71 75  1  0
 72 71  1  0
 73 74  1  0
 73 72  1  0
 74 70  1  0
 75 76  2  0
 76 77  1  0
 78 77  2  0
 79 78  1  0
 80 54  1  0
 80 81  1  0
 80 90  1  0
 81 84  1  0
 82 86  1  0
 82 81  1  0
 83 82  2  0
 86 85  1  0
 88 86  1  0
 88 89  1  0
 88 87  1  0
 90 93  1  1
 90 91  1  0
 92 90  1  0
 94  2  1  0
 95 94  1  0
 96 94  2  0
M  ISO  4  10 100  12 100  52 101  53 101
M  END
>  <TORSDO>  (2) 
F 18

>  <SCORE>  (2) 
-10.995

>  <name>  (2) 
1

>  <ligand_id>  (2) 
1

>  <original_smiles>  (2) 
[H]c1c([H])c([H])c2c(c1[H])C([H])([H])C([H])([H])C([H])([H])C2([H])N([H])C(=O)C1([H])N(C(=O)C([H])(N([H])C(=O)C([H])(N([H])C([H])([H])[H])C([H])([H])[H])C(C([H])([H])[H])(C([H])([H])[H])C([H])([H])[H])C([H])([H])c2c([H])c(OC3([H])C([H])([H])C([H])([H])C([H])(c4c([H])c(C([H])([H])[H])c(C(=O)C([H])([H])[H])c5c4C([H])([H])C([H])([H])C([H])(C(=O)N4C([H])([H])C([H])([H])C([H])([H])C([H])(n6nc(-c7c([H])c([H])c(Oc8c([H])c([H])c(F)c([H])c8F)c([H])c7[H])c(C(=O)N([H])[H])c6N([H])[H])C4([H])[H])C5([H])[H])C3([H])[H])c([H])c([H])c2C1([H])[H]

>  <smiles>  (2) 
[H]c1c([H])c([H])c2c(c1[H])C([H])([H])C([H])([H])C([H])([H])C2([H])N([H])C(=O)C1([H])N(C(=O)C([H])(N([H])C(=O)C([H])(N([H])C([H])([H])[H])C([H])([H])[H])C(C([H])([H])[H])(C([H])([H])[H])C([H])([H])[H])C([H])([H])c2c([H])c(OC3([H])C([H])([H])C([H])([H])C([H])(c4c([H])c(C([H])([H])[H])c(C(=O)C([H])([H])[H])c5c4C([H])([H])C([H])([H])C([H])(C(=O)N4C([H])([H])C([H])([H])C([H])([H])C([H])(n6nc(-c7c([H])c([H])c(Oc8c([H])c([H])c(F)c([H])c8F)c([H])c7[H])c(C(=O)N([H])[H])c6N([H])[H])C4([H])[H])C5([H])[H])C3([H])[H])c([H])c([H])c2C1([H])[H]

$$$$
2:0:0
     RDKit          3D

 97106  0  0  1  0  0  0  0  0999 V2000
  -28.9150  -19.6710   18.7420 C   0  0  0  0  0  3  0  0  0  0  0  0
  -30.2920  -21.5020   19.5520 C   0  0  0  0  0  3  0  0  0  0  0  0
  -28.3030  -21.9970   18.2510 C   0  0  0  0  0  3  0  0  0  0  0  0
  -30.0600  -20.0780   19.4590 C   0  0  0  0  0  0  0  0  0  0  0  0
  -28.0530  -20.6120   18.1410 C   0  0  0  0  0  0  0  0  0  0  0  0
  -29.4140  -22.4870   18.9730 C   0  0  0  0  0  0  0  0  0  0  0  0
  -26.8410  -20.1200   17.3750 C   0  0  0  0  0  1  0  0  0  0  0  0
  -31.3420  -16.3710   21.7500 C   0  0  0  0  0  2  0  0  0  0  0  0
  -31.3590  -17.7540   22.4060 C   0  0  0  0  0  2  0  0  0  0  0  0
  -31.0860  -17.5390   19.4970 C   0  0  0  0  0  2  0  0  0  0  0  0
  -30.9520  -18.9900   20.1880 C   0  0  0  0  0  3  0  0  0  0  0  0
  -31.8770  -16.4120   20.3140 C   0  0  0  0  0  3  0  0  0  0  0  0
  -30.4850  -18.7900   21.6650 C   0  0  0  0  0  3  0  0  0  0  0  0
  -32.1860  -15.0140   19.5920 C   0  0  0  0  0  0  0  0  0  0  0  0
  -31.6000  -12.8250   18.5340 C   0  0  0  0  0  2  0  0  0  0  0  0
  -30.5660  -13.0510   17.4070 C   0  0  0  0  0  2  0  0  0  0  0  0
  -29.1260  -13.0570   17.9590 C   0  0  0  0  0  2  0  0  0  0  0  0
  -28.9880  -13.9390   19.2290 C   0  0  0  0  0  3  0  0  0  0  0  0
  -30.1110  -13.6090   20.2300 C   0  0  0  0  0  2  0  0  0  0  0  0
  -31.3970  -13.8770   19.5640 N   0  0  0  0  0  0  0  0  0  0  0  0
  -33.2490  -14.9980   18.9630 O   0  0  0  0  0  0  0  0  0  0  0  0
  -26.7980  -14.8110   20.2520 C   0  0  0  0  0  0  0  0  0  0  0  0
  -25.6660  -14.1710   20.6790 C   0  0  0  0  0  0  0  0  0  0  0  0
  -25.9070  -12.7750   20.4890 C   0  0  0  0  0  0  0  0  0  0  0  0
  -27.6650  -13.8140   19.8350 N   0  0  0  0  0  0  0  0  0  0  0  0
  -27.1370  -12.5780   20.0330 N   0  0  0  0  0  0  0  0  0  0  0  0
  -25.0150  -11.6210   20.6610 C   0  0  0  0  0  0  0  0  0  0  0  0
  -25.3530  -10.5470   21.5130 C   0  0  0  0  0  3  0  0  0  0  0  0
  -24.4710   -9.4560   21.6740 C   0  0  0  0  0  3  0  0  0  0  0  0
  -23.2350   -9.4360   20.9860 C   0  0  0  0  0  0  0  0  0  0  0  0
  -22.9140  -10.4970   20.1210 C   0  0  0  0  0  3  0  0  0  0  0  0
  -23.7950  -11.5780   19.9550 C   0  0  0  0  0  3  0  0  0  0  0  0
  -22.3270   -8.4080   21.0640 O   0  0  0  0  0  0  0  0  0  0  0  0
  -22.1480   -7.6900   22.2180 C   0  0  0  0  0  0  0  0  0  0  0  0
  -21.8270   -8.3150   23.4430 C   0  0  0  0  0  3  0  0  0  0  0  0
  -21.5840   -7.5330   24.5900 C   0  0  0  0  0  3  0  0  0  0  0  0
  -21.6530   -6.1290   24.5130 C   0  0  0  0  0  0  0  0  0  0  0  0
  -21.9670   -5.5040   23.2930 C   0  0  0  0  0  3  0  0  0  0  0  0
  -22.2100   -6.2830   22.1480 C   0  0  0  0  0  0  0  0  0  0  0  0
  -22.4910   -5.6750   20.9700 F   0  0  0  0  0  0  0  0  0  0  0  0
  -21.4120   -5.3770   25.6120 F   0  0  0  0  0  0  0  0  0  0  0  0
  -24.3940  -14.8190   21.1460 C   0  0  0  0  0  0  0  0  0  0  0  0
  -23.7120  -14.2050   22.1070 N   0  0  0  0  0  0  0  0  0  0  0  0
  -24.0240  -15.9010   20.6920 O   0  0  0  0  0  0  0  0  0  0  0  0
  -24.0270  -13.3290   22.4950 H   0  0  0  0  0  0  0  0  0  0  0  0
  -22.8620  -14.6210   22.4620 H   0  0  0  0  0  0  0  0  0  0  0  0
  -27.1550  -16.1540   20.1650 N   0  0  0  0  0  0  0  0  0  0  0  0
  -26.5130  -16.9010   20.4050 H   0  0  0  0  0  0  0  0  0  0  0  0
  -28.0270  -16.4900   19.7770 H   0  0  0  0  0  0  0  0  0  0  0  0
  -30.4910  -20.0760   22.5130 C   0  0  0  0  0  0  0  0  0  0  0  0
  -29.3380  -20.4680   23.0430 N   0  0  0  0  0  0  0  0  0  0  0  0
  -31.5300  -20.7000   22.7260 O   0  0  0  0  0  0  0  0  0  0  0  0
  -28.4940  -19.9370   22.8740 H   0  0  0  0  0  0  0  0  0  0  0  0
  -29.2950  -21.2890   23.6290 H   0  0  0  0  0  0  0  0  0  0  0  0
  -29.6570  -24.0450   19.0580 C   0  0  0  0  0  3  0  0  0  0  0  0
  -28.3980  -25.0210   18.9990 C   0  0  0  0  0  3  0  0  0  0  0  0
  -28.5410  -26.4820   19.2240 O   0  0  0  0  0  0  0  0  0  0  0  0
  -24.5600  -31.3090   22.8310 C   0  0  0  0  0  0  0  0  0  0  0  0
  -27.3680  -27.2570   19.2740 C   0  0  0  0  0  0  0  0  0  0  0  0
  -23.4020  -30.0020   21.0870 C   0  0  0  0  0  3  0  0  0  0  0  0
  -24.9050  -28.7020   19.4830 C   0  0  0  0  0  0  0  0  0  0  0  0
  -25.9100  -30.5040   20.8810 C   0  0  0  0  0  2  0  0  0  0  0  0
  -26.0580  -29.2050   20.0980 C   0  0  0  0  0  0  0  0  0  0  0  0
  -27.2910  -28.4950   19.9860 C   0  0  0  0  0  3  0  0  0  0  0  0
  -26.1840  -26.8140   18.6370 C   0  0  0  0  0  3  0  0  0  0  0  0
  -24.9690  -27.5120   18.7450 C   0  0  0  0  0  3  0  0  0  0  0  0
  -23.6180  -29.4840   19.6420 C   0  0  0  0  0  2  0  0  0  0  0  0
  -24.6440  -30.6170   21.6580 N   0  0  0  0  0  0  0  0  0  0  0  0
  -23.4770  -31.4620   23.4130 O   0  0  0  0  0  0  0  0  0  0  0  0
  -22.8320  -28.8540   21.9550 C   0  0  0  0  0  0  0  0  0  0  0  0
  -21.5150  -28.6110   21.8480 N   0  0  0  0  0  0  0  0  0  0  0  0
  -23.5720  -28.1900   22.6850 O   0  0  0  0  0  0  0  0  0  0  0  0
  -20.9720  -29.2050   21.2370 H   0  0  0  0  0  0  0  0  0  0  0  0
  -18.2370  -27.1470   22.2880 C   0  0  0  0  0  0  0  0  0  0  0  0
  -20.7770  -27.5540   22.5410 C   0  0  0  0  0  3  0  0  0  0  0  0
  -20.9610  -26.1900   21.8360 C   0  0  0  0  0  2  0  0  0  0  0  0
  -19.8610  -25.8850   20.8140 C   0  0  0  0  0  2  0  0  0  0  0  0
  -18.4870  -25.8780   21.4890 C   0  0  0  0  0  2  0  0  0  0  0  0
  -19.3110  -27.9410   22.7690 C   0  0  0  0  0  0  0  0  0  0  0  0
  -19.0210  -29.1280   23.4780 C   0  0  0  0  0  3  0  0  0  0  0  0
  -17.6900  -29.5220   23.7080 C   0  0  0  0  0  3  0  0  0  0  0  0
  -16.6300  -28.7240   23.2430 C   0  0  0  0  0  3  0  0  0  0  0  0
  -16.9040  -27.5380   22.5390 C   0  0  0  0  0  3  0  0  0  0  0  0
  -25.8180  -31.9600   23.4840 C   0  0  0  0  0  3  0  0  0  0  0  0
  -26.4180  -31.1050   24.6670 C   0  0  1  0  0  0  0  0  0  0  0  0
  -25.3760  -30.7100   25.7390 C   0  0  0  0  0  1  0  0  0  0  0  0
  -27.0570  -29.8030   24.1320 C   0  0  0  0  0  1  0  0  0  0  0  0
  -27.5470  -31.8980   25.3650 C   0  0  0  0  0  1  0  0  0  0  0  0
  -25.4310  -33.2970   23.9570 N   0  0  0  0  0  0  0  0  0  0  0  0
  -25.7360  -34.4440   23.3360 C   0  0  0  0  0  0  0  0  0  0  0  0
  -26.4430  -34.4890   22.3250 O   0  0  0  0  0  0  0  0  0  0  0  0
  -24.8050  -33.3320   24.7490 H   0  0  0  0  0  0  0  0  0  0  0  0
  -23.9470  -36.1960   23.1120 C   0  0  0  0  0  1  0  0  0  0  0  0
  -25.1690  -35.7480   23.9290 C   0  0  0  0  0  3  0  0  0  0  0  0
  -27.2210  -36.6110   24.9630 C   0  0  0  0  0  1  0  0  0  0  0  0
  -26.1560  -36.8460   23.9910 N   0  0  0  0  0  0  0  0  0  0  0  0
  -25.7040  -37.7250   24.2240 H   0  0  0  0  0  0  0  0  0  0  0  0
  1  4  1  0
  3  6  2  0
  4  2  2  0
  5  3  1  0
  5  1  2  0
  6 55  1  0
  6  2  1  0
  7  5  1  0
  8  9  1  0
 10 11  1  0
 10 12  1  0
 11  4  1  0
 11 13  1  0
 12 14  1  0
 12  8  1  0
 13  9  1  0
 13 50  1  0
 15 20  1  0
 16 17  1  0
 16 15  1  0
 18 17  1  0
 18 25  1  0
 18 19  1  0
 20 14  1  0
 20 19  1  0
 21 14  2  0
 22 23  2  0
 23 42  1  0
 24 27  1  0
 24 23  1  0
 25 26  1  0
 25 22  1  0
 26 24  2  0
 27 28  1  0
 28 29  2  0
 30 33  1  0
 30 29  1  0
 31 30  2  0
 32 31  1  0
 32 27  2  0
 33 34  1  0
 34 35  1  0
 35 36  2  0
 37 36  1  0
 37 41  1  0
 38 37  2  0
 39 34  2  0
 39 38  1  0
 40 39  1  0
 42 43  1  0
 43 46  1  0
 43 45  1  0
 44 42  2  0
 47 22  1  0
 47 48  1  0
 49 47  1  0
 50 52  2  0
 50 51  1  0
 51 54  1  0
 53 51  1  0
 56 55  2  0
 56 57  1  0
 57 59  1  0
 58 69  2  0
 59 64  1  0
 60 68  1  0
 60 70  1  0
 61 67  1  0
 61 63  1  0
 62 68  1  0
 63 62  1  0
 64 63  2  0
 65 66  1  0
 65 59  2  0
 66 61  2  0
 67 60  1  0
 68 58  1  0
 70 72  2  0
 71 70  1  0
 73 71  1  0
 74 83  2  0
 74 79  1  0
 75 71  1  0
 75 79  1  0
 76 75  1  0
 77 78  1  0
 77 76  1  0
 78 74  1  0
 79 80  2  0
 80 81  1  0
 82 81  2  0
 83 82  1  0
 84 58  1  0
 84 89  1  0
 84 85  1  0
 85 88  1  1
 85 86  1  0
 87 85  1  0
 89 92  1  0
 90 94  1  0
 90 89  1  0
 91 90  2  0
 94 93  1  0
 94 96  1  0
 96 97  1  0
 96 95  1  0
M  ISO  4  12 100  14 100  56 101  57 101
M  END
>  <TORSDO>  (3) 
F 20

>  <SCORE>  (3) 
-8.521

>  <name>  (3) 
2

>  <ligand_id>  (3) 
2

>  <original_smiles>  (3) 
[H]c1c([H])c([H])c2c(c1[H])C([H])([H])C([H])([H])C([H])([H])C2([H])N([H])C(=O)C1([H])N(C(=O)C([H])(N([H])C(=O)C([H])(N([H])C([H])([H])[H])C([H])([H])[H])C(C([H])([H])[H])(C([H])([H])[H])C([H])([H])[H])C([H])([H])c2c([H])c(OC([H])([H])C([H])([H])c3c([H])c(C([H])([H])[H])c([H])c(C4([H])C([H])([H])C([H])(C(=O)N5C([H])([H])C([H])([H])C([H])([H])C([H])(n6nc(-c7c([H])c([H])c(Oc8c([H])c([H])c(F)c([H])c8F)c([H])c7[H])c(C(=O)N([H])[H])c6N([H])[H])C5([H])[H])C([H])([H])C([H])([H])C4([H])C(=O)N([H])[H])c3[H])c([H])c([H])c2C1([H])[H]

>  <smiles>  (3) 
[H]c1c([H])c([H])c2c(c1[H])C([H])([H])C([H])([H])C([H])([H])C2([H])N([H])C(=O)C1([H])N(C(=O)C([H])(N([H])C(=O)C([H])(N([H])C([H])([H])[H])C([H])([H])[H])C(C([H])([H])[H])(C([H])([H])[H])C([H])([H])[H])C([H])([H])c2c([H])c(OC([H])([H])C([H])([H])c3c([H])c(C([H])([H])[H])c([H])c(C4([H])C([H])([H])C([H])(C(=O)N5C([H])([H])C([H])([H])C([H])([H])C([H])(n6nc(-c7c([H])c([H])c(Oc8c([H])c([H])c(F)c([H])c8F)c([H])c7[H])c(C(=O)N([H])[H])c6N([H])[H])C5([H])[H])C([H])([H])C([H])([H])C4([H])C(=O)N([H])[H])c3[H])c([H])c([H])c2C1([H])[H]

$$$$
3:0:0
     RDKit          3D

 94104  0  0  1  0  0  0  0  0999 V2000
  -26.5170  -23.1680   21.1430 C   0  0  0  0  0  2  0  0  0  0  0  0
  -26.9370  -24.6240   21.3630 C   0  0  0  0  0  2  0  0  0  0  0  0
  -27.5770  -22.1930   21.6590 C   0  0  0  0  0  2  0  0  0  0  0  0
  -29.4050  -21.4530   19.8900 C   0  0  0  0  0  2  0  0  0  0  0  0
  -29.9580  -21.3970   21.8890 C   0  0  0  0  0  2  0  0  0  0  0  0
  -29.3160  -23.9600   20.9690 C   0  0  0  0  0  2  0  0  0  0  0  0
  -30.0340  -20.3130   20.7750 C   0  0  0  0  0  3  0  0  0  0  0  0
  -28.1560  -24.9720   20.4820 C   0  0  0  0  0  3  0  0  0  0  0  0
  -28.9990  -22.3670   21.0920 C   0  0  2  0  0  0  0  0  0  0  0  0
  -30.2900  -17.6060   21.1980 C   0  0  0  0  0  3  0  0  0  0  0  0
  -28.4810  -18.5340   19.8600 C   0  0  0  0  0  3  0  0  0  0  0  0
  -30.0750  -16.2590   20.6640 C   0  0  0  0  0  0  0  0  0  0  0  0
  -29.5770  -18.7860   20.7060 C   0  0  0  0  0  0  0  0  0  0  0  0
  -29.3250  -16.2920   19.4480 C   0  0  0  0  0  0  0  0  0  0  0  0
  -28.4060  -17.3190   19.1770 C   0  0  0  0  0  0  0  0  0  0  0  0
  -29.6750  -15.4410   18.2400 C   0  0  0  0  0  1  0  0  0  0  0  0
  -27.5540  -17.2090   18.1290 F   0  0  0  0  0  0  0  0  0  0  0  0
  -30.8350  -14.9440   21.1010 C   0  0  0  0  0  0  0  0  0  0  0  0
  -30.8030  -12.5340   20.4340 C   0  0  0  0  0  2  0  0  0  0  0  0
  -30.0390  -12.3000   19.1120 C   0  0  0  0  0  2  0  0  0  0  0  0
  -28.5060  -12.2660   19.3130 C   0  0  0  0  0  2  0  0  0  0  0  0
  -27.9530  -13.2670   20.3680 C   0  0  0  0  0  3  0  0  0  0  0  0
  -28.8650  -13.3870   21.5990 C   0  0  0  0  0  2  0  0  0  0  0  0
  -30.2210  -13.7040   21.1260 N   0  0  0  0  0  0  0  0  0  0  0  0
  -32.0660  -15.0000   21.1560 O   0  0  0  0  0  0  0  0  0  0  0  0
  -25.5010  -13.8870   20.7940 C   0  0  0  0  0  0  0  0  0  0  0  0
  -24.3930  -13.1210   21.0320 C   0  0  0  0  0  0  0  0  0  0  0  0
  -24.8530  -11.7700   21.0870 C   0  0  0  0  0  0  0  0  0  0  0  0
  -26.5620  -12.9980   20.7090 N   0  0  0  0  0  0  0  0  0  0  0  0
  -26.1720  -11.7240   20.9550 N   0  0  0  0  0  0  0  0  0  0  0  0
  -24.1100  -10.5110   21.1960 C   0  0  0  0  0  0  0  0  0  0  0  0
  -24.4650   -9.5270   22.1450 C   0  0  0  0  0  3  0  0  0  0  0  0
  -23.7240   -8.3310   22.2450 C   0  0  0  0  0  3  0  0  0  0  0  0
  -22.6140   -8.1110   21.3960 C   0  0  0  0  0  0  0  0  0  0  0  0
  -22.2810   -9.0820   20.4360 C   0  0  0  0  0  3  0  0  0  0  0  0
  -23.0230  -10.2710   20.3330 C   0  0  0  0  0  3  0  0  0  0  0  0
  -21.8500   -6.9690   21.4050 O   0  0  0  0  0  0  0  0  0  0  0  0
  -21.7440   -6.1860   22.5260 C   0  0  0  0  0  0  0  0  0  0  0  0
  -21.2720   -6.7020   23.7540 C   0  0  0  0  0  3  0  0  0  0  0  0
  -21.1140   -5.8450   24.8610 C   0  0  0  0  0  3  0  0  0  0  0  0
  -21.4170   -4.4750   24.7410 C   0  0  0  0  0  0  0  0  0  0  0  0
  -21.8810   -3.9600   23.5190 C   0  0  0  0  0  3  0  0  0  0  0  0
  -22.0420   -4.8140   22.4130 C   0  0  0  0  0  0  0  0  0  0  0  0
  -22.4700   -4.3090   21.2310 F   0  0  0  0  0  0  0  0  0  0  0  0
  -21.2560   -3.6500   25.8030 F   0  0  0  0  0  0  0  0  0  0  0  0
  -22.9740  -13.6020   21.1080 C   0  0  0  0  0  0  0  0  0  0  0  0
  -22.1420  -12.9300   21.8970 N   0  0  0  0  0  0  0  0  0  0  0  0
  -22.6050  -14.6070   20.5010 O   0  0  0  0  0  0  0  0  0  0  0  0
  -22.4510  -12.1160   22.4070 H   0  0  0  0  0  0  0  0  0  0  0  0
  -21.1850  -13.2360   21.9930 H   0  0  0  0  0  0  0  0  0  0  0  0
  -25.6880  -15.2550   20.6170 N   0  0  0  0  0  0  0  0  0  0  0  0
  -24.9130  -15.9090   20.6060 H   0  0  0  0  0  0  0  0  0  0  0  0
  -26.5720  -15.6860   20.3780 H   0  0  0  0  0  0  0  0  0  0  0  0
  -28.4040  -26.4590   20.4540 O   0  0  0  0  0  0  0  0  0  0  0  0
  -24.6170  -31.9400   23.2310 C   0  0  0  0  0  0  0  0  0  0  0  0
  -27.3170  -27.3500   20.2870 C   0  0  0  0  0  0  0  0  0  0  0  0
  -23.4570  -30.5180   21.5800 C   0  0  0  0  0  3  0  0  0  0  0  0
  -24.9490  -28.9700   20.1880 C   0  0  0  0  0  0  0  0  0  0  0  0
  -26.0000  -30.8450   21.4530 C   0  0  0  0  0  2  0  0  0  0  0  0
  -26.1010  -29.4620   20.8180 C   0  0  0  0  0  0  0  0  0  0  0  0
  -27.2840  -28.6620   20.8610 C   0  0  0  0  0  3  0  0  0  0  0  0
  -26.1610  -26.9460   19.5790 C   0  0  0  0  0  3  0  0  0  0  0  0
  -24.9850  -27.7190   19.5570 C   0  0  0  0  0  3  0  0  0  0  0  0
  -23.7030  -29.8320   20.2090 C   0  0  0  0  0  2  0  0  0  0  0  0
  -24.7080  -31.1200   22.1430 N   0  0  0  0  0  0  0  0  0  0  0  0
  -23.5210  -32.2160   23.7410 O   0  0  0  0  0  0  0  0  0  0  0  0
  -22.7800  -29.5060   22.5380 C   0  0  0  0  0  0  0  0  0  0  0  0
  -21.4520  -29.3430   22.4080 N   0  0  0  0  0  0  0  0  0  0  0  0
  -23.4500  -28.8720   23.3570 O   0  0  0  0  0  0  0  0  0  0  0  0
  -20.9710  -29.9080   21.7210 H   0  0  0  0  0  0  0  0  0  0  0  0
  -18.0560  -28.2060   22.9210 C   0  0  0  0  0  0  0  0  0  0  0  0
  -20.6210  -28.4150   23.1760 C   0  0  0  0  0  3  0  0  0  0  0  0
  -20.6910  -26.9870   22.5880 C   0  0  0  0  0  2  0  0  0  0  0  0
  -19.5770  -26.6940   21.5780 C   0  0  0  0  0  2  0  0  0  0  0  0
  -18.2020  -26.8590   22.2310 C   0  0  0  0  0  2  0  0  0  0  0  0
  -19.1910  -28.9430   23.3500 C   0  0  0  0  0  0  0  0  0  0  0  0
  -18.9990  -30.2050   23.9540 C   0  0  0  0  0  3  0  0  0  0  0  0
  -17.7030  -30.7260   24.1350 C   0  0  0  0  0  3  0  0  0  0  0  0
  -16.5830  -29.9840   23.7220 C   0  0  0  0  0  3  0  0  0  0  0  0
  -16.7600  -28.7260   23.1200 C   0  0  0  0  0  3  0  0  0  0  0  0
  -25.8840  -32.5870   23.8740 C   0  0  0  0  0  3  0  0  0  0  0  0
  -25.5600  -33.9860   24.1870 N   0  0  0  0  0  0  0  0  0  0  0  0
  -25.9060  -35.0360   23.4300 C   0  0  0  0  0  0  0  0  0  0  0  0
  -26.6030  -34.9300   22.4170 O   0  0  0  0  0  0  0  0  0  0  0  0
  -24.9500  -34.1440   24.9750 H   0  0  0  0  0  0  0  0  0  0  0  0
  -24.1850  -36.8220   23.0130 C   0  0  0  0  0  1  0  0  0  0  0  0
  -25.4010  -36.4250   23.8650 C   0  0  0  0  0  3  0  0  0  0  0  0
  -27.5090  -37.3170   24.7530 C   0  0  0  0  0  1  0  0  0  0  0  0
  -26.4330  -37.4820   23.7800 N   0  0  0  0  0  0  0  0  0  0  0  0
  -26.0200  -38.4010   23.9150 H   0  0  0  0  0  0  0  0  0  0  0  0
  -26.3790  -31.8310   25.1680 C   0  0  1  0  0  0  0  0  0  0  0  0
  -25.2670  -31.5980   26.2170 C   0  0  0  0  0  1  0  0  0  0  0  0
  -26.9760  -30.4530   24.8040 C   0  0  0  0  0  1  0  0  0  0  0  0
  -27.5120  -32.6390   25.8440 C   0  0  0  0  0  1  0  0  0  0  0  0
  1  2  1  0
  1  3  1  0
  4  7  1  0
  9  6  1  6
  7 13  1  0
  7  5  1  0
  8 54  1  0
  8  6  1  0
  8  2  1  0
  9  4  1  0
  9  3  1  0
  9  5  1  0
 11 13  2  0
 12 18  1  0
 12 10  2  0
 13 10  1  0
 14 12  1  0
 15 14  2  0
 15 11  1  0
 16 14  1  0
 17 15  1  0
 18 24  1  0
 18 25  2  0
 19 24  1  0
 20 21  1  0
 20 19  1  0
 22 21  1  0
 22 29  1  0
 22 23  1  0
 24 23  1  0
 26 27  2  0
 27 28  1  0
 27 46  1  0
 28 31  1  0
 29 26  1  0
 29 30  1  0
 30 28  2  0
 31 32  1  0
 32 33  2  0
 34 37  1  0
 34 33  1  0
 35 34  2  0
 36 35  1  0
 36 31  2  0
 37 38  1  0
 38 39  1  0
 39 40  2  0
 41 40  1  0
 41 45  1  0
 42 41  2  0
 43 38  2  0
 43 42  1  0
 44 43  1  0
 46 47  1  0
 47 50  1  0
 47 49  1  0
 48 46  2  0
 51 26  1  0
 52 51  1  0
 53 51  1  0
 55 66  2  0
 56 54  1  0
 56 61  1  0
 57 65  1  0
 57 67  1  0
 58 64  1  0
 58 60  1  0
 59 65  1  0
 60 61  2  0
 60 59  1  0
 62 56  2  0
 63 62  1  0
 63 58  2  0
 64 57  1  0
 65 55  1  0
 67 69  2  0
 68 67  1  0
 70 68  1  0
 71 80  2  0
 71 76  1  0
 72 68  1  0
 72 76  1  0
 73 72  1  0
 74 75  1  0
 74 73  1  0
 75 71  1  0
 76 77  2  0
 77 78  1  0
 79 78  2  0
 80 79  1  0
 81 55  1  0
 81 82  1  0
 81 91  1  0
 82 85  1  0
 83 87  1  0
 83 82  1  0
 84 83  2  0
 87 86  1  0
 89 87  1  0
 89 90  1  0
 89 88  1  0
 91 94  1  1
 91 92  1  0
 93 91  1  0
M  ISO  4   8 101  12 100  18 100  54 101
M  END
>  <TORSDO>  (4) 
F 17

>  <SCORE>  (4) 
-14.259

>  <name>  (4) 
3

>  <ligand_id>  (4) 
3

>  <original_smiles>  (4) 
[H]c1c([H])c([H])c2c(c1[H])C([H])([H])C([H])([H])C([H])([H])C2([H])N([H])C(=O)C1([H])N(C(=O)C([H])(N([H])C(=O)C([H])(N([H])C([H])([H])[H])C([H])([H])[H])C(C([H])([H])[H])(C([H])([H])[H])C([H])([H])[H])C([H])([H])c2c([H])c(OC3([H])C([H])([H])C([H])([H])C([H])([H])C4(C3([H])[H])C([H])([H])C([H])(c3c([H])c(F)c(C([H])([H])[H])c(C(=O)N5C([H])([H])C([H])([H])C([H])([H])C([H])(n6nc(-c7c([H])c([H])c(Oc8c([H])c([H])c(F)c([H])c8F)c([H])c7[H])c(C(=O)N([H])[H])c6N([H])[H])C5([H])[H])c3[H])C4([H])[H])c([H])c([H])c2C1([H])[H]

>  <smiles>  (4) 
[H]c1c([H])c([H])c2c(c1[H])C([H])([H])C([H])([H])C([H])([H])C2([H])N([H])C(=O)C1([H])N(C(=O)C([H])(N([H])C(=O)C([H])(N([H])C([H])([H])[H])C([H])([H])[H])C(C([H])([H])[H])(C([H])([H])[H])C([H])([H])[H])C([H])([H])c2c([H])c(OC3([H])C([H])([H])C([H])([H])C([H])([H])C4(C3([H])[H])C([H])([H])C([H])(c3c([H])c(F)c(C([H])([H])[H])c(C(=O)N5C([H])([H])C([H])([H])C([H])([H])C([H])(n6nc(-c7c([H])c([H])c(Oc8c([H])c([H])c(F)c([H])c8F)c([H])c7[H])c(C(=O)N([H])[H])c6N([H])[H])C5([H])[H])c3[H])C4([H])[H])c([H])c([H])c2C1([H])[H]

$$$$
4:0:0
     RDKit          3D

 98106  0  0  1  0  0  0  0  0999 V2000
  -31.3950  -23.3640   18.3190 C   0  0  0  0  0  3  0  0  0  0  0  0
  -30.2130  -23.9090   18.8190 C   0  0  0  0  0  0  0  0  0  0  0  0
  -31.6310  -22.0040   18.3040 C   0  0  0  0  0  0  0  0  0  0  0  0
  -30.6040  -21.1330   18.7310 C   0  0  0  0  0  0  0  0  0  0  0  0
  -29.5430  -21.5800   19.6190 C   0  0  0  0  0  0  0  0  0  0  0  0
  -29.2730  -23.1660   19.6210 C   0  0  0  0  0  0  0  0  0  0  0  0
  -30.0500  -25.3680   18.3950 C   0  0  0  0  0  1  0  0  0  0  0  0
  -34.1850  -22.1810   18.4750 C   0  0  0  0  0  1  0  0  0  0  0  0
  -32.9870  -21.5420   17.7590 C   0  0  0  0  0  2  0  0  0  0  0  0
  -30.6980  -19.6700   18.2220 C   0  0  0  0  0  2  0  0  0  0  0  0
  -30.8820  -19.3940   16.7100 C   0  0  0  0  0  2  0  0  0  0  0  0
  -31.7860  -17.6230   15.0720 C   0  0  0  0  0  1  0  0  0  0  0  0
  -31.6140  -18.0490   16.5290 C   0  0  0  0  0  2  0  0  0  0  0  0
  -28.9230  -20.1460   20.3560 C   0  0  0  0  0  2  0  0  0  0  0  0
  -29.6870  -18.5330   20.7500 C   0  0  0  0  0  0  0  0  0  0  0  0
  -31.0110  -18.7550   21.3610 N   0  0  0  0  0  4  0  0  0  0  0  0
  -31.7200  -18.8830   20.6630 H   0  0  0  0  0  0  0  0  0  0  0  0
  -31.2690  -17.9810   21.9470 H   0  0  0  0  0  0  0  0  0  0  0  0
  -30.9880  -19.5780   21.9370 H   0  0  0  0  0  0  0  0  0  0  0  0
  -29.4930  -16.8250   20.1990 C   0  0  0  0  0  3  0  0  0  0  0  0
  -30.4110  -15.3290   20.2500 C   0  0  0  0  0  0  0  0  0  0  0  0
  -30.4610  -12.8960   19.3680 C   0  0  0  0  0  2  0  0  0  0  0  0
  -29.5330  -12.7290   18.1350 C   0  0  0  0  0  2  0  0  0  0  0  0
  -28.0850  -12.4320   18.5690 C   0  0  0  0  0  2  0  0  0  0  0  0
  -27.6300  -13.3590   19.7200 C   0  0  0  0  0  3  0  0  0  0  0  0
  -28.6770  -13.4790   20.8440 C   0  0  0  0  0  2  0  0  0  0  0  0
  -29.9140  -13.9990   20.2330 N   0  0  0  0  0  0  0  0  0  0  0  0
  -31.6370  -15.3740   20.0520 O   0  0  0  0  0  0  0  0  0  0  0  0
  -25.2610  -13.8770   20.5050 C   0  0  0  0  0  0  0  0  0  0  0  0
  -24.2130  -13.0830   20.8710 C   0  0  0  0  0  0  0  0  0  0  0  0
  -24.6940  -11.7380   20.8110 C   0  0  0  0  0  0  0  0  0  0  0  0
  -26.3080  -13.0170   20.2300 N   0  0  0  0  0  0  0  0  0  0  0  0
  -25.9810  -11.7230   20.4830 N   0  0  0  0  0  0  0  0  0  0  0  0
  -23.9800  -10.4660   20.9870 C   0  0  0  0  0  0  0  0  0  0  0  0
  -24.4110   -9.4980   21.9210 C   0  0  0  0  0  3  0  0  0  0  0  0
  -23.6970   -8.2910   22.0830 C   0  0  0  0  0  3  0  0  0  0  0  0
  -22.5400   -8.0420   21.3060 C   0  0  0  0  0  0  0  0  0  0  0  0
  -22.1310   -8.9970   20.3580 C   0  0  0  0  0  3  0  0  0  0  0  0
  -22.8450  -10.1950   20.1960 C   0  0  0  0  0  3  0  0  0  0  0  0
  -21.7940   -6.8900   21.3780 O   0  0  0  0  0  0  0  0  0  0  0  0
  -21.7110   -6.1580   22.5360 C   0  0  0  0  0  0  0  0  0  0  0  0
  -21.1860   -6.7050   23.7270 C   0  0  0  0  0  3  0  0  0  0  0  0
  -21.0530   -5.8960   24.8730 C   0  0  0  0  0  3  0  0  0  0  0  0
  -21.4350   -4.5420   24.8310 C   0  0  0  0  0  0  0  0  0  0  0  0
  -21.9540   -3.9940   23.6450 C   0  0  0  0  0  3  0  0  0  0  0  0
  -22.0880   -4.7990   22.4990 C   0  0  0  0  0  0  0  0  0  0  0  0
  -22.5700   -4.2620   21.3530 F   0  0  0  0  0  0  0  0  0  0  0  0
  -21.2990   -3.7640   25.9310 F   0  0  0  0  0  0  0  0  0  0  0  0
  -22.8130  -13.5360   21.1630 C   0  0  0  0  0  0  0  0  0  0  0  0
  -22.1000  -12.8100   22.0150 N   0  0  0  0  0  0  0  0  0  0  0  0
  -22.3620  -14.5690   20.6710 O   0  0  0  0  0  0  0  0  0  0  0  0
  -22.4870  -11.9790   22.4370 H   0  0  0  0  0  0  0  0  0  0  0  0
  -21.1580  -13.0850   22.2500 H   0  0  0  0  0  0  0  0  0  0  0  0
  -25.4090  -15.2560   20.3600 N   0  0  0  0  0  0  0  0  0  0  0  0
  -24.6360  -15.8980   20.4830 H   0  0  0  0  0  0  0  0  0  0  0  0
  -26.2410  -15.7010   19.9920 H   0  0  0  0  0  0  0  0  0  0  0  0
  -28.1290  -24.3280   20.2230 C   0  0  0  0  0  2  0  0  0  0  0  0
  -28.2580  -25.9800   20.2600 O   0  0  0  0  0  0  0  0  0  0  0  0
  -24.6530  -31.9070   23.2420 C   0  0  0  0  0  0  0  0  0  0  0  0
  -27.2130  -27.0380   20.2300 C   0  0  0  0  0  0  0  0  0  0  0  0
  -23.4580  -30.5050   21.6090 C   0  0  0  0  0  3  0  0  0  0  0  0
  -24.9060  -28.8970   20.1920 C   0  0  0  0  0  0  0  0  0  0  0  0
  -26.0240  -30.7220   21.4570 C   0  0  0  0  0  2  0  0  0  0  0  0
  -26.0950  -29.3120   20.8070 C   0  0  0  0  0  0  0  0  0  0  0  0
  -27.2440  -28.4040   20.7960 C   0  0  0  0  0  3  0  0  0  0  0  0
  -25.9930  -26.7660   19.5730 C   0  0  0  0  0  3  0  0  0  0  0  0
  -24.8790  -27.6450   19.5570 C   0  0  0  0  0  3  0  0  0  0  0  0
  -23.6850  -29.8150   20.2370 C   0  0  0  0  0  2  0  0  0  0  0  0
  -24.7340  -31.0720   22.1570 N   0  0  0  0  0  0  0  0  0  0  0  0
  -23.5640  -32.1990   23.7610 O   0  0  0  0  0  0  0  0  0  0  0  0
  -22.7640  -29.5120   22.5780 C   0  0  0  0  0  0  0  0  0  0  0  0
  -21.4370  -29.3360   22.4440 N   0  0  0  0  0  0  0  0  0  0  0  0
  -23.4300  -28.8990   23.4160 O   0  0  0  0  0  0  0  0  0  0  0  0
  -20.9520  -29.8820   21.7460 H   0  0  0  0  0  0  0  0  0  0  0  0
  -18.0570  -28.1230   22.9570 C   0  0  0  0  0  0  0  0  0  0  0  0
  -20.6160  -28.3980   23.2200 C   0  0  0  0  0  3  0  0  0  0  0  0
  -20.7210  -26.9640   22.6510 C   0  0  0  0  0  2  0  0  0  0  0  0
  -19.6200  -26.6360   21.6370 C   0  0  0  0  0  2  0  0  0  0  0  0
  -18.2370  -26.7760   22.2800 C   0  0  0  0  0  2  0  0  0  0  0  0
  -19.1730  -28.8920   23.3850 C   0  0  0  0  0  0  0  0  0  0  0  0
  -18.9480  -30.1530   23.9800 C   0  0  0  0  0  3  0  0  0  0  0  0
  -17.6410  -30.6460   24.1490 C   0  0  0  0  0  3  0  0  0  0  0  0
  -16.5400  -29.8760   23.7360 C   0  0  0  0  0  3  0  0  0  0  0  0
  -16.7490  -28.6160   23.1490 C   0  0  0  0  0  3  0  0  0  0  0  0
  -25.9240  -32.5520   23.8730 C   0  0  0  0  0  3  0  0  0  0  0  0
  -26.4180  -31.8040   25.1730 C   0  0  1  0  0  0  0  0  0  0  0  0
  -25.3090  -31.5930   26.2300 C   0  0  0  0  0  1  0  0  0  0  0  0
  -27.0000  -30.4160   24.8230 C   0  0  0  0  0  1  0  0  0  0  0  0
  -27.5610  -32.6090   25.8390 C   0  0  0  0  0  1  0  0  0  0  0  0
  -25.6110  -33.9580   24.1860 N   0  0  0  0  0  0  0  0  0  0  0  0
  -25.9280  -35.0060   23.4140 C   0  0  0  0  0  0  0  0  0  0  0  0
  -26.5780  -34.8920   22.3720 O   0  0  0  0  0  0  0  0  0  0  0  0
  -25.0310  -34.1200   24.9960 H   0  0  0  0  0  0  0  0  0  0  0  0
  -24.1920  -36.8010   23.0810 C   0  0  0  0  0  1  0  0  0  0  0  0
  -25.4510  -36.4030   23.8670 C   0  0  0  0  0  3  0  0  0  0  0  0
  -27.5980  -37.3090   24.6460 C   0  0  0  0  0  1  0  0  0  0  0  0
  -26.4800  -37.4550   23.7180 N   0  0  0  0  0  0  0  0  0  0  0  0
  -26.0740  -38.3770   23.8550 H   0  0  0  0  0  0  0  0  0  0  0  0
  1  2  1  0
  2  6  2  0
  3  1  2  0
  3  4  1  0
  4  5  2  0
  5  6  1  0
  5 14  1  0
  6 57  1  0
  7  2  1  0
  9  3  1  0
  9  8  1  0
 10  4  1  0
 11 10  1  0
 12 13  1  0
 13 11  1  0
 14 15  1  0
 15 16  1  0
 16 19  1  0
 16 18  1  0
 17 16  1  0
 20 21  1  0
 20 15  2  0
 22 27  1  0
 23 24  1  0
 23 22  1  0
 25 24  1  0
 25 32  1  0
 25 26  1  0
 27 21  1  0
 27 26  1  0
 28 21  2  0
 29 30  2  0
 30 49  1  0
 31 30  1  0
 31 34  1  0
 32 33  1  0
 32 29  1  0
 33 31  2  0
 34 35  1  0
 35 36  2  0
 37 40  1  0
 37 36  1  0
 38 37  2  0
 39 38  1  0
 39 34  2  0
 40 41  1  0
 41 42  1  0
 42 43  2  0
 44 43  1  0
 44 48  1  0
 45 44  2  0
 46 41  2  0
 46 45  1  0
 47 46  1  0
 49 50  1  0
 50 53  1  0
 50 52  1  0
 51 49  2  0
 54 55  1  0
 54 29  1  0
 56 54  1  0
 57 58  1  0
 59 70  2  0
 60 58  1  0
 60 65  1  0
 61 69  1  0
 61 71  1  0
 62 68  1  0
 62 64  1  0
 63 69  1  0
 64 63  1  0
 65 64  2  0
 66 60  2  0
 67 66  1  0
 67 62  2  0
 68 61  1  0
 69 59  1  0
 71 73  2  0
 72 71  1  0
 74 72  1  0
 75 84  2  0
 75 80  1  0
 76 72  1  0
 76 80  1  0
 77 76  1  0
 78 79  1  0
 78 77  1  0
 79 75  1  0
 80 81  2  0
 81 82  1  0
 83 82  2  0
 84 83  1  0
 85 59  1  0
 85 90  1  0
 85 86  1  0
 86 89  1  1
 86 87  1  0
 88 86  1  0
 90 93  1  0
 91 95  1  0
 91 90  1  0
 92 91  2  0
 95 94  1  0
 97 98  1  0
 97 95  1  0
 97 96  1  0
M  ISO  4  20 100  21 100  57 101  58 101
M  END
>  <TORSDO>  (5) 
F 25

>  <SCORE>  (5) 
-14.974

>  <name>  (5) 
4

>  <ligand_id>  (5) 
4

>  <original_smiles>  (5) 
[H]c1c([H])c([H])c2c(c1[H])C([H])([H])C([H])([H])C([H])([H])C2([H])N([H])C(=O)C1([H])N(C(=O)C([H])(N([H])C(=O)C([H])(N([H])C([H])([H])[H])C([H])([H])[H])C(C([H])([H])[H])(C([H])([H])[H])C([H])([H])[H])C([H])([H])c2c([H])c(OC([H])([H])c3c(C([H])([H])[H])c([H])c(C([H])([H])C([H])([H])[H])c(C([H])([H])C([H])([H])C([H])([H])C([H])([H])[H])c3C([H])([H])C([H])(C([H])([H])C(=O)N3C([H])([H])C([H])([H])C([H])([H])C([H])(n4nc(-c5c([H])c([H])c(Oc6c([H])c([H])c(F)c([H])c6F)c([H])c5[H])c(C(=O)N([H])[H])c4N([H])[H])C3([H])[H])[N+]([H])([H])[H])c([H])c([H])c2C1([H])[H]

>  <smiles>  (5) 
[H]c1c([H])c([H])c2c(c1[H])C([H])([H])C([H])([H])C([H])([H])C2([H])N([H])C(=O)C1([H])N(C(=O)C([H])(N([H])C(=O)C([H])(N([H])C([H])([H])[H])C([H])([H])[H])C(C([H])([H])[H])(C([H])([H])[H])C([H])([H])[H])C([H])([H])c2c([H])c(OC([H])([H])c3c(C([H])([H])[H])c([H])c(C([H])([H])C([H])([H])[H])c(C([H])([H])C([H])([H])C([H])([H])C([H])([H])[H])c3C([H])([H])C([H])(C([H])([H])C(=O)N3C([H])([H])C([H])([H])C([H])([H])C([H])(n4nc(-c5c([H])c([H])c(Oc6c([H])c([H])c(F)c([H])c6F)c([H])c5[H])c(C(=O)N([H])[H])c4N([H])[H])C3([H])[H])[N+]([H])([H])[H])c([H])c([H])c2C1([H])[H]

$$$$
5:0:0
     RDKit          3D

 94100  0  0  1  0  0  0  0  0999 V2000
  -21.9670  -24.4930   21.8760 C   0  0  0  0  0  2  0  0  0  0  0  0
  -23.8360  -25.6640   20.2880 C   0  0  0  0  0  3  0  0  0  0  0  0
  -21.4930  -27.0630   20.1250 C   0  0  0  0  0  2  0  0  0  0  0  0
  -23.3850  -24.5550   21.2090 C   0  0  0  0  0  0  0  0  0  0  0  0
  -20.7630  -25.5470   21.6070 C   0  0  0  0  0  3  0  0  0  0  0  0
  -23.2540  -26.9790   19.8260 C   0  0  0  0  0  3  0  0  0  0  0  0
  -19.7120  -25.1970   22.4990 N   0  0  0  0  0  0  0  0  0  0  0  0
  -19.6080  -24.2260   22.7640 H   0  0  0  0  0  0  0  0  0  0  0  0
  -18.8240  -25.6510   22.3040 H   0  0  0  0  0  0  0  0  0  0  0  0
  -24.5240  -23.4150   21.4650 C   0  0  0  0  0  0  0  0  0  0  0  0
  -24.6900  -23.0340   22.6270 O   0  0  0  0  0  0  0  0  0  0  0  0
  -25.5370  -22.6790   20.3600 C   0  0  0  0  0  3  0  0  0  0  0  0
  -25.8450  -21.0050   20.2210 C   0  0  0  0  0  3  0  0  0  0  0  0
  -26.9680  -20.2110   19.2090 C   0  0  0  0  0  2  0  0  0  0  0  0
  -27.3860  -18.5590   19.2170 C   0  0  0  0  0  3  0  0  0  0  0  0
  -28.8280  -17.7870   18.7160 C   0  0  0  0  0  3  0  0  0  0  0  0
  -29.2540  -16.2270   19.2140 C   0  0  0  0  0  2  0  0  0  0  0  0
  -30.6650  -15.3180   19.5020 C   0  0  0  0  0  0  0  0  0  0  0  0
  -31.2520  -12.8280   19.5720 C   0  0  0  0  0  2  0  0  0  0  0  0
  -30.3880  -12.1170   18.4900 C   0  0  0  0  0  2  0  0  0  0  0  0
  -28.9360  -11.8760   18.9700 C   0  0  0  0  0  2  0  0  0  0  0  0
  -28.3560  -13.1320   19.6580 C   0  0  0  0  0  3  0  0  0  0  0  0
  -29.3270  -13.6320   20.7420 C   0  0  0  0  0  2  0  0  0  0  0  0
  -30.5260  -14.0460   20.0320 N   0  0  0  0  0  0  0  0  0  0  0  0
  -31.8050  -15.6050   19.0830 O   0  0  0  0  0  0  0  0  0  0  0  0
  -26.0990  -13.9200   20.5600 C   0  0  0  0  0  0  0  0  0  0  0  0
  -24.9930  -13.2240   20.9570 C   0  0  0  0  0  0  0  0  0  0  0  0
  -25.3290  -11.8430   20.8220 C   0  0  0  0  0  0  0  0  0  0  0  0
  -27.0280  -12.9570   20.1980 N   0  0  0  0  0  0  0  0  0  0  0  0
  -26.5830  -11.7020   20.4220 N   0  0  0  0  0  0  0  0  0  0  0  0
  -24.5150  -10.6390   20.9840 C   0  0  0  0  0  0  0  0  0  0  0  0
  -24.9770   -9.5320   21.7280 C   0  0  0  0  0  3  0  0  0  0  0  0
  -24.1680   -8.3880   21.8790 C   0  0  0  0  0  3  0  0  0  0  0  0
  -22.8830   -8.3470   21.2880 C   0  0  0  0  0  0  0  0  0  0  0  0
  -22.4390   -9.4420   20.5280 C   0  0  0  0  0  3  0  0  0  0  0  0
  -23.2480  -10.5790   20.3730 C   0  0  0  0  0  3  0  0  0  0  0  0
  -22.0370   -7.2690   21.3610 O   0  0  0  0  0  0  0  0  0  0  0  0
  -21.8270   -6.6010   22.5400 C   0  0  0  0  0  0  0  0  0  0  0  0
  -21.3410   -7.2570   23.6930 C   0  0  0  0  0  3  0  0  0  0  0  0
  -21.0750   -6.5170   24.8620 C   0  0  0  0  0  3  0  0  0  0  0  0
  -21.2840   -5.1240   24.8790 C   0  0  0  0  0  0  0  0  0  0  0  0
  -21.7640   -4.4700   23.7300 C   0  0  0  0  0  3  0  0  0  0  0  0
  -22.0330   -5.2070   22.5630 C   0  0  0  0  0  0  0  0  0  0  0  0
  -22.4750   -4.5710   21.4530 F   0  0  0  0  0  0  0  0  0  0  0  0
  -21.0190   -4.4120   25.9980 F   0  0  0  0  0  0  0  0  0  0  0  0
  -23.6650  -13.8040   21.3430 C   0  0  0  0  0  0  0  0  0  0  0  0
  -22.9790  -13.1800   22.2930 N   0  0  0  0  0  0  0  0  0  0  0  0
  -23.2490  -14.8450   20.8340 O   0  0  0  0  0  0  0  0  0  0  0  0
  -23.3320  -12.3380   22.7240 H   0  0  0  0  0  0  0  0  0  0  0  0
  -22.0890  -13.5500   22.5950 H   0  0  0  0  0  0  0  0  0  0  0  0
  -26.3800  -15.2790   20.4540 N   0  0  0  0  0  0  0  0  0  0  0  0
  -25.6850  -15.9880   20.6570 H   0  0  0  0  0  0  0  0  0  0  0  0
  -27.2440  -15.6630   20.0960 H   0  0  0  0  0  0  0  0  0  0  0  0
  -24.6500  -27.9080   19.9930 O   0  0  0  0  0  0  0  0  0  0  0  0
  -24.3480  -32.0760   23.4050 C   0  0  0  0  0  0  0  0  0  0  0  0
  -25.9220  -28.3480   19.3900 C   0  0  0  0  0  3  0  0  0  0  0  0
  -23.1850  -31.2740   21.4210 C   0  0  0  0  0  3  0  0  0  0  0  0
  -24.5720  -30.5110   19.3880 C   0  0  0  0  0  3  0  0  0  0  0  0
  -25.7140  -31.5780   21.3560 C   0  0  0  0  0  2  0  0  0  0  0  0
  -25.6740  -30.5260   20.2570 C   0  0  0  0  0  3  0  0  0  0  0  0
  -26.5420  -29.4210   20.1330 C   0  0  0  0  0  2  0  0  0  0  0  0
  -25.6130  -28.7140   18.1100 C   0  0  0  0  0  2  0  0  0  0  0  0
  -24.6140  -29.6970   18.2180 C   0  0  0  0  0  2  0  0  0  0  0  0
  -23.3240  -31.1930   19.8620 C   0  0  0  0  0  2  0  0  0  0  0  0
  -24.4350  -31.7140   22.0930 N   0  0  0  0  0  0  0  0  0  0  0  0
  -23.2530  -32.1420   23.9900 O   0  0  0  0  0  0  0  0  0  0  0  0
  -22.7950  -29.9590   22.1160 C   0  0  0  0  0  0  0  0  0  0  0  0
  -21.5780  -29.8040   22.5850 N   0  0  0  0  0  0  0  0  0  0  0  0
  -23.6370  -29.1050   22.3540 O   0  0  0  0  0  0  0  0  0  0  0  0
  -20.9100  -30.5570   22.5020 H   0  0  0  0  0  0  0  0  0  0  0  0
  -18.2200  -28.8570   22.0090 C   0  0  0  0  0  0  0  0  0  0  0  0
  -21.0460  -28.4770   22.9470 C   0  0  0  0  0  2  0  0  0  0  0  0
  -21.8750  -27.0060   21.8920 C   0  0  0  0  0  2  0  0  0  0  0  0
  -19.5490  -26.9230   19.5190 C   0  0  0  0  0 15  0  0  0  0  0  0
  -18.1720  -28.0320   20.4180 C   0  0  0  0  0  1  0  0  0  0  0  0
  -19.4130  -29.0680   22.9520 C   0  0  0  0  0  0  0  0  0  0  0  0
  -19.1890  -29.9300   24.0900 C   0  0  0  0  0  3  0  0  0  0  0  0
  -17.9460  -30.4390   24.5180 C   0  0  0  0  0  3  0  0  0  0  0  0
  -16.8040  -30.0340   23.8240 C   0  0  0  0  0  3  0  0  0  0  0  0
  -16.9540  -29.2710   22.6240 C   0  0  0  0  0  3  0  0  0  0  0  0
  -25.6090  -32.4450   24.2230 C   0  0  0  0  0  3  0  0  0  0  0  0
  -25.5000  -33.8810   24.4960 N   0  0  0  0  0  0  0  0  0  0  0  0
  -26.0850  -34.8320   23.7620 C   0  0  0  0  0  0  0  0  0  0  0  0
  -26.8640  -34.5760   22.8390 O   0  0  0  0  0  0  0  0  0  0  0  0
  -24.8350  -34.1590   25.2030 H   0  0  0  0  0  0  0  0  0  0  0  0
  -24.7650  -36.8680   23.0980 C   0  0  0  0  0  1  0  0  0  0  0  0
  -25.7650  -36.2950   24.1150 C   0  0  0  0  0  3  0  0  0  0  0  0
  -27.8550  -36.8260   25.2870 C   0  0  0  0  0  1  0  0  0  0  0  0
  -26.9650  -37.1560   24.1760 N   0  0  0  0  0  0  0  0  0  0  0  0
  -26.7040  -38.1340   24.2570 H   0  0  0  0  0  0  0  0  0  0  0  0
  -25.7510  -31.6350   25.5690 C   0  0  1  0  0  0  0  0  0  0  0  0
  -24.4590  -31.5770   26.4160 C   0  0  0  0  0  1  0  0  0  0  0  0
  -26.1970  -30.1800   25.2950 C   0  0  0  0  0  1  0  0  0  0  0  0
  -26.8620  -32.2780   26.4310 C   0  0  0  0  0  1  0  0  0  0  0  0
  2  4  2  0
  3 73  1  0
  4 10  1  0
  4  1  1  0
  5  1  1  0
  5 73  1  0
  5  7  1  0
  6 54  1  0
  6  3  1  0
  6  2  1  0
  7  8  1  0
  9  7  1  0
 10 11  2  0
 12 10  1  0
 13 12  2  0
 14 15  1  0
 14 13  1  0
 16 17  1  0
 16 15  2  0
 17 18  1  0
 18 24  1  0
 19 24  1  0
 20 21  1  0
 20 19  1  0
 22 21  1  0
 22 29  1  0
 22 23  1  0
 24 23  1  0
 25 18  2  0
 26 27  2  0
 27 46  1  0
 28 27  1  0
 28 31  1  0
 29 30  1  0
 29 26  1  0
 30 28  2  0
 31 32  1  0
 32 33  2  0
 34 37  1  0
 34 33  1  0
 35 34  2  0
 36 35  1  0
 36 31  2  0
 37 38  1  0
 38 43  2  0
 38 39  1  0
 39 40  2  0
 40 41  1  0
 41 45  1  0
 42 41  2  0
 43 42  1  0
 44 43  1  0
 46 47  1  0
 47 50  1  0
 47 49  1  0
 48 46  2  0
 51 26  1  0
 51 52  1  0
 53 51  1  0
 55 66  2  0
 56 54  1  0
 56 61  1  0
 57 65  1  0
 57 67  1  0
 58 63  1  0
 58 64  1  0
 58 60  1  0
 59 65  1  0
 60 61  1  0
 60 59  1  0
 62 63  1  0
 62 56  1  0
 64 57  1  0
 65 55  1  0
 67 69  2  0
 67 68  1  0
 68 72  1  0
 70 68  1  0
 71 80  2  0
 71 76  1  0
 72 76  1  0
 75 71  1  0
 76 77  2  0
 77 78  1  0
 79 78  2  0
 80 79  1  0
 81 55  1  0
 81 82  1  0
 81 91  1  0
 82 85  1  0
 83 87  1  0
 83 82  1  0
 84 83  2  0
 87 86  1  0
 87 89  1  0
 89 90  1  0
 89 88  1  0
 91 92  1  1
 91 94  1  0
 93 91  1  0
M  ISO  4   6 101  17 100  18 100  54 101
M  END
>  <TORSDO>  (6) 
F 24

>  <SCORE>  (6) 
-7.302

>  <name>  (6) 
5

>  <ligand_id>  (6) 
5

>  <original_smiles>  (6) 
[H]c1c([H])c([H])c2c(c1[H])C([H])([H])C([H])([H])C([H])([H])C2([H])N([H])C(=O)C1([H])N(C(=O)C([H])(N([H])C(=O)C([H])(N([H])C([H])([H])[H])C([H])([H])[H])C(C([H])([H])[H])(C([H])([H])[H])C([H])([H])[H])C([H])([H])c2c([H])c(Oc3c([H])c(C(=O)C([H])([H])C([H])([H])C([H])([H])C([H])([H])C([H])([H])C([H])([H])C(=O)N4C([H])([H])C([H])([H])C([H])([H])C([H])(n5nc(-c6c([H])c([H])c(Oc7c([H])c([H])c(F)c([H])c7F)c([H])c6[H])c(C(=O)N([H])[H])c5N([H])[H])C4([H])[H])c([H])c(N([H])[H])c3[H])c([H])c([H])c2C1([H])[H]

>  <smiles>  (6) 
[H]c1c([H])c([H])c2c(c1[H])C([H])([H])C([H])([H])C([H])([H])C2([H])N([H])C(=O)C1([H])N(C(=O)C([H])(N([H])C(=O)C([H])(N([H])C([H])([H])[H])C([H])([H])[H])C(C([H])([H])[H])(C([H])([H])[H])C([H])([H])[H])C([H])([H])c2c([H])c(Oc3c([H])c(C(=O)C([H])([H])C([H])([H])C([H])([H])C([H])([H])C([H])([H])C([H])([H])C(=O)N4C([H])([H])C([H])([H])C([H])([H])C([H])(n5nc(-c6c([H])c([H])c(Oc7c([H])c([H])c(F)c([H])c7F)c([H])c6[H])c(C(=O)N([H])[H])c5N([H])[H])C4([H])[H])c([H])c(N([H])[H])c3[H])c([H])c([H])c2C1([H])[H]

$$$$
6:0:0
     RDKit          3D

 95104  0  0  1  0  0  0  0  0999 V2000
  -26.9550  -21.3920   18.5450 C   0  0  0  0  0  3  0  0  0  0  0  0
  -26.0890  -24.0470   18.9970 C   0  0  0  0  0  3  0  0  0  0  0  0
  -27.6710  -22.2030   19.4590 C   0  0  0  0  0  0  0  0  0  0  0  0
  -27.2460  -23.5840   19.6580 C   0  0  0  0  0  0  0  0  0  0  0  0
  -25.8020  -21.8810   17.8900 C   0  0  0  0  0  0  0  0  0  0  0  0
  -25.3810  -23.2090   18.1150 C   0  0  0  0  0  0  0  0  0  0  0  0
  -28.9540  -23.0800   21.1860 C   0  0  0  0  0  2  0  0  0  0  0  0
  -27.9310  -24.3890   20.7890 C   0  0  0  0  0  3  0  0  0  0  0  0
  -28.9090  -21.6410   20.2440 C   0  0  2  0  0  0  0  0  0  0  0  0
  -24.2630  -23.6750   17.5080 F   0  0  0  0  0  0  0  0  0  0  0  0
  -23.9080  -20.1830   17.7210 C   0  0  0  0  0  1  0  0  0  0  0  0
  -24.9940  -20.9730   16.9710 C   0  0  0  0  0  2  0  0  0  0  0  0
  -31.5080  -21.5930   19.9300 C   0  0  0  0  0  1  0  0  0  0  0  0
  -30.1160  -21.6960   19.2700 C   0  0  0  0  0  2  0  0  0  0  0  0
  -28.1100  -26.0440   20.8720 O   0  0  0  0  0  0  0  0  0  0  0  0
  -24.9060  -32.2850   23.7350 C   0  0  0  0  0  0  0  0  0  0  0  0
  -27.1430  -27.1810   20.8660 C   0  0  0  0  0  0  0  0  0  0  0  0
  -23.6250  -30.9170   22.1380 C   0  0  0  0  0  3  0  0  0  0  0  0
  -24.9720  -29.1970   20.7540 C   0  0  0  0  0  0  0  0  0  0  0  0
  -26.1970  -30.9780   21.9780 C   0  0  0  0  0  2  0  0  0  0  0  0
  -26.1810  -29.5450   21.3700 C   0  0  0  0  0  0  0  0  0  0  0  0
  -27.2650  -28.5580   21.3980 C   0  0  0  0  0  3  0  0  0  0  0  0
  -25.9310  -27.0010   20.1670 C   0  0  0  0  0  3  0  0  0  0  0  0
  -24.8730  -27.9460   20.1250 C   0  0  0  0  0  3  0  0  0  0  0  0
  -23.8080  -30.1890   20.7780 C   0  0  0  0  0  2  0  0  0  0  0  0
  -24.9330  -31.4210   22.6690 N   0  0  0  0  0  0  0  0  0  0  0  0
  -23.8370  -32.6520   24.2500 O   0  0  0  0  0  0  0  0  0  0  0  0
  -22.8800  -29.9880   23.1310 C   0  0  0  0  0  0  0  0  0  0  0  0
  -21.6190  -29.6340   22.8270 N   0  0  0  0  0  0  0  0  0  0  0  0
  -23.4520  -29.5790   24.1460 O   0  0  0  0  0  0  0  0  0  0  0  0
  -21.2030  -30.0270   21.9950 H   0  0  0  0  0  0  0  0  0  0  0  0
  -18.3760  -28.0090   22.9420 C   0  0  0  0  0  0  0  0  0  0  0  0
  -20.7760  -28.7160   23.6030 C   0  0  0  0  0  3  0  0  0  0  0  0
  -21.1660  -27.2410   23.3470 C   0  0  0  0  0  2  0  0  0  0  0  0
  -20.3430  -26.5880   22.2320 C   0  0  0  0  0  2  0  0  0  0  0  0
  -18.8520  -26.6140   22.5770 C   0  0  0  0  0  2  0  0  0  0  0  0
  -19.2810  -29.0000   23.4090 C   0  0  0  0  0  0  0  0  0  0  0  0
  -18.7880  -30.2900   23.7060 C   0  0  0  0  0  3  0  0  0  0  0  0
  -17.4220  -30.5930   23.5420 C   0  0  0  0  0  3  0  0  0  0  0  0
  -16.5300  -29.6040   23.0910 C   0  0  0  0  0  3  0  0  0  0  0  0
  -17.0080  -28.3160   22.7950 C   0  0  0  0  0  3  0  0  0  0  0  0
  -26.2160  -32.8710   24.3430 C   0  0  0  0  0  3  0  0  0  0  0  0
  -26.6350  -32.1730   25.6950 C   0  0  1  0  0  0  0  0  0  0  0  0
  -25.4750  -32.0240   26.7070 C   0  0  0  0  0  1  0  0  0  0  0  0
  -27.2080  -30.7600   25.4320 C   0  0  0  0  0  1  0  0  0  0  0  0
  -27.7620  -32.9850   26.3760 C   0  0  0  0  0  1  0  0  0  0  0  0
  -26.0070  -34.3130   24.5640 N   0  0  0  0  0  0  0  0  0  0  0  0
  -26.4010  -35.2810   23.7280 C   0  0  0  0  0  0  0  0  0  0  0  0
  -27.0420  -35.0520   22.7000 O   0  0  0  0  0  0  0  0  0  0  0  0
  -25.4350  -34.5720   25.3530 H   0  0  0  0  0  0  0  0  0  0  0  0
  -24.7780  -37.1620   23.3070 C   0  0  0  0  0  1  0  0  0  0  0  0
  -26.0300  -36.7350   24.0890 C   0  0  0  0  0  3  0  0  0  0  0  0
  -28.2590  -37.5420   24.7350 C   0  0  0  0  0  1  0  0  0  0  0  0
  -27.1170  -37.7040   23.8370 N   0  0  0  0  0  0  0  0  0  0  0  0
  -26.7780  -38.6580   23.9270 H   0  0  0  0  0  0  0  0  0  0  0  0
  -28.8230  -19.8770   20.7010 C   0  0  0  0  0  3  0  0  0  0  0  0
  -29.7970  -18.3940   20.3350 C   0  0  0  0  0  3  0  0  0  0  0  0
  -30.5310  -15.5370   20.7010 C   0  0  0  0  0  0  0  0  0  0  0  0
  -30.6450  -13.0760   19.8800 C   0  0  0  0  0  2  0  0  0  0  0  0
  -29.8020  -12.8200   18.6030 C   0  0  0  0  0  2  0  0  0  0  0  0
  -28.3440  -12.4980   18.9670 C   0  0  0  0  0  2  0  0  0  0  0  0
  -27.7990  -13.4630   20.0490 C   0  0  0  0  0  3  0  0  0  0  0  0
  -28.7730  -13.6610   21.2310 C   0  0  0  0  0  2  0  0  0  0  0  0
  -30.0190  -14.2050   20.6670 N   0  0  0  0  0  0  0  0  0  0  0  0
  -31.7490  -15.5820   20.4790 O   0  0  0  0  0  0  0  0  0  0  0  0
  -29.7170  -16.7780   20.7900 N   0  0  0  0  0  0  0  0  0  0  0  0
  -28.7770  -16.5310   21.0640 H   0  0  0  0  0  0  0  0  0  0  0  0
  -25.3750  -13.9530   20.6650 C   0  0  0  0  0  0  0  0  0  0  0  0
  -24.3180  -13.1460   20.9800 C   0  0  0  0  0  0  0  0  0  0  0  0
  -24.8270  -11.8110   20.9860 C   0  0  0  0  0  0  0  0  0  0  0  0
  -26.4550  -13.1090   20.4860 N   0  0  0  0  0  0  0  0  0  0  0  0
  -26.1350  -11.8140   20.7480 N   0  0  0  0  0  0  0  0  0  0  0  0
  -24.1290  -10.5280   21.1460 C   0  0  0  0  0  0  0  0  0  0  0  0
  -24.5250   -9.5860   22.1200 C   0  0  0  0  0  3  0  0  0  0  0  0
  -23.8240   -8.3710   22.2690 C   0  0  0  0  0  3  0  0  0  0  0  0
  -22.7130   -8.0860   21.4380 C   0  0  0  0  0  0  0  0  0  0  0  0
  -22.3360   -9.0170   20.4540 C   0  0  0  0  0  3  0  0  0  0  0  0
  -23.0400  -10.2250   20.3050 C   0  0  0  0  0  3  0  0  0  0  0  0
  -21.9890   -6.9200   21.4910 O   0  0  0  0  0  0  0  0  0  0  0  0
  -21.8750   -6.1950   22.6480 C   0  0  0  0  0  0  0  0  0  0  0  0
  -21.3180   -6.7490   23.8210 C   0  0  0  0  0  3  0  0  0  0  0  0
  -21.1550   -5.9500   24.9690 C   0  0  0  0  0  3  0  0  0  0  0  0
  -21.5390   -4.5950   24.9460 C   0  0  0  0  0  0  0  0  0  0  0  0
  -22.0880   -4.0400   23.7770 C   0  0  0  0  0  3  0  0  0  0  0  0
  -22.2520   -4.8370   22.6300 C   0  0  0  0  0  0  0  0  0  0  0  0
  -22.7630   -4.2920   21.5000 F   0  0  0  0  0  0  0  0  0  0  0  0
  -21.3750   -3.8230   26.0460 F   0  0  0  0  0  0  0  0  0  0  0  0
  -22.8950  -13.5840   21.1640 C   0  0  0  0  0  0  0  0  0  0  0  0
  -22.1510  -12.8990   22.0250 N   0  0  0  0  0  0  0  0  0  0  0  0
  -22.4490  -14.5710   20.5810 O   0  0  0  0  0  0  0  0  0  0  0  0
  -22.5240  -12.1030   22.5180 H   0  0  0  0  0  0  0  0  0  0  0  0
  -21.1970  -13.1810   22.1950 H   0  0  0  0  0  0  0  0  0  0  0  0
  -25.5030  -15.3270   20.4870 N   0  0  0  0  0  0  0  0  0  0  0  0
  -24.7070  -15.9520   20.5550 H   0  0  0  0  0  0  0  0  0  0  0  0
  -26.3470  -15.7940   20.1860 H   0  0  0  0  0  0  0  0  0  0  0  0
  1  3  1  0
  2  4  1  0
  3  4  2  0
  3  9  1  0
  4  8  1  0
  5  6  1  0
  5  1  2  0
  6  2  2  0
  8 15  1  0
  8  7  1  0
  9 14  1  6
  9 56  1  0
  9  7  1  0
 10  6  1  0
 12 11  1  0
 12  5  1  0
 14 13  1  0
 16 27  2  0
 17 15  1  0
 17 22  1  0
 18 26  1  0
 18 28  1  0
 19 25  1  0
 19 21  1  0
 20 26  1  0
 21 22  2  0
 21 20  1  0
 23 17  2  0
 24 23  1  0
 24 19  2  0
 25 18  1  0
 26 16  1  0
 28 30  2  0
 29 28  1  0
 31 29  1  0
 32 37  1  0
 33 29  1  0
 34 33  1  0
 35 36  1  0
 35 34  1  0
 36 32  1  0
 37 33  1  0
 37 38  2  0
 39 38  1  0
 40 39  2  0
 41 32  2  0
 41 40  1  0
 42 16  1  0
 42 47  1  0
 42 43  1  0
 43 46  1  1
 43 44  1  0
 45 43  1  0
 47 50  1  0
 48 52  1  0
 48 47  1  0
 49 48  2  0
 52 51  1  0
 54 55  1  0
 54 52  1  0
 54 53  1  0
 57 56  2  0
 57 66  1  0
 58 66  1  0
 59 64  1  0
 60 61  1  0
 60 59  1  0
 62 61  1  0
 62 71  1  0
 62 63  1  0
 64 58  1  0
 64 63  1  0
 65 58  2  0
 66 67  1  0
 68 69  2  0
 69 70  1  0
 69 88  1  0
 70 73  1  0
 71 68  1  0
 71 72  1  0
 72 70  2  0
 73 74  1  0
 74 75  2  0
 76 79  1  0
 76 75  1  0
 77 76  2  0
 78 77  1  0
 78 73  2  0
 79 80  1  0
 80 81  1  0
 81 82  2  0
 83 82  1  0
 83 87  1  0
 84 83  2  0
 85 80  2  0
 85 84  1  0
 86 85  1  0
 88 89  1  0
 89 92  1  0
 89 91  1  0
 90 88  2  0
 93 94  1  0
 93 68  1  0
 95 93  1  0
M  ISO  4   8 101  15 101  58 100  66 100
M  END
>  <TORSDO>  (7) 
F 20

>  <SCORE>  (7) 
-13.017

>  <name>  (7) 
6

>  <ligand_id>  (7) 
6

>  <original_smiles>  (7) 
[H]c1c([H])c([H])c2c(c1[H])C([H])([H])C([H])([H])C([H])([H])C2([H])N([H])C(=O)C1([H])N(C(=O)C([H])(N([H])C(=O)C([H])(N([H])C([H])([H])[H])C([H])([H])[H])C(C([H])([H])[H])(C([H])([H])[H])C([H])([H])[H])C([H])([H])c2c([H])c(OC3([H])c4c([H])c(F)c(C([H])([H])C([H])([H])[H])c([H])c4C(C([H])([H])C([H])([H])[H])(C([H])([H])C([H])([H])N([H])C(=O)N4C([H])([H])C([H])([H])C([H])([H])C([H])(n5nc(-c6c([H])c([H])c(Oc7c([H])c([H])c(F)c([H])c7F)c([H])c6[H])c(C(=O)N([H])[H])c5N([H])[H])C4([H])[H])C3([H])[H])c([H])c([H])c2C1([H])[H]

>  <smiles>  (7) 
[H]c1c([H])c([H])c2c(c1[H])C([H])([H])C([H])([H])C([H])([H])C2([H])N([H])C(=O)C1([H])N(C(=O)C([H])(N([H])C(=O)C([H])(N([H])C([H])([H])[H])C([H])([H])[H])C(C([H])([H])[H])(C([H])([H])[H])C([H])([H])[H])C([H])([H])c2c([H])c(OC3([H])c4c([H])c(F)c(C([H])([H])C([H])([H])[H])c([H])c4C(C([H])([H])C([H])([H])[H])(C([H])([H])C([H])([H])N([H])C(=O)N4C([H])([H])C([H])([H])C([H])([H])C([H])(n5nc(-c6c([H])c([H])c(Oc7c([H])c([H])c(F)c([H])c7F)c([H])c6[H])c(C(=O)N([H])[H])c5N([H])[H])C4([H])[H])C3([H])[H])c([H])c([H])c2C1([H])[H]

$$$$
7:0:0
     RDKit          3D

 90 99  0  0  1  0  0  0  0  0999 V2000
  -30.1860  -15.8710   20.3660 C   0  0  0  0  0  0  0  0  0  0  0  0
  -30.3950  -13.2730   19.5510 C   0  0  0  0  0  2  0  0  0  0  0  0
  -29.5500  -12.7210   18.3580 C   0  0  0  0  0  2  0  0  0  0  0  0
  -28.1620  -12.2840   18.8350 C   0  0  0  0  0  2  0  0  0  0  0  0
  -27.5880  -13.3160   19.8290 C   0  0  0  0  0  3  0  0  0  0  0  0
  -28.5810  -13.7370   20.9400 C   0  0  0  0  0  2  0  0  0  0  0  0
  -29.7000  -14.4600   20.2750 N   0  0  0  0  0  0  0  0  0  0  0  0
  -31.4210  -15.7640   20.1680 O   0  0  0  0  0  0  0  0  0  0  0  0
  -27.5430  -20.3330   20.9260 C   0  0  0  0  0  0  0  0  0  0  0  0
  -28.8120  -20.6430   20.4330 C   0  0  0  0  0  0  0  0  0  0  0  0
  -26.6600  -21.4340   21.3280 C   0  0  0  0  0  0  0  0  0  0  0  0
  -28.9660  -22.2630   20.2670 C   0  0  0  0  0  3  0  0  0  0  0  0
  -26.8340  -22.8850   21.0760 C   0  0  0  0  0  0  0  0  0  0  0  0
  -27.9900  -23.5500   20.4830 C   0  0  0  0  0  0  0  0  0  0  0  0
  -27.1510  -18.7840   20.8710 C   0  0  0  0  0  3  0  0  0  0  0  0
  -29.7610  -19.0540   20.2060 C   0  0  0  0  0  3  0  0  0  0  0  0
  -28.1460  -17.5200   21.1670 C   0  0  0  0  0  3  0  0  0  0  0  0
  -25.4350  -21.0510   22.1790 C   0  0  0  0  0  1  0  0  0  0  0  0
  -30.3590  -22.7110   19.8930 C   0  0  0  0  0  1  0  0  0  0  0  0
  -25.6720  -23.7700   21.5260 C   0  0  0  0  0  1  0  0  0  0  0  0
  -29.4570  -17.3210   20.4520 N   0  0  0  0  0  0  0  0  0  0  0  0
  -25.2270  -13.8290   20.5830 C   0  0  0  0  0  0  0  0  0  0  0  0
  -24.1670  -13.0410   20.9290 C   0  0  0  0  0  0  0  0  0  0  0  0
  -24.6420  -11.6910   20.8770 C   0  0  0  0  0  0  0  0  0  0  0  0
  -26.2720  -12.9620   20.3330 N   0  0  0  0  0  0  0  0  0  0  0  0
  -25.9350  -11.6660   20.5760 N   0  0  0  0  0  0  0  0  0  0  0  0
  -23.9120  -10.4260   21.0390 C   0  0  0  0  0  0  0  0  0  0  0  0
  -24.3650   -9.4190   21.9210 C   0  0  0  0  0  3  0  0  0  0  0  0
  -23.6280   -8.2240   22.0790 C   0  0  0  0  0  3  0  0  0  0  0  0
  -22.4250   -8.0320   21.3580 C   0  0  0  0  0  0  0  0  0  0  0  0
  -21.9900   -9.0300   20.4680 C   0  0  0  0  0  3  0  0  0  0  0  0
  -22.7270  -10.2150   20.3080 C   0  0  0  0  0  3  0  0  0  0  0  0
  -21.6630   -6.8890   21.4240 O   0  0  0  0  0  0  0  0  0  0  0  0
  -21.6870   -6.0740   22.5280 C   0  0  0  0  0  0  0  0  0  0  0  0
  -21.4020   -6.5640   23.8200 C   0  0  0  0  0  3  0  0  0  0  0  0
  -21.3660   -5.6810   24.9180 C   0  0  0  0  0  3  0  0  0  0  0  0
  -21.6030   -4.3060   24.7210 C   0  0  0  0  0  0  0  0  0  0  0  0
  -21.8810   -3.8150   23.4320 C   0  0  0  0  0  3  0  0  0  0  0  0
  -21.9200   -4.6970   22.3400 C   0  0  0  0  0  0  0  0  0  0  0  0
  -22.1670   -4.2180   21.0960 F   0  0  0  0  0  0  0  0  0  0  0  0
  -21.5610   -3.4560   25.7700 F   0  0  0  0  0  0  0  0  0  0  0  0
  -22.7710  -13.5140   21.1880 C   0  0  0  0  0  0  0  0  0  0  0  0
  -22.0370  -12.8150   22.0440 N   0  0  0  0  0  0  0  0  0  0  0  0
  -22.3400  -14.5480   20.6740 O   0  0  0  0  0  0  0  0  0  0  0  0
  -22.4030  -11.9850   22.4860 H   0  0  0  0  0  0  0  0  0  0  0  0
  -21.1020  -13.1250   22.2710 H   0  0  0  0  0  0  0  0  0  0  0  0
  -25.3790  -15.2010   20.4220 N   0  0  0  0  0  0  0  0  0  0  0  0
  -24.5960  -15.8350   20.5430 H   0  0  0  0  0  0  0  0  0  0  0  0
  -26.1980  -15.6480   20.0310 H   0  0  0  0  0  0  0  0  0  0  0  0
  -28.1000  -25.2240   20.3340 O   0  0  0  0  0  0  0  0  0  0  0  0
  -24.6910  -31.7860   23.1460 C   0  0  0  0  0  0  0  0  0  0  0  0
  -27.1850  -26.5360   20.2630 C   0  0  0  0  0  0  0  0  0  0  0  0
  -23.5220  -30.3860   21.5040 C   0  0  0  0  0  3  0  0  0  0  0  0
  -24.9780  -28.7010   20.1250 C   0  0  0  0  0  0  0  0  0  0  0  0
  -26.1080  -30.4630   21.4380 C   0  0  0  0  0  2  0  0  0  0  0  0
  -26.1630  -29.0080   20.8040 C   0  0  0  0  0  0  0  0  0  0  0  0
  -27.2400  -27.9550   20.8440 C   0  0  0  0  0  3  0  0  0  0  0  0
  -26.0010  -26.5120   19.4630 C   0  0  0  0  0  3  0  0  0  0  0  0
  -24.9480  -27.4800   19.4340 C   0  0  0  0  0  3  0  0  0  0  0  0
  -23.7860  -29.6800   20.1420 C   0  0  0  0  0  2  0  0  0  0  0  0
  -24.8000  -30.9140   22.0830 N   0  0  0  0  0  0  0  0  0  0  0  0
  -23.5920  -32.0990   23.6320 O   0  0  0  0  0  0  0  0  0  0  0  0
  -22.7770  -29.4240   22.4680 C   0  0  0  0  0  0  0  0  0  0  0  0
  -21.4410  -29.3000   22.3400 N   0  0  0  0  0  0  0  0  0  0  0  0
  -23.4150  -28.7870   23.3090 O   0  0  0  0  0  0  0  0  0  0  0  0
  -20.9740  -29.8600   21.6410 H   0  0  0  0  0  0  0  0  0  0  0  0
  -18.0340  -28.1410   22.8410 C   0  0  0  0  0  0  0  0  0  0  0  0
  -20.5960  -28.3790   23.1100 C   0  0  0  0  0  3  0  0  0  0  0  0
  -20.6810  -26.9440   22.5380 C   0  0  0  0  0  2  0  0  0  0  0  0
  -19.5800  -26.6360   21.5190 C   0  0  0  0  0  2  0  0  0  0  0  0
  -18.1980  -26.7920   22.1590 C   0  0  0  0  0  2  0  0  0  0  0  0
  -19.1600  -28.8940   23.2730 C   0  0  0  0  0  0  0  0  0  0  0  0
  -18.9510  -30.1510   23.8830 C   0  0  0  0  0  3  0  0  0  0  0  0
  -17.6490  -30.6600   24.0540 C   0  0  0  0  0  3  0  0  0  0  0  0
  -16.5390  -29.9070   23.6340 C   0  0  0  0  0  3  0  0  0  0  0  0
  -16.7320  -28.6480   23.0360 C   0  0  0  0  0  3  0  0  0  0  0  0
  -25.9450  -32.4390   23.8050 C   0  0  0  0  0  3  0  0  0  0  0  0
  -25.6000  -33.8230   24.1920 N   0  0  0  0  0  0  0  0  0  0  0  0
  -25.9150  -34.9230   23.4930 C   0  0  0  0  0  0  0  0  0  0  0  0
  -26.5780  -34.8810   22.4560 O   0  0  0  0  0  0  0  0  0  0  0  0
  -24.9980  -33.9280   24.9950 H   0  0  0  0  0  0  0  0  0  0  0  0
  -24.1520  -36.7130   23.2650 C   0  0  0  0  0  1  0  0  0  0  0  0
  -25.4160  -36.2840   24.0270 C   0  0  0  0  0  3  0  0  0  0  0  0
  -27.5550  -37.1720   24.8460 C   0  0  0  0  0  1  0  0  0  0  0  0
  -26.4280  -37.3600   23.9350 N   0  0  0  0  0  0  0  0  0  0  0  0
  -26.0100  -38.2640   24.1330 H   0  0  0  0  0  0  0  0  0  0  0  0
  -26.4600  -31.6490   25.0740 C   0  0  1  0  0  0  0  0  0  0  0  0
  -25.3680  -31.3850   26.1370 C   0  0  0  0  0  1  0  0  0  0  0  0
  -27.0530  -30.2810   24.6720 C   0  0  0  0  0  1  0  0  0  0  0  0
  -27.6040  -32.4360   25.7560 C   0  0  0  0  0  1  0  0  0  0  0  0
  1 21  1  0
  2  7  1  0
  3  4  1  0
  3  2  1  0
  5  4  1  0
  5 25  1  0
  5  6  1  0
  7  1  1  0
  7  6  1  0
  8  1  2  0
  9 11  2  0
 10  9  1  0
 11 18  1  0
 12 19  1  0
 12 10  1  0
 12 14  1  0
 13 11  1  0
 13 20  1  0
 14 13  2  0
 15  9  1  0
 15 17  2  0
 16 10  2  0
 16 21  1  0
 21 17  1  0
 22 23  2  0
 23 42  1  0
 24 23  1  0
 24 27  1  0
 25 26  1  0
 25 22  1  0
 26 24  2  0
 27 28  1  0
 28 29  2  0
 30 33  1  0
 30 29  1  0
 31 30  2  0
 32 31  1  0
 32 27  2  0
 33 34  1  0
 34 35  1  0
 35 36  2  0
 37 36  1  0
 37 41  1  0
 38 37  2  0
 39 34  2  0
 39 38  1  0
 40 39  1  0
 42 43  1  0
 43 46  1  0
 43 45  1  0
 44 42  2  0
 47 48  1  0
 47 22  1  0
 49 47  1  0
 50 14  1  0
 51 62  2  0
 52 50  1  0
 52 57  1  0
 53 61  1  0
 53 63  1  0
 54 60  1  0
 54 56  1  0
 55 61  1  0
 56 57  2  0
 56 55  1  0
 58 52  2  0
 59 58  1  0
 59 54  2  0
 60 53  1  0
 61 51  1  0
 63 65  2  0
 64 63  1  0
 66 64  1  0
 67 76  2  0
 67 72  1  0
 68 64  1  0
 68 72  1  0
 69 68  1  0
 70 71  1  0
 70 69  1  0
 71 67  1  0
 72 73  2  0
 73 74  1  0
 75 74  2  0
 76 75  1  0
 77 51  1  0
 77 78  1  0
 77 87  1  0
 78 81  1  0
 79 83  1  0
 79 78  1  0
 80 79  2  0
 83 82  1  0
 85 83  1  0
 85 86  1  0
 85 84  1  0
 87 90  1  1
 87 88  1  0
 89 87  1  0
M  ISO  4   1 100  14 101  21 100  50 101
M  END
>  <TORSDO>  (8) 
F 15

>  <SCORE>  (8) 
-1.928

>  <name>  (8) 
7

>  <ligand_id>  (8) 
7

>  <original_smiles>  (8) 
[H]c1c([H])c([H])c2c(c1[H])C([H])([H])C([H])([H])C([H])([H])C2([H])N([H])C(=O)C1([H])N(C(=O)C([H])(N([H])C(=O)C([H])(N([H])C([H])([H])[H])C([H])([H])[H])C(C([H])([H])[H])(C([H])([H])[H])C([H])([H])[H])C([H])([H])c2c([H])c(Oc3c(C([H])([H])[H])c(C([H])([H])[H])c4c(c3C([H])([H])[H])C([H])([H])N(C(=O)N3C([H])([H])C([H])([H])C([H])([H])C([H])(n5nc(-c6c([H])c([H])c(Oc7c([H])c([H])c(F)c([H])c7F)c([H])c6[H])c(C(=O)N([H])[H])c5N([H])[H])C3([H])[H])C([H])([H])C4([H])[H])c([H])c([H])c2C1([H])[H]

>  <smiles>  (8) 
[H]c1c([H])c([H])c2c(c1[H])C([H])([H])C([H])([H])C([H])([H])C2([H])N([H])C(=O)C1([H])N(C(=O)C([H])(N([H])C(=O)C([H])(N([H])C([H])([H])[H])C([H])([H])[H])C(C([H])([H])[H])(C([H])([H])[H])C([H])([H])[H])C([H])([H])c2c([H])c(Oc3c(C([H])([H])[H])c(C([H])([H])[H])c4c(c3C([H])([H])[H])C([H])([H])N(C(=O)N3C([H])([H])C([H])([H])C([H])([H])C([H])(n5nc(-c6c([H])c([H])c(Oc7c([H])c([H])c(F)c([H])c7F)c([H])c6[H])c(C(=O)N([H])[H])c5N([H])[H])C3([H])[H])C([H])([H])C4([H])[H])c([H])c([H])c2C1([H])[H]

$$$$
8:0:0
     RDKit          3D

 91100  0  0  1  0  0  0  0  0999 V2000
  -27.9500  -21.8770   21.0640 C   0  0  0  0  0  2  0  0  0  0  0  0
  -30.0420  -22.1600   19.9880 C   0  0  0  0  0  2  0  0  0  0  0  0
  -27.8360  -23.5160   21.2770 C   0  0  0  0  0  2  0  0  0  0  0  0
  -29.9220  -23.7900   20.2070 C   0  0  0  0  0  2  0  0  0  0  0  0
  -29.3650  -21.0880   20.9870 C   0  0  0  0  0  3  0  0  0  0  0  0
  -28.5070  -24.5600   20.2460 C   0  0  0  0  0  3  0  0  0  0  0  0
  -30.0080  -18.1640   21.2150 C   0  0  0  0  0  3  0  0  0  0  0  0
  -28.8030  -19.1560   19.3610 C   0  0  0  0  0  3  0  0  0  0  0  0
  -30.0480  -16.7540   20.6280 C   0  0  0  0  0  0  0  0  0  0  0  0
  -29.4250  -19.4290   20.5860 C   0  0  0  0  0  0  0  0  0  0  0  0
  -28.8790  -17.9070   18.7190 C   0  0  0  0  0  0  0  0  0  0  0  0
  -29.5820  -16.7960   19.2690 C   0  0  0  0  0  0  0  0  0  0  0  0
  -28.2290  -17.8200   17.3420 C   0  0  0  0  0  1  0  0  0  0  0  0
  -29.9810  -15.7210   18.2650 C   0  0  0  0  0  1  0  0  0  0  0  0
  -30.7620  -15.3410   21.1580 C   0  0  0  0  0  0  0  0  0  0  0  0
  -30.8520  -12.8470   20.5130 C   0  0  0  0  0  2  0  0  0  0  0  0
  -30.1150  -12.4670   19.2020 C   0  0  0  0  0  2  0  0  0  0  0  0
  -28.5900  -12.3510   19.4010 C   0  0  0  0  0  2  0  0  0  0  0  0
  -27.9940  -13.3900   20.3900 C   0  0  0  0  0  3  0  0  0  0  0  0
  -28.8790  -13.6130   21.6260 C   0  0  0  0  0  2  0  0  0  0  0  0
  -30.1970  -14.0440   21.1390 N   0  0  0  0  0  0  0  0  0  0  0  0
  -31.9950  -15.3400   21.2730 O   0  0  0  0  0  0  0  0  0  0  0  0
  -25.5480  -13.9840   20.8100 C   0  0  0  0  0  0  0  0  0  0  0  0
  -24.4400  -13.2180   21.0430 C   0  0  0  0  0  0  0  0  0  0  0  0
  -24.9000  -11.8660   21.1070 C   0  0  0  0  0  0  0  0  0  0  0  0
  -26.6090  -13.0990   20.7310 N   0  0  0  0  0  0  0  0  0  0  0  0
  -26.2210  -11.8230   20.9840 N   0  0  0  0  0  0  0  0  0  0  0  0
  -24.1500  -10.6080   21.2190 C   0  0  0  0  0  0  0  0  0  0  0  0
  -24.4900   -9.6280   22.1760 C   0  0  0  0  0  3  0  0  0  0  0  0
  -23.7400   -8.4360   22.2780 C   0  0  0  0  0  3  0  0  0  0  0  0
  -22.6360   -8.2170   21.4190 C   0  0  0  0  0  0  0  0  0  0  0  0
  -22.3180   -9.1850   20.4520 C   0  0  0  0  0  3  0  0  0  0  0  0
  -23.0680  -10.3670   20.3480 C   0  0  0  0  0  3  0  0  0  0  0  0
  -21.8650   -7.0790   21.4300 O   0  0  0  0  0  0  0  0  0  0  0  0
  -21.7520   -6.2970   22.5510 C   0  0  0  0  0  0  0  0  0  0  0  0
  -21.2850   -6.8150   23.7780 C   0  0  0  0  0  3  0  0  0  0  0  0
  -21.1180   -5.9600   24.8850 C   0  0  0  0  0  3  0  0  0  0  0  0
  -21.4070   -4.5890   24.7670 C   0  0  0  0  0  0  0  0  0  0  0  0
  -21.8680   -4.0690   23.5450 C   0  0  0  0  0  3  0  0  0  0  0  0
  -22.0360   -4.9200   22.4380 C   0  0  0  0  0  0  0  0  0  0  0  0
  -22.4590   -4.4110   21.2560 F   0  0  0  0  0  0  0  0  0  0  0  0
  -21.2410   -3.7650   25.8290 F   0  0  0  0  0  0  0  0  0  0  0  0
  -23.0210  -13.7010   21.1010 C   0  0  0  0  0  0  0  0  0  0  0  0
  -22.1800  -13.0350   21.8830 N   0  0  0  0  0  0  0  0  0  0  0  0
  -22.6630  -14.7050   20.4870 O   0  0  0  0  0  0  0  0  0  0  0  0
  -22.4800  -12.2230   22.4020 H   0  0  0  0  0  0  0  0  0  0  0  0
  -21.2210  -13.3420   21.9650 H   0  0  0  0  0  0  0  0  0  0  0  0
  -25.7410  -15.3510   20.6280 N   0  0  0  0  0  0  0  0  0  0  0  0
  -24.9720  -16.0120   20.6280 H   0  0  0  0  0  0  0  0  0  0  0  0
  -26.6360  -15.7840   20.4300 H   0  0  0  0  0  0  0  0  0  0  0  0
  -28.5130  -26.1560   20.4500 O   0  0  0  0  0  0  0  0  0  0  0  0
  -24.6750  -31.9390   23.1390 C   0  0  0  0  0  0  0  0  0  0  0  0
  -27.4240  -27.1290   20.3170 C   0  0  0  0  0  0  0  0  0  0  0  0
  -23.5440  -30.4600   21.5240 C   0  0  0  0  0  3  0  0  0  0  0  0
  -25.0580  -28.8650   20.1750 C   0  0  0  0  0  0  0  0  0  0  0  0
  -26.0970  -30.7670   21.4000 C   0  0  0  0  0  2  0  0  0  0  0  0
  -26.2170  -29.3500   20.7930 C   0  0  0  0  0  0  0  0  0  0  0  0
  -27.3960  -28.4990   20.8400 C   0  0  0  0  0  3  0  0  0  0  0  0
  -26.2340  -26.7630   19.6530 C   0  0  0  0  0  3  0  0  0  0  0  0
  -25.0850  -27.5900   19.5850 C   0  0  0  0  0  3  0  0  0  0  0  0
  -23.8100  -29.7400   20.1730 C   0  0  0  0  0  2  0  0  0  0  0  0
  -24.7900  -31.0830   22.0750 N   0  0  0  0  0  0  0  0  0  0  0  0
  -23.5720  -32.2120   23.6380 O   0  0  0  0  0  0  0  0  0  0  0  0
  -22.8680  -29.4730   22.5100 C   0  0  0  0  0  0  0  0  0  0  0  0
  -21.5390  -29.2970   22.3950 N   0  0  0  0  0  0  0  0  0  0  0  0
  -23.5450  -28.8640   23.3420 O   0  0  0  0  0  0  0  0  0  0  0  0
  -21.0480  -29.8380   21.6970 H   0  0  0  0  0  0  0  0  0  0  0  0
  -18.1630  -28.1030   22.9580 C   0  0  0  0  0  0  0  0  0  0  0  0
  -20.7260  -28.3680   23.1870 C   0  0  0  0  0  3  0  0  0  0  0  0
  -20.8190  -26.9300   22.6250 C   0  0  0  0  0  2  0  0  0  0  0  0
  -19.7030  -26.5990   21.6280 C   0  0  0  0  0  2  0  0  0  0  0  0
  -18.3310  -26.7490   22.2890 C   0  0  0  0  0  2  0  0  0  0  0  0
  -19.2870  -28.8700   23.3640 C   0  0  0  0  0  0  0  0  0  0  0  0
  -19.0740  -30.1350   23.9530 C   0  0  0  0  0  3  0  0  0  0  0  0
  -17.7720  -30.6350   24.1370 C   0  0  0  0  0  3  0  0  0  0  0  0
  -16.6620  -29.8660   23.7440 C   0  0  0  0  0  3  0  0  0  0  0  0
  -16.8590  -28.6020   23.1610 C   0  0  0  0  0  3  0  0  0  0  0  0
  -25.9220  -32.6320   23.7690 C   0  0  0  0  0  3  0  0  0  0  0  0
  -25.5480  -34.0170   24.1030 N   0  0  0  0  0  0  0  0  0  0  0  0
  -25.8850  -35.0960   23.3840 C   0  0  0  0  0  0  0  0  0  0  0  0
  -26.6060  -35.0320   22.3860 O   0  0  0  0  0  0  0  0  0  0  0  0
  -24.9110  -34.1370   24.8770 H   0  0  0  0  0  0  0  0  0  0  0  0
  -24.1330  -36.8570   22.9750 C   0  0  0  0  0  1  0  0  0  0  0  0
  -25.3370  -36.4630   23.8450 C   0  0  0  0  0  3  0  0  0  0  0  0
  -27.4010  -37.3790   24.8110 C   0  0  0  0  0  1  0  0  0  0  0  0
  -26.3460  -37.5440   23.8140 N   0  0  0  0  0  0  0  0  0  0  0  0
  -25.9090  -38.4490   23.9630 H   0  0  0  0  0  0  0  0  0  0  0  0
  -26.4610  -31.8870   25.0530 C   0  0  1  0  0  0  0  0  0  0  0  0
  -25.3730  -31.6140   26.1190 C   0  0  0  0  0  1  0  0  0  0  0  0
  -27.0990  -30.5310   24.6780 C   0  0  0  0  0  1  0  0  0  0  0  0
  -27.5780  -32.7290   25.7160 C   0  0  0  0  0  1  0  0  0  0  0  0
  1  3  1  0
  2  4  1  0
  2  5  1  0
  4  6  1  0
  5 10  1  0
  5  1  1  0
  6 51  1  0
  6  3  1  0
  8 10  1  0
  9 15  1  0
  9  7  1  0
 10  7  2  0
 11 12  1  0
 11  8  2  0
 12  9  2  0
 13 11  1  0
 14 12  1  0
 15 22  2  0
 16 21  1  0
 17 18  1  0
 17 16  1  0
 19 18  1  0
 19 26  1  0
 19 20  1  0
 21 15  1  0
 21 20  1  0
 23 24  2  0
 24 43  1  0
 24 25  1  0
 25 28  1  0
 26 23  1  0
 26 27  1  0
 27 25  2  0
 28 29  1  0
 29 30  2  0
 31 34  1  0
 31 30  1  0
 32 31  2  0
 33 32  1  0
 33 28  2  0
 34 35  1  0
 35 36  1  0
 36 37  2  0
 38 37  1  0
 38 42  1  0
 39 38  2  0
 40 35  2  0
 40 39  1  0
 41 40  1  0
 43 44  1  0
 44 47  1  0
 44 46  1  0
 45 43  2  0
 48 23  1  0
 49 48  1  0
 50 48  1  0
 52 63  2  0
 53 51  1  0
 53 58  1  0
 54 62  1  0
 54 64  1  0
 55 57  1  0
 56 62  1  0
 57 58  2  0
 57 56  1  0
 59 53  2  0
 60 59  1  0
 60 55  2  0
 61 55  1  0
 61 54  1  0
 62 52  1  0
 64 66  2  0
 65 64  1  0
 67 65  1  0
 68 77  2  0
 68 73  1  0
 69 65  1  0
 69 73  1  0
 70 69  1  0
 71 72  1  0
 71 70  1  0
 72 68  1  0
 73 74  2  0
 74 75  1  0
 76 75  2  0
 77 76  1  0
 78 52  1  0
 78 79  1  0
 78 88  1  0
 79 82  1  0
 80 84  1  0
 80 79  1  0
 81 80  2  0
 84 83  1  0
 86 84  1  0
 86 87  1  0
 86 85  1  0
 88 91  1  1
 88 89  1  0
 90 88  1  0
M  ISO  4   6 101   9 100  15 100  51 101
M  END
>  <TORSDO>  (9) 
F 17

>  <SCORE>  (9) 
-13.995

>  <name>  (9) 
8

>  <ligand_id>  (9) 
8

>  <original_smiles>  (9) 
[H]c1c([H])c([H])c2c(c1[H])C([H])([H])C([H])([H])C([H])([H])C2([H])N([H])C(=O)C1([H])N(C(=O)C([H])(N([H])C(=O)C([H])(N([H])C([H])([H])[H])C([H])([H])[H])C(C([H])([H])[H])(C([H])([H])[H])C([H])([H])[H])C([H])([H])c2c([H])c(OC3([H])C([H])([H])C([H])([H])C([H])(c4c([H])c(C(=O)N5C([H])([H])C([H])([H])C([H])([H])C([H])(n6nc(-c7c([H])c([H])c(Oc8c([H])c([H])c(F)c([H])c8F)c([H])c7[H])c(C(=O)N([H])[H])c6N([H])[H])C5([H])[H])c(C([H])([H])[H])c(C([H])([H])[H])c4[H])C([H])([H])C3([H])[H])c([H])c([H])c2C1([H])[H]

>  <smiles>  (9) 
[H]c1c([H])c([H])c2c(c1[H])C([H])([H])C([H])([H])C([H])([H])C2([H])N([H])C(=O)C1([H])N(C(=O)C([H])(N([H])C(=O)C([H])(N([H])C([H])([H])[H])C([H])([H])[H])C(C([H])([H])[H])(C([H])([H])[H])C([H])([H])[H])C([H])([H])c2c([H])c(OC3([H])C([H])([H])C([H])([H])C([H])(c4c([H])c(C(=O)N5C([H])([H])C([H])([H])C([H])([H])C([H])(n6nc(-c7c([H])c([H])c(Oc8c([H])c([H])c(F)c([H])c8F)c([H])c7[H])c(C(=O)N([H])[H])c6N([H])[H])C5([H])[H])c(C([H])([H])[H])c(C([H])([H])[H])c4[H])C([H])([H])C3([H])[H])c([H])c([H])c2C1([H])[H]

$$$$
9:0:0
     RDKit          3D

 97106  0  0  1  0  0  0  0  0999 V2000
  -28.7650  -23.8090   23.6900 C   0  0  0  0  0  3  0  0  0  0  0  0
  -27.9750  -24.9360   23.8340 C   0  0  0  0  0  3  0  0  0  0  0  0
  -29.0810  -23.3330   22.4130 C   0  0  0  0  0  0  0  0  0  0  0  0
  -27.6340  -25.7260   22.7240 C   0  0  0  0  0  0  0  0  0  0  0  0
  -28.5340  -23.9590   21.2480 C   0  0  0  0  0  0  0  0  0  0  0  0
  -28.0500  -25.3700   21.3810 C   0  0  0  0  0  0  0  0  0  0  0  0
  -26.8100  -26.9400   23.1430 C   0  0  0  0  0  1  0  0  0  0  0  0
  -28.1300  -26.4060   20.3710 O   0  0  0  0  0  0  0  0  0  0  0  0
  -24.5770  -32.0100   23.2470 C   0  0  0  0  0  0  0  0  0  0  0  0
  -27.1380  -27.4020   20.2040 C   0  0  0  0  0  0  0  0  0  0  0  0
  -23.3630  -30.6160   21.6090 C   0  0  0  0  0  3  0  0  0  0  0  0
  -24.8050  -29.0690   20.1580 C   0  0  0  0  0  0  0  0  0  0  0  0
  -25.9020  -30.9270   21.4100 C   0  0  0  0  0  2  0  0  0  0  0  0
  -25.9830  -29.5510   20.7430 C   0  0  0  0  0  0  0  0  0  0  0  0
  -27.1660  -28.7430   20.7260 C   0  0  0  0  0  3  0  0  0  0  0  0
  -25.9560  -27.0020   19.5490 C   0  0  0  0  0  3  0  0  0  0  0  0
  -24.8000  -27.8100   19.5320 C   0  0  0  0  0  3  0  0  0  0  0  0
  -23.5680  -29.9470   20.2250 C   0  0  0  0  0  2  0  0  0  0  0  0
  -24.6340  -31.2000   22.1460 N   0  0  0  0  0  0  0  0  0  0  0  0
  -23.4960  -32.2950   23.7830 O   0  0  0  0  0  0  0  0  0  0  0  0
  -22.6980  -29.6050   22.5710 C   0  0  0  0  0  0  0  0  0  0  0  0
  -21.3710  -29.4280   22.4460 N   0  0  0  0  0  0  0  0  0  0  0  0
  -23.3750  -28.9830   23.3930 O   0  0  0  0  0  0  0  0  0  0  0  0
  -20.8830  -29.9780   21.7520 H   0  0  0  0  0  0  0  0  0  0  0  0
  -17.9950  -28.2220   22.9510 C   0  0  0  0  0  0  0  0  0  0  0  0
  -20.5540  -28.4910   23.2190 C   0  0  0  0  0  3  0  0  0  0  0  0
  -20.6580  -27.0580   22.6490 C   0  0  0  0  0  2  0  0  0  0  0  0
  -19.5570  -26.7300   21.6340 C   0  0  0  0  0  2  0  0  0  0  0  0
  -18.1740  -26.8740   22.2760 C   0  0  0  0  0  2  0  0  0  0  0  0
  -19.1130  -28.9890   23.3800 C   0  0  0  0  0  0  0  0  0  0  0  0
  -18.8910  -30.2520   23.9690 C   0  0  0  0  0  3  0  0  0  0  0  0
  -17.5840  -30.7510   24.1320 C   0  0  0  0  0  3  0  0  0  0  0  0
  -16.4820  -29.9830   23.7180 C   0  0  0  0  0  3  0  0  0  0  0  0
  -16.6880  -28.7210   23.1350 C   0  0  0  0  0  3  0  0  0  0  0  0
  -25.8630  -32.6400   23.8670 C   0  0  0  0  0  3  0  0  0  0  0  0
  -25.5580  -34.0420   24.1940 N   0  0  0  0  0  0  0  0  0  0  0  0
  -25.8850  -35.0910   23.4300 C   0  0  0  0  0  0  0  0  0  0  0  0
  -26.5430  -34.9820   22.3900 O   0  0  0  0  0  0  0  0  0  0  0  0
  -24.9670  -34.1990   24.9980 H   0  0  0  0  0  0  0  0  0  0  0  0
  -24.1560  -36.8860   23.0920 C   0  0  0  0  0  1  0  0  0  0  0  0
  -25.4080  -36.4830   23.8860 C   0  0  0  0  0  3  0  0  0  0  0  0
  -27.5580  -37.3620   24.6800 C   0  0  0  0  0  1  0  0  0  0  0  0
  -26.4420  -37.5320   23.7530 N   0  0  0  0  0  0  0  0  0  0  0  0
  -26.0440  -38.4540   23.9040 H   0  0  0  0  0  0  0  0  0  0  0  0
  -26.3720  -31.8710   25.1480 C   0  0  1  0  0  0  0  0  0  0  0  0
  -25.2780  -31.6440   26.2180 C   0  0  0  0  0  1  0  0  0  0  0  0
  -26.9430  -30.4870   24.7650 C   0  0  0  0  0  1  0  0  0  0  0  0
  -27.5300  -32.6590   25.8070 C   0  0  0  0  0  1  0  0  0  0  0  0
  -30.0260  -22.1260   22.3460 C   0  0  0  0  0  2  0  0  0  0  0  0
  -31.0410  -22.0600   23.5070 C   0  0  0  0  0  2  0  0  0  0  0  0
  -32.8700  -20.6920   24.6230 C   0  0  0  0  0  1  0  0  0  0  0  0
  -32.1010  -20.9660   23.3250 C   0  0  0  0  0  2  0  0  0  0  0  0
  -28.4640  -22.9610   20.0030 C   0  0  0  0  0  2  0  0  0  0  0  0
  -28.1360  -21.3620   20.2880 C   0  0  0  0  0  2  0  0  0  0  0  0
  -29.2020  -19.5620   18.5650 C   0  0  0  0  0  2  0  0  0  0  0  0
  -29.7020  -18.0740   18.5640 C   0  0  0  0  0  2  0  0  0  0  0  0
  -28.8930  -18.6650   20.7300 C   0  0  0  0  0  2  0  0  0  0  0  0
  -29.1300  -20.0800   20.0170 C   0  0  0  0  0  3  0  0  0  0  0  0
  -29.7840  -17.5420   20.0150 C   0  0  0  0  0  3  0  0  0  0  0  0
  -30.2840  -14.9180   19.9500 C   0  0  0  0  0  0  0  0  0  0  0  0
  -30.1310  -12.6090   18.9920 C   0  0  0  0  0  2  0  0  0  0  0  0
  -29.1150  -12.6110   17.8270 C   0  0  0  0  0  2  0  0  0  0  0  0
  -27.6840  -12.3850   18.3530 C   0  0  0  0  0  2  0  0  0  0  0  0
  -27.3480  -13.2750   19.5790 C   0  0  0  0  0  3  0  0  0  0  0  0
  -28.4790  -13.2530   20.6310 C   0  0  0  0  0  2  0  0  0  0  0  0
  -29.7130  -13.6620   19.9480 N   0  0  0  0  0  0  0  0  0  0  0  0
  -31.4470  -15.0510   19.5580 O   0  0  0  0  0  0  0  0  0  0  0  0
  -29.4800  -16.0360   20.1800 N   0  0  0  0  0  0  0  0  0  0  0  0
  -28.5390  -15.8140   20.4670 H   0  0  0  0  0  0  0  0  0  0  0  0
  -25.0080  -13.7850   20.4930 C   0  0  0  0  0  0  0  0  0  0  0  0
  -23.9910  -12.9750   20.9170 C   0  0  0  0  0  0  0  0  0  0  0  0
  -24.4830  -11.6380   20.8180 C   0  0  0  0  0  0  0  0  0  0  0  0
  -26.0520  -12.9390   20.1590 N   0  0  0  0  0  0  0  0  0  0  0  0
  -25.7480  -11.6410   20.4170 N   0  0  0  0  0  0  0  0  0  0  0  0
  -23.8000  -10.3520   21.0260 C   0  0  0  0  0  0  0  0  0  0  0  0
  -24.2920   -9.3930   21.9390 C   0  0  0  0  0  3  0  0  0  0  0  0
  -23.6070   -8.1740   22.1350 C   0  0  0  0  0  3  0  0  0  0  0  0
  -22.4160   -7.9060   21.4190 C   0  0  0  0  0  0  0  0  0  0  0  0
  -21.9440   -8.8550   20.4940 C   0  0  0  0  0  3  0  0  0  0  0  0
  -22.6290  -10.0640   20.2970 C   0  0  0  0  0  3  0  0  0  0  0  0
  -21.6990   -6.7380   21.5260 O   0  0  0  0  0  0  0  0  0  0  0  0
  -21.6830   -6.0080   22.6860 C   0  0  0  0  0  0  0  0  0  0  0  0
  -21.2520   -6.5660   23.9100 C   0  0  0  0  0  3  0  0  0  0  0  0
  -21.1830   -5.7580   25.0640 C   0  0  0  0  0  3  0  0  0  0  0  0
  -21.5370   -4.3980   24.9950 C   0  0  0  0  0  0  0  0  0  0  0  0
  -21.9600   -3.8410   23.7760 C   0  0  0  0  0  3  0  0  0  0  0  0
  -22.0290   -4.6430   22.6240 C   0  0  0  0  0  0  0  0  0  0  0  0
  -22.4180   -4.0960   21.4460 F   0  0  0  0  0  0  0  0  0  0  0  0
  -21.4630   -3.6220   26.1010 F   0  0  0  0  0  0  0  0  0  0  0  0
  -22.6060  -13.4090   21.2990 C   0  0  0  0  0  0  0  0  0  0  0  0
  -21.9590  -12.6760   22.1990 N   0  0  0  0  0  0  0  0  0  0  0  0
  -22.1080  -14.4340   20.8340 O   0  0  0  0  0  0  0  0  0  0  0  0
  -22.3790  -11.8480   22.5940 H   0  0  0  0  0  0  0  0  0  0  0  0
  -21.0330  -12.9480   22.4950 H   0  0  0  0  0  0  0  0  0  0  0  0
  -25.1250  -15.1630   20.3400 N   0  0  0  0  0  0  0  0  0  0  0  0
  -24.3500  -15.7900   20.5210 H   0  0  0  0  0  0  0  0  0  0  0  0
  -25.9190  -15.6310   19.9250 H   0  0  0  0  0  0  0  0  0  0  0  0
  1  2  1  0
  3  1  2  0
  4  7  1  0
  4  2  2  0
  5  6  2  0
  5  3  1  0
  6  4  1  0
  8  6  1  0
  9 20  2  0
 10  8  1  0
 10 15  1  0
 11 19  1  0
 11 21  1  0
 12 18  1  0
 12 14  1  0
 13 19  1  0
 14 13  1  0
 15 14  2  0
 16 10  2  0
 17 16  1  0
 17 12  2  0
 18 11  1  0
 19  9  1  0
 21 23  2  0
 22 21  1  0
 24 22  1  0
 25 34  2  0
 25 30  1  0
 26 22  1  0
 26 30  1  0
 27 26  1  0
 28 29  1  0
 28 27  1  0
 29 25  1  0
 30 31  2  0
 31 32  1  0
 33 32  2  0
 34 33  1  0
 35  9  1  0
 35 36  1  0
 35 45  1  0
 36 39  1  0
 37 41  1  0
 37 36  1  0
 38 37  2  0
 41 40  1  0
 43 41  1  0
 43 44  1  0
 43 42  1  0
 45 48  1  1
 45 46  1  0
 47 45  1  0
 49  3  1  0
 49 50  1  0
 52 50  1  0
 52 51  1  0
 53 54  1  0
 53  5  1  0
 55 58  1  0
 56 55  1  0
 56 59  1  0
 58 54  1  0
 58 57  1  0
 59 68  1  0
 59 57  1  0
 60 68  1  0
 61 66  1  0
 62 63  1  0
 62 61  1  0
 64 63  1  0
 64 73  1  0
 64 65  1  0
 66 60  1  0
 66 65  1  0
 67 60  2  0
 68 69  1  0
 70 71  2  0
 71 90  1  0
 72 71  1  0
 72 75  1  0
 73 74  1  0
 73 70  1  0
 74 72  2  0
 75 76  1  0
 76 77  2  0
 78 81  1  0
 78 77  1  0
 79 78  2  0
 80 79  1  0
 80 75  2  0
 81 82  1  0
 82 83  1  0
 83 84  2  0
 85 84  1  0
 85 89  1  0
 86 85  2  0
 87 82  2  0
 87 86  1  0
 88 87  1  0
 90 91  1  0
 91 94  1  0
 91 93  1  0
 92 90  2  0
 95 70  1  0
 95 96  1  0
 97 95  1  0
M  ISO  4   6 101   8 101  60 100  68 100
M  END
>  <TORSDO>  (10) 
F 22

>  <SCORE>  (10) 
-10.758

>  <name>  (10) 
9

>  <ligand_id>  (10) 
9

>  <original_smiles>  (10) 
[H]c1c([H])c([H])c2c(c1[H])C([H])([H])C([H])([H])C([H])([H])C2([H])N([H])C(=O)C1([H])N(C(=O)C([H])(N([H])C(=O)C([H])(N([H])C([H])([H])[H])C([H])([H])[H])C(C([H])([H])[H])(C([H])([H])[H])C([H])([H])[H])C([H])([H])c2c([H])c(Oc3c(C([H])([H])[H])c([H])c([H])c(C([H])([H])C([H])([H])C([H])([H])C([H])([H])[H])c3C([H])([H])C([H])([H])C3([H])C([H])([H])C([H])([H])C([H])(N([H])C(=O)N4C([H])([H])C([H])([H])C([H])([H])C([H])(n5nc(-c6c([H])c([H])c(Oc7c([H])c([H])c(F)c([H])c7F)c([H])c6[H])c(C(=O)N([H])[H])c5N([H])[H])C4([H])[H])C3([H])[H])c([H])c([H])c2C1([H])[H]

>  <smiles>  (10) 
[H]c1c([H])c([H])c2c(c1[H])C([H])([H])C([H])([H])C([H])([H])C2([H])N([H])C(=O)C1([H])N(C(=O)C([H])(N([H])C(=O)C([H])(N([H])C([H])([H])[H])C([H])([H])[H])C(C([H])([H])[H])(C([H])([H])[H])C([H])([H])[H])C([H])([H])c2c([H])c(Oc3c(C([H])([H])[H])c([H])c([H])c(C([H])([H])C([H])([H])C([H])([H])C([H])([H])[H])c3C([H])([H])C([H])([H])C3([H])C([H])([H])C([H])([H])C([H])(N([H])C(=O)N4C([H])([H])C([H])([H])C([H])([H])C([H])(n5nc(-c6c([H])c([H])c(Oc7c([H])c([H])c(F)c([H])c7F)c([H])c6[H])c(C(=O)N([H])[H])c5N([H])[H])C4([H])[H])C3([H])[H])c([H])c([H])c2C1([H])[H]

$$$$
10:0:0
     RDKit          3D

 91100  0  0  1  0  0  0  0  0999 V2000
  -30.5910  -14.9820   20.3840 C   0  0  0  0  0  0  0  0  0  0  0  0
  -30.4150  -12.6360   19.4390 C   0  0  0  0  0  2  0  0  0  0  0  0
  -29.4950  -12.5700   18.2010 C   0  0  0  0  0  2  0  0  0  0  0  0
  -28.0300  -12.3620   18.6260 C   0  0  0  0  0  2  0  0  0  0  0  0
  -27.6080  -13.3000   19.7860 C   0  0  0  0  0  3  0  0  0  0  0  0
  -28.6590  -13.3640   20.9150 C   0  0  0  0  0  2  0  0  0  0  0  0
  -29.9300  -13.7570   20.2950 N   0  0  0  0  0  0  0  0  0  0  0  0
  -31.8180  -14.9550   20.2340 O   0  0  0  0  0  0  0  0  0  0  0  0
  -30.2240  -20.0800   21.8420 C   0  0  0  0  0  3  0  0  0  0  0  0
  -29.9240  -18.9770   20.9840 C   0  0  0  0  0  0  0  0  0  0  0  0
  -29.1870  -19.3310   19.8430 C   0  0  0  0  0  3  0  0  0  0  0  0
  -29.8700  -21.4560   21.5690 C   0  0  0  0  0  0  0  0  0  0  0  0
  -29.1630  -21.8670   20.3900 C   0  0  0  0  0  0  0  0  0  0  0  0
  -28.8260  -20.7250   19.5480 C   0  0  0  0  0  0  0  0  0  0  0  0
  -28.9030  -18.1390   18.9130 C   0  0  0  0  0  3  0  0  0  0  0  0
  -30.4470  -17.4740   21.2410 C   0  0  0  0  0  3  0  0  0  0  0  0
  -28.8380  -16.6830   19.5590 C   0  0  0  0  0  3  0  0  0  0  0  0
  -30.3190  -22.5090   22.5680 C   0  0  0  0  0  1  0  0  0  0  0  0
  -29.9160  -16.2420   20.4940 N   0  0  0  0  0  0  0  0  0  0  0  0
  -28.1840  -20.9720   18.3820 F   0  0  0  0  0  0  0  0  0  0  0  0
  -25.2250  -13.8850   20.5000 C   0  0  0  0  0  0  0  0  0  0  0  0
  -24.1570  -13.1110   20.8610 C   0  0  0  0  0  0  0  0  0  0  0  0
  -24.6250  -11.7620   20.8510 C   0  0  0  0  0  0  0  0  0  0  0  0
  -26.2710  -13.0060   20.2810 N   0  0  0  0  0  0  0  0  0  0  0  0
  -25.9200  -11.7240   20.5610 N   0  0  0  0  0  0  0  0  0  0  0  0
  -23.8980  -10.4990   21.0370 C   0  0  0  0  0  0  0  0  0  0  0  0
  -24.3260   -9.5320   21.9710 C   0  0  0  0  0  3  0  0  0  0  0  0
  -23.5970   -8.3360   22.1480 C   0  0  0  0  0  3  0  0  0  0  0  0
  -22.4270   -8.1000   21.3880 C   0  0  0  0  0  0  0  0  0  0  0  0
  -22.0180   -9.0580   20.4420 C   0  0  0  0  0  3  0  0  0  0  0  0
  -22.7480  -10.2450   20.2640 C   0  0  0  0  0  3  0  0  0  0  0  0
  -21.6690   -6.9570   21.4740 O   0  0  0  0  0  0  0  0  0  0  0  0
  -21.6230   -6.2110   22.6250 C   0  0  0  0  0  0  0  0  0  0  0  0
  -21.2170   -6.7670   23.8580 C   0  0  0  0  0  3  0  0  0  0  0  0
  -21.1150   -5.9480   25.0000 C   0  0  0  0  0  3  0  0  0  0  0  0
  -21.4110   -4.5750   24.9100 C   0  0  0  0  0  0  0  0  0  0  0  0
  -21.8120   -4.0190   23.6830 C   0  0  0  0  0  3  0  0  0  0  0  0
  -21.9150   -4.8350   22.5430 C   0  0  0  0  0  0  0  0  0  0  0  0
  -22.2800   -4.2900   21.3580 F   0  0  0  0  0  0  0  0  0  0  0  0
  -21.3070   -3.7860   26.0050 F   0  0  0  0  0  0  0  0  0  0  0  0
  -22.7550  -13.5890   21.1050 C   0  0  0  0  0  0  0  0  0  0  0  0
  -22.0130  -12.9010   21.9650 N   0  0  0  0  0  0  0  0  0  0  0  0
  -22.3260  -14.6090   20.5660 O   0  0  0  0  0  0  0  0  0  0  0  0
  -22.3730  -12.0770   22.4230 H   0  0  0  0  0  0  0  0  0  0  0  0
  -21.0730  -13.2060   22.1710 H   0  0  0  0  0  0  0  0  0  0  0  0
  -25.3850  -15.2540   20.3100 N   0  0  0  0  0  0  0  0  0  0  0  0
  -24.6150  -15.9080   20.4060 H   0  0  0  0  0  0  0  0  0  0  0  0
  -26.2350  -15.6910   19.9850 H   0  0  0  0  0  0  0  0  0  0  0  0
  -29.0220  -23.4520   19.9170 C   0  0  0  0  0  3  0  0  0  0  0  0
  -28.1640  -24.7260   20.5870 C   0  0  0  0  0  3  0  0  0  0  0  0
  -28.3470  -26.2330   20.2360 O   0  0  0  0  0  0  0  0  0  0  0  0
  -24.6590  -31.8840   23.2060 C   0  0  0  0  0  0  0  0  0  0  0  0
  -27.2620  -27.1770   20.2170 C   0  0  0  0  0  0  0  0  0  0  0  0
  -23.4650  -30.4730   21.5760 C   0  0  0  0  0  3  0  0  0  0  0  0
  -24.9200  -28.8940   20.1650 C   0  0  0  0  0  0  0  0  0  0  0  0
  -26.0140  -30.7570   21.4020 C   0  0  0  0  0  2  0  0  0  0  0  0
  -26.0960  -29.3600   20.7660 C   0  0  0  0  0  0  0  0  0  0  0  0
  -27.2700  -28.5200   20.7690 C   0  0  0  0  0  3  0  0  0  0  0  0
  -26.0600  -26.8040   19.5800 C   0  0  0  0  0  3  0  0  0  0  0  0
  -24.9130  -27.6290   19.5560 C   0  0  0  0  0  3  0  0  0  0  0  0
  -23.6880  -29.7840   20.2020 C   0  0  0  0  0  2  0  0  0  0  0  0
  -24.7320  -31.0600   22.1170 N   0  0  0  0  0  0  0  0  0  0  0  0
  -23.5720  -32.1660   23.7350 O   0  0  0  0  0  0  0  0  0  0  0  0
  -22.7920  -29.4690   22.5450 C   0  0  0  0  0  0  0  0  0  0  0  0
  -21.4630  -29.2980   22.4250 N   0  0  0  0  0  0  0  0  0  0  0  0
  -23.4670  -28.8430   23.3650 O   0  0  0  0  0  0  0  0  0  0  0  0
  -20.9740  -29.8550   21.7390 H   0  0  0  0  0  0  0  0  0  0  0  0
  -18.0830  -28.1070   22.9510 C   0  0  0  0  0  0  0  0  0  0  0  0
  -20.6450  -28.3640   23.2010 C   0  0  0  0  0  3  0  0  0  0  0  0
  -20.7400  -26.9300   22.6290 C   0  0  0  0  0  2  0  0  0  0  0  0
  -19.6310  -26.6090   21.6220 C   0  0  0  0  0  2  0  0  0  0  0  0
  -18.2530  -26.7570   22.2740 C   0  0  0  0  0  2  0  0  0  0  0  0
  -19.2060  -28.8680   23.3710 C   0  0  0  0  0  0  0  0  0  0  0  0
  -18.9920  -30.1310   23.9650 C   0  0  0  0  0  3  0  0  0  0  0  0
  -17.6890  -30.6320   24.1430 C   0  0  0  0  0  3  0  0  0  0  0  0
  -16.5810  -29.8690   23.7370 C   0  0  0  0  0  3  0  0  0  0  0  0
  -16.7780  -28.6090   23.1450 C   0  0  0  0  0  3  0  0  0  0  0  0
  -25.9350  -32.5290   23.8290 C   0  0  0  0  0  3  0  0  0  0  0  0
  -25.6130  -33.9240   24.1660 N   0  0  0  0  0  0  0  0  0  0  0  0
  -25.9330  -34.9870   23.4140 C   0  0  0  0  0  0  0  0  0  0  0  0
  -26.5970  -34.8960   22.3790 O   0  0  0  0  0  0  0  0  0  0  0  0
  -25.0260  -34.0680   24.9750 H   0  0  0  0  0  0  0  0  0  0  0  0
  -24.1890  -36.7720   23.0900 C   0  0  0  0  0  1  0  0  0  0  0  0
  -25.4400  -36.3690   23.8870 C   0  0  0  0  0  3  0  0  0  0  0  0
  -27.5740  -37.2660   24.7040 C   0  0  0  0  0  1  0  0  0  0  0  0
  -26.4630  -37.4310   23.7720 N   0  0  0  0  0  0  0  0  0  0  0  0
  -26.0510  -38.3460   23.9320 H   0  0  0  0  0  0  0  0  0  0  0  0
  -26.4590  -31.7610   25.1050 C   0  0  1  0  0  0  0  0  0  0  0  0
  -25.3700  -31.5180   26.1750 C   0  0  0  0  0  1  0  0  0  0  0  0
  -27.0480  -30.3850   24.7140 C   0  0  0  0  0  1  0  0  0  0  0  0
  -27.6050  -32.5620   25.7640 C   0  0  0  0  0  1  0  0  0  0  0  0
  1 19  1  0
  2  7  1  0
  3  4  1  0
  3  2  1  0
  5  4  1  0
  5 24  1  0
  5  6  1  0
  7  1  1  0
  7  6  1  0
  8  1  2  0
 10 16  2  0
 10  9  1  0
 11 15  1  0
 11 10  1  0
 12  9  2  0
 12 18  1  0
 13 12  1  0
 14 11  1  0
 14 13  2  0
 15 17  2  0
 17 19  1  0
 19 16  1  0
 20 14  1  0
 21 22  2  0
 22 41  1  0
 23 22  1  0
 23 26  1  0
 24 21  1  0
 24 25  1  0
 25 23  2  0
 26 27  1  0
 27 28  2  0
 29 32  1  0
 29 28  1  0
 30 29  2  0
 31 30  1  0
 31 26  2  0
 32 33  1  0
 33 34  1  0
 34 35  2  0
 36 35  1  0
 36 40  1  0
 37 36  2  0
 38 33  2  0
 38 37  1  0
 39 38  1  0
 41 42  1  0
 42 45  1  0
 42 44  1  0
 43 41  2  0
 46 47  1  0
 46 21  1  0
 48 46  1  0
 49 13  1  0
 49 50  2  0
 51 50  1  0
 52 63  2  0
 53 51  1  0
 53 58  1  0
 54 62  1  0
 54 64  1  0
 55 61  1  0
 55 57  1  0
 56 62  1  0
 57 58  2  0
 57 56  1  0
 59 53  2  0
 60 59  1  0
 60 55  2  0
 61 54  1  0
 62 52  1  0
 64 66  2  0
 65 64  1  0
 67 65  1  0
 68 77  2  0
 68 73  1  0
 69 65  1  0
 69 73  1  0
 70 69  1  0
 71 72  1  0
 71 70  1  0
 72 68  1  0
 73 74  2  0
 74 75  1  0
 76 75  2  0
 77 76  1  0
 78 52  1  0
 78 79  1  0
 78 88  1  0
 79 82  1  0
 80 84  1  0
 80 79  1  0
 81 80  2  0
 84 83  1  0
 86 84  1  0
 86 87  1  0
 86 85  1  0
 88 91  1  1
 88 89  1  0
 90 88  1  0
M  ISO  4   1 100  19 100  50 101  51 101
M  END
>  <TORSDO>  (11) 
F 17

>  <SCORE>  (11) 
-15.308

>  <name>  (11) 
10

>  <ligand_id>  (11) 
10

>  <original_smiles>  (11) 
[H]c1c([H])c([H])c2c(c1[H])C([H])([H])C([H])([H])C([H])([H])C2([H])N([H])C(=O)C1([H])N(C(=O)C([H])(N([H])C(=O)C([H])(N([H])C([H])([H])[H])C([H])([H])[H])C(C([H])([H])[H])(C([H])([H])[H])C([H])([H])[H])C([H])([H])c2c([H])c(OC([H])([H])C([H])([H])c3c(F)c4c(c([H])c3C([H])([H])[H])C([H])([H])N(C(=O)N3C([H])([H])C([H])([H])C([H])([H])C([H])(n5nc(-c6c([H])c([H])c(Oc7c([H])c([H])c(F)c([H])c7F)c([H])c6[H])c(C(=O)N([H])[H])c5N([H])[H])C3([H])[H])C([H])([H])C4([H])[H])c([H])c([H])c2C1([H])[H]

>  <smiles>  (11) 
[H]c1c([H])c([H])c2c(c1[H])C([H])([H])C([H])([H])C([H])([H])C2([H])N([H])C(=O)C1([H])N(C(=O)C([H])(N([H])C(=O)C([H])(N([H])C([H])([H])[H])C([H])([H])[H])C(C([H])([H])[H])(C([H])([H])[H])C([H])([H])[H])C([H])([H])c2c([H])c(OC([H])([H])C([H])([H])c3c(F)c4c(c([H])c3C([H])([H])[H])C([H])([H])N(C(=O)N3C([H])([H])C([H])([H])C([H])([H])C([H])(n5nc(-c6c([H])c([H])c(Oc7c([H])c([H])c(F)c([H])c7F)c([H])c6[H])c(C(=O)N([H])[H])c5N([H])[H])C3([H])[H])C([H])([H])C4([H])[H])c([H])c([H])c2C1([H])[H]

$$$$
11:0:0
     RDKit          3D

 94100  0  0  1  0  0  0  0  0999 V2000
  -21.7110  -28.8590   23.8320 C   0  0  0  0  0  1  0  0  0  0  0  0
  -21.8950  -28.8900   21.7820 C   0  0  0  0  0  1  0  0  0  0  0  0
  -22.5610  -25.9040   23.4860 C   0  0  0  0  0  3  0  0  0  0  0  0
  -22.1660  -27.1440   24.5600 C   0  0  0  0  0  3  0  0  0  0  0  0
  -22.8570  -26.0420   21.8660 C   0  0  0  0  0  0  0  0  0  0  0  0
  -22.8890  -27.4270   20.9470 C   0  0  0  0  0  3  0  0  0  0  0  0
  -23.2690  -24.7420   21.1980 C   0  0  0  0  0  1  0  0  0  0  0  0
  -24.5880  -27.0510   20.9300 O   0  0  0  0  0  0  0  0  0  0  0  0
  -24.8010  -32.0580   23.2020 C   0  0  0  0  0  0  0  0  0  0  0  0
  -25.9640  -27.2990   20.4270 C   0  0  0  0  0  3  0  0  0  0  0  0
  -23.8630  -30.4470   21.7810 C   0  0  0  0  0  3  0  0  0  0  0  0
  -24.9740  -29.4540   19.7290 C   0  0  0  0  0  3  0  0  0  0  0  0
  -26.2020  -30.9290   21.3830 C   0  0  0  0  0  2  0  0  0  0  0  0
  -26.0820  -29.6290   20.5690 C   0  0  0  0  0  3  0  0  0  0  0  0
  -26.7280  -28.4290   20.8800 C   0  0  0  0  0  2  0  0  0  0  0  0
  -25.8000  -27.2680   19.0750 C   0  0  0  0  0  2  0  0  0  0  0  0
  -24.8990  -28.3230   18.8560 C   0  0  0  0  0  2  0  0  0  0  0  0
  -23.8030  -30.2280   20.1840 C   0  0  0  0  0  2  0  0  0  0  0  0
  -24.9500  -31.2980   22.0850 N   0  0  0  0  0  0  0  0  0  0  0  0
  -23.6920  -32.2920   23.7260 O   0  0  0  0  0  0  0  0  0  0  0  0
  -24.1600  -29.2270   22.8590 C   0  0  0  0  0  0  0  0  0  0  0  0
  -23.5480  -28.0090   22.9970 N   0  0  0  0  0  2  0  0  0  0  0  0
  -24.4770  -29.3900   23.9870 O   0  0  0  0  0  0  0  0  0  0  0  0
  -23.9570  -27.4740   23.7450 H   0  0  0  0  0  0  0  0  0  0  0  0
  -18.0290  -27.8270   22.8230 C   0  0  0  0  0  0  0  0  0  0  0  0
  -20.7870  -27.2100   22.6610 C   0  0  0  0  0  2  0  0  0  0  0  0
  -20.3140  -26.3140   21.5440 C   0  0  0  0  0  2  0  0  0  0  0  0
  -18.9380  -26.4800   21.0610 C   0  0  0  0  0  2  0  0  0  0  0  0
  -17.9390  -26.4980   22.1800 C   0  0  0  0  0  2  0  0  0  0  0  0
  -19.3490  -28.3260   23.0200 C   0  0  0  0  0  0  0  0  0  0  0  0
  -19.1820  -29.7310   23.5060 C   0  0  0  0  0  3  0  0  0  0  0  0
  -17.9640  -30.4110   23.8290 C   0  0  0  0  0  3  0  0  0  0  0  0
  -16.7360  -29.7840   23.6150 C   0  0  0  0  0  3  0  0  0  0  0  0
  -16.7940  -28.4910   23.0860 C   0  0  0  0  0  3  0  0  0  0  0  0
  -26.0560  -32.5830   23.8910 C   0  0  0  0  0  3  0  0  0  0  0  0
  -26.5260  -31.7170   25.1220 C   0  0  1  0  0  0  0  0  0  0  0  0
  -25.4210  -31.4370   26.1780 C   0  0  0  0  0  1  0  0  0  0  0  0
  -27.2140  -30.3970   24.6790 C   0  0  0  0  0  1  0  0  0  0  0  0
  -27.6440  -32.4860   25.8540 C   0  0  0  0  0  1  0  0  0  0  0  0
  -25.7100  -33.9390   24.2940 N   0  0  0  0  0  0  0  0  0  0  0  0
  -25.9300  -35.0020   23.5220 C   0  0  0  0  0  0  0  0  0  0  0  0
  -26.5390  -34.9360   22.4500 O   0  0  0  0  0  0  0  0  0  0  0  0
  -25.1600  -34.0490   25.1330 H   0  0  0  0  0  0  0  0  0  0  0  0
  -24.1500  -36.7520   23.2530 C   0  0  0  0  0  1  0  0  0  0  0  0
  -25.4120  -36.3530   24.0340 C   0  0  0  0  0  3  0  0  0  0  0  0
  -27.5620  -37.2060   24.8480 C   0  0  0  0  0  1  0  0  0  0  0  0
  -26.4290  -37.4210   23.9500 N   0  0  0  0  0  0  0  0  0  0  0  0
  -26.0190  -38.3260   24.1670 H   0  0  0  0  0  0  0  0  0  0  0  0
  -23.3200  -26.4960   25.5570 C   0  0  0  0  0  2  0  0  0  0  0  0
  -24.6490  -25.4350   25.0260 C   0  0  0  0  0  2  0  0  0  0  0  0
  -24.7850  -23.7710   24.6980 C   0  0  0  0  0  0  0  0  0  0  0  0
  -23.8080  -23.0760   24.9880 O   0  0  0  0  0  0  0  0  0  0  0  0
  -26.1150  -22.9320   24.0620 C   0  0  0  0  0  3  0  0  0  0  0  0
  -26.2450  -21.2630   23.5890 C   0  0  0  0  0  3  0  0  0  0  0  0
  -27.6250  -20.3500   23.0490 C   0  0  0  0  0  3  0  0  0  0  0  0
  -27.7370  -18.7110   22.4740 C   0  0  0  0  0  3  0  0  0  0  0  0
  -29.1040  -17.7410   21.9850 C   0  0  0  0  0  3  0  0  0  0  0  0
  -29.0820  -16.1230   21.3570 C   0  0  0  0  0  3  0  0  0  0  0  0
  -30.2310  -14.9660   20.7920 C   0  0  0  0  0  0  0  0  0  0  0  0
  -30.4580  -12.6830   19.5720 C   0  0  0  0  0  2  0  0  0  0  0  0
  -29.5470  -12.6110   18.3090 C   0  0  0  0  0  2  0  0  0  0  0  0
  -28.0700  -12.3420   18.6710 C   0  0  0  0  0  2  0  0  0  0  0  0
  -27.6210  -13.2100   19.8720 C   0  0  0  0  0  3  0  0  0  0  0  0
  -28.6120  -13.0660   21.0350 C   0  0  0  0  0  2  0  0  0  0  0  0
  -29.8660  -13.6360   20.5690 N   0  0  0  0  0  0  0  0  0  0  0  0
  -31.3850  -15.2510   20.4090 O   0  0  0  0  0  0  0  0  0  0  0  0
  -25.2370  -13.8110   20.5640 C   0  0  0  0  0  0  0  0  0  0  0  0
  -24.1680  -13.0380   20.9180 C   0  0  0  0  0  0  0  0  0  0  0  0
  -24.6260  -11.6850   20.8710 C   0  0  0  0  0  0  0  0  0  0  0  0
  -26.2710  -12.9240   20.3140 N   0  0  0  0  0  0  0  0  0  0  0  0
  -25.9140  -11.6410   20.5610 N   0  0  0  0  0  0  0  0  0  0  0  0
  -23.8980  -10.4250   21.0420 C   0  0  0  0  0  0  0  0  0  0  0  0
  -24.3570   -9.4190   21.9190 C   0  0  0  0  0  3  0  0  0  0  0  0
  -23.6270   -8.2220   22.0760 C   0  0  0  0  0  3  0  0  0  0  0  0
  -22.4240   -8.0250   21.3550 C   0  0  0  0  0  0  0  0  0  0  0  0
  -21.9860   -9.0220   20.4650 C   0  0  0  0  0  3  0  0  0  0  0  0
  -22.7180  -10.2100   20.3060 C   0  0  0  0  0  3  0  0  0  0  0  0
  -21.6620   -6.8850   21.4240 O   0  0  0  0  0  0  0  0  0  0  0  0
  -21.6840   -6.0730   22.5290 C   0  0  0  0  0  0  0  0  0  0  0  0
  -21.4010   -6.5640   23.8220 C   0  0  0  0  0  3  0  0  0  0  0  0
  -21.3650   -5.6790   24.9180 C   0  0  0  0  0  3  0  0  0  0  0  0
  -21.6050   -4.3050   24.7230 C   0  0  0  0  0  0  0  0  0  0  0  0
  -21.8820   -3.8140   23.4350 C   0  0  0  0  0  3  0  0  0  0  0  0
  -21.9190   -4.6960   22.3410 C   0  0  0  0  0  0  0  0  0  0  0  0
  -22.1660   -4.2150   21.0980 F   0  0  0  0  0  0  0  0  0  0  0  0
  -21.5630   -3.4540   25.7740 F   0  0  0  0  0  0  0  0  0  0  0  0
  -22.7740  -13.5220   21.1880 C   0  0  0  0  0  0  0  0  0  0  0  0
  -22.0400  -12.8220   22.0460 N   0  0  0  0  0  0  0  0  0  0  0  0
  -22.3450  -14.5540   20.6740 O   0  0  0  0  0  0  0  0  0  0  0  0
  -22.4000  -11.9880   22.4840 H   0  0  0  0  0  0  0  0  0  0  0  0
  -21.1030  -13.1270   22.2690 H   0  0  0  0  0  0  0  0  0  0  0  0
  -25.4110  -15.1840   20.4140 N   0  0  0  0  0  0  0  0  0  0  0  0
  -24.6420  -15.8340   20.5380 H   0  0  0  0  0  0  0  0  0  0  0  0
  -26.2610  -15.6330   20.0990 H   0  0  0  0  0  0  0  0  0  0  0  0
  3  4  1  0
  4  1  1  0
  4 49  1  0
  5  3  2  0
  6  2  1  0
  6  5  1  0
  7  5  1  0
  8  6  1  0
  9 20  2  0
 10 15  1  0
 10  8  1  0
 11 19  1  0
 11 21  1  0
 12 17  1  0
 12 18  1  0
 12 14  1  0
 13 19  1  0
 14 15  1  0
 14 13  1  0
 16 10  1  0
 17 16  1  0
 18 11  1  0
 19  9  1  0
 21 22  1  0
 21 23  2  0
 22 24  1  0
 25 30  2  0
 25 34  1  0
 26 30  1  0
 27 26  1  0
 28 27  1  0
 28 29  1  0
 29 25  1  0
 30 31  1  0
 31 32  2  0
 33 32  1  0
 34 33  2  0
 35  9  1  0
 35 40  1  0
 35 36  1  0
 36 39  1  1
 36 37  1  0
 38 36  1  0
 40 43  1  0
 41 45  1  0
 41 40  1  0
 42 41  2  0
 45 44  1  0
 47 45  1  0
 47 48  1  0
 47 46  1  0
 50 49  1  0
 51 52  2  0
 51 50  1  0
 53 51  1  0
 54 53  2  0
 55 54  1  0
 56 55  2  0
 57 56  1  0
 58 57  2  0
 59 58  1  0
 60 65  1  0
 61 62  1  0
 61 60  1  0
 63 62  1  0
 63 70  1  0
 63 64  1  0
 65 59  1  0
 65 64  1  0
 66 59  2  0
 67 68  2  0
 68 87  1  0
 69 68  1  0
 69 72  1  0
 70 71  1  0
 70 67  1  0
 71 69  2  0
 72 73  1  0
 73 74  2  0
 75 78  1  0
 75 74  1  0
 76 75  2  0
 77 76  1  0
 77 72  2  0
 78 79  1  0
 79 80  1  0
 80 81  2  0
 82 81  1  0
 82 86  1  0
 83 82  2  0
 84 79  2  0
 84 83  1  0
 85 84  1  0
 87 88  1  0
 88 91  1  0
 88 90  1  0
 89 87  2  0
 92 93  1  0
 92 67  1  0
 94 92  1  0
M  ISO  4   6 101   8 101  58 100  59 100
M  END
>  <TORSDO>  (12) 
F 25

>  <SCORE>  (12) 
25.134

>  <name>  (12) 
11

>  <ligand_id>  (12) 
11

>  <original_smiles>  (12) 
[H]c1c([H])c([H])c2c(c1[H])C([H])([H])C([H])([H])C([H])([H])C2([H])N([H])C(=O)C1([H])N(C(=O)C([H])(N([H])C(=O)C([H])(N([H])C([H])([H])[H])C([H])([H])[H])C(C([H])([H])[H])(C([H])([H])[H])C([H])([H])[H])C([H])([H])c2c([H])c(Oc3c([H])c([H])c(C([H])([H])C([H])([H])C(=O)C([H])([H])C([H])([H])C([H])([H])C([H])([H])C([H])([H])C([H])([H])C(=O)N4C([H])([H])C([H])([H])C([H])([H])C([H])(n5nc(-c6c([H])c([H])c(Oc7c([H])c([H])c(F)c([H])c7F)c([H])c6[H])c(C(=O)N([H])[H])c5N([H])[H])C4([H])[H])c([H])c3C([H])([H])[H])c([H])c([H])c2C1([H])[H]

>  <smiles>  (12) 
[H]c1c([H])c([H])c2c(c1[H])C([H])([H])C([H])([H])C([H])([H])C2([H])N([H])C(=O)C1([H])N(C(=O)C([H])(N([H])C(=O)C([H])(N([H])C([H])([H])[H])C([H])([H])[H])C(C([H])([H])[H])(C([H])([H])[H])C([H])([H])[H])C([H])([H])c2c([H])c(Oc3c([H])c([H])c(C([H])([H])C([H])([H])C(=O)C([H])([H])C([H])([H])C([H])([H])C([H])([H])C([H])([H])C([H])([H])C(=O)N4C([H])([H])C([H])([H])C([H])([H])C([H])(n5nc(-c6c([H])c([H])c(Oc7c([H])c([H])c(F)c([H])c7F)c([H])c6[H])c(C(=O)N([H])[H])c5N([H])[H])C4([H])[H])c([H])c3C([H])([H])[H])c([H])c([H])c2C1([H])[H]

$$$$
12:0:0
     RDKit          3D

 93102  0  0  1  0  0  0  0  0999 V2000
  -28.7060  -23.9360   23.5330 C   0  0  0  0  0  3  0  0  0  0  0  0
  -28.9380  -23.2830   22.3180 C   0  0  0  0  0  3  0  0  0  0  0  0
  -28.3860  -25.9890   22.3170 C   0  0  0  0  0  3  0  0  0  0  0  0
  -28.4310  -25.3000   23.5360 C   0  0  0  0  0  0  0  0  0  0  0  0
  -28.8960  -23.9070   21.0420 C   0  0  0  0  0  0  0  0  0  0  0  0
  -28.5710  -25.3940   21.0390 C   0  0  0  0  0  0  0  0  0  0  0  0
  -28.1900  -26.0400   24.8360 C   0  0  0  0  0  1  0  0  0  0  0  0
  -28.4630  -26.4310   20.0320 O   0  0  0  0  0  0  0  0  0  0  0  0
  -24.6230  -31.8920   23.1430 C   0  0  0  0  0  0  0  0  0  0  0  0
  -27.3920  -27.3910   20.0230 C   0  0  0  0  0  0  0  0  0  0  0  0
  -23.4790  -30.4930   21.4630 C   0  0  0  0  0  3  0  0  0  0  0  0
  -24.9920  -29.0110   20.0110 C   0  0  0  0  0  0  0  0  0  0  0  0
  -26.0170  -30.8730   21.3110 C   0  0  0  0  0  2  0  0  0  0  0  0
  -26.1500  -29.5030   20.6300 C   0  0  0  0  0  0  0  0  0  0  0  0
  -27.3550  -28.7130   20.6140 C   0  0  0  0  0  3  0  0  0  0  0  0
  -26.2110  -26.9880   19.3670 C   0  0  0  0  0  3  0  0  0  0  0  0
  -25.0330  -27.7650   19.3640 C   0  0  0  0  0  3  0  0  0  0  0  0
  -23.7290  -29.8550   20.0710 C   0  0  0  0  0  2  0  0  0  0  0  0
  -24.7260  -31.1050   22.0290 N   0  0  0  0  0  0  0  0  0  0  0  0
  -23.5250  -32.1230   23.6750 O   0  0  0  0  0  0  0  0  0  0  0  0
  -22.8350  -29.4410   22.3990 C   0  0  0  0  0  0  0  0  0  0  0  0
  -21.5100  -29.2430   22.2770 N   0  0  0  0  0  0  0  0  0  0  0  0
  -23.5280  -28.8050   23.1960 O   0  0  0  0  0  0  0  0  0  0  0  0
  -21.0070  -29.8090   21.6080 H   0  0  0  0  0  0  0  0  0  0  0  0
  -18.1540  -27.9870   22.8020 C   0  0  0  0  0  0  0  0  0  0  0  0
  -20.7160  -28.2650   23.0230 C   0  0  0  0  0  3  0  0  0  0  0  0
  -20.8180  -26.8610   22.3820 C   0  0  0  0  0  2  0  0  0  0  0  0
  -19.6960  -26.5720   21.3790 C   0  0  0  0  0  2  0  0  0  0  0  0
  -18.3280  -26.6720   22.0610 C   0  0  0  0  0  2  0  0  0  0  0  0
  -19.2750  -28.7420   23.2400 C   0  0  0  0  0  0  0  0  0  0  0  0
  -19.0560  -29.9730   23.8960 C   0  0  0  0  0  3  0  0  0  0  0  0
  -17.7490  -30.4500   24.1150 C   0  0  0  0  0  3  0  0  0  0  0  0
  -16.6450  -29.6920   23.6910 C   0  0  0  0  0  3  0  0  0  0  0  0
  -16.8470  -28.4620   23.0420 C   0  0  0  0  0  3  0  0  0  0  0  0
  -25.8770  -32.5540   23.7920 C   0  0  0  0  0  3  0  0  0  0  0  0
  -25.5220  -33.9410   24.1350 N   0  0  0  0  0  0  0  0  0  0  0  0
  -25.8440  -35.0150   23.4020 C   0  0  0  0  0  0  0  0  0  0  0  0
  -26.5380  -34.9450   22.3840 O   0  0  0  0  0  0  0  0  0  0  0  0
  -24.9050  -34.0680   24.9240 H   0  0  0  0  0  0  0  0  0  0  0  0
  -24.0810  -36.7760   23.0440 C   0  0  0  0  0  1  0  0  0  0  0  0
  -25.3150  -36.3850   23.8730 C   0  0  0  0  0  3  0  0  0  0  0  0
  -27.4080  -37.3060   24.7670 C   0  0  0  0  0  1  0  0  0  0  0  0
  -26.3240  -37.4640   23.8010 N   0  0  0  0  0  0  0  0  0  0  0  0
  -25.8920  -38.3710   23.9540 H   0  0  0  0  0  0  0  0  0  0  0  0
  -26.3940  -31.7850   25.0700 C   0  0  1  0  0  0  0  0  0  0  0  0
  -25.2890  -31.4990   26.1130 C   0  0  0  0  0  1  0  0  0  0  0  0
  -27.0280  -30.4300   24.6770 C   0  0  0  0  0  1  0  0  0  0  0  0
  -27.5030  -32.6090   25.7640 C   0  0  0  0  0  1  0  0  0  0  0  0
  -29.2110  -22.7860   19.9010 C   0  0  0  0  0  2  0  0  0  0  0  0
  -30.4170  -20.3650   19.0430 C   0  0  0  0  0  2  0  0  0  0  0  0
  -28.8780  -20.1110   20.9280 C   0  0  0  0  0  2  0  0  0  0  0  0
  -30.2070  -18.7600   18.9340 C   0  0  0  0  0  2  0  0  0  0  0  0
  -29.5720  -18.7010   21.3130 C   0  0  0  0  0  2  0  0  0  0  0  0
  -29.7780  -21.2140   20.2320 C   0  0  0  0  0  3  0  0  0  0  0  0
  -30.3950  -17.8740   20.2290 C   0  0  0  0  0  3  0  0  0  0  0  0
  -30.8880  -15.1650   19.9630 C   0  0  0  0  0  0  0  0  0  0  0  0
  -30.7130  -12.8340   19.0020 C   0  0  0  0  0  2  0  0  0  0  0  0
  -29.7370  -12.8220   17.8040 C   0  0  0  0  0  2  0  0  0  0  0  0
  -28.2840  -12.6280   18.2820 C   0  0  0  0  0  2  0  0  0  0  0  0
  -27.9270  -13.5440   19.4820 C   0  0  0  0  0  3  0  0  0  0  0  0
  -29.0200  -13.5230   20.5710 C   0  0  0  0  0  2  0  0  0  0  0  0
  -30.2790  -13.9170   19.9250 N   0  0  0  0  0  0  0  0  0  0  0  0
  -32.0790  -15.2410   19.6460 O   0  0  0  0  0  0  0  0  0  0  0  0
  -30.1060  -16.3260   20.1620 N   0  0  0  0  0  0  0  0  0  0  0  0
  -29.1380  -16.0970   20.3220 H   0  0  0  0  0  0  0  0  0  0  0  0
  -25.5750  -14.1350   20.3070 C   0  0  0  0  0  0  0  0  0  0  0  0
  -24.5170  -13.3650   20.7060 C   0  0  0  0  0  0  0  0  0  0  0  0
  -24.9700  -12.0110   20.6440 C   0  0  0  0  0  0  0  0  0  0  0  0
  -26.6030  -13.2520   20.0220 N   0  0  0  0  0  0  0  0  0  0  0  0
  -26.2490  -11.9670   20.2890 N   0  0  0  0  0  0  0  0  0  0  0  0
  -24.2380  -10.7510   20.8450 C   0  0  0  0  0  0  0  0  0  0  0  0
  -24.6410   -9.8100   21.8160 C   0  0  0  0  0  3  0  0  0  0  0  0
  -23.9100   -8.6160   22.0030 C   0  0  0  0  0  3  0  0  0  0  0  0
  -22.7620   -8.3570   21.2180 C   0  0  0  0  0  0  0  0  0  0  0  0
  -22.3790   -9.2870   20.2350 C   0  0  0  0  0  3  0  0  0  0  0  0
  -23.1110  -10.4710   20.0470 C   0  0  0  0  0  3  0  0  0  0  0  0
  -22.0060   -7.2140   21.3120 O   0  0  0  0  0  0  0  0  0  0  0  0
  -21.8440   -6.5540   22.5040 C   0  0  0  0  0  0  0  0  0  0  0  0
  -21.2910   -7.1910   23.6380 C   0  0  0  0  0  3  0  0  0  0  0  0
  -21.0770   -6.4580   24.8220 C   0  0  0  0  0  3  0  0  0  0  0  0
  -21.4020   -5.0890   24.8720 C   0  0  0  0  0  0  0  0  0  0  0  0
  -21.9470   -4.4520   23.7440 C   0  0  0  0  0  3  0  0  0  0  0  0
  -22.1630   -5.1830   22.5620 C   0  0  0  0  0  0  0  0  0  0  0  0
  -22.6670   -4.5590   21.4700 F   0  0  0  0  0  0  0  0  0  0  0  0
  -21.1890   -4.3830   26.0080 F   0  0  0  0  0  0  0  0  0  0  0  0
  -23.1340  -13.8500   21.0280 C   0  0  0  0  0  0  0  0  0  0  0  0
  -22.4330  -13.1580   21.9200 N   0  0  0  0  0  0  0  0  0  0  0  0
  -22.6830  -14.8770   20.5230 O   0  0  0  0  0  0  0  0  0  0  0  0
  -22.8110  -12.3290   22.3530 H   0  0  0  0  0  0  0  0  0  0  0  0
  -21.5050  -13.4650   22.1740 H   0  0  0  0  0  0  0  0  0  0  0  0
  -25.7440  -15.5070   20.1380 N   0  0  0  0  0  0  0  0  0  0  0  0
  -24.9830  -16.1640   20.2760 H   0  0  0  0  0  0  0  0  0  0  0  0
  -26.5700  -15.9390   19.7450 H   0  0  0  0  0  0  0  0  0  0  0  0
  1  4  1  0
  2  1  2  0
  3  4  2  0
  4  7  1  0
  5  2  1  0
  6  5  2  0
  6  3  1  0
  8  6  1  0
  9 20  2  0
 10  8  1  0
 10 15  1  0
 11 19  1  0
 11 21  1  0
 12 18  1  0
 12 14  1  0
 13 19  1  0
 14 13  1  0
 15 14  2  0
 16 10  2  0
 17 16  1  0
 17 12  2  0
 18 11  1  0
 19  9  1  0
 21 23  2  0
 22 21  1  0
 24 22  1  0
 25 34  2  0
 25 30  1  0
 26 22  1  0
 26 30  1  0
 27 26  1  0
 28 29  1  0
 28 27  1  0
 29 25  1  0
 30 31  2  0
 31 32  1  0
 33 32  2  0
 34 33  1  0
 35  9  1  0
 35 36  1  0
 35 45  1  0
 36 39  1  0
 37 41  1  0
 37 36  1  0
 38 37  2  0
 41 40  1  0
 43 41  1  0
 43 44  1  0
 43 42  1  0
 45 48  1  1
 45 46  1  0
 47 45  1  0
 49  5  1  0
 50 54  1  0
 51 53  1  0
 52 50  1  0
 52 55  1  0
 54 49  1  0
 54 51  1  0
 55 64  1  0
 55 53  1  0
 56 64  1  0
 57 62  1  0
 58 59  1  0
 58 57  1  0
 60 59  1  0
 60 69  1  0
 60 61  1  0
 62 56  1  0
 62 61  1  0
 63 56  2  0
 64 65  1  0
 66 67  2  0
 67 86  1  0
 68 67  1  0
 68 71  1  0
 69 70  1  0
 69 66  1  0
 70 68  2  0
 71 72  1  0
 72 73  2  0
 74 77  1  0
 74 73  1  0
 75 74  2  0
 76 75  1  0
 76 71  2  0
 77 78  1  0
 78 83  2  0
 78 79  1  0
 79 80  2  0
 80 81  1  0
 81 85  1  0
 82 81  2  0
 83 82  1  0
 84 83  1  0
 86 87  1  0
 87 90  1  0
 87 89  1  0
 88 86  2  0
 91 92  1  0
 91 66  1  0
 93 91  1  0
M  ISO  4   6 101   8 101  56 100  64 100
M  END
>  <TORSDO>  (13) 
F 18

>  <SCORE>  (13) 
-13.549

>  <name>  (13) 
12

>  <ligand_id>  (13) 
12

>  <original_smiles>  (13) 
[H]c1c([H])c([H])c2c(c1[H])C([H])([H])C([H])([H])C([H])([H])C2([H])N([H])C(=O)C1([H])N(C(=O)C([H])(N([H])C(=O)C([H])(N([H])C([H])([H])[H])C([H])([H])[H])C(C([H])([H])[H])(C([H])([H])[H])C([H])([H])[H])C([H])([H])c2c([H])c(Oc3c([H])c(C([H])([H])[H])c([H])c([H])c3C([H])([H])C3([H])C([H])([H])C([H])([H])C([H])(N([H])C(=O)N4C([H])([H])C([H])([H])C([H])([H])C([H])(n5nc(-c6c([H])c([H])c(Oc7c([H])c([H])c(F)c([H])c7F)c([H])c6[H])c(C(=O)N([H])[H])c5N([H])[H])C4([H])[H])C([H])([H])C3([H])[H])c([H])c([H])c2C1([H])[H]

>  <smiles>  (13) 
[H]c1c([H])c([H])c2c(c1[H])C([H])([H])C([H])([H])C([H])([H])C2([H])N([H])C(=O)C1([H])N(C(=O)C([H])(N([H])C(=O)C([H])(N([H])C([H])([H])[H])C([H])([H])[H])C(C([H])([H])[H])(C([H])([H])[H])C([H])([H])[H])C([H])([H])c2c([H])c(Oc3c([H])c(C([H])([H])[H])c([H])c([H])c3C([H])([H])C3([H])C([H])([H])C([H])([H])C([H])(N([H])C(=O)N4C([H])([H])C([H])([H])C([H])([H])C([H])(n5nc(-c6c([H])c([H])c(Oc7c([H])c([H])c(F)c([H])c7F)c([H])c6[H])c(C(=O)N([H])[H])c5N([H])[H])C4([H])[H])C([H])([H])C3([H])[H])c([H])c([H])c2C1([H])[H]

$$$$
13:0:0
     RDKit          3D

 93101  0  0  1  0  0  0  0  0999 V2000
  -29.7140  -23.8130   18.5270 C   0  0  0  0  0  3  0  0  0  0  0  0
  -29.6540  -23.5250   20.9450 C   0  0  0  0  0  3  0  0  0  0  0  0
  -30.0340  -23.0470   19.6710 C   0  0  0  0  0  0  0  0  0  0  0  0
  -29.1220  -25.0880   18.6560 C   0  0  0  0  0  0  0  0  0  0  0  0
  -29.0460  -24.7880   21.0850 C   0  0  0  0  0  0  0  0  0  0  0  0
  -28.8080  -25.5850   19.9410 C   0  0  0  0  0  0  0  0  0  0  0  0
  -28.8990  -25.9440   17.4180 C   0  0  0  0  0  1  0  0  0  0  0  0
  -28.7210  -25.3110   22.4720 C   0  0  0  0  0  1  0  0  0  0  0  0
  -30.7360  -21.7430   19.4960 C   0  0  0  0  0  0  0  0  0  0  0  0
  -30.6090  -21.0550   18.4780 O   0  0  0  0  0  0  0  0  0  0  0  0
  -31.7450  -21.3170   20.5800 C   0  0  0  0  0  2  0  0  0  0  0  0
  -32.0710  -19.8100   20.6120 C   0  0  0  0  0  2  0  0  0  0  0  0
  -30.9640  -18.9210   21.2070 C   0  0  0  0  0  2  0  0  0  0  0  0
  -31.3150  -17.4330   21.0690 C   0  0  0  0  0  2  0  0  0  0  0  0
  -30.2920  -16.4800   21.7160 C   0  0  0  0  0  2  0  0  0  0  0  0
  -30.7680  -15.0100   21.7970 C   0  0  0  0  0  2  0  0  0  0  0  0
  -30.8450  -14.2850   20.4420 C   0  0  0  0  0  0  0  0  0  0  0  0
  -30.3040  -12.3140   19.0550 C   0  0  0  0  0  2  0  0  0  0  0  0
  -29.3390  -12.6280   17.8990 C   0  0  0  0  0  2  0  0  0  0  0  0
  -27.8810  -12.5040   18.3680 C   0  0  0  0  0  2  0  0  0  0  0  0
  -27.6160  -13.2940   19.6750 C   0  0  0  0  0  3  0  0  0  0  0  0
  -28.6930  -12.9960   20.7450 C   0  0  0  0  0  2  0  0  0  0  0  0
  -30.0250  -13.2380   20.1640 N   0  0  0  0  0  0  0  0  0  0  0  0
  -31.7670  -14.6090   19.6860 O   0  0  0  0  0  0  0  0  0  0  0  0
  -25.2420  -13.9340   20.4350 C   0  0  0  0  0  0  0  0  0  0  0  0
  -24.1730  -13.1790   20.8300 C   0  0  0  0  0  0  0  0  0  0  0  0
  -24.6120  -11.8200   20.7900 C   0  0  0  0  0  0  0  0  0  0  0  0
  -26.2690  -13.0400   20.1810 N   0  0  0  0  0  0  0  0  0  0  0  0
  -25.8940  -11.7620   20.4490 N   0  0  0  0  0  0  0  0  0  0  0  0
  -23.8720  -10.5690   21.0010 C   0  0  0  0  0  0  0  0  0  0  0  0
  -24.3120   -9.5930   21.9210 C   0  0  0  0  0  3  0  0  0  0  0  0
  -23.5690   -8.4080   22.1170 C   0  0  0  0  0  3  0  0  0  0  0  0
  -22.3740   -8.1900   21.3920 C   0  0  0  0  0  0  0  0  0  0  0  0
  -21.9530   -9.1550   20.4590 C   0  0  0  0  0  3  0  0  0  0  0  0
  -22.6960  -10.3280   20.2600 C   0  0  0  0  0  3  0  0  0  0  0  0
  -21.6040   -7.0570   21.4990 O   0  0  0  0  0  0  0  0  0  0  0  0
  -21.5740   -6.3150   22.6510 C   0  0  0  0  0  0  0  0  0  0  0  0
  -21.2120   -6.8800   23.8940 C   0  0  0  0  0  3  0  0  0  0  0  0
  -21.1240   -6.0640   25.0390 C   0  0  0  0  0  3  0  0  0  0  0  0
  -21.3910   -4.6850   24.9450 C   0  0  0  0  0  0  0  0  0  0  0  0
  -21.7490   -4.1200   23.7100 C   0  0  0  0  0  3  0  0  0  0  0  0
  -21.8370   -4.9330   22.5640 C   0  0  0  0  0  0  0  0  0  0  0  0
  -22.1620   -4.3770   21.3720 F   0  0  0  0  0  0  0  0  0  0  0  0
  -21.2980   -3.9010   26.0450 F   0  0  0  0  0  0  0  0  0  0  0  0
  -22.7900  -13.6760   21.1340 C   0  0  0  0  0  0  0  0  0  0  0  0
  -22.0770  -12.9930   22.0210 N   0  0  0  0  0  0  0  0  0  0  0  0
  -22.3520  -14.7050   20.6200 O   0  0  0  0  0  0  0  0  0  0  0  0
  -22.4470  -12.1590   22.4560 H   0  0  0  0  0  0  0  0  0  0  0  0
  -21.1510  -13.3090   22.2750 H   0  0  0  0  0  0  0  0  0  0  0  0
  -25.4150  -15.3050   20.2590 N   0  0  0  0  0  0  0  0  0  0  0  0
  -24.6510  -15.9580   20.3960 H   0  0  0  0  0  0  0  0  0  0  0  0
  -26.2620  -15.7450   19.9250 H   0  0  0  0  0  0  0  0  0  0  0  0
  -28.5320  -26.9140   20.0930 O   0  0  0  0  0  0  0  0  0  0  0  0
  -24.6100  -31.8740   23.2300 C   0  0  0  0  0  0  0  0  0  0  0  0
  -27.2800  -27.4680   20.1540 C   0  0  0  0  0  0  0  0  0  0  0  0
  -23.3970  -30.4660   21.5860 C   0  0  0  0  0  3  0  0  0  0  0  0
  -24.8520  -28.9110   20.1790 C   0  0  0  0  0  0  0  0  0  0  0  0
  -25.9210  -30.8350   21.3930 C   0  0  0  0  0  2  0  0  0  0  0  0
  -26.0020  -29.4630   20.7580 C   0  0  0  0  0  0  0  0  0  0  0  0
  -27.2070  -28.7420   20.7450 C   0  0  0  0  0  3  0  0  0  0  0  0
  -26.1170  -26.8990   19.5910 C   0  0  0  0  0  3  0  0  0  0  0  0
  -24.9000  -27.6230   19.6050 C   0  0  0  0  0  3  0  0  0  0  0  0
  -23.6000  -29.7620   20.2160 C   0  0  0  0  0  2  0  0  0  0  0  0
  -24.6580  -31.0770   22.1240 N   0  0  0  0  0  0  0  0  0  0  0  0
  -23.5300  -32.1490   23.7710 O   0  0  0  0  0  0  0  0  0  0  0  0
  -22.7490  -29.4550   22.5560 C   0  0  0  0  0  0  0  0  0  0  0  0
  -21.4240  -29.2750   22.4260 N   0  0  0  0  0  0  0  0  0  0  0  0
  -23.4340  -28.8280   23.3670 O   0  0  0  0  0  0  0  0  0  0  0  0
  -20.9360  -29.8350   21.7410 H   0  0  0  0  0  0  0  0  0  0  0  0
  -18.0430  -28.0940   22.9160 C   0  0  0  0  0  0  0  0  0  0  0  0
  -20.6030  -28.3360   23.1920 C   0  0  0  0  0  3  0  0  0  0  0  0
  -20.6980  -26.9070   22.6070 C   0  0  0  0  0  2  0  0  0  0  0  0
  -19.5940  -26.5960   21.5900 C   0  0  0  0  0  2  0  0  0  0  0  0
  -18.2110  -26.7470   22.2340 C   0  0  0  0  0  2  0  0  0  0  0  0
  -19.1670  -28.8470   23.3500 C   0  0  0  0  0  0  0  0  0  0  0  0
  -18.9590  -30.1110   23.9430 C   0  0  0  0  0  3  0  0  0  0  0  0
  -17.6590  -30.6240   24.1060 C   0  0  0  0  0  3  0  0  0  0  0  0
  -16.5480  -29.8680   23.6910 C   0  0  0  0  0  3  0  0  0  0  0  0
  -16.7410  -28.6040   23.1040 C   0  0  0  0  0  3  0  0  0  0  0  0
  -25.9010  -32.4960   23.8560 C   0  0  0  0  0  3  0  0  0  0  0  0
  -25.6010  -33.8920   24.1980 N   0  0  0  0  0  0  0  0  0  0  0  0
  -25.9390  -34.9460   23.4470 C   0  0  0  0  0  0  0  0  0  0  0  0
  -26.6070  -34.8470   22.4130 O   0  0  0  0  0  0  0  0  0  0  0  0
  -25.0090  -34.0450   25.0010 H   0  0  0  0  0  0  0  0  0  0  0  0
  -24.2070  -36.7340   23.1130 C   0  0  0  0  0  1  0  0  0  0  0  0
  -25.4550  -36.3320   23.9140 C   0  0  0  0  0  3  0  0  0  0  0  0
  -27.5980  -37.2030   24.7350 C   0  0  0  0  0  1  0  0  0  0  0  0
  -26.4890  -37.3840   23.8000 N   0  0  0  0  0  0  0  0  0  0  0  0
  -26.0890  -38.3050   23.9580 H   0  0  0  0  0  0  0  0  0  0  0  0
  -26.4160  -31.7160   25.1290 C   0  0  1  0  0  0  0  0  0  0  0  0
  -25.3160  -31.4810   26.1930 C   0  0  0  0  0  1  0  0  0  0  0  0
  -26.9980  -30.3390   24.7290 C   0  0  0  0  0  1  0  0  0  0  0  0
  -27.5730  -32.4990   25.7920 C   0  0  0  0  0  1  0  0  0  0  0  0
  1  4  2  0
  1  3  1  0
  2  5  1  0
  3  2  2  0
  4  6  1  0
  5  8  1  0
  6 53  1  0
  6  5  2  0
  7  4  1  0
  9  3  1  0
  9 11  1  0
 10  9  2  0
 11 12  1  0
 12 13  1  0
 14 13  1  0
 14 15  1  0
 15 16  1  0
 17 16  1  0
 18 23  1  0
 19 20  1  0
 19 18  1  0
 21 20  1  0
 21 28  1  0
 21 22  1  0
 23 17  1  0
 23 22  1  0
 24 17  2  0
 25 26  2  0
 26 45  1  0
 27 26  1  0
 27 30  1  0
 28 25  1  0
 28 29  1  0
 29 27  2  0
 30 31  1  0
 31 32  2  0
 33 36  1  0
 33 32  1  0
 34 33  2  0
 35 34  1  0
 35 30  2  0
 36 37  1  0
 37 38  1  0
 38 39  2  0
 40 39  1  0
 40 44  1  0
 41 40  2  0
 42 37  2  0
 42 41  1  0
 43 42  1  0
 45 46  1  0
 46 49  1  0
 46 48  1  0
 47 45  2  0
 50 51  1  0
 50 25  1  0
 52 50  1  0
 53 55  1  0
 54 65  2  0
 55 60  1  0
 56 64  1  0
 56 66  1  0
 57 63  1  0
 57 59  1  0
 58 64  1  0
 59 58  1  0
 60 59  2  0
 61 62  1  0
 61 55  2  0
 62 57  2  0
 63 56  1  0
 64 54  1  0
 66 68  2  0
 67 66  1  0
 69 67  1  0
 70 79  2  0
 70 75  1  0
 71 67  1  0
 71 75  1  0
 72 71  1  0
 73 74  1  0
 73 72  1  0
 74 70  1  0
 75 76  2  0
 76 77  1  0
 78 77  2  0
 79 78  1  0
 80 54  1  0
 80 81  1  0
 80 90  1  0
 81 84  1  0
 82 86  1  0
 82 81  1  0
 83 82  2  0
 86 85  1  0
 88 86  1  0
 88 89  1  0
 88 87  1  0
 90 93  1  1
 90 91  1  0
 92 90  1  0
M  ISO  4   6 101  16 100  17 100  53 101
M  END
>  <TORSDO>  (14) 
F 23

>  <SCORE>  (14) 
-12.824

>  <name>  (14) 
13

>  <ligand_id>  (14) 
13

>  <original_smiles>  (14) 
[H]c1c([H])c([H])c2c(c1[H])C([H])([H])C([H])([H])C([H])([H])C2([H])N([H])C(=O)C1([H])N(C(=O)C([H])(N([H])C(=O)C([H])(N([H])C([H])([H])[H])C([H])([H])[H])C(C([H])([H])[H])(C([H])([H])[H])C([H])([H])[H])C([H])([H])c2c([H])c(Oc3c(C([H])([H])[H])c([H])c(C(=O)C([H])([H])C([H])([H])C([H])([H])C([H])([H])C([H])([H])C([H])([H])C(=O)N4C([H])([H])C([H])([H])C([H])([H])C([H])(n5nc(-c6c([H])c([H])c(Oc7c([H])c([H])c(F)c([H])c7F)c([H])c6[H])c(C(=O)N([H])[H])c5N([H])[H])C4([H])[H])c([H])c3C([H])([H])[H])c([H])c([H])c2C1([H])[H]

>  <smiles>  (14) 
[H]c1c([H])c([H])c2c(c1[H])C([H])([H])C([H])([H])C([H])([H])C2([H])N([H])C(=O)C1([H])N(C(=O)C([H])(N([H])C(=O)C([H])(N([H])C([H])([H])[H])C([H])([H])[H])C(C([H])([H])[H])(C([H])([H])[H])C([H])([H])[H])C([H])([H])c2c([H])c(Oc3c(C([H])([H])[H])c([H])c(C(=O)C([H])([H])C([H])([H])C([H])([H])C([H])([H])C([H])([H])C([H])([H])C(=O)N4C([H])([H])C([H])([H])C([H])([H])C([H])(n5nc(-c6c([H])c([H])c(Oc7c([H])c([H])c(F)c([H])c7F)c([H])c6[H])c(C(=O)N([H])[H])c5N([H])[H])C4([H])[H])c([H])c3C([H])([H])[H])c([H])c([H])c2C1([H])[H]

$$$$
14:0:0
     RDKit          3D

 93101  0  0  1  0  0  0  0  0999 V2000
  -29.7070  -24.8130   22.8150 C   0  0  0  0  0  3  0  0  0  0  0  0
  -29.5410  -27.4300   21.8820 C   0  0  0  0  0  3  0  0  0  0  0  0
  -29.0430  -25.0420   21.5780 C   0  0  0  0  0  0  0  0  0  0  0  0
  -30.2250  -27.1720   23.0800 C   0  0  0  0  0  0  0  0  0  0  0  0
  -28.8810  -26.4080   21.1550 C   0  0  0  0  0  0  0  0  0  0  0  0
  -30.2780  -25.8570   23.5620 C   0  0  0  0  0  0  0  0  0  0  0  0
  -30.8830  -28.3160   23.8330 C   0  0  0  0  0  1  0  0  0  0  0  0
  -30.9080  -25.5810   24.7290 F   0  0  0  0  0  0  0  0  0  0  0  0
  -28.5840  -23.8270   20.7910 C   0  0  0  0  0  0  0  0  0  0  0  0
  -27.8550  -23.8870   19.7960 O   0  0  0  0  0  0  0  0  0  0  0  0
  -29.1240  -22.4410   21.2580 C   0  0  0  0  0  2  0  0  0  0  0  0
  -28.8090  -21.1520   20.4380 C   0  0  0  0  0  2  0  0  0  0  0  0
  -29.7680  -19.9670   20.7910 C   0  0  0  0  0  3  0  0  0  0  0  0
  -29.2870  -18.5330   20.4260 C   0  0  0  0  0  3  0  0  0  0  0  0
  -30.3520  -17.3970   20.6320 C   0  0  0  0  0  2  0  0  0  0  0  0
  -29.7610  -15.9560   20.8360 C   0  0  0  0  0  2  0  0  0  0  0  0
  -30.5930  -14.7120   20.3740 C   0  0  0  0  0  0  0  0  0  0  0  0
  -30.3690  -12.5100   19.2630 C   0  0  0  0  0  2  0  0  0  0  0  0
  -29.4150  -12.6620   18.0560 C   0  0  0  0  0  2  0  0  0  0  0  0
  -27.9430  -12.5040   18.4860 C   0  0  0  0  0  2  0  0  0  0  0  0
  -27.5930  -13.3610   19.7280 C   0  0  0  0  0  3  0  0  0  0  0  0
  -28.6510  -13.1940   20.8400 C   0  0  0  0  0  2  0  0  0  0  0  0
  -29.9710  -13.5040   20.2720 N   0  0  0  0  0  0  0  0  0  0  0  0
  -31.7490  -14.8770   19.9710 O   0  0  0  0  0  0  0  0  0  0  0  0
  -25.2010  -13.9760   20.4480 C   0  0  0  0  0  0  0  0  0  0  0  0
  -24.1330  -13.2030   20.8210 C   0  0  0  0  0  0  0  0  0  0  0  0
  -24.5950  -11.8520   20.7970 C   0  0  0  0  0  0  0  0  0  0  0  0
  -26.2430  -13.0910   20.2160 N   0  0  0  0  0  0  0  0  0  0  0  0
  -25.8850  -11.8100   20.4870 N   0  0  0  0  0  0  0  0  0  0  0  0
  -23.8700  -10.5900   20.9890 C   0  0  0  0  0  0  0  0  0  0  0  0
  -24.3130   -9.6190   21.9150 C   0  0  0  0  0  3  0  0  0  0  0  0
  -23.5900   -8.4200   22.0960 C   0  0  0  0  0  3  0  0  0  0  0  0
  -22.4090   -8.1850   21.3500 C   0  0  0  0  0  0  0  0  0  0  0  0
  -21.9870   -9.1430   20.4120 C   0  0  0  0  0  3  0  0  0  0  0  0
  -22.7110  -10.3340   20.2290 C   0  0  0  0  0  3  0  0  0  0  0  0
  -21.6560   -7.0380   21.4410 O   0  0  0  0  0  0  0  0  0  0  0  0
  -21.6230   -6.2900   22.5890 C   0  0  0  0  0  0  0  0  0  0  0  0
  -21.2140   -6.8390   23.8250 C   0  0  0  0  0  3  0  0  0  0  0  0
  -21.1270   -6.0160   24.9650 C   0  0  0  0  0  3  0  0  0  0  0  0
  -21.4380   -4.6440   24.8710 C   0  0  0  0  0  0  0  0  0  0  0  0
  -21.8410   -4.0980   23.6400 C   0  0  0  0  0  3  0  0  0  0  0  0
  -21.9290   -4.9170   22.5020 C   0  0  0  0  0  0  0  0  0  0  0  0
  -22.2960   -4.3810   21.3150 F   0  0  0  0  0  0  0  0  0  0  0  0
  -21.3470   -3.8520   25.9650 F   0  0  0  0  0  0  0  0  0  0  0  0
  -22.7340  -13.6810   21.0880 C   0  0  0  0  0  0  0  0  0  0  0  0
  -22.0070  -12.9890   21.9580 N   0  0  0  0  0  0  0  0  0  0  0  0
  -22.2950  -14.7010   20.5590 O   0  0  0  0  0  0  0  0  0  0  0  0
  -22.3750  -12.1680   22.4140 H   0  0  0  0  0  0  0  0  0  0  0  0
  -21.0650  -13.2850   22.1700 H   0  0  0  0  0  0  0  0  0  0  0  0
  -25.3680  -15.3440   20.2660 N   0  0  0  0  0  0  0  0  0  0  0  0
  -24.6090  -16.0040   20.3970 H   0  0  0  0  0  0  0  0  0  0  0  0
  -26.2200  -15.7780   19.9350 H   0  0  0  0  0  0  0  0  0  0  0  0
  -28.1890  -26.7820   20.0140 O   0  0  0  0  0  0  0  0  0  0  0  0
  -24.3850  -31.9840   23.1670 C   0  0  0  0  0  0  0  0  0  0  0  0
  -27.0320  -27.5430   20.0990 C   0  0  0  0  0  0  0  0  0  0  0  0
  -23.1660  -30.5750   21.5390 C   0  0  0  0  0  3  0  0  0  0  0  0
  -24.6100  -29.0310   20.1120 C   0  0  0  0  0  0  0  0  0  0  0  0
  -25.6800  -30.9510   21.3050 C   0  0  0  0  0  2  0  0  0  0  0  0
  -25.7670  -29.5720   20.6800 C   0  0  0  0  0  0  0  0  0  0  0  0
  -26.9720  -28.8410   20.6740 C   0  0  0  0  0  3  0  0  0  0  0  0
  -25.8550  -27.0210   19.5220 C   0  0  0  0  0  3  0  0  0  0  0  0
  -24.6450  -27.7480   19.5320 C   0  0  0  0  0  3  0  0  0  0  0  0
  -23.3630  -29.8850   20.1600 C   0  0  0  0  0  2  0  0  0  0  0  0
  -24.4300  -31.1840   22.0630 N   0  0  0  0  0  0  0  0  0  0  0  0
  -23.3110  -32.2490   23.7230 O   0  0  0  0  0  0  0  0  0  0  0  0
  -22.5330  -29.5560   22.5100 C   0  0  0  0  0  0  0  0  0  0  0  0
  -21.2080  -29.3670   22.4000 N   0  0  0  0  0  0  0  0  0  0  0  0
  -23.2280  -28.9310   23.3160 O   0  0  0  0  0  0  0  0  0  0  0  0
  -20.7110  -29.9130   21.7100 H   0  0  0  0  0  0  0  0  0  0  0  0
  -17.8420  -28.1780   22.9410 C   0  0  0  0  0  0  0  0  0  0  0  0
  -20.4040  -28.4320   23.1810 C   0  0  0  0  0  3  0  0  0  0  0  0
  -20.5010  -27.0020   22.6020 C   0  0  0  0  0  2  0  0  0  0  0  0
  -19.3840  -26.6810   21.6040 C   0  0  0  0  0  2  0  0  0  0  0  0
  -18.0100  -26.8290   22.2620 C   0  0  0  0  0  2  0  0  0  0  0  0
  -18.9680  -28.9370   23.3590 C   0  0  0  0  0  0  0  0  0  0  0  0
  -18.7570  -30.2010   23.9520 C   0  0  0  0  0  3  0  0  0  0  0  0
  -17.4560  -30.7040   24.1360 C   0  0  0  0  0  3  0  0  0  0  0  0
  -16.3450  -29.9430   23.7340 C   0  0  0  0  0  3  0  0  0  0  0  0
  -16.5390  -28.6810   23.1420 C   0  0  0  0  0  3  0  0  0  0  0  0
  -25.6800  -32.6190   23.7660 C   0  0  0  0  0  3  0  0  0  0  0  0
  -25.3670  -34.0090   24.1180 N   0  0  0  0  0  0  0  0  0  0  0  0
  -25.6940  -35.0730   23.3740 C   0  0  0  0  0  0  0  0  0  0  0  0
  -26.3580  -34.9890   22.3380 O   0  0  0  0  0  0  0  0  0  0  0  0
  -24.7760  -34.1480   24.9250 H   0  0  0  0  0  0  0  0  0  0  0  0
  -23.9570  -36.8580   23.0500 C   0  0  0  0  0  1  0  0  0  0  0  0
  -25.2020  -36.4520   23.8560 C   0  0  0  0  0  3  0  0  0  0  0  0
  -27.3330  -37.3300   24.6960 C   0  0  0  0  0  1  0  0  0  0  0  0
  -26.2280  -37.5110   23.7560 N   0  0  0  0  0  0  0  0  0  0  0  0
  -25.8210  -38.4260   23.9220 H   0  0  0  0  0  0  0  0  0  0  0  0
  -26.2330  -31.8350   25.0170 C   0  0  1  0  0  0  0  0  0  0  0  0
  -25.1610  -31.5560   26.0940 C   0  0  0  0  0  1  0  0  0  0  0  0
  -26.8340  -30.4780   24.5840 C   0  0  0  0  0  1  0  0  0  0  0  0
  -27.3750  -32.6400   25.6790 C   0  0  0  0  0  1  0  0  0  0  0  0
  1  6  1  0
  2  4  1  0
  3  1  2  0
  4  6  2  0
  4  7  1  0
  5  3  1  0
  5  2  2  0
  6  8  1  0
  9 11  1  0
  9  3  1  0
 10  9  2  0
 12 13  1  0
 12 11  1  0
 14 15  1  0
 14 13  2  0
 15 16  1  0
 17 16  1  0
 18 23  1  0
 19 20  1  0
 19 18  1  0
 21 20  1  0
 21 28  1  0
 21 22  1  0
 23 17  1  0
 23 22  1  0
 24 17  2  0
 25 26  2  0
 26 45  1  0
 27 26  1  0
 27 30  1  0
 28 25  1  0
 28 29  1  0
 29 27  2  0
 30 31  1  0
 31 32  2  0
 33 36  1  0
 33 32  1  0
 34 33  2  0
 35 34  1  0
 35 30  2  0
 36 37  1  0
 37 38  1  0
 38 39  2  0
 40 39  1  0
 40 44  1  0
 41 40  2  0
 42 37  2  0
 42 41  1  0
 43 42  1  0
 45 46  1  0
 46 49  1  0
 46 48  1  0
 47 45  2  0
 50 51  1  0
 50 25  1  0
 52 50  1  0
 53 55  1  0
 53  5  1  0
 54 65  2  0
 55 60  1  0
 56 64  1  0
 56 66  1  0
 57 63  1  0
 57 59  1  0
 58 64  1  0
 59 58  1  0
 60 59  2  0
 61 62  1  0
 61 55  2  0
 62 57  2  0
 63 56  1  0
 64 54  1  0
 66 68  2  0
 67 66  1  0
 69 67  1  0
 70 79  2  0
 70 75  1  0
 71 67  1  0
 71 75  1  0
 72 71  1  0
 73 74  1  0
 73 72  1  0
 74 70  1  0
 75 76  2  0
 76 77  1  0
 78 77  2  0
 79 78  1  0
 80 54  1  0
 80 81  1  0
 80 90  1  0
 81 84  1  0
 82 86  1  0
 82 81  1  0
 83 82  2  0
 86 85  1  0
 88 86  1  0
 88 89  1  0
 88 87  1  0
 90 93  1  1
 90 91  1  0
 92 90  1  0
M  ISO  4   5 101  16 100  17 100  53 101
M  END
>  <TORSDO>  (15) 
F 23

>  <SCORE>  (15) 
-10.958

>  <name>  (15) 
14

>  <ligand_id>  (15) 
14

>  <original_smiles>  (15) 
[H]c1c([H])c([H])c2c(c1[H])C([H])([H])C([H])([H])C([H])([H])C2([H])N([H])C(=O)C1([H])N(C(=O)C([H])(N([H])C(=O)C([H])(N([H])C([H])([H])[H])C([H])([H])[H])C(C([H])([H])[H])(C([H])([H])[H])C([H])([H])[H])C([H])([H])c2c([H])c(Oc3c([H])c(C([H])([H])[H])c(F)c([H])c3C(=O)C([H])([H])C([H])([H])C([H])([H])C([H])([H])C([H])([H])C([H])([H])C(=O)N3C([H])([H])C([H])([H])C([H])([H])C([H])(n4nc(-c5c([H])c([H])c(Oc6c([H])c([H])c(F)c([H])c6F)c([H])c5[H])c(C(=O)N([H])[H])c4N([H])[H])C3([H])[H])c([H])c([H])c2C1([H])[H]

>  <smiles>  (15) 
[H]c1c([H])c([H])c2c(c1[H])C([H])([H])C([H])([H])C([H])([H])C2([H])N([H])C(=O)C1([H])N(C(=O)C([H])(N([H])C(=O)C([H])(N([H])C([H])([H])[H])C([H])([H])[H])C(C([H])([H])[H])(C([H])([H])[H])C([H])([H])[H])C([H])([H])c2c([H])c(Oc3c([H])c(C([H])([H])[H])c(F)c([H])c3C(=O)C([H])([H])C([H])([H])C([H])([H])C([H])([H])C([H])([H])C([H])([H])C(=O)N3C([H])([H])C([H])([H])C([H])([H])C([H])(n4nc(-c5c([H])c([H])c(Oc6c([H])c([H])c(F)c([H])c6F)c([H])c5[H])c(C(=O)N([H])[H])c4N([H])[H])C3([H])[H])c([H])c([H])c2C1([H])[H]

$$$$
15:0:0
     RDKit          3D

 91100  0  0  1  0  0  0  0  0999 V2000
  -29.8760  -20.8130   21.4840 C   0  0  0  0  0  3  0  0  0  0  0  0
  -28.7980  -20.5320   19.3380 C   0  0  0  0  0  3  0  0  0  0  0  0
  -29.9120  -22.2190   21.2810 C   0  0  0  0  0  3  0  0  0  0  0  0
  -28.8450  -21.9360   19.1300 C   0  0  0  0  0  3  0  0  0  0  0  0
  -29.3080  -19.9400   20.5210 C   0  0  0  0  0  0  0  0  0  0  0  0
  -29.3890  -22.8080   20.1040 C   0  0  0  0  0  0  0  0  0  0  0  0
  -29.1540  -18.4090   20.7950 C   0  0  0  0  0  2  0  0  0  0  0  0
  -31.7120  -18.4190   19.0440 C   0  0  0  0  0  2  0  0  0  0  0  0
  -31.7050  -17.9090   20.4850 C   0  0  0  0  0  2  0  0  0  0  0  0
  -30.5360  -17.4790   18.7790 C   0  0  0  0  0  2  0  0  0  0  0  0
  -30.2550  -17.3910   20.3020 C   0  0  2  0  0  0  0  0  0  0  0  0
  -29.9110  -15.9410   20.8880 C   0  0  0  0  0  2  0  0  0  0  0  0
  -30.6440  -14.6380   20.3660 C   0  0  0  0  0  0  0  0  0  0  0  0
  -30.3790  -12.4300   19.2580 C   0  0  0  0  0  2  0  0  0  0  0  0
  -29.4430  -12.6010   18.0420 C   0  0  0  0  0  2  0  0  0  0  0  0
  -27.9690  -12.4460   18.4680 C   0  0  0  0  0  2  0  0  0  0  0  0
  -27.6190  -13.2960   19.7190 C   0  0  0  0  0  3  0  0  0  0  0  0
  -28.6760  -13.1220   20.8330 C   0  0  0  0  0  2  0  0  0  0  0  0
  -29.9920  -13.4390   20.2640 N   0  0  0  0  0  0  0  0  0  0  0  0
  -31.7990  -14.7470   19.9460 O   0  0  0  0  0  0  0  0  0  0  0  0
  -25.2200  -13.9050   20.4140 C   0  0  0  0  0  0  0  0  0  0  0  0
  -24.1510  -13.1350   20.7900 C   0  0  0  0  0  0  0  0  0  0  0  0
  -24.6160  -11.7840   20.7810 C   0  0  0  0  0  0  0  0  0  0  0  0
  -26.2670  -13.0210   20.2000 N   0  0  0  0  0  0  0  0  0  0  0  0
  -25.9110  -11.7440   20.4870 N   0  0  0  0  0  0  0  0  0  0  0  0
  -23.8940  -10.5220   20.9850 C   0  0  0  0  0  0  0  0  0  0  0  0
  -24.3260   -9.5670   21.9300 C   0  0  0  0  0  3  0  0  0  0  0  0
  -23.6030   -8.3690   22.1190 C   0  0  0  0  0  3  0  0  0  0  0  0
  -22.4350   -8.1190   21.3630 C   0  0  0  0  0  0  0  0  0  0  0  0
  -22.0200   -9.0610   20.4070 C   0  0  0  0  0  3  0  0  0  0  0  0
  -22.7440  -10.2510   20.2160 C   0  0  0  0  0  3  0  0  0  0  0  0
  -21.6840   -6.9710   21.4620 O   0  0  0  0  0  0  0  0  0  0  0  0
  -21.6340   -6.2380   22.6200 C   0  0  0  0  0  0  0  0  0  0  0  0
  -21.2050   -6.8030   23.8410 C   0  0  0  0  0  3  0  0  0  0  0  0
  -21.1060   -5.9960   24.9920 C   0  0  0  0  0  3  0  0  0  0  0  0
  -21.4230   -4.6270   24.9230 C   0  0  0  0  0  0  0  0  0  0  0  0
  -21.8440   -4.0620   23.7050 C   0  0  0  0  0  3  0  0  0  0  0  0
  -21.9450   -4.8650   22.5560 C   0  0  0  0  0  0  0  0  0  0  0  0
  -22.3290   -4.3110   21.3800 F   0  0  0  0  0  0  0  0  0  0  0  0
  -21.3210   -3.8480   26.0260 F   0  0  0  0  0  0  0  0  0  0  0  0
  -22.7500  -13.6130   21.0380 C   0  0  0  0  0  0  0  0  0  0  0  0
  -22.0120  -12.9310   21.9070 N   0  0  0  0  0  0  0  0  0  0  0  0
  -22.3140  -14.6270   20.4940 O   0  0  0  0  0  0  0  0  0  0  0  0
  -22.3730  -12.1110   22.3710 H   0  0  0  0  0  0  0  0  0  0  0  0
  -21.0720  -13.2360   22.1150 H   0  0  0  0  0  0  0  0  0  0  0  0
  -25.3870  -15.2710   20.2170 N   0  0  0  0  0  0  0  0  0  0  0  0
  -24.6270  -15.9360   20.3210 H   0  0  0  0  0  0  0  0  0  0  0  0
  -26.2460  -15.7000   19.8960 H   0  0  0  0  0  0  0  0  0  0  0  0
  -29.4750  -24.3400   19.8680 C   0  0  0  0  0  3  0  0  0  0  0  0
  -28.2780  -25.1960   20.3980 C   0  0  0  0  0  3  0  0  0  0  0  0
  -28.3990  -26.6380   20.1760 O   0  0  0  0  0  0  0  0  0  0  0  0
  -24.6080  -31.9160   23.2620 C   0  0  0  0  0  0  0  0  0  0  0  0
  -27.2390  -27.4080   20.1890 C   0  0  0  0  0  0  0  0  0  0  0  0
  -23.4010  -30.5060   21.6300 C   0  0  0  0  0  3  0  0  0  0  0  0
  -24.8510  -28.9620   20.2070 C   0  0  0  0  0  0  0  0  0  0  0  0
  -25.9340  -30.8490   21.4320 C   0  0  0  0  0  2  0  0  0  0  0  0
  -26.0160  -29.4720   20.7930 C   0  0  0  0  0  0  0  0  0  0  0  0
  -27.2120  -28.7050   20.7790 C   0  0  0  0  0  3  0  0  0  0  0  0
  -26.0510  -26.9430   19.5780 C   0  0  0  0  0  3  0  0  0  0  0  0
  -24.8670  -27.7010   19.5940 C   0  0  0  0  0  3  0  0  0  0  0  0
  -23.6080  -29.8240   20.2530 C   0  0  0  0  0  2  0  0  0  0  0  0
  -24.6660  -31.1070   22.1640 N   0  0  0  0  0  0  0  0  0  0  0  0
  -23.5270  -32.1900   23.8020 O   0  0  0  0  0  0  0  0  0  0  0  0
  -22.7450  -29.4920   22.5960 C   0  0  0  0  0  0  0  0  0  0  0  0
  -21.4210  -29.3060   22.4660 N   0  0  0  0  0  0  0  0  0  0  0  0
  -23.4260  -28.8740   23.4180 O   0  0  0  0  0  0  0  0  0  0  0  0
  -20.9280  -29.8520   21.7740 H   0  0  0  0  0  0  0  0  0  0  0  0
  -18.0530  -28.0930   22.9540 C   0  0  0  0  0  0  0  0  0  0  0  0
  -20.6070  -28.3710   23.2440 C   0  0  0  0  0  3  0  0  0  0  0  0
  -20.7230  -26.9320   22.6900 C   0  0  0  0  0  2  0  0  0  0  0  0
  -19.6370  -26.5940   21.6640 C   0  0  0  0  0  2  0  0  0  0  0  0
  -18.2440  -26.7420   22.2830 C   0  0  0  0  0  2  0  0  0  0  0  0
  -19.1630  -28.8650   23.3890 C   0  0  0  0  0  0  0  0  0  0  0  0
  -18.9320  -30.1290   23.9720 C   0  0  0  0  0  3  0  0  0  0  0  0
  -17.6240  -30.6240   24.1240 C   0  0  0  0  0  3  0  0  0  0  0  0
  -16.5280  -29.8480   23.7090 C   0  0  0  0  0  3  0  0  0  0  0  0
  -16.7430  -28.5850   23.1300 C   0  0  0  0  0  3  0  0  0  0  0  0
  -25.8940  -32.5510   23.8780 C   0  0  0  0  0  3  0  0  0  0  0  0
  -25.5870  -33.9510   24.2020 N   0  0  0  0  0  0  0  0  0  0  0  0
  -25.9150  -35.0000   23.4360 C   0  0  0  0  0  0  0  0  0  0  0  0
  -26.5810  -34.8910   22.4020 O   0  0  0  0  0  0  0  0  0  0  0  0
  -25.0000  -34.1090   25.0080 H   0  0  0  0  0  0  0  0  0  0  0  0
  -24.1880  -36.7920   23.0750 C   0  0  0  0  0  1  0  0  0  0  0  0
  -25.4300  -36.3890   23.8860 C   0  0  0  0  0  3  0  0  0  0  0  0
  -27.5660  -37.2780   24.7100 C   0  0  0  0  0  1  0  0  0  0  0  0
  -26.4620  -37.4420   23.7670 N   0  0  0  0  0  0  0  0  0  0  0  0
  -26.0560  -38.3630   23.9140 H   0  0  0  0  0  0  0  0  0  0  0  0
  -26.4140  -31.7850   25.1550 C   0  0  1  0  0  0  0  0  0  0  0  0
  -25.3270  -31.5560   26.2290 C   0  0  0  0  0  1  0  0  0  0  0  0
  -26.9940  -30.4040   24.7750 C   0  0  0  0  0  1  0  0  0  0  0  0
  -27.5700  -32.5810   25.8100 C   0  0  0  0  0  1  0  0  0  0  0  0
  2  5  1  0
  3  1  1  0
  4  2  2  0
  4  6  1  0
  5  7  1  0
  5  1  2  0
  6  3  2  0
  8  9  1  0
 10  8  1  0
 10 11  1  0
 11  9  1  0
 11  7  1  6
 11 12  1  0
 13 12  1  0
 14 19  1  0
 15 16  1  0
 15 14  1  0
 17 16  1  0
 17 24  1  0
 17 18  1  0
 19 13  1  0
 19 18  1  0
 20 13  2  0
 21 22  2  0
 22 41  1  0
 23 22  1  0
 23 26  1  0
 24 21  1  0
 24 25  1  0
 25 23  2  0
 26 27  1  0
 27 28  2  0
 29 32  1  0
 29 28  1  0
 30 29  2  0
 31 30  1  0
 31 26  2  0
 32 33  1  0
 33 34  1  0
 34 35  2  0
 36 35  1  0
 36 40  1  0
 37 36  2  0
 38 33  2  0
 38 37  1  0
 39 38  1  0
 41 42  1  0
 42 45  1  0
 42 44  1  0
 43 41  2  0
 46 47  1  0
 46 21  1  0
 48 46  1  0
 49  6  1  0
 49 50  2  0
 51 53  1  0
 51 50  1  0
 52 63  2  0
 53 58  1  0
 54 62  1  0
 54 64  1  0
 55 61  1  0
 55 57  1  0
 56 62  1  0
 57 56  1  0
 58 57  2  0
 59 60  1  0
 59 53  2  0
 60 55  2  0
 61 54  1  0
 62 52  1  0
 64 66  2  0
 65 64  1  0
 67 65  1  0
 68 77  2  0
 68 73  1  0
 69 65  1  0
 69 73  1  0
 70 69  1  0
 71 72  1  0
 71 70  1  0
 72 68  1  0
 73 74  2  0
 74 75  1  0
 76 75  2  0
 77 76  1  0
 78 52  1  0
 78 79  1  0
 78 88  1  0
 79 82  1  0
 80 84  1  0
 80 79  1  0
 81 80  2  0
 84 83  1  0
 86 84  1  0
 86 87  1  0
 86 85  1  0
 88 91  1  1
 88 89  1  0
 90 88  1  0
M  ISO  4  12 100  13 100  50 101  51 101
M  END
>  <TORSDO>  (16) 
F 21

>  <SCORE>  (16) 
-13.655

>  <name>  (16) 
15

>  <ligand_id>  (16) 
15

>  <original_smiles>  (16) 
[H]c1c([H])c([H])c2c(c1[H])C([H])([H])C([H])([H])C([H])([H])C2([H])N([H])C(=O)C1([H])N(C(=O)C([H])(N([H])C(=O)C([H])(N([H])C([H])([H])[H])C([H])([H])[H])C(C([H])([H])[H])(C([H])([H])[H])C([H])([H])[H])C([H])([H])c2c([H])c(OC([H])([H])C([H])([H])c3c([H])c([H])c(C([H])([H])C4(C([H])([H])C(=O)N5C([H])([H])C([H])([H])C([H])([H])C([H])(n6nc(-c7c([H])c([H])c(Oc8c([H])c([H])c(F)c([H])c8F)c([H])c7[H])c(C(=O)N([H])[H])c6N([H])[H])C5([H])[H])C([H])([H])C([H])([H])C4([H])[H])c([H])c3[H])c([H])c([H])c2C1([H])[H]

>  <smiles>  (16) 
[H]c1c([H])c([H])c2c(c1[H])C([H])([H])C([H])([H])C([H])([H])C2([H])N([H])C(=O)C1([H])N(C(=O)C([H])(N([H])C(=O)C([H])(N([H])C([H])([H])[H])C([H])([H])[H])C(C([H])([H])[H])(C([H])([H])[H])C([H])([H])[H])C([H])([H])c2c([H])c(OC([H])([H])C([H])([H])c3c([H])c([H])c(C([H])([H])C4(C([H])([H])C(=O)N5C([H])([H])C([H])([H])C([H])([H])C([H])(n6nc(-c7c([H])c([H])c(Oc8c([H])c([H])c(F)c([H])c8F)c([H])c7[H])c(C(=O)N([H])[H])c6N([H])[H])C5([H])[H])C([H])([H])C([H])([H])C4([H])[H])c([H])c3[H])c([H])c([H])c2C1([H])[H]

$$$$
16:0:0
     RDKit          3D

 93101  0  0  1  0  0  0  0  0999 V2000
  -27.5200  -23.1340   20.5460 C   0  0  0  0  0  3  0  0  0  0  0  0
  -27.8950  -24.3400   19.9220 C   0  0  0  0  0  3  0  0  0  0  0  0
  -28.2110  -25.3670   22.1040 C   0  0  0  0  0  3  0  0  0  0  0  0
  -27.4700  -23.0290   21.9540 C   0  0  0  0  0  0  0  0  0  0  0  0
  -28.1930  -25.4760   20.7000 C   0  0  0  0  0  0  0  0  0  0  0  0
  -27.8570  -24.1540   22.7310 C   0  0  0  0  0  0  0  0  0  0  0  0
  -27.8830  -24.0960   24.0950 O   0  0  0  0  0  0  0  0  0  0  0  0
  -27.6060  -23.2370   24.4010 H   0  0  0  0  0  0  0  0  0  0  0  0
  -26.0220  -21.8200   23.5320 C   0  0  0  0  0  2  0  0  0  0  0  0
  -26.9710  -21.7760   22.5740 C   0  0  0  0  0  0  0  0  0  0  0  0
  -27.6080  -20.4700   22.1030 C   0  0  0  0  0  2  0  0  0  0  0  0
  -26.8920  -19.1840   22.5650 C   0  0  0  0  0  2  0  0  0  0  0  0
  -27.3390  -17.9350   21.7960 C   0  0  0  0  0  2  0  0  0  0  0  0
  -28.7350  -17.4140   22.1720 C   0  0  0  0  0  2  0  0  0  0  0  0
  -29.1910  -16.3260   21.1900 C   0  0  0  0  0  2  0  0  0  0  0  0
  -30.2840  -15.3900   21.7350 C   0  0  0  0  0  2  0  0  0  0  0  0
  -30.7530  -14.3770   20.6780 C   0  0  0  0  0  0  0  0  0  0  0  0
  -30.4160  -12.2880   19.3960 C   0  0  0  0  0  2  0  0  0  0  0  0
  -29.4840  -12.5110   18.1910 C   0  0  0  0  0  2  0  0  0  0  0  0
  -28.0100  -12.3440   18.6080 C   0  0  0  0  0  2  0  0  0  0  0  0
  -27.6610  -13.1840   19.8610 C   0  0  0  0  0  3  0  0  0  0  0  0
  -28.6990  -12.9540   20.9860 C   0  0  0  0  0  2  0  0  0  0  0  0
  -30.0410  -13.2410   20.4510 N   0  0  0  0  0  0  0  0  0  0  0  0
  -31.7890  -14.6420   20.0590 O   0  0  0  0  0  0  0  0  0  0  0  0
  -25.2600  -13.8090   20.5580 C   0  0  0  0  0  0  0  0  0  0  0  0
  -24.1850  -13.0410   20.9150 C   0  0  0  0  0  0  0  0  0  0  0  0
  -24.6380  -11.6870   20.8720 C   0  0  0  0  0  0  0  0  0  0  0  0
  -26.3010  -12.9220   20.3260 N   0  0  0  0  0  0  0  0  0  0  0  0
  -25.9290  -11.6410   20.5720 N   0  0  0  0  0  0  0  0  0  0  0  0
  -23.9040  -10.4270   21.0410 C   0  0  0  0  0  0  0  0  0  0  0  0
  -24.3590   -9.4190   21.9190 C   0  0  0  0  0  3  0  0  0  0  0  0
  -23.6260   -8.2230   22.0760 C   0  0  0  0  0  3  0  0  0  0  0  0
  -22.4240   -8.0270   21.3550 C   0  0  0  0  0  0  0  0  0  0  0  0
  -21.9870   -9.0250   20.4650 C   0  0  0  0  0  3  0  0  0  0  0  0
  -22.7210  -10.2120   20.3060 C   0  0  0  0  0  3  0  0  0  0  0  0
  -21.6620   -6.8850   21.4230 O   0  0  0  0  0  0  0  0  0  0  0  0
  -21.6840   -6.0710   22.5270 C   0  0  0  0  0  0  0  0  0  0  0  0
  -21.4020   -6.5620   23.8200 C   0  0  0  0  0  3  0  0  0  0  0  0
  -21.3660   -5.6780   24.9170 C   0  0  0  0  0  3  0  0  0  0  0  0
  -21.6040   -4.3040   24.7230 C   0  0  0  0  0  0  0  0  0  0  0  0
  -21.8820   -3.8130   23.4350 C   0  0  0  0  0  3  0  0  0  0  0  0
  -21.9200   -4.6940   22.3400 C   0  0  0  0  0  0  0  0  0  0  0  0
  -22.1660   -4.2120   21.0980 F   0  0  0  0  0  0  0  0  0  0  0  0
  -21.5620   -3.4540   25.7750 F   0  0  0  0  0  0  0  0  0  0  0  0
  -22.7880  -13.5240   21.1830 C   0  0  0  0  0  0  0  0  0  0  0  0
  -22.0520  -12.8240   22.0390 N   0  0  0  0  0  0  0  0  0  0  0  0
  -22.3580  -14.5550   20.6680 O   0  0  0  0  0  0  0  0  0  0  0  0
  -22.4120  -11.9890   22.4750 H   0  0  0  0  0  0  0  0  0  0  0  0
  -21.1150  -13.1320   22.2630 H   0  0  0  0  0  0  0  0  0  0  0  0
  -25.4350  -15.1790   20.3920 N   0  0  0  0  0  0  0  0  0  0  0  0
  -24.6770  -15.8420   20.5070 H   0  0  0  0  0  0  0  0  0  0  0  0
  -26.2980  -15.6120   20.0910 H   0  0  0  0  0  0  0  0  0  0  0  0
  -28.3600  -26.6990   20.0960 O   0  0  0  0  0  0  0  0  0  0  0  0
  -24.6130  -31.8690   23.2160 C   0  0  0  0  0  0  0  0  0  0  0  0
  -27.2240  -27.4690   20.0750 C   0  0  0  0  0  0  0  0  0  0  0  0
  -23.3990  -30.4980   21.5570 C   0  0  0  0  0  3  0  0  0  0  0  0
  -24.8410  -28.9760   20.1110 C   0  0  0  0  0  0  0  0  0  0  0  0
  -25.9260  -30.8450   21.3660 C   0  0  0  0  0  2  0  0  0  0  0  0
  -26.0020  -29.4850   20.7090 C   0  0  0  0  0  0  0  0  0  0  0  0
  -27.1970  -28.7340   20.6980 C   0  0  0  0  0  3  0  0  0  0  0  0
  -26.0500  -26.9770   19.4600 C   0  0  0  0  0  3  0  0  0  0  0  0
  -24.8580  -27.7190   19.4870 C   0  0  0  0  0  3  0  0  0  0  0  0
  -23.6030  -29.8390   20.1690 C   0  0  0  0  0  2  0  0  0  0  0  0
  -24.6650  -31.0820   22.1060 N   0  0  0  0  0  0  0  0  0  0  0  0
  -23.5320  -32.1430   23.7560 O   0  0  0  0  0  0  0  0  0  0  0  0
  -22.7400  -29.4670   22.5020 C   0  0  0  0  0  0  0  0  0  0  0  0
  -21.4130  -29.3030   22.3750 N   0  0  0  0  0  0  0  0  0  0  0  0
  -23.4180  -28.8210   23.3050 O   0  0  0  0  0  0  0  0  0  0  0  0
  -20.9300  -29.8750   21.6960 H   0  0  0  0  0  0  0  0  0  0  0  0
  -18.0260  -28.1390   22.8480 C   0  0  0  0  0  0  0  0  0  0  0  0
  -20.5850  -28.3660   23.1320 C   0  0  0  0  0  3  0  0  0  0  0  0
  -20.6760  -26.9410   22.5420 C   0  0  0  0  0  2  0  0  0  0  0  0
  -19.5740  -26.6390   21.5220 C   0  0  0  0  0  2  0  0  0  0  0  0
  -18.1910  -26.7930   22.1620 C   0  0  0  0  0  2  0  0  0  0  0  0
  -19.1510  -28.8840   23.2890 C   0  0  0  0  0  0  0  0  0  0  0  0
  -18.9440  -30.1440   23.8920 C   0  0  0  0  0  3  0  0  0  0  0  0
  -17.6450  -30.6580   24.0560 C   0  0  0  0  0  3  0  0  0  0  0  0
  -16.5340  -29.9090   23.6320 C   0  0  0  0  0  3  0  0  0  0  0  0
  -16.7250  -28.6510   23.0340 C   0  0  0  0  0  3  0  0  0  0  0  0
  -25.9040  -32.4830   23.8430 C   0  0  0  0  0  3  0  0  0  0  0  0
  -25.5900  -33.8620   24.2360 N   0  0  0  0  0  0  0  0  0  0  0  0
  -25.9030  -34.9470   23.5140 C   0  0  0  0  0  0  0  0  0  0  0  0
  -26.5580  -34.8910   22.4700 O   0  0  0  0  0  0  0  0  0  0  0  0
  -25.0100  -33.9790   25.0540 H   0  0  0  0  0  0  0  0  0  0  0  0
  -24.1480  -36.7320   23.2630 C   0  0  0  0  0  1  0  0  0  0  0  0
  -25.4100  -36.3110   24.0340 C   0  0  0  0  0  3  0  0  0  0  0  0
  -27.5580  -37.1810   24.8470 C   0  0  0  0  0  1  0  0  0  0  0  0
  -26.4300  -37.3790   23.9410 N   0  0  0  0  0  0  0  0  0  0  0  0
  -26.0190  -38.2870   24.1410 H   0  0  0  0  0  0  0  0  0  0  0  0
  -26.4490  -31.6590   25.0730 C   0  0  1  0  0  0  0  0  0  0  0  0
  -25.3770  -31.3680   26.1490 C   0  0  0  0  0  1  0  0  0  0  0  0
  -27.0310  -30.3030   24.6080 C   0  0  0  0  0  1  0  0  0  0  0  0
  -27.6080  -32.4290   25.7470 C   0  0  0  0  0  1  0  0  0  0  0  0
  1  4  1  0
  2  1  2  0
  2  5  1  0
  3  6  1  0
  4 10  1  0
  4  6  2  0
  5  3  2  0
  6  7  1  0
  7  8  1  0
 10  9  2  0
 11 12  1  0
 11 10  1  0
 13 14  1  0
 13 12  1  0
 15 16  1  0
 15 14  1  0
 17 16  1  0
 18 23  1  0
 19 20  1  0
 19 18  1  0
 21 20  1  0
 21 28  1  0
 21 22  1  0
 23 17  1  0
 23 22  1  0
 24 17  2  0
 25 26  2  0
 26 45  1  0
 27 26  1  0
 27 30  1  0
 28 25  1  0
 28 29  1  0
 29 27  2  0
 30 31  1  0
 31 32  2  0
 33 36  1  0
 33 32  1  0
 34 33  2  0
 35 34  1  0
 35 30  2  0
 36 37  1  0
 37 38  1  0
 38 39  2  0
 40 39  1  0
 40 44  1  0
 41 40  2  0
 42 37  2  0
 42 41  1  0
 43 42  1  0
 45 46  1  0
 46 49  1  0
 46 48  1  0
 47 45  2  0
 50 51  1  0
 50 25  1  0
 52 50  1  0
 53  5  1  0
 54 65  2  0
 55 53  1  0
 55 60  1  0
 56 64  1  0
 56 66  1  0
 57 63  1  0
 57 59  1  0
 58 64  1  0
 59 58  1  0
 60 59  2  0
 61 62  1  0
 61 55  2  0
 62 57  2  0
 63 56  1  0
 64 54  1  0
 66 68  2  0
 67 66  1  0
 69 67  1  0
 70 79  2  0
 70 75  1  0
 71 67  1  0
 71 75  1  0
 72 71  1  0
 73 74  1  0
 73 72  1  0
 74 70  1  0
 75 76  2  0
 76 77  1  0
 78 77  2  0
 79 78  1  0
 80 54  1  0
 80 81  1  0
 80 90  1  0
 81 84  1  0
 82 86  1  0
 82 81  1  0
 83 82  2  0
 86 85  1  0
 88 86  1  0
 88 89  1  0
 88 87  1  0
 90 93  1  1
 90 91  1  0
 92 90  1  0
M  ISO  4   5 101  16 100  17 100  53 101
M  END
>  <TORSDO>  (17) 
F 24

>  <SCORE>  (17) 
14.691

>  <name>  (17) 
16

>  <ligand_id>  (17) 
16

>  <original_smiles>  (17) 
[H]Oc1c([H])c(Oc2c([H])c([H])c3c(c2[H])C([H])([H])N(C(=O)C([H])(N([H])C(=O)C([H])(N([H])C([H])([H])[H])C([H])([H])[H])C(C([H])([H])[H])(C([H])([H])[H])C([H])([H])[H])C([H])(C(=O)N([H])C2([H])c4c([H])c([H])c([H])c([H])c4C([H])([H])C([H])([H])C2([H])[H])C3([H])[H])c([H])c([H])c1C(=C([H])[H])C([H])([H])C([H])([H])C([H])([H])C([H])([H])C([H])([H])C([H])([H])C(=O)N1C([H])([H])C([H])([H])C([H])([H])C([H])(n2nc(-c3c([H])c([H])c(Oc4c([H])c([H])c(F)c([H])c4F)c([H])c3[H])c(C(=O)N([H])[H])c2N([H])[H])C1([H])[H]

>  <smiles>  (17) 
[H]Oc1c([H])c(Oc2c([H])c([H])c3c(c2[H])C([H])([H])N(C(=O)C([H])(N([H])C(=O)C([H])(N([H])C([H])([H])[H])C([H])([H])[H])C(C([H])([H])[H])(C([H])([H])[H])C([H])([H])[H])C([H])(C(=O)N([H])C2([H])c4c([H])c([H])c([H])c([H])c4C([H])([H])C([H])([H])C2([H])[H])C3([H])[H])c([H])c([H])c1C(=C([H])[H])C([H])([H])C([H])([H])C([H])([H])C([H])([H])C([H])([H])C([H])([H])C(=O)N1C([H])([H])C([H])([H])C([H])([H])C([H])(n2nc(-c3c([H])c([H])c(Oc4c([H])c([H])c(F)c([H])c4F)c([H])c3[H])c(C(=O)N([H])[H])c2N([H])[H])C1([H])[H]

$$$$
17:0:0
     RDKit          3D

 93102  0  0  1  0  0  0  0  0999 V2000
  -27.6370  -19.4710   17.8530 C   0  0  0  0  0  0  0  0  0  0  0  0
  -28.1240  -20.7610   18.2900 C   0  0  0  0  0  0  0  0  0  0  0  0
  -29.2920  -21.8610   20.3610 C   0  0  0  0  0  0  0  0  0  0  0  0
  -27.2480  -19.1610   16.6040 C   0  0  0  0  0  2  0  0  0  0  0  0
  -28.4430  -21.7750   17.4640 C   0  0  0  0  0  2  0  0  0  0  0  0
  -29.1720  -23.3060   20.4930 C   0  0  0  0  0  3  0  0  0  0  0  0
  -27.6380  -18.4690   18.9850 C   0  0  0  0  0  2  0  0  0  0  0  0
  -30.5960  -21.0470   20.7180 C   0  0  0  0  0  2  0  0  0  0  0  0
  -30.5700  -19.4750   21.1810 C   0  0  0  0  0  2  0  0  0  0  0  0
  -28.3260  -20.7390   19.7930 C   0  0  0  0  0  3  0  0  0  0  0  0
  -28.5220  -19.1070   20.0870 C   0  0  0  0  0  3  0  0  0  0  0  0
  -29.9530  -18.3250   20.2370 C   0  0  1  0  0  0  0  0  0  0  0  0
  -30.7390  -18.3190   18.9130 C   0  0  0  0  0  3  0  0  0  0  0  0
  -31.9660  -18.4420   18.8870 O   0  0  0  0  0  0  0  0  0  0  0  0
  -28.0930  -24.5630   20.1890 C   0  0  0  0  0  2  0  0  0  0  0  0
  -28.3560  -26.1280   20.3860 O   0  0  0  0  0  0  0  0  0  0  0  0
  -24.6550  -31.9300   23.2540 C   0  0  0  0  0  0  0  0  0  0  0  0
  -27.3170  -27.1560   20.2930 C   0  0  0  0  0  0  0  0  0  0  0  0
  -23.4990  -30.5200   21.5970 C   0  0  0  0  0  3  0  0  0  0  0  0
  -24.9860  -28.9390   20.2050 C   0  0  0  0  0  0  0  0  0  0  0  0
  -26.0590  -30.7820   21.4870 C   0  0  0  0  0  2  0  0  0  0  0  0
  -26.1550  -29.3810   20.8390 C   0  0  0  0  0  0  0  0  0  0  0  0
  -27.3190  -28.5080   20.8600 C   0  0  0  0  0  3  0  0  0  0  0  0
  -26.1190  -26.8380   19.6170 C   0  0  0  0  0  3  0  0  0  0  0  0
  -24.9860  -27.6850   19.5770 C   0  0  0  0  0  3  0  0  0  0  0  0
  -23.7540  -29.8370   20.2270 C   0  0  0  0  0  2  0  0  0  0  0  0
  -24.7570  -31.1020   22.1680 N   0  0  0  0  0  0  0  0  0  0  0  0
  -23.5550  -32.2100   23.7570 O   0  0  0  0  0  0  0  0  0  0  0  0
  -22.8020  -29.5160   22.5520 C   0  0  0  0  0  0  0  0  0  0  0  0
  -21.4780  -29.3350   22.3970 N   0  0  0  0  0  0  0  0  0  0  0  0
  -23.4580  -28.9020   23.3970 O   0  0  0  0  0  0  0  0  0  0  0  0
  -21.0020  -29.8820   21.6920 H   0  0  0  0  0  0  0  0  0  0  0  0
  -18.0950  -28.1090   22.8420 C   0  0  0  0  0  0  0  0  0  0  0  0
  -20.6480  -28.3940   23.1550 C   0  0  0  0  0  3  0  0  0  0  0  0
  -20.7710  -26.9610   22.5880 C   0  0  0  0  0  2  0  0  0  0  0  0
  -19.6900  -26.6250   21.5540 C   0  0  0  0  0  2  0  0  0  0  0  0
  -18.2950  -26.7600   22.1720 C   0  0  0  0  0  2  0  0  0  0  0  0
  -19.2000  -28.8830   23.2900 C   0  0  0  0  0  0  0  0  0  0  0  0
  -18.9570  -30.1430   23.8790 C   0  0  0  0  0  3  0  0  0  0  0  0
  -17.6440  -30.6290   24.0240 C   0  0  0  0  0  3  0  0  0  0  0  0
  -16.5550  -29.8530   23.5920 C   0  0  0  0  0  3  0  0  0  0  0  0
  -16.7810  -28.5950   23.0060 C   0  0  0  0  0  3  0  0  0  0  0  0
  -25.9130  -32.5800   23.9050 C   0  0  0  0  0  3  0  0  0  0  0  0
  -26.3900  -31.8320   25.2120 C   0  0  1  0  0  0  0  0  0  0  0  0
  -25.2620  -31.6040   26.2460 C   0  0  0  0  0  1  0  0  0  0  0  0
  -26.9950  -30.4530   24.8680 C   0  0  0  0  0  1  0  0  0  0  0  0
  -27.5120  -32.6460   25.9000 C   0  0  0  0  0  1  0  0  0  0  0  0
  -25.5870  -33.9820   24.2120 N   0  0  0  0  0  0  0  0  0  0  0  0
  -25.9290  -35.0320   23.4520 C   0  0  0  0  0  0  0  0  0  0  0  0
  -26.6150  -34.9220   22.4330 O   0  0  0  0  0  0  0  0  0  0  0  0
  -24.9800  -34.1430   25.0010 H   0  0  0  0  0  0  0  0  0  0  0  0
  -24.2100  -36.8280   23.0510 C   0  0  0  0  0  1  0  0  0  0  0  0
  -25.4330  -36.4250   23.8910 C   0  0  0  0  0  3  0  0  0  0  0  0
  -27.5400  -37.3250   24.7740 C   0  0  0  0  0  1  0  0  0  0  0  0
  -26.4680  -37.4780   23.7950 N   0  0  0  0  0  0  0  0  0  0  0  0
  -26.0570  -38.4000   23.9170 H   0  0  0  0  0  0  0  0  0  0  0  0
  -29.9210  -16.6620   20.7900 C   0  0  0  0  0  2  0  0  0  0  0  0
  -30.7300  -15.2310   20.3340 C   0  0  0  0  0  0  0  0  0  0  0  0
  -30.6680  -12.8610   19.3410 C   0  0  0  0  0  2  0  0  0  0  0  0
  -29.7330  -12.8150   18.1070 C   0  0  0  0  0  2  0  0  0  0  0  0
  -28.2730  -12.5740   18.5320 C   0  0  0  0  0  2  0  0  0  0  0  0
  -27.8590  -13.4710   19.7250 C   0  0  0  0  0  3  0  0  0  0  0  0
  -28.9140  -13.4780   20.8510 C   0  0  0  0  0  2  0  0  0  0  0  0
  -30.1790  -13.9370   20.2650 N   0  0  0  0  0  0  0  0  0  0  0  0
  -31.9140  -15.2950   19.9830 O   0  0  0  0  0  0  0  0  0  0  0  0
  -25.4760  -14.0270   20.4620 C   0  0  0  0  0  0  0  0  0  0  0  0
  -24.4140  -13.2440   20.8240 C   0  0  0  0  0  0  0  0  0  0  0  0
  -24.8870  -11.8960   20.7890 C   0  0  0  0  0  0  0  0  0  0  0  0
  -26.5230  -13.1560   20.2180 N   0  0  0  0  0  0  0  0  0  0  0  0
  -26.1790  -11.8690   20.4840 N   0  0  0  0  0  0  0  0  0  0  0  0
  -24.1640  -10.6300   20.9730 C   0  0  0  0  0  0  0  0  0  0  0  0
  -24.5750   -9.6740   21.9280 C   0  0  0  0  0  3  0  0  0  0  0  0
  -23.8510   -8.4740   22.0980 C   0  0  0  0  0  3  0  0  0  0  0  0
  -22.7020   -8.2210   21.3120 C   0  0  0  0  0  0  0  0  0  0  0  0
  -22.3100   -9.1650   20.3470 C   0  0  0  0  0  3  0  0  0  0  0  0
  -23.0350  -10.3550   20.1740 C   0  0  0  0  0  3  0  0  0  0  0  0
  -21.9520   -7.0720   21.3910 O   0  0  0  0  0  0  0  0  0  0  0  0
  -21.8420   -6.3620   22.5590 C   0  0  0  0  0  0  0  0  0  0  0  0
  -21.2980   -6.9330   23.7290 C   0  0  0  0  0  3  0  0  0  0  0  0
  -21.1400   -6.1480   24.8890 C   0  0  0  0  0  3  0  0  0  0  0  0
  -21.5150   -4.7910   24.8770 C   0  0  0  0  0  0  0  0  0  0  0  0
  -22.0510   -4.2180   23.7100 C   0  0  0  0  0  3  0  0  0  0  0  0
  -22.2100   -5.0010   22.5540 C   0  0  0  0  0  0  0  0  0  0  0  0
  -22.7080   -4.4390   21.4260 F   0  0  0  0  0  0  0  0  0  0  0  0
  -21.3550   -4.0330   25.9880 F   0  0  0  0  0  0  0  0  0  0  0  0
  -23.0130  -13.7140   21.0890 C   0  0  0  0  0  0  0  0  0  0  0  0
  -22.2830  -13.0100   21.9460 N   0  0  0  0  0  0  0  0  0  0  0  0
  -22.5750  -14.7390   20.5700 O   0  0  0  0  0  0  0  0  0  0  0  0
  -22.6520  -12.1790   22.3860 H   0  0  0  0  0  0  0  0  0  0  0  0
  -21.3430  -13.3050   22.1660 H   0  0  0  0  0  0  0  0  0  0  0  0
  -25.6340  -15.3990   20.2940 N   0  0  0  0  0  0  0  0  0  0  0  0
  -24.8640  -16.0500   20.4100 H   0  0  0  0  0  0  0  0  0  0  0  0
  -26.4810  -15.8450   19.9710 H   0  0  0  0  0  0  0  0  0  0  0  0
  1  2  1  0
  1  7  1  0
  3  6  2  0
  3  8  1  0
  4  1  2  0
  5  2  2  0
  8  9  1  0
 10  2  1  0
 10 11  1  0
 10  3  1  0
 11  7  1  0
 11 12  1  0
 12 13  1  0
 12 57  1  1
 12  9  1  0
 14 13  2  0
 15 16  1  0
 15  6  1  0
 17 28  2  0
 18 16  1  0
 18 23  1  0
 19 27  1  0
 19 29  1  0
 20 26  1  0
 20 22  1  0
 21 27  1  0
 22 23  2  0
 22 21  1  0
 24 18  2  0
 25 24  1  0
 25 20  2  0
 26 19  1  0
 27 17  1  0
 29 31  2  0
 30 29  1  0
 32 30  1  0
 33 42  2  0
 33 38  1  0
 34 30  1  0
 34 38  1  0
 35 34  1  0
 36 37  1  0
 36 35  1  0
 37 33  1  0
 38 39  2  0
 39 40  1  0
 41 40  2  0
 42 41  1  0
 43 17  1  0
 43 48  1  0
 43 44  1  0
 44 47  1  1
 44 45  1  0
 46 44  1  0
 48 51  1  0
 49 53  1  0
 49 48  1  0
 50 49  2  0
 53 52  1  0
 55 53  1  0
 55 56  1  0
 55 54  1  0
 58 57  1  0
 59 64  1  0
 60 61  1  0
 60 59  1  0
 62 61  1  0
 62 69  1  0
 62 63  1  0
 64 58  1  0
 64 63  1  0
 65 58  2  0
 66 67  2  0
 67 86  1  0
 68 67  1  0
 68 71  1  0
 69 66  1  0
 69 70  1  0
 70 68  2  0
 71 72  1  0
 72 73  2  0
 74 77  1  0
 74 73  1  0
 75 74  2  0
 76 75  1  0
 76 71  2  0
 77 78  1  0
 78 79  1  0
 79 80  2  0
 81 80  1  0
 81 85  1  0
 82 81  2  0
 83 78  2  0
 83 82  1  0
 84 83  1  0
 86 87  1  0
 87 90  1  0
 87 89  1  0
 88 86  2  0
 91 92  1  0
 91 66  1  0
 93 91  1  0
M  ISO  4  15 101  16 101  57 100  58 100
M  END
>  <TORSDO>  (18) 
F 19

>  <SCORE>  (18) 
-15.343

>  <name>  (18) 
17

>  <ligand_id>  (18) 
17

>  <original_smiles>  (18) 
[H]C(=O)C1(C([H])([H])C(=O)N2C([H])([H])C([H])([H])C([H])([H])C([H])(n3nc(-c4c([H])c([H])c(Oc5c([H])c([H])c(F)c([H])c5F)c([H])c4[H])c(C(=O)N([H])[H])c3N([H])[H])C2([H])[H])C([H])([H])C([H])([H])C(=C([H])C([H])([H])Oc2c([H])c([H])c3c(c2[H])C([H])([H])N(C(=O)C([H])(N([H])C(=O)C([H])(N([H])C([H])([H])[H])C([H])([H])[H])C(C([H])([H])[H])(C([H])([H])[H])C([H])([H])[H])C([H])(C(=O)N([H])C2([H])c4c([H])c([H])c([H])c([H])c4C([H])([H])C([H])([H])C2([H])[H])C3([H])[H])C2([H])C(=C([H])[H])C(=C([H])[H])C([H])([H])C21[H]

>  <smiles>  (18) 
[H]C(=O)C1(C([H])([H])C(=O)N2C([H])([H])C([H])([H])C([H])([H])C([H])(n3nc(-c4c([H])c([H])c(Oc5c([H])c([H])c(F)c([H])c5F)c([H])c4[H])c(C(=O)N([H])[H])c3N([H])[H])C2([H])[H])C([H])([H])C([H])([H])C(=C([H])C([H])([H])Oc2c([H])c([H])c3c(c2[H])C([H])([H])N(C(=O)C([H])(N([H])C(=O)C([H])(N([H])C([H])([H])[H])C([H])([H])[H])C(C([H])([H])[H])(C([H])([H])[H])C([H])([H])[H])C([H])(C(=O)N([H])C2([H])c4c([H])c([H])c([H])c([H])c4C([H])([H])C([H])([H])C2([H])[H])C3([H])[H])C2([H])C(=C([H])[H])C(=C([H])[H])C([H])([H])C21[H]

$$$$
18:0:0
     RDKit          3D

102110  0  0  1  0  0  0  0  0999 V2000
  -27.8460  -26.5330   22.6080 C   0  0  0  0  0  3  0  0  0  0  0  0
  -28.1390  -26.0110   23.8770 C   0  0  0  0  0  0  0  0  0  0  0  0
  -29.1350  -25.0120   23.9550 C   0  0  0  0  0  0  0  0  0  0  0  0
  -29.6780  -24.4540   22.7600 C   0  0  0  0  0  0  0  0  0  0  0  0
  -29.0860  -24.7420   21.4890 C   0  0  0  0  0  0  0  0  0  0  0  0
  -28.3490  -25.9540   21.4130 C   0  0  0  0  0  0  0  0  0  0  0  0
  -27.4750  -26.6490   25.1010 C   0  0  0  0  0  1  0  0  0  0  0  0
  -29.6970  -24.6060   25.3070 C   0  0  0  0  0  1  0  0  0  0  0  0
  -29.2580  -23.8450   20.2150 C   0  0  0  0  0  2  0  0  0  0  0  0
  -30.0190  -22.4930   20.4250 C   0  0  0  0  0  2  0  0  0  0  0  0
  -29.7010  -21.2150   19.6370 C   0  0  0  0  0  2  0  0  0  0  0  0
  -30.1680  -19.9430   20.4170 C   0  0  0  0  0  2  0  0  0  0  0  0
  -29.0090  -19.1700   21.0970 C   0  0  0  0  0  2  0  0  0  0  0  0
  -28.9590  -17.6470   20.8470 C   0  0  0  0  0  2  0  0  0  0  0  0
  -30.1510  -16.8300   21.4020 C   0  0  0  0  0  2  0  0  0  0  0  0
  -30.6560  -14.4610   20.6130 C   0  0  0  0  0  0  0  0  0  0  0  0
  -30.4290  -12.3010   19.4540 C   0  0  0  0  0  2  0  0  0  0  0  0
  -29.5040  -12.5210   18.2350 C   0  0  0  0  0  2  0  0  0  0  0  0
  -28.0040  -12.4470   18.6050 C   0  0  0  0  0  2  0  0  0  0  0  0
  -27.6580  -13.2380   19.8970 C   0  0  0  0  0  3  0  0  0  0  0  0
  -28.6880  -12.9440   21.0120 C   0  0  0  0  0  2  0  0  0  0  0  0
  -30.0260  -13.2700   20.4820 N   0  0  0  0  0  0  0  0  0  0  0  0
  -31.7630  -14.7150   20.1220 O   0  0  0  0  0  0  0  0  0  0  0  0
  -29.9100  -15.3930   21.2300 N   0  0  0  0  0  0  0  0  0  0  0  0
  -29.0460  -15.0340   21.6100 H   0  0  0  0  0  0  0  0  0  0  0  0
  -25.2370  -13.8220   20.5640 C   0  0  0  0  0  0  0  0  0  0  0  0
  -24.1710  -13.0510   20.9070 C   0  0  0  0  0  0  0  0  0  0  0  0
  -24.6320  -11.6950   20.8770 C   0  0  0  0  0  0  0  0  0  0  0  0
  -26.2950  -12.9540   20.3440 N   0  0  0  0  0  0  0  0  0  0  0  0
  -25.9270  -11.6670   20.5840 N   0  0  0  0  0  0  0  0  0  0  0  0
  -23.9060  -10.4290   21.0460 C   0  0  0  0  0  0  0  0  0  0  0  0
  -24.3650   -9.4160   21.9190 C   0  0  0  0  0  3  0  0  0  0  0  0
  -23.6300   -8.2220   22.0780 C   0  0  0  0  0  3  0  0  0  0  0  0
  -22.4270   -8.0260   21.3600 C   0  0  0  0  0  0  0  0  0  0  0  0
  -21.9890   -9.0250   20.4720 C   0  0  0  0  0  3  0  0  0  0  0  0
  -22.7240  -10.2100   20.3090 C   0  0  0  0  0  3  0  0  0  0  0  0
  -21.6650   -6.8860   21.4230 O   0  0  0  0  0  0  0  0  0  0  0  0
  -21.6820   -6.0680   22.5210 C   0  0  0  0  0  0  0  0  0  0  0  0
  -21.4040   -6.5590   23.8150 C   0  0  0  0  0  3  0  0  0  0  0  0
  -21.3700   -5.6780   24.9120 C   0  0  0  0  0  3  0  0  0  0  0  0
  -21.6090   -4.3030   24.7180 C   0  0  0  0  0  0  0  0  0  0  0  0
  -21.8800   -3.8100   23.4300 C   0  0  0  0  0  3  0  0  0  0  0  0
  -21.9130   -4.6910   22.3340 C   0  0  0  0  0  0  0  0  0  0  0  0
  -22.1630   -4.2090   21.0930 F   0  0  0  0  0  0  0  0  0  0  0  0
  -21.5600   -3.4530   25.7700 F   0  0  0  0  0  0  0  0  0  0  0  0
  -22.7670  -13.5210   21.1700 C   0  0  0  0  0  0  0  0  0  0  0  0
  -22.0380  -12.8310   22.0380 N   0  0  0  0  0  0  0  0  0  0  0  0
  -22.3340  -14.5450   20.6350 O   0  0  0  0  0  0  0  0  0  0  0  0
  -22.4040  -12.0000   22.4810 H   0  0  0  0  0  0  0  0  0  0  0  0
  -21.1060  -13.1340   22.2820 H   0  0  0  0  0  0  0  0  0  0  0  0
  -25.4020  -15.1990   20.4160 N   0  0  0  0  0  0  0  0  0  0  0  0
  -24.6430  -15.8590   20.5400 H   0  0  0  0  0  0  0  0  0  0  0  0
  -26.2540  -15.6350   20.0870 H   0  0  0  0  0  0  0  0  0  0  0  0
  -31.1220  -23.9440   22.7920 C   0  0  0  0  0  2  0  0  0  0  0  0
  -31.4960  -22.6500   23.5480 C   0  0  0  0  0  2  0  0  0  0  0  0
  -32.8720  -22.7890   24.2240 C   0  0  0  0  0  2  0  0  0  0  0  0
  -34.0410  -23.3600   23.3740 C   0  0  0  0  0  2  0  0  0  0  0  0
  -34.5220  -22.5450   22.1560 C   0  0  0  0  0  2  0  0  0  0  0  0
  -35.7810  -23.1880   21.5400 C   0  0  0  0  0  2  0  0  0  0  0  0
  -37.5430  -23.2270   19.7120 C   0  0  0  0  0  1  0  0  0  0  0  0
  -36.3400  -22.4740   20.3010 C   0  0  0  0  0  2  0  0  0  0  0  0
  -28.2330  -26.6060   20.1940 O   0  0  0  0  0  0  0  0  0  0  0  0
  -24.6190  -31.8660   23.2120 C   0  0  0  0  0  0  0  0  0  0  0  0
  -27.1700  -27.4560   20.0590 C   0  0  0  0  0  0  0  0  0  0  0  0
  -23.3940  -30.5010   21.5560 C   0  0  0  0  0  3  0  0  0  0  0  0
  -24.8210  -28.9840   20.0850 C   0  0  0  0  0  0  0  0  0  0  0  0
  -25.9210  -30.8520   21.3430 C   0  0  0  0  0  2  0  0  0  0  0  0
  -25.9920  -29.5060   20.6520 C   0  0  0  0  0  0  0  0  0  0  0  0
  -27.1870  -28.7640   20.6020 C   0  0  0  0  0  3  0  0  0  0  0  0
  -25.9980  -26.9450   19.4850 C   0  0  0  0  0  3  0  0  0  0  0  0
  -24.8220  -27.7140   19.4830 C   0  0  0  0  0  3  0  0  0  0  0  0
  -23.5840  -29.8430   20.1630 C   0  0  0  0  0  2  0  0  0  0  0  0
  -24.6640  -31.0850   22.0950 N   0  0  0  0  0  0  0  0  0  0  0  0
  -23.5400  -32.1390   23.7590 O   0  0  0  0  0  0  0  0  0  0  0  0
  -22.7380  -29.4680   22.5040 C   0  0  0  0  0  0  0  0  0  0  0  0
  -21.4120  -29.2990   22.3760 N   0  0  0  0  0  0  0  0  0  0  0  0
  -23.4190  -28.8210   23.3050 O   0  0  0  0  0  0  0  0  0  0  0  0
  -20.9310  -29.8690   21.6940 H   0  0  0  0  0  0  0  0  0  0  0  0
  -18.0280  -28.1380   22.8500 C   0  0  0  0  0  0  0  0  0  0  0  0
  -20.5840  -28.3640   23.1350 C   0  0  0  0  0  3  0  0  0  0  0  0
  -20.6790  -26.9410   22.5410 C   0  0  0  0  0  2  0  0  0  0  0  0
  -19.5770  -26.6420   21.5200 C   0  0  0  0  0  2  0  0  0  0  0  0
  -18.1940  -26.7940   22.1610 C   0  0  0  0  0  2  0  0  0  0  0  0
  -19.1520  -28.8850   23.2910 C   0  0  0  0  0  0  0  0  0  0  0  0
  -18.9450  -30.1460   23.8920 C   0  0  0  0  0  3  0  0  0  0  0  0
  -17.6450  -30.6590   24.0590 C   0  0  0  0  0  3  0  0  0  0  0  0
  -16.5340  -29.9100   23.6340 C   0  0  0  0  0  3  0  0  0  0  0  0
  -16.7270  -28.6510   23.0350 C   0  0  0  0  0  3  0  0  0  0  0  0
  -25.9110  -32.4790   23.8370 C   0  0  0  0  0  3  0  0  0  0  0  0
  -25.5960  -33.8580   24.2330 N   0  0  0  0  0  0  0  0  0  0  0  0
  -25.9040  -34.9450   23.5100 C   0  0  0  0  0  0  0  0  0  0  0  0
  -26.5580  -34.8920   22.4650 O   0  0  0  0  0  0  0  0  0  0  0  0
  -25.0150  -33.9700   25.0510 H   0  0  0  0  0  0  0  0  0  0  0  0
  -24.1480  -36.7290   23.2630 C   0  0  0  0  0  1  0  0  0  0  0  0
  -25.4100  -36.3080   24.0350 C   0  0  0  0  0  3  0  0  0  0  0  0
  -27.5570  -37.1790   24.8470 C   0  0  0  0  0  1  0  0  0  0  0  0
  -26.4280  -37.3780   23.9390 N   0  0  0  0  0  0  0  0  0  0  0  0
  -26.0170  -38.2840   24.1440 H   0  0  0  0  0  0  0  0  0  0  0  0
  -26.4500  -31.6580   25.0700 C   0  0  1  0  0  0  0  0  0  0  0  0
  -25.3770  -31.3720   26.1480 C   0  0  0  0  0  1  0  0  0  0  0  0
  -27.0290  -30.3030   24.6050 C   0  0  0  0  0  1  0  0  0  0  0  0
  -27.6090  -32.4270   25.7440 C   0  0  0  0  0  1  0  0  0  0  0  0
  1  2  1  0
  2  3  2  0
  2  7  1  0
  3  8  1  0
  4 54  1  0
  4  3  1  0
  5  4  2  0
  6  5  1  0
  6  1  2  0
  9 10  1  0
  9  5  1  0
 11 12  1  0
 11 10  1  0
 12 13  1  0
 14 13  1  0
 14 15  1  0
 16 24  1  0
 17 22  1  0
 18 19  1  0
 18 17  1  0
 20 19  1  0
 20 29  1  0
 20 21  1  0
 22 16  1  0
 22 21  1  0
 23 16  2  0
 24 15  1  0
 24 25  1  0
 26 27  2  0
 27 46  1  0
 28 27  1  0
 28 31  1  0
 29 26  1  0
 29 30  1  0
 30 28  2  0
 31 32  1  0
 32 33  2  0
 34 37  1  0
 34 33  1  0
 35 34  2  0
 36 35  1  0
 36 31  2  0
 37 38  1  0
 38 39  1  0
 39 40  2  0
 41 40  1  0
 41 45  1  0
 42 41  2  0
 43 38  2  0
 43 42  1  0
 44 43  1  0
 46 47  1  0
 47 50  1  0
 47 49  1  0
 48 46  2  0
 51 52  1  0
 51 26  1  0
 53 51  1  0
 54 55  1  0
 55 56  1  0
 57 56  1  0
 58 57  1  0
 59 58  1  0
 60 61  1  0
 61 59  1  0
 62  6  1  0
 63 74  2  0
 64 62  1  0
 64 69  1  0
 65 73  1  0
 65 75  1  0
 66 72  1  0
 66 68  1  0
 67 73  1  0
 68 67  1  0
 69 68  2  0
 70 64  2  0
 71 70  1  0
 71 66  2  0
 72 65  1  0
 73 63  1  0
 75 77  2  0
 76 75  1  0
 78 76  1  0
 79 88  2  0
 79 84  1  0
 80 76  1  0
 80 84  1  0
 81 80  1  0
 82 83  1  0
 82 81  1  0
 83 79  1  0
 84 85  2  0
 85 86  1  0
 87 86  2  0
 88 87  1  0
 89 63  1  0
 89 90  1  0
 89 99  1  0
 90 93  1  0
 91 95  1  0
 91 90  1  0
 92 91  2  0
 95 94  1  0
 97 95  1  0
 97 98  1  0
 97 96  1  0
 99102  1  1
 99100  1  0
101 99  1  0
M  ISO  4   6 101  16 100  24 100  62 101
M  END
>  <TORSDO>  (19) 
F 30

>  <SCORE>  (19) 
4.062

>  <name>  (19) 
18

>  <ligand_id>  (19) 
18

>  <original_smiles>  (19) 
[H]c1c([H])c([H])c2c(c1[H])C([H])([H])C([H])([H])C([H])([H])C2([H])N([H])C(=O)C1([H])N(C(=O)C([H])(N([H])C(=O)C([H])(N([H])C([H])([H])[H])C([H])([H])[H])C(C([H])([H])[H])(C([H])([H])[H])C([H])([H])[H])C([H])([H])c2c([H])c(Oc3c([H])c(C([H])([H])[H])c(C([H])([H])[H])c(C([H])([H])C([H])([H])C([H])([H])C([H])([H])C([H])([H])C([H])([H])C([H])([H])C([H])([H])[H])c3C([H])([H])C([H])([H])C([H])([H])C([H])([H])C([H])([H])C([H])([H])C([H])([H])N([H])C(=O)N3C([H])([H])C([H])([H])C([H])([H])C([H])(n4nc(-c5c([H])c([H])c(Oc6c([H])c([H])c(F)c([H])c6F)c([H])c5[H])c(C(=O)N([H])[H])c4N([H])[H])C3([H])[H])c([H])c([H])c2C1([H])[H]

>  <smiles>  (19) 
[H]c1c([H])c([H])c2c(c1[H])C([H])([H])C([H])([H])C([H])([H])C2([H])N([H])C(=O)C1([H])N(C(=O)C([H])(N([H])C(=O)C([H])(N([H])C([H])([H])[H])C([H])([H])[H])C(C([H])([H])[H])(C([H])([H])[H])C([H])([H])[H])C([H])([H])c2c([H])c(Oc3c([H])c(C([H])([H])[H])c(C([H])([H])[H])c(C([H])([H])C([H])([H])C([H])([H])C([H])([H])C([H])([H])C([H])([H])C([H])([H])C([H])([H])[H])c3C([H])([H])C([H])([H])C([H])([H])C([H])([H])C([H])([H])C([H])([H])C([H])([H])N([H])C(=O)N3C([H])([H])C([H])([H])C([H])([H])C([H])(n4nc(-c5c([H])c([H])c(Oc6c([H])c([H])c(F)c([H])c6F)c([H])c5[H])c(C(=O)N([H])[H])c4N([H])[H])C3([H])[H])c([H])c([H])c2C1([H])[H]

$$$$
19:0:0
     RDKit          3D

 95104  0  0  1  0  0  0  0  0999 V2000
  -29.2800  -23.5070   19.5990 C   0  0  0  0  0  3  0  0  0  0  0  0
  -26.9730  -23.2180   21.0040 C   0  0  0  0  0  3  0  0  0  0  0  0
  -28.9530  -22.0460   19.9960 C   0  0  0  0  0  0  0  0  0  0  0  0
  -27.7120  -22.0410   20.7250 C   0  0  0  0  0  0  0  0  0  0  0  0
  -28.4840  -24.8100   19.8760 C   0  0  0  0  0  0  0  0  0  0  0  0
  -27.3280  -24.5230   20.6320 C   0  0  0  0  0  0  0  0  0  0  0  0
  -26.5180  -25.5140   21.0710 F   0  0  0  0  0  0  0  0  0  0  0  0
  -31.6080  -15.7560   19.6540 C   0  0  0  0  0  0  0  0  0  0  0  0
  -31.5730  -13.2850   18.9110 C   0  0  0  0  0  2  0  0  0  0  0  0
  -30.5730  -12.9520   17.7820 C   0  0  0  0  0  2  0  0  0  0  0  0
  -29.1920  -12.6250   18.3710 C   0  0  0  0  0  2  0  0  0  0  0  0
  -28.7780  -13.6300   19.4770 C   0  0  0  0  0  3  0  0  0  0  0  0
  -29.9080  -13.9390   20.4830 C   0  0  0  0  0  2  0  0  0  0  0  0
  -31.0360  -14.4580   19.6960 N   0  0  0  0  0  0  0  0  0  0  0  0
  -32.8070  -15.7250   19.3450 O   0  0  0  0  0  0  0  0  0  0  0  0
  -28.9520  -19.0450   19.7420 C   0  0  0  0  0  3  0  0  0  0  0  0
  -30.9960  -19.9270   19.1100 C   0  0  0  0  0  3  0  0  0  0  0  0
  -29.5990  -17.5810   20.1890 C   0  0  0  0  0  2  0  0  0  0  0  0
  -31.6800  -18.4280   19.4350 C   0  0  0  0  0  3  0  0  0  0  0  0
  -29.7290  -20.4660   19.9330 C   0  0  0  0  0  0  0  0  0  0  0  0
  -30.9340  -17.0850   19.6640 N   0  0  0  0  0  0  0  0  0  0  0  0
  -26.5600  -14.0900   20.6460 C   0  0  0  0  0  0  0  0  0  0  0  0
  -25.5410  -13.2750   21.0500 C   0  0  0  0  0  0  0  0  0  0  0  0
  -25.9600  -11.9410   20.7570 C   0  0  0  0  0  0  0  0  0  0  0  0
  -27.5320  -13.2530   20.1300 N   0  0  0  0  0  0  0  0  0  0  0  0
  -27.1930  -11.9440   20.2600 N   0  0  0  0  0  0  0  0  0  0  0  0
  -25.2300  -10.6710   20.8650 C   0  0  0  0  0  0  0  0  0  0  0  0
  -25.6040   -9.6780   21.7960 C   0  0  0  0  0  3  0  0  0  0  0  0
  -24.8710   -8.4760   21.8960 C   0  0  0  0  0  3  0  0  0  0  0  0
  -23.7480   -8.2580   21.0620 C   0  0  0  0  0  0  0  0  0  0  0  0
  -23.3940   -9.2400   20.1190 C   0  0  0  0  0  3  0  0  0  0  0  0
  -24.1290  -10.4330   20.0170 C   0  0  0  0  0  3  0  0  0  0  0  0
  -22.9920   -7.1110   21.0720 O   0  0  0  0  0  0  0  0  0  0  0  0
  -22.5860   -6.5260   22.2440 C   0  0  0  0  0  0  0  0  0  0  0  0
  -21.8080   -7.2220   23.1950 C   0  0  0  0  0  3  0  0  0  0  0  0
  -21.3540   -6.5600   24.3530 C   0  0  0  0  0  3  0  0  0  0  0  0
  -21.6690   -5.2040   24.5590 C   0  0  0  0  0  0  0  0  0  0  0  0
  -22.4390   -4.5070   23.6100 C   0  0  0  0  0  3  0  0  0  0  0  0
  -22.8930   -5.1660   22.4540 C   0  0  0  0  0  0  0  0  0  0  0  0
  -23.6160   -4.4840   21.5340 F   0  0  0  0  0  0  0  0  0  0  0  0
  -21.2270   -4.5650   25.6670 F   0  0  0  0  0  0  0  0  0  0  0  0
  -24.2110  -13.7200   21.5820 C   0  0  0  0  0  0  0  0  0  0  0  0
  -23.6060  -12.9280   22.4590 N   0  0  0  0  0  0  0  0  0  0  0  0
  -23.7240  -14.8020   21.2570 O   0  0  0  0  0  0  0  0  0  0  0  0
  -24.0170  -12.0500   22.7390 H   0  0  0  0  0  0  0  0  0  0  0  0
  -22.7180  -13.2040   22.8550 H   0  0  0  0  0  0  0  0  0  0  0  0
  -26.7250  -15.4720   20.6400 N   0  0  0  0  0  0  0  0  0  0  0  0
  -25.9740  -16.0950   20.9120 H   0  0  0  0  0  0  0  0  0  0  0  0
  -27.4950  -15.9500   20.1910 H   0  0  0  0  0  0  0  0  0  0  0  0
  -28.7070  -26.3010   19.6190 O   0  0  0  0  0  0  0  0  0  0  0  0
  -25.0050  -31.7760   23.2460 C   0  0  0  0  0  0  0  0  0  0  0  0
  -27.7110  -27.4000   19.6990 C   0  0  0  0  0  0  0  0  0  0  0  0
  -23.8870  -30.6140   21.3860 C   0  0  0  0  0  3  0  0  0  0  0  0
  -25.4020  -29.2400   19.8110 C   0  0  0  0  0  0  0  0  0  0  0  0
  -26.4530  -30.8630   21.3720 C   0  0  0  0  0  2  0  0  0  0  0  0
  -26.5600  -29.5620   20.5340 C   0  0  0  0  0  0  0  0  0  0  0  0
  -27.7110  -28.6630   20.4620 C   0  0  0  0  0  3  0  0  0  0  0  0
  -26.5360  -27.2360   18.9340 C   0  0  0  0  0  3  0  0  0  0  0  0
  -25.4140  -28.0980   18.9950 C   0  0  0  0  0  3  0  0  0  0  0  0
  -24.1740  -30.1370   19.9370 C   0  0  0  0  0  2  0  0  0  0  0  0
  -25.1340  -31.1030   22.0590 N   0  0  0  0  0  0  0  0  0  0  0  0
  -23.8950  -31.9840   23.7610 O   0  0  0  0  0  0  0  0  0  0  0  0
  -23.1690  -29.4870   22.1740 C   0  0  0  0  0  0  0  0  0  0  0  0
  -21.8410  -29.3560   22.0030 N   0  0  0  0  0  0  0  0  0  0  0  0
  -23.8150  -28.7370   22.9120 O   0  0  0  0  0  0  0  0  0  0  0  0
  -21.3720  -30.0120   21.3930 H   0  0  0  0  0  0  0  0  0  0  0  0
  -18.4200  -28.2270   22.4170 C   0  0  0  0  0  0  0  0  0  0  0  0
  -20.9990  -28.3220   22.6110 C   0  0  0  0  0  3  0  0  0  0  0  0
  -21.0040  -27.0300   21.7590 C   0  0  0  0  0  2  0  0  0  0  0  0
  -19.8490  -26.9670   20.7520 C   0  0  0  0  0  2  0  0  0  0  0  0
  -18.5020  -27.0360   21.4780 C   0  0  0  0  0  2  0  0  0  0  0  0
  -19.5910  -28.8410   22.9370 C   0  0  0  0  0  0  0  0  0  0  0  0
  -19.4580  -29.9620   23.7830 C   0  0  0  0  0  3  0  0  0  0  0  0
  -18.1860  -30.4740   24.1070 C   0  0  0  0  0  3  0  0  0  0  0  0
  -17.0310  -29.8570   23.5980 C   0  0  0  0  0  3  0  0  0  0  0  0
  -17.1490  -28.7340   22.7600 C   0  0  0  0  0  3  0  0  0  0  0  0
  -26.2470  -32.3290   24.0080 C   0  0  0  0  0  3  0  0  0  0  0  0
  -26.6560  -31.4430   25.2500 C   0  0  1  0  0  0  0  0  0  0  0  0
  -25.4840  -31.1450   26.2140 C   0  0  0  0  0  1  0  0  0  0  0  0
  -27.2400  -30.0860   24.7950 C   0  0  0  0  0  1  0  0  0  0  0  0
  -27.7710  -32.1510   26.0530 C   0  0  0  0  0  1  0  0  0  0  0  0
  -25.9350  -33.7010   24.4440 N   0  0  0  0  0  0  0  0  0  0  0  0
  -26.3010  -34.8130   23.7950 C   0  0  0  0  0  0  0  0  0  0  0  0
  -26.9980  -34.7920   22.7770 O   0  0  0  0  0  0  0  0  0  0  0  0
  -25.3190  -33.7910   25.2380 H   0  0  0  0  0  0  0  0  0  0  0  0
  -24.5860  -36.6440   23.5750 C   0  0  0  0  0  1  0  0  0  0  0  0
  -25.8190  -36.1660   24.3600 C   0  0  0  0  0  3  0  0  0  0  0  0
  -27.9430  -36.9770   25.2880 C   0  0  0  0  0  1  0  0  0  0  0  0
  -26.8590  -37.2180   24.3400 N   0  0  0  0  0  0  0  0  0  0  0  0
  -26.4540  -38.1280   24.5460 H   0  0  0  0  0  0  0  0  0  0  0  0
  -27.0600  -20.7950   21.3380 C   0  0  0  0  0  2  0  0  0  0  0  0
  -26.4260  -19.9640   20.3020 N   0  0  0  0  0  4  0  0  0  0  0  0
  -25.7720  -20.5040   19.7680 H   0  0  0  0  0  0  0  0  0  0  0  0
  -25.9340  -19.1970   20.7270 H   0  0  0  0  0  0  0  0  0  0  0  0
  -27.1160  -19.5930   19.6750 H   0  0  0  0  0  0  0  0  0  0  0  0
  1  5  2  0
  1  3  1  0
  3  4  2  0
  4  2  1  0
  4 91  1  0
  5  6  1  0
  6  2  2  0
  6  7  1  0
  8 21  1  0
  8 14  1  0
  9 14  1  0
 10 11  1  0
 10  9  1  0
 12 11  1  0
 12 25  1  0
 12 13  1  0
 14 13  1  0
 15  8  2  0
 16 20  2  0
 16 18  1  0
 17 19  2  0
 17 20  1  0
 19 21  1  0
 20  3  1  0
 21 18  1  0
 22 23  2  0
 23 42  1  0
 24 27  1  0
 24 23  1  0
 25 26  1  0
 25 22  1  0
 26 24  2  0
 27 28  1  0
 28 29  2  0
 30 33  1  0
 30 29  1  0
 31 30  2  0
 32 31  1  0
 32 27  2  0
 33 34  1  0
 34 39  2  0
 34 35  1  0
 35 36  2  0
 36 37  1  0
 37 41  1  0
 38 37  2  0
 39 38  1  0
 40 39  1  0
 42 43  1  0
 43 45  1  0
 43 46  1  0
 44 42  2  0
 47 22  1  0
 47 48  1  0
 49 47  1  0
 50 52  1  0
 50  5  1  0
 51 62  2  0
 52 57  1  0
 53 61  1  0
 53 63  1  0
 54 60  1  0
 54 56  1  0
 55 61  1  0
 56 55  1  0
 57 56  2  0
 58 59  1  0
 58 52  2  0
 59 54  2  0
 60 53  1  0
 61 51  1  0
 63 65  2  0
 64 63  1  0
 66 64  1  0
 67 76  2  0
 67 72  1  0
 68 64  1  0
 68 72  1  0
 69 68  1  0
 70 71  1  0
 70 69  1  0
 71 67  1  0
 72 73  2  0
 73 74  1  0
 75 74  2  0
 76 75  1  0
 77 51  1  0
 77 82  1  0
 77 78  1  0
 78 81  1  1
 78 79  1  0
 80 78  1  0
 82 85  1  0
 83 87  1  0
 83 82  1  0
 84 83  2  0
 87 86  1  0
 89 87  1  0
 89 90  1  0
 89 88  1  0
 92 94  1  0
 92 91  1  0
 93 92  1  0
 95 92  1  0
M  ISO  4   5 101   8 100  21 100  50 101
M  END
>  <TORSDO>  (20) 
F 18

>  <SCORE>  (20) 
-7.896

>  <name>  (20) 
19

>  <ligand_id>  (20) 
19

>  <original_smiles>  (20) 
[H]c1c([H])c([H])c2c(c1[H])C([H])([H])C([H])([H])C([H])([H])C2([H])N([H])C(=O)C1([H])N(C(=O)C([H])(N([H])C(=O)C([H])(N([H])C([H])([H])[H])C([H])([H])[H])C(C([H])([H])[H])(C([H])([H])[H])C([H])([H])[H])C([H])([H])c2c([H])c(Oc3c([H])c(C4([H])C([H])([H])C([H])([H])N(C(=O)N5C([H])([H])C([H])([H])C([H])([H])C([H])(n6nc(-c7c([H])c([H])c(Oc8c([H])c([H])c(F)c([H])c8F)c([H])c7[H])c(C(=O)N([H])[H])c6N([H])[H])C5([H])[H])C([H])([H])C4([H])[H])c(C([H])([H])[N+]([H])([H])[H])c([H])c3F)c([H])c([H])c2C1([H])[H]

>  <smiles>  (20) 
[H]c1c([H])c([H])c2c(c1[H])C([H])([H])C([H])([H])C([H])([H])C2([H])N([H])C(=O)C1([H])N(C(=O)C([H])(N([H])C(=O)C([H])(N([H])C([H])([H])[H])C([H])([H])[H])C(C([H])([H])[H])(C([H])([H])[H])C([H])([H])[H])C([H])([H])c2c([H])c(Oc3c([H])c(C4([H])C([H])([H])C([H])([H])N(C(=O)N5C([H])([H])C([H])([H])C([H])([H])C([H])(n6nc(-c7c([H])c([H])c(Oc8c([H])c([H])c(F)c([H])c8F)c([H])c7[H])c(C(=O)N([H])[H])c6N([H])[H])C5([H])[H])C([H])([H])C4([H])[H])c(C([H])([H])[N+]([H])([H])[H])c([H])c3F)c([H])c([H])c2C1([H])[H]

$$$$
20:0:0
     RDKit          3D

 92100  0  0  1  0  0  0  0  0999 V2000
  -27.9920  -24.6140   23.0040 C   0  0  0  0  0  3  0  0  0  0  0  0
  -26.7030  -24.6670   22.4400 C   0  0  0  0  0  0  0  0  0  0  0  0
  -29.0970  -24.3880   22.1480 C   0  0  0  0  0  0  0  0  0  0  0  0
  -26.5780  -24.8150   21.0360 C   0  0  0  0  0  0  0  0  0  0  0  0
  -28.8550  -24.3270   20.7560 C   0  0  0  0  0  0  0  0  0  0  0  0
  -27.7520  -25.1210   20.2760 C   0  0  0  0  0  0  0  0  0  0  0  0
  -25.4750  -24.5050   23.3240 C   0  0  0  0  0  1  0  0  0  0  0  0
  -30.4610  -24.0730   22.7350 C   0  0  0  0  0  1  0  0  0  0  0  0
  -25.2340  -24.4940   20.3790 C   0  0  0  0  0  1  0  0  0  0  0  0
  -28.0170  -26.4860   19.9090 O   0  0  0  0  0  0  0  0  0  0  0  0
  -24.4670  -31.8980   23.1550 C   0  0  0  0  0  0  0  0  0  0  0  0
  -26.9910  -27.4460   19.8750 C   0  0  0  0  0  0  0  0  0  0  0  0
  -23.2410  -30.5680   21.4800 C   0  0  0  0  0  3  0  0  0  0  0  0
  -24.6670  -29.0980   19.9470 C   0  0  0  0  0  0  0  0  0  0  0  0
  -25.7830  -30.8730   21.2930 C   0  0  0  0  0  2  0  0  0  0  0  0
  -25.8410  -29.5280   20.5820 C   0  0  0  0  0  0  0  0  0  0  0  0
  -27.0080  -28.7010   20.5580 C   0  0  0  0  0  3  0  0  0  0  0  0
  -25.8430  -27.1410   19.1230 C   0  0  0  0  0  3  0  0  0  0  0  0
  -24.6700  -27.9080   19.2080 C   0  0  0  0  0  3  0  0  0  0  0  0
  -23.4330  -29.9700   20.0630 C   0  0  0  0  0  2  0  0  0  0  0  0
  -24.5140  -31.1320   22.0280 N   0  0  0  0  0  0  0  0  0  0  0  0
  -23.3910  -32.1530   23.7120 O   0  0  0  0  0  0  0  0  0  0  0  0
  -22.5980  -29.5020   22.4010 C   0  0  0  0  0  0  0  0  0  0  0  0
  -21.2710  -29.3220   22.2850 N   0  0  0  0  0  0  0  0  0  0  0  0
  -23.2910  -28.8510   23.1900 O   0  0  0  0  0  0  0  0  0  0  0  0
  -20.7680  -29.9060   21.6330 H   0  0  0  0  0  0  0  0  0  0  0  0
  -17.9050  -28.1080   22.8040 C   0  0  0  0  0  0  0  0  0  0  0  0
  -20.4690  -28.3540   23.0310 C   0  0  0  0  0  3  0  0  0  0  0  0
  -20.5560  -26.9480   22.3920 C   0  0  0  0  0  2  0  0  0  0  0  0
  -19.4340  -26.6780   21.3860 C   0  0  0  0  0  2  0  0  0  0  0  0
  -18.0660  -26.7900   22.0660 C   0  0  0  0  0  2  0  0  0  0  0  0
  -19.0320  -28.8520   23.2440 C   0  0  0  0  0  0  0  0  0  0  0  0
  -18.8270  -30.0870   23.8960 C   0  0  0  0  0  3  0  0  0  0  0  0
  -17.5250  -30.5770   24.1130 C   0  0  0  0  0  3  0  0  0  0  0  0
  -16.4130  -29.8300   23.6880 C   0  0  0  0  0  3  0  0  0  0  0  0
  -16.6030  -28.5990   23.0360 C   0  0  0  0  0  3  0  0  0  0  0  0
  -25.7620  -32.5090   23.7750 C   0  0  0  0  0  3  0  0  0  0  0  0
  -25.4630  -33.9060   24.1240 N   0  0  0  0  0  0  0  0  0  0  0  0
  -25.7770  -34.9640   23.3640 C   0  0  0  0  0  0  0  0  0  0  0  0
  -26.4170  -34.8660   22.3140 O   0  0  0  0  0  0  0  0  0  0  0  0
  -24.8970  -34.0590   24.9460 H   0  0  0  0  0  0  0  0  0  0  0  0
  -24.0330  -36.7550   23.0910 C   0  0  0  0  0  1  0  0  0  0  0  0
  -25.3080  -36.3490   23.8480 C   0  0  0  0  0  3  0  0  0  0  0  0
  -27.4690  -37.2340   24.6060 C   0  0  0  0  0  1  0  0  0  0  0  0
  -26.3330  -37.4050   23.7020 N   0  0  0  0  0  0  0  0  0  0  0  0
  -25.9290  -38.3220   23.8710 H   0  0  0  0  0  0  0  0  0  0  0  0
  -26.2750  -31.7190   25.0410 C   0  0  1  0  0  0  0  0  0  0  0  0
  -25.1760  -31.4540   26.0970 C   0  0  0  0  0  1  0  0  0  0  0  0
  -26.8780  -30.3530   24.6380 C   0  0  0  0  0  1  0  0  0  0  0  0
  -27.4100  -32.5160   25.7240 C   0  0  0  0  0  1  0  0  0  0  0  0
  -29.4190  -23.0650   20.0000 C   0  0  0  0  0  3  0  0  0  0  0  0
  -29.0960  -21.6180   20.6150 C   0  0  0  0  0  3  0  0  0  0  0  0
  -29.7560  -20.3080   19.9790 C   0  0  0  0  0  3  0  0  0  0  0  0
  -29.4490  -18.8820   20.6440 C   0  0  0  0  0  3  0  0  0  0  0  0
  -30.1650  -17.5730   20.0650 C   0  0  0  0  0  3  0  0  0  0  0  0
  -29.9100  -16.1640   20.7830 C   0  0  0  0  0  3  0  0  0  0  0  0
  -30.6590  -14.8710   20.2330 C   0  0  0  0  0  0  0  0  0  0  0  0
  -30.4560  -12.6310   19.1620 C   0  0  0  0  0  2  0  0  0  0  0  0
  -29.4890  -12.7530   17.9590 C   0  0  0  0  0  2  0  0  0  0  0  0
  -28.0160  -12.6020   18.3940 C   0  0  0  0  0  2  0  0  0  0  0  0
  -27.6780  -13.4380   19.6600 C   0  0  0  0  0  3  0  0  0  0  0  0
  -28.7570  -13.2810   20.7570 C   0  0  0  0  0  2  0  0  0  0  0  0
  -30.0500  -13.6410   20.1620 N   0  0  0  0  0  0  0  0  0  0  0  0
  -31.7950  -15.0170   19.7690 O   0  0  0  0  0  0  0  0  0  0  0  0
  -25.2920  -14.0140   20.4230 C   0  0  0  0  0  0  0  0  0  0  0  0
  -24.2390  -13.2310   20.8160 C   0  0  0  0  0  0  0  0  0  0  0  0
  -24.7090  -11.8840   20.7640 C   0  0  0  0  0  0  0  0  0  0  0  0
  -26.3370  -13.1410   20.1650 N   0  0  0  0  0  0  0  0  0  0  0  0
  -25.9920  -11.8550   20.4280 N   0  0  0  0  0  0  0  0  0  0  0  0
  -23.9920  -10.6160   20.9580 C   0  0  0  0  0  0  0  0  0  0  0  0
  -24.4040   -9.6740   21.9280 C   0  0  0  0  0  3  0  0  0  0  0  0
  -23.6880   -8.4700   22.1050 C   0  0  0  0  0  3  0  0  0  0  0  0
  -22.5450   -8.1980   21.3130 C   0  0  0  0  0  0  0  0  0  0  0  0
  -22.1520   -9.1300   20.3340 C   0  0  0  0  0  3  0  0  0  0  0  0
  -22.8700  -10.3260   20.1540 C   0  0  0  0  0  3  0  0  0  0  0  0
  -21.8000   -7.0470   21.4050 O   0  0  0  0  0  0  0  0  0  0  0  0
  -21.6770   -6.3600   22.5870 C   0  0  0  0  0  0  0  0  0  0  0  0
  -21.1300   -6.9570   23.7450 C   0  0  0  0  0  3  0  0  0  0  0  0
  -20.9620   -6.1910   24.9160 C   0  0  0  0  0  3  0  0  0  0  0  0
  -21.3290   -4.8320   24.9270 C   0  0  0  0  0  0  0  0  0  0  0  0
  -21.8640   -4.2350   23.7730 C   0  0  0  0  0  3  0  0  0  0  0  0
  -22.0370   -4.9970   22.6050 C   0  0  0  0  0  0  0  0  0  0  0  0
  -22.5370   -4.4130   21.4890 F   0  0  0  0  0  0  0  0  0  0  0  0
  -21.1550   -4.0940   26.0500 F   0  0  0  0  0  0  0  0  0  0  0  0
  -22.8440  -13.7030   21.1140 C   0  0  0  0  0  0  0  0  0  0  0  0
  -22.1260  -12.9960   21.9790 N   0  0  0  0  0  0  0  0  0  0  0  0
  -22.3980  -14.7330   20.6110 O   0  0  0  0  0  0  0  0  0  0  0  0
  -22.4900  -12.1580   22.4070 H   0  0  0  0  0  0  0  0  0  0  0  0
  -21.1880  -13.2950   22.2130 H   0  0  0  0  0  0  0  0  0  0  0  0
  -25.4400  -15.3840   20.2450 N   0  0  0  0  0  0  0  0  0  0  0  0
  -24.6760  -16.0360   20.3880 H   0  0  0  0  0  0  0  0  0  0  0  0
  -26.2640  -15.8180   19.8510 H   0  0  0  0  0  0  0  0  0  0  0  0
  2  1  1  0
  2  7  1  0
  3  8  1  0
  3  1  2  0
  4  2  2  0
  5  3  1  0
  6  5  2  3
  6  4  1  0
  9  4  1  0
 10  6  1  0
 11 22  2  0
 12 10  1  0
 12 17  1  0
 13 21  1  0
 13 23  1  0
 14 20  1  0
 14 16  1  0
 15 21  1  0
 16 15  1  0
 17 16  2  0
 18 19  1  0
 18 12  2  0
 19 14  2  0
 20 13  1  0
 21 11  1  0
 23 25  2  0
 24 23  1  0
 26 24  1  0
 27 36  2  0
 27 32  1  0
 28 24  1  0
 28 32  1  0
 29 28  1  0
 30 31  1  0
 30 29  1  0
 31 27  1  0
 32 33  2  0
 33 34  1  0
 35 34  2  0
 36 35  1  0
 37 11  1  0
 37 38  1  0
 37 47  1  0
 38 41  1  0
 39 43  1  0
 39 38  1  0
 40 39  2  0
 43 42  1  0
 45 43  1  0
 45 46  1  0
 45 44  1  0
 47 50  1  1
 47 48  1  0
 49 47  1  0
 51 52  2  0
 51  5  1  0
 53 52  1  0
 53 54  2  0
 55 54  1  0
 55 56  2  0
 57 56  1  0
 58 63  1  0
 59 60  1  0
 59 58  1  0
 61 60  1  0
 61 68  1  0
 61 62  1  0
 63 57  1  0
 63 62  1  0
 64 57  2  0
 65 66  2  0
 66 85  1  0
 67 66  1  0
 67 70  1  0
 68 65  1  0
 68 69  1  0
 69 67  2  0
 70 71  1  0
 71 72  2  0
 73 76  1  0
 73 72  1  0
 74 73  2  0
 75 74  1  0
 75 70  2  0
 76 77  1  0
 77 82  2  0
 77 78  1  0
 78 79  2  0
 79 80  1  0
 80 84  1  0
 81 80  2  0
 82 81  1  0
 83 82  1  0
 85 86  1  0
 86 89  1  0
 86 88  1  0
 87 85  2  0
 90 91  1  0
 90 65  1  0
 92 90  1  0
M  ISO  4   6 101  10 101  56 100  57 100
M  END
>  <TORSDO>  (21) 
F 22

>  <SCORE>  (21) 
-11.688

>  <name>  (21) 
20

>  <ligand_id>  (21) 
20

>  <original_smiles>  (21) 
[H]c1c([H])c([H])c2c(c1[H])C([H])([H])C([H])([H])C([H])([H])C2([H])N([H])C(=O)C1([H])N(C(=O)C([H])(N([H])C(=O)C([H])(N([H])C([H])([H])[H])C([H])([H])[H])C(C([H])([H])[H])(C([H])([H])[H])C([H])([H])[H])C([H])([H])c2c([H])c(Oc3c(C([H])([H])[H])c(C([H])([H])[H])c([H])c(C([H])([H])[H])c3C([H])([H])C([H])([H])C([H])([H])C([H])([H])C([H])([H])C([H])([H])C(=O)N3C([H])([H])C([H])([H])C([H])([H])C([H])(n4nc(-c5c([H])c([H])c(Oc6c([H])c([H])c(F)c([H])c6F)c([H])c5[H])c(C(=O)N([H])[H])c4N([H])[H])C3([H])[H])c([H])c([H])c2C1([H])[H]

>  <smiles>  (21) 
[H]c1c([H])c([H])c2c(c1[H])C([H])([H])C([H])([H])C([H])([H])C2([H])N([H])C(=O)C1([H])N(C(=O)C([H])(N([H])C(=O)C([H])(N([H])C([H])([H])[H])C([H])([H])[H])C(C([H])([H])[H])(C([H])([H])[H])C([H])([H])[H])C([H])([H])c2c([H])c(Oc3c(C([H])([H])[H])c(C([H])([H])[H])c([H])c(C([H])([H])[H])c3C([H])([H])C([H])([H])C([H])([H])C([H])([H])C([H])([H])C([H])([H])C(=O)N3C([H])([H])C([H])([H])C([H])([H])C([H])(n4nc(-c5c([H])c([H])c(Oc6c([H])c([H])c(F)c([H])c6F)c([H])c5[H])c(C(=O)N([H])[H])c4N([H])[H])C3([H])[H])c([H])c([H])c2C1([H])[H]

$$$$
21:0:0
     RDKit          3D

 97106  0  0  1  0  0  0  0  0999 V2000
  -31.3490  -25.7480   18.8960 C   0  0  0  0  0  3  0  0  0  0  0  0
  -29.4670  -26.2130   20.9100 C   0  0  0  0  0  0  0  0  0  0  0  0
  -30.5920  -25.4200   21.1650 C   0  0  0  0  0  0  0  0  0  0  0  0
  -31.5100  -25.1010   20.1430 C   0  0  0  0  0  0  0  0  0  0  0  0
  -30.2090  -26.5450   18.6310 C   0  0  0  0  0  0  0  0  0  0  0  0
  -29.2060  -26.7170   19.6170 C   0  0  0  0  0  0  0  0  0  0  0  0
  -28.6030  -26.2280   22.1050 C   0  0  0  0  0  0  0  0  0  0  0  0
  -29.2850  -25.4290   23.1400 C   0  0  0  0  0  0  0  0  0  0  0  0
  -28.8070  -25.2540   24.3830 C   0  0  0  0  0  2  0  0  0  0  0  0
  -30.5800  -24.8760   22.5740 C   0  0  0  0  0  2  0  0  0  0  0  0
  -29.9780  -27.0660   17.2250 C   0  0  0  0  0  1  0  0  0  0  0  0
  -27.5170  -26.8020   22.2280 O   0  0  0  0  0  0  0  0  0  0  0  0
  -27.9230  -26.7620   19.1500 O   0  0  0  0  0  0  0  0  0  0  0  0
  -24.2860  -31.6990   22.9160 C   0  0  0  0  0  0  0  0  0  0  0  0
  -26.9120  -27.6760   19.2970 C   0  0  0  0  0  0  0  0  0  0  0  0
  -23.0570  -30.4360   21.1860 C   0  0  0  0  0  3  0  0  0  0  0  0
  -24.4980  -29.1100   19.5570 C   0  0  0  0  0  0  0  0  0  0  0  0
  -25.5690  -30.8860   20.9410 C   0  0  0  0  0  2  0  0  0  0  0  0
  -25.6740  -29.5950   20.1550 C   0  0  0  0  0  0  0  0  0  0  0  0
  -26.8980  -28.8840   20.0310 C   0  0  0  0  0  3  0  0  0  0  0  0
  -25.7230  -27.2150   18.7000 C   0  0  0  0  0  3  0  0  0  0  0  0
  -24.5170  -27.9160   18.8250 C   0  0  0  0  0  3  0  0  0  0  0  0
  -23.2330  -29.9160   19.7370 C   0  0  0  0  0  2  0  0  0  0  0  0
  -24.3230  -31.0140   21.7400 N   0  0  0  0  0  0  0  0  0  0  0  0
  -23.2190  -31.8850   23.5170 O   0  0  0  0  0  0  0  0  0  0  0  0
  -22.4660  -29.3020   22.0580 C   0  0  0  0  0  0  0  0  0  0  0  0
  -21.1320  -29.1440   22.0170 N   0  0  0  0  0  0  0  0  0  0  0  0
  -23.2010  -28.5750   22.7310 O   0  0  0  0  0  0  0  0  0  0  0  0
  -20.5980  -29.7870   21.4490 H   0  0  0  0  0  0  0  0  0  0  0  0
  -17.7830  -27.9730   22.7120 C   0  0  0  0  0  0  0  0  0  0  0  0
  -20.3630  -28.1220   22.7290 C   0  0  0  0  0  3  0  0  0  0  0  0
  -20.3430  -26.7910   21.9420 C   0  0  0  0  0  2  0  0  0  0  0  0
  -19.1260  -26.6520   21.0210 C   0  0  0  0  0  2  0  0  0  0  0  0
  -17.8280  -26.7350   21.8320 C   0  0  0  0  0  2  0  0  0  0  0  0
  -18.9720  -28.6330   23.1190 C   0  0  0  0  0  0  0  0  0  0  0  0
  -18.8720  -29.7990   23.9090 C   0  0  0  0  0  3  0  0  0  0  0  0
  -17.6150  -30.3040   24.2920 C   0  0  0  0  0  3  0  0  0  0  0  0
  -16.4410  -29.6390   23.8990 C   0  0  0  0  0  3  0  0  0  0  0  0
  -16.5270  -28.4750   23.1140 C   0  0  0  0  0  3  0  0  0  0  0  0
  -25.5780  -32.3030   23.5480 C   0  0  0  0  0  3  0  0  0  0  0  0
  -25.2680  -33.6780   23.9570 N   0  0  0  0  0  0  0  0  0  0  0  0
  -25.6370  -34.7730   23.2790 C   0  0  0  0  0  0  0  0  0  0  0  0
  -26.3440  -34.7280   22.2680 O   0  0  0  0  0  0  0  0  0  0  0  0
  -24.6460  -33.7880   24.7450 H   0  0  0  0  0  0  0  0  0  0  0  0
  -23.9380  -36.6020   22.9730 C   0  0  0  0  0  1  0  0  0  0  0  0
  -25.1430  -36.1340   23.8040 C   0  0  0  0  0  3  0  0  0  0  0  0
  -27.2520  -36.9400   24.7690 C   0  0  0  0  0  1  0  0  0  0  0  0
  -26.1880  -37.1810   23.7990 N   0  0  0  0  0  0  0  0  0  0  0  0
  -25.7840  -38.0930   23.9920 H   0  0  0  0  0  0  0  0  0  0  0  0
  -26.1210  -31.4630   24.7680 C   0  0  1  0  0  0  0  0  0  0  0  0
  -25.0530  -31.1730   25.8490 C   0  0  0  0  0  1  0  0  0  0  0  0
  -26.6880  -30.1050   24.2900 C   0  0  0  0  0  1  0  0  0  0  0  0
  -27.2900  -32.2170   25.4440 C   0  0  0  0  0  1  0  0  0  0  0  0
  -32.6070  -24.0550   20.3250 C   0  0  0  0  0  2  0  0  0  0  0  0
  -32.2430  -22.6560   19.7540 C   0  0  0  0  0  2  0  0  0  0  0  0
  -31.6170  -21.6550   20.7560 C   0  0  0  0  0  2  0  0  0  0  0  0
  -31.3440  -20.2530   20.1470 C   0  0  0  0  0  2  0  0  0  0  0  0
  -31.1810  -19.1290   21.1990 C   0  0  0  0  0  2  0  0  0  0  0  0
  -30.7320  -17.7550   20.6330 C   0  0  0  0  0  2  0  0  0  0  0  0
  -30.8350  -16.6160   21.6820 C   0  0  0  0  0  2  0  0  0  0  0  0
  -29.9840  -15.3330   21.4420 C   0  0  0  0  0  2  0  0  0  0  0  0
  -30.5070  -14.2970   20.4190 C   0  0  0  0  0  0  0  0  0  0  0  0
  -30.1490  -12.1980   19.1440 C   0  0  0  0  0  2  0  0  0  0  0  0
  -29.1210  -12.4070   18.0150 C   0  0  0  0  0  2  0  0  0  0  0  0
  -27.6830  -12.2170   18.5350 C   0  0  0  0  0  2  0  0  0  0  0  0
  -27.4110  -13.0130   19.8390 C   0  0  0  0  0  3  0  0  0  0  0  0
  -28.5400  -12.7830   20.8690 C   0  0  0  0  0  2  0  0  0  0  0  0
  -29.8240  -13.1320   20.2340 N   0  0  0  0  0  0  0  0  0  0  0  0
  -31.5230  -14.5680   19.7730 O   0  0  0  0  0  0  0  0  0  0  0  0
  -25.0500  -13.5500   20.7200 C   0  0  0  0  0  0  0  0  0  0  0  0
  -24.0190  -12.7460   21.1260 C   0  0  0  0  0  0  0  0  0  0  0  0
  -24.4970  -11.4050   21.0130 C   0  0  0  0  0  0  0  0  0  0  0  0
  -26.0930  -12.6970   20.3920 N   0  0  0  0  0  0  0  0  0  0  0  0
  -25.7650  -11.3990   20.6220 N   0  0  0  0  0  0  0  0  0  0  0  0
  -23.8020  -10.1240   21.2010 C   0  0  0  0  0  0  0  0  0  0  0  0
  -24.2710   -9.1570   22.1170 C   0  0  0  0  0  3  0  0  0  0  0  0
  -23.5760   -7.9410   22.2930 C   0  0  0  0  0  3  0  0  0  0  0  0
  -22.3970   -7.6820   21.5520 C   0  0  0  0  0  0  0  0  0  0  0  0
  -21.9480   -8.6390   20.6240 C   0  0  0  0  0  3  0  0  0  0  0  0
  -22.6450   -9.8460   20.4470 C   0  0  0  0  0  3  0  0  0  0  0  0
  -21.6720   -6.5180   21.6370 O   0  0  0  0  0  0  0  0  0  0  0  0
  -21.6200   -5.7870   22.7970 C   0  0  0  0  0  0  0  0  0  0  0  0
  -21.1390   -6.3390   24.0040 C   0  0  0  0  0  3  0  0  0  0  0  0
  -21.0360   -5.5320   25.1550 C   0  0  0  0  0  3  0  0  0  0  0  0
  -21.4030   -4.1740   25.1000 C   0  0  0  0  0  0  0  0  0  0  0  0
  -21.8770   -3.6220   23.8970 C   0  0  0  0  0  3  0  0  0  0  0  0
  -21.9820   -4.4270   22.7490 C   0  0  0  0  0  0  0  0  0  0  0  0
  -22.4180   -3.8830   21.5860 F   0  0  0  0  0  0  0  0  0  0  0  0
  -21.2980   -3.3960   26.2020 F   0  0  0  0  0  0  0  0  0  0  0  0
  -22.6340  -13.1870   21.5070 C   0  0  0  0  0  0  0  0  0  0  0  0
  -21.9740  -12.4440   22.3870 N   0  0  0  0  0  0  0  0  0  0  0  0
  -22.1480  -14.2260   21.0590 O   0  0  0  0  0  0  0  0  0  0  0  0
  -22.3810  -11.6040   22.7720 H   0  0  0  0  0  0  0  0  0  0  0  0
  -21.0490  -12.7210   22.6830 H   0  0  0  0  0  0  0  0  0  0  0  0
  -25.1830  -14.9290   20.5850 N   0  0  0  0  0  0  0  0  0  0  0  0
  -24.4190  -15.5700   20.7700 H   0  0  0  0  0  0  0  0  0  0  0  0
  -26.0120  -15.3920   20.2350 H   0  0  0  0  0  0  0  0  0  0  0  0
  1  4  1  0
  2  3  1  0
  2  7  1  0
  3 10  1  0
  4 54  1  0
  4  3  2  0
  5  1  2  0
  5  6  1  0
  6  2  2  0
  7 12  2  0
  7  8  1  0
  8  9  2  0
 10  8  1  0
 11  5  1  0
 13 15  1  0
 13  6  1  0
 14 25  2  0
 15 20  1  0
 16 24  1  0
 16 26  1  0
 17 23  1  0
 17 19  1  0
 18 24  1  0
 19 18  1  0
 20 19  2  0
 21 22  1  0
 21 15  2  0
 22 17  2  0
 23 16  1  0
 24 14  1  0
 26 28  2  0
 27 26  1  0
 29 27  1  0
 30 39  2  0
 30 35  1  0
 31 27  1  0
 31 35  1  0
 32 31  1  0
 33 34  1  0
 33 32  1  0
 34 30  1  0
 35 36  2  0
 36 37  1  0
 38 37  2  0
 39 38  1  0
 40 14  1  0
 40 41  1  0
 40 50  1  0
 41 44  1  0
 42 46  1  0
 42 41  1  0
 43 42  2  0
 46 45  1  0
 48 46  1  0
 48 49  1  0
 48 47  1  0
 50 53  1  1
 50 51  1  0
 52 50  1  0
 55 54  1  0
 55 56  1  0
 57 56  1  0
 57 58  1  0
 59 58  1  0
 59 60  1  0
 61 60  1  0
 62 61  1  0
 63 68  1  0
 64 65  1  0
 64 63  1  0
 66 65  1  0
 66 73  1  0
 66 67  1  0
 68 62  1  0
 68 67  1  0
 69 62  2  0
 70 71  2  0
 71 90  1  0
 72 71  1  0
 72 75  1  0
 73 74  1  0
 73 70  1  0
 74 72  2  0
 75 76  1  0
 76 77  2  0
 78 81  1  0
 78 77  1  0
 79 78  2  0
 80 79  1  0
 80 75  2  0
 81 82  1  0
 82 83  1  0
 83 84  2  0
 85 84  1  0
 85 89  1  0
 86 85  2  0
 87 82  2  0
 87 86  1  0
 88 87  1  0
 90 91  1  0
 91 94  1  0
 91 93  1  0
 92 90  2  0
 95 70  1  0
 95 96  1  0
 97 95  1  0
M  ISO  4   6 101  13 101  61 100  62 100
M  END
>  <TORSDO>  (22) 
F 24

>  <SCORE>  (22) 
-10.592

>  <name>  (22) 
21

>  <ligand_id>  (22) 
21

>  <original_smiles>  (22) 
[H]C([H])=C1C(=O)c2c(Oc3c([H])c([H])c4c(c3[H])C([H])([H])N(C(=O)C([H])(N([H])C(=O)C([H])(N([H])C([H])([H])[H])C([H])([H])[H])C(C([H])([H])[H])(C([H])([H])[H])C([H])([H])[H])C([H])(C(=O)N([H])C3([H])c5c([H])c([H])c([H])c([H])c5C([H])([H])C([H])([H])C3([H])[H])C4([H])[H])c(C([H])([H])[H])c([H])c(C([H])([H])C([H])([H])C([H])([H])C([H])([H])C([H])([H])C([H])([H])C([H])([H])C([H])([H])C(=O)N3C([H])([H])C([H])([H])C([H])([H])C([H])(n4nc(-c5c([H])c([H])c(Oc6c([H])c([H])c(F)c([H])c6F)c([H])c5[H])c(C(=O)N([H])[H])c4N([H])[H])C3([H])[H])c2C1([H])[H]

>  <smiles>  (22) 
[H]C([H])=C1C(=O)c2c(Oc3c([H])c([H])c4c(c3[H])C([H])([H])N(C(=O)C([H])(N([H])C(=O)C([H])(N([H])C([H])([H])[H])C([H])([H])[H])C(C([H])([H])[H])(C([H])([H])[H])C([H])([H])[H])C([H])(C(=O)N([H])C3([H])c5c([H])c([H])c([H])c([H])c5C([H])([H])C([H])([H])C3([H])[H])C4([H])[H])c(C([H])([H])[H])c([H])c(C([H])([H])C([H])([H])C([H])([H])C([H])([H])C([H])([H])C([H])([H])C([H])([H])C([H])([H])C(=O)N3C([H])([H])C([H])([H])C([H])([H])C([H])(n4nc(-c5c([H])c([H])c(Oc6c([H])c([H])c(F)c([H])c6F)c([H])c5[H])c(C(=O)N([H])[H])c4N([H])[H])C3([H])[H])c2C1([H])[H]

$$$$
22:0:0
     RDKit          3D

 92101  0  0  1  0  0  0  0  0999 V2000
  -27.7480  -22.7980   21.0230 C   0  0  0  0  0  3  0  0  0  0  0  0
  -27.5970  -24.2290   20.9780 C   0  0  0  0  0  3  0  0  0  0  0  0
  -29.4640  -22.9080   19.3760 C   0  0  0  0  0  3  0  0  0  0  0  0
  -28.6880  -22.0720   20.2260 C   0  0  0  0  0  0  0  0  0  0  0  0
  -29.3200  -24.3410   19.3290 C   0  0  0  0  0  0  0  0  0  0  0  0
  -28.3730  -25.0640   20.1240 C   0  0  0  0  0  0  0  0  0  0  0  0
  -30.2260  -25.1180   18.3920 C   0  0  0  0  0  1  0  0  0  0  0  0
  -29.8370  -19.8350   21.2590 C   0  0  0  0  0  2  0  0  0  0  0  0
  -29.0350  -19.6880   18.9400 C   0  0  0  0  0  2  0  0  0  0  0  0
  -29.7940  -18.2500   21.3820 C   0  0  0  0  0  2  0  0  0  0  0  0
  -28.9870  -18.1030   19.0480 C   0  0  0  0  0  2  0  0  0  0  0  0
  -28.7950  -20.4670   20.2780 C   0  0  0  0  0  3  0  0  0  0  0  0
  -29.9780  -17.4230   20.0590 C   0  0  0  0  0  3  0  0  0  0  0  0
  -30.5830  -14.8170   19.9390 C   0  0  0  0  0  0  0  0  0  0  0  0
  -30.3780  -12.5330   18.9440 C   0  0  0  0  0  2  0  0  0  0  0  0
  -29.3630  -12.5940   17.7810 C   0  0  0  0  0  2  0  0  0  0  0  0
  -27.9250  -12.4020   18.3020 C   0  0  0  0  0  2  0  0  0  0  0  0
  -27.6170  -13.2820   19.5420 C   0  0  0  0  0  3  0  0  0  0  0  0
  -28.7430  -13.1960   20.5950 C   0  0  0  0  0  2  0  0  0  0  0  0
  -29.9950  -13.5720   19.9260 N   0  0  0  0  0  0  0  0  0  0  0  0
  -31.7360  -14.9590   19.5190 O   0  0  0  0  0  0  0  0  0  0  0  0
  -29.7760  -15.9090   20.2250 N   0  0  0  0  0  0  0  0  0  0  0  0
  -28.8540  -15.6440   20.5390 H   0  0  0  0  0  0  0  0  0  0  0  0
  -25.2900  -13.8520   20.4610 C   0  0  0  0  0  0  0  0  0  0  0  0
  -24.2490  -13.0670   20.8770 C   0  0  0  0  0  0  0  0  0  0  0  0
  -24.7020  -11.7160   20.7600 C   0  0  0  0  0  0  0  0  0  0  0  0
  -26.3090  -12.9790   20.1150 N   0  0  0  0  0  0  0  0  0  0  0  0
  -25.9660  -11.6880   20.3580 N   0  0  0  0  0  0  0  0  0  0  0  0
  -23.9850  -10.4490   20.9540 C   0  0  0  0  0  0  0  0  0  0  0  0
  -24.4290   -9.4830   21.8810 C   0  0  0  0  0  3  0  0  0  0  0  0
  -23.7110   -8.2800   22.0610 C   0  0  0  0  0  3  0  0  0  0  0  0
  -22.5350   -8.0380   21.3130 C   0  0  0  0  0  0  0  0  0  0  0  0
  -22.1100   -8.9930   20.3740 C   0  0  0  0  0  3  0  0  0  0  0  0
  -22.8280  -10.1870   20.1920 C   0  0  0  0  0  3  0  0  0  0  0  0
  -21.7870   -6.8880   21.4050 O   0  0  0  0  0  0  0  0  0  0  0  0
  -21.6830   -6.1890   22.5800 C   0  0  0  0  0  0  0  0  0  0  0  0
  -21.1590   -6.7750   23.7530 C   0  0  0  0  0  3  0  0  0  0  0  0
  -21.0050   -5.9990   24.9190 C   0  0  0  0  0  3  0  0  0  0  0  0
  -21.3640   -4.6380   24.9130 C   0  0  0  0  0  0  0  0  0  0  0  0
  -21.8800   -4.0510   23.7440 C   0  0  0  0  0  3  0  0  0  0  0  0
  -22.0350   -4.8240   22.5800 C   0  0  0  0  0  0  0  0  0  0  0  0
  -22.5130   -4.2480   21.4500 F   0  0  0  0  0  0  0  0  0  0  0  0
  -21.2090   -3.8900   26.0290 F   0  0  0  0  0  0  0  0  0  0  0  0
  -22.8770  -13.5370   21.2650 C   0  0  0  0  0  0  0  0  0  0  0  0
  -22.2130  -12.8160   22.1610 N   0  0  0  0  0  0  0  0  0  0  0  0
  -22.4050  -14.5770   20.8080 O   0  0  0  0  0  0  0  0  0  0  0  0
  -22.6100  -11.9740   22.5520 H   0  0  0  0  0  0  0  0  0  0  0  0
  -21.2950  -13.1110   22.4620 H   0  0  0  0  0  0  0  0  0  0  0  0
  -25.4470  -15.2280   20.3240 N   0  0  0  0  0  0  0  0  0  0  0  0
  -24.6920  -15.8770   20.5180 H   0  0  0  0  0  0  0  0  0  0  0  0
  -26.2600  -15.6790   19.9240 H   0  0  0  0  0  0  0  0  0  0  0  0
  -28.3450  -26.5000   20.1110 O   0  0  0  0  0  0  0  0  0  0  0  0
  -24.6410  -31.9190   23.2310 C   0  0  0  0  0  0  0  0  0  0  0  0
  -27.2020  -27.3270   20.1390 C   0  0  0  0  0  0  0  0  0  0  0  0
  -23.4130  -30.5270   21.6010 C   0  0  0  0  0  3  0  0  0  0  0  0
  -24.8420  -28.9650   20.1560 C   0  0  0  0  0  0  0  0  0  0  0  0
  -25.9510  -30.8300   21.3900 C   0  0  0  0  0  2  0  0  0  0  0  0
  -26.0180  -29.4470   20.7440 C   0  0  0  0  0  0  0  0  0  0  0  0
  -27.1990  -28.6380   20.7250 C   0  0  0  0  0  3  0  0  0  0  0  0
  -26.0050  -26.9050   19.5250 C   0  0  0  0  0  3  0  0  0  0  0  0
  -24.8390  -27.7010   19.5390 C   0  0  0  0  0  3  0  0  0  0  0  0
  -23.6090  -29.8480   20.2190 C   0  0  0  0  0  2  0  0  0  0  0  0
  -24.6890  -31.1120   22.1290 N   0  0  0  0  0  0  0  0  0  0  0  0
  -23.5650  -32.1990   23.7800 O   0  0  0  0  0  0  0  0  0  0  0  0
  -22.7570  -29.5140   22.5700 C   0  0  0  0  0  0  0  0  0  0  0  0
  -21.4320  -29.3290   22.4480 N   0  0  0  0  0  0  0  0  0  0  0  0
  -23.4420  -28.8940   23.3890 O   0  0  0  0  0  0  0  0  0  0  0  0
  -20.9380  -29.8810   21.7600 H   0  0  0  0  0  0  0  0  0  0  0  0
  -18.0640  -28.1120   22.9620 C   0  0  0  0  0  0  0  0  0  0  0  0
  -20.6210  -28.3900   23.2240 C   0  0  0  0  0  3  0  0  0  0  0  0
  -20.7310  -26.9570   22.6530 C   0  0  0  0  0  2  0  0  0  0  0  0
  -19.6290  -26.6240   21.6410 C   0  0  0  0  0  2  0  0  0  0  0  0
  -18.2480  -26.7620   22.2890 C   0  0  0  0  0  2  0  0  0  0  0  0
  -19.1780  -28.8830   23.3870 C   0  0  0  0  0  0  0  0  0  0  0  0
  -18.9520  -30.1450   23.9770 C   0  0  0  0  0  3  0  0  0  0  0  0
  -17.6440  -30.6370   24.1450 C   0  0  0  0  0  3  0  0  0  0  0  0
  -16.5440  -29.8640   23.7360 C   0  0  0  0  0  3  0  0  0  0  0  0
  -16.7550  -28.6020   23.1510 C   0  0  0  0  0  3  0  0  0  0  0  0
  -25.9330  -32.5470   23.8400 C   0  0  0  0  0  3  0  0  0  0  0  0
  -25.6270  -33.9430   24.1900 N   0  0  0  0  0  0  0  0  0  0  0  0
  -25.9330  -35.0040   23.4310 C   0  0  0  0  0  0  0  0  0  0  0  0
  -26.5710  -34.9110   22.3790 O   0  0  0  0  0  0  0  0  0  0  0  0
  -25.0560  -34.0880   25.0090 H   0  0  0  0  0  0  0  0  0  0  0  0
  -24.1830  -36.7910   23.1520 C   0  0  0  0  0  1  0  0  0  0  0  0
  -25.4550  -36.3870   23.9140 C   0  0  0  0  0  3  0  0  0  0  0  0
  -27.6140  -37.2790   24.6750 C   0  0  0  0  0  1  0  0  0  0  0  0
  -26.4770  -37.4470   23.7740 N   0  0  0  0  0  0  0  0  0  0  0  0
  -26.0700  -38.3630   23.9470 H   0  0  0  0  0  0  0  0  0  0  0  0
  -26.4670  -31.7650   25.1040 C   0  0  1  0  0  0  0  0  0  0  0  0
  -25.3890  -31.5170   26.1840 C   0  0  0  0  0  1  0  0  0  0  0  0
  -27.0480  -30.3920   24.6940 C   0  0  0  0  0  1  0  0  0  0  0  0
  -27.6250  -32.5560   25.7580 C   0  0  0  0  0  1  0  0  0  0  0  0
  2  1  1  0
  3  4  1  0
  4  1  2  0
  5  3  2  0
  5  6  1  0
  6  2  2  0
  7  5  1  0
  8 10  1  0
  9 11  1  0
  9 12  1  0
 11 13  1  0
 12  4  1  0
 12  8  1  0
 13 22  1  0
 13 10  1  0
 14 22  1  0
 15 20  1  0
 16 17  1  0
 16 15  1  0
 18 17  1  0
 18 27  1  0
 18 19  1  0
 20 14  1  0
 20 19  1  0
 21 14  2  0
 22 23  1  0
 24 25  2  0
 25 44  1  0
 26 25  1  0
 26 29  1  0
 27 28  1  0
 27 24  1  0
 28 26  2  0
 29 30  1  0
 30 31  2  0
 32 35  1  0
 32 31  1  0
 33 32  2  0
 34 33  1  0
 34 29  2  0
 35 36  1  0
 36 41  2  0
 36 37  1  0
 37 38  2  0
 39 38  1  0
 39 43  1  0
 40 39  2  0
 41 40  1  0
 42 41  1  0
 44 45  1  0
 45 48  1  0
 45 47  1  0
 46 44  2  0
 49 24  1  0
 49 50  1  0
 51 49  1  0
 52  6  1  0
 52 54  1  0
 53 64  2  0
 54 59  1  0
 55 63  1  0
 55 65  1  0
 56 62  1  0
 56 58  1  0
 57 63  1  0
 58 57  1  0
 59 58  2  0
 60 61  1  0
 60 54  2  0
 61 56  2  0
 62 55  1  0
 63 53  1  0
 65 67  2  0
 66 65  1  0
 68 66  1  0
 69 78  2  0
 69 74  1  0
 70 66  1  0
 70 74  1  0
 71 70  1  0
 72 73  1  0
 72 71  1  0
 73 69  1  0
 74 75  2  0
 75 76  1  0
 77 76  2  0
 78 77  1  0
 79 53  1  0
 79 80  1  0
 79 89  1  0
 80 83  1  0
 81 85  1  0
 81 80  1  0
 82 81  2  0
 85 84  1  0
 87 85  1  0
 87 88  1  0
 87 86  1  0
 89 92  1  1
 89 90  1  0
 91 89  1  0
M  ISO  4   6 101  14 100  22 100  52 101
M  END
>  <TORSDO>  (23) 
F 17

>  <SCORE>  (23) 
-14.828

>  <name>  (23) 
22

>  <ligand_id>  (23) 
22

>  <original_smiles>  (23) 
[H]c1c([H])c([H])c2c(c1[H])C([H])([H])C([H])([H])C([H])([H])C2([H])N([H])C(=O)C1([H])N(C(=O)C([H])(N([H])C(=O)C([H])(N([H])C([H])([H])[H])C([H])([H])[H])C(C([H])([H])[H])(C([H])([H])[H])C([H])([H])[H])C([H])([H])c2c([H])c(Oc3c([H])c([H])c(C4([H])C([H])([H])C([H])([H])C([H])(N([H])C(=O)N5C([H])([H])C([H])([H])C([H])([H])C([H])(n6nc(-c7c([H])c([H])c(Oc8c([H])c([H])c(F)c([H])c8F)c([H])c7[H])c(C(=O)N([H])[H])c6N([H])[H])C5([H])[H])C([H])([H])C4([H])[H])c([H])c3C([H])([H])[H])c([H])c([H])c2C1([H])[H]

>  <smiles>  (23) 
[H]c1c([H])c([H])c2c(c1[H])C([H])([H])C([H])([H])C([H])([H])C2([H])N([H])C(=O)C1([H])N(C(=O)C([H])(N([H])C(=O)C([H])(N([H])C([H])([H])[H])C([H])([H])[H])C(C([H])([H])[H])(C([H])([H])[H])C([H])([H])[H])C([H])([H])c2c([H])c(Oc3c([H])c([H])c(C4([H])C([H])([H])C([H])([H])C([H])(N([H])C(=O)N5C([H])([H])C([H])([H])C([H])([H])C([H])(n6nc(-c7c([H])c([H])c(Oc8c([H])c([H])c(F)c([H])c8F)c([H])c7[H])c(C(=O)N([H])[H])c6N([H])[H])C5([H])[H])C([H])([H])C4([H])[H])c([H])c3C([H])([H])[H])c([H])c([H])c2C1([H])[H]

$$$$
23:0:0
     RDKit          3D

 92101  0  0  1  0  0  0  0  0999 V2000
  -30.6910  -14.6550   20.4360 C   0  0  0  0  0  0  0  0  0  0  0  0
  -30.4440  -12.4000   19.4490 C   0  0  0  0  0  2  0  0  0  0  0  0
  -29.5290  -12.4620   18.2050 C   0  0  0  0  0  2  0  0  0  0  0  0
  -28.0390  -12.3930   18.5980 C   0  0  0  0  0  2  0  0  0  0  0  0
  -27.6650  -13.2930   19.8070 C   0  0  0  0  0  3  0  0  0  0  0  0
  -28.7000  -13.1960   20.9480 C   0  0  0  0  0  2  0  0  0  0  0  0
  -30.0210  -13.4670   20.3700 N   0  0  0  0  0  0  0  0  0  0  0  0
  -31.9070  -14.7290   20.2520 O   0  0  0  0  0  0  0  0  0  0  0  0
  -30.1090  -19.8630   18.6600 C   0  0  0  0  0  3  0  0  0  0  0  0
  -29.1690  -19.4650   21.2710 C   0  0  0  0  0  3  0  0  0  0  0  0
  -30.1670  -18.5810   19.2450 C   0  0  0  0  0  0  0  0  0  0  0  0
  -29.7330  -18.3610   20.5640 C   0  0  0  0  0  0  0  0  0  0  0  0
  -29.5310  -20.9470   19.3530 C   0  0  0  0  0  0  0  0  0  0  0  0
  -29.0200  -20.7530   20.6640 C   0  0  0  0  0  0  0  0  0  0  0  0
  -30.6120  -17.3910   18.4350 C   0  0  0  0  0  2  0  0  0  0  0  0
  -29.8660  -16.9310   21.1730 C   0  0  0  0  0  2  0  0  0  0  0  0
  -29.7590  -16.1680   18.8120 C   0  0  0  0  0  2  0  0  0  0  0  0
  -29.4240  -22.2810   18.6240 C   0  0  0  0  0  1  0  0  0  0  0  0
  -29.9230  -15.7710   20.2240 N   0  0  0  0  0  0  0  0  0  0  0  0
  -25.2580  -13.9220   20.4530 C   0  0  0  0  0  0  0  0  0  0  0  0
  -24.1780  -13.1610   20.8130 C   0  0  0  0  0  0  0  0  0  0  0  0
  -24.6330  -11.8090   20.8260 C   0  0  0  0  0  0  0  0  0  0  0  0
  -26.3060  -13.0310   20.2720 N   0  0  0  0  0  0  0  0  0  0  0  0
  -25.9340  -11.7570   20.5580 N   0  0  0  0  0  0  0  0  0  0  0  0
  -23.8950  -10.5530   21.0160 C   0  0  0  0  0  0  0  0  0  0  0  0
  -24.3080   -9.5940   21.9660 C   0  0  0  0  0  3  0  0  0  0  0  0
  -23.5790   -8.3980   22.1460 C   0  0  0  0  0  3  0  0  0  0  0  0
  -22.4160   -8.1570   21.3730 C   0  0  0  0  0  0  0  0  0  0  0  0
  -22.0210   -9.1040   20.4130 C   0  0  0  0  0  3  0  0  0  0  0  0
  -22.7520  -10.2900   20.2320 C   0  0  0  0  0  3  0  0  0  0  0  0
  -21.6520   -7.0190   21.4660 O   0  0  0  0  0  0  0  0  0  0  0  0
  -21.5900   -6.2850   22.6240 C   0  0  0  0  0  0  0  0  0  0  0  0
  -21.1720   -6.8560   23.8460 C   0  0  0  0  0  3  0  0  0  0  0  0
  -21.0550   -6.0480   24.9940 C   0  0  0  0  0  3  0  0  0  0  0  0
  -21.3480   -4.6740   24.9220 C   0  0  0  0  0  0  0  0  0  0  0  0
  -21.7560   -4.1030   23.7040 C   0  0  0  0  0  3  0  0  0  0  0  0
  -21.8740   -4.9060   22.5570 C   0  0  0  0  0  0  0  0  0  0  0  0
  -22.2500   -4.3450   21.3810 F   0  0  0  0  0  0  0  0  0  0  0  0
  -21.2240   -3.8990   26.0250 F   0  0  0  0  0  0  0  0  0  0  0  0
  -22.7740  -13.6480   21.0390 C   0  0  0  0  0  0  0  0  0  0  0  0
  -22.0180  -12.9760   21.8980 N   0  0  0  0  0  0  0  0  0  0  0  0
  -22.3540  -14.6650   20.4860 O   0  0  0  0  0  0  0  0  0  0  0  0
  -22.3650  -12.1540   22.3720 H   0  0  0  0  0  0  0  0  0  0  0  0
  -21.0760  -13.2920   22.0930 H   0  0  0  0  0  0  0  0  0  0  0  0
  -25.4380  -15.2850   20.2490 N   0  0  0  0  0  0  0  0  0  0  0  0
  -24.6880  -15.9570   20.3640 H   0  0  0  0  0  0  0  0  0  0  0  0
  -26.3190  -15.7130   19.9860 H   0  0  0  0  0  0  0  0  0  0  0  0
  -28.1850  -21.8570   21.3580 C   0  0  0  0  0  2  0  0  0  0  0  0
  -28.8350  -23.2570   21.6120 C   0  0  0  0  0  2  0  0  0  0  0  0
  -28.0310  -24.4850   21.0520 C   0  0  0  0  0  2  0  0  0  0  0  0
  -28.7600  -25.8520   21.1800 C   0  0  0  0  0  2  0  0  0  0  0  0
  -28.4880  -26.7810   20.1150 O   0  0  0  0  0  0  0  0  0  0  0  0
  -24.6220  -31.9130   23.2380 C   0  0  0  0  0  0  0  0  0  0  0  0
  -27.3170  -27.4990   20.1810 C   0  0  0  0  0  0  0  0  0  0  0  0
  -23.4350  -30.5070   21.5830 C   0  0  0  0  0  3  0  0  0  0  0  0
  -24.9090  -28.9820   20.1650 C   0  0  0  0  0  0  0  0  0  0  0  0
  -25.9570  -30.8880   21.4010 C   0  0  0  0  0  2  0  0  0  0  0  0
  -26.0570  -29.5170   20.7650 C   0  0  0  0  0  0  0  0  0  0  0  0
  -27.2660  -28.7810   20.7730 C   0  0  0  0  0  3  0  0  0  0  0  0
  -26.1600  -26.9800   19.5640 C   0  0  0  0  0  3  0  0  0  0  0  0
  -24.9580  -27.7130   19.5590 C   0  0  0  0  0  3  0  0  0  0  0  0
  -23.6590  -29.8330   20.2030 C   0  0  0  0  0  2  0  0  0  0  0  0
  -24.6880  -31.1200   22.1310 N   0  0  0  0  0  0  0  0  0  0  0  0
  -23.5370  -32.1700   23.7790 O   0  0  0  0  0  0  0  0  0  0  0  0
  -22.7900  -29.4770   22.5370 C   0  0  0  0  0  0  0  0  0  0  0  0
  -21.4650  -29.2920   22.4170 N   0  0  0  0  0  0  0  0  0  0  0  0
  -23.4790  -28.8440   23.3430 O   0  0  0  0  0  0  0  0  0  0  0  0
  -20.9720  -29.8570   21.7400 H   0  0  0  0  0  0  0  0  0  0  0  0
  -18.0960  -28.0900   22.9250 C   0  0  0  0  0  0  0  0  0  0  0  0
  -20.6560  -28.3460   23.1830 C   0  0  0  0  0  3  0  0  0  0  0  0
  -20.7550  -26.9220   22.5880 C   0  0  0  0  0  2  0  0  0  0  0  0
  -19.6460  -26.6090   21.5780 C   0  0  0  0  0  2  0  0  0  0  0  0
  -18.2680  -26.7480   22.2330 C   0  0  0  0  0  2  0  0  0  0  0  0
  -19.2170  -28.8470   23.3580 C   0  0  0  0  0  0  0  0  0  0  0  0
  -19.0040  -30.1020   23.9630 C   0  0  0  0  0  3  0  0  0  0  0  0
  -17.7000  -30.6030   24.1430 C   0  0  0  0  0  3  0  0  0  0  0  0
  -16.5930  -29.8430   23.7280 C   0  0  0  0  0  3  0  0  0  0  0  0
  -16.7910  -28.5900   23.1230 C   0  0  0  0  0  3  0  0  0  0  0  0
  -25.9010  -32.5510   23.8650 C   0  0  0  0  0  3  0  0  0  0  0  0
  -26.4230  -31.7800   25.1410 C   0  0  1  0  0  0  0  0  0  0  0  0
  -25.3320  -31.5350   26.2090 C   0  0  0  0  0  1  0  0  0  0  0  0
  -27.0140  -30.4060   24.7460 C   0  0  0  0  0  1  0  0  0  0  0  0
  -27.5680  -32.5810   25.8040 C   0  0  0  0  0  1  0  0  0  0  0  0
  -25.5830  -33.9460   24.1940 N   0  0  0  0  0  0  0  0  0  0  0  0
  -25.9060  -34.9990   23.4320 C   0  0  0  0  0  0  0  0  0  0  0  0
  -26.5730  -34.9010   22.3990 O   0  0  0  0  0  0  0  0  0  0  0  0
  -24.9920  -34.0970   24.9990 H   0  0  0  0  0  0  0  0  0  0  0  0
  -24.1560  -36.7710   23.0770 C   0  0  0  0  0  1  0  0  0  0  0  0
  -25.4050  -36.3840   23.8860 C   0  0  0  0  0  3  0  0  0  0  0  0
  -27.5370  -37.2890   24.7010 C   0  0  0  0  0  1  0  0  0  0  0  0
  -26.4250  -37.4480   23.7680 N   0  0  0  0  0  0  0  0  0  0  0  0
  -26.0090  -38.3630   23.9240 H   0  0  0  0  0  0  0  0  0  0  0  0
  2  7  1  0
  3  4  1  0
  3  2  1  0
  5  4  1  0
  5 23  1  0
  5  6  1  0
  7  1  1  0
  7  6  1  0
  8  1  2  0
  9 11  2  0
  9 13  1  0
 11 12  1  0
 12 16  1  0
 12 10  2  0
 13 14  2  0
 14 10  1  0
 14 48  1  0
 15 17  1  0
 15 11  1  0
 17 19  1  0
 18 13  1  0
 19  1  1  0
 19 16  1  0
 20 21  2  0
 21 22  1  0
 21 40  1  0
 22 25  1  0
 23 20  1  0
 23 24  1  0
 24 22  2  0
 25 26  1  0
 26 27  2  0
 28 31  1  0
 28 27  1  0
 29 28  2  0
 30 29  1  0
 30 25  2  0
 31 32  1  0
 32 33  1  0
 33 34  2  0
 35 34  1  0
 35 39  1  0
 36 35  2  0
 37 32  2  0
 37 36  1  0
 38 37  1  0
 40 41  1  0
 41 44  1  0
 41 43  1  0
 42 40  2  0
 45 46  1  0
 45 20  1  0
 47 45  1  0
 48 49  1  0
 50 51  1  0
 50 49  1  0
 52 54  1  0
 52 51  1  0
 53 64  2  0
 54 59  1  0
 55 63  1  0
 55 65  1  0
 56 62  1  0
 56 58  1  0
 57 63  1  0
 58 59  2  0
 58 57  1  0
 60 54  2  0
 61 60  1  0
 61 56  2  0
 62 55  1  0
 63 53  1  0
 65 67  2  0
 66 65  1  0
 68 66  1  0
 69 78  2  0
 69 74  1  0
 70 66  1  0
 70 74  1  0
 71 70  1  0
 72 73  1  0
 72 71  1  0
 73 69  1  0
 74 75  2  0
 75 76  1  0
 77 76  2  0
 78 77  1  0
 79 53  1  0
 79 84  1  0
 79 80  1  0
 80 83  1  1
 80 81  1  0
 82 80  1  0
 84 87  1  0
 85 89  1  0
 85 84  1  0
 86 85  2  0
 89 88  1  0
 91 89  1  0
 91 92  1  0
 91 90  1  0
M  ISO  4   1 100  19 100  51 101  52 101
M  END
>  <TORSDO>  (24) 
F 19

>  <SCORE>  (24) 
-13.987

>  <name>  (24) 
23

>  <ligand_id>  (24) 
23

>  <original_smiles>  (24) 
[H]c1c([H])c([H])c2c(c1[H])C([H])([H])C([H])([H])C([H])([H])C2([H])N([H])C(=O)C1([H])N(C(=O)C([H])(N([H])C(=O)C([H])(N([H])C([H])([H])[H])C([H])([H])[H])C(C([H])([H])[H])(C([H])([H])[H])C([H])([H])[H])C([H])([H])c2c([H])c(OC([H])([H])C([H])([H])C([H])([H])C([H])([H])c3c([H])c4c(c([H])c3C([H])([H])[H])C([H])([H])C([H])([H])N(C(=O)N3C([H])([H])C([H])([H])C([H])([H])C([H])(n5nc(-c6c([H])c([H])c(Oc7c([H])c([H])c(F)c([H])c7F)c([H])c6[H])c(C(=O)N([H])[H])c5N([H])[H])C3([H])[H])C4([H])[H])c([H])c([H])c2C1([H])[H]

>  <smiles>  (24) 
[H]c1c([H])c([H])c2c(c1[H])C([H])([H])C([H])([H])C([H])([H])C2([H])N([H])C(=O)C1([H])N(C(=O)C([H])(N([H])C(=O)C([H])(N([H])C([H])([H])[H])C([H])([H])[H])C(C([H])([H])[H])(C([H])([H])[H])C([H])([H])[H])C([H])([H])c2c([H])c(OC([H])([H])C([H])([H])C([H])([H])C([H])([H])c3c([H])c4c(c([H])c3C([H])([H])[H])C([H])([H])C([H])([H])N(C(=O)N3C([H])([H])C([H])([H])C([H])([H])C([H])(n5nc(-c6c([H])c([H])c(Oc7c([H])c([H])c(F)c([H])c7F)c([H])c6[H])c(C(=O)N([H])[H])c5N([H])[H])C3([H])[H])C4([H])[H])c([H])c([H])c2C1([H])[H]

$$$$
24:0:0
     RDKit          3D

 95105  0  0  1  0  0  0  0  0999 V2000
  -30.0540  -17.5350   19.6190 C   0  0  0  0  0  0  0  0  0  0  0  0
  -29.8210  -20.4440   18.5830 C   0  0  0  0  0  0  0  0  0  0  0  0
  -30.2780  -19.3350   17.8220 C   0  0  0  0  0  0  0  0  0  0  0  0
  -29.3200  -20.4110   19.8960 C   0  0  0  0  0  0  0  0  0  0  0  0
  -30.3690  -17.9750   18.2830 C   0  0  0  0  0  0  0  0  0  0  0  0
  -29.4960  -18.8640   20.3680 C   0  0  0  0  0  0  0  0  0  0  0  0
  -30.6510  -19.8890   16.4530 C   0  0  0  0  0  2  0  0  0  0  0  0
  -28.4960  -22.0540   20.2860 C   0  0  0  0  0  2  0  0  0  0  0  0
  -30.1020  -21.3080   16.3680 C   0  0  0  0  0  2  0  0  0  0  0  0
  -31.1520  -22.6020   18.3140 C   0  0  0  0  0  2  0  0  0  0  0  0
  -30.3310  -24.0440   20.3490 C   0  0  0  0  0  2  0  0  0  0  0  0
  -29.9410  -21.7630   17.8170 C   0  0  0  0  0  3  0  0  0  0  0  0
  -28.8020  -23.9610   20.5160 C   0  0  0  0  0  3  0  0  0  0  0  0
  -30.8320  -24.0100   18.8830 C   0  0  0  0  0  3  0  0  0  0  0  0
  -30.8880  -16.9540   17.2660 C   0  0  0  0  0  1  0  0  0  0  0  0
  -29.0290  -18.6150   21.7850 C   0  0  0  0  0  1  0  0  0  0  0  0
  -30.5880  -15.8490   19.9560 C   0  0  0  0  0  0  0  0  0  0  0  0
  -30.6050  -13.3190   19.0820 C   0  0  0  0  0  2  0  0  0  0  0  0
  -29.6630  -12.8890   17.9230 C   0  0  0  0  0  2  0  0  0  0  0  0
  -28.2670  -12.5280   18.4490 C   0  0  0  0  0  2  0  0  0  0  0  0
  -27.7990  -13.5300   19.5290 C   0  0  0  0  0  3  0  0  0  0  0  0
  -28.8800  -13.8760   20.5770 C   0  0  0  0  0  2  0  0  0  0  0  0
  -30.0070  -14.5070   19.8470 N   0  0  0  0  0  0  0  0  0  0  0  0
  -31.8220  -15.6710   19.9080 O   0  0  0  0  0  0  0  0  0  0  0  0
  -25.5000  -14.0400   20.4700 C   0  0  0  0  0  0  0  0  0  0  0  0
  -24.4540  -13.2520   20.8570 C   0  0  0  0  0  0  0  0  0  0  0  0
  -24.9090  -11.9010   20.7390 C   0  0  0  0  0  0  0  0  0  0  0  0
  -26.5180  -13.1740   20.1230 N   0  0  0  0  0  0  0  0  0  0  0  0
  -26.1830  -11.8760   20.3530 N   0  0  0  0  0  0  0  0  0  0  0  0
  -24.1790  -10.6360   20.9080 C   0  0  0  0  0  0  0  0  0  0  0  0
  -24.5940   -9.6610   21.8420 C   0  0  0  0  0  3  0  0  0  0  0  0
  -23.8590   -8.4660   22.0030 C   0  0  0  0  0  3  0  0  0  0  0  0
  -22.6970   -8.2370   21.2290 C   0  0  0  0  0  0  0  0  0  0  0  0
  -22.3010   -9.2000   20.2850 C   0  0  0  0  0  3  0  0  0  0  0  0
  -23.0370  -10.3860   20.1220 C   0  0  0  0  0  3  0  0  0  0  0  0
  -21.9360   -7.0940   21.2990 O   0  0  0  0  0  0  0  0  0  0  0  0
  -21.7820   -6.4020   22.4740 C   0  0  0  0  0  0  0  0  0  0  0  0
  -21.1800   -6.9860   23.6100 C   0  0  0  0  0  3  0  0  0  0  0  0
  -20.9780   -6.2180   24.7740 C   0  0  0  0  0  3  0  0  0  0  0  0
  -21.3690   -4.8650   24.8010 C   0  0  0  0  0  0  0  0  0  0  0  0
  -21.9640   -4.2810   23.6700 C   0  0  0  0  0  3  0  0  0  0  0  0
  -22.1670   -5.0470   22.5080 C   0  0  0  0  0  0  0  0  0  0  0  0
  -22.7210   -4.4720   21.4140 F   0  0  0  0  0  0  0  0  0  0  0  0
  -21.1700   -4.1250   25.9160 F   0  0  0  0  0  0  0  0  0  0  0  0
  -23.0770  -13.7260   21.2170 C   0  0  0  0  0  0  0  0  0  0  0  0
  -22.3910  -13.0070   22.0970 N   0  0  0  0  0  0  0  0  0  0  0  0
  -22.6220  -14.7700   20.7520 O   0  0  0  0  0  0  0  0  0  0  0  0
  -22.7730  -12.1610   22.4940 H   0  0  0  0  0  0  0  0  0  0  0  0
  -21.4690  -13.3070   22.3800 H   0  0  0  0  0  0  0  0  0  0  0  0
  -25.6670  -15.4170   20.3490 N   0  0  0  0  0  0  0  0  0  0  0  0
  -24.9200  -16.0750   20.5430 H   0  0  0  0  0  0  0  0  0  0  0  0
  -26.5080  -15.8630   20.0070 H   0  0  0  0  0  0  0  0  0  0  0  0
  -32.0470  -24.7440   18.8390 O   0  0  0  0  0  0  0  0  0  0  0  0
  -32.6850  -24.2980   19.3890 H   0  0  0  0  0  0  0  0  0  0  0  0
  -28.4400  -25.6810   20.2020 O   0  0  0  0  0  0  0  0  0  0  0  0
  -24.7120  -31.8770   23.2150 C   0  0  0  0  0  0  0  0  0  0  0  0
  -27.3790  -26.8150   20.3090 C   0  0  0  0  0  0  0  0  0  0  0  0
  -23.5760  -30.4450   21.5730 C   0  0  0  0  0  3  0  0  0  0  0  0
  -25.0700  -28.8080   20.2060 C   0  0  0  0  0  0  0  0  0  0  0  0
  -26.1530  -30.6360   21.4830 C   0  0  0  0  0  2  0  0  0  0  0  0
  -26.2530  -29.1950   20.8470 C   0  0  0  0  0  0  0  0  0  0  0  0
  -27.3950  -28.2300   20.8540 C   0  0  0  0  0  3  0  0  0  0  0  0
  -26.1540  -26.6380   19.6180 C   0  0  0  0  0  3  0  0  0  0  0  0
  -25.0590  -27.5550   19.5690 C   0  0  0  0  0  3  0  0  0  0  0  0
  -23.8490  -29.7410   20.2140 C   0  0  0  0  0  2  0  0  0  0  0  0
  -24.8370  -31.0210   22.1430 N   0  0  0  0  0  0  0  0  0  0  0  0
  -23.6060  -32.1580   23.7080 O   0  0  0  0  0  0  0  0  0  0  0  0
  -22.8650  -29.4610   22.5410 C   0  0  0  0  0  0  0  0  0  0  0  0
  -21.5390  -29.2750   22.3970 N   0  0  0  0  0  0  0  0  0  0  0  0
  -23.5220  -28.8590   23.3940 O   0  0  0  0  0  0  0  0  0  0  0  0
  -21.0590  -29.8120   21.6870 H   0  0  0  0  0  0  0  0  0  0  0  0
  -18.1580  -28.0510   22.9290 C   0  0  0  0  0  0  0  0  0  0  0  0
  -20.7220  -28.3260   23.1630 C   0  0  0  0  0  3  0  0  0  0  0  0
  -20.8210  -26.9020   22.5680 C   0  0  0  0  0  2  0  0  0  0  0  0
  -19.7090  -26.5890   21.5610 C   0  0  0  0  0  2  0  0  0  0  0  0
  -18.3340  -26.7150   22.2240 C   0  0  0  0  0  2  0  0  0  0  0  0
  -19.2790  -28.8140   23.3550 C   0  0  0  0  0  0  0  0  0  0  0  0
  -19.0580  -30.0600   23.9790 C   0  0  0  0  0  3  0  0  0  0  0  0
  -17.7510  -30.5450   24.1780 C   0  0  0  0  0  3  0  0  0  0  0  0
  -16.6470  -29.7810   23.7640 C   0  0  0  0  0  3  0  0  0  0  0  0
  -16.8510  -28.5340   23.1460 C   0  0  0  0  0  3  0  0  0  0  0  0
  -25.9520  -32.5590   23.8700 C   0  0  0  0  0  3  0  0  0  0  0  0
  -25.6030  -33.9610   24.1700 N   0  0  0  0  0  0  0  0  0  0  0  0
  -25.9130  -35.0170   23.4050 C   0  0  0  0  0  0  0  0  0  0  0  0
  -26.5820  -34.9140   22.3740 O   0  0  0  0  0  0  0  0  0  0  0  0
  -25.0070  -34.1130   24.9710 H   0  0  0  0  0  0  0  0  0  0  0  0
  -24.1520  -36.7850   23.0500 C   0  0  0  0  0  1  0  0  0  0  0  0
  -25.4080  -36.4050   23.8520 C   0  0  0  0  0  3  0  0  0  0  0  0
  -27.5240  -37.3560   24.6600 C   0  0  0  0  0  1  0  0  0  0  0  0
  -26.4200  -37.4770   23.7130 N   0  0  0  0  0  0  0  0  0  0  0  0
  -25.9950  -38.3930   23.8370 H   0  0  0  0  0  0  0  0  0  0  0  0
  -26.4300  -31.8340   25.1890 C   0  0  1  0  0  0  0  0  0  0  0  0
  -25.3020  -31.6130   26.2250 C   0  0  0  0  0  1  0  0  0  0  0  0
  -27.0440  -30.4520   24.8720 C   0  0  0  0  0  1  0  0  0  0  0  0
  -27.5470  -32.6620   25.8660 C   0  0  0  0  0  1  0  0  0  0  0  0
  1 17  1  0
  1  6  1  0
  2  4  1  0
  3  5  1  0
  3  2  2  0
  4  8  1  0
  4  6  2  0
  5  1  2  0
  6 16  1  0
  7  3  1  0
  8 13  1  0
  9  7  1  0
 10 14  1  0
 11 13  1  0
 12  9  1  0
 12 10  1  0
 12  2  1  0
 13 55  1  0
 14 53  1  0
 14 11  1  0
 15  5  1  0
 18 23  1  0
 19 20  1  0
 19 18  1  0
 21 20  1  0
 21 28  1  0
 21 22  1  0
 23 17  1  0
 23 22  1  0
 24 17  2  0
 25 26  2  0
 26 45  1  0
 27 26  1  0
 27 30  1  0
 28 29  1  0
 28 25  1  0
 29 27  2  0
 30 31  1  0
 31 32  2  0
 33 36  1  0
 33 32  1  0
 34 33  2  0
 35 34  1  0
 35 30  2  0
 36 37  1  0
 37 42  2  0
 37 38  1  0
 38 39  2  0
 39 40  1  0
 40 44  1  0
 41 40  2  0
 42 41  1  0
 43 42  1  0
 45 46  1  0
 46 49  1  0
 46 48  1  0
 47 45  2  0
 50 25  1  0
 50 51  1  0
 52 50  1  0
 53 54  1  0
 55 57  1  0
 56 67  2  0
 57 62  1  0
 58 66  1  0
 58 68  1  0
 59 65  1  0
 59 61  1  0
 60 66  1  0
 61 62  2  0
 61 60  1  0
 63 57  2  0
 64 63  1  0
 64 59  2  0
 65 58  1  0
 66 56  1  0
 68 70  2  0
 69 68  1  0
 71 69  1  0
 72 81  2  0
 72 77  1  0
 73 69  1  0
 73 77  1  0
 74 73  1  0
 75 76  1  0
 75 74  1  0
 76 72  1  0
 77 78  2  0
 78 79  1  0
 80 79  2  0
 81 80  1  0
 82 56  1  0
 82 83  1  0
 82 92  1  0
 83 86  1  0
 84 88  1  0
 84 83  1  0
 85 84  2  0
 88 87  1  0
 90 91  1  0
 90 88  1  0
 90 89  1  0
 92 95  1  1
 92 93  1  0
 94 92  1  0
M  ISO  4   1 100  13 101  17 100  55 101
M  END
>  <TORSDO>  (25) 
F 17

>  <SCORE>  (25) 
-14.455

>  <name>  (25) 
24

>  <ligand_id>  (25) 
24

>  <original_smiles>  (25) 
[H]OC1([H])C([H])([H])C([H])(Oc2c([H])c([H])c3c(c2[H])C([H])([H])N(C(=O)C([H])(N([H])C(=O)C([H])(N([H])C([H])([H])[H])C([H])([H])[H])C(C([H])([H])[H])(C([H])([H])[H])C([H])([H])[H])C([H])(C(=O)N([H])C2([H])c4c([H])c([H])c([H])c([H])c4C([H])([H])C([H])([H])C2([H])[H])C3([H])[H])C([H])([H])c2c(C([H])([H])[H])c(C(=O)N3C([H])([H])C([H])([H])C([H])([H])C([H])(n4nc(-c5c([H])c([H])c(Oc6c([H])c([H])c(F)c([H])c6F)c([H])c5[H])c(C(=O)N([H])[H])c4N([H])[H])C3([H])[H])c(C([H])([H])[H])c3c2C([H])(C([H])([H])C3([H])[H])C1([H])[H]

>  <smiles>  (25) 
[H]OC1([H])C([H])([H])C([H])(Oc2c([H])c([H])c3c(c2[H])C([H])([H])N(C(=O)C([H])(N([H])C(=O)C([H])(N([H])C([H])([H])[H])C([H])([H])[H])C(C([H])([H])[H])(C([H])([H])[H])C([H])([H])[H])C([H])(C(=O)N([H])C2([H])c4c([H])c([H])c([H])c([H])c4C([H])([H])C([H])([H])C2([H])[H])C3([H])[H])C([H])([H])c2c(C([H])([H])[H])c(C(=O)N3C([H])([H])C([H])([H])C([H])([H])C([H])(n4nc(-c5c([H])c([H])c(Oc6c([H])c([H])c(F)c([H])c6F)c([H])c5[H])c(C(=O)N([H])[H])c4N([H])[H])C3([H])[H])c(C([H])([H])[H])c3c2C([H])(C([H])([H])C3([H])[H])C1([H])[H]

$$$$
25:0:0
     RDKit          3D

 97107  0  0  1  0  0  0  0  0999 V2000
  -32.4890  -20.4140   20.3200 C   0  0  0  0  0  0  0  0  0  0  0  0
  -32.1550  -20.2210   21.7800 C   0  0  0  0  0  2  0  0  0  0  0  0
  -31.3120  -21.0260   19.5860 C   0  0  0  0  0  2  0  0  0  0  0  0
  -30.8050  -20.9490   21.8790 C   0  0  0  0  0  2  0  0  0  0  0  0
  -30.0690  -20.8080   20.5050 C   0  0  1  0  0  0  0  0  0  0  0  0
  -33.5780  -20.1430   19.8070 O   0  0  0  0  0  0  0  0  0  0  0  0
  -28.5940  -22.8670   21.3970 C   0  0  0  0  0  3  0  0  0  0  0  0
  -28.2510  -24.2640   21.3270 C   0  0  0  0  0  3  0  0  0  0  0  0
  -29.1490  -22.8890   19.0860 C   0  0  0  0  0  3  0  0  0  0  0  0
  -29.1430  -22.1290   20.2980 C   0  0  0  0  0  0  0  0  0  0  0  0
  -28.8110  -24.2910   19.0110 C   0  0  0  0  0  0  0  0  0  0  0  0
  -28.4030  -25.0520   20.1490 C   0  0  0  0  0  0  0  0  0  0  0  0
  -28.9980  -25.0120   17.6880 C   0  0  0  0  0  1  0  0  0  0  0  0
  -28.3920  -26.4880   20.1550 O   0  0  0  0  0  0  0  0  0  0  0  0
  -24.6100  -31.8720   23.2550 C   0  0  0  0  0  0  0  0  0  0  0  0
  -27.2560  -27.3220   20.1670 C   0  0  0  0  0  0  0  0  0  0  0  0
  -23.4340  -30.5040   21.5710 C   0  0  0  0  0  3  0  0  0  0  0  0
  -24.9010  -28.9640   20.1420 C   0  0  0  0  0  0  0  0  0  0  0  0
  -25.9780  -30.8090   21.4360 C   0  0  0  0  0  2  0  0  0  0  0  0
  -26.0620  -29.4350   20.7700 C   0  0  0  0  0  0  0  0  0  0  0  0
  -27.2420  -28.6260   20.7670 C   0  0  0  0  0  3  0  0  0  0  0  0
  -26.0760  -26.9100   19.5170 C   0  0  0  0  0  3  0  0  0  0  0  0
  -24.9130  -27.7100   19.5080 C   0  0  0  0  0  3  0  0  0  0  0  0
  -23.6690  -29.8480   20.1840 C   0  0  0  0  0  2  0  0  0  0  0  0
  -24.6930  -31.0810   22.1430 N   0  0  0  0  0  0  0  0  0  0  0  0
  -23.5190  -32.1410   23.7750 O   0  0  0  0  0  0  0  0  0  0  0  0
  -22.7530  -29.4740   22.5040 C   0  0  0  0  0  0  0  0  0  0  0  0
  -21.4290  -29.3040   22.3540 N   0  0  0  0  0  0  0  0  0  0  0  0
  -23.4160  -28.8320   23.3210 O   0  0  0  0  0  0  0  0  0  0  0  0
  -20.9530  -29.8710   21.6670 H   0  0  0  0  0  0  0  0  0  0  0  0
  -18.0320  -28.1430   22.8230 C   0  0  0  0  0  0  0  0  0  0  0  0
  -20.5960  -28.3540   23.0920 C   0  0  0  0  0  3  0  0  0  0  0  0
  -20.6730  -26.9410   22.4680 C   0  0  0  0  0  2  0  0  0  0  0  0
  -19.5640  -26.6720   21.4460 C   0  0  0  0  0  2  0  0  0  0  0  0
  -18.1860  -26.8170   22.0990 C   0  0  0  0  0  2  0  0  0  0  0  0
  -19.1640  -28.8720   23.2750 C   0  0  0  0  0  0  0  0  0  0  0  0
  -18.9650  -30.1170   23.9120 C   0  0  0  0  0  3  0  0  0  0  0  0
  -17.6690  -30.6320   24.0990 C   0  0  0  0  0  3  0  0  0  0  0  0
  -16.5520  -29.8980   23.6630 C   0  0  0  0  0  3  0  0  0  0  0  0
  -16.7350  -28.6560   23.0300 C   0  0  0  0  0  3  0  0  0  0  0  0
  -25.8820  -32.4920   23.9110 C   0  0  0  0  0  3  0  0  0  0  0  0
  -25.5790  -33.8960   24.2290 N   0  0  0  0  0  0  0  0  0  0  0  0
  -25.9220  -34.9430   23.4670 C   0  0  0  0  0  0  0  0  0  0  0  0
  -26.5950  -34.8270   22.4390 O   0  0  0  0  0  0  0  0  0  0  0  0
  -24.9820  -34.0590   25.0270 H   0  0  0  0  0  0  0  0  0  0  0  0
  -24.1920  -36.7350   23.1140 C   0  0  0  0  0  1  0  0  0  0  0  0
  -25.4430  -36.3380   23.9130 C   0  0  0  0  0  3  0  0  0  0  0  0
  -27.5860  -37.2350   24.7110 C   0  0  0  0  0  1  0  0  0  0  0  0
  -26.4770  -37.3880   23.7730 N   0  0  0  0  0  0  0  0  0  0  0  0
  -26.0730  -38.3110   23.9050 H   0  0  0  0  0  0  0  0  0  0  0  0
  -26.3520  -31.7210   25.2060 C   0  0  1  0  0  0  0  0  0  0  0  0
  -25.2250  -31.4950   26.2420 C   0  0  0  0  0  1  0  0  0  0  0  0
  -26.9340  -30.3370   24.8380 C   0  0  0  0  0  1  0  0  0  0  0  0
  -27.4920  -32.5060   25.8980 C   0  0  0  0  0  1  0  0  0  0  0  0
  -29.9040  -17.1370   18.9770 C   0  0  0  0  0  3  0  0  0  0  0  0
  -29.6910  -18.5540   19.0930 C   0  0  0  0  0  3  0  0  0  0  0  0
  -29.5920  -18.3200   21.4530 C   0  0  0  0  0  3  0  0  0  0  0  0
  -30.0380  -16.2540   20.0930 C   0  0  0  0  0  0  0  0  0  0  0  0
  -29.6400  -19.2380   20.3460 C   0  0  0  0  0  0  0  0  0  0  0  0
  -29.8100  -16.8980   21.3430 C   0  0  0  0  0  0  0  0  0  0  0  0
  -29.9010  -16.1750   22.4860 F   0  0  0  0  0  0  0  0  0  0  0  0
  -30.7070  -14.8430   19.9240 C   0  0  0  0  0  0  0  0  0  0  0  0
  -30.4210  -12.5680   18.9480 C   0  0  0  0  0  2  0  0  0  0  0  0
  -29.4190  -12.6600   17.7760 C   0  0  0  0  0  2  0  0  0  0  0  0
  -27.9860  -12.4500   18.2970 C   0  0  0  0  0  2  0  0  0  0  0  0
  -27.6760  -13.3240   19.5430 C   0  0  0  0  0  3  0  0  0  0  0  0
  -28.8040  -13.2770   20.5930 C   0  0  0  0  0  2  0  0  0  0  0  0
  -30.0560  -13.6270   19.9220 N   0  0  0  0  0  0  0  0  0  0  0  0
  -31.8770  -14.8750   19.5330 O   0  0  0  0  0  0  0  0  0  0  0  0
  -25.3530  -13.8510   20.4840 C   0  0  0  0  0  0  0  0  0  0  0  0
  -24.3240  -13.0500   20.8960 C   0  0  0  0  0  0  0  0  0  0  0  0
  -24.7920  -11.7070   20.7670 C   0  0  0  0  0  0  0  0  0  0  0  0
  -26.3790  -12.9940   20.1250 N   0  0  0  0  0  0  0  0  0  0  0  0
  -26.0560  -11.6960   20.3600 N   0  0  0  0  0  0  0  0  0  0  0  0
  -24.0870  -10.4290   20.9530 C   0  0  0  0  0  0  0  0  0  0  0  0
  -24.5350   -9.4670   21.8830 C   0  0  0  0  0  3  0  0  0  0  0  0
  -23.8300   -8.2570   22.0580 C   0  0  0  0  0  3  0  0  0  0  0  0
  -22.6630   -8.0000   21.3020 C   0  0  0  0  0  0  0  0  0  0  0  0
  -22.2310   -8.9520   20.3600 C   0  0  0  0  0  3  0  0  0  0  0  0
  -22.9370  -10.1530   20.1850 C   0  0  0  0  0  3  0  0  0  0  0  0
  -21.9280   -6.8430   21.3860 O   0  0  0  0  0  0  0  0  0  0  0  0
  -21.8050   -6.1520   22.5650 C   0  0  0  0  0  0  0  0  0  0  0  0
  -21.2650   -6.7470   23.7260 C   0  0  0  0  0  3  0  0  0  0  0  0
  -21.0930   -5.9810   24.8960 C   0  0  0  0  0  3  0  0  0  0  0  0
  -21.4490   -4.6200   24.9050 C   0  0  0  0  0  0  0  0  0  0  0  0
  -21.9830   -4.0230   23.7490 C   0  0  0  0  0  3  0  0  0  0  0  0
  -22.1570   -4.7860   22.5820 C   0  0  0  0  0  0  0  0  0  0  0  0
  -22.6520   -4.2010   21.4650 F   0  0  0  0  0  0  0  0  0  0  0  0
  -21.2760   -3.8810   26.0270 F   0  0  0  0  0  0  0  0  0  0  0  0
  -22.9480  -13.5020   21.2930 C   0  0  0  0  0  0  0  0  0  0  0  0
  -22.2990  -12.7700   22.1900 N   0  0  0  0  0  0  0  0  0  0  0  0
  -22.4630  -14.5390   20.8430 O   0  0  0  0  0  0  0  0  0  0  0  0
  -22.7070  -11.9310   22.5730 H   0  0  0  0  0  0  0  0  0  0  0  0
  -21.3800  -13.0540   22.5010 H   0  0  0  0  0  0  0  0  0  0  0  0
  -25.4960  -15.2290   20.3630 N   0  0  0  0  0  0  0  0  0  0  0  0
  -24.7390  -15.8700   20.5700 H   0  0  0  0  0  0  0  0  0  0  0  0
  -26.3250  -15.6940   20.0120 H   0  0  0  0  0  0  0  0  0  0  0  0
  1  2  1  0
  2  4  1  0
  3  1  1  0
  3  5  1  0
  5 10  1  6
  5  4  1  0
  6  1  2  0
  8  7  1  0
  9 10  1  0
 10  7  2  0
 11  9  2  0
 11 12  1  0
 12 14  1  0
 12  8  2  0
 13 11  1  0
 14 16  1  0
 15 26  2  0
 16 21  1  0
 17 25  1  0
 17 27  1  0
 18 24  1  0
 18 20  1  0
 19 25  1  0
 20 19  1  0
 21 20  2  0
 22 16  2  0
 23 22  1  0
 23 18  2  0
 24 17  1  0
 25 15  1  0
 27 29  2  0
 28 27  1  0
 30 28  1  0
 31 40  2  0
 31 36  1  0
 32 28  1  0
 32 36  1  0
 33 32  1  0
 34 35  1  0
 34 33  1  0
 35 31  1  0
 36 37  2  0
 37 38  1  0
 39 38  2  0
 40 39  1  0
 41 15  1  0
 41 42  1  0
 41 51  1  0
 42 45  1  0
 43 47  1  0
 43 42  1  0
 44 43  2  0
 47 46  1  0
 49 50  1  0
 49 47  1  0
 49 48  1  0
 51 54  1  1
 51 52  1  0
 53 51  1  0
 55 56  2  0
 55 58  1  0
 56 59  1  0
 58 60  2  0
 59  5  1  0
 59 57  2  0
 60 57  1  0
 60 61  1  0
 62 58  1  0
 63 68  1  0
 64 65  1  0
 64 63  1  0
 66 65  1  0
 66 73  1  0
 66 67  1  0
 68 62  1  0
 68 67  1  0
 69 62  2  0
 70 71  2  0
 71 90  1  0
 72 71  1  0
 72 75  1  0
 73 74  1  0
 73 70  1  0
 74 72  2  0
 75 76  1  0
 76 77  2  0
 78 81  1  0
 78 77  1  0
 79 78  2  0
 80 79  1  0
 80 75  2  0
 81 82  1  0
 82 87  2  0
 82 83  1  0
 83 84  2  0
 84 85  1  0
 85 89  1  0
 86 85  2  0
 87 86  1  0
 88 87  1  0
 90 91  1  0
 91 94  1  0
 91 93  1  0
 92 90  2  0
 95 70  1  0
 95 96  1  0
 97 95  1  0
M  ISO  4  12 101  14 101  58 100  62 100
M  END
>  <TORSDO>  (26) 
F 18

>  <SCORE>  (26) 
-14.577

>  <name>  (26) 
25

>  <ligand_id>  (26) 
25

>  <original_smiles>  (26) 
[H]c1c([H])c([H])c2c(c1[H])C([H])([H])C([H])([H])C([H])([H])C2([H])N([H])C(=O)C1([H])N(C(=O)C([H])(N([H])C(=O)C([H])(N([H])C([H])([H])[H])C([H])([H])[H])C(C([H])([H])[H])(C([H])([H])[H])C([H])([H])[H])C([H])([H])c2c([H])c(Oc3c([H])c([H])c(C4(c5c([H])c([H])c(C(=O)N6C([H])([H])C([H])([H])C([H])([H])C([H])(n7nc(-c8c([H])c([H])c(Oc9c([H])c([H])c(F)c([H])c9F)c([H])c8[H])c(C(=O)N([H])[H])c7N([H])[H])C6([H])[H])c(F)c5[H])C([H])([H])C(=O)C([H])([H])C4([H])[H])c([H])c3C([H])([H])[H])c([H])c([H])c2C1([H])[H]

>  <smiles>  (26) 
[H]c1c([H])c([H])c2c(c1[H])C([H])([H])C([H])([H])C([H])([H])C2([H])N([H])C(=O)C1([H])N(C(=O)C([H])(N([H])C(=O)C([H])(N([H])C([H])([H])[H])C([H])([H])[H])C(C([H])([H])[H])(C([H])([H])[H])C([H])([H])[H])C([H])([H])c2c([H])c(Oc3c([H])c([H])c(C4(c5c([H])c([H])c(C(=O)N6C([H])([H])C([H])([H])C([H])([H])C([H])(n7nc(-c8c([H])c([H])c(Oc9c([H])c([H])c(F)c([H])c9F)c([H])c8[H])c(C(=O)N([H])[H])c7N([H])[H])C6([H])[H])c(F)c5[H])C([H])([H])C(=O)C([H])([H])C4([H])[H])c([H])c3C([H])([H])[H])c([H])c([H])c2C1([H])[H]

$$$$
26:0:0
     RDKit          3D

 91100  0  0  1  0  0  0  0  0999 V2000
  -28.1210  -23.7160   17.3970 C   0  0  0  0  0  3  0  0  0  0  0  0
  -28.4820  -22.4810   17.9670 C   0  0  0  0  0  3  0  0  0  0  0  0
  -28.0850  -24.9010   18.1510 C   0  0  0  0  0  3  0  0  0  0  0  0
  -28.7680  -23.6030   20.0950 C   0  0  0  0  0  3  0  0  0  0  0  0
  -28.8620  -22.3340   19.3240 C   0  0  0  0  0  0  0  0  0  0  0  0
  -28.3530  -24.9230   19.5340 C   0  0  0  0  0  0  0  0  0  0  0  0
  -29.8240  -19.9840   18.7190 C   0  0  0  0  0  3  0  0  0  0  0  0
  -29.3330  -20.8380   19.6810 C   0  0  0  0  0  0  0  0  0  0  0  0
  -30.1530  -18.4330   18.7680 C   0  0  0  0  0  2  0  0  0  0  0  0
  -29.1150  -20.0770   21.0140 C   0  0  0  0  0  2  0  0  0  0  0  0
  -29.0360  -18.4660   20.9570 C   0  0  0  0  0  2  0  0  0  0  0  0
  -30.1170  -17.6460   20.1370 C   0  0  0  0  0  3  0  0  0  0  0  0
  -30.7050  -14.9440   19.8870 C   0  0  0  0  0  0  0  0  0  0  0  0
  -30.5190  -12.6120   18.9330 C   0  0  0  0  0  2  0  0  0  0  0  0
  -29.5030  -12.6010   17.7670 C   0  0  0  0  0  2  0  0  0  0  0  0
  -28.0690  -12.4000   18.2920 C   0  0  0  0  0  2  0  0  0  0  0  0
  -27.7480  -13.3130   19.5030 C   0  0  0  0  0  3  0  0  0  0  0  0
  -28.8750  -13.2920   20.5570 C   0  0  0  0  0  2  0  0  0  0  0  0
  -30.1110  -13.6890   19.8720 N   0  0  0  0  0  0  0  0  0  0  0  0
  -31.8860  -15.0360   19.5350 O   0  0  0  0  0  0  0  0  0  0  0  0
  -29.9050  -16.0880   20.0980 N   0  0  0  0  0  0  0  0  0  0  0  0
  -28.9550  -15.8240   20.3100 H   0  0  0  0  0  0  0  0  0  0  0  0
  -25.4310  -13.8990   20.4250 C   0  0  0  0  0  0  0  0  0  0  0  0
  -24.3830  -13.1250   20.8430 C   0  0  0  0  0  0  0  0  0  0  0  0
  -24.8250  -11.7700   20.7330 C   0  0  0  0  0  0  0  0  0  0  0  0
  -26.4420  -13.0170   20.0830 N   0  0  0  0  0  0  0  0  0  0  0  0
  -26.0900  -11.7280   20.3320 N   0  0  0  0  0  0  0  0  0  0  0  0
  -24.0940  -10.5100   20.9280 C   0  0  0  0  0  0  0  0  0  0  0  0
  -24.5300   -9.5380   21.8560 C   0  0  0  0  0  3  0  0  0  0  0  0
  -23.8000   -8.3450   22.0400 C   0  0  0  0  0  3  0  0  0  0  0  0
  -22.6180   -8.1150   21.2970 C   0  0  0  0  0  0  0  0  0  0  0  0
  -22.1990   -9.0750   20.3580 C   0  0  0  0  0  3  0  0  0  0  0  0
  -22.9310  -10.2600   20.1720 C   0  0  0  0  0  3  0  0  0  0  0  0
  -21.8580   -6.9740   21.3910 O   0  0  0  0  0  0  0  0  0  0  0  0
  -21.7520   -6.2740   22.5660 C   0  0  0  0  0  0  0  0  0  0  0  0
  -21.2300   -6.8630   23.7390 C   0  0  0  0  0  3  0  0  0  0  0  0
  -21.0750   -6.0870   24.9050 C   0  0  0  0  0  3  0  0  0  0  0  0
  -21.4310   -4.7250   24.9000 C   0  0  0  0  0  0  0  0  0  0  0  0
  -21.9450   -4.1370   23.7320 C   0  0  0  0  0  3  0  0  0  0  0  0
  -22.1020   -4.9090   22.5670 C   0  0  0  0  0  0  0  0  0  0  0  0
  -22.5790   -4.3310   21.4380 F   0  0  0  0  0  0  0  0  0  0  0  0
  -21.2740   -3.9790   26.0180 F   0  0  0  0  0  0  0  0  0  0  0  0
  -23.0150  -13.6080   21.2240 C   0  0  0  0  0  0  0  0  0  0  0  0
  -22.3400  -12.8970   22.1200 N   0  0  0  0  0  0  0  0  0  0  0  0
  -22.5560  -14.6530   20.7640 O   0  0  0  0  0  0  0  0  0  0  0  0
  -22.7250  -12.0510   22.5130 H   0  0  0  0  0  0  0  0  0  0  0  0
  -21.4250  -13.2020   22.4190 H   0  0  0  0  0  0  0  0  0  0  0  0
  -25.5990  -15.2730   20.2830 N   0  0  0  0  0  0  0  0  0  0  0  0
  -24.8450  -15.9250   20.4660 H   0  0  0  0  0  0  0  0  0  0  0  0
  -26.4090  -15.7130   19.8670 H   0  0  0  0  0  0  0  0  0  0  0  0
  -28.3020  -26.2410   20.1610 O   0  0  0  0  0  0  0  0  0  0  0  0
  -24.6420  -31.8160   23.2370 C   0  0  0  0  0  0  0  0  0  0  0  0
  -27.2200  -27.1890   20.0960 C   0  0  0  0  0  0  0  0  0  0  0  0
  -23.4340  -30.4500   21.5790 C   0  0  0  0  0  3  0  0  0  0  0  0
  -24.8750  -28.9060   20.1190 C   0  0  0  0  0  0  0  0  0  0  0  0
  -25.9840  -30.7300   21.4010 C   0  0  0  0  0  2  0  0  0  0  0  0
  -26.0570  -29.3520   20.7230 C   0  0  0  0  0  0  0  0  0  0  0  0
  -27.2270  -28.5090   20.6960 C   0  0  0  0  0  3  0  0  0  0  0  0
  -25.9970  -26.8260   19.4840 C   0  0  0  0  0  3  0  0  0  0  0  0
  -24.8560  -27.6550   19.4870 C   0  0  0  0  0  3  0  0  0  0  0  0
  -23.6460  -29.7970   20.1880 C   0  0  0  0  0  2  0  0  0  0  0  0
  -24.7070  -31.0190   22.1280 N   0  0  0  0  0  0  0  0  0  0  0  0
  -23.5600  -32.0900   23.7760 O   0  0  0  0  0  0  0  0  0  0  0  0
  -22.7620  -29.4240   22.5260 C   0  0  0  0  0  0  0  0  0  0  0  0
  -21.4350  -29.2470   22.3950 N   0  0  0  0  0  0  0  0  0  0  0  0
  -23.4360  -28.7910   23.3440 O   0  0  0  0  0  0  0  0  0  0  0  0
  -20.9480  -29.8080   21.7110 H   0  0  0  0  0  0  0  0  0  0  0  0
  -18.0620  -28.0150   22.8640 C   0  0  0  0  0  0  0  0  0  0  0  0
  -20.6160  -28.2960   23.1520 C   0  0  0  0  0  3  0  0  0  0  0  0
  -20.7350  -26.8710   22.5660 C   0  0  0  0  0  2  0  0  0  0  0  0
  -19.6420  -26.5470   21.5410 C   0  0  0  0  0  2  0  0  0  0  0  0
  -18.2560  -26.6740   22.1770 C   0  0  0  0  0  2  0  0  0  0  0  0
  -19.1710  -28.7840   23.3080 C   0  0  0  0  0  0  0  0  0  0  0  0
  -18.9360  -30.0380   23.9120 C   0  0  0  0  0  3  0  0  0  0  0  0
  -17.6240  -30.5240   24.0750 C   0  0  0  0  0  3  0  0  0  0  0  0
  -16.5300  -29.7530   23.6470 C   0  0  0  0  0  3  0  0  0  0  0  0
  -16.7500  -28.4990   23.0480 C   0  0  0  0  0  3  0  0  0  0  0  0
  -25.9240  -32.4410   23.8690 C   0  0  0  0  0  3  0  0  0  0  0  0
  -25.6220  -33.8420   24.2010 N   0  0  0  0  0  0  0  0  0  0  0  0
  -25.9340  -34.8930   23.4310 C   0  0  0  0  0  0  0  0  0  0  0  0
  -26.5750  -34.7860   22.3820 O   0  0  0  0  0  0  0  0  0  0  0  0
  -25.0520  -34.0000   25.0190 H   0  0  0  0  0  0  0  0  0  0  0  0
  -24.1910  -36.6850   23.1370 C   0  0  0  0  0  1  0  0  0  0  0  0
  -25.4650  -36.2850   23.8990 C   0  0  0  0  0  3  0  0  0  0  0  0
  -27.6230  -37.1870   24.6470 C   0  0  0  0  0  1  0  0  0  0  0  0
  -26.4900  -37.3390   23.7380 N   0  0  0  0  0  0  0  0  0  0  0  0
  -26.0860  -38.2610   23.8860 H   0  0  0  0  0  0  0  0  0  0  0  0
  -26.4220  -31.6670   25.1520 C   0  0  1  0  0  0  0  0  0  0  0  0
  -25.3180  -31.4420   26.2120 C   0  0  0  0  0  1  0  0  0  0  0  0
  -26.9950  -30.2830   24.7700 C   0  0  0  0  0  1  0  0  0  0  0  0
  -27.5750  -32.4520   25.8220 C   0  0  0  0  0  1  0  0  0  0  0  0
  1  2  2  0
  1  3  1  0
  2  5  1  0
  3  6  2  0
  5  8  1  0
  5  4  2  0
  6  4  1  0
  6 51  1  0
  7  9  1  0
  7  8  2  0
  8 10  1  0
  9 12  1  0
 11 10  1  0
 12 21  1  0
 12 11  1  0
 13 21  1  0
 14 19  1  0
 15 16  1  0
 15 14  1  0
 17 16  1  0
 17 26  1  0
 17 18  1  0
 19 13  1  0
 19 18  1  0
 20 13  2  0
 21 22  1  0
 23 24  2  0
 24 43  1  0
 25 24  1  0
 25 28  1  0
 26 27  1  0
 26 23  1  0
 27 25  2  0
 28 29  1  0
 29 30  2  0
 31 34  1  0
 31 30  1  0
 32 31  2  0
 33 32  1  0
 33 28  2  0
 34 35  1  0
 35 40  2  0
 35 36  1  0
 36 37  2  0
 38 37  1  0
 38 42  1  0
 39 38  2  0
 40 39  1  0
 41 40  1  0
 43 44  1  0
 44 47  1  0
 44 46  1  0
 45 43  2  0
 48 23  1  0
 48 49  1  0
 50 48  1  0
 52 63  2  0
 53 51  1  0
 53 58  1  0
 54 62  1  0
 54 64  1  0
 55 61  1  0
 55 57  1  0
 56 62  1  0
 57 56  1  0
 58 57  2  0
 59 60  1  0
 59 53  2  0
 60 55  2  0
 61 54  1  0
 62 52  1  0
 64 66  2  0
 65 64  1  0
 67 65  1  0
 68 77  2  0
 68 73  1  0
 69 65  1  0
 69 73  1  0
 70 69  1  0
 71 72  1  0
 71 70  1  0
 72 68  1  0
 73 74  2  0
 74 75  1  0
 76 75  2  0
 77 76  1  0
 78 52  1  0
 78 79  1  0
 78 88  1  0
 79 82  1  0
 80 84  1  0
 80 79  1  0
 81 80  2  0
 84 83  1  0
 86 87  1  0
 86 84  1  0
 86 85  1  0
 88 91  1  1
 88 89  1  0
 90 88  1  0
M  ISO  4   6 101  13 100  21 100  51 101
M  END
>  <TORSDO>  (27) 
F 17

>  <SCORE>  (27) 
-14.479

>  <name>  (27) 
26

>  <ligand_id>  (27) 
26

>  <original_smiles>  (27) 
[H]C1=C(c2c([H])c([H])c([H])c(Oc3c([H])c([H])c4c(c3[H])C([H])([H])N(C(=O)C([H])(N([H])C(=O)C([H])(N([H])C([H])([H])[H])C([H])([H])[H])C(C([H])([H])[H])(C([H])([H])[H])C([H])([H])[H])C([H])(C(=O)N([H])C3([H])c5c([H])c([H])c([H])c([H])c5C([H])([H])C([H])([H])C3([H])[H])C4([H])[H])c2[H])C([H])([H])C([H])([H])C([H])(N([H])C(=O)N2C([H])([H])C([H])([H])C([H])([H])C([H])(n3nc(-c4c([H])c([H])c(Oc5c([H])c([H])c(F)c([H])c5F)c([H])c4[H])c(C(=O)N([H])[H])c3N([H])[H])C2([H])[H])C1([H])[H]

>  <smiles>  (27) 
[H]C1=C(c2c([H])c([H])c([H])c(Oc3c([H])c([H])c4c(c3[H])C([H])([H])N(C(=O)C([H])(N([H])C(=O)C([H])(N([H])C([H])([H])[H])C([H])([H])[H])C(C([H])([H])[H])(C([H])([H])[H])C([H])([H])[H])C([H])(C(=O)N([H])C3([H])c5c([H])c([H])c([H])c([H])c5C([H])([H])C([H])([H])C3([H])[H])C4([H])[H])c2[H])C([H])([H])C([H])([H])C([H])(N([H])C(=O)N2C([H])([H])C([H])([H])C([H])([H])C([H])(n3nc(-c4c([H])c([H])c(Oc5c([H])c([H])c(F)c([H])c5F)c([H])c4[H])c(C(=O)N([H])[H])c3N([H])[H])C2([H])[H])C1([H])[H]

$$$$
27:0:0
     RDKit          3D

 97106  0  0  1  0  0  0  0  0999 V2000
  -31.7300  -14.4620   18.1000 C   0  0  0  0  0  0  0  0  0  0  0  0
  -31.0460  -12.1580   17.2420 C   0  0  0  0  0  2  0  0  0  0  0  0
  -29.7300  -12.2110   16.4300 C   0  0  0  0  0  2  0  0  0  0  0  0
  -28.5040  -12.1130   17.3560 C   0  0  0  0  0  2  0  0  0  0  0  0
  -28.6360  -13.0330   18.5950 C   0  0  0  0  0  3  0  0  0  0  0  0
  -30.0110  -12.9010   19.2690 C   0  0  0  0  0  2  0  0  0  0  0  0
  -31.0340  -13.2520   18.2710 N   0  0  0  0  0  0  0  0  0  0  0  0
  -32.6200  -14.4520   17.2420 O   0  0  0  0  0  0  0  0  0  0  0  0
  -30.8840  -15.5900   23.0410 C   0  0  0  0  0  3  0  0  0  0  0  0
  -30.7820  -16.8440   20.9270 C   0  0  0  0  0  0  0  0  0  0  0  0
  -30.5190  -16.7410   22.3230 C   0  0  0  0  0  0  0  0  0  0  0  0
  -31.6820  -14.6090   22.4420 C   0  0  0  0  0  0  0  0  0  0  0  0
  -32.0560  -14.7520   21.0870 C   0  0  0  0  0  0  0  0  0  0  0  0
  -31.4150  -15.7400   20.2610 C   0  0  0  0  0  0  0  0  0  0  0  0
  -30.4300  -18.1960   20.2570 C   0  0  0  0  0  2  0  0  0  0  0  0
  -31.6010  -17.1200   18.2130 C   0  0  0  0  0  2  0  0  0  0  0  0
  -30.7240  -18.4380   18.7500 C   0  0  1  0  0  0  0  0  0  0  0  0
  -29.8450  -17.8640   23.1010 C   0  0  0  0  0  1  0  0  0  0  0  0
  -32.1420  -13.4260   23.2850 C   0  0  0  0  0  1  0  0  0  0  0  0
  -33.2250  -13.8950   20.5990 C   0  0  0  0  0  1  0  0  0  0  0  0
  -29.3720  -18.3310   18.0080 C   0  0  0  0  0  1  0  0  0  0  0  0
  -31.4470  -15.6840   18.8120 N   0  0  0  0  0  0  0  0  0  0  0  0
  -26.9750  -13.7560   20.3980 C   0  0  0  0  0  0  0  0  0  0  0  0
  -25.9600  -13.0930   21.0360 C   0  0  0  0  0  0  0  0  0  0  0  0
  -25.9880  -11.7540   20.5400 C   0  0  0  0  0  0  0  0  0  0  0  0
  -27.5550  -12.8300   19.5520 N   0  0  0  0  0  0  0  0  0  0  0  0
  -26.9980  -11.5990   19.6910 N   0  0  0  0  0  0  0  0  0  0  0  0
  -25.0680  -10.6320   20.7710 C   0  0  0  0  0  0  0  0  0  0  0  0
  -25.4120   -9.5430   21.6030 C   0  0  0  0  0  3  0  0  0  0  0  0
  -24.4970   -8.4910   21.8210 C   0  0  0  0  0  3  0  0  0  0  0  0
  -23.2200   -8.5200   21.2090 C   0  0  0  0  0  0  0  0  0  0  0  0
  -22.8930   -9.5910   20.3590 C   0  0  0  0  0  3  0  0  0  0  0  0
  -23.8090  -10.6340   20.1400 C   0  0  0  0  0  3  0  0  0  0  0  0
  -22.2750   -7.5330   21.3470 O   0  0  0  0  0  0  0  0  0  0  0  0
  -21.9430   -7.0270   22.5770 C   0  0  0  0  0  0  0  0  0  0  0  0
  -21.4050   -7.8410   23.5970 C   0  0  0  0  0  3  0  0  0  0  0  0
  -21.0050   -7.2650   24.8190 C   0  0  0  0  0  3  0  0  0  0  0  0
  -21.1350   -5.8790   25.0210 C   0  0  0  0  0  0  0  0  0  0  0  0
  -21.6640   -5.0650   24.0030 C   0  0  0  0  0  3  0  0  0  0  0  0
  -22.0630   -5.6380   22.7830 C   0  0  0  0  0  0  0  0  0  0  0  0
  -22.5510   -4.8470   21.7970 F   0  0  0  0  0  0  0  0  0  0  0  0
  -20.7450   -5.3230   26.1910 F   0  0  0  0  0  0  0  0  0  0  0  0
  -24.9520  -13.7040   21.9680 C   0  0  0  0  0  0  0  0  0  0  0  0
  -24.4070  -12.9180   22.8910 N   0  0  0  0  0  0  0  0  0  0  0  0
  -24.6740  -14.8990   21.9130 O   0  0  0  0  0  0  0  0  0  0  0  0
  -24.6490  -11.9420   22.9700 H   0  0  0  0  0  0  0  0  0  0  0  0
  -23.7230  -13.3040   23.5280 H   0  0  0  0  0  0  0  0  0  0  0  0
  -27.4360  -15.0680   20.4470 N   0  0  0  0  0  0  0  0  0  0  0  0
  -27.0190  -15.7620   21.0550 H   0  0  0  0  0  0  0  0  0  0  0  0
  -28.2350  -15.4170   19.9330 H   0  0  0  0  0  0  0  0  0  0  0  0
  -31.2930  -20.0350   18.5060 C   0  0  0  0  0  2  0  0  0  0  0  0
  -30.5420  -21.3700   18.9640 N   0  0  0  0  0  4  0  0  0  0  0  0
  -30.5460  -21.3450   19.9710 H   0  0  0  0  0  0  0  0  0  0  0  0
  -29.5800  -21.2600   18.6890 H   0  0  0  0  0  0  0  0  0  0  0  0
  -30.9760  -22.8610   18.5680 C   0  0  0  0  0  2  0  0  0  0  0  0
  -29.9780  -24.2280   18.7410 C   0  0  0  0  0  2  0  0  0  0  0  0
  -30.3810  -25.7240   19.0070 O   0  0  0  0  0  0  0  0  0  0  0  0
  -27.3150  -29.9340   24.2240 C   0  0  0  0  0  0  0  0  0  0  0  0
  -29.4190  -26.7320   19.3960 C   0  0  0  0  0  0  0  0  0  0  0  0
  -25.9660  -29.4260   22.2260 C   0  0  0  0  0  3  0  0  0  0  0  0
  -27.2490  -28.5020   20.2020 C   0  0  0  0  0  0  0  0  0  0  0  0
  -28.5300  -29.5760   22.0440 C   0  0  0  0  0  2  0  0  0  0  0  0
  -28.4760  -28.5790   20.8710 C   0  0  0  0  0  0  0  0  0  0  0  0
  -29.5640  -27.7210   20.4550 C   0  0  0  0  0  3  0  0  0  0  0  0
  -28.1730  -26.7750   18.7290 C   0  0  0  0  0  3  0  0  0  0  0  0
  -27.1140  -27.6210   19.1200 C   0  0  0  0  0  3  0  0  0  0  0  0
  -26.0990  -29.3740   20.6810 C   0  0  0  0  0  2  0  0  0  0  0  0
  -27.2930  -29.6410   22.8870 N   0  0  0  0  0  0  0  0  0  0  0  0
  -26.2700  -30.0430   24.8830 O   0  0  0  0  0  0  0  0  0  0  0  0
  -25.2350  -28.1540   22.7250 C   0  0  0  0  0  0  0  0  0  0  0  0
  -23.9920  -27.9370   22.2560 N   0  0  0  0  0  0  0  0  0  0  0  0
  -25.7970  -27.3710   23.4950 O   0  0  0  0  0  0  0  0  0  0  0  0
  -23.5980  -28.6270   21.6310 H   0  0  0  0  0  0  0  0  0  0  0  0
  -20.8740  -26.2840   21.4330 C   0  0  0  0  0  0  0  0  0  0  0  0
  -23.1490  -26.7770   22.5610 C   0  0  0  0  0  3  0  0  0  0  0  0
  -23.6690  -25.5140   21.8350 C   0  0  0  0  0  2  0  0  0  0  0  0
  -22.9920  -25.2790   20.4800 C   0  0  0  0  0  2  0  0  0  0  0  0
  -21.4770  -25.1320   20.6480 C   0  0  0  0  0  2  0  0  0  0  0  0
  -21.6630  -27.0670   22.3180 C   0  0  0  0  0  0  0  0  0  0  0  0
  -21.0600  -28.1470   22.9990 C   0  0  0  0  0  3  0  0  0  0  0  0
  -19.6980  -28.4470   22.8080 C   0  0  0  0  0  3  0  0  0  0  0  0
  -18.9190  -27.6600   21.9420 C   0  0  0  0  0  3  0  0  0  0  0  0
  -19.5060  -26.5810   21.2580 C   0  0  0  0  0  3  0  0  0  0  0  0
  -28.6560  -30.1690   24.9840 C   0  0  0  0  0  3  0  0  0  0  0  0
  -28.9710  -29.0420   26.0450 C   0  0  1  0  0  0  0  0  0  0  0  0
  -27.8010  -28.7650   27.0180 C   0  0  0  0  0  1  0  0  0  0  0  0
  -29.3260  -27.7090   25.3470 C   0  0  0  0  0  1  0  0  0  0  0  0
  -30.2150  -29.4400   26.8730 C   0  0  0  0  0  1  0  0  0  0  0  0
  -28.5760  -31.4830   25.6420 N   0  0  0  0  0  0  0  0  0  0  0  0
  -29.1310  -32.6080   25.1720 C   0  0  0  0  0  0  0  0  0  0  0  0
  -29.8300  -32.6300   24.1550 O   0  0  0  0  0  0  0  0  0  0  0  0
  -27.9670  -31.5520   26.4460 H   0  0  0  0  0  0  0  0  0  0  0  0
  -27.7920  -34.7370   25.2310 C   0  0  0  0  0  1  0  0  0  0  0  0
  -28.8720  -33.9130   25.9500 C   0  0  0  0  0  3  0  0  0  0  0  0
  -31.0500  -34.1500   27.0590 C   0  0  0  0  0  1  0  0  0  0  0  0
  -30.0860  -34.7400   26.1330 N   0  0  0  0  0  0  0  0  0  0  0  0
  -29.8450  -35.6670   26.4730 H   0  0  0  0  0  0  0  0  0  0  0  0
  1  7  1  0
  1 22  1  0
  2  7  1  0
  3  2  1  0
  3  4  1  0
  5  4  1  0
  5  6  1  0
  5 26  1  0
  7  6  1  0
  8  1  2  0
 10 11  1  0
 11  9  2  0
 11 18  1  0
 12  9  1  0
 12 19  1  0
 13 12  2  0
 14 10  2  0
 14 13  1  0
 15 10  1  0
 16 17  1  0
 16 22  1  0
 17 21  1  6
 17 15  1  0
 20 13  1  0
 22 14  1  0
 23 48  1  0
 23 24  2  0
 24 43  1  0
 25 28  1  0
 25 24  1  0
 26 27  1  0
 26 23  1  0
 27 25  2  0
 28 29  1  0
 29 30  2  0
 31 34  1  0
 31 30  1  0
 32 31  2  0
 33 32  1  0
 33 28  2  0
 34 35  1  0
 35 40  2  0
 35 36  1  0
 36 37  2  0
 37 38  1  0
 38 42  1  0
 39 38  2  0
 40 39  1  0
 41 40  1  0
 43 44  1  0
 44 46  1  0
 44 47  1  0
 45 43  2  0
 48 49  1  0
 50 48  1  0
 51 17  1  0
 51 52  1  0
 52 53  1  0
 54 52  1  0
 55 56  1  0
 55 52  1  0
 56 57  1  0
 57 59  1  0
 58 69  2  0
 59 64  1  0
 60 70  1  0
 60 68  1  0
 61 67  1  0
 61 63  1  0
 62 68  1  0
 63 62  1  0
 64 63  2  0
 65 66  1  0
 65 59  2  0
 66 61  2  0
 67 60  1  0
 68 58  1  0
 70 72  2  0
 71 70  1  0
 73 71  1  0
 74 79  1  0
 75 71  1  0
 76 75  1  0
 77 78  1  0
 77 76  1  0
 78 74  1  0
 79 75  1  0
 79 80  2  0
 81 80  1  0
 82 81  2  0
 83 74  2  0
 83 82  1  0
 84 58  1  0
 84 89  1  0
 84 85  1  0
 85 88  1  1
 85 86  1  0
 87 85  1  0
 89 92  1  0
 90 89  1  0
 90 94  1  0
 91 90  2  0
 94 93  1  0
 94 96  1  0
 96 97  1  0
 96 95  1  0
M  ISO  4   1 100  22 100  56 101  57 101
M  END
>  <TORSDO>  (28) 
F 19

>  <SCORE>  (28) 
4.307

>  <name>  (28) 
27

>  <ligand_id>  (28) 
27

>  <original_smiles>  (28) 
[H]c1c([H])c([H])c2c(c1[H])C([H])([H])C([H])([H])C([H])([H])C2([H])N([H])C(=O)C1([H])N(C(=O)C([H])(N([H])C(=O)C([H])(N([H])C([H])([H])[H])C([H])([H])[H])C(C([H])([H])[H])(C([H])([H])[H])C([H])([H])[H])C([H])([H])c2c([H])c(OC([H])([H])C([H])([H])[N+]([H])([H])C([H])([H])C3(C([H])([H])[H])C([H])([H])c4c(c(C([H])([H])[H])c(C([H])([H])[H])c([H])c4C([H])([H])[H])N(C(=O)N4C([H])([H])C([H])([H])C([H])([H])C([H])(n5nc(-c6c([H])c([H])c(Oc7c([H])c([H])c(F)c([H])c7F)c([H])c6[H])c(C(=O)N([H])[H])c5N([H])[H])C4([H])[H])C3([H])[H])c([H])c([H])c2C1([H])[H]

>  <smiles>  (28) 
[H]c1c([H])c([H])c2c(c1[H])C([H])([H])C([H])([H])C([H])([H])C2([H])N([H])C(=O)C1([H])N(C(=O)C([H])(N([H])C(=O)C([H])(N([H])C([H])([H])[H])C([H])([H])[H])C(C([H])([H])[H])(C([H])([H])[H])C([H])([H])[H])C([H])([H])c2c([H])c(OC([H])([H])C([H])([H])[N+]([H])([H])C([H])([H])C3(C([H])([H])[H])C([H])([H])c4c(c(C([H])([H])[H])c(C([H])([H])[H])c([H])c4C([H])([H])[H])N(C(=O)N4C([H])([H])C([H])([H])C([H])([H])C([H])(n5nc(-c6c([H])c([H])c(Oc7c([H])c([H])c(F)c([H])c7F)c([H])c6[H])c(C(=O)N([H])[H])c5N([H])[H])C4([H])[H])C3([H])[H])c([H])c([H])c2C1([H])[H]

$$$$
28:0:0
     RDKit          3D

 94104  0  0  1  0  0  0  0  0999 V2000
  -28.5710  -23.1510   18.9400 C   0  0  0  0  0  3  0  0  0  0  0  0
  -28.7820  -23.2540   21.3460 C   0  0  0  0  0  3  0  0  0  0  0  0
  -28.3780  -24.5500   18.8800 C   0  0  0  0  0  3  0  0  0  0  0  0
  -28.5720  -24.6630   21.2860 C   0  0  0  0  0  3  0  0  0  0  0  0
  -28.8010  -22.4740   20.1630 C   0  0  0  0  0  0  0  0  0  0  0  0
  -28.3790  -25.3370   20.0510 C   0  0  0  0  0  0  0  0  0  0  0  0
  -28.1160  -17.4560   19.5660 C   0  0  0  0  0  3  0  0  0  0  0  0
  -28.5800  -18.6280   20.0220 C   0  0  0  0  0  0  0  0  0  0  0  0
  -29.0240  -16.3200   19.4210 C   0  0  0  0  0  0  0  0  0  0  0  0
  -28.8210  -15.6250   18.2860 C   0  0  0  0  0  2  0  0  0  0  0  0
  -27.9060  -19.9910   19.9740 C   0  0  0  0  0  2  0  0  0  0  0  0
  -30.0090  -20.2060   21.1320 C   0  0  0  0  0  2  0  0  0  0  0  0
  -30.4170  -17.4390   21.2420 C   0  0  0  0  0  2  0  0  0  0  0  0
  -29.1010  -20.9510   20.1030 C   0  0  0  0  0  3  0  0  0  0  0  0
  -29.9900  -18.7700   20.5240 C   0  0  0  0  0  3  0  0  0  0  0  0
  -30.3310  -16.1840   20.2660 C   0  0  2  0  0  0  0  0  0  0  0  0
  -31.4700  -16.4000   19.2110 C   0  0  0  0  0  1  0  0  0  0  0  0
  -30.7530  -14.8060   20.9990 C   0  0  0  0  0  0  0  0  0  0  0  0
  -30.6050  -12.4510   20.3000 C   0  0  0  0  0  2  0  0  0  0  0  0
  -29.8340  -12.3000   18.9810 C   0  0  0  0  0  2  0  0  0  0  0  0
  -28.3060  -12.2510   19.2150 C   0  0  0  0  0  2  0  0  0  0  0  0
  -27.7700  -13.2250   20.3060 C   0  0  0  0  0  3  0  0  0  0  0  0
  -28.7120  -13.3550   21.5140 C   0  0  0  0  0  2  0  0  0  0  0  0
  -30.0590  -13.6250   21.0000 N   0  0  0  0  0  0  0  0  0  0  0  0
  -31.9540  -14.7560   21.2590 O   0  0  0  0  0  0  0  0  0  0  0  0
  -25.3180  -13.7920   20.7890 C   0  0  0  0  0  0  0  0  0  0  0  0
  -24.2340  -13.0040   21.0540 C   0  0  0  0  0  0  0  0  0  0  0  0
  -24.7250  -11.6630   21.1080 C   0  0  0  0  0  0  0  0  0  0  0  0
  -26.3970  -12.9270   20.6850 N   0  0  0  0  0  0  0  0  0  0  0  0
  -26.0410  -11.6460   20.9490 N   0  0  0  0  0  0  0  0  0  0  0  0
  -24.0120  -10.3880   21.2430 C   0  0  0  0  0  0  0  0  0  0  0  0
  -24.3830   -9.4360   22.2170 C   0  0  0  0  0  3  0  0  0  0  0  0
  -23.6700   -8.2250   22.3410 C   0  0  0  0  0  3  0  0  0  0  0  0
  -22.5740   -7.9580   21.4880 C   0  0  0  0  0  0  0  0  0  0  0  0
  -22.2230   -8.8980   20.5040 C   0  0  0  0  0  3  0  0  0  0  0  0
  -22.9370  -10.1020   20.3780 C   0  0  0  0  0  3  0  0  0  0  0  0
  -21.8380   -6.7980   21.5200 O   0  0  0  0  0  0  0  0  0  0  0  0
  -21.7210   -6.0520   22.6660 C   0  0  0  0  0  0  0  0  0  0  0  0
  -21.2150   -6.6010   23.8640 C   0  0  0  0  0  3  0  0  0  0  0  0
  -21.0460   -5.7810   24.9970 C   0  0  0  0  0  3  0  0  0  0  0  0
  -21.3740   -4.4140   24.9330 C   0  0  0  0  0  0  0  0  0  0  0  0
  -21.8730   -3.8650   23.7390 C   0  0  0  0  0  3  0  0  0  0  0  0
  -22.0440   -4.6810   22.6070 C   0  0  0  0  0  0  0  0  0  0  0  0
  -22.5050   -4.1430   21.4530 F   0  0  0  0  0  0  0  0  0  0  0  0
  -21.2050   -3.6240   26.0190 F   0  0  0  0  0  0  0  0  0  0  0  0
  -22.8060  -13.4530   21.1560 C   0  0  0  0  0  0  0  0  0  0  0  0
  -22.0030  -12.7620   21.9580 N   0  0  0  0  0  0  0  0  0  0  0  0
  -22.4050  -14.4530   20.5600 O   0  0  0  0  0  0  0  0  0  0  0  0
  -22.3380  -11.9560   22.4630 H   0  0  0  0  0  0  0  0  0  0  0  0
  -21.0400  -13.0460   22.0700 H   0  0  0  0  0  0  0  0  0  0  0  0
  -25.4740  -15.1620   20.6000 N   0  0  0  0  0  0  0  0  0  0  0  0
  -24.6930  -15.8080   20.6270 H   0  0  0  0  0  0  0  0  0  0  0  0
  -26.3580  -15.6120   20.3960 H   0  0  0  0  0  0  0  0  0  0  0  0
  -28.3360  -26.7280   19.9640 O   0  0  0  0  0  0  0  0  0  0  0  0
  -24.5650  -31.9000   23.1400 C   0  0  0  0  0  0  0  0  0  0  0  0
  -27.1500  -27.4510   19.9900 C   0  0  0  0  0  0  0  0  0  0  0  0
  -23.3280  -30.5060   21.5130 C   0  0  0  0  0  3  0  0  0  0  0  0
  -24.7560  -28.9790   20.0440 C   0  0  0  0  0  0  0  0  0  0  0  0
  -25.8500  -30.8670   21.2640 C   0  0  0  0  0  2  0  0  0  0  0  0
  -25.9240  -29.4960   20.6170 C   0  0  0  0  0  0  0  0  0  0  0  0
  -27.1220  -28.7380   20.5850 C   0  0  0  0  0  3  0  0  0  0  0  0
  -25.9630  -26.9600   19.4030 C   0  0  0  0  0  3  0  0  0  0  0  0
  -24.7720  -27.7140   19.4300 C   0  0  0  0  0  3  0  0  0  0  0  0
  -23.5100  -29.8370   20.1230 C   0  0  0  0  0  2  0  0  0  0  0  0
  -24.6010  -31.1080   22.0300 N   0  0  0  0  0  0  0  0  0  0  0  0
  -23.4960  -32.1630   23.7070 O   0  0  0  0  0  0  0  0  0  0  0  0
  -22.7010  -29.4780   22.4810 C   0  0  0  0  0  0  0  0  0  0  0  0
  -21.3740  -29.2930   22.3840 N   0  0  0  0  0  0  0  0  0  0  0  0
  -23.4040  -28.8480   23.2760 O   0  0  0  0  0  0  0  0  0  0  0  0
  -20.8660  -29.8520   21.7130 H   0  0  0  0  0  0  0  0  0  0  0  0
  -18.0170  -28.0780   22.9430 C   0  0  0  0  0  0  0  0  0  0  0  0
  -20.5790  -28.3450   23.1640 C   0  0  0  0  0  3  0  0  0  0  0  0
  -20.6770  -26.9190   22.5750 C   0  0  0  0  0  2  0  0  0  0  0  0
  -19.5560  -26.6000   21.5800 C   0  0  0  0  0  2  0  0  0  0  0  0
  -18.1860  -26.7330   22.2530 C   0  0  0  0  0  2  0  0  0  0  0  0
  -19.1400  -28.8420   23.3560 C   0  0  0  0  0  0  0  0  0  0  0  0
  -18.9280  -30.1000   23.9590 C   0  0  0  0  0  3  0  0  0  0  0  0
  -17.6240  -30.5930   24.1550 C   0  0  0  0  0  3  0  0  0  0  0  0
  -16.5160  -29.8250   23.7590 C   0  0  0  0  0  3  0  0  0  0  0  0
  -16.7130  -28.5700   23.1570 C   0  0  0  0  0  3  0  0  0  0  0  0
  -25.8620  -32.5310   23.7370 C   0  0  0  0  0  3  0  0  0  0  0  0
  -25.5450  -33.9120   24.1260 N   0  0  0  0  0  0  0  0  0  0  0  0
  -25.8450  -34.9960   23.3960 C   0  0  0  0  0  0  0  0  0  0  0  0
  -26.4890  -34.9370   22.3450 O   0  0  0  0  0  0  0  0  0  0  0  0
  -24.9690  -34.0300   24.9460 H   0  0  0  0  0  0  0  0  0  0  0  0
  -24.0840  -36.7740   23.1530 C   0  0  0  0  0  1  0  0  0  0  0  0
  -25.3520  -36.3600   23.9150 C   0  0  0  0  0  3  0  0  0  0  0  0
  -27.5000  -37.2420   24.7140 C   0  0  0  0  0  1  0  0  0  0  0  0
  -26.3670  -37.4310   23.8110 N   0  0  0  0  0  0  0  0  0  0  0  0
  -25.9530  -38.3380   24.0090 H   0  0  0  0  0  0  0  0  0  0  0  0
  -26.4380  -31.7250   24.9660 C   0  0  1  0  0  0  0  0  0  0  0  0
  -25.3900  -31.4380   26.0670 C   0  0  0  0  0  1  0  0  0  0  0  0
  -27.0210  -30.3700   24.5040 C   0  0  0  0  0  1  0  0  0  0  0  0
  -27.6040  -32.5120   25.6090 C   0  0  0  0  0  1  0  0  0  0  0  0
  1  5  1  0
  3  1  2  0
  3  6  1  0
  4  2  1  0
  5  2  2  0
  6  4  2  0
  7  8  2  0
  8 15  1  0
  9  7  1  0
  9 16  1  0
 10  9  2  0
 11  8  1  0
 11 14  1  0
 14  5  1  0
 14 12  1  0
 15 12  1  0
 15 13  1  0
 16 17  1  6
 16 18  1  0
 16 13  1  0
 18 24  1  0
 18 25  2  0
 19 24  1  0
 20 21  1  0
 20 19  1  0
 22 21  1  0
 22 29  1  0
 22 23  1  0
 24 23  1  0
 26 27  2  0
 27 28  1  0
 27 46  1  0
 28 31  1  0
 29 26  1  0
 29 30  1  0
 30 28  2  0
 31 32  1  0
 32 33  2  0
 34 37  1  0
 34 33  1  0
 35 34  2  0
 36 35  1  0
 36 31  2  0
 37 38  1  0
 38 39  1  0
 39 40  2  0
 41 40  1  0
 41 45  1  0
 42 41  2  0
 43 38  2  0
 43 42  1  0
 44 43  1  0
 46 47  1  0
 47 50  1  0
 47 49  1  0
 48 46  2  0
 51 52  1  0
 51 26  1  0
 53 51  1  0
 54 56  1  0
 54  6  1  0
 55 66  2  0
 56 61  1  0
 57 65  1  0
 57 67  1  0
 58 64  1  0
 58 60  1  0
 59 65  1  0
 60 59  1  0
 61 60  2  0
 62 63  1  0
 62 56  2  0
 63 58  2  0
 64 57  1  0
 65 55  1  0
 67 69  2  0
 68 67  1  0
 70 68  1  0
 71 80  2  0
 71 76  1  0
 72 68  1  0
 72 76  1  0
 73 72  1  0
 74 75  1  0
 74 73  1  0
 75 71  1  0
 76 77  2  0
 77 78  1  0
 79 78  2  0
 80 79  1  0
 81 55  1  0
 81 82  1  0
 81 91  1  0
 82 85  1  0
 83 87  1  0
 83 82  1  0
 84 83  2  0
 87 86  1  0
 89 87  1  0
 89 90  1  0
 89 88  1  0
 91 94  1  1
 91 92  1  0
 93 91  1  0
M  ISO  4   6 101  16 100  18 100  54 101
M  END
>  <TORSDO>  (29) 
F 17

>  <SCORE>  (29) 
-14.077

>  <name>  (29) 
28

>  <ligand_id>  (29) 
28

>  <original_smiles>  (29) 
[H]C([H])=C1C([H])=C2C([H])([H])C([H])(c3c([H])c([H])c(Oc4c([H])c([H])c5c(c4[H])C([H])([H])N(C(=O)C([H])(N([H])C(=O)C([H])(N([H])C([H])([H])[H])C([H])([H])[H])C(C([H])([H])[H])(C([H])([H])[H])C([H])([H])[H])C([H])(C(=O)N([H])C4([H])c6c([H])c([H])c([H])c([H])c6C([H])([H])C([H])([H])C4([H])[H])C5([H])[H])c([H])c3[H])C([H])([H])C2([H])C([H])([H])C1(C(=O)N1C([H])([H])C([H])([H])C([H])([H])C([H])(n2nc(-c3c([H])c([H])c(Oc4c([H])c([H])c(F)c([H])c4F)c([H])c3[H])c(C(=O)N([H])[H])c2N([H])[H])C1([H])[H])C([H])([H])[H]

>  <smiles>  (29) 
[H]C([H])=C1C([H])=C2C([H])([H])C([H])(c3c([H])c([H])c(Oc4c([H])c([H])c5c(c4[H])C([H])([H])N(C(=O)C([H])(N([H])C(=O)C([H])(N([H])C([H])([H])[H])C([H])([H])[H])C(C([H])([H])[H])(C([H])([H])[H])C([H])([H])[H])C([H])(C(=O)N([H])C4([H])c6c([H])c([H])c([H])c([H])c6C([H])([H])C([H])([H])C4([H])[H])C5([H])[H])c([H])c3[H])C([H])([H])C2([H])C([H])([H])C1(C(=O)N1C([H])([H])C([H])([H])C([H])([H])C([H])(n2nc(-c3c([H])c([H])c(Oc4c([H])c([H])c(F)c([H])c4F)c([H])c3[H])c(C(=O)N([H])[H])c2N([H])[H])C1([H])[H])C([H])([H])[H]

$$$$
29:0:0
     RDKit          3D

 97106  0  0  1  0  0  0  0  0999 V2000
  -29.4370  -27.1970   22.1800 C   0  0  0  0  0  3  0  0  0  0  0  0
  -30.7060  -26.4380   20.2300 C   0  0  0  0  0  3  0  0  0  0  0  0
  -30.6470  -27.2180   22.8990 C   0  0  0  0  0  0  0  0  0  0  0  0
  -31.8550  -26.8350   22.3190 C   0  0  0  0  0  0  0  0  0  0  0  0
  -31.9050  -26.4120   20.9750 C   0  0  0  0  0  0  0  0  0  0  0  0
  -29.4770  -26.8210   20.8120 C   0  0  0  0  0  0  0  0  0  0  0  0
  -30.8630  -27.5760   24.3030 C   0  0  0  0  0  0  0  0  0  0  0  0
  -32.9960  -26.9040   23.3080 C   0  0  0  0  0  3  0  0  0  0  0  0
  -32.3530  -27.4240   24.6160 C   0  0  0  0  0  3  0  0  0  0  0  0
  -30.0190  -27.9420   25.1250 O   0  0  0  0  0  0  0  0  0  0  0  0
  -33.1700  -25.8610   20.3330 C   0  0  0  0  0  2  0  0  0  0  0  0
  -33.0360  -24.3620   19.9910 C   0  0  0  0  0  2  0  0  0  0  0  0
  -32.8310  -23.4620   21.2250 C   0  0  0  0  0  2  0  0  0  0  0  0
  -32.3450  -22.0500   20.8650 C   0  0  0  0  0  2  0  0  0  0  0  0
  -32.1990  -21.1490   22.1030 C   0  0  0  0  0  2  0  0  0  0  0  0
  -31.4560  -19.8360   21.8070 C   0  0  0  0  0  2  0  0  0  0  0  0
  -31.3770  -18.9150   23.0390 C   0  0  0  0  0  2  0  0  0  0  0  0
  -30.5000  -17.6670   22.8370 C   0  0  0  0  0  2  0  0  0  0  0  0
  -31.0740  -16.6600   21.8260 C   0  0  0  0  0  2  0  0  0  0  0  0
  -30.2180  -15.3820   21.7080 C   0  0  0  0  0  2  0  0  0  0  0  0
  -30.7470  -14.3700   20.6760 C   0  0  0  0  0  0  0  0  0  0  0  0
  -30.4170  -12.2850   19.3880 C   0  0  0  0  0  2  0  0  0  0  0  0
  -29.4810  -12.5220   18.1880 C   0  0  0  0  0  2  0  0  0  0  0  0
  -28.0060  -12.3770   18.6090 C   0  0  0  0  0  2  0  0  0  0  0  0
  -27.6680  -13.1990   19.8820 C   0  0  0  0  0  3  0  0  0  0  0  0
  -28.7090  -12.9380   20.9930 C   0  0  0  0  0  2  0  0  0  0  0  0
  -30.0440  -13.2310   20.4480 N   0  0  0  0  0  0  0  0  0  0  0  0
  -31.7920  -14.6320   20.0690 O   0  0  0  0  0  0  0  0  0  0  0  0
  -25.2620  -13.8150   20.5680 C   0  0  0  0  0  0  0  0  0  0  0  0
  -24.1850  -13.0440   20.9160 C   0  0  0  0  0  0  0  0  0  0  0  0
  -24.6390  -11.6900   20.8730 C   0  0  0  0  0  0  0  0  0  0  0  0
  -26.3060  -12.9310   20.3400 N   0  0  0  0  0  0  0  0  0  0  0  0
  -25.9320  -11.6470   20.5770 N   0  0  0  0  0  0  0  0  0  0  0  0
  -23.9060  -10.4290   21.0400 C   0  0  0  0  0  0  0  0  0  0  0  0
  -24.3610   -9.4210   21.9180 C   0  0  0  0  0  3  0  0  0  0  0  0
  -23.6290   -8.2240   22.0760 C   0  0  0  0  0  3  0  0  0  0  0  0
  -22.4270   -8.0280   21.3540 C   0  0  0  0  0  0  0  0  0  0  0  0
  -21.9900   -9.0250   20.4650 C   0  0  0  0  0  3  0  0  0  0  0  0
  -22.7230  -10.2130   20.3060 C   0  0  0  0  0  3  0  0  0  0  0  0
  -21.6640   -6.8880   21.4240 O   0  0  0  0  0  0  0  0  0  0  0  0
  -21.6850   -6.0740   22.5280 C   0  0  0  0  0  0  0  0  0  0  0  0
  -21.4010   -6.5640   23.8210 C   0  0  0  0  0  3  0  0  0  0  0  0
  -21.3660   -5.6790   24.9170 C   0  0  0  0  0  3  0  0  0  0  0  0
  -21.6050   -4.3060   24.7230 C   0  0  0  0  0  0  0  0  0  0  0  0
  -21.8820   -3.8150   23.4350 C   0  0  0  0  0  3  0  0  0  0  0  0
  -21.9190   -4.6970   22.3410 C   0  0  0  0  0  0  0  0  0  0  0  0
  -22.1660   -4.2150   21.0990 F   0  0  0  0  0  0  0  0  0  0  0  0
  -21.5630   -3.4540   25.7740 F   0  0  0  0  0  0  0  0  0  0  0  0
  -22.7880  -13.5240   21.1830 C   0  0  0  0  0  0  0  0  0  0  0  0
  -22.0510  -12.8230   22.0380 N   0  0  0  0  0  0  0  0  0  0  0  0
  -22.3560  -14.5550   20.6680 O   0  0  0  0  0  0  0  0  0  0  0  0
  -22.4120  -11.9890   22.4760 H   0  0  0  0  0  0  0  0  0  0  0  0
  -21.1140  -13.1270   22.2600 H   0  0  0  0  0  0  0  0  0  0  0  0
  -25.4370  -15.1860   20.4100 N   0  0  0  0  0  0  0  0  0  0  0  0
  -24.6770  -15.8480   20.5210 H   0  0  0  0  0  0  0  0  0  0  0  0
  -26.3020  -15.6230   20.1150 H   0  0  0  0  0  0  0  0  0  0  0  0
  -28.3720  -26.7000   20.0050 O   0  0  0  0  0  0  0  0  0  0  0  0
  -24.6100  -31.8720   23.2160 C   0  0  0  0  0  0  0  0  0  0  0  0
  -27.2440  -27.4800   20.1050 C   0  0  0  0  0  0  0  0  0  0  0  0
  -23.3930  -30.4950   21.5560 C   0  0  0  0  0  3  0  0  0  0  0  0
  -24.8420  -28.9640   20.1230 C   0  0  0  0  0  0  0  0  0  0  0  0
  -25.9160  -30.8560   21.3560 C   0  0  0  0  0  2  0  0  0  0  0  0
  -25.9980  -29.4930   20.7070 C   0  0  0  0  0  0  0  0  0  0  0  0
  -27.2080  -28.7670   20.6850 C   0  0  0  0  0  3  0  0  0  0  0  0
  -26.0700  -26.9570   19.5240 C   0  0  0  0  0  3  0  0  0  0  0  0
  -24.8690  -27.6910   19.5260 C   0  0  0  0  0  3  0  0  0  0  0  0
  -23.5990  -29.8230   20.1720 C   0  0  0  0  0  2  0  0  0  0  0  0
  -24.6580  -31.0870   22.1030 N   0  0  0  0  0  0  0  0  0  0  0  0
  -23.5310  -32.1450   23.7590 O   0  0  0  0  0  0  0  0  0  0  0  0
  -22.7370  -29.4680   22.5050 C   0  0  0  0  0  0  0  0  0  0  0  0
  -21.4110  -29.3020   22.3780 N   0  0  0  0  0  0  0  0  0  0  0  0
  -23.4170  -28.8230   23.3080 O   0  0  0  0  0  0  0  0  0  0  0  0
  -20.9270  -29.8730   21.6990 H   0  0  0  0  0  0  0  0  0  0  0  0
  -18.0240  -28.1370   22.8510 C   0  0  0  0  0  0  0  0  0  0  0  0
  -20.5820  -28.3650   23.1350 C   0  0  0  0  0  3  0  0  0  0  0  0
  -20.6740  -26.9400   22.5430 C   0  0  0  0  0  2  0  0  0  0  0  0
  -19.5720  -26.6400   21.5210 C   0  0  0  0  0  2  0  0  0  0  0  0
  -18.1890  -26.7920   22.1620 C   0  0  0  0  0  2  0  0  0  0  0  0
  -19.1480  -28.8820   23.2920 C   0  0  0  0  0  0  0  0  0  0  0  0
  -18.9420  -30.1430   23.8930 C   0  0  0  0  0  3  0  0  0  0  0  0
  -17.6420  -30.6590   24.0570 C   0  0  0  0  0  3  0  0  0  0  0  0
  -16.5320  -29.9090   23.6340 C   0  0  0  0  0  3  0  0  0  0  0  0
  -16.7230  -28.6500   23.0370 C   0  0  0  0  0  3  0  0  0  0  0  0
  -25.9020  -32.4850   23.8430 C   0  0  0  0  0  3  0  0  0  0  0  0
  -26.4480  -31.6600   25.0730 C   0  0  1  0  0  0  0  0  0  0  0  0
  -25.3780  -31.3640   26.1490 C   0  0  0  0  0  1  0  0  0  0  0  0
  -27.0310  -30.3060   24.6050 C   0  0  0  0  0  1  0  0  0  0  0  0
  -27.6080  -32.4300   25.7470 C   0  0  0  0  0  1  0  0  0  0  0  0
  -25.5890  -33.8650   24.2360 N   0  0  0  0  0  0  0  0  0  0  0  0
  -25.9020  -34.9500   23.5140 C   0  0  0  0  0  0  0  0  0  0  0  0
  -26.5590  -34.8940   22.4710 O   0  0  0  0  0  0  0  0  0  0  0  0
  -25.0020  -33.9820   25.0470 H   0  0  0  0  0  0  0  0  0  0  0  0
  -24.1470  -36.7340   23.2630 C   0  0  0  0  0  1  0  0  0  0  0  0
  -25.4100  -36.3140   24.0330 C   0  0  0  0  0  3  0  0  0  0  0  0
  -27.5570  -37.1820   24.8460 C   0  0  0  0  0  1  0  0  0  0  0  0
  -26.4290  -37.3820   23.9400 N   0  0  0  0  0  0  0  0  0  0  0  0
  -26.0200  -38.2910   24.1420 H   0  0  0  0  0  0  0  0  0  0  0  0
  1  3  1  0
  2  6  1  0
  2  5  2  0
  3  7  1  0
  4  3  2  0
  4  8  1  0
  5  4  1  0
  6  1  2  0
  7  9  1  0
  7 10  2  0
  8  9  2  0
 11  5  1  0
 12 11  1  0
 12 13  1  0
 14 13  1  0
 14 15  1  0
 16 15  1  0
 16 17  1  0
 18 17  1  0
 19 18  1  0
 20 19  1  0
 21 20  1  0
 22 27  1  0
 23 24  1  0
 23 22  1  0
 25 24  1  0
 25 32  1  0
 25 26  1  0
 27 21  1  0
 27 26  1  0
 28 21  2  0
 29 30  2  0
 30 49  1  0
 31 30  1  0
 31 34  1  0
 32 29  1  0
 32 33  1  0
 33 31  2  0
 34 35  1  0
 35 36  2  0
 37 40  1  0
 37 36  1  0
 38 37  2  0
 39 38  1  0
 39 34  2  0
 40 41  1  0
 41 42  1  0
 42 43  2  0
 44 43  1  0
 44 48  1  0
 45 44  2  0
 46 41  2  0
 46 45  1  0
 47 46  1  0
 49 50  1  0
 50 53  1  0
 50 52  1  0
 51 49  2  0
 54 55  1  0
 54 29  1  0
 56 54  1  0
 57 59  1  0
 57  6  1  0
 58 69  2  0
 59 64  1  0
 60 68  1  0
 60 70  1  0
 61 67  1  0
 61 63  1  0
 62 68  1  0
 63 62  1  0
 64 63  2  0
 65 66  1  0
 65 59  2  0
 66 61  2  0
 67 60  1  0
 68 58  1  0
 70 72  2  0
 71 70  1  0
 73 71  1  0
 74 83  2  0
 74 79  1  0
 75 71  1  0
 75 79  1  0
 76 75  1  0
 77 78  1  0
 77 76  1  0
 78 74  1  0
 79 80  2  0
 80 81  1  0
 82 81  2  0
 83 82  1  0
 84 58  1  0
 84 89  1  0
 84 85  1  0
 85 88  1  1
 85 86  1  0
 87 85  1  0
 89 92  1  0
 90 94  1  0
 90 89  1  0
 91 90  2  0
 94 93  1  0
 96 94  1  0
 96 97  1  0
 96 95  1  0
M  ISO  4   6 101  20 100  21 100  57 101
M  END
>  <TORSDO>  (30) 
F 26

>  <SCORE>  (30) 
-8.380

>  <name>  (30) 
29

>  <ligand_id>  (30) 
29

>  <original_smiles>  (30) 
[H]c1c([H])c([H])c2c(c1[H])C([H])([H])C([H])([H])C([H])([H])C2([H])N([H])C(=O)C1([H])N(C(=O)C([H])(N([H])C(=O)C([H])(N([H])C([H])([H])[H])C([H])([H])[H])C(C([H])([H])[H])(C([H])([H])[H])C([H])([H])[H])C([H])([H])c2c([H])c(Oc3c([H])c4c(c(C([H])([H])C([H])([H])C([H])([H])C([H])([H])C([H])([H])C([H])([H])C([H])([H])C([H])([H])C([H])([H])C([H])([H])C(=O)N5C([H])([H])C([H])([H])C([H])([H])C([H])(n6nc(-c7c([H])c([H])c(Oc8c([H])c([H])c(F)c([H])c8F)c([H])c7[H])c(C(=O)N([H])[H])c6N([H])[H])C5([H])[H])c3[H])C([H])([H])C([H])([H])C4=O)c([H])c([H])c2C1([H])[H]

>  <smiles>  (30) 
[H]c1c([H])c([H])c2c(c1[H])C([H])([H])C([H])([H])C([H])([H])C2([H])N([H])C(=O)C1([H])N(C(=O)C([H])(N([H])C(=O)C([H])(N([H])C([H])([H])[H])C([H])([H])[H])C(C([H])([H])[H])(C([H])([H])[H])C([H])([H])[H])C([H])([H])c2c([H])c(Oc3c([H])c4c(c(C([H])([H])C([H])([H])C([H])([H])C([H])([H])C([H])([H])C([H])([H])C([H])([H])C([H])([H])C([H])([H])C([H])([H])C(=O)N5C([H])([H])C([H])([H])C([H])([H])C([H])(n6nc(-c7c([H])c([H])c(Oc8c([H])c([H])c(F)c([H])c8F)c([H])c7[H])c(C(=O)N([H])[H])c6N([H])[H])C5([H])[H])c3[H])C([H])([H])C([H])([H])C4=O)c([H])c([H])c2C1([H])[H]

$$$$
30:0:0
     RDKit          3D

 96104  0  0  1  0  0  0  0  0999 V2000
  -30.2100  -25.6900   16.4290 C   0  0  0  0  0  3  0  0  0  0  0  0
  -28.8900  -25.1250   18.3910 C   0  0  0  0  0  3  0  0  0  0  0  0
  -29.4690  -24.7420   17.1660 C   0  0  0  0  0  0  0  0  0  0  0  0
  -29.7760  -27.3930   18.1320 C   0  0  0  0  0  0  0  0  0  0  0  0
  -30.3600  -27.0090   16.9000 C   0  0  0  0  0  0  0  0  0  0  0  0
  -29.0330  -26.4410   18.8720 C   0  0  0  0  0  0  0  0  0  0  0  0
  -29.9400  -28.8080   18.6740 C   0  0  0  0  0  1  0  0  0  0  0  0
  -31.1020  -27.9080   16.1330 N   0  0  0  0  0  0  0  0  0  0  0  0
  -31.7300  -27.5370   15.4260 H   0  0  0  0  0  0  0  0  0  0  0  0
  -31.4790  -28.7260   16.5980 H   0  0  0  0  0  0  0  0  0  0  0  0
  -29.3550  -23.3490   16.7260 C   0  0  0  0  0  3  0  0  0  0  0  0
  -30.2660  -22.7150   15.9700 C   0  0  0  0  0  3  0  0  0  0  0  0
  -30.1290  -21.2900   15.4860 C   0  0  0  0  0  2  0  0  0  0  0  0
  -30.9030  -20.3010   16.3650 C   0  0  0  0  0  2  0  0  0  0  0  0
  -30.1580  -19.9400   17.6630 C   0  0  0  0  0  2  0  0  0  0  0  0
  -30.9230  -18.8950   18.4840 C   0  0  0  0  0  2  0  0  0  0  0  0
  -30.0650  -18.1240   19.5100 C   0  0  0  0  0  2  0  0  0  0  0  0
  -30.8430  -16.8890   19.9890 C   0  0  0  0  0  2  0  0  0  0  0  0
  -30.0510  -15.7600   20.7120 C   0  0  0  0  0  2  0  0  0  0  0  0
  -30.7240  -14.3960   20.4450 C   0  0  0  0  0  0  0  0  0  0  0  0
  -30.3350  -12.2400   19.3580 C   0  0  0  0  0  2  0  0  0  0  0  0
  -29.4150  -12.4780   18.1440 C   0  0  0  0  0  2  0  0  0  0  0  0
  -27.9390  -12.3610   18.5670 C   0  0  0  0  0  2  0  0  0  0  0  0
  -27.6080  -13.2170   19.8170 C   0  0  0  0  0  3  0  0  0  0  0  0
  -28.6610  -13.0430   20.9350 C   0  0  0  0  0  2  0  0  0  0  0  0
  -29.9960  -13.2560   20.3630 N   0  0  0  0  0  0  0  0  0  0  0  0
  -31.9080  -14.4250   20.1050 O   0  0  0  0  0  0  0  0  0  0  0  0
  -25.2190  -13.8420   20.5310 C   0  0  0  0  0  0  0  0  0  0  0  0
  -24.1460  -13.0770   20.9000 C   0  0  0  0  0  0  0  0  0  0  0  0
  -24.6000  -11.7220   20.8780 C   0  0  0  0  0  0  0  0  0  0  0  0
  -26.2570  -12.9520   20.3050 N   0  0  0  0  0  0  0  0  0  0  0  0
  -25.8910  -11.6740   20.5750 N   0  0  0  0  0  0  0  0  0  0  0  0
  -23.8670  -10.4660   21.0740 C   0  0  0  0  0  0  0  0  0  0  0  0
  -24.3080   -9.4880   21.9930 C   0  0  0  0  0  3  0  0  0  0  0  0
  -23.5770   -8.2950   22.1750 C   0  0  0  0  0  3  0  0  0  0  0  0
  -22.3900   -8.0700   21.4360 C   0  0  0  0  0  0  0  0  0  0  0  0
  -21.9690   -9.0340   20.5060 C   0  0  0  0  0  3  0  0  0  0  0  0
  -22.7000  -10.2200   20.3230 C   0  0  0  0  0  3  0  0  0  0  0  0
  -21.6300   -6.9290   21.5270 O   0  0  0  0  0  0  0  0  0  0  0  0
  -21.6130   -6.1630   22.6660 C   0  0  0  0  0  0  0  0  0  0  0  0
  -21.2540   -6.7010   23.9210 C   0  0  0  0  0  3  0  0  0  0  0  0
  -21.1820   -5.8650   25.0510 C   0  0  0  0  0  3  0  0  0  0  0  0
  -21.4620   -4.4900   24.9300 C   0  0  0  0  0  0  0  0  0  0  0  0
  -21.8150   -3.9510   23.6810 C   0  0  0  0  0  3  0  0  0  0  0  0
  -21.8890   -4.7850   22.5510 C   0  0  0  0  0  0  0  0  0  0  0  0
  -22.2100   -4.2570   21.3450 F   0  0  0  0  0  0  0  0  0  0  0  0
  -21.3860   -3.6860   26.0160 F   0  0  0  0  0  0  0  0  0  0  0  0
  -22.7500  -13.5630   21.1640 C   0  0  0  0  0  0  0  0  0  0  0  0
  -22.0180  -12.8740   22.0320 N   0  0  0  0  0  0  0  0  0  0  0  0
  -22.3190  -14.5880   20.6390 O   0  0  0  0  0  0  0  0  0  0  0  0
  -22.3810  -12.0420   22.4730 H   0  0  0  0  0  0  0  0  0  0  0  0
  -21.0840  -13.1860   22.2600 H   0  0  0  0  0  0  0  0  0  0  0  0
  -25.3970  -15.2100   20.3490 N   0  0  0  0  0  0  0  0  0  0  0  0
  -24.6430  -15.8790   20.4570 H   0  0  0  0  0  0  0  0  0  0  0  0
  -26.2600  -15.6360   20.0330 H   0  0  0  0  0  0  0  0  0  0  0  0
  -28.4860  -26.7440   20.0930 O   0  0  0  0  0  0  0  0  0  0  0  0
  -24.7040  -31.8520   23.2340 C   0  0  0  0  0  0  0  0  0  0  0  0
  -27.3080  -27.4450   20.1120 C   0  0  0  0  0  0  0  0  0  0  0  0
  -23.4720  -30.4510   21.6050 C   0  0  0  0  0  3  0  0  0  0  0  0
  -24.9050  -28.9120   20.1630 C   0  0  0  0  0  0  0  0  0  0  0  0
  -25.9880  -30.8170   21.3730 C   0  0  0  0  0  2  0  0  0  0  0  0
  -26.0640  -29.4450   20.7420 C   0  0  0  0  0  0  0  0  0  0  0  0
  -27.2640  -28.7090   20.7290 C   0  0  0  0  0  3  0  0  0  0  0  0
  -26.1370  -26.9070   19.5400 C   0  0  0  0  0  3  0  0  0  0  0  0
  -24.9330  -27.6380   19.5650 C   0  0  0  0  0  3  0  0  0  0  0  0
  -23.6590  -29.7670   20.2240 C   0  0  0  0  0  2  0  0  0  0  0  0
  -24.7400  -31.0550   22.1290 N   0  0  0  0  0  0  0  0  0  0  0  0
  -23.6320  -32.1270   23.7900 O   0  0  0  0  0  0  0  0  0  0  0  0
  -22.8330  -29.4330   22.5760 C   0  0  0  0  0  0  0  0  0  0  0  0
  -21.5090  -29.2480   22.4580 N   0  0  0  0  0  0  0  0  0  0  0  0
  -23.5240  -28.8140   23.3890 O   0  0  0  0  0  0  0  0  0  0  0  0
  -21.0150  -29.8010   21.7720 H   0  0  0  0  0  0  0  0  0  0  0  0
  -18.1450  -28.0380   22.9640 C   0  0  0  0  0  0  0  0  0  0  0  0
  -20.6990  -28.3120   23.2340 C   0  0  0  0  0  3  0  0  0  0  0  0
  -20.8110  -26.8770   22.6700 C   0  0  0  0  0  2  0  0  0  0  0  0
  -19.7110  -26.5390   21.6570 C   0  0  0  0  0  2  0  0  0  0  0  0
  -18.3290  -26.6850   22.2980 C   0  0  0  0  0  2  0  0  0  0  0  0
  -19.2580  -28.8100   23.3890 C   0  0  0  0  0  0  0  0  0  0  0  0
  -19.0330  -30.0790   23.9670 C   0  0  0  0  0  3  0  0  0  0  0  0
  -17.7240  -30.5730   24.1260 C   0  0  0  0  0  3  0  0  0  0  0  0
  -16.6250  -29.7980   23.7190 C   0  0  0  0  0  3  0  0  0  0  0  0
  -16.8360  -28.5330   23.1440 C   0  0  0  0  0  3  0  0  0  0  0  0
  -26.0010  -32.4760   23.8390 C   0  0  0  0  0  3  0  0  0  0  0  0
  -26.5470  -31.6890   25.0950 C   0  0  1  0  0  0  0  0  0  0  0  0
  -25.4780  -31.4310   26.1820 C   0  0  0  0  0  1  0  0  0  0  0  0
  -27.1230  -30.3180   24.6690 C   0  0  0  0  0  1  0  0  0  0  0  0
  -27.7120  -32.4750   25.7400 C   0  0  0  0  0  1  0  0  0  0  0  0
  -25.7000  -33.8710   24.1870 N   0  0  0  0  0  0  0  0  0  0  0  0
  -26.0150  -34.9290   23.4270 C   0  0  0  0  0  0  0  0  0  0  0  0
  -26.6640  -34.8340   22.3810 O   0  0  0  0  0  0  0  0  0  0  0  0
  -25.1220  -34.0220   25.0010 H   0  0  0  0  0  0  0  0  0  0  0  0
  -24.2700  -36.7150   23.1260 C   0  0  0  0  0  1  0  0  0  0  0  0
  -25.5340  -36.3130   23.9030 C   0  0  0  0  0  3  0  0  0  0  0  0
  -27.6880  -37.1970   24.6820 C   0  0  0  0  0  1  0  0  0  0  0  0
  -26.5590  -37.3710   23.7740 N   0  0  0  0  0  0  0  0  0  0  0  0
  -26.1530  -38.2870   23.9460 H   0  0  0  0  0  0  0  0  0  0  0  0
  1  5  2  0
  1  3  1  0
  2  6  1  0
  3  2  2  0
  4  7  1  0
  4  6  2  0
  5  4  1  0
  6 56  1  0
  8 10  1  0
  8  5  1  0
  9  8  1  0
 11  3  1  0
 12 11  2  0
 13 12  1  0
 13 14  1  0
 14 15  1  0
 15 16  1  0
 16 17  1  0
 17 18  1  0
 18 19  1  0
 20 19  1  0
 21 26  1  0
 22 23  1  0
 22 21  1  0
 24 23  1  0
 24 31  1  0
 24 25  1  0
 26 20  1  0
 26 25  1  0
 27 20  2  0
 28 29  2  0
 29 48  1  0
 30 29  1  0
 30 33  1  0
 31 28  1  0
 31 32  1  0
 32 30  2  0
 33 34  1  0
 34 35  2  0
 36 39  1  0
 36 35  1  0
 37 36  2  0
 38 37  1  0
 38 33  2  0
 39 40  1  0
 40 41  1  0
 41 42  2  0
 43 42  1  0
 43 47  1  0
 44 43  2  0
 45 40  2  0
 45 44  1  0
 46 45  1  0
 48 49  1  0
 49 52  1  0
 49 51  1  0
 50 48  2  0
 53 54  1  0
 53 28  1  0
 55 53  1  0
 56 58  1  0
 57 68  2  0
 58 63  1  0
 59 67  1  0
 59 69  1  0
 60 66  1  0
 60 62  1  0
 61 67  1  0
 62 61  1  0
 63 62  2  0
 64 65  1  0
 64 58  2  0
 65 60  2  0
 66 59  1  0
 67 57  1  0
 69 71  2  0
 70 69  1  0
 72 70  1  0
 73 82  2  0
 73 78  1  0
 74 70  1  0
 74 78  1  0
 75 74  1  0
 76 77  1  0
 76 75  1  0
 77 73  1  0
 78 79  2  0
 79 80  1  0
 81 80  2  0
 82 81  1  0
 83 57  1  0
 83 88  1  0
 83 84  1  0
 84 87  1  1
 84 85  1  0
 86 84  1  0
 88 91  1  0
 89 93  1  0
 89 88  1  0
 90 89  2  0
 93 92  1  0
 95 93  1  0
 95 96  1  0
 95 94  1  0
M  ISO  4   6 101  19 100  20 100  56 101
M  END
>  <TORSDO>  (31) 
F 25

>  <SCORE>  (31) 
-11.216

>  <name>  (31) 
30

>  <ligand_id>  (31) 
30

>  <original_smiles>  (31) 
[H]C(=C([H])C([H])([H])C([H])([H])C([H])([H])C([H])([H])C([H])([H])C([H])([H])C([H])([H])C(=O)N1C([H])([H])C([H])([H])C([H])([H])C([H])(n2nc(-c3c([H])c([H])c(Oc4c([H])c([H])c(F)c([H])c4F)c([H])c3[H])c(C(=O)N([H])[H])c2N([H])[H])C1([H])[H])c1c([H])c(Oc2c([H])c([H])c3c(c2[H])C([H])([H])N(C(=O)C([H])(N([H])C(=O)C([H])(N([H])C([H])([H])[H])C([H])([H])[H])C(C([H])([H])[H])(C([H])([H])[H])C([H])([H])[H])C([H])(C(=O)N([H])C2([H])c4c([H])c([H])c([H])c([H])c4C([H])([H])C([H])([H])C2([H])[H])C3([H])[H])c(C([H])([H])[H])c(N([H])[H])c1[H]

>  <smiles>  (31) 
[H]C(=C([H])C([H])([H])C([H])([H])C([H])([H])C([H])([H])C([H])([H])C([H])([H])C([H])([H])C(=O)N1C([H])([H])C([H])([H])C([H])([H])C([H])(n2nc(-c3c([H])c([H])c(Oc4c([H])c([H])c(F)c([H])c4F)c([H])c3[H])c(C(=O)N([H])[H])c2N([H])[H])C1([H])[H])c1c([H])c(Oc2c([H])c([H])c3c(c2[H])C([H])([H])N(C(=O)C([H])(N([H])C(=O)C([H])(N([H])C([H])([H])[H])C([H])([H])[H])C(C([H])([H])[H])(C([H])([H])[H])C([H])([H])[H])C([H])(C(=O)N([H])C2([H])c4c([H])c([H])c([H])c([H])c4C([H])([H])C([H])([H])C2([H])[H])C3([H])[H])c(C([H])([H])[H])c(N([H])[H])c1[H]

$$$$
31:0:0
     RDKit          3D

 90 98  0  0  1  0  0  0  0  0999 V2000
  -29.7670  -19.6300   21.7080 C   0  0  0  0  0  3  0  0  0  0  0  0
  -30.0450  -16.9050   20.4530 C   0  0  0  0  0  0  0  0  0  0  0  0
  -30.3590  -18.5240   22.3750 C   0  0  0  0  0  0  0  0  0  0  0  0
  -29.2740  -19.5910   20.4010 C   0  0  0  0  0  0  0  0  0  0  0  0
  -30.4450  -17.2040   21.8020 C   0  0  0  0  0  0  0  0  0  0  0  0
  -29.4670  -18.1820   19.7930 C   0  0  0  0  0  0  0  0  0  0  0  0
  -31.0670  -16.1120   22.6830 C   0  0  0  0  0  1  0  0  0  0  0  0
  -29.0250  -18.0520   18.3480 C   0  0  0  0  0  1  0  0  0  0  0  0
  -30.5170  -15.4070   19.8170 C   0  0  0  0  0  0  0  0  0  0  0  0
  -30.3200  -12.9960   18.8580 C   0  0  0  0  0  2  0  0  0  0  0  0
  -29.3230  -12.9100   17.6740 C   0  0  0  0  0  2  0  0  0  0  0  0
  -27.9000  -12.6430   18.1920 C   0  0  0  0  0  2  0  0  0  0  0  0
  -27.5600  -13.5470   19.4040 C   0  0  0  0  0  3  0  0  0  0  0  0
  -28.6840  -13.6260   20.4610 C   0  0  0  0  0  2  0  0  0  0  0  0
  -29.9020  -14.1160   19.7910 N   0  0  0  0  0  0  0  0  0  0  0  0
  -31.6480  -15.3720   19.3100 O   0  0  0  0  0  0  0  0  0  0  0  0
  -25.2620  -14.1030   20.3530 C   0  0  0  0  0  0  0  0  0  0  0  0
  -24.2210  -13.3280   20.7790 C   0  0  0  0  0  0  0  0  0  0  0  0
  -24.6630  -11.9730   20.6650 C   0  0  0  0  0  0  0  0  0  0  0  0
  -26.2680  -13.2240   19.9970 N   0  0  0  0  0  0  0  0  0  0  0  0
  -25.9260  -11.9340   20.2530 N   0  0  0  0  0  0  0  0  0  0  0  0
  -23.9330  -10.7150   20.8740 C   0  0  0  0  0  0  0  0  0  0  0  0
  -24.3700   -9.7500   21.8080 C   0  0  0  0  0  3  0  0  0  0  0  0
  -23.6360   -8.5600   22.0060 C   0  0  0  0  0  3  0  0  0  0  0  0
  -22.4490   -8.3270   21.2710 C   0  0  0  0  0  0  0  0  0  0  0  0
  -22.0300   -9.2810   20.3260 C   0  0  0  0  0  3  0  0  0  0  0  0
  -22.7650  -10.4620   20.1260 C   0  0  0  0  0  3  0  0  0  0  0  0
  -21.6880   -7.1860   21.3740 O   0  0  0  0  0  0  0  0  0  0  0  0
  -21.5790   -6.4990   22.5560 C   0  0  0  0  0  0  0  0  0  0  0  0
  -21.0970   -7.1110   23.7350 C   0  0  0  0  0  3  0  0  0  0  0  0
  -20.9380   -6.3500   24.9090 C   0  0  0  0  0  3  0  0  0  0  0  0
  -21.2470   -4.9760   24.9060 C   0  0  0  0  0  0  0  0  0  0  0  0
  -21.7200   -4.3630   23.7330 C   0  0  0  0  0  3  0  0  0  0  0  0
  -21.8840   -5.1220   22.5610 C   0  0  0  0  0  0  0  0  0  0  0  0
  -22.3190   -4.5220   21.4270 F   0  0  0  0  0  0  0  0  0  0  0  0
  -21.0890   -4.2430   26.0330 F   0  0  0  0  0  0  0  0  0  0  0  0
  -22.8570  -13.8150   21.1690 C   0  0  0  0  0  0  0  0  0  0  0  0
  -22.1950  -13.1150   22.0810 N   0  0  0  0  0  0  0  0  0  0  0  0
  -22.3900  -14.8510   20.6970 O   0  0  0  0  0  0  0  0  0  0  0  0
  -22.5890  -12.2790   22.4870 H   0  0  0  0  0  0  0  0  0  0  0  0
  -21.2780  -13.4190   22.3760 H   0  0  0  0  0  0  0  0  0  0  0  0
  -25.4340  -15.4780   20.2080 N   0  0  0  0  0  0  0  0  0  0  0  0
  -24.6960  -16.1390   20.4200 H   0  0  0  0  0  0  0  0  0  0  0  0
  -26.2760  -15.9210   19.8600 H   0  0  0  0  0  0  0  0  0  0  0  0
  -31.5630  -20.2150   23.9520 C   0  0  0  0  0  1  0  0  0  0  0  0
  -30.9460  -18.8130   23.7710 C   0  0  0  0  0  2  0  0  0  0  0  0
  -28.5500  -21.0800   19.8530 C   0  0  0  0  0  2  0  0  0  0  0  0
  -28.6310  -22.7880   20.4180 C   0  0  0  0  0  3  0  0  0  0  0  0
  -27.7420  -24.2950   19.9830 C   0  0  0  0  0  3  0  0  0  0  0  0
  -27.9490  -25.9100   20.2270 O   0  0  0  0  0  0  0  0  0  0  0  0
  -24.5100  -31.9040   23.2010 C   0  0  0  0  0  0  0  0  0  0  0  0
  -26.9400  -27.0020   20.1480 C   0  0  0  0  0  0  0  0  0  0  0  0
  -23.2560  -30.5080   21.6070 C   0  0  0  0  0  3  0  0  0  0  0  0
  -24.6510  -28.8890   20.1490 C   0  0  0  0  0  0  0  0  0  0  0  0
  -25.8180  -30.7040   21.3840 C   0  0  0  0  0  2  0  0  0  0  0  0
  -25.8570  -29.2900   20.7350 C   0  0  0  0  0  0  0  0  0  0  0  0
  -26.9940  -28.3680   20.7110 C   0  0  0  0  0  3  0  0  0  0  0  0
  -25.7070  -26.7480   19.5060 C   0  0  0  0  0  3  0  0  0  0  0  0
  -24.5990  -27.6360   19.5150 C   0  0  0  0  0  3  0  0  0  0  0  0
  -23.4400  -29.8180   20.2270 C   0  0  0  0  0  2  0  0  0  0  0  0
  -24.5510  -31.0660   22.1160 N   0  0  0  0  0  0  0  0  0  0  0  0
  -23.4400  -32.2040   23.7550 O   0  0  0  0  0  0  0  0  0  0  0  0
  -22.5840  -29.5220   22.5970 C   0  0  0  0  0  0  0  0  0  0  0  0
  -21.2600  -29.3150   22.4690 N   0  0  0  0  0  0  0  0  0  0  0  0
  -23.2630  -28.9450   23.4530 O   0  0  0  0  0  0  0  0  0  0  0  0
  -20.7650  -29.8310   21.7540 H   0  0  0  0  0  0  0  0  0  0  0  0
  -17.9310  -27.9550   22.9310 C   0  0  0  0  0  0  0  0  0  0  0  0
  -20.4610  -28.3790   23.2650 C   0  0  0  0  0  3  0  0  0  0  0  0
  -20.6620  -26.9230   22.7810 C   0  0  0  0  0  2  0  0  0  0  0  0
  -19.6170  -26.4830   21.7510 C   0  0  0  0  0  2  0  0  0  0  0  0
  -18.2050  -26.5830   22.3380 C   0  0  0  0  0  2  0  0  0  0  0  0
  -18.9890  -28.8040   23.3530 C   0  0  0  0  0  0  0  0  0  0  0  0
  -18.6770  -30.0790   23.8710 C   0  0  0  0  0  3  0  0  0  0  0  0
  -17.3400  -30.5100   23.9700 C   0  0  0  0  0  3  0  0  0  0  0  0
  -16.2960  -29.6620   23.5630 C   0  0  0  0  0  3  0  0  0  0  0  0
  -16.5920  -28.3860   23.0520 C   0  0  0  0  0  3  0  0  0  0  0  0
  -25.8080  -32.5380   23.7900 C   0  0  0  0  0  3  0  0  0  0  0  0
  -26.3660  -31.7580   25.0460 C   0  0  1  0  0  0  0  0  0  0  0  0
  -25.3070  -31.5040   26.1440 C   0  0  0  0  0  1  0  0  0  0  0  0
  -26.9480  -30.3870   24.6350 C   0  0  0  0  0  1  0  0  0  0  0  0
  -27.5310  -32.5530   25.6830 C   0  0  0  0  0  1  0  0  0  0  0  0
  -25.5050  -33.9330   24.1540 N   0  0  0  0  0  0  0  0  0  0  0  0
  -25.7990  -35.0030   23.4040 C   0  0  0  0  0  0  0  0  0  0  0  0
  -26.4170  -34.9190   22.3390 O   0  0  0  0  0  0  0  0  0  0  0  0
  -24.9530  -34.0710   24.9880 H   0  0  0  0  0  0  0  0  0  0  0  0
  -24.0470  -36.7990   23.1840 C   0  0  0  0  0  1  0  0  0  0  0  0
  -25.3360  -36.3850   23.9110 C   0  0  0  0  0  3  0  0  0  0  0  0
  -27.5130  -37.2720   24.6240 C   0  0  0  0  0  1  0  0  0  0  0  0
  -26.3560  -37.4450   23.7500 N   0  0  0  0  0  0  0  0  0  0  0  0
  -25.9550  -38.3600   23.9350 H   0  0  0  0  0  0  0  0  0  0  0  0
  1  3  1  0
  2  5  1  0
  3 46  1  0
  4  1  2  0
  5  3  2  0
  5  7  1  0
  6  4  1  0
  6  2  2  0
  8  6  1  0
  9  2  1  0
 10 15  1  0
 11 12  1  0
 11 10  1  0
 13 12  1  0
 13 20  1  0
 13 14  1  0
 15  9  1  0
 15 14  1  0
 16  9  2  0
 17 18  2  0
 18 37  1  0
 19 18  1  0
 19 22  1  0
 20 21  1  0
 20 17  1  0
 21 19  2  0
 22 23  1  0
 23 24  2  0
 25 28  1  0
 25 24  1  0
 26 25  2  0
 27 26  1  0
 27 22  2  0
 28 29  1  0
 29 34  2  0
 29 30  1  0
 30 31  2  0
 32 31  1  0
 32 36  1  0
 33 32  2  0
 34 33  1  0
 35 34  1  0
 37 38  1  0
 38 41  1  0
 38 40  1  0
 39 37  2  0
 42 17  1  0
 42 43  1  0
 44 42  1  0
 46 45  1  0
 47  4  1  0
 47 48  1  0
 49 50  1  0
 49 48  2  0
 51 62  2  0
 52 50  1  0
 52 57  1  0
 53 61  1  0
 53 63  1  0
 54 60  1  0
 54 56  1  0
 55 61  1  0
 56 55  1  0
 57 56  2  0
 58 59  1  0
 58 52  2  0
 59 54  2  0
 60 53  1  0
 61 51  1  0
 63 65  2  0
 64 63  1  0
 66 64  1  0
 67 76  2  0
 67 72  1  0
 68 64  1  0
 68 72  1  0
 69 68  1  0
 70 71  1  0
 70 69  1  0
 71 67  1  0
 72 73  2  0
 73 74  1  0
 75 74  2  0
 76 75  1  0
 77 51  1  0
 77 82  1  0
 77 78  1  0
 78 81  1  1
 78 79  1  0
 80 78  1  0
 82 85  1  0
 83 87  1  0
 83 82  1  0
 84 83  2  0
 87 86  1  0
 89 87  1  0
 89 90  1  0
 89 88  1  0
M  ISO  4   2 100   9 100  49 101  50 101
M  END
>  <TORSDO>  (32) 
F 20

>  <SCORE>  (32) 
-13.694

>  <name>  (32) 
31

>  <ligand_id>  (32) 
31

>  <original_smiles>  (32) 
[H]c1c([H])c([H])c2c(c1[H])C([H])([H])C([H])([H])C([H])([H])C2([H])N([H])C(=O)C1([H])N(C(=O)C([H])(N([H])C(=O)C([H])(N([H])C([H])([H])[H])C([H])([H])[H])C(C([H])([H])[H])(C([H])([H])[H])C([H])([H])[H])C([H])([H])c2c([H])c(OC([H])([H])C([H])([H])C([H])([H])c3c([H])c(C([H])([H])C([H])([H])[H])c(C([H])([H])[H])c(C(=O)N4C([H])([H])C([H])([H])C([H])([H])C([H])(n5nc(-c6c([H])c([H])c(Oc7c([H])c([H])c(F)c([H])c7F)c([H])c6[H])c(C(=O)N([H])[H])c5N([H])[H])C4([H])[H])c3C([H])([H])[H])c([H])c([H])c2C1([H])[H]

>  <smiles>  (32) 
[H]c1c([H])c([H])c2c(c1[H])C([H])([H])C([H])([H])C([H])([H])C2([H])N([H])C(=O)C1([H])N(C(=O)C([H])(N([H])C(=O)C([H])(N([H])C([H])([H])[H])C([H])([H])[H])C(C([H])([H])[H])(C([H])([H])[H])C([H])([H])[H])C([H])([H])c2c([H])c(OC([H])([H])C([H])([H])C([H])([H])c3c([H])c(C([H])([H])C([H])([H])[H])c(C([H])([H])[H])c(C(=O)N4C([H])([H])C([H])([H])C([H])([H])C([H])(n5nc(-c6c([H])c([H])c(Oc7c([H])c([H])c(F)c([H])c7F)c([H])c6[H])c(C(=O)N([H])[H])c5N([H])[H])C4([H])[H])c3C([H])([H])[H])c([H])c([H])c2C1([H])[H]

$$$$
32:0:0
     RDKit          3D

 99108  0  0  1  0  0  0  0  0999 V2000
  -30.3160  -17.2990   20.6250 C   0  0  0  0  0  0  0  0  0  0  0  0
  -29.6220  -18.0320   19.7420 C   0  0  0  0  0  2  0  0  0  0  0  0
  -31.8030  -17.3940   20.8320 C   0  0  0  0  0  2  0  0  0  0  0  0
  -32.1870  -16.0530   21.4710 C   0  0  0  0  0  2  0  0  0  0  0  0
  -29.7740  -16.1590   21.4690 C   0  0  0  0  0  3  0  0  0  0  0  0
  -30.9360  -15.1060   21.4300 C   0  0  1  0  0  0  0  0  0  0  0  0
  -30.8550  -14.3550   20.0470 C   0  0  0  0  0  0  0  0  0  0  0  0
  -29.9950  -12.6200   18.5110 C   0  0  0  0  0  2  0  0  0  0  0  0
  -28.9460  -13.1420   17.5120 C   0  0  0  0  0  2  0  0  0  0  0  0
  -27.5400  -13.0370   18.1220 C   0  0  0  0  0  2  0  0  0  0  0  0
  -27.4740  -13.6830   19.5260 C   0  0  0  0  0  3  0  0  0  0  0  0
  -28.6260  -13.1990   20.4320 C   0  0  0  0  0  2  0  0  0  0  0  0
  -29.9150  -13.4120   19.7530 N   0  0  0  0  0  0  0  0  0  0  0  0
  -31.7250  -14.6280   19.2150 O   0  0  0  0  0  0  0  0  0  0  0  0
  -25.2590  -14.3900   20.6350 C   0  0  0  0  0  0  0  0  0  0  0  0
  -24.1770  -13.6640   21.0610 C   0  0  0  0  0  0  0  0  0  0  0  0
  -24.4950  -12.2960   20.8120 C   0  0  0  0  0  0  0  0  0  0  0  0
  -26.1730  -13.4630   20.1590 N   0  0  0  0  0  0  0  0  0  0  0  0
  -25.7250  -12.1920   20.3210 N   0  0  0  0  0  0  0  0  0  0  0  0
  -23.6820  -11.0830   20.9570 C   0  0  0  0  0  0  0  0  0  0  0  0
  -24.1540   -9.9540   21.6630 C   0  0  0  0  0  3  0  0  0  0  0  0
  -23.3450   -8.8050   21.8020 C   0  0  0  0  0  3  0  0  0  0  0  0
  -22.0490   -8.7790   21.2350 C   0  0  0  0  0  0  0  0  0  0  0  0
  -21.5930   -9.8960   20.5140 C   0  0  0  0  0  3  0  0  0  0  0  0
  -22.4010  -11.0350   20.3720 C   0  0  0  0  0  3  0  0  0  0  0  0
  -21.2030   -7.6970   21.2980 O   0  0  0  0  0  0  0  0  0  0  0  0
  -21.2830   -6.7790   22.3140 C   0  0  0  0  0  0  0  0  0  0  0  0
  -21.1930   -7.1580   23.6720 C   0  0  0  0  0  3  0  0  0  0  0  0
  -21.2110   -6.1740   24.6790 C   0  0  0  0  0  3  0  0  0  0  0  0
  -21.3100   -4.8130   24.3350 C   0  0  0  0  0  0  0  0  0  0  0  0
  -21.3940   -4.4330   22.9820 C   0  0  0  0  0  3  0  0  0  0  0  0
  -21.3780   -5.4130   21.9760 C   0  0  0  0  0  0  0  0  0  0  0  0
  -21.4390   -5.0410   20.6750 F   0  0  0  0  0  0  0  0  0  0  0  0
  -21.3190   -3.8660   25.3010 F   0  0  0  0  0  0  0  0  0  0  0  0
  -22.8780  -14.2160   21.5790 C   0  0  0  0  0  0  0  0  0  0  0  0
  -22.2150  -13.4860   22.4690 N   0  0  0  0  0  0  0  0  0  0  0  0
  -22.4690  -15.3230   21.2310 O   0  0  0  0  0  0  0  0  0  0  0  0
  -22.5600  -12.5860   22.7690 H   0  0  0  0  0  0  0  0  0  0  0  0
  -21.3480  -13.8340   22.8560 H   0  0  0  0  0  0  0  0  0  0  0  0
  -25.5340  -15.7510   20.5940 N   0  0  0  0  0  0  0  0  0  0  0  0
  -24.8560  -16.4520   20.8730 H   0  0  0  0  0  0  0  0  0  0  0  0
  -26.3890  -16.1510   20.2260 H   0  0  0  0  0  0  0  0  0  0  0  0
  -29.3620  -16.6110   22.9010 C   0  0  0  0  0  2  0  0  0  0  0  0
  -28.4000  -17.8100   22.9870 C   0  0  0  0  0  2  0  0  0  0  0  0
  -29.1090  -19.1730   22.8510 C   0  0  0  0  0  2  0  0  0  0  0  0
  -28.1590  -20.3100   22.4500 C   0  0  0  0  0  2  0  0  0  0  0  0
  -28.8460  -21.6880   22.5040 C   0  0  0  0  0  2  0  0  0  0  0  0
  -28.2110  -22.7370   21.5710 C   0  0  0  0  0  2  0  0  0  0  0  0
  -28.5250  -24.1960   21.9750 C   0  0  0  0  0  2  0  0  0  0  0  0
  -28.2000  -25.2110   20.8560 C   0  0  0  0  0  2  0  0  0  0  0  0
  -28.4670  -26.5620   21.2510 O   0  0  0  0  0  0  0  0  0  0  0  0
  -27.7440  -31.6780   26.1270 C   0  0  0  0  0  0  0  0  0  0  0  0
  -27.5690  -27.2690   22.0290 C   0  0  0  0  0  0  0  0  0  0  0  0
  -25.6950  -30.3810   25.6330 C   0  0  0  0  0  3  0  0  0  0  0  0
  -25.8150  -28.8440   23.6020 C   0  0  0  0  0  0  0  0  0  0  0  0
  -27.5190  -30.6610   23.8620 C   0  0  0  0  0  2  0  0  0  0  0  0
  -27.0980  -29.3150   23.3040 C   0  0  0  0  0  0  0  0  0  0  0  0
  -27.9720  -28.5380   22.5100 C   0  0  0  0  0  3  0  0  0  0  0  0
  -26.2720  -26.8020   22.3560 C   0  0  0  0  0  3  0  0  0  0  0  0
  -25.3950  -27.5870   23.1300 C   0  0  0  0  0  3  0  0  0  0  0  0
  -24.9340  -29.7410   24.4420 C   0  0  0  0  0  2  0  0  0  0  0  0
  -27.0380  -30.9190   25.2400 N   0  0  0  0  0  0  0  0  0  0  0  0
  -27.2790  -31.9630   27.2400 O   0  0  0  0  0  0  0  0  0  0  0  0
  -25.7650  -29.3470   26.7800 C   0  0  0  0  0  0  0  0  0  0  0  0
  -24.6570  -29.2110   27.5260 N   0  0  0  0  0  0  0  0  0  0  0  0
  -26.7830  -28.6710   26.9610 O   0  0  0  0  0  0  0  0  0  0  0  0
  -23.8700  -29.8070   27.3120 H   0  0  0  0  0  0  0  0  0  0  0  0
  -22.3030  -28.0550   30.0180 C   0  0  0  0  0  0  0  0  0  0  0  0
  -24.4720  -28.2680   28.6280 C   0  0  0  0  0  3  0  0  0  0  0  0
  -24.1550  -26.8480   28.1070 C   0  0  0  0  0  2  0  0  0  0  0  0
  -22.6530  -26.5630   28.0040 C   0  0  0  0  0  2  0  0  0  0  0  0
  -21.9820  -26.7180   29.3720 C   0  0  0  0  0  2  0  0  0  0  0  0
  -23.4620  -28.7900   29.6560 C   0  0  0  0  0  0  0  0  0  0  0  0
  -23.6950  -30.0450   30.2570 C   0  0  0  0  0  3  0  0  0  0  0  0
  -22.7960  -30.5650   31.2070 C   0  0  0  0  0  3  0  0  0  0  0  0
  -21.6580  -29.8260   31.5740 C   0  0  0  0  0  3  0  0  0  0  0  0
  -21.4130  -28.5740   30.9810 C   0  0  0  0  0  3  0  0  0  0  0  0
  -29.1600  -32.2370   25.7750 C   0  0  0  0  0  3  0  0  0  0  0  0
  -30.3350  -31.3870   26.3990 C   0  0  1  0  0  0  0  0  0  0  0  0
  -30.1870  -31.1360   27.9170 C   0  0  0  0  0  1  0  0  0  0  0  0
  -30.4490  -30.0090   25.7040 C   0  0  0  0  0  1  0  0  0  0  0  0
  -31.6810  -32.1110   26.1670 C   0  0  0  0  0  1  0  0  0  0  0  0
  -29.2130  -33.6250   26.2480 N   0  0  0  0  0  0  0  0  0  0  0  0
  -29.0210  -34.7010   25.4720 C   0  0  0  0  0  0  0  0  0  0  0  0
  -28.8520  -34.6260   24.2510 O   0  0  0  0  0  0  0  0  0  0  0  0
  -29.2840  -33.7580   27.2470 H   0  0  0  0  0  0  0  0  0  0  0  0
  -27.5750  -36.5500   26.3750 C   0  0  0  0  0  1  0  0  0  0  0  0
  -29.0220  -36.0800   26.1590 C   0  0  0  0  0  3  0  0  0  0  0  0
  -31.2130  -36.8680   25.3780 C   0  0  0  0  0  1  0  0  0  0  0  0
  -29.7730  -37.1100   25.4090 N   0  0  0  0  0  0  0  0  0  0  0  0
  -29.6150  -38.0320   25.8050 H   0  0  0  0  0  0  0  0  0  0  0  0
  -31.0200  -14.1750   22.6990 C   0  0  0  0  0  2  0  0  0  0  0  0
  -34.0870  -11.1150   23.3180 C   0  0  0  0  0  3  0  0  0  0  0  0
  -34.0600  -11.8220   22.1040 C   0  0  0  0  0  3  0  0  0  0  0  0
  -33.1690  -11.4350   24.3330 C   0  0  0  0  0  3  0  0  0  0  0  0
  -33.0930  -12.8240   21.8890 C   0  0  0  0  0  3  0  0  0  0  0  0
  -32.2120  -12.4530   24.1360 C   0  0  0  0  0  0  0  0  0  0  0  0
  -32.1390  -13.1390   22.8890 C   0  0  0  0  0  0  0  0  0  0  0  0
  -31.2800  -12.7960   25.2890 C   0  0  0  0  0  1  0  0  0  0  0  0
  1  3  1  0
  1  5  1  0
  2  1  2  0
  3  4  1  0
  5 43  1  0
  6  5  1  0
  6  4  1  0
  6 92  1  1
  7  6  1  0
  8 13  1  0
  9 10  1  0
  9  8  1  0
 11 10  1  0
 11 18  1  0
 11 12  1  0
 13  7  1  0
 13 12  1  0
 14  7  2  0
 15 16  2  0
 16 35  1  0
 17 20  1  0
 17 16  1  0
 18 19  1  0
 18 15  1  0
 19 17  2  0
 20 21  1  0
 21 22  2  0
 23 26  1  0
 23 22  1  0
 24 23  2  0
 25 24  1  0
 25 20  2  0
 26 27  1  0
 27 28  1  0
 28 29  2  0
 30 29  1  0
 30 34  1  0
 31 30  2  0
 32 27  2  0
 32 31  1  0
 33 32  1  0
 35 36  1  0
 36 38  1  0
 36 39  1  0
 37 35  2  0
 40 15  1  0
 40 41  1  0
 42 40  1  0
 43 44  1  0
 45 44  1  0
 46 47  1  0
 46 45  1  0
 48 49  1  0
 48 47  1  0
 50 51  1  0
 50 49  1  0
 51 53  1  0
 52 63  2  0
 53 59  2  0
 53 58  1  0
 54 64  1  0
 55 61  1  0
 56 62  1  0
 57 55  1  0
 57 56  1  0
 58 57  2  0
 59 60  1  0
 60 55  2  0
 61 54  1  0
 62 54  1  0
 62 52  1  0
 64 66  2  0
 64 65  1  0
 67 65  1  0
 68 77  1  0
 69 65  1  0
 69 73  1  0
 70 69  1  0
 71 70  1  0
 71 72  1  0
 72 68  1  0
 73 68  2  0
 73 74  1  0
 74 75  2  0
 75 76  1  0
 77 76  2  0
 78 52  1  0
 78 83  1  0
 78 79  1  0
 79 80  1  1
 81 79  1  0
 82 79  1  0
 83 86  1  0
 84 88  1  0
 84 83  1  0
 85 84  2  0
 88 87  1  0
 89 90  1  0
 90 91  1  0
 90 88  1  0
 92 98  1  0
 93 95  1  0
 94 93  2  0
 96 94  1  0
 96 98  2  0
 97 95  2  0
 97 99  1  0
 98 97  1  0
M  ISO  4   6 100   7 100  50 101  51 101
M  END
>  <TORSDO>  (33) 
F 26

>  <SCORE>  (33) 
23.620

>  <name>  (33) 
32

>  <ligand_id>  (33) 
32

>  <original_smiles>  (33) 
[H]C([H])=C1C([H])([H])C([H])([H])C(C(=O)N2C([H])([H])C([H])([H])C([H])([H])C([H])(n3nc(-c4c([H])c([H])c(Oc5c([H])c([H])c(F)c([H])c5F)c([H])c4[H])c(C(=O)N([H])[H])c3N([H])[H])C2([H])[H])(C([H])([H])c2c([H])c([H])c([H])c([H])c2C([H])([H])[H])C1([H])C([H])([H])C([H])([H])C([H])([H])C([H])([H])C([H])([H])C([H])([H])C([H])([H])C([H])([H])Oc1c([H])c([H])c2c(c1[H])C([H])([H])N(C(=O)C([H])(N([H])C(=O)C([H])(N([H])C([H])([H])[H])C([H])([H])[H])C(C([H])([H])[H])(C([H])([H])[H])C([H])([H])[H])C([H])(C(=O)N([H])C1([H])c3c([H])c([H])c([H])c([H])c3C([H])([H])C([H])([H])C1([H])[H])C2([H])[H]

>  <smiles>  (33) 
[H]C([H])=C1C([H])([H])C([H])([H])C(C(=O)N2C([H])([H])C([H])([H])C([H])([H])C([H])(n3nc(-c4c([H])c([H])c(Oc5c([H])c([H])c(F)c([H])c5F)c([H])c4[H])c(C(=O)N([H])[H])c3N([H])[H])C2([H])[H])(C([H])([H])c2c([H])c([H])c([H])c([H])c2C([H])([H])[H])C1([H])C([H])([H])C([H])([H])C([H])([H])C([H])([H])C([H])([H])C([H])([H])C([H])([H])C([H])([H])Oc1c([H])c([H])c2c(c1[H])C([H])([H])N(C(=O)C([H])(N([H])C(=O)C([H])(N([H])C([H])([H])[H])C([H])([H])[H])C(C([H])([H])[H])(C([H])([H])[H])C([H])([H])[H])C([H])(C(=O)N([H])C1([H])c3c([H])c([H])c([H])c([H])c3C([H])([H])C([H])([H])C1([H])[H])C2([H])[H]

$$$$
33:0:0
     RDKit          3D

 93 94  0  0  1  0  0  0  0  0999 V2000
  -29.1330  -17.5260   18.1680 C   0  0  0  0  0  3  0  0  0  0  0  0
  -28.6860  -16.5660   19.2100 C   0  0  0  0  0  0  0  0  0  0  0  0
  -28.0880  -17.7340   20.0720 C   0  0  0  0  0  1  0  0  0  0  0  0
  -29.3110  -18.9530   18.0300 C   0  0  0  0  0  0  0  0  0  0  0  0
  -27.9530  -20.1090   19.8640 C   0  0  0  0  0  1  0  0  0  0  0  0
  -28.7320  -20.0890   18.6930 C   0  0  0  0  0  0  0  0  0  0  0  0
  -29.2760  -14.1800   19.5590 C   0  0  0  0  0  2  0  0  0  0  0  0
  -28.4700  -15.0690   19.8560 C   0  0  2  0  0  0  0  0  0  0  0  0
  -28.8960  -13.7420   20.7850 C   0  0  0  0  0  1  0  0  0  0  0  0
  -29.0120  -21.2980   18.1650 F   0  0  0  0  0  0  0  0  0  0  0  0
  -27.7020  -22.5050   20.2240 O   0  0  0  0  0 15  0  0  0  0  0  0
  -24.9530  -31.6030   23.0550 C   0  0  0  0  0  0  0  0  0  0  0  0
  -27.0550  -24.6280   20.2330 C   0  0  0  0  0  3  0  0  0  0  0  0
  -23.7830  -30.1090   21.5080 C   0  0  0  0  0  3  0  0  0  0  0  0
  -25.1290  -27.9520   20.2210 C   0  0  0  0  0  0  0  0  0  0  0  0
  -26.3560  -29.5860   21.5960 C   0  0  0  0  0  2  0  0  0  0  0  0
  -26.3340  -27.9050   20.9310 C   0  0  0  0  0  0  0  0  0  0  0  0
  -27.1720  -26.3690   20.8660 C   0  0  0  0  0  3  0  0  0  0  0  0
  -25.8970  -25.3960   19.5060 C   0  0  0  0  0  3  0  0  0  0  0  0
  -25.0660  -26.7070   19.4890 C   0  0  0  0  0  3  0  0  0  0  0  0
  -24.0580  -29.1840   20.2290 C   0  0  0  0  0  2  0  0  0  0  0  0
  -25.0990  -30.5220   22.1050 N   0  0  0  0  0  0  0  0  0  0  0  0
  -23.8410  -32.0200   23.4560 O   0  0  0  0  0  0  0  0  0  0  0  0
  -22.8950  -29.3940   22.5760 C   0  0  0  0  0  0  0  0  0  0  0  0
  -21.5480  -29.3390   22.4550 N   0  0  0  0  0  0  0  0  0  0  0  0
  -23.4670  -28.8590   23.5250 O   0  0  0  0  0  0  0  0  0  0  0  0
  -21.1090  -29.8230   21.6840 H   0  0  0  0  0  0  0  0  0  0  0  0
  -18.1290  -28.1400   23.0450 C   0  0  0  0  0  0  0  0  0  0  0  0
  -20.6920  -28.4670   23.2860 C   0  0  0  0  0  3  0  0  0  0  0  0
  -20.8000  -26.9990   22.8100 C   0  0  0  0  0  2  0  0  0  0  0  0
  -19.7130  -26.6130   21.8000 C   0  0  0  0  0  2  0  0  0  0  0  0
  -18.3240  -26.7700   22.4230 C   0  0  0  0  0  2  0  0  0  0  0  0
  -19.2360  -28.9470   23.4310 C   0  0  0  0  0  0  0  0  0  0  0  0
  -18.9840  -30.2180   23.9910 C   0  0  0  0  0  3  0  0  0  0  0  0
  -17.6660  -30.6850   24.1620 C   0  0  0  0  0  3  0  0  0  0  0  0
  -16.5780  -29.8800   23.7810 C   0  0  0  0  0  3  0  0  0  0  0  0
  -16.8110  -28.6100   23.2270 C   0  0  0  0  0  3  0  0  0  0  0  0
  -26.1290  -32.4130   23.7460 C   0  0  0  0  0  3  0  0  0  0  0  0
  -25.7490  -33.8430   24.0180 N   0  0  0  0  0  0  0  0  0  0  0  0
  -26.1490  -34.9390   23.3440 C   0  0  0  0  0  0  0  0  0  0  0  0
  -26.8680  -34.8580   22.3500 O   0  0  0  0  0  0  0  0  0  0  0  0
  -25.1010  -33.9750   24.7810 H   0  0  0  0  0  0  0  0  0  0  0  0
  -24.4740  -36.8140   23.0180 C   0  0  0  0  0  1  0  0  0  0  0  0
  -25.6930  -36.3430   23.8290 C   0  0  0  0  0  3  0  0  0  0  0  0
  -27.8230  -37.2250   24.7020 C   0  0  0  0  0  1  0  0  0  0  0  0
  -26.7400  -37.3890   23.7370 N   0  0  0  0  0  0  0  0  0  0  0  0
  -26.3400  -38.3130   23.8680 H   0  0  0  0  0  0  0  0  0  0  0  0
  -26.5640  -31.7800   25.1290 C   0  0  1  0  0  0  0  0  0  0  0  0
  -25.4120  -31.6500   26.1550 C   0  0  0  0  0  1  0  0  0  0  0  0
  -27.1550  -30.3790   24.9240 C   0  0  0  0  0  1  0  0  0  0  0  0
  -27.6770  -32.6340   25.7890 C   0  0  0  0  0  1  0  0  0  0  0  0
  -30.4390  -19.3530   17.0470 C   0  0  0  0  0  2  0  0  0  0  0  0
  -31.7620  -19.8620   17.7080 C   0  0  0  0  0  2  0  0  0  0  0  0
  -32.7380  -18.7570   18.1670 C   0  0  0  0  0  2  0  0  0  0  0  0
  -32.3720  -18.2760   19.5710 C   0  0  0  0  0  2  0  0  0  0  0  0
  -33.1550  -17.0240   20.0160 C   0  0  0  0  0  2  0  0  0  0  0  0
  -32.6770  -16.4280   21.3750 C   0  0  0  0  0  2  0  0  0  0  0  0
  -31.7910  -15.1630   21.2180 C   0  0  0  0  0  0  0  0  0  0  0  0
  -31.3560  -14.7530   18.6710 C   0  0  0  0  0 15  0  0  0  0  0  0
  -29.7880  -13.8280   17.3100 C   0  0  0  0  0 15  0  0  0  0  0  0
  -27.6680  -13.9270   17.7720 C   0  0  0  0  0 15  0  0  0  0  0  0
  -26.8200  -14.8910   19.7720 C   0  0  0  0  0  2  0  0  0  0  0  0
  -28.7300  -15.7000   21.3200 C   0  0  0  0  0  1  0  0  0  0  0  0
  -30.7190  -15.4570   20.5370 N   0  0  0  0  0  1  0  0  0  0  0  0
  -32.3830  -14.1110   21.0430 O   0  0  0  0  0  0  0  0  0  0  0  0
  -24.7970  -13.7870   20.5800 C   0  0  0  0  0  0  0  0  0  0  0  0
  -24.1060  -12.7480   21.0320 C   0  0  0  0  0  0  0  0  0  0  0  0
  -24.7810  -11.5320   20.7360 C   0  0  0  0  0  3  0  0  0  0  0  0
  -25.9960  -13.4860   20.2600 N   0  0  0  0  0  0  0  0  0  0  0  0
  -26.0090  -11.9890   20.2170 N   0  0  0  0  0  2  0  0  0  0  0  0
  -24.1060  -10.1450   20.9370 C   0  0  0  0  0  0  0  0  0  0  0  0
  -24.4650   -9.1480   21.8970 C   0  0  0  0  0  3  0  0  0  0  0  0
  -23.6410   -8.0100   22.1750 C   0  0  0  0  0  3  0  0  0  0  0  0
  -22.4040   -7.8100   21.5110 C   0  0  0  0  0  0  0  0  0  0  0  0
  -22.0400   -8.7580   20.5390 C   0  0  0  0  0  3  0  0  0  0  0  0
  -22.8690   -9.8780   20.2640 C   0  0  0  0  0  3  0  0  0  0  0  0
  -21.5640   -6.7190   21.6920 O   0  0  0  0  0  0  0  0  0  0  0  0
  -21.4820   -6.0150   22.8740 C   0  0  0  0  0  0  0  0  0  0  0  0
  -21.0360   -6.6290   24.0650 C   0  0  0  0  0  3  0  0  0  0  0  0
  -20.8960   -5.8730   25.2490 C   0  0  0  0  0  3  0  0  0  0  0  0
  -21.1820   -4.4960   25.2460 C   0  0  0  0  0  0  0  0  0  0  0  0
  -21.6080   -3.8730   24.0610 C   0  0  0  0  0  3  0  0  0  0  0  0
  -21.7480   -4.6240   22.8810 C   0  0  0  0  0  0  0  0  0  0  0  0
  -22.1290   -3.9980   21.7400 F   0  0  0  0  0  0  0  0  0  0  0  0
  -21.0670   -3.7730   26.3880 F   0  0  0  0  0  0  0  0  0  0  0  0
  -22.7900  -13.0280   21.6280 C   0  0  0  0  0  0  0  0  0  0  0  0
  -22.4160  -12.3120   22.6680 N   0  0  0  0  0  0  0  0  0  0  0  0
  -22.1430  -14.0050   21.2490 O   0  0  0  0  0  0  0  0  0  0  0  0
  -23.0000  -11.5680   23.0300 H   0  0  0  0  0  0  0  0  0  0  0  0
  -21.5390  -12.5140   23.1330 H   0  0  0  0  0  0  0  0  0  0  0  0
  -24.4430  -15.1000   20.4460 N   0  0  0  0  0  0  0  0  0  0  0  0
  -23.4490  -15.2590   20.5900 H   0  0  0  0  0  0  0  0  0  0  0  0
  -24.8020  -15.6240   19.6620 H   0  0  0  0  0  0  0  0  0  0  0  0
  1  2  2  0
  2  8  1  0
  2  3  1  0
  4  1  1  0
  4  6  2  0
  6  5  1  0
  7  8  1  0
  7  9  1  0
  8 63  1  1
 10  6  1  0
 12 23  2  0
 13 18  1  0
 14 22  1  0
 14 24  1  0
 15 21  1  0
 15 17  1  0
 16 22  1  0
 17 16  1  0
 18 17  2  0
 19 13  2  0
 20 19  1  0
 20 15  2  0
 21 14  1  0
 22 12  1  0
 24 26  2  0
 25 24  1  0
 27 25  1  0
 28 37  2  0
 28 33  1  0
 29 25  1  0
 29 33  1  0
 30 29  1  0
 31 32  1  0
 31 30  1  0
 32 28  1  0
 33 34  2  0
 34 35  1  0
 36 35  2  0
 37 36  1  0
 38 12  1  0
 38 39  1  0
 38 48  1  0
 39 42  1  0
 40 44  1  0
 40 39  1  0
 41 40  2  0
 44 43  1  0
 46 44  1  0
 46 47  1  0
 46 45  1  0
 48 51  1  1
 48 49  1  0
 50 48  1  0
 52 53  1  0
 52  4  1  0
 53 54  1  0
 54 55  1  0
 55 56  1  0
 56 57  1  0
 58 57  1  0
 62  8  1  0
 62 69  1  0
 64 58  1  0
 65 58  2  0
 66 67  2  0
 67 86  1  0
 68 71  1  0
 68 67  1  0
 69 66  1  0
 70 69  1  0
 70 68  1  0
 71 72  1  0
 72 73  2  0
 74 77  1  0
 74 73  1  0
 75 74  2  0
 76 75  1  0
 76 71  2  0
 77 78  1  0
 78 83  2  0
 78 79  1  0
 79 80  2  0
 81 80  1  0
 81 85  1  0
 82 81  2  0
 83 82  1  0
 84 83  1  0
 86 87  1  0
 87 89  1  0
 87 90  1  0
 88 86  2  0
 91 66  1  0
 91 92  1  0
 93 91  1  0
M  ISO  4   5 101  11 101  57 100  58 100
M  END
>  <TORSDO>  (34) 
F 22

>  <SCORE>  (34) 
-7.418

>  <name>  (34) 
33

>  <ligand_id>  (34) 
33

>  <original_smiles>  (34) 
[H]c1c([H])c([H])c2c(c1[H])C([H])([H])C([H])([H])C([H])([H])C2([H])N([H])C(=O)C1([H])N(C(=O)C([H])(N([H])C(=O)C([H])(N([H])C([H])([H])[H])C([H])([H])[H])C(C([H])([H])[H])(C([H])([H])[H])C([H])([H])[H])C([H])([H])c2c([H])c(Oc3c(F)c(C([H])([H])C([H])([H])C([H])([H])C([H])([H])C([H])([H])C([H])([H])C(=O)N4C([H])([H])C([H])([H])C([H])([H])C([H])(n5nc(-c6c([H])c([H])c(Oc7c([H])c([H])c(F)c([H])c7F)c([H])c6[H])c(C(=O)N([H])[H])c5N([H])[H])C4([H])[H])c([H])c4c3C([H])([H])C([H])([H])C4([H])[H])c([H])c([H])c2C1([H])[H]

>  <smiles>  (34) 
[H]c1c([H])c([H])c2c(c1[H])C([H])([H])C([H])([H])C([H])([H])C2([H])N([H])C(=O)C1([H])N(C(=O)C([H])(N([H])C(=O)C([H])(N([H])C([H])([H])[H])C([H])([H])[H])C(C([H])([H])[H])(C([H])([H])[H])C([H])([H])[H])C([H])([H])c2c([H])c(Oc3c(F)c(C([H])([H])C([H])([H])C([H])([H])C([H])([H])C([H])([H])C([H])([H])C(=O)N4C([H])([H])C([H])([H])C([H])([H])C([H])(n5nc(-c6c([H])c([H])c(Oc7c([H])c([H])c(F)c([H])c7F)c([H])c6[H])c(C(=O)N([H])[H])c5N([H])[H])C4([H])[H])c([H])c4c3C([H])([H])C([H])([H])C4([H])[H])c([H])c([H])c2C1([H])[H]

$$$$
34:0:0
     RDKit          3D

 94103  0  0  1  0  0  0  0  0999 V2000
  -29.2390  -21.5080   20.7680 C   0  0  0  0  0  3  0  0  0  0  0  0
  -29.3350  -20.2090   21.3180 C   0  0  0  0  0  3  0  0  0  0  0  0
  -29.7710  -20.6120   18.5740 C   0  0  0  0  0  3  0  0  0  0  0  0
  -29.5200  -21.7230   19.4000 C   0  0  0  0  0  0  0  0  0  0  0  0
  -29.7410  -19.1170   20.5120 C   0  0  0  0  0  0  0  0  0  0  0  0
  -29.9050  -19.3280   19.1220 C   0  0  0  0  0  0  0  0  0  0  0  0
  -30.2680  -18.3250   18.2920 F   0  0  0  0  0  0  0  0  0  0  0  0
  -30.7020  -23.9990   19.5220 C   0  0  0  0  0  2  0  0  0  0  0  0
  -28.2890  -23.8430   18.6370 C   0  0  0  0  0  2  0  0  0  0  0  0
  -30.1210  -25.2460   20.2170 C   0  0  0  0  0  2  0  0  0  0  0  0
  -28.5360  -25.3040   18.2210 C   0  0  0  0  0  2  0  0  0  0  0  0
  -29.6410  -23.1250   18.8070 C   0  0  0  0  0  3  0  0  0  0  0  0
  -29.1870  -26.1380   19.3480 C   0  0  0  0  0  3  0  0  0  0  0  0
  -28.3580  -26.7350   20.3530 O   0  0  0  0  0  0  0  0  0  0  0  0
  -24.5520  -31.9270   23.2330 C   0  0  0  0  0  0  0  0  0  0  0  0
  -27.2220  -27.4880   20.1480 C   0  0  0  0  0  0  0  0  0  0  0  0
  -23.3440  -30.5130   21.5960 C   0  0  0  0  0  3  0  0  0  0  0  0
  -24.8060  -28.9730   20.1690 C   0  0  0  0  0  0  0  0  0  0  0  0
  -25.8690  -30.8780   21.3940 C   0  0  0  0  0  2  0  0  0  0  0  0
  -25.9600  -29.5100   20.7490 C   0  0  0  0  0  0  0  0  0  0  0  0
  -27.1660  -28.7730   20.7390 C   0  0  0  0  0  3  0  0  0  0  0  0
  -26.0420  -26.9510   19.5920 C   0  0  0  0  0  3  0  0  0  0  0  0
  -24.8430  -27.6930   19.5870 C   0  0  0  0  0  3  0  0  0  0  0  0
  -23.5490  -29.8150   20.2220 C   0  0  0  0  0  2  0  0  0  0  0  0
  -24.6050  -31.1250   22.1300 N   0  0  0  0  0  0  0  0  0  0  0  0
  -23.4740  -32.2000   23.7750 O   0  0  0  0  0  0  0  0  0  0  0  0
  -22.6920  -29.5040   22.5670 C   0  0  0  0  0  0  0  0  0  0  0  0
  -21.3660  -29.3280   22.4470 N   0  0  0  0  0  0  0  0  0  0  0  0
  -23.3760  -28.8830   23.3850 O   0  0  0  0  0  0  0  0  0  0  0  0
  -20.8830  -29.8740   21.7450 H   0  0  0  0  0  0  0  0  0  0  0  0
  -17.9870  -28.1590   22.9620 C   0  0  0  0  0  0  0  0  0  0  0  0
  -20.5480  -28.3960   23.2180 C   0  0  0  0  0  3  0  0  0  0  0  0
  -20.6360  -26.9660   22.6350 C   0  0  0  0  0  2  0  0  0  0  0  0
  -19.5230  -26.6530   21.6290 C   0  0  0  0  0  2  0  0  0  0  0  0
  -18.1480  -26.8090   22.2810 C   0  0  0  0  0  2  0  0  0  0  0  0
  -19.1140  -28.9090   23.3850 C   0  0  0  0  0  0  0  0  0  0  0  0
  -18.9100  -30.1740   23.9780 C   0  0  0  0  0  3  0  0  0  0  0  0
  -17.6110  -30.6850   24.1550 C   0  0  0  0  0  3  0  0  0  0  0  0
  -16.4980  -29.9290   23.7460 C   0  0  0  0  0  3  0  0  0  0  0  0
  -16.6850  -28.6690   23.1550 C   0  0  0  0  0  3  0  0  0  0  0  0
  -25.8400  -32.5600   23.8470 C   0  0  0  0  0  3  0  0  0  0  0  0
  -26.3620  -31.7940   25.1280 C   0  0  1  0  0  0  0  0  0  0  0  0
  -25.2730  -31.5570   26.1990 C   0  0  0  0  0  1  0  0  0  0  0  0
  -26.9470  -30.4180   24.7380 C   0  0  0  0  0  1  0  0  0  0  0  0
  -27.5100  -32.5960   25.7850 C   0  0  0  0  0  1  0  0  0  0  0  0
  -25.5350  -33.9600   24.1710 N   0  0  0  0  0  0  0  0  0  0  0  0
  -25.8840  -35.0100   23.4140 C   0  0  0  0  0  0  0  0  0  0  0  0
  -26.5710  -34.9030   22.3950 O   0  0  0  0  0  0  0  0  0  0  0  0
  -24.9230  -34.1180   24.9590 H   0  0  0  0  0  0  0  0  0  0  0  0
  -24.1810  -36.8200   23.0230 C   0  0  0  0  0  1  0  0  0  0  0  0
  -25.3980  -36.4020   23.8640 C   0  0  0  0  0  3  0  0  0  0  0  0
  -27.5160  -37.2690   24.7580 C   0  0  0  0  0  1  0  0  0  0  0  0
  -26.4440  -37.4460   23.7810 N   0  0  0  0  0  0  0  0  0  0  0  0
  -26.0410  -38.3710   23.9070 H   0  0  0  0  0  0  0  0  0  0  0  0
  -30.1500  -17.7980   21.1700 C   0  0  0  0  0  2  0  0  0  0  0  0
  -29.6090  -16.4990   20.5300 C   0  0  0  0  0  2  0  0  0  0  0  0
  -30.8120  -14.4170   20.3700 C   0  0  0  0  0  0  0  0  0  0  0  0
  -30.4340  -12.3590   19.0730 C   0  0  0  0  0  2  0  0  0  0  0  0
  -29.4540  -12.6130   17.9120 C   0  0  0  0  0  2  0  0  0  0  0  0
  -27.9960  -12.4510   18.3800 C   0  0  0  0  0  2  0  0  0  0  0  0
  -27.6980  -13.2710   19.6670 C   0  0  0  0  0  3  0  0  0  0  0  0
  -28.7720  -12.9840   20.7370 C   0  0  0  0  0  2  0  0  0  0  0  0
  -30.0920  -13.2900   20.1560 N   0  0  0  0  0  0  0  0  0  0  0  0
  -31.8860  -14.6700   19.8140 O   0  0  0  0  0  0  0  0  0  0  0  0
  -30.2190  -15.3250   21.1550 N   0  0  0  0  0  0  0  0  0  0  0  0
  -30.7880  -15.5810   21.9500 H   0  0  0  0  0  0  0  0  0  0  0  0
  -25.3210  -13.8920   20.4470 C   0  0  0  0  0  0  0  0  0  0  0  0
  -24.2560  -13.1170   20.8300 C   0  0  0  0  0  0  0  0  0  0  0  0
  -24.7150  -11.7660   20.7770 C   0  0  0  0  0  0  0  0  0  0  0  0
  -26.3550  -13.0060   20.1750 N   0  0  0  0  0  0  0  0  0  0  0  0
  -25.9930  -11.7230   20.4270 N   0  0  0  0  0  0  0  0  0  0  0  0
  -23.9970  -10.5010   20.9760 C   0  0  0  0  0  0  0  0  0  0  0  0
  -24.4370   -9.5380   21.9100 C   0  0  0  0  0  3  0  0  0  0  0  0
  -23.7150   -8.3390   22.0970 C   0  0  0  0  0  3  0  0  0  0  0  0
  -22.5420   -8.0940   21.3420 C   0  0  0  0  0  0  0  0  0  0  0  0
  -22.1210   -9.0460   20.3980 C   0  0  0  0  0  3  0  0  0  0  0  0
  -22.8450  -10.2370   20.2110 C   0  0  0  0  0  3  0  0  0  0  0  0
  -21.7910   -6.9480   21.4370 O   0  0  0  0  0  0  0  0  0  0  0  0
  -21.7270   -6.2230   22.6000 C   0  0  0  0  0  0  0  0  0  0  0  0
  -21.2560   -6.7890   23.8050 C   0  0  0  0  0  3  0  0  0  0  0  0
  -21.1420   -5.9870   24.9600 C   0  0  0  0  0  3  0  0  0  0  0  0
  -21.4910   -4.6250   24.9110 C   0  0  0  0  0  0  0  0  0  0  0  0
  -21.9550   -4.0600   23.7110 C   0  0  0  0  0  3  0  0  0  0  0  0
  -22.0730   -4.8580   22.5580 C   0  0  0  0  0  0  0  0  0  0  0  0
  -22.5010   -4.3030   21.3990 F   0  0  0  0  0  0  0  0  0  0  0  0
  -21.3780   -3.8550   26.0190 F   0  0  0  0  0  0  0  0  0  0  0  0
  -22.8690  -13.5960   21.1430 C   0  0  0  0  0  0  0  0  0  0  0  0
  -22.1620  -12.8840   22.0190 N   0  0  0  0  0  0  0  0  0  0  0  0
  -22.4190  -14.6270   20.6480 O   0  0  0  0  0  0  0  0  0  0  0  0
  -22.5450  -12.0440   22.4280 H   0  0  0  0  0  0  0  0  0  0  0  0
  -21.2310  -13.1730   22.2840 H   0  0  0  0  0  0  0  0  0  0  0  0
  -25.4900  -15.2620   20.2880 N   0  0  0  0  0  0  0  0  0  0  0  0
  -24.7430  -15.9290   20.4450 H   0  0  0  0  0  0  0  0  0  0  0  0
  -26.3500  -15.6930   19.9710 H   0  0  0  0  0  0  0  0  0  0  0  0
  1  2  1  0
  3  6  2  0
  3  4  1  0
  4  1  2  0
  5 55  1  0
  5  2  2  0
  6  5  1  0
  7  6  1  0
  8 10  1  0
  9 12  1  0
 11  9  1  0
 11 13  1  0
 12  4  1  0
 12  8  1  0
 13 10  1  0
 13 14  1  0
 15 26  2  0
 16 14  1  0
 16 21  1  0
 17 25  1  0
 17 27  1  0
 18 24  1  0
 18 20  1  0
 19 25  1  0
 20 19  1  0
 21 20  2  0
 22 16  2  0
 23 22  1  0
 23 18  2  0
 24 17  1  0
 25 15  1  0
 27 29  2  0
 28 27  1  0
 30 28  1  0
 31 40  2  0
 31 36  1  0
 32 28  1  0
 32 36  1  0
 33 32  1  0
 34 35  1  0
 34 33  1  0
 35 31  1  0
 36 37  2  0
 37 38  1  0
 39 38  2  0
 40 39  1  0
 41 15  1  0
 41 46  1  0
 41 42  1  0
 42 45  1  1
 42 43  1  0
 44 42  1  0
 46 49  1  0
 47 51  1  0
 47 46  1  0
 48 47  2  0
 51 50  1  0
 53 51  1  0
 53 54  1  0
 53 52  1  0
 56 65  1  0
 56 55  1  0
 57 65  1  0
 58 63  1  0
 59 60  1  0
 59 58  1  0
 61 60  1  0
 61 70  1  0
 61 62  1  0
 63 57  1  0
 63 62  1  0
 64 57  2  0
 65 66  1  0
 67 68  2  0
 68 87  1  0
 69 68  1  0
 69 72  1  0
 70 71  1  0
 70 67  1  0
 71 69  2  0
 72 73  1  0
 73 74  2  0
 75 78  1  0
 75 74  1  0
 76 75  2  0
 77 76  1  0
 77 72  2  0
 78 79  1  0
 79 80  1  0
 80 81  2  0
 82 81  1  0
 82 86  1  0
 83 82  2  0
 84 79  2  0
 84 83  1  0
 85 84  1  0
 87 88  1  0
 88 91  1  0
 88 90  1  0
 89 87  2  0
 92 93  1  0
 92 67  1  0
 94 92  1  0
M  ISO  4  13 101  14 101  57 100  65 100
M  END
>  <TORSDO>  (35) 
F 19

>  <SCORE>  (35) 
-14.355

>  <name>  (35) 
34

>  <ligand_id>  (35) 
34

>  <original_smiles>  (35) 
[H]c1c([H])c([H])c2c(c1[H])C([H])([H])C([H])([H])C([H])([H])C2([H])N([H])C(=O)C1([H])N(C(=O)C([H])(N([H])C(=O)C([H])(N([H])C([H])([H])[H])C([H])([H])[H])C(C([H])([H])[H])(C([H])([H])[H])C([H])([H])[H])C([H])([H])c2c([H])c(OC3([H])C([H])([H])C([H])([H])C([H])(c4c([H])c([H])c(C([H])([H])C([H])([H])N([H])C(=O)N5C([H])([H])C([H])([H])C([H])([H])C([H])(n6nc(-c7c([H])c([H])c(Oc8c([H])c([H])c(F)c([H])c8F)c([H])c7[H])c(C(=O)N([H])[H])c6N([H])[H])C5([H])[H])c(F)c4[H])C([H])([H])C3([H])[H])c([H])c([H])c2C1([H])[H]

>  <smiles>  (35) 
[H]c1c([H])c([H])c2c(c1[H])C([H])([H])C([H])([H])C([H])([H])C2([H])N([H])C(=O)C1([H])N(C(=O)C([H])(N([H])C(=O)C([H])(N([H])C([H])([H])[H])C([H])([H])[H])C(C([H])([H])[H])(C([H])([H])[H])C([H])([H])[H])C([H])([H])c2c([H])c(OC3([H])C([H])([H])C([H])([H])C([H])(c4c([H])c([H])c(C([H])([H])C([H])([H])N([H])C(=O)N5C([H])([H])C([H])([H])C([H])([H])C([H])(n6nc(-c7c([H])c([H])c(Oc8c([H])c([H])c(F)c([H])c8F)c([H])c7[H])c(C(=O)N([H])[H])c6N([H])[H])C5([H])[H])c(F)c4[H])C([H])([H])C3([H])[H])c([H])c([H])c2C1([H])[H]

$$$$
35:0:0
     RDKit          3D

 92100  0  0  1  0  0  0  0  0999 V2000
  -31.7070  -23.5830   18.2950 C   0  0  0  0  0  3  0  0  0  0  0  0
  -32.3830  -22.3530   18.2740 C   0  0  0  0  0  3  0  0  0  0  0  0
  -30.0960  -22.6830   19.8830 C   0  0  0  0  0  3  0  0  0  0  0  0
  -30.5540  -23.7710   19.0920 C   0  0  0  0  0  0  0  0  0  0  0  0
  -31.9300  -21.2770   19.0590 C   0  0  0  0  0  0  0  0  0  0  0  0
  -30.7840  -21.4400   19.8800 C   0  0  0  0  0  0  0  0  0  0  0  0
  -32.7030  -19.9670   19.0130 C   0  0  0  0  0  1  0  0  0  0  0  0
  -29.9440  -25.1470   19.0910 C   0  0  0  0  0  0  0  0  0  0  0  0
  -30.5520  -26.1190   18.6250 O   0  0  0  0  0  0  0  0  0  0  0  0
  -28.5170  -25.3800   19.6200 C   0  0  0  0  0  2  0  0  0  0  0  0
  -28.4280  -26.7320   20.1070 O   0  0  0  0  0  0  0  0  0  0  0  0
  -24.6160  -31.8600   23.2290 C   0  0  0  0  0  0  0  0  0  0  0  0
  -27.2230  -27.4030   20.1210 C   0  0  0  0  0  0  0  0  0  0  0  0
  -23.3940  -30.4610   21.5970 C   0  0  0  0  0  3  0  0  0  0  0  0
  -24.8280  -28.9160   20.1640 C   0  0  0  0  0  0  0  0  0  0  0  0
  -25.9190  -30.8090   21.3820 C   0  0  0  0  0  2  0  0  0  0  0  0
  -25.9920  -29.4360   20.7420 C   0  0  0  0  0  0  0  0  0  0  0  0
  -27.1880  -28.6860   20.7180 C   0  0  0  0  0  3  0  0  0  0  0  0
  -26.0310  -26.8870   19.5600 C   0  0  0  0  0  3  0  0  0  0  0  0
  -24.8420  -27.6400   19.5750 C   0  0  0  0  0  3  0  0  0  0  0  0
  -23.5900  -29.7820   20.2150 C   0  0  0  0  0  2  0  0  0  0  0  0
  -24.6610  -31.0580   22.1280 N   0  0  0  0  0  0  0  0  0  0  0  0
  -23.5390  -32.1360   23.7750 O   0  0  0  0  0  0  0  0  0  0  0  0
  -22.7480  -29.4390   22.5610 C   0  0  0  0  0  0  0  0  0  0  0  0
  -21.4230  -29.2600   22.4430 N   0  0  0  0  0  0  0  0  0  0  0  0
  -23.4370  -28.8110   23.3710 O   0  0  0  0  0  0  0  0  0  0  0  0
  -20.9290  -29.8200   21.7610 H   0  0  0  0  0  0  0  0  0  0  0  0
  -18.0490  -28.0760   22.9560 C   0  0  0  0  0  0  0  0  0  0  0  0
  -20.6080  -28.3250   23.2190 C   0  0  0  0  0  3  0  0  0  0  0  0
  -20.7050  -26.8940   22.6410 C   0  0  0  0  0  2  0  0  0  0  0  0
  -19.5960  -26.5740   21.6320 C   0  0  0  0  0  2  0  0  0  0  0  0
  -18.2170  -26.7250   22.2810 C   0  0  0  0  0  2  0  0  0  0  0  0
  -19.1720  -28.8350   23.3820 C   0  0  0  0  0  0  0  0  0  0  0  0
  -18.9590  -30.1000   23.9700 C   0  0  0  0  0  3  0  0  0  0  0  0
  -17.6570  -30.6070   24.1390 C   0  0  0  0  0  3  0  0  0  0  0  0
  -16.5490  -29.8440   23.7310 C   0  0  0  0  0  3  0  0  0  0  0  0
  -16.7460  -28.5810   23.1460 C   0  0  0  0  0  3  0  0  0  0  0  0
  -25.9070  -32.4880   23.8380 C   0  0  0  0  0  3  0  0  0  0  0  0
  -25.6020  -33.8840   24.1770 N   0  0  0  0  0  0  0  0  0  0  0  0
  -25.9280  -34.9390   23.4200 C   0  0  0  0  0  0  0  0  0  0  0  0
  -26.5910  -34.8410   22.3830 O   0  0  0  0  0  0  0  0  0  0  0  0
  -25.0120  -34.0340   24.9820 H   0  0  0  0  0  0  0  0  0  0  0  0
  -24.1960  -36.7320   23.0860 C   0  0  0  0  0  1  0  0  0  0  0  0
  -25.4430  -36.3240   23.8870 C   0  0  0  0  0  3  0  0  0  0  0  0
  -27.5870  -37.2030   24.7020 C   0  0  0  0  0  1  0  0  0  0  0  0
  -26.4740  -37.3800   23.7720 N   0  0  0  0  0  0  0  0  0  0  0  0
  -26.0670  -38.2970   23.9360 H   0  0  0  0  0  0  0  0  0  0  0  0
  -26.4400  -31.7090   25.1030 C   0  0  1  0  0  0  0  0  0  0  0  0
  -25.3600  -31.4650   26.1830 C   0  0  0  0  0  1  0  0  0  0  0  0
  -27.0150  -30.3320   24.6930 C   0  0  0  0  0  1  0  0  0  0  0  0
  -27.5970  -32.4980   25.7570 C   0  0  0  0  0  1  0  0  0  0  0  0
  -30.3260  -20.3040   20.7970 C   0  0  0  0  0  2  0  0  0  0  0  0
  -29.2570  -19.3830   20.1770 C   0  0  0  0  0  2  0  0  0  0  0  0
  -29.1370  -18.0050   20.8700 C   0  0  0  0  0  2  0  0  0  0  0  0
  -30.1680  -16.9530   20.3960 C   0  0  0  0  0  2  0  0  0  0  0  0
  -30.0440  -15.6010   21.1470 C   0  0  0  0  0  2  0  0  0  0  0  0
  -30.6860  -14.4080   20.3960 C   0  0  0  0  0  0  0  0  0  0  0  0
  -30.3600  -12.2710   19.1890 C   0  0  0  0  0  2  0  0  0  0  0  0
  -29.4040  -12.5230   18.0020 C   0  0  0  0  0  2  0  0  0  0  0  0
  -27.9320  -12.4030   18.4480 C   0  0  0  0  0  2  0  0  0  0  0  0
  -27.6270  -13.2130   19.7370 C   0  0  0  0  0  3  0  0  0  0  0  0
  -28.6940  -12.9260   20.8180 C   0  0  0  0  0  2  0  0  0  0  0  0
  -30.0110  -13.2340   20.2460 N   0  0  0  0  0  0  0  0  0  0  0  0
  -31.7850  -14.5980   19.8670 O   0  0  0  0  0  0  0  0  0  0  0  0
  -25.2340  -13.8370   20.4480 C   0  0  0  0  0  0  0  0  0  0  0  0
  -24.1650  -13.0690   20.8250 C   0  0  0  0  0  0  0  0  0  0  0  0
  -24.6200  -11.7160   20.8000 C   0  0  0  0  0  0  0  0  0  0  0  0
  -26.2750  -12.9500   20.2220 N   0  0  0  0  0  0  0  0  0  0  0  0
  -25.9090  -11.6700   20.4890 N   0  0  0  0  0  0  0  0  0  0  0  0
  -23.8900  -10.4590   21.0030 C   0  0  0  0  0  0  0  0  0  0  0  0
  -24.3270   -9.4900   21.9330 C   0  0  0  0  0  3  0  0  0  0  0  0
  -23.5960   -8.2970   22.1220 C   0  0  0  0  0  3  0  0  0  0  0  0
  -22.4120   -8.0650   21.3820 C   0  0  0  0  0  0  0  0  0  0  0  0
  -21.9940   -9.0230   20.4410 C   0  0  0  0  0  3  0  0  0  0  0  0
  -22.7260  -10.2060   20.2490 C   0  0  0  0  0  3  0  0  0  0  0  0
  -21.6510   -6.9260   21.4830 O   0  0  0  0  0  0  0  0  0  0  0  0
  -21.6210   -6.1790   22.6340 C   0  0  0  0  0  0  0  0  0  0  0  0
  -21.2340   -6.7360   23.8720 C   0  0  0  0  0  3  0  0  0  0  0  0
  -21.1490   -5.9170   25.0150 C   0  0  0  0  0  3  0  0  0  0  0  0
  -21.4390   -4.5430   24.9230 C   0  0  0  0  0  0  0  0  0  0  0  0
  -21.8190   -3.9860   23.6900 C   0  0  0  0  0  3  0  0  0  0  0  0
  -21.9070   -4.8020   22.5480 C   0  0  0  0  0  0  0  0  0  0  0  0
  -22.2510   -4.2540   21.3570 F   0  0  0  0  0  0  0  0  0  0  0  0
  -21.3520   -3.7560   26.0200 F   0  0  0  0  0  0  0  0  0  0  0  0
  -22.7720  -13.5530   21.1010 C   0  0  0  0  0  0  0  0  0  0  0  0
  -22.0520  -12.8660   21.9830 N   0  0  0  0  0  0  0  0  0  0  0  0
  -22.3320  -14.5740   20.5730 O   0  0  0  0  0  0  0  0  0  0  0  0
  -22.4250  -12.0400   22.4270 H   0  0  0  0  0  0  0  0  0  0  0  0
  -21.1170  -13.1690   22.2150 H   0  0  0  0  0  0  0  0  0  0  0  0
  -25.3980  -15.2080   20.2620 N   0  0  0  0  0  0  0  0  0  0  0  0
  -24.6260  -15.8600   20.3620 H   0  0  0  0  0  0  0  0  0  0  0  0
  -26.2450  -15.6510   19.9320 H   0  0  0  0  0  0  0  0  0  0  0  0
  1  4  1  0
  2  1  2  0
  2  5  1  0
  4  3  2  0
  5  6  2  0
  6  3  1  0
  6 52  1  0
  7  5  1  0
  8  4  1  0
  8 10  1  0
  9  8  2  0
 10 11  1  0
 11 13  1  0
 12 23  2  0
 13 18  1  0
 14 22  1  0
 14 24  1  0
 15 21  1  0
 15 17  1  0
 16 22  1  0
 17 16  1  0
 18 17  2  0
 19 20  1  0
 19 13  2  0
 20 15  2  0
 21 14  1  0
 22 12  1  0
 24 26  2  0
 25 24  1  0
 27 25  1  0
 28 37  2  0
 28 33  1  0
 29 25  1  0
 29 33  1  0
 30 29  1  0
 31 32  1  0
 31 30  1  0
 32 28  1  0
 33 34  2  0
 34 35  1  0
 36 35  2  0
 37 36  1  0
 38 12  1  0
 38 39  1  0
 38 48  1  0
 39 42  1  0
 40 44  1  0
 40 39  1  0
 41 40  2  0
 44 43  1  0
 46 44  1  0
 46 47  1  0
 46 45  1  0
 48 51  1  1
 48 49  1  0
 50 48  1  0
 53 52  1  0
 53 54  1  0
 55 54  1  0
 55 56  1  0
 57 56  1  0
 58 63  1  0
 59 60  1  0
 59 58  1  0
 61 60  1  0
 61 68  1  0
 61 62  1  0
 63 57  1  0
 63 62  1  0
 64 57  2  0
 65 66  2  0
 66 85  1  0
 67 66  1  0
 67 70  1  0
 68 65  1  0
 68 69  1  0
 69 67  2  0
 70 71  1  0
 71 72  2  0
 73 76  1  0
 73 72  1  0
 74 73  2  0
 75 74  1  0
 75 70  2  0
 76 77  1  0
 77 78  1  0
 78 79  2  0
 80 79  1  0
 80 84  1  0
 81 80  2  0
 82 77  2  0
 82 81  1  0
 83 82  1  0
 85 86  1  0
 86 89  1  0
 86 88  1  0
 87 85  2  0
 90 91  1  0
 90 65  1  0
 92 90  1  0
M  ISO  4  10 101  11 101  56 100  57 100
M  END
>  <TORSDO>  (36) 
F 23

>  <SCORE>  (36) 
-12.663

>  <name>  (36) 
35

>  <ligand_id>  (36) 
35

>  <original_smiles>  (36) 
[H]c1c([H])c([H])c2c(c1[H])C([H])([H])C([H])([H])C([H])([H])C2([H])N([H])C(=O)C1([H])N(C(=O)C([H])(N([H])C(=O)C([H])(N([H])C([H])([H])[H])C([H])([H])[H])C(C([H])([H])[H])(C([H])([H])[H])C([H])([H])[H])C([H])([H])c2c([H])c(OC([H])([H])C(=O)c3c([H])c([H])c(C([H])([H])[H])c(C([H])([H])C([H])([H])C([H])([H])C([H])([H])C([H])([H])C(=O)N4C([H])([H])C([H])([H])C([H])([H])C([H])(n5nc(-c6c([H])c([H])c(Oc7c([H])c([H])c(F)c([H])c7F)c([H])c6[H])c(C(=O)N([H])[H])c5N([H])[H])C4([H])[H])c3[H])c([H])c([H])c2C1([H])[H]

>  <smiles>  (36) 
[H]c1c([H])c([H])c2c(c1[H])C([H])([H])C([H])([H])C([H])([H])C2([H])N([H])C(=O)C1([H])N(C(=O)C([H])(N([H])C(=O)C([H])(N([H])C([H])([H])[H])C([H])([H])[H])C(C([H])([H])[H])(C([H])([H])[H])C([H])([H])[H])C([H])([H])c2c([H])c(OC([H])([H])C(=O)c3c([H])c([H])c(C([H])([H])[H])c(C([H])([H])C([H])([H])C([H])([H])C([H])([H])C([H])([H])C(=O)N4C([H])([H])C([H])([H])C([H])([H])C([H])(n5nc(-c6c([H])c([H])c(Oc7c([H])c([H])c(F)c([H])c7F)c([H])c6[H])c(C(=O)N([H])[H])c5N([H])[H])C4([H])[H])c3[H])c([H])c([H])c2C1([H])[H]

$$$$
36:0:0
     RDKit          3D

 93103  0  0  1  0  0  0  0  0999 V2000
  -30.4060  -22.2220   19.6160 C   0  0  0  0  0  3  0  0  0  0  0  0
  -28.1780  -21.7880   19.7260 C   0  0  0  0  0  3  0  0  0  0  0  0
  -29.4770  -21.0980   19.6850 C   0  0  0  0  0  0  0  0  0  0  0  0
  -28.8060  -24.3600   19.6390 C   0  0  0  0  0  0  0  0  0  0  0  0
  -30.1080  -23.6850   19.5940 C   0  0  0  0  0  0  0  0  0  0  0  0
  -27.8570  -23.2490   19.7020 C   0  0  0  0  0  0  0  0  0  0  0  0
  -31.1920  -24.4990   19.5500 F   0  0  0  0  0  0  0  0  0  0  0  0
  -26.5440  -23.5730   19.7770 F   0  0  0  0  0  0  0  0  0  0  0  0
  -30.8680  -15.2800   19.2670 C   0  0  0  0  0  0  0  0  0  0  0  0
  -30.6550  -12.8440   18.3840 C   0  0  0  0  0  2  0  0  0  0  0  0
  -29.5520  -12.6490   17.3130 C   0  0  0  0  0  2  0  0  0  0  0  0
  -28.1840  -12.3990   17.9710 C   0  0  0  0  0  2  0  0  0  0  0  0
  -27.9330  -13.3460   19.1690 C   0  0  0  0  0  3  0  0  0  0  0  0
  -29.1510  -13.4630   20.1120 C   0  0  0  0  0  2  0  0  0  0  0  0
  -30.2640  -13.9840   19.2980 N   0  0  0  0  0  0  0  0  0  0  0  0
  -32.0090  -15.2410   18.7810 O   0  0  0  0  0  0  0  0  0  0  0  0
  -30.6070  -19.3610   21.3150 C   0  0  0  0  0  2  0  0  0  0  0  0
  -29.3240  -19.0170   22.0400 C   0  0  0  0  0  2  0  0  0  0  0  0
  -30.4460  -18.1340   19.0170 C   0  0  0  0  0  2  0  0  0  0  0  0
  -29.1200  -16.8630   20.4740 C   0  0  0  0  0  2  0  0  0  0  0  0
  -29.8130  -19.3830   19.9920 C   0  0  2  0  0  0  0  0  0  0  0  0
  -28.8020  -18.4210   20.7210 C   0  0  2  0  0  0  0  0  0  0  0  0
  -27.3000  -18.6280   20.5020 C   0  0  0  0  0  1  0  0  0  0  0  0
  -30.2040  -16.6010   19.4950 N   0  0  0  0  0  0  0  0  0  0  0  0
  -25.7540  -13.9130   20.3690 C   0  0  0  0  0  0  0  0  0  0  0  0
  -24.7380  -13.1450   20.8610 C   0  0  0  0  0  0  0  0  0  0  0  0
  -25.1240  -11.7890   20.6330 C   0  0  0  0  0  0  0  0  0  0  0  0
  -26.6980  -13.0300   19.8760 N   0  0  0  0  0  0  0  0  0  0  0  0
  -26.3400  -11.7380   20.0960 N   0  0  0  0  0  0  0  0  0  0  0  0
  -24.3730  -10.5440   20.8380 C   0  0  0  0  0  0  0  0  0  0  0  0
  -24.7970   -9.5690   21.7680 C   0  0  0  0  0  3  0  0  0  0  0  0
  -24.0420   -8.3920   21.9630 C   0  0  0  0  0  3  0  0  0  0  0  0
  -22.8510   -8.1820   21.2290 C   0  0  0  0  0  0  0  0  0  0  0  0
  -22.4480   -9.1430   20.2870 C   0  0  0  0  0  3  0  0  0  0  0  0
  -23.2020  -10.3110   20.0880 C   0  0  0  0  0  3  0  0  0  0  0  0
  -22.0680   -7.0580   21.3350 O   0  0  0  0  0  0  0  0  0  0  0  0
  -21.8680   -6.4300   22.5390 C   0  0  0  0  0  0  0  0  0  0  0  0
  -21.2950   -7.0990   23.6410 C   0  0  0  0  0  3  0  0  0  0  0  0
  -21.0440   -6.3970   24.8370 C   0  0  0  0  0  3  0  0  0  0  0  0
  -21.3580   -5.0290   24.9310 C   0  0  0  0  0  0  0  0  0  0  0  0
  -21.9260   -4.3600   23.8320 C   0  0  0  0  0  3  0  0  0  0  0  0
  -22.1780   -5.0590   22.6380 C   0  0  0  0  0  0  0  0  0  0  0  0
  -22.7050   -4.4040   21.5760 F   0  0  0  0  0  0  0  0  0  0  0  0
  -21.1110   -4.3530   26.0780 F   0  0  0  0  0  0  0  0  0  0  0  0
  -23.4370  -13.6480   21.4120 C   0  0  0  0  0  0  0  0  0  0  0  0
  -22.8570  -12.9280   22.3650 N   0  0  0  0  0  0  0  0  0  0  0  0
  -22.9550  -14.7150   21.0360 O   0  0  0  0  0  0  0  0  0  0  0  0
  -23.2680  -12.0650   22.6890 H   0  0  0  0  0  0  0  0  0  0  0  0
  -21.9910  -13.2430   22.7780 H   0  0  0  0  0  0  0  0  0  0  0  0
  -25.9320  -15.2870   20.2680 N   0  0  0  0  0  0  0  0  0  0  0  0
  -25.2130  -15.9380   20.5610 H   0  0  0  0  0  0  0  0  0  0  0  0
  -26.6920  -15.7270   19.7690 H   0  0  0  0  0  0  0  0  0  0  0  0
  -28.6400  -25.8980   19.6850 O   0  0  0  0  0  0  0  0  0  0  0  0
  -24.7280  -31.5580   22.8080 C   0  0  0  0  0  0  0  0  0  0  0  0
  -27.5220  -26.8830   19.6900 C   0  0  0  0  0  0  0  0  0  0  0  0
  -23.6110  -30.1720   21.1040 C   0  0  0  0  0  3  0  0  0  0  0  0
  -25.1420  -28.6650   19.6570 C   0  0  0  0  0  0  0  0  0  0  0  0
  -26.1670  -30.4880   21.0040 C   0  0  0  0  0  2  0  0  0  0  0  0
  -26.2990  -29.1000   20.3120 C   0  0  0  0  0  0  0  0  0  0  0  0
  -27.4780  -28.2300   20.3060 C   0  0  0  0  0  3  0  0  0  0  0  0
  -26.3330  -26.5970   18.9840 C   0  0  0  0  0  3  0  0  0  0  0  0
  -25.1820  -27.4350   18.9750 C   0  0  0  0  0  3  0  0  0  0  0  0
  -23.8860  -29.5350   19.7100 C   0  0  0  0  0  2  0  0  0  0  0  0
  -24.8540  -30.7660   21.6930 N   0  0  0  0  0  0  0  0  0  0  0  0
  -23.6220  -31.7870   23.3240 O   0  0  0  0  0  0  0  0  0  0  0  0
  -22.9440  -29.1200   22.0280 C   0  0  0  0  0  0  0  0  0  0  0  0
  -21.6040  -28.9950   21.9630 N   0  0  0  0  0  0  0  0  0  0  0  0
  -23.6360  -28.4180   22.7700 O   0  0  0  0  0  0  0  0  0  0  0  0
  -21.0980  -29.6130   21.3440 H   0  0  0  0  0  0  0  0  0  0  0  0
  -18.2140  -27.9000   22.6490 C   0  0  0  0  0  0  0  0  0  0  0  0
  -20.7980  -28.0150   22.7030 C   0  0  0  0  0  3  0  0  0  0  0  0
  -20.7680  -26.6530   21.9730 C   0  0  0  0  0  2  0  0  0  0  0  0
  -19.5670  -26.4990   21.0350 C   0  0  0  0  0  2  0  0  0  0  0  0
  -18.2560  -26.6330   21.8130 C   0  0  0  0  0  2  0  0  0  0  0  0
  -19.4070  -28.5590   23.0530 C   0  0  0  0  0  0  0  0  0  0  0  0
  -19.3070  -29.7520   23.8010 C   0  0  0  0  0  3  0  0  0  0  0  0
  -18.0510  -30.2840   24.1470 C   0  0  0  0  0  3  0  0  0  0  0  0
  -16.8750  -29.6190   23.7580 C   0  0  0  0  0  3  0  0  0  0  0  0
  -16.9580  -28.4290   23.0150 C   0  0  0  0  0  3  0  0  0  0  0  0
  -25.9660  -32.2250   23.4800 C   0  0  0  0  0  3  0  0  0  0  0  0
  -25.5580  -33.5560   23.9670 N   0  0  0  0  0  0  0  0  0  0  0  0
  -25.8000  -34.7130   23.3380 C   0  0  0  0  0  0  0  0  0  0  0  0
  -26.4550  -34.7780   22.2950 O   0  0  0  0  0  0  0  0  0  0  0  0
  -24.9790  -33.5730   24.7940 H   0  0  0  0  0  0  0  0  0  0  0  0
  -23.9420  -36.4090   23.2220 C   0  0  0  0  0  1  0  0  0  0  0  0
  -25.2270  -36.0020   23.9620 C   0  0  0  0  0  3  0  0  0  0  0  0
  -27.3070  -36.9460   24.8650 C   0  0  0  0  0  1  0  0  0  0  0  0
  -26.1770  -37.1360   23.9590 N   0  0  0  0  0  0  0  0  0  0  0  0
  -25.7060  -37.9980   24.2190 H   0  0  0  0  0  0  0  0  0  0  0  0
  -26.5580  -31.3750   24.6710 C   0  0  1  0  0  0  0  0  0  0  0  0
  -25.5040  -30.9660   25.7270 C   0  0  0  0  0  1  0  0  0  0  0  0
  -27.2240  -30.0820   24.1510 C   0  0  0  0  0  1  0  0  0  0  0  0
  -27.6640  -32.1810   25.3920 C   0  0  0  0  0  1  0  0  0  0  0  0
  1  3  1  0
  3  2  2  0
  4 53  1  0
  4  6  2  0
  5  1  2  0
  5  4  1  0
  6  2  1  0
  6  8  1  0
  7  5  1  0
  9 15  1  0
  9 24  1  0
 10 15  1  0
 11 12  1  0
 11 10  1  0
 13 12  1  0
 13 28  1  0
 13 14  1  0
 15 14  1  0
 16  9  2  0
 17 18  1  0
 19 24  1  0
 19 21  1  0
 20 22  1  0
 21  3  1  6
 21 22  1  0
 21 17  1  0
 22 23  1  6
 22 18  1  0
 24 20  1  0
 25 26  2  0
 26 45  1  0
 27 30  1  0
 27 26  1  0
 28 29  1  0
 28 25  1  0
 29 27  2  0
 30 31  1  0
 31 32  2  0
 33 36  1  0
 33 32  1  0
 34 33  2  0
 35 34  1  0
 35 30  2  0
 36 37  1  0
 37 42  2  0
 37 38  1  0
 38 39  2  0
 39 40  1  0
 40 44  1  0
 41 40  2  0
 42 41  1  0
 43 42  1  0
 45 46  1  0
 46 48  1  0
 46 49  1  0
 47 45  2  0
 50 25  1  0
 50 51  1  0
 52 50  1  0
 53 55  1  0
 54 65  2  0
 55 60  1  0
 56 64  1  0
 56 66  1  0
 57 63  1  0
 57 59  1  0
 58 64  1  0
 59 58  1  0
 60 59  2  0
 61 55  2  0
 62 61  1  0
 62 57  2  0
 63 56  1  0
 64 54  1  0
 66 68  2  0
 67 66  1  0
 69 67  1  0
 70 79  2  0
 70 75  1  0
 71 67  1  0
 71 75  1  0
 72 71  1  0
 73 74  1  0
 73 72  1  0
 74 70  1  0
 75 76  2  0
 76 77  1  0
 78 77  2  0
 79 78  1  0
 80 54  1  0
 80 81  1  0
 80 90  1  0
 81 84  1  0
 82 86  1  0
 82 81  1  0
 83 82  2  0
 86 85  1  0
 88 86  1  0
 88 89  1  0
 88 87  1  0
 90 93  1  1
 90 91  1  0
 92 90  1  0
M  ISO  4   4 101   9 100  24 100  53 101
M  END
>  <TORSDO>  (37) 
F 16

>  <SCORE>  (37) 
-12.087

>  <name>  (37) 
36

>  <ligand_id>  (37) 
36

>  <original_smiles>  (37) 
[H]c1c([H])c([H])c2c(c1[H])C([H])([H])C([H])([H])C([H])([H])C2([H])N([H])C(=O)C1([H])N(C(=O)C([H])(N([H])C(=O)C([H])(N([H])C([H])([H])[H])C([H])([H])[H])C(C([H])([H])[H])(C([H])([H])[H])C([H])([H])[H])C([H])([H])c2c([H])c(Oc3c(F)c([H])c(C45C([H])([H])N(C(=O)N6C([H])([H])C([H])([H])C([H])([H])C([H])(n7nc(-c8c([H])c([H])c(Oc9c([H])c([H])c(F)c([H])c9F)c([H])c8[H])c(C(=O)N([H])[H])c7N([H])[H])C6([H])[H])C([H])([H])C4(C([H])([H])[H])C([H])([H])C5([H])[H])c([H])c3F)c([H])c([H])c2C1([H])[H]

>  <smiles>  (37) 
[H]c1c([H])c([H])c2c(c1[H])C([H])([H])C([H])([H])C([H])([H])C2([H])N([H])C(=O)C1([H])N(C(=O)C([H])(N([H])C(=O)C([H])(N([H])C([H])([H])[H])C([H])([H])[H])C(C([H])([H])[H])(C([H])([H])[H])C([H])([H])[H])C([H])([H])c2c([H])c(Oc3c(F)c([H])c(C45C([H])([H])N(C(=O)N6C([H])([H])C([H])([H])C([H])([H])C([H])(n7nc(-c8c([H])c([H])c(Oc9c([H])c([H])c(F)c([H])c9F)c([H])c8[H])c(C(=O)N([H])[H])c7N([H])[H])C6([H])[H])C([H])([H])C4(C([H])([H])[H])C([H])([H])C5([H])[H])c([H])c3F)c([H])c([H])c2C1([H])[H]

$$$$
37:0:0
     RDKit          3D

 91100  0  0  1  0  0  0  0  0999 V2000
  -29.6790  -22.9730   18.0490 C   0  0  0  0  0  3  0  0  0  0  0  0
  -29.6430  -21.4310   18.3760 C   0  0  0  0  0  3  0  0  0  0  0  0
  -28.4520  -23.8630   18.4580 C   0  0  0  0  0  3  0  0  0  0  0  0
  -29.0370  -22.6190   20.6180 C   0  0  0  0  0  3  0  0  0  0  0  0
  -29.2160  -21.0370   19.8150 C   0  0  0  0  0  0  0  0  0  0  0  0
  -28.2620  -24.0780   19.9860 C   0  0  0  0  0  0  0  0  0  0  0  0
  -30.0140  -18.0780   19.6450 C   0  0  0  0  0  3  0  0  0  0  0  0
  -30.5760  -18.0960   22.2890 C   0  0  0  0  0  3  0  0  0  0  0  0
  -30.4440  -16.7020   20.2300 C   0  0  0  0  0  0  0  0  0  0  0  0
  -29.8270  -19.4600   20.3380 C   0  0  0  0  0  0  0  0  0  0  0  0
  -30.7250  -16.8580   21.6180 C   0  0  0  0  0  0  0  0  0  0  0  0
  -30.1730  -19.3280   21.7110 C   0  0  0  0  0  0  0  0  0  0  0  0
  -31.3150  -15.7260   22.4560 C   0  0  0  0  0  1  0  0  0  0  0  0
  -30.1530  -20.5130   22.6570 C   0  0  0  0  0  1  0  0  0  0  0  0
  -30.8780  -15.2190   19.5460 C   0  0  0  0  0  0  0  0  0  0  0  0
  -30.5970  -12.8240   18.5750 C   0  0  0  0  0  2  0  0  0  0  0  0
  -29.5580  -12.7550   17.4240 C   0  0  0  0  0  2  0  0  0  0  0  0
  -28.1460  -12.5290   17.9850 C   0  0  0  0  0  2  0  0  0  0  0  0
  -27.8640  -13.4460   19.1990 C   0  0  0  0  0  3  0  0  0  0  0  0
  -29.0170  -13.4860   20.2240 C   0  0  0  0  0  2  0  0  0  0  0  0
  -30.2330  -13.9430   19.5310 N   0  0  0  0  0  0  0  0  0  0  0  0
  -31.9890  -15.1700   18.9960 O   0  0  0  0  0  0  0  0  0  0  0  0
  -25.6230  -14.0750   20.2370 C   0  0  0  0  0  0  0  0  0  0  0  0
  -24.5690  -13.3340   20.6900 C   0  0  0  0  0  0  0  0  0  0  0  0
  -24.9600  -11.9650   20.5550 C   0  0  0  0  0  0  0  0  0  0  0  0
  -26.5830  -13.1650   19.8340 N   0  0  0  0  0  0  0  0  0  0  0  0
  -26.2050  -11.8860   20.0940 N   0  0  0  0  0  0  0  0  0  0  0  0
  -24.1920  -10.7330   20.7750 C   0  0  0  0  0  0  0  0  0  0  0  0
  -24.6330   -9.7390   21.6780 C   0  0  0  0  0  3  0  0  0  0  0  0
  -23.8680   -8.5700   21.8840 C   0  0  0  0  0  3  0  0  0  0  0  0
  -22.6470   -8.3890   21.1920 C   0  0  0  0  0  0  0  0  0  0  0  0
  -22.2230   -9.3720   20.2780 C   0  0  0  0  0  3  0  0  0  0  0  0
  -22.9890  -10.5320   20.0700 C   0  0  0  0  0  3  0  0  0  0  0  0
  -21.8490   -7.2770   21.3150 O   0  0  0  0  0  0  0  0  0  0  0  0
  -21.7710   -6.5710   22.4880 C   0  0  0  0  0  0  0  0  0  0  0  0
  -21.3710   -7.1790   23.6990 C   0  0  0  0  0  3  0  0  0  0  0  0
  -21.2390   -6.4020   24.8660 C   0  0  0  0  0  3  0  0  0  0  0  0
  -21.4930   -5.0180   24.8250 C   0  0  0  0  0  0  0  0  0  0  0  0
  -21.8860   -4.4100   23.6200 C   0  0  0  0  0  3  0  0  0  0  0  0
  -22.0230   -5.1850   22.4550 C   0  0  0  0  0  0  0  0  0  0  0  0
  -22.3800   -4.5900   21.2910 F   0  0  0  0  0  0  0  0  0  0  0  0
  -21.3590   -4.2690   25.9440 F   0  0  0  0  0  0  0  0  0  0  0  0
  -23.2360  -13.8640   21.1310 C   0  0  0  0  0  0  0  0  0  0  0  0
  -22.5830  -13.1860   22.0690 N   0  0  0  0  0  0  0  0  0  0  0  0
  -22.7870  -14.9160   20.6790 O   0  0  0  0  0  0  0  0  0  0  0  0
  -22.9630  -12.3360   22.4630 H   0  0  0  0  0  0  0  0  0  0  0  0
  -21.6900  -13.5210   22.4020 H   0  0  0  0  0  0  0  0  0  0  0  0
  -25.8390  -15.4440   20.1040 N   0  0  0  0  0  0  0  0  0  0  0  0
  -25.1340  -16.1320   20.3410 H   0  0  0  0  0  0  0  0  0  0  0  0
  -26.6850  -15.8570   19.7310 H   0  0  0  0  0  0  0  0  0  0  0  0
  -28.3280  -25.6900   20.3610 O   0  0  0  0  0  0  0  0  0  0  0  0
  -24.5650  -31.6480   23.0560 C   0  0  0  0  0  0  0  0  0  0  0  0
  -27.3040  -26.7680   20.2070 C   0  0  0  0  0  0  0  0  0  0  0  0
  -23.4570  -30.2120   21.3920 C   0  0  0  0  0  3  0  0  0  0  0  0
  -24.9830  -28.6150   20.0420 C   0  0  0  0  0  0  0  0  0  0  0  0
  -26.0220  -30.4620   21.3400 C   0  0  0  0  0  2  0  0  0  0  0  0
  -26.1380  -29.0450   20.7050 C   0  0  0  0  0  0  0  0  0  0  0  0
  -27.2910  -28.1400   20.7650 C   0  0  0  0  0  3  0  0  0  0  0  0
  -26.1230  -26.4930   19.4830 C   0  0  0  0  0  3  0  0  0  0  0  0
  -25.0010  -27.3610   19.4090 C   0  0  0  0  0  3  0  0  0  0  0  0
  -23.7460  -29.5130   20.0350 C   0  0  0  0  0  2  0  0  0  0  0  0
  -24.7000  -30.8030   21.9830 N   0  0  0  0  0  0  0  0  0  0  0  0
  -23.4530  -31.9260   23.5320 O   0  0  0  0  0  0  0  0  0  0  0  0
  -22.7420  -29.2180   22.3460 C   0  0  0  0  0  0  0  0  0  0  0  0
  -21.4070  -29.0870   22.2240 N   0  0  0  0  0  0  0  0  0  0  0  0
  -23.3960  -28.5650   23.1610 O   0  0  0  0  0  0  0  0  0  0  0  0
  -20.9330  -29.6620   21.5410 H   0  0  0  0  0  0  0  0  0  0  0  0
  -17.9900  -27.9990   22.7800 C   0  0  0  0  0  0  0  0  0  0  0  0
  -20.5650  -28.1560   22.9840 C   0  0  0  0  0  3  0  0  0  0  0  0
  -20.5950  -26.7420   22.3580 C   0  0  0  0  0  2  0  0  0  0  0  0
  -19.4550  -26.5000   21.3640 C   0  0  0  0  0  2  0  0  0  0  0  0
  -18.0960  -26.6720   22.0490 C   0  0  0  0  0  2  0  0  0  0  0  0
  -19.1480  -28.7040   23.2050 C   0  0  0  0  0  0  0  0  0  0  0  0
  -18.9900  -29.9490   23.8540 C   0  0  0  0  0  3  0  0  0  0  0  0
  -17.7090  -30.4870   24.0760 C   0  0  0  0  0  3  0  0  0  0  0  0
  -16.5670  -29.7800   23.6640 C   0  0  0  0  0  3  0  0  0  0  0  0
  -16.7090  -28.5370   23.0220 C   0  0  0  0  0  3  0  0  0  0  0  0
  -25.8010  -32.3200   23.7260 C   0  0  0  0  0  3  0  0  0  0  0  0
  -25.4370  -33.7070   24.0640 N   0  0  0  0  0  0  0  0  0  0  0  0
  -25.7530  -34.7840   23.3330 C   0  0  0  0  0  0  0  0  0  0  0  0
  -26.4420  -34.7170   22.3120 O   0  0  0  0  0  0  0  0  0  0  0  0
  -24.8240  -33.8290   24.8560 H   0  0  0  0  0  0  0  0  0  0  0  0
  -23.9820  -36.5390   22.9830 C   0  0  0  0  0  1  0  0  0  0  0  0
  -25.2220  -36.1540   23.8050 C   0  0  0  0  0  3  0  0  0  0  0  0
  -27.3130  -37.0930   24.6850 C   0  0  0  0  0  1  0  0  0  0  0  0
  -26.2260  -37.2370   23.7210 N   0  0  0  0  0  0  0  0  0  0  0  0
  -25.7910  -38.1440   23.8690 H   0  0  0  0  0  0  0  0  0  0  0  0
  -26.2910  -31.5580   25.0200 C   0  0  1  0  0  0  0  0  0  0  0  0
  -25.1690  -31.2920   26.0500 C   0  0  0  0  0  1  0  0  0  0  0  0
  -26.9220  -30.1960   24.6520 C   0  0  0  0  0  1  0  0  0  0  0  0
  -27.3990  -32.3780   25.7230 C   0  0  0  0  0  1  0  0  0  0  0  0
  1  2  2  0
  1  3  1  0
  2  5  1  0
  3  6  2  0
  5 10  1  0
  5  4  2  0
  6 51  1  0
  6  4  1  0
  7  9  2  0
  7 10  1  0
  9 11  1  0
 10 12  2  0
 11  8  2  0
 11 13  1  0
 12  8  1  0
 12 14  1  0
 15  9  1  0
 16 21  1  0
 17 18  1  0
 17 16  1  0
 19 18  1  0
 19 26  1  0
 19 20  1  0
 21 15  1  0
 21 20  1  0
 22 15  2  0
 23 24  2  0
 24 43  1  0
 25 24  1  0
 25 28  1  0
 26 27  1  0
 26 23  1  0
 27 25  2  0
 28 29  1  0
 29 30  2  0
 31 34  1  0
 31 30  1  0
 32 31  2  0
 33 32  1  0
 33 28  2  0
 34 35  1  0
 35 36  1  0
 36 37  2  0
 38 37  1  0
 38 42  1  0
 39 38  2  0
 40 35  2  0
 40 39  1  0
 41 40  1  0
 43 44  1  0
 44 47  1  0
 44 46  1  0
 45 43  2  0
 48 23  1  0
 48 49  1  0
 50 48  1  0
 52 63  2  0
 53 51  1  0
 53 58  1  0
 54 62  1  0
 54 64  1  0
 55 57  1  0
 56 62  1  0
 57 58  2  0
 57 56  1  0
 59 53  2  0
 60 59  1  0
 60 55  2  0
 61 55  1  0
 61 54  1  0
 62 52  1  0
 64 66  2  0
 65 64  1  0
 67 65  1  0
 68 77  2  0
 68 73  1  0
 69 65  1  0
 69 73  1  0
 70 69  1  0
 71 72  1  0
 71 70  1  0
 72 68  1  0
 73 74  2  0
 74 75  1  0
 76 75  2  0
 77 76  1  0
 78 52  1  0
 78 79  1  0
 78 88  1  0
 79 82  1  0
 80 84  1  0
 80 79  1  0
 81 80  2  0
 84 83  1  0
 86 84  1  0
 86 87  1  0
 86 85  1  0
 88 91  1  1
 88 89  1  0
 90 88  1  0
M  ISO  4   6 101   9 100  15 100  51 101
M  END
>  <TORSDO>  (38) 
F 17

>  <SCORE>  (38) 
-13.933

>  <name>  (38) 
37

>  <ligand_id>  (38) 
37

>  <original_smiles>  (38) 
[H]c1c([H])c([H])c2c(c1[H])C([H])([H])C([H])([H])C([H])([H])C2([H])N([H])C(=O)C1([H])N(C(=O)C([H])(N([H])C(=O)C([H])(N([H])C([H])([H])[H])C([H])([H])[H])C(C([H])([H])[H])(C([H])([H])[H])C([H])([H])[H])C([H])([H])c2c([H])c(OC3([H])C([H])([H])C([H])([H])C([H])([H])C([H])(c4c([H])c(C(=O)N5C([H])([H])C([H])([H])C([H])([H])C([H])(n6nc(-c7c([H])c([H])c(Oc8c([H])c([H])c(F)c([H])c8F)c([H])c7[H])c(C(=O)N([H])[H])c6N([H])[H])C5([H])[H])c(C([H])([H])[H])c([H])c4C([H])([H])[H])C3([H])[H])c([H])c([H])c2C1([H])[H]

>  <smiles>  (38) 
[H]c1c([H])c([H])c2c(c1[H])C([H])([H])C([H])([H])C([H])([H])C2([H])N([H])C(=O)C1([H])N(C(=O)C([H])(N([H])C(=O)C([H])(N([H])C([H])([H])[H])C([H])([H])[H])C(C([H])([H])[H])(C([H])([H])[H])C([H])([H])[H])C([H])([H])c2c([H])c(OC3([H])C([H])([H])C([H])([H])C([H])([H])C([H])(c4c([H])c(C(=O)N5C([H])([H])C([H])([H])C([H])([H])C([H])(n6nc(-c7c([H])c([H])c(Oc8c([H])c([H])c(F)c([H])c8F)c([H])c7[H])c(C(=O)N([H])[H])c6N([H])[H])C5([H])[H])c(C([H])([H])[H])c([H])c4C([H])([H])[H])C3([H])[H])c([H])c([H])c2C1([H])[H]

$$$$
38:0:0
     RDKit          3D

101110  0  0  1  0  0  0  0  0999 V2000
  -30.4650  -21.4560   21.8750 C   0  0  0  0  0  3  0  0  0  0  0  0
  -30.6700  -23.8130   21.2720 C   0  0  0  0  0  0  0  0  0  0  0  0
  -29.2670  -23.8710   21.0460 C   0  0  0  0  0  0  0  0  0  0  0  0
  -31.2680  -22.5980   21.7120 C   0  0  0  0  0  0  0  0  0  0  0  0
  -29.0860  -21.4890   21.6160 C   0  0  0  0  0  0  0  0  0  0  0  0
  -28.4690  -22.7020   21.2120 C   0  0  0  0  0  0  0  0  0  0  0  0
  -31.4840  -25.0290   20.9690 C   0  0  0  0  0  0  0  0  0  0  0  0
  -28.6550  -25.2040   20.5900 C   0  0  0  0  0  2  0  0  0  0  0  0
  -30.8550  -26.3740   21.3150 C   0  0  0  0  0  2  0  0  0  0  0  0
  -29.3120  -26.4380   21.2540 C   0  0  2  0  0  0  0  0  0  0  0  0
  -28.3030  -20.1950   21.7840 C   0  0  0  0  0  1  0  0  0  0  0  0
  -28.7570  -26.6280   22.6890 C   0  0  0  0  0  1  0  0  0  0  0  0
  -32.6150  -25.0110   20.4720 O   0  0  0  0  0  0  0  0  0  0  0  0
  -26.2570  -23.6330   22.0130 C   0  0  0  0  0  1  0  0  0  0  0  0
  -26.9570  -22.7410   20.9800 C   0  0  0  0  0  2  0  0  0  0  0  0
  -29.0900  -27.5650   20.3940 O   0  0  0  0  0  0  0  0  0  0  0  0
  -24.4400  -32.0530   23.3290 C   0  0  0  0  0  0  0  0  0  0  0  0
  -27.8430  -28.1310   20.3480 C   0  0  0  0  0  0  0  0  0  0  0  0
  -23.5720  -30.6630   21.4700 C   0  0  0  0  0  3  0  0  0  0  0  0
  -25.3220  -29.3660   20.1510 C   0  0  0  0  0  0  0  0  0  0  0  0
  -26.0480  -31.2820   21.5950 C   0  0  0  0  0  2  0  0  0  0  0  0
  -26.3420  -29.9730   20.8940 C   0  0  0  0  0  0  0  0  0  0  0  0
  -27.6090  -29.3650   20.9870 C   0  0  0  0  0  3  0  0  0  0  0  0
  -26.8160  -27.5230   19.6020 C   0  0  0  0  0  3  0  0  0  0  0  0
  -25.5520  -28.1360   19.5050 C   0  0  0  0  0  3  0  0  0  0  0  0
  -24.0020  -30.0990   20.0880 C   0  0  0  0  0  2  0  0  0  0  0  0
  -24.6960  -31.3440   22.1930 N   0  0  0  0  0  0  0  0  0  0  0  0
  -23.2820  -32.1870   23.7490 O   0  0  0  0  0  0  0  0  0  0  0  0
  -22.9200  -29.5240   22.2840 C   0  0  0  0  0  0  0  0  0  0  0  0
  -21.6090  -29.3180   22.0800 N   0  0  0  0  0  0  0  0  0  0  0  0
  -23.5940  -28.8350   23.0550 O   0  0  0  0  0  0  0  0  0  0  0  0
  -21.1280  -29.9320   21.4360 H   0  0  0  0  0  0  0  0  0  0  0  0
  -18.2180  -28.1810   22.5560 C   0  0  0  0  0  0  0  0  0  0  0  0
  -20.7950  -28.2790   22.7060 C   0  0  0  0  0  3  0  0  0  0  0  0
  -20.7930  -26.9880   21.8550 C   0  0  0  0  0  2  0  0  0  0  0  0
  -19.6200  -26.9150   20.8720 C   0  0  0  0  0  2  0  0  0  0  0  0
  -18.2850  -26.9860   21.6200 C   0  0  0  0  0  2  0  0  0  0  0  0
  -19.3960  -28.7980   23.0530 C   0  0  0  0  0  0  0  0  0  0  0  0
  -19.2750  -29.9290   23.8900 C   0  0  0  0  0  3  0  0  0  0  0  0
  -18.0090  -30.4380   24.2360 C   0  0  0  0  0  3  0  0  0  0  0  0
  -16.8460  -29.8140   23.7550 C   0  0  0  0  0  3  0  0  0  0  0  0
  -16.9510  -28.6870   22.9200 C   0  0  0  0  0  3  0  0  0  0  0  0
  -25.5810  -32.7500   24.1360 C   0  0  0  0  0  3  0  0  0  0  0  0
  -25.1890  -34.1520   24.3280 N   0  0  0  0  0  0  0  0  0  0  0  0
  -25.6080  -35.1690   23.5630 C   0  0  0  0  0  0  0  0  0  0  0  0
  -26.4290  -35.0310   22.6520 O   0  0  0  0  0  0  0  0  0  0  0  0
  -24.4790  -34.3350   25.0220 H   0  0  0  0  0  0  0  0  0  0  0  0
  -23.8920  -36.8630   22.8520 C   0  0  0  0  0  1  0  0  0  0  0  0
  -25.0190  -36.5630   23.8520 C   0  0  0  0  0  3  0  0  0  0  0  0
  -26.9930  -37.5780   24.8980 C   0  0  0  0  0  1  0  0  0  0  0  0
  -26.0230  -37.6470   23.8080 N   0  0  0  0  0  0  0  0  0  0  0  0
  -25.5730  -38.5570   23.8420 H   0  0  0  0  0  0  0  0  0  0  0  0
  -25.8780  -32.0560   25.5210 C   0  0  1  0  0  0  0  0  0  0  0  0
  -24.6120  -31.8050   26.3730 C   0  0  0  0  0  1  0  0  0  0  0  0
  -26.5860  -30.6970   25.3090 C   0  0  0  0  0  1  0  0  0  0  0  0
  -26.8490  -32.9330   26.3480 C   0  0  0  0  0  1  0  0  0  0  0  0
  -32.7590  -22.4550   22.0180 C   0  0  0  0  0  2  0  0  0  0  0  0
  -33.5030  -21.6900   20.9080 C   0  0  0  0  0  2  0  0  0  0  0  0
  -33.8210  -20.2270   21.2730 C   0  0  0  0  0  2  0  0  0  0  0  0
  -33.5990  -19.2520   20.1110 C   0  0  0  0  0  2  0  0  0  0  0  0
  -32.1310  -18.8130   19.9460 C   0  0  0  0  0  2  0  0  0  0  0  0
  -31.6890  -17.7290   20.9520 C   0  0  0  0  0  2  0  0  0  0  0  0
  -30.3440  -17.0830   20.5470 C   0  0  0  0  0  2  0  0  0  0  0  0
  -30.8290  -14.6900   20.1470 C   0  0  0  0  0  0  0  0  0  0  0  0
  -30.4360  -12.5670   18.9670 C   0  0  0  0  0  2  0  0  0  0  0  0
  -29.4220  -12.8250   17.8350 C   0  0  0  0  0  2  0  0  0  0  0  0
  -27.9770  -12.6840   18.3540 C   0  0  0  0  0  2  0  0  0  0  0  0
  -27.7300  -13.4770   19.6660 C   0  0  0  0  0  3  0  0  0  0  0  0
  -28.8570  -13.2120   20.6940 C   0  0  0  0  0  2  0  0  0  0  0  0
  -30.1470  -13.5190   20.0530 N   0  0  0  0  0  0  0  0  0  0  0  0
  -31.8550  -14.9230   19.5070 O   0  0  0  0  0  0  0  0  0  0  0  0
  -30.2230  -15.6550   20.8580 N   0  0  0  0  0  0  0  0  0  0  0  0
  -29.4240  -15.3680   21.4040 H   0  0  0  0  0  0  0  0  0  0  0  0
  -25.3880  -14.0560   20.5680 C   0  0  0  0  0  0  0  0  0  0  0  0
  -24.3410  -13.2700   20.9680 C   0  0  0  0  0  0  0  0  0  0  0  0
  -24.7850  -11.9180   20.8280 C   0  0  0  0  0  0  0  0  0  0  0  0
  -26.4070  -13.1830   20.2200 N   0  0  0  0  0  0  0  0  0  0  0  0
  -26.0500  -11.8900   20.4270 N   0  0  0  0  0  0  0  0  0  0  0  0
  -24.0630  -10.6510   20.9990 C   0  0  0  0  0  0  0  0  0  0  0  0
  -24.5180   -9.6590   21.8960 C   0  0  0  0  0  3  0  0  0  0  0  0
  -23.7980   -8.4550   22.0580 C   0  0  0  0  0  3  0  0  0  0  0  0
  -22.6070   -8.2360   21.3230 C   0  0  0  0  0  0  0  0  0  0  0  0
  -22.1720   -9.2180   20.4140 C   0  0  0  0  0  3  0  0  0  0  0  0
  -22.8930  -10.4120   20.2510 C   0  0  0  0  0  3  0  0  0  0  0  0
  -21.8570   -7.0880   21.3960 O   0  0  0  0  0  0  0  0  0  0  0  0
  -21.7870   -6.3450   22.5480 C   0  0  0  0  0  0  0  0  0  0  0  0
  -21.3170   -6.8930   23.7620 C   0  0  0  0  0  3  0  0  0  0  0  0
  -21.1970   -6.0760   24.9030 C   0  0  0  0  0  3  0  0  0  0  0  0
  -21.5360   -4.7120   24.8320 C   0  0  0  0  0  0  0  0  0  0  0  0
  -21.9990   -4.1630   23.6230 C   0  0  0  0  0  3  0  0  0  0  0  0
  -22.1230   -4.9770   22.4840 C   0  0  0  0  0  0  0  0  0  0  0  0
  -22.5490   -4.4390   21.3160 F   0  0  0  0  0  0  0  0  0  0  0  0
  -21.4120   -3.9250   25.9250 F   0  0  0  0  0  0  0  0  0  0  0  0
  -22.9710  -13.7360   21.3710 C   0  0  0  0  0  0  0  0  0  0  0  0
  -22.3040  -12.9970   22.2510 N   0  0  0  0  0  0  0  0  0  0  0  0
  -22.5010  -14.7880   20.9390 O   0  0  0  0  0  0  0  0  0  0  0  0
  -22.6980  -12.1420   22.6190 H   0  0  0  0  0  0  0  0  0  0  0  0
  -21.3870  -13.2890   22.5600 H   0  0  0  0  0  0  0  0  0  0  0  0
  -25.5550  -15.4340   20.4530 N   0  0  0  0  0  0  0  0  0  0  0  0
  -24.8150  -16.0940   20.6590 H   0  0  0  0  0  0  0  0  0  0  0  0
  -26.3910  -15.8800   20.0980 H   0  0  0  0  0  0  0  0  0  0  0  0
  2  4  2  0
  3  6  2  0
  3  2  1  0
  4  1  1  0
  4 57  1  0
  5 11  1  0
  5  1  2  0
  6  5  1  0
  7  2  1  0
  7  9  1  0
  8  3  1  0
  8 10  1  0
 10  9  1  0
 10 12  1  1
 13  7  2  0
 15  6  1  0
 15 14  1  0
 16 10  1  0
 17 28  2  0
 18 16  1  0
 18 23  1  0
 19 27  1  0
 19 29  1  0
 20 22  1  0
 21 27  1  0
 22 23  2  0
 22 21  1  0
 24 18  2  0
 25 24  1  0
 25 20  2  0
 26 20  1  0
 26 19  1  0
 27 17  1  0
 29 31  2  0
 30 29  1  0
 32 30  1  0
 33 42  2  0
 33 38  1  0
 34 30  1  0
 34 38  1  0
 35 34  1  0
 36 37  1  0
 36 35  1  0
 37 33  1  0
 38 39  2  0
 39 40  1  0
 41 40  2  0
 42 41  1  0
 43 17  1  0
 43 44  1  0
 43 53  1  0
 44 47  1  0
 45 49  1  0
 45 44  1  0
 46 45  2  0
 49 48  1  0
 51 52  1  0
 51 49  1  0
 51 50  1  0
 53 56  1  1
 53 54  1  0
 55 53  1  0
 58 59  1  0
 58 57  1  0
 60 59  1  0
 61 60  1  0
 61 62  1  0
 63 72  1  0
 63 62  1  0
 64 72  1  0
 65 70  1  0
 66 67  1  0
 66 65  1  0
 68 67  1  0
 68 77  1  0
 68 69  1  0
 70 64  1  0
 70 69  1  0
 71 64  2  0
 72 73  1  0
 74 75  2  0
 75 94  1  0
 76 75  1  0
 76 79  1  0
 77 78  1  0
 77 74  1  0
 78 76  2  0
 79 80  1  0
 80 81  2  0
 82 85  1  0
 82 81  1  0
 83 82  2  0
 84 83  1  0
 84 79  2  0
 85 86  1  0
 86 87  1  0
 87 88  2  0
 89 88  1  0
 89 93  1  0
 90 89  2  0
 91 86  2  0
 91 90  1  0
 92 91  1  0
 94 95  1  0
 95 98  1  0
 95 97  1  0
 96 94  2  0
 99 74  1  0
 99100  1  0
101 99  1  0
M  ISO  4  10 101  16 101  64 100  72 100
M  END
>  <TORSDO>  (39) 
F 24

>  <SCORE>  (39) 
-8.930

>  <name>  (39) 
38

>  <ligand_id>  (39) 
38

>  <original_smiles>  (39) 
[H]c1c([H])c([H])c2c(c1[H])C([H])([H])C([H])([H])C([H])([H])C2([H])N([H])C(=O)C1([H])N(C(=O)C([H])(N([H])C(=O)C([H])(N([H])C([H])([H])[H])C([H])([H])[H])C(C([H])([H])[H])(C([H])([H])[H])C([H])([H])[H])C([H])([H])c2c([H])c(OC3(C([H])([H])[H])C([H])([H])C(=O)c4c(C([H])([H])C([H])([H])C([H])([H])C([H])([H])C([H])([H])C([H])([H])C([H])([H])N([H])C(=O)N5C([H])([H])C([H])([H])C([H])([H])C([H])(n6nc(-c7c([H])c([H])c(Oc8c([H])c([H])c(F)c([H])c8F)c([H])c7[H])c(C(=O)N([H])[H])c6N([H])[H])C5([H])[H])c([H])c(C([H])([H])[H])c(C([H])([H])C([H])([H])[H])c4C3([H])[H])c([H])c([H])c2C1([H])[H]

>  <smiles>  (39) 
[H]c1c([H])c([H])c2c(c1[H])C([H])([H])C([H])([H])C([H])([H])C2([H])N([H])C(=O)C1([H])N(C(=O)C([H])(N([H])C(=O)C([H])(N([H])C([H])([H])[H])C([H])([H])[H])C(C([H])([H])[H])(C([H])([H])[H])C([H])([H])[H])C([H])([H])c2c([H])c(OC3(C([H])([H])[H])C([H])([H])C(=O)c4c(C([H])([H])C([H])([H])C([H])([H])C([H])([H])C([H])([H])C([H])([H])C([H])([H])N([H])C(=O)N5C([H])([H])C([H])([H])C([H])([H])C([H])(n6nc(-c7c([H])c([H])c(Oc8c([H])c([H])c(F)c([H])c8F)c([H])c7[H])c(C(=O)N([H])[H])c6N([H])[H])C5([H])[H])c([H])c(C([H])([H])[H])c(C([H])([H])C([H])([H])[H])c4C3([H])[H])c([H])c([H])c2C1([H])[H]

$$$$
39:0:0
     RDKit          3D

 92101  0  0  1  0  0  0  0  0999 V2000
  -29.2810  -21.5540   21.3440 C   0  0  0  0  0  3  0  0  0  0  0  0
  -28.9650  -23.0570   21.3930 C   0  0  0  0  0  3  0  0  0  0  0  0
  -29.0910  -20.5500   20.2570 C   0  0  0  0  0  0  0  0  0  0  0  0
  -28.4960  -21.4870   19.2460 C   0  0  0  0  0  0  0  0  0  0  0  0
  -28.1800  -23.0050   19.3080 C   0  0  0  0  0  0  0  0  0  0  0  0
  -28.3580  -24.0030   20.4010 C   0  0  0  0  0  0  0  0  0  0  0  0
  -28.1820  -20.8340   17.8890 C   0  0  0  0  0  2  0  0  0  0  0  0
  -29.4710  -18.6500   18.4100 C   0  0  0  0  0  2  0  0  0  0  0  0
  -29.4730  -18.7410   19.9430 C   0  0  0  0  0  3  0  0  0  0  0  0
  -28.2270  -19.2890   17.7350 C   0  0  1  0  0  0  0  0  0  0  0  0
  -27.5920  -23.6460   18.0500 C   0  0  0  0  0  1  0  0  0  0  0  0
  -26.8960  -18.6950   18.2620 C   0  0  0  0  0  1  0  0  0  0  0  0
  -28.3030  -18.9790   16.2210 C   0  0  0  0  0  1  0  0  0  0  0  0
  -30.4170  -15.7120   20.2370 C   0  0  0  0  0  0  0  0  0  0  0  0
  -30.4690  -13.1880   19.3660 C   0  0  0  0  0  2  0  0  0  0  0  0
  -29.5540  -12.8480   18.1520 C   0  0  0  0  0  2  0  0  0  0  0  0
  -28.1270  -12.5080   18.6050 C   0  0  0  0  0  2  0  0  0  0  0  0
  -27.6500  -13.4720   19.7140 C   0  0  0  0  0  3  0  0  0  0  0  0
  -28.6980  -13.7360   20.8290 C   0  0  0  0  0  2  0  0  0  0  0  0
  -29.8850  -14.3480   20.1920 N   0  0  0  0  0  0  0  0  0  0  0  0
  -31.6130  -15.6590   19.9000 O   0  0  0  0  0  0  0  0  0  0  0  0
  -29.6980  -17.0670   20.4970 N   0  0  0  0  0  0  0  0  0  0  0  0
  -28.8770  -16.8370   21.0420 H   0  0  0  0  0  0  0  0  0  0  0  0
  -25.2980  -13.9990   20.5080 C   0  0  0  0  0  0  0  0  0  0  0  0
  -24.2380  -13.2170   20.8680 C   0  0  0  0  0  0  0  0  0  0  0  0
  -24.7030  -11.8660   20.8150 C   0  0  0  0  0  0  0  0  0  0  0  0
  -26.3360  -13.1290   20.2360 N   0  0  0  0  0  0  0  0  0  0  0  0
  -25.9940  -11.8360   20.4890 N   0  0  0  0  0  0  0  0  0  0  0  0
  -23.9730  -10.6020   20.9950 C   0  0  0  0  0  0  0  0  0  0  0  0
  -24.3970   -9.6340   21.9320 C   0  0  0  0  0  3  0  0  0  0  0  0
  -23.6680   -8.4380   22.1060 C   0  0  0  0  0  3  0  0  0  0  0  0
  -22.5030   -8.1990   21.3390 C   0  0  0  0  0  0  0  0  0  0  0  0
  -22.1000   -9.1530   20.3880 C   0  0  0  0  0  3  0  0  0  0  0  0
  -22.8290  -10.3410   20.2120 C   0  0  0  0  0  3  0  0  0  0  0  0
  -21.7490   -7.0540   21.4190 O   0  0  0  0  0  0  0  0  0  0  0  0
  -21.6630   -6.3260   22.5780 C   0  0  0  0  0  0  0  0  0  0  0  0
  -21.1810   -6.8920   23.7780 C   0  0  0  0  0  3  0  0  0  0  0  0
  -21.0460   -6.0920   24.9310 C   0  0  0  0  0  3  0  0  0  0  0  0
  -21.3840   -4.7260   24.8840 C   0  0  0  0  0  0  0  0  0  0  0  0
  -21.8570   -4.1580   23.6880 C   0  0  0  0  0  3  0  0  0  0  0  0
  -21.9970   -4.9570   22.5390 C   0  0  0  0  0  0  0  0  0  0  0  0
  -22.4360   -4.3990   21.3850 F   0  0  0  0  0  0  0  0  0  0  0  0
  -21.2470   -3.9540   25.9900 F   0  0  0  0  0  0  0  0  0  0  0  0
  -22.8410  -13.6940   21.1470 C   0  0  0  0  0  0  0  0  0  0  0  0
  -22.1160  -12.9880   22.0070 N   0  0  0  0  0  0  0  0  0  0  0  0
  -22.4030  -14.7250   20.6380 O   0  0  0  0  0  0  0  0  0  0  0  0
  -22.4910  -12.1630   22.4480 H   0  0  0  0  0  0  0  0  0  0  0  0
  -21.1760  -13.2800   22.2310 H   0  0  0  0  0  0  0  0  0  0  0  0
  -25.4710  -15.3730   20.3600 N   0  0  0  0  0  0  0  0  0  0  0  0
  -24.7270  -16.0460   20.5010 H   0  0  0  0  0  0  0  0  0  0  0  0
  -26.3210  -15.7880   20.0060 H   0  0  0  0  0  0  0  0  0  0  0  0
  -28.2640  -25.6300   20.4310 O   0  0  0  0  0  0  0  0  0  0  0  0
  -24.6650  -31.9100   23.2530 C   0  0  0  0  0  0  0  0  0  0  0  0
  -27.2360  -26.7930   20.3750 C   0  0  0  0  0  0  0  0  0  0  0  0
  -23.4930  -30.4840   21.6270 C   0  0  0  0  0  3  0  0  0  0  0  0
  -24.9550  -28.8100   20.2600 C   0  0  0  0  0  0  0  0  0  0  0  0
  -26.0690  -30.6360   21.5220 C   0  0  0  0  0  2  0  0  0  0  0  0
  -26.1430  -29.1890   20.8950 C   0  0  0  0  0  0  0  0  0  0  0  0
  -27.2630  -28.2050   20.9220 C   0  0  0  0  0  3  0  0  0  0  0  0
  -26.0100  -26.6230   19.6800 C   0  0  0  0  0  3  0  0  0  0  0  0
  -24.9260  -27.5520   19.6310 C   0  0  0  0  0  3  0  0  0  0  0  0
  -23.7480  -29.7610   20.2700 C   0  0  0  0  0  2  0  0  0  0  0  0
  -24.7670  -31.0440   22.1870 N   0  0  0  0  0  0  0  0  0  0  0  0
  -23.5680  -32.2130   23.7550 O   0  0  0  0  0  0  0  0  0  0  0  0
  -22.7740  -29.5210   22.6120 C   0  0  0  0  0  0  0  0  0  0  0  0
  -21.4450  -29.3530   22.4760 N   0  0  0  0  0  0  0  0  0  0  0  0
  -23.4260  -28.9220   23.4700 O   0  0  0  0  0  0  0  0  0  0  0  0
  -20.9700  -29.8850   21.7600 H   0  0  0  0  0  0  0  0  0  0  0  0
  -18.0650  -28.1110   22.9720 C   0  0  0  0  0  0  0  0  0  0  0  0
  -20.6190  -28.4230   23.2560 C   0  0  0  0  0  3  0  0  0  0  0  0
  -20.7440  -26.9770   22.7160 C   0  0  0  0  0  2  0  0  0  0  0  0
  -19.6590  -26.6190   21.6960 C   0  0  0  0  0  2  0  0  0  0  0  0
  -18.2680  -26.7550   22.3210 C   0  0  0  0  0  2  0  0  0  0  0  0
  -19.1680  -28.9010   23.3970 C   0  0  0  0  0  0  0  0  0  0  0  0
  -18.9170  -30.1670   23.9720 C   0  0  0  0  0  3  0  0  0  0  0  0
  -17.6020  -30.6440   24.1240 C   0  0  0  0  0  3  0  0  0  0  0  0
  -16.5150  -29.8520   23.7120 C   0  0  0  0  0  3  0  0  0  0  0  0
  -16.7480  -28.5890   23.1400 C   0  0  0  0  0  3  0  0  0  0  0  0
  -25.9230  -32.5740   23.8920 C   0  0  0  0  0  3  0  0  0  0  0  0
  -25.5930  -33.9780   24.2070 N   0  0  0  0  0  0  0  0  0  0  0  0
  -25.9130  -35.0370   23.4510 C   0  0  0  0  0  0  0  0  0  0  0  0
  -26.5790  -34.9380   22.4170 O   0  0  0  0  0  0  0  0  0  0  0  0
  -25.0040  -34.1240   25.0130 H   0  0  0  0  0  0  0  0  0  0  0  0
  -24.1710  -36.8270   23.1210 C   0  0  0  0  0  1  0  0  0  0  0  0
  -25.4260  -36.4280   23.9120 C   0  0  0  0  0  3  0  0  0  0  0  0
  -27.5620  -37.3430   24.7080 C   0  0  0  0  0  1  0  0  0  0  0  0
  -26.4490  -37.4880   23.7750 N   0  0  0  0  0  0  0  0  0  0  0  0
  -26.0360  -38.4040   23.9160 H   0  0  0  0  0  0  0  0  0  0  0  0
  -26.4140  -31.8360   25.2000 C   0  0  1  0  0  0  0  0  0  0  0  0
  -25.2990  -31.6240   26.2520 C   0  0  0  0  0  1  0  0  0  0  0  0
  -27.0120  -30.4500   24.8680 C   0  0  0  0  0  1  0  0  0  0  0  0
  -27.5450  -32.6520   25.8690 C   0  0  0  0  0  1  0  0  0  0  0  0
  1  2  1  0
  3  1  2  0
  4  5  2  0
  4  3  1  0
  5  6  1  0
  6 52  1  0
  6  2  2  0
  7  4  1  0
  8  9  1  0
  9  3  1  0
  9 22  1  0
 10  7  1  0
 10 12  1  1
 10  8  1  0
 11  5  1  0
 13 10  1  0
 14 22  1  0
 15 20  1  0
 16 17  1  0
 16 15  1  0
 18 17  1  0
 18 27  1  0
 18 19  1  0
 20 14  1  0
 20 19  1  0
 21 14  2  0
 22 23  1  0
 24 25  2  0
 25 44  1  0
 26 25  1  0
 26 29  1  0
 27 28  1  0
 27 24  1  0
 28 26  2  0
 29 30  1  0
 30 31  2  0
 32 35  1  0
 32 31  1  0
 33 32  2  0
 34 33  1  0
 34 29  2  0
 35 36  1  0
 36 37  1  0
 37 38  2  0
 39 38  1  0
 39 43  1  0
 40 39  2  0
 41 36  2  0
 41 40  1  0
 42 41  1  0
 44 45  1  0
 45 48  1  0
 45 47  1  0
 46 44  2  0
 49 50  1  0
 49 24  1  0
 51 49  1  0
 53 64  2  0
 54 52  1  0
 54 59  1  0
 55 63  1  0
 55 65  1  0
 56 62  1  0
 56 58  1  0
 57 63  1  0
 58 59  2  0
 58 57  1  0
 60 54  2  0
 61 60  1  0
 61 56  2  0
 62 55  1  0
 63 53  1  0
 65 67  2  0
 66 65  1  0
 68 66  1  0
 69 78  2  0
 69 74  1  0
 70 66  1  0
 70 74  1  0
 71 70  1  0
 72 73  1  0
 72 71  1  0
 73 69  1  0
 74 75  2  0
 75 76  1  0
 77 76  2  0
 78 77  1  0
 79 53  1  0
 79 80  1  0
 79 89  1  0
 80 83  1  0
 81 85  1  0
 81 80  1  0
 82 81  2  0
 85 84  1  0
 87 85  1  0
 87 88  1  0
 87 86  1  0
 89 92  1  1
 89 90  1  0
 91 89  1  0
M  ISO  4   6 101  14 100  22 100  52 101
M  END
>  <TORSDO>  (40) 
F 16

>  <SCORE>  (40) 
-16.129

>  <name>  (40) 
39

>  <ligand_id>  (40) 
39

>  <original_smiles>  (40) 
[H]c1c([H])c([H])c2c(c1[H])C([H])([H])C([H])([H])C([H])([H])C2([H])N([H])C(=O)C1([H])N(C(=O)C([H])(N([H])C(=O)C([H])(N([H])C([H])([H])[H])C([H])([H])[H])C(C([H])([H])[H])(C([H])([H])[H])C([H])([H])[H])C([H])([H])c2c([H])c(Oc3c([H])c([H])c4c(c3C([H])([H])[H])C([H])([H])C(C([H])([H])[H])(C([H])([H])[H])C([H])([H])C4([H])N([H])C(=O)N3C([H])([H])C([H])([H])C([H])([H])C([H])(n4nc(-c5c([H])c([H])c(Oc6c([H])c([H])c(F)c([H])c6F)c([H])c5[H])c(C(=O)N([H])[H])c4N([H])[H])C3([H])[H])c([H])c([H])c2C1([H])[H]

>  <smiles>  (40) 
[H]c1c([H])c([H])c2c(c1[H])C([H])([H])C([H])([H])C([H])([H])C2([H])N([H])C(=O)C1([H])N(C(=O)C([H])(N([H])C(=O)C([H])(N([H])C([H])([H])[H])C([H])([H])[H])C(C([H])([H])[H])(C([H])([H])[H])C([H])([H])[H])C([H])([H])c2c([H])c(Oc3c([H])c([H])c4c(c3C([H])([H])[H])C([H])([H])C(C([H])([H])[H])(C([H])([H])[H])C([H])([H])C4([H])N([H])C(=O)N3C([H])([H])C([H])([H])C([H])([H])C([H])(n4nc(-c5c([H])c([H])c(Oc6c([H])c([H])c(F)c([H])c6F)c([H])c5[H])c(C(=O)N([H])[H])c4N([H])[H])C3([H])[H])c([H])c([H])c2C1([H])[H]

$$$$
40:0:0
     RDKit          3D

 91100  0  0  1  0  0  0  0  0999 V2000
  -28.2250  -20.8610   18.6950 C   0  0  0  0  0  3  0  0  0  0  0  0
  -27.5760  -22.0320   18.1790 C   0  0  0  0  0  3  0  0  0  0  0  0
  -29.0520  -22.4110   20.3280 C   0  0  0  0  0  3  0  0  0  0  0  0
  -29.0800  -20.8450   19.8220 C   0  0  0  0  0  0  0  0  0  0  0  0
  -28.3050  -23.7990   19.8550 C   0  0  0  0  0  0  0  0  0  0  0  0
  -27.6170  -23.3790   18.6800 C   0  0  0  0  0  0  0  0  0  0  0  0
  -26.9970  -24.3160   17.9260 F   0  0  0  0  0  0  0  0  0  0  0  0
  -32.4470  -19.2370   20.4950 C   0  0  0  0  0  2  0  0  0  0  0  0
  -31.8180  -19.7860   21.7630 C   0  0  0  0  0  2  0  0  0  0  0  0
  -31.3410  -19.4120   19.4550 C   0  0  0  0  0  2  0  0  0  0  0  0
  -30.3560  -19.3400   21.6730 C   0  0  0  0  0  2  0  0  0  0  0  0
  -29.9900  -19.1850   20.1730 C   0  0  1  0  0  0  0  0  0  0  0  0
  -30.5550  -15.9380   20.0560 C   0  0  0  0  0  0  0  0  0  0  0  0
  -30.7070  -13.3250   19.3530 C   0  0  0  0  0  2  0  0  0  0  0  0
  -29.8440  -12.7740   18.1790 C   0  0  0  0  0  2  0  0  0  0  0  0
  -28.4350  -12.3920   18.6550 C   0  0  0  0  0  2  0  0  0  0  0  0
  -27.8840  -13.4500   19.6360 C   0  0  0  0  0  3  0  0  0  0  0  0
  -28.8970  -13.8980   20.7200 C   0  0  0  0  0  2  0  0  0  0  0  0
  -30.0360  -14.5490   20.0160 N   0  0  0  0  0  0  0  0  0  0  0  0
  -31.7970  -15.8190   19.9710 O   0  0  0  0  0  0  0  0  0  0  0  0
  -29.8220  -17.3600   20.0120 N   0  0  0  0  0  0  0  0  0  0  0  0
  -28.8340  -17.1570   19.9540 H   0  0  0  0  0  0  0  0  0  0  0  0
  -25.5390  -13.9920   20.4330 C   0  0  0  0  0  0  0  0  0  0  0  0
  -24.4740  -13.2210   20.8020 C   0  0  0  0  0  0  0  0  0  0  0  0
  -24.9310  -11.8670   20.7560 C   0  0  0  0  0  0  0  0  0  0  0  0
  -26.5720  -13.1130   20.1740 N   0  0  0  0  0  0  0  0  0  0  0  0
  -26.2230  -11.8260   20.4360 N   0  0  0  0  0  0  0  0  0  0  0  0
  -24.1890  -10.6120   20.9410 C   0  0  0  0  0  0  0  0  0  0  0  0
  -24.5790   -9.6560   21.9060 C   0  0  0  0  0  3  0  0  0  0  0  0
  -23.8360   -8.4690   22.0830 C   0  0  0  0  0  3  0  0  0  0  0  0
  -22.6840   -8.2280   21.2970 C   0  0  0  0  0  0  0  0  0  0  0  0
  -22.3110   -9.1710   20.3230 C   0  0  0  0  0  3  0  0  0  0  0  0
  -23.0550  -10.3500   20.1440 C   0  0  0  0  0  3  0  0  0  0  0  0
  -21.9160   -7.0910   21.3810 O   0  0  0  0  0  0  0  0  0  0  0  0
  -21.7750   -6.4030   22.5600 C   0  0  0  0  0  0  0  0  0  0  0  0
  -21.2160   -7.0020   23.7110 C   0  0  0  0  0  3  0  0  0  0  0  0
  -21.0250   -6.2370   24.8800 C   0  0  0  0  0  3  0  0  0  0  0  0
  -21.3810   -4.8750   24.8990 C   0  0  0  0  0  0  0  0  0  0  0  0
  -21.9320   -4.2760   23.7510 C   0  0  0  0  0  3  0  0  0  0  0  0
  -22.1260   -5.0380   22.5850 C   0  0  0  0  0  0  0  0  0  0  0  0
  -22.6370   -4.4500   21.4760 F   0  0  0  0  0  0  0  0  0  0  0  0
  -21.1910   -4.1400   26.0180 F   0  0  0  0  0  0  0  0  0  0  0  0
  -23.0830  -13.7110   21.0740 C   0  0  0  0  0  0  0  0  0  0  0  0
  -22.3490  -13.0340   21.9490 N   0  0  0  0  0  0  0  0  0  0  0  0
  -22.6550  -14.7360   20.5420 O   0  0  0  0  0  0  0  0  0  0  0  0
  -22.7050  -12.2060   22.4040 H   0  0  0  0  0  0  0  0  0  0  0  0
  -21.4130  -13.3470   22.1630 H   0  0  0  0  0  0  0  0  0  0  0  0
  -25.7130  -15.3620   20.2640 N   0  0  0  0  0  0  0  0  0  0  0  0
  -24.9580  -16.0270   20.3940 H   0  0  0  0  0  0  0  0  0  0  0  0
  -26.5660  -15.7920   19.9330 H   0  0  0  0  0  0  0  0  0  0  0  0
  -28.2730  -25.4290   20.1780 O   0  0  0  0  0  0  0  0  0  0  0  0
  -24.6970  -31.7900   23.1490 C   0  0  0  0  0  0  0  0  0  0  0  0
  -27.2940  -26.6830   20.1050 C   0  0  0  0  0  0  0  0  0  0  0  0
  -23.5390  -30.4040   21.4840 C   0  0  0  0  0  3  0  0  0  0  0  0
  -25.0130  -28.7710   20.0670 C   0  0  0  0  0  0  0  0  0  0  0  0
  -26.1240  -30.5370   21.4000 C   0  0  0  0  0  2  0  0  0  0  0  0
  -26.2040  -29.1040   20.7210 C   0  0  0  0  0  0  0  0  0  0  0  0
  -27.3200  -28.0900   20.7070 C   0  0  0  0  0  3  0  0  0  0  0  0
  -26.0540  -26.5900   19.4080 C   0  0  0  0  0  3  0  0  0  0  0  0
  -24.9840  -27.5410   19.3890 C   0  0  0  0  0  3  0  0  0  0  0  0
  -23.8020  -29.7220   20.1100 C   0  0  0  0  0  2  0  0  0  0  0  0
  -24.8120  -30.9440   22.0640 N   0  0  0  0  0  0  0  0  0  0  0  0
  -23.5960  -32.0800   23.6460 O   0  0  0  0  0  0  0  0  0  0  0  0
  -22.8090  -29.4180   22.4360 C   0  0  0  0  0  0  0  0  0  0  0  0
  -21.4800  -29.2540   22.2890 N   0  0  0  0  0  0  0  0  0  0  0  0
  -23.4550  -28.7970   23.2840 O   0  0  0  0  0  0  0  0  0  0  0  0
  -21.0080  -29.8040   21.5850 H   0  0  0  0  0  0  0  0  0  0  0  0
  -18.1030  -27.9770   22.7210 C   0  0  0  0  0  0  0  0  0  0  0  0
  -20.6510  -28.3010   23.0400 C   0  0  0  0  0  3  0  0  0  0  0  0
  -20.7950  -26.8720   22.4680 C   0  0  0  0  0  2  0  0  0  0  0  0
  -19.7230  -26.5280   21.4270 C   0  0  0  0  0  2  0  0  0  0  0  0
  -18.3240  -26.6380   22.0390 C   0  0  0  0  0  2  0  0  0  0  0  0
  -19.1950  -28.7660   23.1760 C   0  0  0  0  0  0  0  0  0  0  0  0
  -18.9290  -30.0150   23.7760 C   0  0  0  0  0  3  0  0  0  0  0  0
  -17.6080  -30.4780   23.9270 C   0  0  0  0  0  3  0  0  0  0  0  0
  -16.5320  -29.6880   23.4860 C   0  0  0  0  0  3  0  0  0  0  0  0
  -16.7810  -28.4410   22.8870 C   0  0  0  0  0  3  0  0  0  0  0  0
  -25.9450  -32.4460   23.8150 C   0  0  0  0  0  3  0  0  0  0  0  0
  -25.6110  -33.8460   24.1520 N   0  0  0  0  0  0  0  0  0  0  0  0
  -25.9290  -34.9160   23.4100 C   0  0  0  0  0  0  0  0  0  0  0  0
  -26.5870  -34.8290   22.3720 O   0  0  0  0  0  0  0  0  0  0  0  0
  -25.0230  -33.9860   24.9600 H   0  0  0  0  0  0  0  0  0  0  0  0
  -24.1770  -36.7060   23.1240 C   0  0  0  0  0  1  0  0  0  0  0  0
  -25.4450  -36.3010   23.8930 C   0  0  0  0  0  3  0  0  0  0  0  0
  -27.5860  -37.2180   24.6780 C   0  0  0  0  0  1  0  0  0  0  0  0
  -26.4650  -37.3640   23.7530 N   0  0  0  0  0  0  0  0  0  0  0  0
  -26.0540  -38.2820   23.8960 H   0  0  0  0  0  0  0  0  0  0  0  0
  -26.4160  -31.6860   25.1180 C   0  0  1  0  0  0  0  0  0  0  0  0
  -25.2890  -31.4610   26.1540 C   0  0  0  0  0  1  0  0  0  0  0  0
  -27.0100  -30.3020   24.7730 C   0  0  0  0  0  1  0  0  0  0  0  0
  -27.5450  -32.4850   25.8110 C   0  0  0  0  0  1  0  0  0  0  0  0
  1  4  1  0
  2  6  1  0
  2  1  2  0
  4 12  1  0
  4  3  2  0
  5 51  1  0
  5  3  1  0
  6  5  2  0
  7  6  1  0
  8  9  1  0
 10 12  1  0
 10  8  1  0
 11  9  1  0
 12 11  1  0
 14 19  1  0
 15 16  1  0
 15 14  1  0
 17 16  1  0
 17 26  1  0
 17 18  1  0
 19 13  1  0
 19 18  1  0
 20 13  2  0
 21 13  1  0
 12 21  1  1
 22 21  1  0
 23 24  2  0
 24 43  1  0
 25 24  1  0
 25 28  1  0
 26 23  1  0
 26 27  1  0
 27 25  2  0
 28 29  1  0
 29 30  2  0
 31 34  1  0
 31 30  1  0
 32 31  2  0
 33 32  1  0
 33 28  2  0
 34 35  1  0
 35 40  2  0
 35 36  1  0
 36 37  2  0
 37 38  1  0
 38 42  1  0
 39 38  2  0
 40 39  1  0
 41 40  1  0
 43 44  1  0
 44 47  1  0
 44 46  1  0
 45 43  2  0
 48 49  1  0
 48 23  1  0
 50 48  1  0
 52 63  2  0
 53 51  1  0
 53 58  1  0
 54 62  1  0
 54 64  1  0
 55 61  1  0
 55 57  1  0
 56 62  1  0
 57 56  1  0
 58 57  2  0
 59 53  2  0
 60 59  1  0
 60 55  2  0
 61 54  1  0
 62 52  1  0
 64 66  2  0
 65 64  1  0
 67 65  1  0
 68 77  2  0
 68 73  1  0
 69 65  1  0
 69 73  1  0
 70 69  1  0
 71 72  1  0
 71 70  1  0
 72 68  1  0
 73 74  2  0
 74 75  1  0
 76 75  2  0
 77 76  1  0
 78 52  1  0
 78 79  1  0
 78 88  1  0
 79 82  1  0
 80 84  1  0
 80 79  1  0
 81 80  2  0
 84 83  1  0
 86 84  1  0
 86 87  1  0
 86 85  1  0
 88 91  1  1
 88 89  1  0
 90 88  1  0
M  ISO  4   5 101  13 100  21 100  51 101
M  END
>  <TORSDO>  (41) 
F 17

>  <SCORE>  (41) 
-16.550

>  <name>  (41) 
40

>  <ligand_id>  (41) 
40

>  <original_smiles>  (41) 
[H]c1c([H])c([H])c2c(c1[H])C([H])([H])C([H])([H])C([H])([H])C2([H])N([H])C(=O)C1([H])N(C(=O)C([H])(N([H])C(=O)C([H])(N([H])C([H])([H])[H])C([H])([H])[H])C(C([H])([H])[H])(C([H])([H])[H])C([H])([H])[H])C([H])([H])c2c([H])c(Oc3c([H])c(C4(N([H])C(=O)N5C([H])([H])C([H])([H])C([H])([H])C([H])(n6nc(-c7c([H])c([H])c(Oc8c([H])c([H])c(F)c([H])c8F)c([H])c7[H])c(C(=O)N([H])[H])c6N([H])[H])C5([H])[H])C([H])([H])C([H])([H])C([H])([H])C4([H])[H])c([H])c([H])c3F)c([H])c([H])c2C1([H])[H]

>  <smiles>  (41) 
[H]c1c([H])c([H])c2c(c1[H])C([H])([H])C([H])([H])C([H])([H])C2([H])N([H])C(=O)C1([H])N(C(=O)C([H])(N([H])C(=O)C([H])(N([H])C([H])([H])[H])C([H])([H])[H])C(C([H])([H])[H])(C([H])([H])[H])C([H])([H])[H])C([H])([H])c2c([H])c(Oc3c([H])c(C4(N([H])C(=O)N5C([H])([H])C([H])([H])C([H])([H])C([H])(n6nc(-c7c([H])c([H])c(Oc8c([H])c([H])c(F)c([H])c8F)c([H])c7[H])c(C(=O)N([H])[H])c6N([H])[H])C5([H])[H])C([H])([H])C([H])([H])C([H])([H])C4([H])[H])c([H])c([H])c3F)c([H])c([H])c2C1([H])[H]

$$$$
41:0:0
     RDKit          3D

 99107  0  0  1  0  0  0  0  0999 V2000
  -29.5030  -23.2780   22.1030 C   0  0  0  0  0  3  0  0  0  0  0  0
  -28.9830  -24.4510   20.0400 C   0  0  0  0  0  3  0  0  0  0  0  0
  -29.3010  -24.4630   22.8500 C   0  0  0  0  0  0  0  0  0  0  0  0
  -29.3450  -23.2580   20.7020 C   0  0  0  0  0  0  0  0  0  0  0  0
  -28.7840  -25.6530   20.7520 C   0  0  0  0  0  0  0  0  0  0  0  0
  -28.9350  -25.6540   22.1640 C   0  0  0  0  0  0  0  0  0  0  0  0
  -28.7850  -26.8340   22.8380 O   0  0  0  0  0  0  0  0  0  0  0  0
  -28.4050  -27.4970   22.2720 H   0  0  0  0  0  0  0  0  0  0  0  0
  -29.4560  -24.4040   24.3390 C   0  0  0  0  0  0  0  0  0  0  0  0
  -28.9400  -25.2120   25.1170 O   0  0  0  0  0  0  0  0  0  0  0  0
  -30.3090  -23.2530   24.8980 C   0  0  0  0  0  2  0  0  0  0  0  0
  -30.9050  -23.5370   26.2920 C   0  0  0  0  0  2  0  0  0  0  0  0
  -31.9510  -22.4960   26.7190 C   0  0  0  0  0  2  0  0  0  0  0  0
  -32.6930  -22.9120   27.9980 C   0  0  0  0  0  2  0  0  0  0  0  0
  -34.6420  -22.4480   29.5700 C   0  0  0  0  0  1  0  0  0  0  0  0
  -33.8140  -21.9390   28.3840 C   0  0  0  0  0  2  0  0  0  0  0  0
  -28.5800  -26.8100   20.0240 O   0  0  0  0  0  0  0  0  0  0  0  0
  -24.6260  -31.8360   23.1290 C   0  0  0  0  0  0  0  0  0  0  0  0
  -27.3780  -27.4750   20.0680 C   0  0  0  0  0  0  0  0  0  0  0  0
  -23.4480  -30.4060   21.4860 C   0  0  0  0  0  3  0  0  0  0  0  0
  -24.9380  -28.8940   20.0700 C   0  0  0  0  0  0  0  0  0  0  0  0
  -25.9570  -30.8370   21.2750 C   0  0  0  0  0  2  0  0  0  0  0  0
  -26.0780  -29.4650   20.6460 C   0  0  0  0  0  0  0  0  0  0  0  0
  -27.3040  -28.7690   20.6280 C   0  0  0  0  0  3  0  0  0  0  0  0
  -26.2250  -26.9070   19.4880 C   0  0  0  0  0  3  0  0  0  0  0  0
  -25.0040  -27.6140   19.4850 C   0  0  0  0  0  3  0  0  0  0  0  0
  -23.6700  -29.7200   20.1090 C   0  0  0  0  0  2  0  0  0  0  0  0
  -24.6950  -31.0410   22.0240 N   0  0  0  0  0  0  0  0  0  0  0  0
  -23.5420  -32.0850   23.6720 O   0  0  0  0  0  0  0  0  0  0  0  0
  -22.8210  -29.3760   22.4500 C   0  0  0  0  0  0  0  0  0  0  0  0
  -21.5110  -29.1290   22.2900 N   0  0  0  0  0  0  0  0  0  0  0  0
  -23.5110  -28.7970   23.2930 O   0  0  0  0  0  0  0  0  0  0  0  0
  -21.0190  -29.6470   21.5730 H   0  0  0  0  0  0  0  0  0  0  0  0
  -18.1930  -27.7550   22.6800 C   0  0  0  0  0  0  0  0  0  0  0  0
  -20.7160  -28.1700   23.0540 C   0  0  0  0  0  3  0  0  0  0  0  0
  -20.9290  -26.7320   22.5290 C   0  0  0  0  0  2  0  0  0  0  0  0
  -19.8930  -26.3160   21.4790 C   0  0  0  0  0  2  0  0  0  0  0  0
  -18.4770  -26.3990   22.0570 C   0  0  0  0  0  2  0  0  0  0  0  0
  -19.2460  -28.5930   23.1350 C   0  0  0  0  0  0  0  0  0  0  0  0
  -18.9300  -29.8580   23.6740 C   0  0  0  0  0  3  0  0  0  0  0  0
  -17.5930  -30.2880   23.7660 C   0  0  0  0  0  3  0  0  0  0  0  0
  -16.5530  -29.4480   23.3290 C   0  0  0  0  0  3  0  0  0  0  0  0
  -16.8540  -28.1840   22.7910 C   0  0  0  0  0  3  0  0  0  0  0  0
  -25.9000  -32.4940   23.7480 C   0  0  0  0  0  3  0  0  0  0  0  0
  -25.5750  -33.8960   24.0380 N   0  0  0  0  0  0  0  0  0  0  0  0
  -25.9010  -34.9310   23.2500 C   0  0  0  0  0  0  0  0  0  0  0  0
  -26.5790  -34.8070   22.2270 O   0  0  0  0  0  0  0  0  0  0  0  0
  -24.9700  -34.0660   24.8270 H   0  0  0  0  0  0  0  0  0  0  0  0
  -24.1520  -36.6920   22.8390 C   0  0  0  0  0  1  0  0  0  0  0  0
  -25.3960  -36.3260   23.6650 C   0  0  0  0  0  3  0  0  0  0  0  0
  -27.5210  -37.2540   24.4710 C   0  0  0  0  0  1  0  0  0  0  0  0
  -26.4160  -37.3880   23.5250 N   0  0  0  0  0  0  0  0  0  0  0  0
  -26.0020  -38.3070   23.6500 H   0  0  0  0  0  0  0  0  0  0  0  0
  -26.4120  -31.7570   25.0450 C   0  0  1  0  0  0  0  0  0  0  0  0
  -25.3090  -31.5220   26.1030 C   0  0  0  0  0  1  0  0  0  0  0  0
  -27.0210  -30.3810   24.6900 C   0  0  0  0  0  1  0  0  0  0  0  0
  -27.5420  -32.5830   25.7080 C   0  0  0  0  0  1  0  0  0  0  0  0
  -29.6500  -21.9940   19.9000 C   0  0  0  0  0  2  0  0  0  0  0  0
  -29.1750  -20.6670   20.5360 C   0  0  0  0  0  2  0  0  0  0  0  0
  -29.8210  -19.4340   19.8710 C   0  0  0  0  0  2  0  0  0  0  0  0
  -29.5290  -18.1010   20.5890 C   0  0  0  0  0  2  0  0  0  0  0  0
  -30.3100  -16.9240   19.9680 C   0  0  0  0  0  2  0  0  0  0  0  0
  -30.0400  -15.5460   20.6250 C   0  0  0  0  0  2  0  0  0  0  0  0
  -30.6530  -14.3730   19.8240 C   0  0  0  0  0  0  0  0  0  0  0  0
  -30.2730  -12.2490   18.6240 C   0  0  0  0  0  2  0  0  0  0  0  0
  -29.2210  -12.4790   17.5190 C   0  0  0  0  0  2  0  0  0  0  0  0
  -27.7920  -12.3210   18.0780 C   0  0  0  0  0  2  0  0  0  0  0  0
  -27.5700  -13.1260   19.3870 C   0  0  0  0  0  3  0  0  0  0  0  0
  -28.7210  -12.8700   20.3860 C   0  0  0  0  0  2  0  0  0  0  0  0
  -29.9850  -13.1950   19.7120 N   0  0  0  0  0  0  0  0  0  0  0  0
  -31.7090  -14.5820   19.2160 O   0  0  0  0  0  0  0  0  0  0  0  0
  -25.2770  -13.7130   20.4040 C   0  0  0  0  0  0  0  0  0  0  0  0
  -24.2290  -12.9300   20.8080 C   0  0  0  0  0  0  0  0  0  0  0  0
  -24.6400  -11.5790   20.5950 C   0  0  0  0  0  0  0  0  0  0  0  0
  -26.2630  -12.8360   19.9770 N   0  0  0  0  0  0  0  0  0  0  0  0
  -25.8880  -11.5430   20.1470 N   0  0  0  0  0  0  0  0  0  0  0  0
  -23.8980  -10.3190   20.7380 C   0  0  0  0  0  0  0  0  0  0  0  0
  -24.3700   -9.2760   21.5670 C   0  0  0  0  0  3  0  0  0  0  0  0
  -23.6300   -8.0820   21.7020 C   0  0  0  0  0  3  0  0  0  0  0  0
  -22.4070   -7.9210   21.0100 C   0  0  0  0  0  0  0  0  0  0  0  0
  -21.9540   -8.9540   20.1690 C   0  0  0  0  0  3  0  0  0  0  0  0
  -22.6930  -10.1410   20.0310 C   0  0  0  0  0  3  0  0  0  0  0  0
  -21.6350   -6.7860   21.0600 O   0  0  0  0  0  0  0  0  0  0  0  0
  -21.6110   -5.9810   22.1710 C   0  0  0  0  0  0  0  0  0  0  0  0
  -21.2330   -6.4730   23.4390 C   0  0  0  0  0  3  0  0  0  0  0  0
  -21.1550   -5.5960   24.5390 C   0  0  0  0  0  3  0  0  0  0  0  0
  -21.4440   -4.2280   24.3720 C   0  0  0  0  0  0  0  0  0  0  0  0
  -21.8160   -3.7360   23.1080 C   0  0  0  0  0  3  0  0  0  0  0  0
  -21.8950   -4.6100   22.0100 C   0  0  0  0  0  0  0  0  0  0  0  0
  -22.2330   -4.1270   20.7910 F   0  0  0  0  0  0  0  0  0  0  0  0
  -21.3620   -3.3830   25.4270 F   0  0  0  0  0  0  0  0  0  0  0  0
  -22.8830  -13.4070   21.2750 C   0  0  0  0  0  0  0  0  0  0  0  0
  -22.2300  -12.6460   22.1470 N   0  0  0  0  0  0  0  0  0  0  0  0
  -22.4230  -14.4860   20.9050 O   0  0  0  0  0  0  0  0  0  0  0  0
  -22.6150  -11.7700   22.4680 H   0  0  0  0  0  0  0  0  0  0  0  0
  -21.3330  -12.9450   22.5000 H   0  0  0  0  0  0  0  0  0  0  0  0
  -25.4650  -15.0900   20.3440 N   0  0  0  0  0  0  0  0  0  0  0  0
  -24.7360  -15.7480   20.6020 H   0  0  0  0  0  0  0  0  0  0  0  0
  -26.2960  -15.5420   19.9820 H   0  0  0  0  0  0  0  0  0  0  0  0
  1  3  1  0
  2  4  1  0
  2  5  2  0
  3  9  1  0
  4  1  2  0
  5  6  1  0
  6  7  1  0
  6  3  2  0
  8  7  1  0
  9 11  1  0
  9 10  2  0
 11 12  1  0
 12 13  1  0
 13 14  1  0
 14 16  1  0
 16 15  1  0
 17 19  1  0
 17  5  1  0
 18 29  2  0
 19 24  1  0
 20 28  1  0
 20 30  1  0
 21 27  1  0
 21 23  1  0
 22 28  1  0
 23 22  1  0
 24 23  2  0
 25 19  2  0
 26 25  1  0
 26 21  2  0
 27 20  1  0
 28 18  1  0
 30 32  2  0
 31 30  1  0
 33 31  1  0
 34 43  2  0
 34 39  1  0
 35 31  1  0
 35 39  1  0
 36 35  1  0
 37 38  1  0
 37 36  1  0
 38 34  1  0
 39 40  2  0
 40 41  1  0
 42 41  2  0
 43 42  1  0
 44 18  1  0
 44 45  1  0
 44 54  1  0
 45 48  1  0
 46 50  1  0
 46 45  1  0
 47 46  2  0
 50 49  1  0
 52 53  1  0
 52 50  1  0
 52 51  1  0
 54 57  1  1
 54 55  1  0
 56 54  1  0
 58 59  1  0
 58  4  1  0
 60 59  1  0
 60 61  1  0
 62 61  1  0
 62 63  1  0
 64 63  1  0
 65 70  1  0
 66 67  1  0
 66 65  1  0
 68 67  1  0
 68 75  1  0
 68 69  1  0
 70 64  1  0
 70 69  1  0
 71 64  2  0
 72 73  2  0
 73 92  1  0
 74 77  1  0
 74 73  1  0
 75 76  1  0
 75 72  1  0
 76 74  2  0
 77 78  1  0
 78 79  2  0
 80 83  1  0
 80 79  1  0
 81 80  2  0
 82 81  1  0
 82 77  2  0
 83 84  1  0
 84 85  1  0
 85 86  2  0
 87 86  1  0
 87 91  1  0
 88 87  2  0
 89 84  2  0
 89 88  1  0
 90 89  1  0
 92 93  1  0
 93 95  1  0
 93 96  1  0
 94 92  2  0
 97 72  1  0
 97 98  1  0
 99 97  1  0
M  ISO  4   5 101  17 101  63 100  64 100
M  END
>  <TORSDO>  (42) 
F 29

>  <SCORE>  (42) 
10.198

>  <name>  (42) 
41

>  <ligand_id>  (42) 
41

>  <original_smiles>  (42) 
[H]Oc1c(Oc2c([H])c([H])c3c(c2[H])C([H])([H])N(C(=O)C([H])(N([H])C(=O)C([H])(N([H])C([H])([H])[H])C([H])([H])[H])C(C([H])([H])[H])(C([H])([H])[H])C([H])([H])[H])C([H])(C(=O)N([H])C2([H])c4c([H])c([H])c([H])c([H])c4C([H])([H])C([H])([H])C2([H])[H])C3([H])[H])c([H])c(C([H])([H])C([H])([H])C([H])([H])C([H])([H])C([H])([H])C([H])([H])C(=O)N2C([H])([H])C([H])([H])C([H])([H])C([H])(n3nc(-c4c([H])c([H])c(Oc5c([H])c([H])c(F)c([H])c5F)c([H])c4[H])c(C(=O)N([H])[H])c3N([H])[H])C2([H])[H])c([H])c1C(=O)C([H])([H])C([H])([H])C([H])([H])C([H])([H])C([H])([H])C([H])([H])[H]

>  <smiles>  (42) 
[H]Oc1c(Oc2c([H])c([H])c3c(c2[H])C([H])([H])N(C(=O)C([H])(N([H])C(=O)C([H])(N([H])C([H])([H])[H])C([H])([H])[H])C(C([H])([H])[H])(C([H])([H])[H])C([H])([H])[H])C([H])(C(=O)N([H])C2([H])c4c([H])c([H])c([H])c([H])c4C([H])([H])C([H])([H])C2([H])[H])C3([H])[H])c([H])c(C([H])([H])C([H])([H])C([H])([H])C([H])([H])C([H])([H])C([H])([H])C(=O)N2C([H])([H])C([H])([H])C([H])([H])C([H])(n3nc(-c4c([H])c([H])c(Oc5c([H])c([H])c(F)c([H])c5F)c([H])c4[H])c(C(=O)N([H])[H])c3N([H])[H])C2([H])[H])c([H])c1C(=O)C([H])([H])C([H])([H])C([H])([H])C([H])([H])C([H])([H])C([H])([H])[H]

$$$$
42:0:0
     RDKit          3D

 98107  0  0  1  0  0  0  0  0999 V2000
  -31.7350  -25.2900   20.5620 C   0  0  0  0  0  3  0  0  0  0  0  0
  -31.8530  -24.1550   21.3820 C   0  0  0  0  0  3  0  0  0  0  0  0
  -29.4860  -25.6710   21.4130 C   0  0  0  0  0  3  0  0  0  0  0  0
  -30.5410  -26.0510   20.5540 C   0  0  0  0  0  0  0  0  0  0  0  0
  -30.7770  -23.7510   22.1990 C   0  0  0  0  0  0  0  0  0  0  0  0
  -29.5960  -24.5230   22.2220 C   0  0  0  0  0  0  0  0  0  0  0  0
  -28.5530  -24.1520   23.0030 F   0  0  0  0  0  0  0  0  0  0  0  0
  -31.1820  -27.1230   17.4680 C   0  0  0  0  0  0  0  0  0  0  0  0
  -29.7330  -26.6870   17.3650 C   0  0  0  0  0  2  0  0  0  0  0  0
  -30.3750  -27.2780   19.6490 C   0  0  0  0  0  3  0  0  0  0  0  0
  -29.1630  -27.2090   18.6860 C   0  0  0  0  0  3  0  0  0  0  0  0
  -31.4830  -27.4590   18.7200 N   0  0  0  0  0  0  0  0  0  0  0  0
  -31.9570  -27.1640   16.5120 O   0  0  0  0  0  0  0  0  0  0  0  0
  -32.3880  -27.7960   19.0150 H   0  0  0  0  0  0  0  0  0  0  0  0
  -28.0310  -26.4420   19.1160 O   0  0  0  0  0  0  0  0  0  0  0  0
  -24.5790  -31.3620   22.9570 C   0  0  0  0  0  0  0  0  0  0  0  0
  -26.8920  -27.1800   19.3330 C   0  0  0  0  0  0  0  0  0  0  0  0
  -23.2370  -30.1910   21.2360 C   0  0  0  0  0  3  0  0  0  0  0  0
  -24.5570  -28.7330   19.6100 C   0  0  0  0  0  0  0  0  0  0  0  0
  -25.7600  -30.4630   20.9620 C   0  0  0  0  0  2  0  0  0  0  0  0
  -25.7520  -29.1570   20.2000 C   0  0  0  0  0  0  0  0  0  0  0  0
  -26.9170  -28.3780   20.0790 C   0  0  0  0  0  3  0  0  0  0  0  0
  -25.6770  -26.7420   18.7700 C   0  0  0  0  0  3  0  0  0  0  0  0
  -24.5070  -27.5170   18.9010 C   0  0  0  0  0  3  0  0  0  0  0  0
  -23.3580  -29.6370   19.7890 C   0  0  0  0  0  2  0  0  0  0  0  0
  -24.5460  -30.6800   21.7780 N   0  0  0  0  0  0  0  0  0  0  0  0
  -23.5370  -31.6290   23.5710 O   0  0  0  0  0  0  0  0  0  0  0  0
  -22.5760  -29.1100   22.1190 C   0  0  0  0  0  0  0  0  0  0  0  0
  -21.2380  -29.0210   22.0520 N   0  0  0  0  0  0  0  0  0  0  0  0
  -23.2600  -28.3570   22.8180 O   0  0  0  0  0  0  0  0  0  0  0  0
  -20.7500  -29.6780   21.4590 H   0  0  0  0  0  0  0  0  0  0  0  0
  -17.8210  -28.0220   22.6540 C   0  0  0  0  0  0  0  0  0  0  0  0
  -20.4030  -28.0560   22.7640 C   0  0  0  0  0  3  0  0  0  0  0  0
  -20.3520  -26.7040   22.0140 C   0  0  0  0  0  2  0  0  0  0  0  0
  -19.1650  -26.5930   21.0520 C   0  0  0  0  0  2  0  0  0  0  0  0
  -17.8430  -26.7600   21.8090 C   0  0  0  0  0  2  0  0  0  0  0  0
  -19.0240  -28.6400   23.0890 C   0  0  0  0  0  0  0  0  0  0  0  0
  -18.9480  -29.8340   23.8390 C   0  0  0  0  0  3  0  0  0  0  0  0
  -17.7030  -30.4050   24.1600 C   0  0  0  0  0  3  0  0  0  0  0  0
  -16.5150  -29.7800   23.7420 C   0  0  0  0  0  3  0  0  0  0  0  0
  -16.5750  -28.5890   22.9940 C   0  0  0  0  0  3  0  0  0  0  0  0
  -25.9220  -31.8640   23.5780 C   0  0  0  0  0  3  0  0  0  0  0  0
  -25.7120  -33.2460   24.0290 N   0  0  0  0  0  0  0  0  0  0  0  0
  -26.0950  -34.3340   23.3470 C   0  0  0  0  0  0  0  0  0  0  0  0
  -26.7350  -34.2740   22.2930 O   0  0  0  0  0  0  0  0  0  0  0  0
  -25.1510  -33.3700   24.8590 H   0  0  0  0  0  0  0  0  0  0  0  0
  -24.4720  -36.2450   23.1820 C   0  0  0  0  0  1  0  0  0  0  0  0
  -25.7040  -35.7060   23.9250 C   0  0  0  0  0  3  0  0  0  0  0  0
  -27.9070  -36.3950   24.7640 C   0  0  0  0  0  1  0  0  0  0  0  0
  -26.7970  -36.7020   23.8660 N   0  0  0  0  0  0  0  0  0  0  0  0
  -26.4510  -37.6300   24.0950 H   0  0  0  0  0  0  0  0  0  0  0  0
  -26.4360  -30.9600   24.7650 C   0  0  1  0  0  0  0  0  0  0  0  0
  -25.3700  -30.6980   25.8530 C   0  0  0  0  0  1  0  0  0  0  0  0
  -26.9200  -29.5890   24.2350 C   0  0  0  0  0  1  0  0  0  0  0  0
  -27.6560  -31.6270   25.4430 C   0  0  0  0  0  1  0  0  0  0  0  0
  -30.8790  -22.4450   22.9620 C   0  0  0  0  0  2  0  0  0  0  0  0
  -30.8040  -21.2710   21.9760 C   0  0  0  0  0  2  0  0  0  0  0  0
  -30.9760  -19.8770   22.5880 C   0  0  0  0  0  2  0  0  0  0  0  0
  -30.9310  -18.8270   21.4710 C   0  0  0  0  0  2  0  0  0  0  0  0
  -31.0090  -17.3770   21.9560 C   0  0  0  0  0  2  0  0  0  0  0  0
  -30.9170  -16.4060   20.7680 C   0  0  0  0  0  2  0  0  0  0  0  0
  -31.0920  -14.9300   21.1690 C   0  0  0  0  0  2  0  0  0  0  0  0
  -31.2330  -14.0090   19.9440 C   0  0  0  0  0  0  0  0  0  0  0  0
  -30.6590  -11.9700   18.6750 C   0  0  0  0  0  2  0  0  0  0  0  0
  -29.6430  -12.2310   17.5500 C   0  0  0  0  0  2  0  0  0  0  0  0
  -28.2040  -12.1510   18.0840 C   0  0  0  0  0  2  0  0  0  0  0  0
  -28.0020  -12.9940   19.3700 C   0  0  0  0  0  3  0  0  0  0  0  0
  -29.1150  -12.7000   20.4010 C   0  0  0  0  0  2  0  0  0  0  0  0
  -30.4190  -12.9350   19.7590 N   0  0  0  0  0  0  0  0  0  0  0  0
  -32.1680  -14.2550   19.1760 O   0  0  0  0  0  0  0  0  0  0  0  0
  -25.6780  -13.7070   20.2200 C   0  0  0  0  0  0  0  0  0  0  0  0
  -24.6090  -12.9810   20.6710 C   0  0  0  0  0  0  0  0  0  0  0  0
  -25.0150  -11.6120   20.6330 C   0  0  0  0  0  0  0  0  0  0  0  0
  -26.6730  -12.7830   19.9390 N   0  0  0  0  0  0  0  0  0  0  0  0
  -26.2800  -11.5190   20.2410 N   0  0  0  0  0  0  0  0  0  0  0  0
  -24.2570  -10.3810   20.8930 C   0  0  0  0  0  0  0  0  0  0  0  0
  -24.6570   -9.4650   21.8900 C   0  0  0  0  0  3  0  0  0  0  0  0
  -23.9010   -8.2980   22.1340 C   0  0  0  0  0  3  0  0  0  0  0  0
  -22.7320   -8.0390   21.3810 C   0  0  0  0  0  0  0  0  0  0  0  0
  -22.3510   -8.9430   20.3730 C   0  0  0  0  0  3  0  0  0  0  0  0
  -23.1070  -10.1010   20.1280 C   0  0  0  0  0  3  0  0  0  0  0  0
  -21.9500   -6.9190   21.5300 O   0  0  0  0  0  0  0  0  0  0  0  0
  -21.8110   -6.2950   22.7440 C   0  0  0  0  0  0  0  0  0  0  0  0
  -21.3060   -6.9730   23.8750 C   0  0  0  0  0  3  0  0  0  0  0  0
  -21.1120   -6.2770   25.0840 C   0  0  0  0  0  3  0  0  0  0  0  0
  -21.4120   -4.9040   25.1640 C   0  0  0  0  0  0  0  0  0  0  0  0
  -21.9100   -4.2260   24.0370 C   0  0  0  0  0  3  0  0  0  0  0  0
  -22.1060   -4.9190   22.8310 C   0  0  0  0  0  0  0  0  0  0  0  0
  -22.5660   -4.2560   21.7410 F   0  0  0  0  0  0  0  0  0  0  0  0
  -21.2180   -4.2340   26.3230 F   0  0  0  0  0  0  0  0  0  0  0  0
  -23.2510  -13.5140   21.0290 C   0  0  0  0  0  0  0  0  0  0  0  0
  -22.5640  -12.8640   21.9610 N   0  0  0  0  0  0  0  0  0  0  0  0
  -22.8110  -14.5410   20.5150 O   0  0  0  0  0  0  0  0  0  0  0  0
  -22.9340  -12.0320   22.3950 H   0  0  0  0  0  0  0  0  0  0  0  0
  -21.6550  -13.2030   22.2450 H   0  0  0  0  0  0  0  0  0  0  0  0
  -25.8790  -15.0670   20.0110 N   0  0  0  0  0  0  0  0  0  0  0  0
  -25.1460  -15.7500   20.1620 H   0  0  0  0  0  0  0  0  0  0  0  0
  -26.7280  -15.4730   19.6380 H   0  0  0  0  0  0  0  0  0  0  0  0
  1  2  1  0
  2  5  2  0
  3  6  2  0
  4  1  2  0
  4  3  1  0
  5  6  1  0
  5 56  1  0
  6  7  1  0
  8 12  1  0
  9  8  1  0
  9 11  1  0
 10  4  1  0
 11 15  1  0
 11 10  1  0
 12 14  1  0
 12 10  1  0
 13  8  2  0
 15 17  1  0
 16 27  2  0
 17 22  1  0
 18 26  1  0
 18 28  1  0
 19 25  1  0
 19 21  1  0
 20 26  1  0
 21 20  1  0
 22 21  2  0
 23 24  1  0
 23 17  2  0
 24 19  2  0
 25 18  1  0
 26 16  1  0
 28 30  2  0
 29 28  1  0
 31 29  1  0
 32 41  2  0
 32 37  1  0
 33 29  1  0
 33 37  1  0
 34 33  1  0
 35 36  1  0
 35 34  1  0
 36 32  1  0
 37 38  2  0
 38 39  1  0
 40 39  2  0
 41 40  1  0
 42 16  1  0
 42 43  1  0
 42 52  1  0
 43 46  1  0
 44 48  1  0
 44 43  1  0
 45 44  2  0
 48 47  1  0
 50 48  1  0
 50 51  1  0
 50 49  1  0
 52 55  1  1
 52 53  1  0
 54 52  1  0
 57 58  1  0
 57 56  1  0
 59 60  1  0
 59 58  1  0
 61 62  1  0
 61 60  1  0
 63 62  1  0
 64 69  1  0
 65 66  1  0
 65 64  1  0
 67 66  1  0
 67 74  1  0
 67 68  1  0
 69 63  1  0
 69 68  1  0
 70 63  2  0
 71 72  2  0
 72 91  1  0
 73 72  1  0
 73 76  1  0
 74 71  1  0
 74 75  1  0
 75 73  2  0
 76 77  1  0
 77 78  2  0
 79 82  1  0
 79 78  1  0
 80 79  2  0
 81 80  1  0
 81 76  2  0
 82 83  1  0
 83 88  2  0
 83 84  1  0
 84 85  2  0
 85 86  1  0
 86 90  1  0
 87 86  2  0
 88 87  1  0
 89 88  1  0
 91 92  1  0
 92 95  1  0
 92 94  1  0
 93 91  2  0
 96 97  1  0
 96 71  1  0
 98 96  1  0
M  ISO  4  11 101  15 101  62 100  63 100
M  END
>  <TORSDO>  (43) 
F 24

>  <SCORE>  (43) 
-10.041

>  <name>  (43) 
42

>  <ligand_id>  (43) 
42

>  <original_smiles>  (43) 
[H]c1c([H])c([H])c2c(c1[H])C([H])([H])C([H])([H])C([H])([H])C2([H])N([H])C(=O)C1([H])N(C(=O)C([H])(N([H])C(=O)C([H])(N([H])C([H])([H])[H])C([H])([H])[H])C(C([H])([H])[H])(C([H])([H])[H])C([H])([H])[H])C([H])([H])c2c([H])c(OC3([H])C([H])([H])C(=O)N([H])C3([H])c3c([H])c([H])c(C([H])([H])C([H])([H])C([H])([H])C([H])([H])C([H])([H])C([H])([H])C([H])([H])C(=O)N4C([H])([H])C([H])([H])C([H])([H])C([H])(n5nc(-c6c([H])c([H])c(Oc7c([H])c([H])c(F)c([H])c7F)c([H])c6[H])c(C(=O)N([H])[H])c5N([H])[H])C4([H])[H])c(F)c3[H])c([H])c([H])c2C1([H])[H]

>  <smiles>  (43) 
[H]c1c([H])c([H])c2c(c1[H])C([H])([H])C([H])([H])C([H])([H])C2([H])N([H])C(=O)C1([H])N(C(=O)C([H])(N([H])C(=O)C([H])(N([H])C([H])([H])[H])C([H])([H])[H])C(C([H])([H])[H])(C([H])([H])[H])C([H])([H])[H])C([H])([H])c2c([H])c(OC3([H])C([H])([H])C(=O)N([H])C3([H])c3c([H])c([H])c(C([H])([H])C([H])([H])C([H])([H])C([H])([H])C([H])([H])C([H])([H])C([H])([H])C(=O)N4C([H])([H])C([H])([H])C([H])([H])C([H])(n5nc(-c6c([H])c([H])c(Oc7c([H])c([H])c(F)c([H])c7F)c([H])c6[H])c(C(=O)N([H])[H])c5N([H])[H])C4([H])[H])c(F)c3[H])c([H])c([H])c2C1([H])[H]

$$$$
43:0:0
     RDKit          3D

 92100  0  0  1  0  0  0  0  0999 V2000
  -29.4450  -17.8020   18.5240 C   0  0  0  0  0  3  0  0  0  0  0  0
  -29.0980  -18.9270   17.7530 C   0  0  0  0  0  3  0  0  0  0  0  0
  -29.0050  -19.0880   20.5430 C   0  0  0  0  0  3  0  0  0  0  0  0
  -29.3340  -17.8450   19.9300 C   0  0  0  0  0  0  0  0  0  0  0  0
  -28.6440  -20.1190   18.3570 C   0  0  0  0  0  0  0  0  0  0  0  0
  -28.6650  -20.2450   19.7750 C   0  0  0  0  0  0  0  0  0  0  0  0
  -28.0690  -21.1890   17.4340 C   0  0  0  0  0  1  0  0  0  0  0  0
  -29.3530  -16.5120   20.7220 C   0  0  0  0  0  2  0  0  0  0  0  0
  -30.6920  -15.2950   22.5900 C   0  0  0  0  0  1  0  0  0  0  0  0
  -31.8470  -16.8320   21.0270 C   0  0  0  0  0  1  0  0  0  0  0  0
  -30.7000  -15.7830   21.1100 C   0  0  2  0  0  0  0  0  0  0  0  0
  -31.0410  -14.5490   20.1760 C   0  0  0  0  0  0  0  0  0  0  0  0
  -30.5540  -12.4330   18.9670 C   0  0  0  0  0  2  0  0  0  0  0  0
  -29.5800  -12.6630   17.7930 C   0  0  0  0  0  2  0  0  0  0  0  0
  -28.1240  -12.5180   18.2690 C   0  0  0  0  0  2  0  0  0  0  0  0
  -27.8450  -13.3490   19.5400 C   0  0  0  0  0  3  0  0  0  0  0  0
  -28.9410  -13.1670   20.6170 C   0  0  0  0  0  2  0  0  0  0  0  0
  -30.2560  -13.4350   20.0150 N   0  0  0  0  0  0  0  0  0  0  0  0
  -32.1010  -14.6280   19.5520 O   0  0  0  0  0  0  0  0  0  0  0  0
  -25.5020  -14.0040   20.3720 C   0  0  0  0  0  0  0  0  0  0  0  0
  -24.4330  -13.2490   20.7720 C   0  0  0  0  0  0  0  0  0  0  0  0
  -24.8640  -11.8890   20.7090 C   0  0  0  0  0  0  0  0  0  0  0  0
  -26.5130  -13.1000   20.0800 N   0  0  0  0  0  0  0  0  0  0  0  0
  -26.1400  -11.8240   20.3500 N   0  0  0  0  0  0  0  0  0  0  0  0
  -24.1160  -10.6430   20.9090 C   0  0  0  0  0  0  0  0  0  0  0  0
  -24.5590   -9.6540   21.8140 C   0  0  0  0  0  3  0  0  0  0  0  0
  -23.8160   -8.4680   21.9990 C   0  0  0  0  0  3  0  0  0  0  0  0
  -22.6150   -8.2650   21.2790 C   0  0  0  0  0  0  0  0  0  0  0  0
  -22.1940   -9.2410   20.3590 C   0  0  0  0  0  3  0  0  0  0  0  0
  -22.9370  -10.4180   20.1730 C   0  0  0  0  0  3  0  0  0  0  0  0
  -21.8410   -7.1350   21.3750 O   0  0  0  0  0  0  0  0  0  0  0  0
  -21.8070   -6.3820   22.5220 C   0  0  0  0  0  0  0  0  0  0  0  0
  -21.4420   -6.9390   23.7670 C   0  0  0  0  0  3  0  0  0  0  0  0
  -21.3550   -6.1150   24.9080 C   0  0  0  0  0  3  0  0  0  0  0  0
  -21.6210   -4.7360   24.8020 C   0  0  0  0  0  0  0  0  0  0  0  0
  -21.9760   -4.1800   23.5610 C   0  0  0  0  0  3  0  0  0  0  0  0
  -22.0690   -5.0020   22.4240 C   0  0  0  0  0  0  0  0  0  0  0  0
  -22.3930   -4.4560   21.2270 F   0  0  0  0  0  0  0  0  0  0  0  0
  -21.5300   -3.9440   25.8950 F   0  0  0  0  0  0  0  0  0  0  0  0
  -23.0580  -13.7510   21.1000 C   0  0  0  0  0  0  0  0  0  0  0  0
  -22.3510  -13.0580   21.9880 N   0  0  0  0  0  0  0  0  0  0  0  0
  -22.6170  -14.7880   20.6060 O   0  0  0  0  0  0  0  0  0  0  0  0
  -22.7200  -12.2140   22.3990 H   0  0  0  0  0  0  0  0  0  0  0  0
  -21.4290  -13.3710   22.2550 H   0  0  0  0  0  0  0  0  0  0  0  0
  -25.6910  -15.3730   20.2100 N   0  0  0  0  0  0  0  0  0  0  0  0
  -24.9500  -16.0460   20.3650 H   0  0  0  0  0  0  0  0  0  0  0  0
  -26.5340  -15.7960   19.8480 H   0  0  0  0  0  0  0  0  0  0  0  0
  -28.1920  -21.5340   20.4920 C   0  0  0  0  0  2  0  0  0  0  0  0
  -28.9380  -22.8670   20.1550 C   0  0  0  0  0  2  0  0  0  0  0  0
  -28.1530  -24.1820   20.4650 C   0  0  0  0  0  2  0  0  0  0  0  0
  -28.6850  -25.4200   19.6870 C   0  0  0  0  0  2  0  0  0  0  0  0
  -28.4860  -26.7040   20.3000 O   0  0  0  0  0  0  0  0  0  0  0  0
  -24.6260  -31.8770   23.2490 C   0  0  0  0  0  0  0  0  0  0  0  0
  -27.2870  -27.3880   20.2310 C   0  0  0  0  0  0  0  0  0  0  0  0
  -23.4240  -30.4480   21.6260 C   0  0  0  0  0  3  0  0  0  0  0  0
  -24.8820  -28.8910   20.2190 C   0  0  0  0  0  0  0  0  0  0  0  0
  -25.9490  -30.8100   21.4230 C   0  0  0  0  0  2  0  0  0  0  0  0
  -26.0360  -29.4280   20.8000 C   0  0  0  0  0  0  0  0  0  0  0  0
  -27.2360  -28.6830   20.8030 C   0  0  0  0  0  3  0  0  0  0  0  0
  -26.1180  -26.8690   19.6350 C   0  0  0  0  0  3  0  0  0  0  0  0
  -24.9190  -27.6130   19.6330 C   0  0  0  0  0  3  0  0  0  0  0  0
  -23.6360  -29.7480   20.2560 C   0  0  0  0  0  2  0  0  0  0  0  0
  -24.6840  -31.0610   22.1570 N   0  0  0  0  0  0  0  0  0  0  0  0
  -23.5430  -32.1550   23.7830 O   0  0  0  0  0  0  0  0  0  0  0  0
  -22.7750  -29.4400   22.6010 C   0  0  0  0  0  0  0  0  0  0  0  0
  -21.4510  -29.2520   22.4720 N   0  0  0  0  0  0  0  0  0  0  0  0
  -23.4570  -28.8300   23.4270 O   0  0  0  0  0  0  0  0  0  0  0  0
  -20.9610  -29.7950   21.7760 H   0  0  0  0  0  0  0  0  0  0  0  0
  -18.0820  -28.0380   22.9610 C   0  0  0  0  0  0  0  0  0  0  0  0
  -20.6340  -28.3240   23.2560 C   0  0  0  0  0  3  0  0  0  0  0  0
  -20.7540  -26.8820   22.7120 C   0  0  0  0  0  2  0  0  0  0  0  0
  -19.6660  -26.5280   21.6940 C   0  0  0  0  0  2  0  0  0  0  0  0
  -18.2760  -26.6740   22.3190 C   0  0  0  0  0  2  0  0  0  0  0  0
  -19.1880  -28.8190   23.3870 C   0  0  0  0  0  0  0  0  0  0  0  0
  -18.9510  -30.0930   23.9450 C   0  0  0  0  0  3  0  0  0  0  0  0
  -17.6390  -30.5880   24.0770 C   0  0  0  0  0  3  0  0  0  0  0  0
  -16.5480  -29.8040   23.6660 C   0  0  0  0  0  3  0  0  0  0  0  0
  -16.7700  -28.5310   23.1160 C   0  0  0  0  0  3  0  0  0  0  0  0
  -25.9090  -32.5180   23.8620 C   0  0  0  0  0  3  0  0  0  0  0  0
  -25.5940  -33.9170   24.1840 N   0  0  0  0  0  0  0  0  0  0  0  0
  -25.9260  -34.9650   23.4200 C   0  0  0  0  0  0  0  0  0  0  0  0
  -26.5950  -34.8590   22.3880 O   0  0  0  0  0  0  0  0  0  0  0  0
  -24.9920  -34.0740   24.9800 H   0  0  0  0  0  0  0  0  0  0  0  0
  -24.1850  -36.7440   23.0590 C   0  0  0  0  0  1  0  0  0  0  0  0
  -25.4330  -36.3550   23.8680 C   0  0  0  0  0  3  0  0  0  0  0  0
  -27.5720  -37.2510   24.6750 C   0  0  0  0  0  1  0  0  0  0  0  0
  -26.4600  -37.4110   23.7410 N   0  0  0  0  0  0  0  0  0  0  0  0
  -26.0530  -38.3310   23.8890 H   0  0  0  0  0  0  0  0  0  0  0  0
  -26.4390  -31.7550   25.1350 C   0  0  1  0  0  0  0  0  0  0  0  0
  -25.3540  -31.5150   26.2120 C   0  0  0  0  0  1  0  0  0  0  0  0
  -27.0230  -30.3800   24.7380 C   0  0  0  0  0  1  0  0  0  0  0  0
  -27.5930  -32.5560   25.7840 C   0  0  0  0  0  1  0  0  0  0  0  0
  1  4  1  0
  2  5  1  0
  2  1  2  0
  4  3  2  0
  4  8  1  0
  5  6  2  0
  6 48  1  0
  6  3  1  0
  7  5  1  0
  8 11  1  0
 11 10  1  1
 11  9  1  0
 12 11  1  0
 13 18  1  0
 14 15  1  0
 14 13  1  0
 16 15  1  0
 16 23  1  0
 16 17  1  0
 18 12  1  0
 18 17  1  0
 19 12  2  0
 20 21  2  0
 21 40  1  0
 22 21  1  0
 22 25  1  0
 23 24  1  0
 23 20  1  0
 24 22  2  0
 25 26  1  0
 26 27  2  0
 28 31  1  0
 28 27  1  0
 29 28  2  0
 30 29  1  0
 30 25  2  0
 31 32  1  0
 32 33  1  0
 33 34  2  0
 35 34  1  0
 35 39  1  0
 36 35  2  0
 37 32  2  0
 37 36  1  0
 38 37  1  0
 40 41  1  0
 41 44  1  0
 41 43  1  0
 42 40  2  0
 45 46  1  0
 45 20  1  0
 47 45  1  0
 49 50  1  0
 49 48  1  0
 51 52  1  0
 51 50  1  0
 53 64  2  0
 54 52  1  0
 54 59  1  0
 55 63  1  0
 55 65  1  0
 56 62  1  0
 56 58  1  0
 57 63  1  0
 58 59  2  0
 58 57  1  0
 60 54  2  0
 61 60  1  0
 61 56  2  0
 62 55  1  0
 63 53  1  0
 65 67  2  0
 66 65  1  0
 68 66  1  0
 69 78  2  0
 69 74  1  0
 70 66  1  0
 70 74  1  0
 71 70  1  0
 72 73  1  0
 72 71  1  0
 73 69  1  0
 74 75  2  0
 75 76  1  0
 77 76  2  0
 78 77  1  0
 79 53  1  0
 79 80  1  0
 79 89  1  0
 80 83  1  0
 81 85  1  0
 81 80  1  0
 82 81  2  0
 85 84  1  0
 87 85  1  0
 87 88  1  0
 87 86  1  0
 89 92  1  1
 89 90  1  0
 91 89  1  0
M  ISO  4  11 100  12 100  51 101  52 101
M  END
>  <TORSDO>  (44) 
F 22

>  <SCORE>  (44) 
-12.177

>  <name>  (44) 
43

>  <ligand_id>  (44) 
43

>  <original_smiles>  (44) 
[H]c1c([H])c([H])c2c(c1[H])C([H])([H])C([H])([H])C([H])([H])C2([H])N([H])C(=O)C1([H])N(C(=O)C([H])(N([H])C(=O)C([H])(N([H])C([H])([H])[H])C([H])([H])[H])C(C([H])([H])[H])(C([H])([H])[H])C([H])([H])[H])C([H])([H])c2c([H])c(OC([H])([H])C([H])([H])C([H])([H])C([H])([H])c3c([H])c(C([H])([H])C(C(=O)N4C([H])([H])C([H])([H])C([H])([H])C([H])(n5nc(-c6c([H])c([H])c(Oc7c([H])c([H])c(F)c([H])c7F)c([H])c6[H])c(C(=O)N([H])[H])c5N([H])[H])C4([H])[H])(C([H])([H])[H])C([H])([H])[H])c([H])c([H])c3C([H])([H])[H])c([H])c([H])c2C1([H])[H]

>  <smiles>  (44) 
[H]c1c([H])c([H])c2c(c1[H])C([H])([H])C([H])([H])C([H])([H])C2([H])N([H])C(=O)C1([H])N(C(=O)C([H])(N([H])C(=O)C([H])(N([H])C([H])([H])[H])C([H])([H])[H])C(C([H])([H])[H])(C([H])([H])[H])C([H])([H])[H])C([H])([H])c2c([H])c(OC([H])([H])C([H])([H])C([H])([H])C([H])([H])c3c([H])c(C([H])([H])C(C(=O)N4C([H])([H])C([H])([H])C([H])([H])C([H])(n5nc(-c6c([H])c([H])c(Oc7c([H])c([H])c(F)c([H])c7F)c([H])c6[H])c(C(=O)N([H])[H])c5N([H])[H])C4([H])[H])(C([H])([H])[H])C([H])([H])[H])c([H])c([H])c3C([H])([H])[H])c([H])c([H])c2C1([H])[H]

$$$$
44:0:0
     RDKit          3D

 95104  0  0  1  0  0  0  0  0999 V2000
  -26.4770  -19.4510   18.2910 C   0  0  0  0  0  3  0  0  0  0  0  0
  -27.5520  -19.0040   19.0590 C   0  0  0  0  0  3  0  0  0  0  0  0
  -26.0050  -20.7450   18.4880 C   0  0  0  0  0  3  0  0  0  0  0  0
  -28.2670  -19.8350   19.9590 C   0  0  0  0  0  0  0  0  0  0  0  0
  -26.6730  -21.6210   19.3580 C   0  0  0  0  0  0  0  0  0  0  0  0
  -27.9180  -21.2750   19.9790 C   0  0  0  0  0  0  0  0  0  0  0  0
  -25.8950  -22.8860   19.6630 C   0  0  0  0  0  1  0  0  0  0  0  0
  -31.4040  -17.8170   20.4710 C   0  0  0  0  0  0  0  0  0  0  0  0
  -30.7500  -19.2080   20.5240 C   0  0  0  0  0  2  0  0  0  0  0  0
  -29.1630  -17.3910   20.9530 C   0  0  0  0  0  2  0  0  0  0  0  0
  -29.2760  -19.0080   20.8690 C   0  0  0  0  0  3  0  0  0  0  0  0
  -30.3920  -16.6330   20.2730 C   0  0  2  0  0  0  0  0  0  0  0  0
  -32.6350  -17.7280   20.4760 O   0  0  0  0  0  0  0  0  0  0  0  0
  -30.9550  -15.1900   20.8350 C   0  0  0  0  0  0  0  0  0  0  0  0
  -30.8090  -12.8410   20.0130 C   0  0  0  0  0  2  0  0  0  0  0  0
  -29.9860  -12.7230   18.7120 C   0  0  0  0  0  2  0  0  0  0  0  0
  -28.4860  -12.5820   19.0210 C   0  0  0  0  0  2  0  0  0  0  0  0
  -27.9790  -13.5580   20.1160 C   0  0  0  0  0  3  0  0  0  0  0  0
  -28.9440  -13.6670   21.3140 C   0  0  0  0  0  2  0  0  0  0  0  0
  -30.2760  -13.9870   20.7910 N   0  0  0  0  0  0  0  0  0  0  0  0
  -32.1770  -15.0930   20.9210 O   0  0  0  0  0  0  0  0  0  0  0  0
  -25.5340  -14.0970   20.6630 C   0  0  0  0  0  0  0  0  0  0  0  0
  -24.4610  -13.3030   20.9570 C   0  0  0  0  0  0  0  0  0  0  0  0
  -24.9580  -11.9640   20.9920 C   0  0  0  0  0  0  0  0  0  0  0  0
  -26.6150  -13.2420   20.5270 N   0  0  0  0  0  0  0  0  0  0  0  0
  -26.2710  -11.9560   20.7950 N   0  0  0  0  0  0  0  0  0  0  0  0
  -24.2490  -10.6860   21.1410 C   0  0  0  0  0  0  0  0  0  0  0  0
  -24.6230   -9.7420   22.1220 C   0  0  0  0  0  3  0  0  0  0  0  0
  -23.9130   -8.5310   22.2600 C   0  0  0  0  0  3  0  0  0  0  0  0
  -22.8140   -8.2520   21.4120 C   0  0  0  0  0  0  0  0  0  0  0  0
  -22.4600   -9.1840   20.4210 C   0  0  0  0  0  3  0  0  0  0  0  0
  -23.1720  -10.3870   20.2820 C   0  0  0  0  0  3  0  0  0  0  0  0
  -22.0810   -7.0910   21.4550 O   0  0  0  0  0  0  0  0  0  0  0  0
  -21.9370   -6.3740   22.6160 C   0  0  0  0  0  0  0  0  0  0  0  0
  -21.3740   -6.9430   23.7790 C   0  0  0  0  0  3  0  0  0  0  0  0
  -21.1810   -6.1520   24.9290 C   0  0  0  0  0  3  0  0  0  0  0  0
  -21.5400   -4.7900   24.9150 C   0  0  0  0  0  0  0  0  0  0  0  0
  -22.0960   -4.2200   23.7560 C   0  0  0  0  0  3  0  0  0  0  0  0
  -22.2910   -5.0090   22.6090 C   0  0  0  0  0  0  0  0  0  0  0  0
  -22.8070   -4.4500   21.4880 F   0  0  0  0  0  0  0  0  0  0  0  0
  -21.3480   -4.0270   26.0160 F   0  0  0  0  0  0  0  0  0  0  0  0
  -23.0350  -13.7490   21.0980 C   0  0  0  0  0  0  0  0  0  0  0  0
  -22.2550  -13.0570   21.9200 N   0  0  0  0  0  0  0  0  0  0  0  0
  -22.6170  -14.7470   20.5120 O   0  0  0  0  0  0  0  0  0  0  0  0
  -22.6050  -12.2490   22.4150 H   0  0  0  0  0  0  0  0  0  0  0  0
  -21.2940  -13.3370   22.0580 H   0  0  0  0  0  0  0  0  0  0  0  0
  -25.6790  -15.4680   20.4720 N   0  0  0  0  0  0  0  0  0  0  0  0
  -24.8890  -16.1020   20.5070 H   0  0  0  0  0  0  0  0  0  0  0  0
  -26.5400  -15.9250   20.2050 H   0  0  0  0  0  0  0  0  0  0  0  0
  -30.5820  -17.5190   17.6980 C   0  0  0  0  0  1  0  0  0  0  0  0
  -30.1920  -16.4260   18.7240 C   0  0  0  0  0  2  0  0  0  0  0  0
  -28.7030  -22.4590   20.6920 C   0  0  0  0  0  2  0  0  0  0  0  0
  -28.9550  -23.9390   20.0210 C   0  0  0  0  0  2  0  0  0  0  0  0
  -27.9410  -25.1980   20.1310 C   0  0  0  0  0  2  0  0  0  0  0  0
  -28.2930  -26.6530   19.9240 O   0  0  0  0  0  0  0  0  0  0  0  0
  -24.7660  -31.9900   23.3920 C   0  0  0  0  0  0  0  0  0  0  0  0
  -27.2240  -27.5850   19.9580 C   0  0  0  0  0  0  0  0  0  0  0  0
  -23.5010  -30.7110   21.7070 C   0  0  0  0  0  3  0  0  0  0  0  0
  -24.8930  -29.2600   20.1270 C   0  0  0  0  0  0  0  0  0  0  0  0
  -26.0420  -31.0120   21.4670 C   0  0  0  0  0  2  0  0  0  0  0  0
  -26.0890  -29.6790   20.7240 C   0  0  0  0  0  0  0  0  0  0  0  0
  -27.2580  -28.8530   20.6320 C   0  0  0  0  0  3  0  0  0  0  0  0
  -26.0080  -27.2620   19.3100 C   0  0  0  0  0  3  0  0  0  0  0  0
  -24.8580  -28.0610   19.4070 C   0  0  0  0  0  3  0  0  0  0  0  0
  -23.6680  -30.1400   20.2760 C   0  0  0  0  0  2  0  0  0  0  0  0
  -24.7900  -31.2530   22.2440 N   0  0  0  0  0  0  0  0  0  0  0  0
  -23.7020  -32.2370   23.9800 O   0  0  0  0  0  0  0  0  0  0  0  0
  -22.8640  -29.6320   22.6160 C   0  0  0  0  0  0  0  0  0  0  0  0
  -21.5450  -29.4130   22.4680 N   0  0  0  0  0  0  0  0  0  0  0  0
  -23.5550  -28.9990   23.4180 O   0  0  0  0  0  0  0  0  0  0  0  0
  -21.0450  -29.9790   21.7960 H   0  0  0  0  0  0  0  0  0  0  0  0
  -18.2250  -28.0150   22.8200 C   0  0  0  0  0  0  0  0  0  0  0  0
  -20.7510  -28.4180   23.1940 C   0  0  0  0  0  3  0  0  0  0  0  0
  -20.9600  -27.0040   22.6060 C   0  0  0  0  0  2  0  0  0  0  0  0
  -19.9190  -26.6320   21.5460 C   0  0  0  0  0  2  0  0  0  0  0  0
  -18.5070  -26.6870   22.1350 C   0  0  0  0  0  2  0  0  0  0  0  0
  -19.2800  -28.8350   23.3020 C   0  0  0  0  0  0  0  0  0  0  0  0
  -18.9640  -30.0730   23.9020 C   0  0  0  0  0  3  0  0  0  0  0  0
  -17.6270  -30.4950   24.0220 C   0  0  0  0  0  3  0  0  0  0  0  0
  -16.5860  -29.6740   23.5550 C   0  0  0  0  0  3  0  0  0  0  0  0
  -16.8850  -28.4360   22.9600 C   0  0  0  0  0  3  0  0  0  0  0  0
  -26.0720  -32.5780   24.0100 C   0  0  0  0  0  3  0  0  0  0  0  0
  -25.7940  -33.9700   24.3940 N   0  0  0  0  0  0  0  0  0  0  0  0
  -26.1380  -35.0430   23.6700 C   0  0  0  0  0  0  0  0  0  0  0  0
  -26.7930  -34.9630   22.6260 O   0  0  0  0  0  0  0  0  0  0  0  0
  -25.2150  -34.1060   25.2100 H   0  0  0  0  0  0  0  0  0  0  0  0
  -24.4510  -36.8890   23.3950 C   0  0  0  0  0  1  0  0  0  0  0  0
  -25.6860  -36.4240   24.1820 C   0  0  0  0  0  3  0  0  0  0  0  0
  -27.8450  -37.2290   25.0320 C   0  0  0  0  0  1  0  0  0  0  0  0
  -26.7420  -37.4570   24.1030 N   0  0  0  0  0  0  0  0  0  0  0  0
  -26.3580  -38.3800   24.2870 H   0  0  0  0  0  0  0  0  0  0  0  0
  -26.5950  -31.7550   25.2510 C   0  0  1  0  0  0  0  0  0  0  0  0
  -25.5160  -31.5010   26.3300 C   0  0  0  0  0  1  0  0  0  0  0  0
  -27.1450  -30.3800   24.8070 C   0  0  0  0  0  1  0  0  0  0  0  0
  -27.7710  -32.5050   25.9190 C   0  0  0  0  0  1  0  0  0  0  0  0
  1  3  2  0
  1  2  1  0
  2  4  2  0
  3  5  1  0
  4  6  1  0
  5  7  1  0
  5  6  2  0
  6 52  1  0
  8 13  2  0
  8  9  1  0
  9 11  1  0
 11  4  1  0
 11 10  1  0
 12 51  1  6
 12  8  1  0
 12 14  1  0
 12 10  1  0
 14 21  2  0
 15 20  1  0
 16 17  1  0
 16 15  1  0
 18 17  1  0
 18 25  1  0
 18 19  1  0
 20 14  1  0
 20 19  1  0
 22 23  2  0
 23 24  1  0
 23 42  1  0
 24 27  1  0
 25 22  1  0
 25 26  1  0
 26 24  2  0
 27 28  1  0
 28 29  2  0
 30 33  1  0
 30 29  1  0
 31 30  2  0
 32 31  1  0
 32 27  2  0
 33 34  1  0
 34 35  1  0
 35 36  2  0
 37 36  1  0
 37 41  1  0
 38 37  2  0
 39 34  2  0
 39 38  1  0
 40 39  1  0
 42 43  1  0
 43 46  1  0
 43 45  1  0
 44 42  2  0
 47 48  1  0
 47 22  1  0
 49 47  1  0
 50 51  1  0
 53 54  1  0
 53 52  1  0
 55 57  1  0
 55 54  1  0
 56 67  2  0
 57 62  1  0
 58 66  1  0
 58 68  1  0
 59 65  1  0
 59 61  1  0
 60 66  1  0
 61 60  1  0
 62 61  2  0
 63 64  1  0
 63 57  2  0
 64 59  2  0
 65 58  1  0
 66 56  1  0
 68 70  2  0
 69 68  1  0
 71 69  1  0
 72 81  2  0
 72 77  1  0
 73 69  1  0
 73 77  1  0
 74 73  1  0
 75 76  1  0
 75 74  1  0
 76 72  1  0
 77 78  2  0
 78 79  1  0
 80 79  2  0
 81 80  1  0
 82 56  1  0
 82 83  1  0
 82 92  1  0
 83 86  1  0
 84 88  1  0
 84 83  1  0
 85 84  2  0
 88 87  1  0
 90 88  1  0
 90 91  1  0
 90 89  1  0
 92 95  1  1
 92 93  1  0
 94 92  1  0
M  ISO  4  12 100  14 100  54 101  55 101
M  END
>  <TORSDO>  (45) 
F 21

>  <SCORE>  (45) 
-12.705

>  <name>  (45) 
44

>  <ligand_id>  (45) 
44

>  <original_smiles>  (45) 
[H]c1c([H])c([H])c2c(c1[H])C([H])([H])C([H])([H])C([H])([H])C2([H])N([H])C(=O)C1([H])N(C(=O)C([H])(N([H])C(=O)C([H])(N([H])C([H])([H])[H])C([H])([H])[H])C(C([H])([H])[H])(C([H])([H])[H])C([H])([H])[H])C([H])([H])c2c([H])c(OC([H])([H])C([H])([H])C([H])([H])c3c(C([H])([H])[H])c([H])c([H])c([H])c3C3([H])C([H])([H])C(=O)C(C(=O)N4C([H])([H])C([H])([H])C([H])([H])C([H])(n5nc(-c6c([H])c([H])c(Oc7c([H])c([H])c(F)c([H])c7F)c([H])c6[H])c(C(=O)N([H])[H])c5N([H])[H])C4([H])[H])(C([H])([H])C([H])([H])[H])C3([H])[H])c([H])c([H])c2C1([H])[H]

>  <smiles>  (45) 
[H]c1c([H])c([H])c2c(c1[H])C([H])([H])C([H])([H])C([H])([H])C2([H])N([H])C(=O)C1([H])N(C(=O)C([H])(N([H])C(=O)C([H])(N([H])C([H])([H])[H])C([H])([H])[H])C(C([H])([H])[H])(C([H])([H])[H])C([H])([H])[H])C([H])([H])c2c([H])c(OC([H])([H])C([H])([H])C([H])([H])c3c(C([H])([H])[H])c([H])c([H])c([H])c3C3([H])C([H])([H])C(=O)C(C(=O)N4C([H])([H])C([H])([H])C([H])([H])C([H])(n5nc(-c6c([H])c([H])c(Oc7c([H])c([H])c(F)c([H])c7F)c([H])c6[H])c(C(=O)N([H])[H])c5N([H])[H])C4([H])[H])(C([H])([H])C([H])([H])[H])C3([H])[H])c([H])c([H])c2C1([H])[H]

$$$$
45:0:0
     RDKit          3D

 96105  0  0  1  0  0  0  0  0999 V2000
  -28.8990  -21.0180   19.7730 C   0  0  0  0  0  3  0  0  0  0  0  0
  -29.7460  -20.7860   22.0270 C   0  0  0  0  0  3  0  0  0  0  0  0
  -28.9870  -22.4320   19.8530 C   0  0  0  0  0  0  0  0  0  0  0  0
  -29.4650  -23.0340   21.0560 C   0  0  0  0  0  0  0  0  0  0  0  0
  -29.2530  -20.1870   20.8540 C   0  0  0  0  0  0  0  0  0  0  0  0
  -29.8610  -22.1900   22.1360 C   0  0  0  0  0  0  0  0  0  0  0  0
  -28.6960  -24.7920   18.8320 C   0  0  0  0  0  2  0  0  0  0  0  0
  -29.5150  -24.5690   21.1940 C   0  0  0  0  0  3  0  0  0  0  0  0
  -28.4690  -25.2550   20.2810 C   0  0  0  0  0  3  0  0  0  0  0  0
  -28.4870  -23.2630   18.6500 C   0  0  2  0  0  0  0  0  0  0  0  0
  -30.3960  -22.7480   23.4470 C   0  0  0  0  0  1  0  0  0  0  0  0
  -30.9470  -25.1090   20.9710 C   0  0  0  0  0  1  0  0  0  0  0  0
  -26.9750  -22.9990   18.4540 C   0  0  0  0  0  1  0  0  0  0  0  0
  -29.2290  -22.8390   17.3620 C   0  0  0  0  0  1  0  0  0  0  0  0
  -28.5020  -26.6920   20.4310 O   0  0  0  0  0  0  0  0  0  0  0  0
  -24.5290  -31.9290   23.1880 C   0  0  0  0  0  0  0  0  0  0  0  0
  -27.3080  -27.3930   20.3610 C   0  0  0  0  0  0  0  0  0  0  0  0
  -23.3820  -30.4450   21.5770 C   0  0  0  0  0  3  0  0  0  0  0  0
  -24.8910  -28.8750   20.2490 C   0  0  0  0  0  0  0  0  0  0  0  0
  -25.9080  -30.8340   21.4220 C   0  0  0  0  0  2  0  0  0  0  0  0
  -26.0300  -29.4410   20.8340 C   0  0  0  0  0  0  0  0  0  0  0  0
  -27.2440  -28.7100   20.8750 C   0  0  0  0  0  3  0  0  0  0  0  0
  -26.1400  -26.8400   19.7850 C   0  0  0  0  0  3  0  0  0  0  0  0
  -24.9410  -27.5730   19.7220 C   0  0  0  0  0  3  0  0  0  0  0  0
  -23.6330  -29.7130   20.2310 C   0  0  0  0  0  2  0  0  0  0  0  0
  -24.6230  -31.0870   22.1200 N   0  0  0  0  0  0  0  0  0  0  0  0
  -23.4320  -32.2070   23.6910 O   0  0  0  0  0  0  0  0  0  0  0  0
  -22.7220  -29.4520   22.5620 C   0  0  0  0  0  0  0  0  0  0  0  0
  -21.4030  -29.2450   22.4090 N   0  0  0  0  0  0  0  0  0  0  0  0
  -23.3930  -28.8680   23.4180 O   0  0  0  0  0  0  0  0  0  0  0  0
  -20.9260  -29.7690   21.6890 H   0  0  0  0  0  0  0  0  0  0  0  0
  -18.0320  -28.0250   22.8700 C   0  0  0  0  0  0  0  0  0  0  0  0
  -20.5790  -28.3270   23.1960 C   0  0  0  0  0  3  0  0  0  0  0  0
  -20.7150  -26.8770   22.6790 C   0  0  0  0  0  2  0  0  0  0  0  0
  -19.6430  -26.4990   21.6520 C   0  0  0  0  0  2  0  0  0  0  0  0
  -18.2430  -26.6520   22.2540 C   0  0  0  0  0  2  0  0  0  0  0  0
  -19.1300  -28.8180   23.2960 C   0  0  0  0  0  0  0  0  0  0  0  0
  -18.8830  -30.1020   23.8300 C   0  0  0  0  0  3  0  0  0  0  0  0
  -17.5690  -30.5930   23.9440 C   0  0  0  0  0  3  0  0  0  0  0  0
  -16.4840  -29.7970   23.5370 C   0  0  0  0  0  3  0  0  0  0  0  0
  -16.7160  -28.5160   23.0040 C   0  0  0  0  0  3  0  0  0  0  0  0
  -25.7900  -32.6050   23.8120 C   0  0  0  0  0  3  0  0  0  0  0  0
  -26.3280  -31.8520   25.0900 C   0  0  1  0  0  0  0  0  0  0  0  0
  -25.2350  -31.5470   26.1410 C   0  0  0  0  0  1  0  0  0  0  0  0
  -26.9920  -30.5110   24.6940 C   0  0  0  0  0  1  0  0  0  0  0  0
  -27.4260  -32.7030   25.7750 C   0  0  0  0  0  1  0  0  0  0  0  0
  -25.4340  -33.9900   24.1400 N   0  0  0  0  0  0  0  0  0  0  0  0
  -25.7500  -35.0540   23.3900 C   0  0  0  0  0  0  0  0  0  0  0  0
  -26.4440  -34.9740   22.3710 O   0  0  0  0  0  0  0  0  0  0  0  0
  -24.8200  -34.1260   24.9280 H   0  0  0  0  0  0  0  0  0  0  0  0
  -23.9980  -36.8100   22.9780 C   0  0  0  0  0  1  0  0  0  0  0  0
  -25.2120  -36.4260   23.8390 C   0  0  0  0  0  3  0  0  0  0  0  0
  -27.2760  -37.3590   24.7840 C   0  0  0  0  0  1  0  0  0  0  0  0
  -26.2250  -37.5020   23.7810 N   0  0  0  0  0  0  0  0  0  0  0  0
  -25.7900  -38.4140   23.9080 H   0  0  0  0  0  0  0  0  0  0  0  0
  -29.0270  -18.6710   20.7800 C   0  0  0  0  0  2  0  0  0  0  0  0
  -30.2540  -17.7970   21.1490 C   0  0  0  0  0  2  0  0  0  0  0  0
  -30.6460  -16.7330   20.0970 C   0  0  0  0  0  2  0  0  0  0  0  0
  -30.9110  -14.2680   19.9760 C   0  0  0  0  0  0  0  0  0  0  0  0
  -30.5410  -12.0500   18.9810 C   0  0  0  0  0  2  0  0  0  0  0  0
  -29.5430  -12.1940   17.8150 C   0  0  0  0  0  2  0  0  0  0  0  0
  -28.0930  -12.0780   18.3270 C   0  0  0  0  0  2  0  0  0  0  0  0
  -27.8170  -12.9770   19.5620 C   0  0  0  0  0  3  0  0  0  0  0  0
  -28.9310  -12.8380   20.6260 C   0  0  0  0  0  2  0  0  0  0  0  0
  -30.2220  -13.0950   19.9690 N   0  0  0  0  0  0  0  0  0  0  0  0
  -32.0100  -14.3940   19.4310 O   0  0  0  0  0  0  0  0  0  0  0  0
  -30.2510  -15.3500   20.4310 N   0  0  0  0  0  0  0  0  0  0  0  0
  -29.3440  -15.2000   20.8480 H   0  0  0  0  0  0  0  0  0  0  0  0
  -25.4890  -13.6130   20.4550 C   0  0  0  0  0  0  0  0  0  0  0  0
  -24.4300  -12.8530   20.8720 C   0  0  0  0  0  0  0  0  0  0  0  0
  -24.8530  -11.4920   20.7650 C   0  0  0  0  0  0  0  0  0  0  0  0
  -26.4940  -12.7160   20.1250 N   0  0  0  0  0  0  0  0  0  0  0  0
  -26.1180  -11.4330   20.3700 N   0  0  0  0  0  0  0  0  0  0  0  0
  -24.1100  -10.2420   20.9660 C   0  0  0  0  0  0  0  0  0  0  0  0
  -24.5030   -9.2960   21.9390 C   0  0  0  0  0  3  0  0  0  0  0  0
  -23.7610   -8.1090   22.1260 C   0  0  0  0  0  3  0  0  0  0  0  0
  -22.6110   -7.8600   21.3390 C   0  0  0  0  0  0  0  0  0  0  0  0
  -22.2360   -8.7940   20.3570 C   0  0  0  0  0  3  0  0  0  0  0  0
  -22.9790   -9.9720   20.1690 C   0  0  0  0  0  3  0  0  0  0  0  0
  -21.8430   -6.7240   21.4330 O   0  0  0  0  0  0  0  0  0  0  0  0
  -21.6760   -6.0620   22.6230 C   0  0  0  0  0  0  0  0  0  0  0  0
  -21.0270   -6.6620   23.7250 C   0  0  0  0  0  3  0  0  0  0  0  0
  -20.8180   -5.9230   24.9050 C   0  0  0  0  0  3  0  0  0  0  0  0
  -21.2460   -4.5840   24.9860 C   0  0  0  0  0  0  0  0  0  0  0  0
  -21.8900   -3.9850   23.8890 C   0  0  0  0  0  3  0  0  0  0  0  0
  -22.1020   -4.7210   22.7100 C   0  0  0  0  0  0  0  0  0  0  0  0
  -22.7030   -4.1310   21.6470 F   0  0  0  0  0  0  0  0  0  0  0  0
  -21.0380   -3.8720   26.1170 F   0  0  0  0  0  0  0  0  0  0  0  0
  -23.0670  -13.3530   21.2560 C   0  0  0  0  0  0  0  0  0  0  0  0
  -22.3730  -12.6310   22.1300 N   0  0  0  0  0  0  0  0  0  0  0  0
  -22.6280  -14.4140   20.8160 O   0  0  0  0  0  0  0  0  0  0  0  0
  -22.7430  -11.7720   22.5090 H   0  0  0  0  0  0  0  0  0  0  0  0
  -21.4590  -12.9450   22.4260 H   0  0  0  0  0  0  0  0  0  0  0  0
  -25.6750  -14.9840   20.3080 N   0  0  0  0  0  0  0  0  0  0  0  0
  -24.9350  -15.6530   20.4880 H   0  0  0  0  0  0  0  0  0  0  0  0
  -26.5100  -15.4120   19.9270 H   0  0  0  0  0  0  0  0  0  0  0  0
  1  3  2  0
  1  5  1  0
  2  6  1  0
  3  4  1  0
  4  8  1  0
  4  6  2  0
  5  2  2  0
  6 11  1  0
  7  9  1  0
  8 12  1  0
  9 15  1  0
  9  8  1  0
 10  7  1  0
 10  3  1  0
 10 13  1  6
 14 10  1  0
 16 27  2  0
 17 15  1  0
 17 22  1  0
 18 26  1  0
 18 28  1  0
 19 21  1  0
 20 26  1  0
 21 22  2  0
 21 20  1  0
 23 17  2  0
 24 23  1  0
 24 19  2  0
 25 19  1  0
 25 18  1  0
 26 16  1  0
 28 30  2  0
 29 28  1  0
 31 29  1  0
 32 41  2  0
 32 37  1  0
 33 29  1  0
 33 37  1  0
 34 33  1  0
 35 36  1  0
 35 34  1  0
 36 32  1  0
 37 38  2  0
 38 39  1  0
 40 39  2  0
 41 40  1  0
 42 16  1  0
 42 47  1  0
 42 43  1  0
 43 46  1  1
 43 44  1  0
 45 43  1  0
 47 50  1  0
 48 52  1  0
 48 47  1  0
 49 48  2  0
 52 51  1  0
 54 52  1  0
 54 55  1  0
 54 53  1  0
 56  5  1  0
 56 57  1  0
 58 67  1  0
 58 57  1  0
 59 67  1  0
 60 65  1  0
 61 62  1  0
 61 60  1  0
 63 62  1  0
 63 72  1  0
 63 64  1  0
 65 59  1  0
 65 64  1  0
 66 59  2  0
 67 68  1  0
 69 70  2  0
 70 89  1  0
 71 70  1  0
 71 74  1  0
 72 73  1  0
 72 69  1  0
 73 71  2  0
 74 75  1  0
 75 76  2  0
 77 80  1  0
 77 76  1  0
 78 77  2  0
 79 78  1  0
 79 74  2  0
 80 81  1  0
 81 86  2  0
 81 82  1  0
 82 83  2  0
 83 84  1  0
 84 88  1  0
 85 84  2  0
 86 85  1  0
 87 86  1  0
 89 90  1  0
 90 93  1  0
 90 92  1  0
 91 89  2  0
 94 69  1  0
 94 95  1  0
 96 94  1  0
M  ISO  4   9 101  15 101  59 100  67 100
M  END
>  <TORSDO>  (46) 
F 19

>  <SCORE>  (46) 
-13.908

>  <name>  (46) 
45

>  <ligand_id>  (46) 
45

>  <original_smiles>  (46) 
[H]c1c([H])c([H])c2c(c1[H])C([H])([H])C([H])([H])C([H])([H])C2([H])N([H])C(=O)C1([H])N(C(=O)C([H])(N([H])C(=O)C([H])(N([H])C([H])([H])[H])C([H])([H])[H])C(C([H])([H])[H])(C([H])([H])[H])C([H])([H])[H])C([H])([H])c2c([H])c(OC3([H])C([H])([H])C(C([H])([H])[H])(C([H])([H])[H])c4c([H])c(C([H])([H])C([H])([H])C([H])([H])N([H])C(=O)N5C([H])([H])C([H])([H])C([H])([H])C([H])(n6nc(-c7c([H])c([H])c(Oc8c([H])c([H])c(F)c([H])c8F)c([H])c7[H])c(C(=O)N([H])[H])c6N([H])[H])C5([H])[H])c([H])c(C([H])([H])[H])c4C3([H])C([H])([H])[H])c([H])c([H])c2C1([H])[H]

>  <smiles>  (46) 
[H]c1c([H])c([H])c2c(c1[H])C([H])([H])C([H])([H])C([H])([H])C2([H])N([H])C(=O)C1([H])N(C(=O)C([H])(N([H])C(=O)C([H])(N([H])C([H])([H])[H])C([H])([H])[H])C(C([H])([H])[H])(C([H])([H])[H])C([H])([H])[H])C([H])([H])c2c([H])c(OC3([H])C([H])([H])C(C([H])([H])[H])(C([H])([H])[H])c4c([H])c(C([H])([H])C([H])([H])C([H])([H])N([H])C(=O)N5C([H])([H])C([H])([H])C([H])([H])C([H])(n6nc(-c7c([H])c([H])c(Oc8c([H])c([H])c(F)c([H])c8F)c([H])c7[H])c(C(=O)N([H])[H])c6N([H])[H])C5([H])[H])c([H])c(C([H])([H])[H])c4C3([H])C([H])([H])[H])c([H])c([H])c2C1([H])[H]

$$$$
46:0:0
     RDKit          3D

 95104  0  0  1  0  0  0  0  0999 V2000
  -29.3660  -24.0670   21.0490 C   0  0  0  0  0  3  0  0  0  0  0  0
  -27.7770  -23.7620   19.3800 C   0  0  0  0  0  3  0  0  0  0  0  0
  -29.0640  -21.6510   20.1790 C   0  0  0  0  0  0  0  0  0  0  0  0
  -29.6740  -22.6390   21.0470 C   0  0  0  0  0  0  0  0  0  0  0  0
  -28.0570  -22.3170   19.3680 C   0  0  0  0  0  0  0  0  0  0  0  0
  -28.4140  -24.7500   20.2200 C   0  0  0  0  0  0  0  0  0  0  0  0
  -30.7430  -22.1850   22.0290 C   0  0  0  0  0  1  0  0  0  0  0  0
  -27.2130  -21.4800   18.4220 C   0  0  0  0  0  1  0  0  0  0  0  0
  -28.9820  -18.9240   21.1250 C   0  0  0  0  0  2  0  0  0  0  0  0
  -29.6940  -17.4520   21.1860 C   0  0  0  0  0  2  0  0  0  0  0  0
  -30.3110  -17.6770   18.8670 C   0  0  0  0  0  2  0  0  0  0  0  0
  -29.5680  -20.0320   20.1380 C   0  0  0  0  0  3  0  0  0  0  0  0
  -29.7670  -16.5510   19.8710 C   0  0  0  0  0  3  0  0  0  0  0  0
  -29.6560  -19.1730   18.7940 C   0  0  0  0  0  3  0  0  0  0  0  0
  -30.5780  -15.0690   19.8390 C   0  0  0  0  0  0  0  0  0  0  0  0
  -30.4420  -12.6900   18.9550 C   0  0  0  0  0  2  0  0  0  0  0  0
  -29.4390  -12.6230   17.7790 C   0  0  0  0  0  2  0  0  0  0  0  0
  -28.0060  -12.3950   18.2980 C   0  0  0  0  0  2  0  0  0  0  0  0
  -27.6560  -13.3250   19.4890 C   0  0  0  0  0  3  0  0  0  0  0  0
  -28.7760  -13.3790   20.5450 C   0  0  0  0  0  2  0  0  0  0  0  0
  -30.0070  -13.7940   19.8640 N   0  0  0  0  0  0  0  0  0  0  0  0
  -31.7760  -15.0980   19.5370 O   0  0  0  0  0  0  0  0  0  0  0  0
  -25.3420  -13.8760   20.4270 C   0  0  0  0  0  0  0  0  0  0  0  0
  -24.3040  -13.0910   20.8460 C   0  0  0  0  0  0  0  0  0  0  0  0
  -24.7610  -11.7420   20.7390 C   0  0  0  0  0  0  0  0  0  0  0  0
  -26.3600  -13.0060   20.0790 N   0  0  0  0  0  0  0  0  0  0  0  0
  -26.0270  -11.7150   20.3340 N   0  0  0  0  0  0  0  0  0  0  0  0
  -24.0450  -10.4740   20.9400 C   0  0  0  0  0  0  0  0  0  0  0  0
  -24.4990   -9.5050   21.8610 C   0  0  0  0  0  3  0  0  0  0  0  0
  -23.7820   -8.3050   22.0510 C   0  0  0  0  0  3  0  0  0  0  0  0
  -22.5940   -8.0650   21.3200 C   0  0  0  0  0  0  0  0  0  0  0  0
  -22.1560   -9.0230   20.3890 C   0  0  0  0  0  3  0  0  0  0  0  0
  -22.8760  -10.2140   20.1960 C   0  0  0  0  0  3  0  0  0  0  0  0
  -21.8450   -6.9170   21.4200 O   0  0  0  0  0  0  0  0  0  0  0  0
  -21.7720   -6.2060   22.5910 C   0  0  0  0  0  0  0  0  0  0  0  0
  -21.3120   -6.7900   23.7900 C   0  0  0  0  0  3  0  0  0  0  0  0
  -21.1850   -6.0040   24.9540 C   0  0  0  0  0  3  0  0  0  0  0  0
  -21.5090   -4.6340   24.9180 C   0  0  0  0  0  0  0  0  0  0  0  0
  -21.9630   -4.0500   23.7220 C   0  0  0  0  0  3  0  0  0  0  0  0
  -22.0910   -4.8320   22.5610 C   0  0  0  0  0  0  0  0  0  0  0  0
  -22.5070   -4.2590   21.4070 F   0  0  0  0  0  0  0  0  0  0  0  0
  -21.3820   -3.8780   26.0320 F   0  0  0  0  0  0  0  0  0  0  0  0
  -22.9300  -13.5620   21.2280 C   0  0  0  0  0  0  0  0  0  0  0  0
  -22.2630  -12.8430   22.1230 N   0  0  0  0  0  0  0  0  0  0  0  0
  -22.4630  -14.6020   20.7670 O   0  0  0  0  0  0  0  0  0  0  0  0
  -22.6560  -12.0020   22.5180 H   0  0  0  0  0  0  0  0  0  0  0  0
  -21.3440  -13.1410   22.4190 H   0  0  0  0  0  0  0  0  0  0  0  0
  -25.4970  -15.2520   20.2840 N   0  0  0  0  0  0  0  0  0  0  0  0
  -24.7450  -15.9020   20.4840 H   0  0  0  0  0  0  0  0  0  0  0  0
  -26.3270  -15.7040   19.9230 H   0  0  0  0  0  0  0  0  0  0  0  0
  -30.3710  -19.9630   17.7710 N   0  0  0  0  0  4  0  0  0  0  0  0
  -31.3430  -20.0570   18.0040 H   0  0  0  0  0  0  0  0  0  0  0  0
  -29.9800  -20.8860   17.7070 H   0  0  0  0  0  0  0  0  0  0  0  0
  -30.3020  -19.5270   16.8680 H   0  0  0  0  0  0  0  0  0  0  0  0
  -28.3420  -26.2340   20.1880 O   0  0  0  0  0  0  0  0  0  0  0  0
  -24.6550  -31.8860   23.2370 C   0  0  0  0  0  0  0  0  0  0  0  0
  -27.2300  -27.1600   20.1980 C   0  0  0  0  0  0  0  0  0  0  0  0
  -23.4540  -30.4970   21.5920 C   0  0  0  0  0  3  0  0  0  0  0  0
  -24.8990  -28.9130   20.1690 C   0  0  0  0  0  0  0  0  0  0  0  0
  -26.0080  -30.7530   21.4310 C   0  0  0  0  0  2  0  0  0  0  0  0
  -26.0780  -29.3590   20.7810 C   0  0  0  0  0  0  0  0  0  0  0  0
  -27.2400  -28.4970   20.7760 C   0  0  0  0  0  3  0  0  0  0  0  0
  -26.0230  -26.8170   19.5520 C   0  0  0  0  0  3  0  0  0  0  0  0
  -24.8850  -27.6570   19.5420 C   0  0  0  0  0  3  0  0  0  0  0  0
  -23.6750  -29.8170   20.2140 C   0  0  0  0  0  2  0  0  0  0  0  0
  -24.7260  -31.0690   22.1410 N   0  0  0  0  0  0  0  0  0  0  0  0
  -23.5690  -32.1690   23.7680 O   0  0  0  0  0  0  0  0  0  0  0  0
  -22.7740  -29.4890   22.5530 C   0  0  0  0  0  0  0  0  0  0  0  0
  -21.4460  -29.3210   22.4270 N   0  0  0  0  0  0  0  0  0  0  0  0
  -23.4460  -28.8580   23.3720 O   0  0  0  0  0  0  0  0  0  0  0  0
  -20.9600  -29.8810   21.7410 H   0  0  0  0  0  0  0  0  0  0  0  0
  -18.0620  -28.1300   22.9360 C   0  0  0  0  0  0  0  0  0  0  0  0
  -20.6230  -28.3810   23.1950 C   0  0  0  0  0  3  0  0  0  0  0  0
  -20.7170  -26.9520   22.6110 C   0  0  0  0  0  2  0  0  0  0  0  0
  -19.6110  -26.6410   21.5980 C   0  0  0  0  0  2  0  0  0  0  0  0
  -18.2310  -26.7860   22.2490 C   0  0  0  0  0  2  0  0  0  0  0  0
  -19.1850  -28.8860   23.3670 C   0  0  0  0  0  0  0  0  0  0  0  0
  -18.9700  -30.1450   23.9690 C   0  0  0  0  0  3  0  0  0  0  0  0
  -17.6680  -30.6470   24.1450 C   0  0  0  0  0  3  0  0  0  0  0  0
  -16.5600  -29.8870   23.7310 C   0  0  0  0  0  3  0  0  0  0  0  0
  -16.7580  -28.6310   23.1320 C   0  0  0  0  0  3  0  0  0  0  0  0
  -25.9340  -32.5200   23.8680 C   0  0  0  0  0  3  0  0  0  0  0  0
  -26.4410  -31.7490   25.1490 C   0  0  1  0  0  0  0  0  0  0  0  0
  -25.3420  -31.5160   26.2120 C   0  0  0  0  0  1  0  0  0  0  0  0
  -27.0230  -30.3690   24.7670 C   0  0  0  0  0  1  0  0  0  0  0  0
  -27.5900  -32.5410   25.8170 C   0  0  0  0  0  1  0  0  0  0  0  0
  -25.6230  -33.9180   24.2050 N   0  0  0  0  0  0  0  0  0  0  0  0
  -25.9370  -34.9770   23.4450 C   0  0  0  0  0  0  0  0  0  0  0  0
  -26.5870  -34.8770   22.4010 O   0  0  0  0  0  0  0  0  0  0  0  0
  -25.0480  -34.0680   25.0210 H   0  0  0  0  0  0  0  0  0  0  0  0
  -24.1870  -36.7600   23.1460 C   0  0  0  0  0  1  0  0  0  0  0  0
  -25.4560  -36.3630   23.9180 C   0  0  0  0  0  3  0  0  0  0  0  0
  -27.6100  -37.2640   24.6800 C   0  0  0  0  0  1  0  0  0  0  0  0
  -26.4780  -37.4230   23.7720 N   0  0  0  0  0  0  0  0  0  0  0  0
  -26.0710  -38.3410   23.9320 H   0  0  0  0  0  0  0  0  0  0  0  0
  2  6  1  0
  3  4  2  0
  4  1  1  0
  4  7  1  0
  5  2  2  0
  5  3  1  0
  6  1  2  0
  8  5  1  0
  9 10  1  0
 11 13  1  0
 12  3  1  0
 12  9  1  0
 13 15  1  0
 13 10  1  0
 14 51  1  0
 14 11  1  0
 14 12  1  0
 15 21  1  0
 16 21  1  0
 17 18  1  0
 17 16  1  0
 19 18  1  0
 19 26  1  0
 19 20  1  0
 21 20  1  0
 22 15  2  0
 23 24  2  0
 24 43  1  0
 25 24  1  0
 25 28  1  0
 26 27  1  0
 26 23  1  0
 27 25  2  0
 28 29  1  0
 29 30  2  0
 31 34  1  0
 31 30  1  0
 32 31  2  0
 33 32  1  0
 33 28  2  0
 34 35  1  0
 35 36  1  0
 36 37  2  0
 38 37  1  0
 38 42  1  0
 39 38  2  0
 40 35  2  0
 40 39  1  0
 41 40  1  0
 43 44  1  0
 44 47  1  0
 44 46  1  0
 45 43  2  0
 48 23  1  0
 48 49  1  0
 50 48  1  0
 51 52  1  0
 53 51  1  0
 54 51  1  0
 55 57  1  0
 55  6  1  0
 56 67  2  0
 57 62  1  0
 58 66  1  0
 58 68  1  0
 59 65  1  0
 59 61  1  0
 60 66  1  0
 61 60  1  0
 62 61  2  0
 63 57  2  0
 64 63  1  0
 64 59  2  0
 65 58  1  0
 66 56  1  0
 68 70  2  0
 69 68  1  0
 71 69  1  0
 72 81  2  0
 72 77  1  0
 73 69  1  0
 73 77  1  0
 74 73  1  0
 75 76  1  0
 75 74  1  0
 76 72  1  0
 77 78  2  0
 78 79  1  0
 80 79  2  0
 81 80  1  0
 82 56  1  0
 82 87  1  0
 82 83  1  0
 83 86  1  1
 83 84  1  0
 85 83  1  0
 87 90  1  0
 88 92  1  0
 88 87  1  0
 89 88  2  0
 92 91  1  0
 94 92  1  0
 94 95  1  0
 94 93  1  0
M  ISO  4   6 101  13 100  15 100  55 101
M  END
>  <TORSDO>  (47) 
F 18

>  <SCORE>  (47) 
-15.053

>  <name>  (47) 
46

>  <ligand_id>  (47) 
46

>  <original_smiles>  (47) 
[H]c1c([H])c([H])c2c(c1[H])C([H])([H])C([H])([H])C([H])([H])C2([H])N([H])C(=O)C1([H])N(C(=O)C([H])(N([H])C(=O)C([H])(N([H])C([H])([H])[H])C([H])([H])[H])C(C([H])([H])[H])(C([H])([H])[H])C([H])([H])[H])C([H])([H])c2c([H])c(Oc3c([H])c(C([H])([H])[H])c(C4([H])C([H])([H])C([H])([H])C([H])(C(=O)N5C([H])([H])C([H])([H])C([H])([H])C([H])(n6nc(-c7c([H])c([H])c(Oc8c([H])c([H])c(F)c([H])c8F)c([H])c7[H])c(C(=O)N([H])[H])c6N([H])[H])C5([H])[H])C([H])([H])C4([H])[N+]([H])([H])[H])c(C([H])([H])[H])c3[H])c([H])c([H])c2C1([H])[H]

>  <smiles>  (47) 
[H]c1c([H])c([H])c2c(c1[H])C([H])([H])C([H])([H])C([H])([H])C2([H])N([H])C(=O)C1([H])N(C(=O)C([H])(N([H])C(=O)C([H])(N([H])C([H])([H])[H])C([H])([H])[H])C(C([H])([H])[H])(C([H])([H])[H])C([H])([H])[H])C([H])([H])c2c([H])c(Oc3c([H])c(C([H])([H])[H])c(C4([H])C([H])([H])C([H])([H])C([H])(C(=O)N5C([H])([H])C([H])([H])C([H])([H])C([H])(n6nc(-c7c([H])c([H])c(Oc8c([H])c([H])c(F)c([H])c8F)c([H])c7[H])c(C(=O)N([H])[H])c6N([H])[H])C5([H])[H])C([H])([H])C4([H])[N+]([H])([H])[H])c(C([H])([H])[H])c3[H])c([H])c([H])c2C1([H])[H]

$$$$
47:0:0
     RDKit          3D

 90 99  0  0  1  0  0  0  0  0999 V2000
  -27.3450  -22.1650   20.8430 C   0  0  0  0  0  2  0  0  0  0  0  0
  -27.2430  -23.7460   21.0510 C   0  0  0  0  0  2  0  0  0  0  0  0
  -29.0860  -23.2360   19.6390 C   0  0  0  0  0  2  0  0  0  0  0  0
  -28.7930  -21.7720   20.4390 C   0  0  0  0  0  3  0  0  0  0  0  0
  -27.9840  -24.5130   19.9150 C   0  0  0  0  0  3  0  0  0  0  0  0
  -29.1740  -19.2570   19.0170 C   0  0  0  0  0  3  0  0  0  0  0  0
  -29.6360  -19.2180   21.2700 C   0  0  0  0  0  3  0  0  0  0  0  0
  -29.9720  -16.9380   20.0200 C   0  0  0  0  0  0  0  0  0  0  0  0
  -29.2070  -20.1020   20.1970 C   0  0  0  0  0  0  0  0  0  0  0  0
  -29.5320  -17.8130   18.9270 C   0  0  0  0  0  0  0  0  0  0  0  0
  -29.9990  -17.7820   21.2070 C   0  0  0  0  0  0  0  0  0  0  0  0
  -29.4540  -17.1890   17.5440 C   0  0  0  0  0  1  0  0  0  0  0  0
  -30.4760  -17.1410   22.5000 C   0  0  0  0  0  1  0  0  0  0  0  0
  -30.6350  -15.4100   19.8560 C   0  0  0  0  0  0  0  0  0  0  0  0
  -30.5210  -12.9940   18.9800 C   0  0  0  0  0  2  0  0  0  0  0  0
  -29.5190  -12.8380   17.8120 C   0  0  0  0  0  2  0  0  0  0  0  0
  -28.1070  -12.5520   18.3500 C   0  0  0  0  0  2  0  0  0  0  0  0
  -27.7350  -13.4880   19.5280 C   0  0  0  0  0  3  0  0  0  0  0  0
  -28.8590  -13.6320   20.5720 C   0  0  0  0  0  2  0  0  0  0  0  0
  -30.0510  -14.1190   19.8670 N   0  0  0  0  0  0  0  0  0  0  0  0
  -31.8240  -15.3840   19.5110 O   0  0  0  0  0  0  0  0  0  0  0  0
  -25.4480  -13.9790   20.5410 C   0  0  0  0  0  0  0  0  0  0  0  0
  -24.4240  -13.1730   20.9540 C   0  0  0  0  0  0  0  0  0  0  0  0
  -24.8870  -11.8310   20.7900 C   0  0  0  0  0  0  0  0  0  0  0  0
  -26.4610  -13.1290   20.1390 N   0  0  0  0  0  0  0  0  0  0  0  0
  -26.1430  -11.8260   20.3580 N   0  0  0  0  0  0  0  0  0  0  0  0
  -24.1790  -10.5530   20.9640 C   0  0  0  0  0  0  0  0  0  0  0  0
  -24.6330   -9.5740   21.8740 C   0  0  0  0  0  3  0  0  0  0  0  0
  -23.9220   -8.3640   22.0370 C   0  0  0  0  0  3  0  0  0  0  0  0
  -22.7430   -8.1270   21.2900 C   0  0  0  0  0  0  0  0  0  0  0  0
  -22.3090   -9.0960   20.3680 C   0  0  0  0  0  3  0  0  0  0  0  0
  -23.0200  -10.2970   20.2040 C   0  0  0  0  0  3  0  0  0  0  0  0
  -22.0020   -6.9720   21.3640 O   0  0  0  0  0  0  0  0  0  0  0  0
  -21.8820   -6.2670   22.5350 C   0  0  0  0  0  0  0  0  0  0  0  0
  -21.3510   -6.8510   23.7050 C   0  0  0  0  0  3  0  0  0  0  0  0
  -21.1800   -6.0720   24.8660 C   0  0  0  0  0  3  0  0  0  0  0  0
  -21.5300   -4.7090   24.8580 C   0  0  0  0  0  0  0  0  0  0  0  0
  -22.0550   -4.1240   23.6920 C   0  0  0  0  0  3  0  0  0  0  0  0
  -22.2260   -4.9010   22.5330 C   0  0  0  0  0  0  0  0  0  0  0  0
  -22.7120   -4.3260   21.4060 F   0  0  0  0  0  0  0  0  0  0  0  0
  -21.3600   -3.9570   25.9700 F   0  0  0  0  0  0  0  0  0  0  0  0
  -23.0580  -13.6230   21.3800 C   0  0  0  0  0  0  0  0  0  0  0  0
  -22.4210  -12.8810   22.2790 N   0  0  0  0  0  0  0  0  0  0  0  0
  -22.5690  -14.6680   20.9530 O   0  0  0  0  0  0  0  0  0  0  0  0
  -22.8320  -12.0350   22.6440 H   0  0  0  0  0  0  0  0  0  0  0  0
  -21.5080  -13.1630   22.6060 H   0  0  0  0  0  0  0  0  0  0  0  0
  -25.5950  -15.3600   20.4440 N   0  0  0  0  0  0  0  0  0  0  0  0
  -24.8500  -16.0030   20.6850 H   0  0  0  0  0  0  0  0  0  0  0  0
  -26.4250  -15.8270   20.1000 H   0  0  0  0  0  0  0  0  0  0  0  0
  -28.1790  -26.1230   20.0590 O   0  0  0  0  0  0  0  0  0  0  0  0
  -24.6480  -31.9370   23.2070 C   0  0  0  0  0  0  0  0  0  0  0  0
  -27.1420  -27.1740   20.0340 C   0  0  0  0  0  0  0  0  0  0  0  0
  -23.4130  -30.5660   21.5760 C   0  0  0  0  0  3  0  0  0  0  0  0
  -24.8280  -29.0040   20.0840 C   0  0  0  0  0  0  0  0  0  0  0  0
  -25.9690  -30.8090   21.3580 C   0  0  0  0  0  2  0  0  0  0  0  0
  -26.0280  -29.4170   20.6760 C   0  0  0  0  0  0  0  0  0  0  0  0
  -27.1810  -28.5230   20.6270 C   0  0  0  0  0  3  0  0  0  0  0  0
  -25.9110  -26.8980   19.4010 C   0  0  0  0  0  3  0  0  0  0  0  0
  -24.7900  -27.7640   19.4270 C   0  0  0  0  0  3  0  0  0  0  0  0
  -23.6040  -29.9100   20.1820 C   0  0  0  0  0  2  0  0  0  0  0  0
  -24.6990  -31.1300   22.1000 N   0  0  0  0  0  0  0  0  0  0  0  0
  -23.5730  -32.2110   23.7650 O   0  0  0  0  0  0  0  0  0  0  0  0
  -22.7570  -29.5460   22.5420 C   0  0  0  0  0  0  0  0  0  0  0  0
  -21.4290  -29.3500   22.4290 N   0  0  0  0  0  0  0  0  0  0  0  0
  -23.4450  -28.9310   23.3600 O   0  0  0  0  0  0  0  0  0  0  0  0
  -20.9260  -29.8990   21.7460 H   0  0  0  0  0  0  0  0  0  0  0  0
  -18.0840  -28.0500   22.9450 C   0  0  0  0  0  0  0  0  0  0  0  0
  -20.6350  -28.3910   23.2020 C   0  0  0  0  0  3  0  0  0  0  0  0
  -20.7770  -26.9620   22.6290 C   0  0  0  0  0  2  0  0  0  0  0  0
  -19.6820  -26.6060   21.6170 C   0  0  0  0  0  2  0  0  0  0  0  0
  -18.2980  -26.7090   22.2650 C   0  0  0  0  0  2  0  0  0  0  0  0
  -19.1800  -28.8470   23.3710 C   0  0  0  0  0  0  0  0  0  0  0  0
  -18.9230  -30.0990   23.9690 C   0  0  0  0  0  3  0  0  0  0  0  0
  -17.6030  -30.5580   24.1440 C   0  0  0  0  0  3  0  0  0  0  0  0
  -16.5210  -29.7590   23.7320 C   0  0  0  0  0  3  0  0  0  0  0  0
  -16.7630  -28.5070   23.1390 C   0  0  0  0  0  3  0  0  0  0  0  0
  -25.9350  -32.5740   23.8140 C   0  0  0  0  0  3  0  0  0  0  0  0
  -25.6210  -33.9650   24.1820 N   0  0  0  0  0  0  0  0  0  0  0  0
  -25.9140  -35.0410   23.4390 C   0  0  0  0  0  0  0  0  0  0  0  0
  -26.5400  -34.9660   22.3790 O   0  0  0  0  0  0  0  0  0  0  0  0
  -25.0590  -34.0960   25.0100 H   0  0  0  0  0  0  0  0  0  0  0  0
  -24.1540  -36.8280   23.2130 C   0  0  0  0  0  1  0  0  0  0  0  0
  -25.4390  -36.4160   23.9500 C   0  0  0  0  0  3  0  0  0  0  0  0
  -27.6030  -37.3140   24.6910 C   0  0  0  0  0  1  0  0  0  0  0  0
  -26.4550  -37.4820   23.8040 N   0  0  0  0  0  0  0  0  0  0  0  0
  -26.0470  -38.3960   23.9840 H   0  0  0  0  0  0  0  0  0  0  0  0
  -26.4790  -31.7880   25.0720 C   0  0  1  0  0  0  0  0  0  0  0  0
  -25.4090  -31.5320   26.1590 C   0  0  0  0  0  1  0  0  0  0  0  0
  -27.0610  -30.4180   24.6570 C   0  0  0  0  0  1  0  0  0  0  0  0
  -27.6400  -32.5790   25.7200 C   0  0  0  0  0  1  0  0  0  0  0  0
  1  2  1  0
  3  5  1  0
  3  4  1  0
  4  9  1  0
  4  1  1  0
  5 50  1  0
  5  2  1  0
  6  9  1  0
  8 11  2  0
  9  7  2  0
 10  6  2  0
 10  8  1  0
 11  7  1  0
 11 13  1  0
 12 10  1  0
 14 20  1  0
 14  8  1  0
 15 20  1  0
 16 17  1  0
 16 15  1  0
 18 17  1  0
 18 25  1  0
 18 19  1  0
 20 19  1  0
 21 14  2  0
 22 23  2  0
 23 42  1  0
 24 23  1  0
 24 27  1  0
 25 26  1  0
 25 22  1  0
 26 24  2  0
 27 28  1  0
 28 29  2  0
 30 33  1  0
 30 29  1  0
 31 30  2  0
 32 31  1  0
 32 27  2  0
 33 34  1  0
 34 35  1  0
 35 36  2  0
 37 36  1  0
 37 41  1  0
 38 37  2  0
 39 34  2  0
 39 38  1  0
 40 39  1  0
 42 43  1  0
 43 46  1  0
 43 45  1  0
 44 42  2  0
 47 22  1  0
 47 48  1  0
 49 47  1  0
 51 62  2  0
 52 50  1  0
 52 57  1  0
 53 61  1  0
 53 63  1  0
 54 60  1  0
 54 56  1  0
 55 61  1  0
 56 55  1  0
 57 56  2  0
 58 59  1  0
 58 52  2  0
 59 54  2  0
 60 53  1  0
 61 51  1  0
 63 65  2  0
 64 63  1  0
 66 64  1  0
 67 76  2  0
 67 72  1  0
 68 64  1  0
 68 72  1  0
 69 68  1  0
 70 71  1  0
 70 69  1  0
 71 67  1  0
 72 73  2  0
 73 74  1  0
 75 74  2  0
 76 75  1  0
 77 51  1  0
 77 78  1  0
 77 87  1  0
 78 81  1  0
 79 83  1  0
 79 78  1  0
 80 79  2  0
 83 82  1  0
 85 83  1  0
 85 86  1  0
 85 84  1  0
 87 90  1  1
 87 88  1  0
 89 87  1  0
M  ISO  4   5 101   8 100  14 100  50 101
M  END
>  <TORSDO>  (48) 
F 17

>  <SCORE>  (48) 
-14.044

>  <name>  (48) 
47

>  <ligand_id>  (48) 
47

>  <original_smiles>  (48) 
[H]c1c([H])c([H])c2c(c1[H])C([H])([H])C([H])([H])C([H])([H])C2([H])N([H])C(=O)C1([H])N(C(=O)C([H])(N([H])C(=O)C([H])(N([H])C([H])([H])[H])C([H])([H])[H])C(C([H])([H])[H])(C([H])([H])[H])C([H])([H])[H])C([H])([H])c2c([H])c(OC3([H])C([H])([H])C([H])([H])C([H])(c4c([H])c(C([H])([H])[H])c(C(=O)N5C([H])([H])C([H])([H])C([H])([H])C([H])(n6nc(-c7c([H])c([H])c(Oc8c([H])c([H])c(F)c([H])c8F)c([H])c7[H])c(C(=O)N([H])[H])c6N([H])[H])C5([H])[H])c(C([H])([H])[H])c4[H])C3([H])[H])c([H])c([H])c2C1([H])[H]

>  <smiles>  (48) 
[H]c1c([H])c([H])c2c(c1[H])C([H])([H])C([H])([H])C([H])([H])C2([H])N([H])C(=O)C1([H])N(C(=O)C([H])(N([H])C(=O)C([H])(N([H])C([H])([H])[H])C([H])([H])[H])C(C([H])([H])[H])(C([H])([H])[H])C([H])([H])[H])C([H])([H])c2c([H])c(OC3([H])C([H])([H])C([H])([H])C([H])(c4c([H])c(C([H])([H])[H])c(C(=O)N5C([H])([H])C([H])([H])C([H])([H])C([H])(n6nc(-c7c([H])c([H])c(Oc8c([H])c([H])c(F)c([H])c8F)c([H])c7[H])c(C(=O)N([H])[H])c6N([H])[H])C5([H])[H])c(C([H])([H])[H])c4[H])C3([H])[H])c([H])c([H])c2C1([H])[H]

$$$$
48:0:0
     RDKit          3D

 93102  0  0  1  0  0  0  0  0999 V2000
  -30.1540  -22.3530   23.4830 C   0  0  0  0  0  3  0  0  0  0  0  0
  -30.6740  -21.0510   23.6210 C   0  0  0  0  0  3  0  0  0  0  0  0
  -31.3460  -21.0820   21.2800 C   0  0  0  0  0  3  0  0  0  0  0  0
  -30.2120  -23.0250   22.2390 C   0  0  0  0  0  0  0  0  0  0  0  0
  -31.2580  -20.4030   22.5140 C   0  0  0  0  0  0  0  0  0  0  0  0
  -30.8250  -22.3840   21.1370 C   0  0  0  0  0  0  0  0  0  0  0  0
  -30.8940  -22.9900   19.9280 F   0  0  0  0  0  0  0  0  0  0  0  0
  -28.4660  -24.7050   22.7540 C   0  0  0  0  0  2  0  0  0  0  0  0
  -29.5720  -24.3520   22.0970 C   0  0  0  0  0  3  0  0  0  0  0  0
  -28.0690  -26.1370   22.5470 C   0  0  0  0  0  2  0  0  0  0  0  0
  -30.1390  -25.5480   21.3560 C   0  0  0  0  0  2  0  0  0  0  0  0
  -29.0670  -26.6640   21.4780 C   0  0  0  0  0  3  0  0  0  0  0  0
  -28.4460  -26.8440   20.1970 O   0  0  0  0  0  0  0  0  0  0  0  0
  -24.6340  -31.9840   23.3060 C   0  0  0  0  0  0  0  0  0  0  0  0
  -27.3150  -27.6270   20.1780 C   0  0  0  0  0  0  0  0  0  0  0  0
  -23.4270  -30.5780   21.6620 C   0  0  0  0  0  3  0  0  0  0  0  0
  -24.8890  -29.0710   20.2110 C   0  0  0  0  0  0  0  0  0  0  0  0
  -25.9400  -30.9800   21.4430 C   0  0  0  0  0  2  0  0  0  0  0  0
  -26.0400  -29.6170   20.7950 C   0  0  0  0  0  0  0  0  0  0  0  0
  -27.2560  -28.9030   20.7820 C   0  0  0  0  0  3  0  0  0  0  0  0
  -26.1590  -27.0970   19.5710 C   0  0  0  0  0  3  0  0  0  0  0  0
  -24.9410  -27.8070   19.5940 C   0  0  0  0  0  3  0  0  0  0  0  0
  -23.6300  -29.9050   20.2780 C   0  0  0  0  0  2  0  0  0  0  0  0
  -24.6830  -31.1940   22.1960 N   0  0  0  0  0  0  0  0  0  0  0  0
  -23.5560  -32.2400   23.8600 O   0  0  0  0  0  0  0  0  0  0  0  0
  -22.7970  -29.5460   22.6230 C   0  0  0  0  0  0  0  0  0  0  0  0
  -21.4780  -29.3350   22.4890 N   0  0  0  0  0  0  0  0  0  0  0  0
  -23.4920  -28.9390   23.4430 O   0  0  0  0  0  0  0  0  0  0  0  0
  -20.9830  -29.8830   21.8000 H   0  0  0  0  0  0  0  0  0  0  0  0
  -18.1340  -28.0360   22.9310 C   0  0  0  0  0  0  0  0  0  0  0  0
  -20.6740  -28.3810   23.2540 C   0  0  0  0  0  3  0  0  0  0  0  0
  -20.8360  -26.9460   22.7000 C   0  0  0  0  0  2  0  0  0  0  0  0
  -19.7700  -26.5740   21.6660 C   0  0  0  0  0  2  0  0  0  0  0  0
  -18.3690  -26.6820   22.2780 C   0  0  0  0  0  2  0  0  0  0  0  0
  -19.2170  -28.8390   23.3730 C   0  0  0  0  0  0  0  0  0  0  0  0
  -18.9460  -30.1030   23.9410 C   0  0  0  0  0  3  0  0  0  0  0  0
  -17.6230  -30.5670   24.0680 C   0  0  0  0  0  3  0  0  0  0  0  0
  -16.5540  -29.7610   23.6430 C   0  0  0  0  0  3  0  0  0  0  0  0
  -16.8080  -28.4960   23.0810 C   0  0  0  0  0  3  0  0  0  0  0  0
  -25.9210  -32.6200   23.9190 C   0  0  0  0  0  3  0  0  0  0  0  0
  -25.6080  -34.0180   24.2450 N   0  0  0  0  0  0  0  0  0  0  0  0
  -25.9210  -35.0680   23.4720 C   0  0  0  0  0  0  0  0  0  0  0  0
  -26.5750  -34.9630   22.4310 O   0  0  0  0  0  0  0  0  0  0  0  0
  -25.0250  -34.1720   25.0530 H   0  0  0  0  0  0  0  0  0  0  0  0
  -24.1630  -36.8370   23.1490 C   0  0  0  0  0  1  0  0  0  0  0  0
  -25.4320  -36.4570   23.9280 C   0  0  0  0  0  3  0  0  0  0  0  0
  -27.5780  -37.3770   24.6870 C   0  0  0  0  0  1  0  0  0  0  0  0
  -26.4480  -37.5190   23.7710 N   0  0  0  0  0  0  0  0  0  0  0  0
  -26.0380  -38.4370   23.9170 H   0  0  0  0  0  0  0  0  0  0  0  0
  -26.4500  -31.8520   25.1910 C   0  0  1  0  0  0  0  0  0  0  0  0
  -25.3660  -31.6060   26.2660 C   0  0  0  0  0  1  0  0  0  0  0  0
  -27.0370  -30.4790   24.7920 C   0  0  0  0  0  1  0  0  0  0  0  0
  -27.6010  -32.6530   25.8470 C   0  0  0  0  0  1  0  0  0  0  0  0
  -31.7840  -18.9820   22.6410 C   0  0  0  0  0  2  0  0  0  0  0  0
  -30.6910  -17.9050   22.4520 C   0  0  0  0  0  2  0  0  0  0  0  0
  -31.1500  -16.7890   21.4980 C   0  0  0  0  0  2  0  0  0  0  0  0
  -30.2300  -15.5440   21.4360 C   0  0  0  0  0  2  0  0  0  0  0  0
  -30.6940  -14.5190   20.3790 C   0  0  0  0  0  0  0  0  0  0  0  0
  -30.3130  -12.4540   19.0760 C   0  0  0  0  0  2  0  0  0  0  0  0
  -29.3440  -12.7110   17.9080 C   0  0  0  0  0  2  0  0  0  0  0  0
  -27.8840  -12.5460   18.3740 C   0  0  0  0  0  2  0  0  0  0  0  0
  -27.5810  -13.3400   19.6710 C   0  0  0  0  0  3  0  0  0  0  0  0
  -28.6600  -13.0850   20.7470 C   0  0  0  0  0  2  0  0  0  0  0  0
  -29.9760  -13.3860   20.1610 N   0  0  0  0  0  0  0  0  0  0  0  0
  -31.7170  -14.7710   19.7340 O   0  0  0  0  0  0  0  0  0  0  0  0
  -25.1790  -13.9110   20.4040 C   0  0  0  0  0  0  0  0  0  0  0  0
  -24.1280  -13.1210   20.7870 C   0  0  0  0  0  0  0  0  0  0  0  0
  -24.6110  -11.7780   20.7500 C   0  0  0  0  0  0  0  0  0  0  0  0
  -26.2370  -13.0480   20.1650 N   0  0  0  0  0  0  0  0  0  0  0  0
  -25.8980  -11.7600   20.4280 N   0  0  0  0  0  0  0  0  0  0  0  0
  -23.9090  -10.5030   20.9530 C   0  0  0  0  0  0  0  0  0  0  0  0
  -24.3600   -9.5530   21.8960 C   0  0  0  0  0  3  0  0  0  0  0  0
  -23.6580   -8.3430   22.0840 C   0  0  0  0  0  3  0  0  0  0  0  0
  -22.4920   -8.0740   21.3300 C   0  0  0  0  0  0  0  0  0  0  0  0
  -22.0620   -9.0120   20.3750 C   0  0  0  0  0  3  0  0  0  0  0  0
  -22.7630  -10.2150   20.1860 C   0  0  0  0  0  3  0  0  0  0  0  0
  -21.7600   -6.9150   21.4270 O   0  0  0  0  0  0  0  0  0  0  0  0
  -21.7090   -6.1930   22.5910 C   0  0  0  0  0  0  0  0  0  0  0  0
  -21.2550   -6.7600   23.8020 C   0  0  0  0  0  3  0  0  0  0  0  0
  -21.1530   -5.9630   24.9590 C   0  0  0  0  0  3  0  0  0  0  0  0
  -21.4940   -4.5980   24.9070 C   0  0  0  0  0  0  0  0  0  0  0  0
  -21.9430   -4.0300   23.7000 C   0  0  0  0  0  3  0  0  0  0  0  0
  -22.0470   -4.8250   22.5460 C   0  0  0  0  0  0  0  0  0  0  0  0
  -22.4580   -4.2680   21.3820 F   0  0  0  0  0  0  0  0  0  0  0  0
  -21.3900   -3.8290   26.0160 F   0  0  0  0  0  0  0  0  0  0  0  0
  -22.7270  -13.5750   21.0810 C   0  0  0  0  0  0  0  0  0  0  0  0
  -22.0260  -12.8620   21.9550 N   0  0  0  0  0  0  0  0  0  0  0  0
  -22.2630  -14.5940   20.5700 O   0  0  0  0  0  0  0  0  0  0  0  0
  -22.4160  -12.0360   22.3850 H   0  0  0  0  0  0  0  0  0  0  0  0
  -21.0880  -13.1460   22.2000 H   0  0  0  0  0  0  0  0  0  0  0  0
  -25.3190  -15.2840   20.2220 N   0  0  0  0  0  0  0  0  0  0  0  0
  -24.5480  -15.9320   20.3430 H   0  0  0  0  0  0  0  0  0  0  0  0
  -26.1660  -15.7350   19.8950 H   0  0  0  0  0  0  0  0  0  0  0  0
  1  2  1  0
  3  5  1  0
  4  1  2  0
  5 54  1  0
  5  2  2  0
  6  3  2  0
  6  4  1  0
  7  6  1  0
  9  4  1  0
  9  8  1  0
 10  8  1  0
 11 12  1  0
 11  9  1  0
 12 13  1  0
 12 10  1  0
 14 25  2  0
 15 13  1  0
 15 20  1  0
 16 24  1  0
 16 26  1  0
 17 23  1  0
 17 19  1  0
 18 24  1  0
 19 18  1  0
 20 19  2  0
 21 22  1  0
 21 15  2  0
 22 17  2  0
 23 16  1  0
 24 14  1  0
 26 28  2  0
 27 26  1  0
 29 27  1  0
 30 39  2  0
 30 35  1  0
 31 27  1  0
 31 35  1  0
 32 31  1  0
 33 34  1  0
 33 32  1  0
 34 30  1  0
 35 36  2  0
 36 37  1  0
 38 37  2  0
 39 38  1  0
 40 14  1  0
 40 41  1  0
 40 50  1  0
 41 44  1  0
 42 46  1  0
 42 41  1  0
 43 42  2  0
 46 45  1  0
 48 49  1  0
 48 46  1  0
 48 47  1  0
 50 53  1  1
 50 51  1  0
 52 50  1  0
 55 54  1  0
 56 55  1  0
 57 56  1  0
 58 57  1  0
 59 64  1  0
 60 61  1  0
 60 59  1  0
 62 61  1  0
 62 69  1  0
 62 63  1  0
 64 58  1  0
 64 63  1  0
 65 58  2  0
 66 67  2  0
 67 86  1  0
 68 67  1  0
 68 71  1  0
 69 66  1  0
 69 70  1  0
 70 68  2  0
 71 72  1  0
 72 73  2  0
 74 77  1  0
 74 73  1  0
 75 74  2  0
 76 75  1  0
 76 71  2  0
 77 78  1  0
 78 79  1  0
 79 80  2  0
 81 80  1  0
 81 85  1  0
 82 81  2  0
 83 78  2  0
 83 82  1  0
 84 83  1  0
 86 87  1  0
 87 90  1  0
 87 89  1  0
 88 86  2  0
 91 92  1  0
 91 66  1  0
 93 91  1  0
M  ISO  4  12 101  13 101  57 100  58 100
M  END
>  <TORSDO>  (49) 
F 21

>  <SCORE>  (49) 
-13.652

>  <name>  (49) 
48

>  <ligand_id>  (49) 
48

>  <original_smiles>  (49) 
[H]C1=C(c2c([H])c([H])c(C([H])([H])C([H])([H])C([H])([H])C([H])([H])C(=O)N3C([H])([H])C([H])([H])C([H])([H])C([H])(n4nc(-c5c([H])c([H])c(Oc6c([H])c([H])c(F)c([H])c6F)c([H])c5[H])c(C(=O)N([H])[H])c4N([H])[H])C3([H])[H])c([H])c2F)C([H])([H])C([H])(Oc2c([H])c([H])c3c(c2[H])C([H])([H])N(C(=O)C([H])(N([H])C(=O)C([H])(N([H])C([H])([H])[H])C([H])([H])[H])C(C([H])([H])[H])(C([H])([H])[H])C([H])([H])[H])C([H])(C(=O)N([H])C2([H])c4c([H])c([H])c([H])c([H])c4C([H])([H])C([H])([H])C2([H])[H])C3([H])[H])C1([H])[H]

>  <smiles>  (49) 
[H]C1=C(c2c([H])c([H])c(C([H])([H])C([H])([H])C([H])([H])C([H])([H])C(=O)N3C([H])([H])C([H])([H])C([H])([H])C([H])(n4nc(-c5c([H])c([H])c(Oc6c([H])c([H])c(F)c([H])c6F)c([H])c5[H])c(C(=O)N([H])[H])c4N([H])[H])C3([H])[H])c([H])c2F)C([H])([H])C([H])(Oc2c([H])c([H])c3c(c2[H])C([H])([H])N(C(=O)C([H])(N([H])C(=O)C([H])(N([H])C([H])([H])[H])C([H])([H])[H])C(C([H])([H])[H])(C([H])([H])[H])C([H])([H])[H])C([H])(C(=O)N([H])C2([H])c4c([H])c([H])c([H])c([H])c4C([H])([H])C([H])([H])C2([H])[H])C3([H])[H])C1([H])[H]

$$$$
49:0:0
     RDKit          3D

 91 99  0  0  1  0  0  0  0  0999 V2000
  -27.4510  -22.2860   20.8650 C   0  0  0  0  0  3  0  0  0  0  0  0
  -28.9830  -23.9940   20.0670 C   0  0  0  0  0  3  0  0  0  0  0  0
  -28.7510  -22.5650   20.4150 C   0  0  0  0  0  0  0  0  0  0  0  0
  -26.4830  -23.2980   21.0250 C   0  0  0  0  0  0  0  0  0  0  0  0
  -28.0060  -25.1150   20.2150 C   0  0  0  0  0  0  0  0  0  0  0  0
  -26.7720  -24.6710   20.7740 C   0  0  0  0  0  0  0  0  0  0  0  0
  -24.5990  -23.5690   22.7420 C   0  0  0  0  0  1  0  0  0  0  0  0
  -25.0800  -22.8880   21.4520 C   0  0  0  0  0  2  0  0  0  0  0  0
  -25.8130  -25.5660   21.1350 O   0  0  0  0  0  0  0  0  0  0  0  0
  -25.1320  -25.1400   21.6400 H   0  0  0  0  0  0  0  0  0  0  0  0
  -28.2040  -26.5590   19.9470 O   0  0  0  0  0  0  0  0  0  0  0  0
  -24.6460  -32.0710   23.3730 C   0  0  0  0  0  0  0  0  0  0  0  0
  -27.1780  -27.5750   19.9880 C   0  0  0  0  0  0  0  0  0  0  0  0
  -23.4280  -30.8100   21.6420 C   0  0  0  0  0  3  0  0  0  0  0  0
  -24.8630  -29.3320   20.1010 C   0  0  0  0  0  0  0  0  0  0  0  0
  -25.9840  -31.0660   21.4870 C   0  0  0  0  0  2  0  0  0  0  0  0
  -26.0440  -29.7210   20.7440 C   0  0  0  0  0  0  0  0  0  0  0  0
  -27.2020  -28.8530   20.6840 C   0  0  0  0  0  3  0  0  0  0  0  0
  -25.9780  -27.3050   19.2960 C   0  0  0  0  0  3  0  0  0  0  0  0
  -24.8390  -28.1330   19.3700 C   0  0  0  0  0  3  0  0  0  0  0  0
  -23.6380  -30.2260   20.2200 C   0  0  0  0  0  2  0  0  0  0  0  0
  -24.7060  -31.3330   22.2240 N   0  0  0  0  0  0  0  0  0  0  0  0
  -23.5650  -32.3270   23.9270 O   0  0  0  0  0  0  0  0  0  0  0  0
  -22.7340  -29.7480   22.5360 C   0  0  0  0  0  0  0  0  0  0  0  0
  -21.4060  -29.5960   22.3970 N   0  0  0  0  0  0  0  0  0  0  0  0
  -23.3960  -29.0610   23.3180 O   0  0  0  0  0  0  0  0  0  0  0  0
  -20.9330  -30.2030   21.7390 H   0  0  0  0  0  0  0  0  0  0  0  0
  -18.0200  -28.3580   22.8570 C   0  0  0  0  0  0  0  0  0  0  0  0
  -20.5880  -28.5930   23.0830 C   0  0  0  0  0  3  0  0  0  0  0  0
  -20.6800  -27.2280   22.3500 C   0  0  0  0  0  2  0  0  0  0  0  0
  -19.5270  -27.0010   21.3700 C   0  0  0  0  0  2  0  0  0  0  0  0
  -18.1900  -27.0520   22.1050 C   0  0  0  0  0  2  0  0  0  0  0  0
  -19.1520  -29.0860   23.3180 C   0  0  0  0  0  0  0  0  0  0  0  0
  -18.9440  -30.3010   24.0090 C   0  0  0  0  0  3  0  0  0  0  0  0
  -17.6440  -30.7970   24.2240 C   0  0  0  0  0  3  0  0  0  0  0  0
  -16.5300  -30.0810   23.7520 C   0  0  0  0  0  3  0  0  0  0  0  0
  -16.7170  -28.8600   23.0800 C   0  0  0  0  0  3  0  0  0  0  0  0
  -25.9310  -32.6520   24.0370 C   0  0  0  0  0  3  0  0  0  0  0  0
  -25.6470  -34.0390   24.4370 N   0  0  0  0  0  0  0  0  0  0  0  0
  -25.9990  -35.1220   23.7380 C   0  0  0  0  0  0  0  0  0  0  0  0
  -26.6680  -35.0570   22.7020 O   0  0  0  0  0  0  0  0  0  0  0  0
  -25.0500  -34.1610   25.2430 H   0  0  0  0  0  0  0  0  0  0  0  0
  -24.3030  -36.9650   23.4870 C   0  0  0  0  0  1  0  0  0  0  0  0
  -25.5410  -36.4940   24.2660 C   0  0  0  0  0  3  0  0  0  0  0  0
  -27.6920  -37.3040   25.1290 C   0  0  0  0  0  1  0  0  0  0  0  0
  -26.5880  -37.5360   24.2010 N   0  0  0  0  0  0  0  0  0  0  0  0
  -26.1970  -38.4530   24.3950 H   0  0  0  0  0  0  0  0  0  0  0  0
  -26.4200  -31.8080   25.2790 C   0  0  1  0  0  0  0  0  0  0  0  0
  -25.3130  -31.5510   26.3280 C   0  0  0  0  0  1  0  0  0  0  0  0
  -26.9790  -30.4370   24.8320 C   0  0  0  0  0  1  0  0  0  0  0  0
  -27.5780  -32.5490   25.9860 C   0  0  0  0  0  1  0  0  0  0  0  0
  -29.7800  -21.2840   20.3360 C   0  0  0  0  0  3  0  0  0  0  0  0
  -29.3680  -19.7020   20.7330 C   0  0  0  0  0  3  0  0  0  0  0  0
  -30.3520  -18.3470   20.6230 C   0  0  0  0  0  3  0  0  0  0  0  0
  -29.9190  -16.8090   21.1390 C   0  0  0  0  0  3  0  0  0  0  0  0
  -30.7900  -15.4240   20.9270 C   0  0  0  0  0  0  0  0  0  0  0  0
  -30.7980  -13.0810   19.9850 C   0  0  0  0  0  2  0  0  0  0  0  0
  -29.9820  -13.0490   18.6700 C   0  0  0  0  0  2  0  0  0  0  0  0
  -28.4780  -12.8540   18.9510 C   0  0  0  0  0  2  0  0  0  0  0  0
  -27.9570  -13.7710   20.0840 C   0  0  0  0  0  3  0  0  0  0  0  0
  -28.8950  -13.7580   21.3100 C   0  0  0  0  0  2  0  0  0  0  0  0
  -30.2340  -14.1510   20.8500 N   0  0  0  0  0  0  0  0  0  0  0  0
  -32.0060  -15.5190   20.7180 O   0  0  0  0  0  0  0  0  0  0  0  0
  -25.5080  -14.3490   20.5690 C   0  0  0  0  0  0  0  0  0  0  0  0
  -24.4110  -13.5710   20.8220 C   0  0  0  0  0  0  0  0  0  0  0  0
  -24.8800  -12.2230   20.8410 C   0  0  0  0  0  0  0  0  0  0  0  0
  -26.5720  -13.4740   20.4390 N   0  0  0  0  0  0  0  0  0  0  0  0
  -26.1960  -12.1890   20.6750 N   0  0  0  0  0  0  0  0  0  0  0  0
  -24.1420  -10.9560   20.9550 C   0  0  0  0  0  0  0  0  0  0  0  0
  -24.4920   -9.9770   21.9110 C   0  0  0  0  0  3  0  0  0  0  0  0
  -23.7550   -8.7790   22.0110 C   0  0  0  0  0  3  0  0  0  0  0  0
  -22.6520   -8.5480   21.1530 C   0  0  0  0  0  0  0  0  0  0  0  0
  -22.3240   -9.5150   20.1870 C   0  0  0  0  0  3  0  0  0  0  0  0
  -23.0620  -10.7060   20.0860 C   0  0  0  0  0  3  0  0  0  0  0  0
  -21.8940   -7.4030   21.1610 O   0  0  0  0  0  0  0  0  0  0  0  0
  -21.7530   -6.6420   22.2950 C   0  0  0  0  0  0  0  0  0  0  0  0
  -21.2200   -7.1770   23.4870 C   0  0  0  0  0  3  0  0  0  0  0  0
  -21.0250   -6.3440   24.6070 C   0  0  0  0  0  3  0  0  0  0  0  0
  -21.3550   -4.9760   24.5350 C   0  0  0  0  0  0  0  0  0  0  0  0
  -21.8780   -4.4410   23.3440 C   0  0  0  0  0  3  0  0  0  0  0  0
  -22.0740   -5.2710   22.2270 C   0  0  0  0  0  0  0  0  0  0  0  0
  -22.5600   -4.7460   21.0760 F   0  0  0  0  0  0  0  0  0  0  0  0
  -21.1600   -4.1720   25.6070 F   0  0  0  0  0  0  0  0  0  0  0  0
  -22.9900  -14.0450   20.9380 C   0  0  0  0  0  0  0  0  0  0  0  0
  -22.1780  -13.3530   21.7300 N   0  0  0  0  0  0  0  0  0  0  0  0
  -22.6070  -15.0610   20.3640 O   0  0  0  0  0  0  0  0  0  0  0  0
  -22.4980  -12.5300   22.2180 H   0  0  0  0  0  0  0  0  0  0  0  0
  -21.2200  -13.6560   21.8510 H   0  0  0  0  0  0  0  0  0  0  0  0
  -25.6860  -15.7230   20.4110 N   0  0  0  0  0  0  0  0  0  0  0  0
  -24.9150  -16.3810   20.4620 H   0  0  0  0  0  0  0  0  0  0  0  0
  -26.5670  -16.1600   20.1790 H   0  0  0  0  0  0  0  0  0  0  0  0
  1  4  1  0
  2  5  2  0
  2  3  1  0
  3  1  2  0
  4  8  1  0
  5  6  1  0
  6  4  2  0
  6  9  1  0
  8  7  1  0
  9 10  1  0
 11 13  1  0
 11  5  1  0
 12 23  2  0
 13 18  1  0
 14 22  1  0
 14 24  1  0
 15 21  1  0
 15 17  1  0
 16 22  1  0
 17 16  1  0
 18 17  2  0
 19 20  1  0
 19 13  2  0
 20 15  2  0
 21 14  1  0
 22 12  1  0
 24 26  2  0
 25 24  1  0
 27 25  1  0
 28 37  2  0
 28 33  1  0
 29 25  1  0
 29 33  1  0
 30 29  1  0
 31 32  1  0
 31 30  1  0
 32 28  1  0
 33 34  2  0
 34 35  1  0
 36 35  2  0
 37 36  1  0
 38 12  1  0
 38 39  1  0
 38 48  1  0
 39 42  1  0
 40 44  1  0
 40 39  1  0
 41 40  2  0
 44 43  1  0
 46 44  1  0
 46 47  1  0
 46 45  1  0
 48 51  1  1
 48 49  1  0
 50 48  1  0
 52  3  1  0
 52 53  2  0
 54 53  1  0
 54 55  2  0
 56 55  1  0
 57 62  1  0
 58 59  1  0
 58 57  1  0
 60 59  1  0
 60 67  1  0
 60 61  1  0
 62 56  1  0
 62 61  1  0
 63 56  2  0
 64 65  2  0
 65 66  1  0
 65 84  1  0
 66 69  1  0
 67 64  1  0
 67 68  1  0
 68 66  2  0
 69 70  1  0
 70 71  2  0
 72 75  1  0
 72 71  1  0
 73 72  2  0
 74 73  1  0
 74 69  2  0
 75 76  1  0
 76 77  1  0
 77 78  2  0
 79 78  1  0
 79 83  1  0
 80 79  2  0
 81 76  2  0
 81 80  1  0
 82 81  1  0
 84 85  1  0
 85 88  1  0
 85 87  1  0
 86 84  2  0
 89 90  1  0
 89 64  1  0
 91 89  1  0
M  ISO  4   5 101  11 101  55 100  56 100
M  END
>  <TORSDO>  (50) 
F 22

>  <SCORE>  (50) 
-11.950

>  <name>  (50) 
49

>  <ligand_id>  (50) 
49

>  <original_smiles>  (50) 
[H]Oc1c(Oc2c([H])c([H])c3c(c2[H])C([H])([H])N(C(=O)C([H])(N([H])C(=O)C([H])(N([H])C([H])([H])[H])C([H])([H])[H])C(C([H])([H])[H])(C([H])([H])[H])C([H])([H])[H])C([H])(C(=O)N([H])C2([H])c4c([H])c([H])c([H])c([H])c4C([H])([H])C([H])([H])C2([H])[H])C3([H])[H])c([H])c(C([H])([H])C([H])([H])C([H])([H])C([H])([H])C(=O)N2C([H])([H])C([H])([H])C([H])([H])C([H])(n3nc(-c4c([H])c([H])c(Oc5c([H])c([H])c(F)c([H])c5F)c([H])c4[H])c(C(=O)N([H])[H])c3N([H])[H])C2([H])[H])c([H])c1C([H])([H])C([H])([H])[H]

>  <smiles>  (50) 
[H]Oc1c(Oc2c([H])c([H])c3c(c2[H])C([H])([H])N(C(=O)C([H])(N([H])C(=O)C([H])(N([H])C([H])([H])[H])C([H])([H])[H])C(C([H])([H])[H])(C([H])([H])[H])C([H])([H])[H])C([H])(C(=O)N([H])C2([H])c4c([H])c([H])c([H])c([H])c4C([H])([H])C([H])([H])C2([H])[H])C3([H])[H])c([H])c(C([H])([H])C([H])([H])C([H])([H])C([H])([H])C(=O)N2C([H])([H])C([H])([H])C([H])([H])C([H])(n3nc(-c4c([H])c([H])c(Oc5c([H])c([H])c(F)c([H])c5F)c([H])c4[H])c(C(=O)N([H])[H])c3N([H])[H])C2([H])[H])c([H])c1C([H])([H])C([H])([H])[H]

$$$$
50:0:0
     RDKit          3D

 92101  0  0  1  0  0  0  0  0999 V2000
  -28.6490  -22.0740   20.0210 C   0  0  0  0  0  3  0  0  0  0  0  0
  -30.3030  -23.8530   19.9930 C   0  0  0  0  0  3  0  0  0  0  0  0
  -29.6590  -20.9980   19.9870 C   0  0  0  0  0  0  0  0  0  0  0  0
  -28.9400  -23.5250   20.0260 C   0  0  0  0  0  0  0  0  0  0  0  0
  -31.3110  -22.8620   19.9330 C   0  0  0  0  0  0  0  0  0  0  0  0
  -31.0060  -21.4670   19.8990 C   0  0  0  0  0  0  0  0  0  0  0  0
  -32.7530  -23.3450   19.9090 C   0  0  0  0  0  1  0  0  0  0  0  0
  -32.1600  -20.4700   19.7470 C   0  0  0  0  0  1  0  0  0  0  0  0
  -30.6450  -14.9490   19.9830 C   0  0  0  0  0  0  0  0  0  0  0  0
  -30.4520  -12.6070   19.0790 C   0  0  0  0  0  2  0  0  0  0  0  0
  -29.4690  -12.5650   17.8900 C   0  0  0  0  0  2  0  0  0  0  0  0
  -28.0290  -12.3570   18.3930 C   0  0  0  0  0  2  0  0  0  0  0  0
  -27.6710  -13.2890   19.5800 C   0  0  0  0  0  3  0  0  0  0  0  0
  -28.7770  -13.3280   20.6560 C   0  0  0  0  0  2  0  0  0  0  0  0
  -30.0170  -13.7120   19.9750 N   0  0  0  0  0  0  0  0  0  0  0  0
  -31.8360  -14.9800   19.6520 O   0  0  0  0  0  0  0  0  0  0  0  0
  -29.8140  -18.6410   21.0990 C   0  0  0  0  0  3  0  0  0  0  0  0
  -29.4720  -19.4120   20.0250 C   0  0  0  0  0  0  0  0  0  0  0  0
  -29.8710  -17.0610   21.2230 C   0  0  0  0  0  2  0  0  0  0  0  0
  -29.1740  -18.5010   18.8180 C   0  0  0  0  0  3  0  0  0  0  0  0
  -29.8650  -17.0470   18.7870 C   0  0  0  0  0  3  0  0  0  0  0  0
  -29.9050  -16.1660   20.0100 N   0  0  0  0  0  0  0  0  0  0  0  0
  -25.3380  -13.8460   20.4740 C   0  0  0  0  0  0  0  0  0  0  0  0
  -24.2940  -13.0600   20.8730 C   0  0  0  0  0  0  0  0  0  0  0  0
  -24.7520  -11.7090   20.7710 C   0  0  0  0  0  0  0  0  0  0  0  0
  -26.3640  -12.9750   20.1450 N   0  0  0  0  0  0  0  0  0  0  0  0
  -26.0240  -11.6830   20.3910 N   0  0  0  0  0  0  0  0  0  0  0  0
  -24.0330  -10.4430   20.9560 C   0  0  0  0  0  0  0  0  0  0  0  0
  -24.4670   -9.4740   21.8890 C   0  0  0  0  0  3  0  0  0  0  0  0
  -23.7460   -8.2730   22.0630 C   0  0  0  0  0  3  0  0  0  0  0  0
  -22.5750   -8.0310   21.3060 C   0  0  0  0  0  0  0  0  0  0  0  0
  -22.1600   -8.9880   20.3620 C   0  0  0  0  0  3  0  0  0  0  0  0
  -22.8820  -10.1800   20.1860 C   0  0  0  0  0  3  0  0  0  0  0  0
  -21.8240   -6.8840   21.3900 O   0  0  0  0  0  0  0  0  0  0  0  0
  -21.7150   -6.1790   22.5620 C   0  0  0  0  0  0  0  0  0  0  0  0
  -21.1580   -6.7510   23.7260 C   0  0  0  0  0  3  0  0  0  0  0  0
  -21.0030   -5.9700   24.8890 C   0  0  0  0  0  3  0  0  0  0  0  0
  -21.3940   -4.6170   24.8860 C   0  0  0  0  0  0  0  0  0  0  0  0
  -21.9430   -4.0450   23.7250 C   0  0  0  0  0  3  0  0  0  0  0  0
  -22.1000   -4.8240   22.5660 C   0  0  0  0  0  0  0  0  0  0  0  0
  -22.6110   -4.2610   21.4440 F   0  0  0  0  0  0  0  0  0  0  0  0
  -21.2370   -3.8630   26.0000 F   0  0  0  0  0  0  0  0  0  0  0  0
  -22.9140  -13.5290   21.2330 C   0  0  0  0  0  0  0  0  0  0  0  0
  -22.2360  -12.8130   22.1230 N   0  0  0  0  0  0  0  0  0  0  0  0
  -22.4490  -14.5650   20.7620 O   0  0  0  0  0  0  0  0  0  0  0  0
  -22.6260  -11.9730   22.5240 H   0  0  0  0  0  0  0  0  0  0  0  0
  -21.3140  -13.1090   22.4080 H   0  0  0  0  0  0  0  0  0  0  0  0
  -25.4990  -15.2220   20.3370 N   0  0  0  0  0  0  0  0  0  0  0  0
  -24.7500  -15.8780   20.5250 H   0  0  0  0  0  0  0  0  0  0  0  0
  -26.3470  -15.6690   20.0120 H   0  0  0  0  0  0  0  0  0  0  0  0
  -27.8650  -24.7480   20.0340 C   0  0  0  0  0  2  0  0  0  0  0  0
  -28.2040  -26.2460   20.1870 O   0  0  0  0  0  0  0  0  0  0  0  0
  -24.6700  -31.9100   23.2600 C   0  0  0  0  0  0  0  0  0  0  0  0
  -27.1530  -27.2240   20.1470 C   0  0  0  0  0  0  0  0  0  0  0  0
  -23.4280  -30.5390   21.6330 C   0  0  0  0  0  3  0  0  0  0  0  0
  -24.8350  -28.9680   20.1720 C   0  0  0  0  0  0  0  0  0  0  0  0
  -25.9790  -30.7910   21.4210 C   0  0  0  0  0  2  0  0  0  0  0  0
  -26.0290  -29.4060   20.7600 C   0  0  0  0  0  0  0  0  0  0  0  0
  -27.1900  -28.5500   20.7310 C   0  0  0  0  0  3  0  0  0  0  0  0
  -25.9300  -26.8830   19.5270 C   0  0  0  0  0  3  0  0  0  0  0  0
  -24.7970  -27.7180   19.5410 C   0  0  0  0  0  3  0  0  0  0  0  0
  -23.6170  -29.8710   20.2450 C   0  0  0  0  0  2  0  0  0  0  0  0
  -24.7140  -31.1000   22.1600 N   0  0  0  0  0  0  0  0  0  0  0  0
  -23.5950  -32.2010   23.8090 O   0  0  0  0  0  0  0  0  0  0  0  0
  -22.7580  -29.5290   22.5980 C   0  0  0  0  0  0  0  0  0  0  0  0
  -21.4340  -29.3310   22.4570 N   0  0  0  0  0  0  0  0  0  0  0  0
  -23.4310  -28.9250   23.4370 O   0  0  0  0  0  0  0  0  0  0  0  0
  -20.9460  -29.8730   21.7580 H   0  0  0  0  0  0  0  0  0  0  0  0
  -18.0740  -28.0590   22.9150 C   0  0  0  0  0  0  0  0  0  0  0  0
  -20.6200  -28.3900   23.2300 C   0  0  0  0  0  3  0  0  0  0  0  0
  -20.7670  -26.9480   22.6900 C   0  0  0  0  0  2  0  0  0  0  0  0
  -19.6960  -26.5760   21.6600 C   0  0  0  0  0  2  0  0  0  0  0  0
  -18.2970  -26.7010   22.2700 C   0  0  0  0  0  2  0  0  0  0  0  0
  -19.1640  -28.8580   23.3520 C   0  0  0  0  0  0  0  0  0  0  0  0
  -18.9010  -30.1260   23.9140 C   0  0  0  0  0  3  0  0  0  0  0  0
  -17.5810  -30.5960   24.0440 C   0  0  0  0  0  3  0  0  0  0  0  0
  -16.5050  -29.7960   23.6210 C   0  0  0  0  0  3  0  0  0  0  0  0
  -16.7520  -28.5290   23.0640 C   0  0  0  0  0  3  0  0  0  0  0  0
  -25.9640  -32.5290   23.8700 C   0  0  0  0  0  3  0  0  0  0  0  0
  -25.6710  -33.9270   24.2230 N   0  0  0  0  0  0  0  0  0  0  0  0
  -25.9520  -34.9840   23.4500 C   0  0  0  0  0  0  0  0  0  0  0  0
  -26.5560  -34.8870   22.3780 O   0  0  0  0  0  0  0  0  0  0  0  0
  -25.1300  -34.0760   25.0620 H   0  0  0  0  0  0  0  0  0  0  0  0
  -24.1890  -36.7660   23.2360 C   0  0  0  0  0  1  0  0  0  0  0  0
  -25.4940  -36.3710   23.9450 C   0  0  0  0  0  3  0  0  0  0  0  0
  -27.6730  -37.2840   24.6110 C   0  0  0  0  0  1  0  0  0  0  0  0
  -26.5060  -37.4320   23.7460 N   0  0  0  0  0  0  0  0  0  0  0  0
  -26.1020  -38.3500   23.9110 H   0  0  0  0  0  0  0  0  0  0  0  0
  -26.4900  -31.7430   25.1340 C   0  0  1  0  0  0  0  0  0  0  0  0
  -25.4080  -31.5000   26.2130 C   0  0  0  0  0  1  0  0  0  0  0  0
  -27.0640  -30.3660   24.7250 C   0  0  0  0  0  1  0  0  0  0  0  0
  -27.6540  -32.5250   25.7890 C   0  0  0  0  0  1  0  0  0  0  0  0
  1  4  1  0
  2  4  2  0
  3  1  2  0
  3 18  1  0
  4 51  1  0
  5  2  1  0
  6  5  2  0
  6  3  1  0
  7  5  1  0
  8  6  1  0
  9 22  1  0
 10 15  1  0
 11 12  1  0
 11 10  1  0
 13 12  1  0
 13 26  1  0
 13 14  1  0
 15  9  1  0
 15 14  1  0
 16  9  2  0
 17 19  1  0
 18 17  2  0
 20 18  1  0
 21 20  2  0
 21 22  1  0
 22 19  1  0
 23 24  2  0
 24 43  1  0
 25 24  1  0
 25 28  1  0
 26 27  1  0
 26 23  1  0
 27 25  2  0
 28 29  1  0
 29 30  2  0
 31 34  1  0
 31 30  1  0
 32 31  2  0
 33 32  1  0
 33 28  2  0
 34 35  1  0
 35 40  2  0
 35 36  1  0
 36 37  2  0
 38 37  1  0
 38 42  1  0
 39 38  2  0
 40 39  1  0
 41 40  1  0
 43 44  1  0
 44 47  1  0
 44 46  1  0
 45 43  2  0
 48 23  1  0
 48 49  1  0
 50 48  1  0
 51 52  1  0
 53 64  2  0
 54 52  1  0
 54 59  1  0
 55 63  1  0
 55 65  1  0
 56 62  1  0
 56 58  1  0
 57 63  1  0
 58 57  1  0
 59 58  2  0
 60 61  1  0
 60 54  2  0
 61 56  2  0
 62 55  1  0
 63 53  1  0
 65 67  2  0
 66 65  1  0
 68 66  1  0
 69 78  2  0
 69 74  1  0
 70 66  1  0
 70 74  1  0
 71 70  1  0
 72 73  1  0
 72 71  1  0
 73 69  1  0
 74 75  2  0
 75 76  1  0
 77 76  2  0
 78 77  1  0
 79 53  1  0
 79 80  1  0
 79 89  1  0
 80 83  1  0
 81 85  1  0
 81 80  1  0
 82 81  2  0
 85 84  1  0
 87 88  1  0
 87 85  1  0
 87 86  1  0
 89 92  1  1
 89 90  1  0
 91 89  1  0
M  ISO  4   9 100  22 100  51 101  52 101
M  END
>  <TORSDO>  (51) 
F 17

>  <SCORE>  (51) 
-14.963

>  <name>  (51) 
50

>  <ligand_id>  (51) 
50

>  <original_smiles>  (51) 
[H]C1=C(c2c([H])c(C([H])([H])Oc3c([H])c([H])c4c(c3[H])C([H])([H])N(C(=O)C([H])(N([H])C(=O)C([H])(N([H])C([H])([H])[H])C([H])([H])[H])C(C([H])([H])[H])(C([H])([H])[H])C([H])([H])[H])C([H])(C(=O)N([H])C3([H])c5c([H])c([H])c([H])c([H])c5C([H])([H])C([H])([H])C3([H])[H])C4([H])[H])c([H])c(C([H])([H])[H])c2C([H])([H])[H])C([H])([H])C([H])([H])N(C(=O)N2C([H])([H])C([H])([H])C([H])([H])C([H])(n3nc(-c4c([H])c([H])c(Oc5c([H])c([H])c(F)c([H])c5F)c([H])c4[H])c(C(=O)N([H])[H])c3N([H])[H])C2([H])[H])C1([H])[H]

>  <smiles>  (51) 
[H]C1=C(c2c([H])c(C([H])([H])Oc3c([H])c([H])c4c(c3[H])C([H])([H])N(C(=O)C([H])(N([H])C(=O)C([H])(N([H])C([H])([H])[H])C([H])([H])[H])C(C([H])([H])[H])(C([H])([H])[H])C([H])([H])[H])C([H])(C(=O)N([H])C3([H])c5c([H])c([H])c([H])c([H])c5C([H])([H])C([H])([H])C3([H])[H])C4([H])[H])c([H])c(C([H])([H])[H])c2C([H])([H])[H])C([H])([H])C([H])([H])N(C(=O)N2C([H])([H])C([H])([H])C([H])([H])C([H])(n3nc(-c4c([H])c([H])c(Oc5c([H])c([H])c(F)c([H])c5F)c([H])c4[H])c(C(=O)N([H])[H])c3N([H])[H])C2([H])[H])C1([H])[H]

$$$$
51:0:0
     RDKit          3D

 92101  0  0  1  0  0  0  0  0999 V2000
  -29.3390  -23.2420   19.4190 C   0  0  0  0  0  3  0  0  0  0  0  0
  -29.2150  -24.6200   19.1210 C   0  0  0  0  0  3  0  0  0  0  0  0
  -27.8410  -24.9270   21.0860 C   0  0  0  0  0  3  0  0  0  0  0  0
  -28.7010  -22.6720   20.5480 C   0  0  0  0  0  0  0  0  0  0  0  0
  -27.9580  -23.5460   21.3900 C   0  0  0  0  0  0  0  0  0  0  0  0
  -28.4590  -25.4810   19.9430 C   0  0  0  0  0  0  0  0  0  0  0  0
  -27.2720  -23.0300   22.6460 C   0  0  0  0  0  1  0  0  0  0  0  0
  -28.8140  -21.2110   20.8550 C   0  0  0  0  0  3  0  0  0  0  0  0
  -29.6500  -20.2890   20.3160 C   0  0  0  0  0  3  0  0  0  0  0  0
  -30.8950  -14.7320   20.0150 C   0  0  0  0  0  0  0  0  0  0  0  0
  -30.5400  -12.5270   18.9460 C   0  0  0  0  0  2  0  0  0  0  0  0
  -29.5250  -12.6480   17.7930 C   0  0  0  0  0  2  0  0  0  0  0  0
  -28.0900  -12.4530   18.3180 C   0  0  0  0  0  2  0  0  0  0  0  0
  -27.7890  -13.3310   19.5590 C   0  0  0  0  0  3  0  0  0  0  0  0
  -28.9230  -13.2460   20.6110 C   0  0  0  0  0  2  0  0  0  0  0  0
  -30.1970  -13.5570   19.9420 N   0  0  0  0  0  0  0  0  0  0  0  0
  -32.0430  -14.8330   19.5750 O   0  0  0  0  0  0  0  0  0  0  0  0
  -29.2280  -17.9380   19.4520 C   0  0  0  0  0  2  0  0  0  0  0  0
  -30.9790  -18.2270   21.1430 C   0  0  0  0  0  2  0  0  0  0  0  0
  -29.1140  -16.4340   19.7890 C   0  0  0  0  0  2  0  0  0  0  0  0
  -30.9010  -16.7170   21.5160 C   0  0  0  0  0  2  0  0  0  0  0  0
  -29.6310  -18.7880   20.6580 C   0  0  0  0  0  3  0  0  0  0  0  0
  -30.2580  -15.8350   20.5120 N   0  0  0  0  0  0  0  0  0  0  0  0
  -25.4660  -13.9350   20.4730 C   0  0  0  0  0  0  0  0  0  0  0  0
  -24.4200  -13.1570   20.8850 C   0  0  0  0  0  0  0  0  0  0  0  0
  -24.8660  -11.8050   20.7700 C   0  0  0  0  0  0  0  0  0  0  0  0
  -26.4820  -13.0520   20.1340 N   0  0  0  0  0  0  0  0  0  0  0  0
  -26.1310  -11.7650   20.3750 N   0  0  0  0  0  0  0  0  0  0  0  0
  -24.1450  -10.5420   20.9590 C   0  0  0  0  0  0  0  0  0  0  0  0
  -24.5620   -9.5930   21.9160 C   0  0  0  0  0  3  0  0  0  0  0  0
  -23.8440   -8.3910   22.0890 C   0  0  0  0  0  3  0  0  0  0  0  0
  -22.6940   -8.1330   21.3060 C   0  0  0  0  0  0  0  0  0  0  0  0
  -22.2970   -9.0710   20.3370 C   0  0  0  0  0  3  0  0  0  0  0  0
  -23.0170  -10.2650   20.1610 C   0  0  0  0  0  3  0  0  0  0  0  0
  -21.9490   -6.9820   21.3880 O   0  0  0  0  0  0  0  0  0  0  0  0
  -21.7860   -6.3150   22.5760 C   0  0  0  0  0  0  0  0  0  0  0  0
  -21.1620   -6.9170   23.6910 C   0  0  0  0  0  3  0  0  0  0  0  0
  -20.9540   -6.1720   24.8690 C   0  0  0  0  0  3  0  0  0  0  0  0
  -21.3580   -4.8240   24.9310 C   0  0  0  0  0  0  0  0  0  0  0  0
  -21.9730   -4.2210   23.8200 C   0  0  0  0  0  3  0  0  0  0  0  0
  -22.1840   -4.9650   22.6460 C   0  0  0  0  0  0  0  0  0  0  0  0
  -22.7590   -4.3720   21.5710 F   0  0  0  0  0  0  0  0  0  0  0  0
  -21.1490   -4.1060   26.0590 F   0  0  0  0  0  0  0  0  0  0  0  0
  -23.0500  -13.6340   21.2690 C   0  0  0  0  0  0  0  0  0  0  0  0
  -22.3710  -12.9060   22.1480 N   0  0  0  0  0  0  0  0  0  0  0  0
  -22.5920  -14.6870   20.8260 O   0  0  0  0  0  0  0  0  0  0  0  0
  -22.7540  -12.0540   22.5300 H   0  0  0  0  0  0  0  0  0  0  0  0
  -21.4530  -13.2060   22.4440 H   0  0  0  0  0  0  0  0  0  0  0  0
  -25.6260  -15.3110   20.3340 N   0  0  0  0  0  0  0  0  0  0  0  0
  -24.8730  -15.9610   20.5260 H   0  0  0  0  0  0  0  0  0  0  0  0
  -26.4530  -15.7600   19.9620 H   0  0  0  0  0  0  0  0  0  0  0  0
  -28.4040  -26.8360   19.6540 O   0  0  0  0  0  0  0  0  0  0  0  0
  -24.5990  -31.8070   23.0950 C   0  0  0  0  0  0  0  0  0  0  0  0
  -27.2190  -27.5390   19.7480 C   0  0  0  0  0  0  0  0  0  0  0  0
  -23.3740  -30.4880   21.3980 C   0  0  0  0  0  3  0  0  0  0  0  0
  -24.8140  -29.0320   19.8730 C   0  0  0  0  0  0  0  0  0  0  0  0
  -25.8950  -30.8680   21.1820 C   0  0  0  0  0  2  0  0  0  0  0  0
  -25.9770  -29.5300   20.4740 C   0  0  0  0  0  0  0  0  0  0  0  0
  -27.1810  -28.7900   20.4100 C   0  0  0  0  0  3  0  0  0  0  0  0
  -26.0400  -27.0570   19.1390 C   0  0  0  0  0  3  0  0  0  0  0  0
  -24.8400  -27.7940   19.2040 C   0  0  0  0  0  3  0  0  0  0  0  0
  -23.5670  -29.8820   19.9820 C   0  0  0  0  0  2  0  0  0  0  0  0
  -24.6410  -31.0680   21.9500 N   0  0  0  0  0  0  0  0  0  0  0  0
  -23.5250  -32.0450   23.6650 O   0  0  0  0  0  0  0  0  0  0  0  0
  -22.7410  -29.4160   22.3130 C   0  0  0  0  0  0  0  0  0  0  0  0
  -21.4150  -29.2400   22.2010 N   0  0  0  0  0  0  0  0  0  0  0  0
  -23.4410  -28.7450   23.0770 O   0  0  0  0  0  0  0  0  0  0  0  0
  -20.9110  -29.8350   21.5570 H   0  0  0  0  0  0  0  0  0  0  0  0
  -18.0420  -28.0670   22.7530 C   0  0  0  0  0  0  0  0  0  0  0  0
  -20.6130  -28.2590   22.9320 C   0  0  0  0  0  3  0  0  0  0  0  0
  -20.6630  -26.8770   22.2420 C   0  0  0  0  0  2  0  0  0  0  0  0
  -19.5120  -26.6530   21.2540 C   0  0  0  0  0  2  0  0  0  0  0  0
  -18.1620  -26.7720   21.9680 C   0  0  0  0  0  2  0  0  0  0  0  0
  -19.1930  -28.7740   23.1910 C   0  0  0  0  0  0  0  0  0  0  0  0
  -19.0260  -29.9910   23.8860 C   0  0  0  0  0  3  0  0  0  0  0  0
  -17.7400  -30.5010   24.1460 C   0  0  0  0  0  3  0  0  0  0  0  0
  -16.6040  -29.7900   23.7230 C   0  0  0  0  0  3  0  0  0  0  0  0
  -16.7560  -28.5750   23.0330 C   0  0  0  0  0  3  0  0  0  0  0  0
  -25.8920  -32.4100   23.7280 C   0  0  0  0  0  3  0  0  0  0  0  0
  -25.5900  -33.7940   24.1190 N   0  0  0  0  0  0  0  0  0  0  0  0
  -25.9020  -34.8740   23.3900 C   0  0  0  0  0  0  0  0  0  0  0  0
  -26.5450  -34.8100   22.3380 O   0  0  0  0  0  0  0  0  0  0  0  0
  -25.0160  -33.9180   24.9390 H   0  0  0  0  0  0  0  0  0  0  0  0
  -24.1620  -36.6720   23.1450 C   0  0  0  0  0  1  0  0  0  0  0  0
  -25.4240  -36.2440   23.9090 C   0  0  0  0  0  3  0  0  0  0  0  0
  -27.5710  -37.1110   24.7250 C   0  0  0  0  0  1  0  0  0  0  0  0
  -26.4510  -37.3030   23.8070 N   0  0  0  0  0  0  0  0  0  0  0  0
  -26.0450  -38.2170   23.9880 H   0  0  0  0  0  0  0  0  0  0  0  0
  -26.4220  -31.5860   24.9660 C   0  0  1  0  0  0  0  0  0  0  0  0
  -25.3390  -31.3010   26.0320 C   0  0  0  0  0  1  0  0  0  0  0  0
  -27.0010  -30.2270   24.5080 C   0  0  0  0  0  1  0  0  0  0  0  0
  -27.5790  -32.3520   25.6500 C   0  0  0  0  0  1  0  0  0  0  0  0
  1  4  1  0
  2  1  2  0
  2  6  1  0
  3  5  1  0
  4  8  1  0
  4  5  2  0
  5  7  1  0
  6  3  2  0
  9  8  2  0
 10 23  1  0
 11 16  1  0
 12 13  1  0
 12 11  1  0
 14 13  1  0
 14 27  1  0
 14 15  1  0
 16 10  1  0
 16 15  1  0
 17 10  2  0
 18 20  1  0
 18 22  1  0
 19 21  1  0
 20 23  1  0
 22  9  1  0
 22 19  1  0
 23 21  1  0
 24 25  2  0
 25 44  1  0
 26 25  1  0
 26 29  1  0
 27 28  1  0
 27 24  1  0
 28 26  2  0
 29 30  1  0
 30 31  2  0
 32 35  1  0
 32 31  1  0
 33 32  2  0
 34 33  1  0
 34 29  2  0
 35 36  1  0
 36 41  2  0
 36 37  1  0
 37 38  2  0
 38 39  1  0
 39 43  1  0
 40 39  2  0
 41 40  1  0
 42 41  1  0
 44 45  1  0
 45 48  1  0
 45 47  1  0
 46 44  2  0
 49 24  1  0
 49 50  1  0
 51 49  1  0
 52 54  1  0
 52  6  1  0
 53 64  2  0
 54 59  1  0
 55 63  1  0
 55 65  1  0
 56 62  1  0
 56 58  1  0
 57 63  1  0
 58 57  1  0
 59 58  2  0
 60 61  1  0
 60 54  2  0
 61 56  2  0
 62 55  1  0
 63 53  1  0
 65 67  2  0
 66 65  1  0
 68 66  1  0
 69 78  2  0
 69 74  1  0
 70 66  1  0
 70 74  1  0
 71 70  1  0
 72 73  1  0
 72 71  1  0
 73 69  1  0
 74 75  2  0
 75 76  1  0
 77 76  2  0
 78 77  1  0
 79 53  1  0
 79 80  1  0
 79 89  1  0
 80 83  1  0
 81 85  1  0
 81 80  1  0
 82 81  2  0
 85 84  1  0
 87 85  1  0
 87 88  1  0
 87 86  1  0
 89 92  1  1
 89 90  1  0
 91 89  1  0
M  ISO  4   6 101  10 100  23 100  52 101
M  END
>  <TORSDO>  (52) 
F 17

>  <SCORE>  (52) 
-13.763

>  <name>  (52) 
51

>  <ligand_id>  (52) 
51

>  <original_smiles>  (52) 
[H]C(=C([H])C1([H])C([H])([H])C([H])([H])N(C(=O)N2C([H])([H])C([H])([H])C([H])([H])C([H])(n3nc(-c4c([H])c([H])c(Oc5c([H])c([H])c(F)c([H])c5F)c([H])c4[H])c(C(=O)N([H])[H])c3N([H])[H])C2([H])[H])C([H])([H])C1([H])[H])c1c([H])c([H])c(Oc2c([H])c([H])c3c(c2[H])C([H])([H])N(C(=O)C([H])(N([H])C(=O)C([H])(N([H])C([H])([H])[H])C([H])([H])[H])C(C([H])([H])[H])(C([H])([H])[H])C([H])([H])[H])C([H])(C(=O)N([H])C2([H])c4c([H])c([H])c([H])c([H])c4C([H])([H])C([H])([H])C2([H])[H])C3([H])[H])c([H])c1C([H])([H])[H]

>  <smiles>  (52) 
[H]C(=C([H])C1([H])C([H])([H])C([H])([H])N(C(=O)N2C([H])([H])C([H])([H])C([H])([H])C([H])(n3nc(-c4c([H])c([H])c(Oc5c([H])c([H])c(F)c([H])c5F)c([H])c4[H])c(C(=O)N([H])[H])c3N([H])[H])C2([H])[H])C([H])([H])C1([H])[H])c1c([H])c([H])c(Oc2c([H])c([H])c3c(c2[H])C([H])([H])N(C(=O)C([H])(N([H])C(=O)C([H])(N([H])C([H])([H])[H])C([H])([H])[H])C(C([H])([H])[H])(C([H])([H])[H])C([H])([H])[H])C([H])(C(=O)N([H])C2([H])c4c([H])c([H])c([H])c([H])c4C([H])([H])C([H])([H])C2([H])[H])C3([H])[H])c([H])c1C([H])([H])[H]

$$$$
52:0:0
     RDKit          3D

 92101  0  0  1  0  0  0  0  0999 V2000
  -29.4030  -20.7590   20.0920 C   0  0  0  0  0  3  0  0  0  0  0  0
  -29.2560  -22.0200   20.6770 C   0  0  0  0  0  0  0  0  0  0  0  0
  -29.5910  -21.7880   22.1410 C   0  0  0  0  0  2  0  0  0  0  0  0
  -29.7570  -20.2210   22.3500 C   0  0  0  0  0  2  0  0  0  0  0  0
  -29.9460  -19.5100   20.9740 C   0  0  0  0  0  3  0  0  0  0  0  0
  -28.0770  -18.0310   20.4480 C   0  0  0  0  0  3  0  0  0  0  0  0
  -27.6700  -17.3730   19.2790 C   0  0  0  0  0  3  0  0  0  0  0  0
  -30.1080  -16.6470   20.4840 C   0  0  0  0  0  0  0  0  0  0  0  0
  -29.4160  -17.9390   20.8810 C   0  0  0  0  0  0  0  0  0  0  0  0
  -28.6100  -16.6410   18.5370 C   0  0  0  0  0  0  0  0  0  0  0  0
  -29.8630  -16.3240   19.1170 C   0  0  0  0  0  0  0  0  0  0  0  0
  -28.2350  -16.1820   17.1380 C   0  0  0  0  0  1  0  0  0  0  0  0
  -30.9430  -15.6660   18.2540 C   0  0  0  0  0  1  0  0  0  0  0  0
  -30.8130  -15.4320   21.3090 C   0  0  0  0  0  0  0  0  0  0  0  0
  -30.9770  -12.9590   20.7180 C   0  0  0  0  0  2  0  0  0  0  0  0
  -30.2560  -12.6140   19.3920 C   0  0  0  0  0  2  0  0  0  0  0  0
  -28.7500  -12.3890   19.6060 C   0  0  0  0  0  2  0  0  0  0  0  0
  -28.1070  -13.4390   20.5480 C   0  0  0  0  0  3  0  0  0  0  0  0
  -28.9640  -13.7060   21.7980 C   0  0  0  0  0  2  0  0  0  0  0  0
  -30.2930  -14.1300   21.3380 N   0  0  0  0  0  0  0  0  0  0  0  0
  -32.0360  -15.5200   21.4710 O   0  0  0  0  0  0  0  0  0  0  0  0
  -25.6470  -13.9560   21.0170 C   0  0  0  0  0  0  0  0  0  0  0  0
  -24.5570  -13.1550   21.2130 C   0  0  0  0  0  0  0  0  0  0  0  0
  -25.0460  -11.8130   21.1970 C   0  0  0  0  0  0  0  0  0  0  0  0
  -26.7280  -13.1030   20.8780 N   0  0  0  0  0  0  0  0  0  0  0  0
  -26.3670  -11.8060   21.0610 N   0  0  0  0  0  0  0  0  0  0  0  0
  -24.3240  -10.5350   21.2440 C   0  0  0  0  0  0  0  0  0  0  0  0
  -24.6650   -9.5270   22.1720 C   0  0  0  0  0  3  0  0  0  0  0  0
  -23.9410   -8.3150   22.2100 C   0  0  0  0  0  3  0  0  0  0  0  0
  -22.8630   -8.1050   21.3190 C   0  0  0  0  0  0  0  0  0  0  0  0
  -22.5430   -9.1020   20.3820 C   0  0  0  0  0  3  0  0  0  0  0  0
  -23.2680  -10.3050   20.3400 C   0  0  0  0  0  3  0  0  0  0  0  0
  -22.1190   -6.9500   21.2670 O   0  0  0  0  0  0  0  0  0  0  0  0
  -21.9500   -6.1540   22.3710 C   0  0  0  0  0  0  0  0  0  0  0  0
  -21.3750   -6.6450   23.5640 C   0  0  0  0  0  3  0  0  0  0  0  0
  -21.1560   -5.7750   24.6500 C   0  0  0  0  0  3  0  0  0  0  0  0
  -21.5010   -4.4140   24.5450 C   0  0  0  0  0  0  0  0  0  0  0  0
  -22.0680   -3.9220   23.3550 C   0  0  0  0  0  3  0  0  0  0  0  0
  -22.2890   -4.7890   22.2710 C   0  0  0  0  0  0  0  0  0  0  0  0
  -22.8160   -4.3050   21.1210 F   0  0  0  0  0  0  0  0  0  0  0  0
  -21.2830   -3.5760   25.5850 F   0  0  0  0  0  0  0  0  0  0  0  0
  -23.1280  -13.6040   21.3080 C   0  0  0  0  0  0  0  0  0  0  0  0
  -22.3060  -12.8770   22.0550 N   0  0  0  0  0  0  0  0  0  0  0  0
  -22.7440  -14.6350   20.7560 O   0  0  0  0  0  0  0  0  0  0  0  0
  -22.6270  -12.0430   22.5240 H   0  0  0  0  0  0  0  0  0  0  0  0
  -21.3420  -13.1580   22.1600 H   0  0  0  0  0  0  0  0  0  0  0  0
  -25.8040  -15.3330   20.9170 N   0  0  0  0  0  0  0  0  0  0  0  0
  -25.0190  -15.9720   20.9600 H   0  0  0  0  0  0  0  0  0  0  0  0
  -26.6850  -15.7980   20.7260 H   0  0  0  0  0  0  0  0  0  0  0  0
  -29.1050  -23.5580   20.0310 C   0  0  0  0  0  3  0  0  0  0  0  0
  -28.1600  -24.8930   20.5020 C   0  0  0  0  0  3  0  0  0  0  0  0
  -28.3600  -26.4090   20.1170 O   0  0  0  0  0  0  0  0  0  0  0  0
  -24.8270  -32.0310   23.4150 C   0  0  0  0  0  0  0  0  0  0  0  0
  -27.3080  -27.4060   20.1540 C   0  0  0  0  0  0  0  0  0  0  0  0
  -23.5910  -30.7240   21.7300 C   0  0  0  0  0  3  0  0  0  0  0  0
  -25.0020  -29.1920   20.2200 C   0  0  0  0  0  0  0  0  0  0  0  0
  -26.1480  -30.9620   21.5450 C   0  0  0  0  0  2  0  0  0  0  0  0
  -26.1960  -29.5960   20.8340 C   0  0  0  0  0  0  0  0  0  0  0  0
  -27.3510  -28.7220   20.7770 C   0  0  0  0  0  3  0  0  0  0  0  0
  -26.0890  -27.1120   19.5050 C   0  0  0  0  0  3  0  0  0  0  0  0
  -24.9640  -27.9660   19.5390 C   0  0  0  0  0  3  0  0  0  0  0  0
  -23.7880  -30.1050   20.3200 C   0  0  0  0  0  2  0  0  0  0  0  0
  -24.8770  -31.2590   22.2860 N   0  0  0  0  0  0  0  0  0  0  0  0
  -23.7520  -32.3040   23.9680 O   0  0  0  0  0  0  0  0  0  0  0  0
  -22.9100  -29.6850   22.6550 C   0  0  0  0  0  0  0  0  0  0  0  0
  -21.5850  -29.5050   22.5080 N   0  0  0  0  0  0  0  0  0  0  0  0
  -23.5780  -29.0430   23.4700 O   0  0  0  0  0  0  0  0  0  0  0  0
  -21.1020  -30.0760   21.8280 H   0  0  0  0  0  0  0  0  0  0  0  0
  -18.2180  -28.2280   22.9080 C   0  0  0  0  0  0  0  0  0  0  0  0
  -20.7640  -28.5380   23.2420 C   0  0  0  0  0  3  0  0  0  0  0  0
  -20.9090  -27.1190   22.6450 C   0  0  0  0  0  2  0  0  0  0  0  0
  -19.8380  -26.7920   21.5990 C   0  0  0  0  0  2  0  0  0  0  0  0
  -18.4400  -26.8960   22.2110 C   0  0  0  0  0  2  0  0  0  0  0  0
  -19.3100  -29.0060   23.3770 C   0  0  0  0  0  0  0  0  0  0  0  0
  -19.0480  -30.2520   23.9900 C   0  0  0  0  0  3  0  0  0  0  0  0
  -17.7290  -30.7190   24.1360 C   0  0  0  0  0  3  0  0  0  0  0  0
  -16.6520  -29.9390   23.6810 C   0  0  0  0  0  3  0  0  0  0  0  0
  -16.8970  -28.6950   23.0730 C   0  0  0  0  0  3  0  0  0  0  0  0
  -26.1200  -32.6240   24.0540 C   0  0  0  0  0  3  0  0  0  0  0  0
  -26.6400  -31.7870   25.2890 C   0  0  1  0  0  0  0  0  0  0  0  0
  -25.5570  -31.5170   26.3600 C   0  0  0  0  0  1  0  0  0  0  0  0
  -27.1980  -30.4190   24.8310 C   0  0  0  0  0  1  0  0  0  0  0  0
  -27.8110  -32.5330   25.9710 C   0  0  0  0  0  1  0  0  0  0  0  0
  -25.8260  -34.0060   24.4620 N   0  0  0  0  0  0  0  0  0  0  0  0
  -26.1750  -35.0990   23.7700 C   0  0  0  0  0  0  0  0  0  0  0  0
  -26.8460  -35.0470   22.7360 O   0  0  0  0  0  0  0  0  0  0  0  0
  -25.2310  -34.1210   25.2700 H   0  0  0  0  0  0  0  0  0  0  0  0
  -24.4760  -36.9410   23.5240 C   0  0  0  0  0  1  0  0  0  0  0  0
  -25.7100  -36.4660   24.3100 C   0  0  0  0  0  3  0  0  0  0  0  0
  -27.8570  -37.2670   25.1930 C   0  0  0  0  0  1  0  0  0  0  0  0
  -26.7600  -37.5080   24.2610 N   0  0  0  0  0  0  0  0  0  0  0  0
  -26.3680  -38.4240   24.4630 H   0  0  0  0  0  0  0  0  0  0  0  0
  1  2  2  0
  1  5  1  0
  2  3  1  0
  3  4  1  0
  5  9  1  0
  5  4  1  0
  6  9  1  0
  7  6  2  0
  8  9  2  3
  8 14  1  0
 10 11  2  0
 10  7  1  0
 11  8  1  0
 12 10  1  0
 13 11  1  0
 14 20  1  0
 14 21  2  0
 15 20  1  0
 16 17  1  0
 16 15  1  0
 18 17  1  0
 18 25  1  0
 18 19  1  0
 20 19  1  0
 22 23  2  0
 23 42  1  0
 24 23  1  0
 24 27  1  0
 25 22  1  0
 25 26  1  0
 26 24  2  0
 27 28  1  0
 28 29  2  0
 30 29  1  0
 31 30  2  0
 32 31  1  0
 32 27  2  0
 33 30  1  0
 33 34  1  0
 34 35  1  0
 35 36  2  0
 37 36  1  0
 37 41  1  0
 38 37  2  0
 39 34  2  0
 39 38  1  0
 40 39  1  0
 42 43  1  0
 43 46  1  0
 43 45  1  0
 44 42  2  0
 47 48  1  0
 47 22  1  0
 49 47  1  0
 50 51  2  0
 50  2  1  0
 52 54  1  0
 52 51  1  0
 53 64  2  0
 54 59  1  0
 55 63  1  0
 55 65  1  0
 56 62  1  0
 56 58  1  0
 57 63  1  0
 58 57  1  0
 59 58  2  0
 60 61  1  0
 60 54  2  0
 61 56  2  0
 62 55  1  0
 63 53  1  0
 65 67  2  0
 66 65  1  0
 68 66  1  0
 69 78  2  0
 69 74  1  0
 70 66  1  0
 70 74  1  0
 71 70  1  0
 72 73  1  0
 72 71  1  0
 73 69  1  0
 74 75  2  0
 75 76  1  0
 77 76  2  0
 78 77  1  0
 79 53  1  0
 79 84  1  0
 79 80  1  0
 80 83  1  1
 80 81  1  0
 82 80  1  0
 84 87  1  0
 85 89  1  0
 85 84  1  0
 86 85  2  0
 89 88  1  0
 91 89  1  0
 91 92  1  0
 91 90  1  0
M  ISO  4   8 100  14 100  51 101  52 101
M  END
>  <TORSDO>  (53) 
F 19

>  <SCORE>  (53) 
-8.127

>  <name>  (53) 
52

>  <ligand_id>  (53) 
52

>  <original_smiles>  (53) 
[H]C1=C(C([H])([H])C([H])([H])Oc2c([H])c([H])c3c(c2[H])C([H])([H])N(C(=O)C([H])(N([H])C(=O)C([H])(N([H])C([H])([H])[H])C([H])([H])[H])C(C([H])([H])[H])(C([H])([H])[H])C([H])([H])[H])C([H])(C(=O)N([H])C2([H])c4c([H])c([H])c([H])c([H])c4C([H])([H])C([H])([H])C2([H])[H])C3([H])[H])C([H])([H])C([H])([H])C1([H])c1c([H])c([H])c(C([H])([H])[H])c(C([H])([H])[H])c1C(=O)N1C([H])([H])C([H])([H])C([H])([H])C([H])(n2nc(-c3c([H])c([H])c(Oc4c([H])c([H])c(F)c([H])c4F)c([H])c3[H])c(C(=O)N([H])[H])c2N([H])[H])C1([H])[H]

>  <smiles>  (53) 
[H]C1=C(C([H])([H])C([H])([H])Oc2c([H])c([H])c3c(c2[H])C([H])([H])N(C(=O)C([H])(N([H])C(=O)C([H])(N([H])C([H])([H])[H])C([H])([H])[H])C(C([H])([H])[H])(C([H])([H])[H])C([H])([H])[H])C([H])(C(=O)N([H])C2([H])c4c([H])c([H])c([H])c([H])c4C([H])([H])C([H])([H])C2([H])[H])C3([H])[H])C([H])([H])C([H])([H])C1([H])c1c([H])c([H])c(C([H])([H])[H])c(C([H])([H])[H])c1C(=O)N1C([H])([H])C([H])([H])C([H])([H])C([H])(n2nc(-c3c([H])c([H])c(Oc4c([H])c([H])c(F)c([H])c4F)c([H])c3[H])c(C(=O)N([H])[H])c2N([H])[H])C1([H])[H]

$$$$
53:0:0
     RDKit          3D

 93102  0  0  1  0  0  0  0  0999 V2000
  -29.5300  -23.3240   19.9240 C   0  0  0  0  0  3  0  0  0  0  0  0
  -29.1220  -21.9800   19.8360 C   0  0  0  0  0  0  0  0  0  0  0  0
  -27.2060  -23.5840   19.9120 C   0  0  0  0  0  2  0  0  0  0  0  0
  -28.4310  -24.4510   20.3240 C   0  0  0  0  0  3  0  0  0  0  0  0
  -27.6060  -22.0440   20.0450 C   0  0  0  0  0  3  0  0  0  0  0  0
  -26.7860  -21.1400   19.1090 C   0  0  0  0  0  1  0  0  0  0  0  0
  -29.9450  -20.6380   19.3810 C   0  0  0  0  0  0  0  0  0  0  0  0
  -30.4890  -20.7230   18.2780 O   0  0  0  0  0  0  0  0  0  0  0  0
  -30.5690  -17.8460   19.5570 C   0  0  0  0  0  3  0  0  0  0  0  0
  -30.0950  -19.1650   21.5250 C   0  0  0  0  0  3  0  0  0  0  0  0
  -30.1890  -19.1890   20.1250 C   0  0  0  0  0  0  0  0  0  0  0  0
  -30.8920  -16.5780   20.3020 C   0  0  0  0  0  0  0  0  0  0  0  0
  -30.4610  -18.0320   22.2940 C   0  0  0  0  0  0  0  0  0  0  0  0
  -30.9230  -16.8050   21.7180 C   0  0  0  0  0  0  0  0  0  0  0  0
  -30.4010  -18.1950   23.8070 C   0  0  0  0  0  1  0  0  0  0  0  0
  -31.5710  -15.8070   22.6840 C   0  0  0  0  0  1  0  0  0  0  0  0
  -31.3840  -15.1450   19.6750 C   0  0  0  0  0  0  0  0  0  0  0  0
  -30.9780  -12.8440   18.6240 C   0  0  0  0  0  2  0  0  0  0  0  0
  -29.9440  -12.9170   17.4710 C   0  0  0  0  0  2  0  0  0  0  0  0
  -28.5100  -12.7770   18.0120 C   0  0  0  0  0  2  0  0  0  0  0  0
  -28.2770  -13.6700   19.2550 C   0  0  0  0  0  3  0  0  0  0  0  0
  -29.4150  -13.5540   20.2810 C   0  0  0  0  0  2  0  0  0  0  0  0
  -30.6750  -13.9270   19.6190 N   0  0  0  0  0  0  0  0  0  0  0  0
  -32.4980  -15.1190   19.1370 O   0  0  0  0  0  0  0  0  0  0  0  0
  -26.0500  -14.3920   20.2840 C   0  0  0  0  0  0  0  0  0  0  0  0
  -24.9600  -13.6860   20.7130 C   0  0  0  0  0  0  0  0  0  0  0  0
  -25.2920  -12.3060   20.5500 C   0  0  0  0  0  0  0  0  0  0  0  0
  -26.9740  -13.4470   19.8710 N   0  0  0  0  0  0  0  0  0  0  0  0
  -26.5370  -12.1820   20.1000 N   0  0  0  0  0  0  0  0  0  0  0  0
  -24.4740  -11.1000   20.7380 C   0  0  0  0  0  0  0  0  0  0  0  0
  -24.8560  -10.0780   21.6350 C   0  0  0  0  0  3  0  0  0  0  0  0
  -24.0400   -8.9390   21.8110 C   0  0  0  0  0  3  0  0  0  0  0  0
  -22.8290   -8.8140   21.0890 C   0  0  0  0  0  0  0  0  0  0  0  0
  -22.4660   -9.8250   20.1800 C   0  0  0  0  0  3  0  0  0  0  0  0
  -23.2800  -10.9550   20.0030 C   0  0  0  0  0  3  0  0  0  0  0  0
  -21.9870   -7.7320   21.1750 O   0  0  0  0  0  0  0  0  0  0  0  0
  -21.8260   -7.0380   22.3480 C   0  0  0  0  0  0  0  0  0  0  0  0
  -21.4090   -7.6730   23.5380 C   0  0  0  0  0  3  0  0  0  0  0  0
  -21.1880   -6.9110   24.7020 C   0  0  0  0  0  3  0  0  0  0  0  0
  -21.3720   -5.5160   24.6770 C   0  0  0  0  0  0  0  0  0  0  0  0
  -21.7810   -4.8810   23.4910 C   0  0  0  0  0  3  0  0  0  0  0  0
  -22.0040   -5.6410   22.3290 C   0  0  0  0  0  0  0  0  0  0  0  0
  -22.3770   -5.0200   21.1840 F   0  0  0  0  0  0  0  0  0  0  0  0
  -21.1520   -4.7820   25.7920 F   0  0  0  0  0  0  0  0  0  0  0  0
  -23.6460  -14.2610   21.1570 C   0  0  0  0  0  0  0  0  0  0  0  0
  -22.9790  -13.6100   22.1010 N   0  0  0  0  0  0  0  0  0  0  0  0
  -23.2280  -15.3240   20.6990 O   0  0  0  0  0  0  0  0  0  0  0  0
  -23.3340  -12.7490   22.4920 H   0  0  0  0  0  0  0  0  0  0  0  0
  -22.1000  -13.9760   22.4390 H   0  0  0  0  0  0  0  0  0  0  0  0
  -26.3270  -15.7520   20.1830 N   0  0  0  0  0  0  0  0  0  0  0  0
  -25.6520  -16.4630   20.4420 H   0  0  0  0  0  0  0  0  0  0  0  0
  -27.2030  -16.1370   19.8530 H   0  0  0  0  0  0  0  0  0  0  0  0
  -28.5420  -26.0140   20.0630 O   0  0  0  0  0  0  0  0  0  0  0  0
  -24.6290  -31.6110   23.0600 C   0  0  0  0  0  0  0  0  0  0  0  0
  -27.4450  -26.9690   20.0750 C   0  0  0  0  0  0  0  0  0  0  0  0
  -23.5250  -30.1900   21.3780 C   0  0  0  0  0  3  0  0  0  0  0  0
  -25.0650  -28.6700   19.9860 C   0  0  0  0  0  0  0  0  0  0  0  0
  -26.0760  -30.5310   21.2890 C   0  0  0  0  0  2  0  0  0  0  0  0
  -26.2150  -29.1410   20.6330 C   0  0  0  0  0  0  0  0  0  0  0  0
  -27.4060  -28.3110   20.6520 C   0  0  0  0  0  3  0  0  0  0  0  0
  -26.2660  -26.6160   19.3850 C   0  0  0  0  0  3  0  0  0  0  0  0
  -25.1070  -27.4230   19.3460 C   0  0  0  0  0  3  0  0  0  0  0  0
  -23.8100  -29.5320   20.0020 C   0  0  0  0  0  2  0  0  0  0  0  0
  -24.7620  -30.8020   21.9640 N   0  0  0  0  0  0  0  0  0  0  0  0
  -23.5190  -31.8540   23.5580 O   0  0  0  0  0  0  0  0  0  0  0  0
  -22.8530  -29.1530   22.3140 C   0  0  0  0  0  0  0  0  0  0  0  0
  -21.5300  -28.9600   22.1720 N   0  0  0  0  0  0  0  0  0  0  0  0
  -23.5280  -28.5250   23.1340 O   0  0  0  0  0  0  0  0  0  0  0  0
  -21.0410  -29.5210   21.4870 H   0  0  0  0  0  0  0  0  0  0  0  0
  -18.1650  -27.6900   22.6270 C   0  0  0  0  0  0  0  0  0  0  0  0
  -20.7190  -27.9910   22.9150 C   0  0  0  0  0  3  0  0  0  0  0  0
  -20.8490  -26.5750   22.3090 C   0  0  0  0  0  2  0  0  0  0  0  0
  -19.7590  -26.2560   21.2810 C   0  0  0  0  0  2  0  0  0  0  0  0
  -18.3700  -26.3610   21.9200 C   0  0  0  0  0  2  0  0  0  0  0  0
  -19.2680  -28.4620   23.0800 C   0  0  0  0  0  0  0  0  0  0  0  0
  -19.0220  -29.7050   23.7040 C   0  0  0  0  0  3  0  0  0  0  0  0
  -17.7070  -30.1760   23.8760 C   0  0  0  0  0  3  0  0  0  0  0  0
  -16.6200  -29.4010   23.4380 C   0  0  0  0  0  3  0  0  0  0  0  0
  -16.8500  -28.1600   22.8210 C   0  0  0  0  0  3  0  0  0  0  0  0
  -25.8650  -32.2890   23.7270 C   0  0  0  0  0  3  0  0  0  0  0  0
  -25.4920  -33.6730   24.0640 N   0  0  0  0  0  0  0  0  0  0  0  0
  -25.8300  -34.7540   23.3470 C   0  0  0  0  0  0  0  0  0  0  0  0
  -26.5540  -34.6910   22.3500 O   0  0  0  0  0  0  0  0  0  0  0  0
  -24.8550  -33.7930   24.8370 H   0  0  0  0  0  0  0  0  0  0  0  0
  -24.0630  -36.5020   22.9550 C   0  0  0  0  0  1  0  0  0  0  0  0
  -25.2810  -36.1190   23.8090 C   0  0  0  0  0  3  0  0  0  0  0  0
  -27.3560  -37.0480   24.7370 C   0  0  0  0  0  1  0  0  0  0  0  0
  -26.2840  -37.2050   23.7580 N   0  0  0  0  0  0  0  0  0  0  0  0
  -25.8440  -38.1090   23.9120 H   0  0  0  0  0  0  0  0  0  0  0  0
  -26.3660  -31.5290   25.0160 C   0  0  1  0  0  0  0  0  0  0  0  0
  -25.2470  -31.2430   26.0460 C   0  0  0  0  0  1  0  0  0  0  0  0
  -27.0160  -30.1770   24.6420 C   0  0  0  0  0  1  0  0  0  0  0  0
  -27.4630  -32.3630   25.7210 C   0  0  0  0  0  1  0  0  0  0  0  0
  1  4  1  0
  2  1  2  0
  2  5  1  0
  3  5  1  0
  3  4  1  0
  4 53  1  0
  5  6  1  0
  7  2  1  0
  7 11  1  0
  8  7  2  0
  9 11  2  0
  9 12  1  0
 10 13  2  0
 11 10  1  0
 12 14  2  0
 13 15  1  0
 14 13  1  0
 14 16  1  0
 17 12  1  0
 18 23  1  0
 19 20  1  0
 19 18  1  0
 21 20  1  0
 21 28  1  0
 21 22  1  0
 23 17  1  0
 23 22  1  0
 24 17  2  0
 25 26  2  0
 26 45  1  0
 27 26  1  0
 27 30  1  0
 28 29  1  0
 28 25  1  0
 29 27  2  0
 30 31  1  0
 31 32  2  0
 33 36  1  0
 33 32  1  0
 34 33  2  0
 35 34  1  0
 35 30  2  0
 36 37  1  0
 37 38  1  0
 38 39  2  0
 40 39  1  0
 40 44  1  0
 41 40  2  0
 42 37  2  0
 42 41  1  0
 43 42  1  0
 45 46  1  0
 46 49  1  0
 46 48  1  0
 47 45  2  0
 50 25  1  0
 50 51  1  0
 52 50  1  0
 53 55  1  0
 54 65  2  0
 55 60  1  0
 56 64  1  0
 56 66  1  0
 57 63  1  0
 57 59  1  0
 58 64  1  0
 59 60  2  0
 59 58  1  0
 61 55  2  0
 62 61  1  0
 62 57  2  0
 63 56  1  0
 64 54  1  0
 66 68  2  0
 67 66  1  0
 69 67  1  0
 70 79  2  0
 70 75  1  0
 71 67  1  0
 71 75  1  0
 72 71  1  0
 73 74  1  0
 73 72  1  0
 74 70  1  0
 75 76  2  0
 76 77  1  0
 78 77  2  0
 79 78  1  0
 80 54  1  0
 80 81  1  0
 80 90  1  0
 81 84  1  0
 82 86  1  0
 82 81  1  0
 83 82  2  0
 86 85  1  0
 88 86  1  0
 88 89  1  0
 88 87  1  0
 90 93  1  1
 90 91  1  0
 92 90  1  0
M  ISO  4   4 101  12 100  17 100  53 101
M  END
>  <TORSDO>  (54) 
F 18

>  <SCORE>  (54) 
-10.417

>  <name>  (54) 
53

>  <ligand_id>  (54) 
53

>  <original_smiles>  (54) 
[H]C1=C(C(=O)c2c([H])c(C(=O)N3C([H])([H])C([H])([H])C([H])([H])C([H])(n4nc(-c5c([H])c([H])c(Oc6c([H])c([H])c(F)c([H])c6F)c([H])c5[H])c(C(=O)N([H])[H])c4N([H])[H])C3([H])[H])c(C([H])([H])[H])c(C([H])([H])[H])c2[H])C([H])(C([H])([H])[H])C([H])([H])C1([H])Oc1c([H])c([H])c2c(c1[H])C([H])([H])N(C(=O)C([H])(N([H])C(=O)C([H])(N([H])C([H])([H])[H])C([H])([H])[H])C(C([H])([H])[H])(C([H])([H])[H])C([H])([H])[H])C([H])(C(=O)N([H])C1([H])c3c([H])c([H])c([H])c([H])c3C([H])([H])C([H])([H])C1([H])[H])C2([H])[H]

>  <smiles>  (54) 
[H]C1=C(C(=O)c2c([H])c(C(=O)N3C([H])([H])C([H])([H])C([H])([H])C([H])(n4nc(-c5c([H])c([H])c(Oc6c([H])c([H])c(F)c([H])c6F)c([H])c5[H])c(C(=O)N([H])[H])c4N([H])[H])C3([H])[H])c(C([H])([H])[H])c(C([H])([H])[H])c2[H])C([H])(C([H])([H])[H])C([H])([H])C1([H])Oc1c([H])c([H])c2c(c1[H])C([H])([H])N(C(=O)C([H])(N([H])C(=O)C([H])(N([H])C([H])([H])[H])C([H])([H])[H])C(C([H])([H])[H])(C([H])([H])[H])C([H])([H])[H])C([H])(C(=O)N([H])C1([H])c3c([H])c([H])c([H])c([H])c3C([H])([H])C([H])([H])C1([H])[H])C2([H])[H]

$$$$
54:0:0
     RDKit          3D

 94100  0  0  1  0  0  0  0  0999 V2000
  -28.5710  -18.9020   18.6560 C   0  0  0  0  0  0  0  0  0  0  0  0
  -28.3760  -20.2820   18.3600 N   0  0  0  0  0  0  0  0  0  0  0  0
  -28.5270  -18.5470   19.8390 O   0  0  0  0  0  0  0  0  0  0  0  0
  -28.3480  -20.4560   17.3640 H   0  0  0  0  0  0  0  0  0  0  0  0
  -28.8390  -17.6970   17.5430 C   0  0  0  0  0  2  0  0  0  0  0  0
  -30.0280  -14.9040   17.5300 C   0  0  0  0  0  0  0  0  0  0  0  0
  -27.6210  -15.2100   17.8970 C   0  0  0  0  0  3  0  0  0  0  0  0
  -27.7070  -13.6540   18.3230 C   0  0  0  0  0  3  0  0  0  0  0  0
  -30.2330  -13.4290   18.3410 C   0  0  0  0  0  3  0  0  0  0  0  0
  -28.9410  -16.0520   17.9190 C   0  0  0  0  0  3  0  0  0  0  0  0
  -28.9950  -12.8770   18.9060 C   0  0  0  0  0  3  0  0  0  0  0  0
  -30.2900  -12.7960   19.9970 C   0  0  0  0  0  3  0  0  0  0  0  0
  -30.8040  -11.3170   19.9810 C   0  0  0  0  0  1  0  0  0  0  0  0
  -30.7520  -15.1570   16.5670 O   0  0  0  0  0  0  0  0  0  0  0  0
  -30.9390  -13.7130   21.8420 C   0  0  2  0  0  0  0  0  0  0  0  0
  -32.2090  -13.5130   21.0780 C   0  0  0  0  0  1  0  0  0  0  0  0
  -31.4470  -14.9690   20.0600 C   0  0  0  0  0  1  0  0  0  0  0  0
  -29.5370  -15.1060   20.3810 C   0  0  0  0  0  2  0  0  0  0  0  0
  -28.6270  -14.0900   21.4880 C   0  0  0  0  0  2  0  0  0  0  0  0
  -29.6100  -13.0070   22.4570 C   0  0  0  0  0  1  0  0  0  0  0  0
  -31.2360  -12.8220   22.2770 N   0  0  0  0  0  1  0  0  0  0  0  0
  -31.1670  -14.8760   22.5210 O   0  0  0  0  0  1  0  0  0  0  0  0
  -26.1400  -14.2040   20.9320 C   0  0  0  0  0  0  0  0  0  0  0  0
  -25.1280  -13.2940   20.9270 C   0  0  0  0  0  0  0  0  0  0  0  0
  -25.7340  -12.0150   21.0980 C   0  0  0  0  0  0  0  0  0  0  0  0
  -27.3120  -13.5040   21.1360 N   0  0  0  0  0  0  0  0  0  0  0  0
  -27.0520  -12.1570   21.2290 N   0  0  0  0  0  0  0  0  0  0  0  0
  -25.0980  -10.6870   21.1520 C   0  0  0  0  0  0  0  0  0  0  0  0
  -25.2850   -9.8220   22.2510 C   0  0  0  0  0  3  0  0  0  0  0  0
  -24.6340   -8.5680   22.2960 C   0  0  0  0  0  3  0  0  0  0  0  0
  -23.7620   -8.1750   21.2520 C   0  0  0  0  0  0  0  0  0  0  0  0
  -23.5820   -9.0350   20.1560 C   0  0  0  0  0  3  0  0  0  0  0  0
  -24.2360  -10.2800   20.1080 C   0  0  0  0  0  3  0  0  0  0  0  0
  -23.1030   -6.9720   21.1920 O   0  0  0  0  0  0  0  0  0  0  0  0
  -22.6730   -6.3220   22.3210 C   0  0  0  0  0  0  0  0  0  0  0  0
  -21.8200   -6.9340   23.2650 C   0  0  0  0  0  3  0  0  0  0  0  0
  -21.3330   -6.1980   24.3660 C   0  0  0  0  0  3  0  0  0  0  0  0
  -21.7000   -4.8470   24.5280 C   0  0  0  0  0  0  0  0  0  0  0  0
  -22.5430   -4.2330   23.5830 C   0  0  0  0  0  3  0  0  0  0  0  0
  -23.0210   -4.9690   22.4820 C   0  0  0  0  0  0  0  0  0  0  0  0
  -23.8060   -4.3520   21.5700 F   0  0  0  0  0  0  0  0  0  0  0  0
  -21.2380   -4.1460   25.5870 F   0  0  0  0  0  0  0  0  0  0  0  0
  -23.6700  -13.6080   20.7640 C   0  0  0  0  0  0  0  0  0  0  0  0
  -22.8080  -12.8920   21.4820 N   0  0  0  0  0  0  0  0  0  0  0  0
  -23.2900  -14.5440   20.0620 O   0  0  0  0  0  0  0  0  0  0  0  0
  -23.1150  -12.1690   22.1150 H   0  0  0  0  0  0  0  0  0  0  0  0
  -21.8190  -13.0660   21.3860 H   0  0  0  0  0  0  0  0  0  0  0  0
  -26.1320  -15.5930   20.8200 N   0  0  0  0  0  0  0  0  0  0  0  0
  -25.2530  -16.0780   20.6670 H   0  0  0  0  0  0  0  0  0  0  0  0
  -26.8850  -16.2230   21.0680 H   0  0  0  0  0  0  0  0  0  0  0  0
  -27.9280  -21.5340   19.2260 C   0  0  0  0  0  2  0  0  0  0  0  0
  -28.5260  -23.1290   19.2040 C   0  0  0  0  0  2  0  0  0  0  0  0
  -27.6520  -24.5450   19.4900 C   0  0  0  0  0  2  0  0  0  0  0  0
  -28.0380  -25.9710   20.0470 O   0  0  0  0  0  0  0  0  0  0  0  0
  -24.3890  -31.8090   23.0720 C   0  0  0  0  0  0  0  0  0  0  0  0
  -27.0300  -27.0110   20.1090 C   0  0  0  0  0  0  0  0  0  0  0  0
  -23.2590  -30.3900   21.4230 C   0  0  0  0  0  3  0  0  0  0  0  0
  -24.7430  -28.8070   20.0840 C   0  0  0  0  0  0  0  0  0  0  0  0
  -25.8350  -30.6240   21.3650 C   0  0  0  0  0  2  0  0  0  0  0  0
  -25.9210  -29.2260   20.7150 C   0  0  0  0  0  0  0  0  0  0  0  0
  -27.0790  -28.3440   20.7110 C   0  0  0  0  0  3  0  0  0  0  0  0
  -25.7890  -26.6950   19.5190 C   0  0  0  0  0  3  0  0  0  0  0  0
  -24.6880  -27.5510   19.4910 C   0  0  0  0  0  3  0  0  0  0  0  0
  -23.5320  -29.7140   20.0640 C   0  0  0  0  0  2  0  0  0  0  0  0
  -24.5160  -30.9630   22.0050 N   0  0  0  0  0  0  0  0  0  0  0  0
  -23.2770  -32.1040   23.5420 O   0  0  0  0  0  0  0  0  0  0  0  0
  -22.5450  -29.3860   22.3630 C   0  0  0  0  0  0  0  0  0  0  0  0
  -21.2200  -29.2200   22.1920 N   0  0  0  0  0  0  0  0  0  0  0  0
  -23.1850  -28.7610   23.2100 O   0  0  0  0  0  0  0  0  0  0  0  0
  -20.7630  -29.7730   21.4800 H   0  0  0  0  0  0  0  0  0  0  0  0
  -17.8150  -28.0540   22.6000 C   0  0  0  0  0  0  0  0  0  0  0  0
  -20.3670  -28.3010   22.9480 C   0  0  0  0  0  3  0  0  0  0  0  0
  -20.4750  -26.8610   22.3990 C   0  0  0  0  0  2  0  0  0  0  0  0
  -19.4050  -26.5300   21.3530 C   0  0  0  0  0  2  0  0  0  0  0  0
  -18.0030  -26.6940   21.9490 C   0  0  0  0  0  2  0  0  0  0  0  0
  -18.9250  -28.8150   23.0570 C   0  0  0  0  0  0  0  0  0  0  0  0
  -18.6960  -30.0860   23.6270 C   0  0  0  0  0  3  0  0  0  0  0  0
  -17.3900  -30.5980   23.7460 C   0  0  0  0  0  3  0  0  0  0  0  0
  -16.2940  -29.8360   23.3060 C   0  0  0  0  0  3  0  0  0  0  0  0
  -16.5080  -28.5660   22.7410 C   0  0  0  0  0  3  0  0  0  0  0  0
  -25.6350  -32.4630   23.7410 C   0  0  0  0  0  3  0  0  0  0  0  0
  -25.3160  -33.8810   23.9760 N   0  0  0  0  0  0  0  0  0  0  0  0
  -25.7320  -34.8960   23.2090 C   0  0  0  0  0  0  0  0  0  0  0  0
  -26.4920  -34.7400   22.2490 O   0  0  0  0  0  0  0  0  0  0  0  0
  -24.6480  -34.0770   24.7070 H   0  0  0  0  0  0  0  0  0  0  0  0
  -24.0780  -36.7030   22.6230 C   0  0  0  0  0  1  0  0  0  0  0  0
  -25.2300  -36.3110   23.5620 C   0  0  0  0  0  3  0  0  0  0  0  0
  -27.2960  -37.1990   24.5520 C   0  0  0  0  0  1  0  0  0  0  0  0
  -26.2890  -37.3430   23.5040 N   0  0  0  0  0  0  0  0  0  0  0  0
  -25.8860  -38.2740   23.5740 H   0  0  0  0  0  0  0  0  0  0  0  0
  -26.0480  -31.7620   25.0930 C   0  0  1  0  0  0  0  0  0  0  0  0
  -24.8840  -31.6110   26.0980 C   0  0  0  0  0  1  0  0  0  0  0  0
  -26.6270  -30.3520   24.8350 C   0  0  0  0  0  1  0  0  0  0  0  0
  -27.1680  -32.5790   25.7800 C   0  0  0  0  0  1  0  0  0  0  0  0
  1  3  2  0
  2  1  1  0
  2 51  1  0
  4  2  1  0
  5  1  1  0
  6 10  1  0
  7 10  1  0
  7  8  2  0
  9  6  1  0
  9 11  1  0
  9 12  1  0
 10  5  1  0
 11  8  1  0
 11 12  1  0
 12 13  1  0
 14  6  2  0
 15 21  1  0
 15 20  1  6
 15 22  1  0
 16 15  1  0
 17 18  1  0
 18 19  1  0
 23 26  1  0
 24 23  2  0
 24 25  1  0
 25 28  1  0
 25 27  2  0
 26 27  1  0
 26 19  1  0
 28 29  1  0
 29 30  2  0
 31 30  1  0
 32 31  2  0
 33 32  1  0
 33 28  2  0
 34 31  1  0
 34 35  1  0
 35 40  2  0
 35 36  1  0
 36 37  2  0
 37 38  1  0
 38 42  1  0
 39 38  2  0
 40 39  1  0
 41 40  1  0
 43 24  1  0
 43 44  1  0
 44 46  1  0
 45 43  2  0
 47 44  1  0
 48 23  1  0
 48 50  1  0
 49 48  1  0
 52 51  1  0
 52 53  1  0
 53 54  1  0
 54 56  1  0
 55 66  2  0
 56 61  1  0
 57 65  1  0
 57 67  1  0
 58 60  1  0
 59 65  1  0
 60 59  1  0
 61 60  2  0
 62 56  2  0
 63 62  1  0
 63 58  2  0
 64 58  1  0
 64 57  1  0
 65 55  1  0
 67 69  2  0
 68 67  1  0
 70 68  1  0
 71 80  2  0
 71 76  1  0
 72 68  1  0
 72 76  1  0
 73 72  1  0
 74 75  1  0
 74 73  1  0
 75 71  1  0
 76 77  2  0
 77 78  1  0
 79 78  2  0
 80 79  1  0
 81 55  1  0
 81 82  1  0
 81 91  1  0
 82 85  1  0
 83 87  1  0
 83 82  1  0
 84 83  2  0
 87 86  1  0
 89 87  1  0
 89 90  1  0
 89 88  1  0
 91 94  1  1
 91 92  1  0
 93 91  1  0
M  ISO  4  12 100  15 100  53 101  54 101
M  END
>  <TORSDO>  (55) 
F 21

>  <SCORE>  (55) 
-0.987

>  <name>  (55) 
54

>  <ligand_id>  (55) 
54

>  <original_smiles>  (55) 
[H]c1c([H])c([H])c2c(c1[H])C([H])([H])C([H])([H])C([H])([H])C2([H])N([H])C(=O)C1([H])N(C(=O)C([H])(N([H])C(=O)C([H])(N([H])C([H])([H])[H])C([H])([H])[H])C(C([H])([H])[H])(C([H])([H])[H])C([H])([H])[H])C([H])([H])c2c([H])c(OC([H])([H])C([H])([H])C([H])([H])N([H])C(=O)C([H])([H])C3([H])C(=O)C4([H])C([H])(C([H])([H])C3([H])[H])C4(C(=O)N3C([H])([H])C([H])([H])C([H])([H])C([H])(n4nc(-c5c([H])c([H])c(Oc6c([H])c([H])c(F)c([H])c6F)c([H])c5[H])c(C(=O)N([H])[H])c4N([H])[H])C3([H])[H])C([H])([H])[H])c([H])c([H])c2C1([H])[H]

>  <smiles>  (55) 
[H]c1c([H])c([H])c2c(c1[H])C([H])([H])C([H])([H])C([H])([H])C2([H])N([H])C(=O)C1([H])N(C(=O)C([H])(N([H])C(=O)C([H])(N([H])C([H])([H])[H])C([H])([H])[H])C(C([H])([H])[H])(C([H])([H])[H])C([H])([H])[H])C([H])([H])c2c([H])c(OC([H])([H])C([H])([H])C([H])([H])N([H])C(=O)C([H])([H])C3([H])C(=O)C4([H])C([H])(C([H])([H])C3([H])[H])C4(C(=O)N3C([H])([H])C([H])([H])C([H])([H])C([H])(n4nc(-c5c([H])c([H])c(Oc6c([H])c([H])c(F)c([H])c6F)c([H])c5[H])c(C(=O)N([H])[H])c4N([H])[H])C3([H])[H])C([H])([H])[H])c([H])c([H])c2C1([H])[H]

$$$$
55:0:0
     RDKit          3D

 93102  0  0  1  0  0  0  0  0999 V2000
  -28.4570  -22.6200   20.7570 C   0  0  0  0  0  3  0  0  0  0  0  0
  -28.1110  -21.4680   20.0300 C   0  0  0  0  0  3  0  0  0  0  0  0
  -30.1900  -23.1300   19.1290 C   0  0  0  0  0  3  0  0  0  0  0  0
  -29.4850  -23.4830   20.2990 C   0  0  0  0  0  0  0  0  0  0  0  0
  -28.7710  -21.1460   18.8310 C   0  0  0  0  0  0  0  0  0  0  0  0
  -29.8320  -21.9800   18.3860 C   0  0  0  0  0  0  0  0  0  0  0  0
  -28.3210  -19.9020   18.0660 C   0  0  0  0  0  1  0  0  0  0  0  0
  -29.6240  -24.9970   22.2760 C   0  0  0  0  0  2  0  0  0  0  0  0
  -29.7200  -24.7970   20.9510 C   0  0  0  0  0  3  0  0  0  0  0  0
  -29.4700  -26.4470   22.6360 C   0  0  0  0  0  2  0  0  0  0  0  0
  -29.8140  -26.1480   20.2420 C   0  0  0  0  0  2  0  0  0  0  0  0
  -29.1150  -27.0570   21.2650 C   0  0  0  0  0  3  0  0  0  0  0  0
  -29.2080  -28.5000   21.2320 O   0  0  0  0  0  0  0  0  0  0  0  0
  -27.4540  -31.4270   27.4350 C   0  0  0  0  0  0  0  0  0  0  0  0
  -28.1690  -29.0140   21.9780 C   0  0  0  0  0  0  0  0  0  0  0  0
  -25.6380  -30.2500   26.2330 C   0  0  0  0  0  3  0  0  0  0  0  0
  -26.1160  -29.6820   23.7980 C   0  0  0  0  0  0  0  0  0  0  0  0
  -27.5430  -31.3740   24.9480 C   0  0  0  0  0  2  0  0  0  0  0  0
  -27.3530  -30.3350   23.8650 C   0  0  0  0  0  0  0  0  0  0  0  0
  -28.3880  -30.0070   22.9580 C   0  0  0  0  0  3  0  0  0  0  0  0
  -26.8920  -28.4080   21.8900 C   0  0  0  0  0  3  0  0  0  0  0  0
  -25.8790  -28.7140   22.8110 C   0  0  0  0  0  3  0  0  0  0  0  0
  -25.0640  -30.0860   24.8060 C   0  0  0  0  0  2  0  0  0  0  0  0
  -26.9260  -31.0210   26.2470 N   0  0  0  0  0  0  0  0  0  0  0  0
  -26.8700  -31.2100   28.5050 O   0  0  0  0  0  0  0  0  0  0  0  0
  -25.7530  -28.8540   26.8860 C   0  0  0  0  0  0  0  0  0  0  0  0
  -25.1270  -28.6900   28.0620 N   0  0  0  0  0  0  0  0  0  0  0  0
  -26.3710  -27.9420   26.3310 O   0  0  0  0  0  0  0  0  0  0  0  0
  -24.6170  -29.4770   28.4380 H   0  0  0  0  0  0  0  0  0  0  0  0
  -25.6320  -27.3610   31.3810 C   0  0  0  0  0  0  0  0  0  0  0  0
  -25.0960  -27.4600   28.8540 C   0  0  0  0  0  3  0  0  0  0  0  0
  -23.6480  -27.0960   29.2530 C   0  0  0  0  0  2  0  0  0  0  0  0
  -23.2490  -27.6770   30.6170 C   0  0  0  0  0  2  0  0  0  0  0  0
  -24.1670  -27.1240   31.7090 C   0  0  0  0  0  2  0  0  0  0  0  0
  -26.0660  -27.5310   30.0380 C   0  0  0  0  0  0  0  0  0  0  0  0
  -27.4350  -27.7760   29.7920 C   0  0  0  0  0  3  0  0  0  0  0  0
  -28.3580  -27.8400   30.8490 C   0  0  0  0  0  3  0  0  0  0  0  0
  -27.9260  -27.6610   32.1760 C   0  0  0  0  0  3  0  0  0  0  0  0
  -26.5660  -27.4160   32.4350 C   0  0  0  0  0  3  0  0  0  0  0  0
  -28.8040  -32.2100   27.5030 C   0  0  0  0  0  3  0  0  0  0  0  0
  -28.4840  -33.6210   27.7450 N   0  0  0  0  0  0  0  0  0  0  0  0
  -28.9070  -34.6380   26.9800 C   0  0  0  0  0  0  0  0  0  0  0  0
  -29.6800  -34.4890   26.0290 O   0  0  0  0  0  0  0  0  0  0  0  0
  -27.8020  -33.8180   28.4630 H   0  0  0  0  0  0  0  0  0  0  0  0
  -28.1190  -36.8360   26.0380 C   0  0  0  0  0  1  0  0  0  0  0  0
  -28.3910  -36.0460   27.3290 C   0  0  0  0  0  3  0  0  0  0  0  0
  -29.3280  -36.3530   29.5780 C   0  0  0  0  0  1  0  0  0  0  0  0
  -29.3140  -36.8150   28.1920 N   0  0  0  0  0  0  0  0  0  0  0  0
  -29.0680  -37.8010   28.1900 H   0  0  0  0  0  0  0  0  0  0  0  0
  -29.7900  -31.6610   28.6080 C   0  0  1  0  0  0  0  0  0  0  0  0
  -29.3000  -31.9150   30.0520 C   0  0  0  0  0  1  0  0  0  0  0  0
  -30.0060  -30.1360   28.4430 C   0  0  0  0  0  1  0  0  0  0  0  0
  -31.1760  -32.3250   28.4510 C   0  0  0  0  0  1  0  0  0  0  0  0
  -30.5870  -21.6590   17.1100 C   0  0  0  0  0  2  0  0  0  0  0  0
  -30.1270  -22.5350   15.9400 C   0  0  0  0  0  2  0  0  0  0  0  0
  -31.3080  -23.2340   15.2560 C   0  0  0  0  0  2  0  0  0  0  0  0
  -32.1160  -24.1320   16.2110 C   0  0  0  0  0  2  0  0  0  0  0  0
  -33.5510  -24.3300   15.7000 C   0  0  0  0  0  0  0  0  0  0  0  0
  -35.7820  -23.4650   15.0890 C   0  0  0  0  0  2  0  0  0  0  0  0
  -35.7030  -22.7030   13.7530 C   0  0  0  0  0  2  0  0  0  0  0  0
  -35.3360  -21.2260   13.9910 C   0  0  0  0  0  2  0  0  0  0  0  0
  -34.1070  -21.0580   14.9210 C   0  0  0  0  0  3  0  0  0  0  0  0
  -34.2360  -21.9420   16.1790 C   0  0  0  0  0  2  0  0  0  0  0  0
  -34.4760  -23.3350   15.7520 N   0  0  0  0  0  0  0  0  0  0  0  0
  -33.8010  -25.4290   15.1990 O   0  0  0  0  0  0  0  0  0  0  0  0
  -32.9770  -18.7550   14.7270 C   0  0  0  0  0  0  0  0  0  0  0  0
  -33.2150  -17.5600   15.3480 C   0  0  0  0  0  0  0  0  0  0  0  0
  -34.2860  -17.8020   16.2660 C   0  0  0  0  0  0  0  0  0  0  0  0
  -33.8820  -19.6550   15.2660 N   0  0  0  0  0  0  0  0  0  0  0  0
  -34.6340  -19.0820   16.2410 N   0  0  0  0  0  0  0  0  0  0  0  0
  -35.0350  -16.8750   17.1230 C   0  0  0  0  0  0  0  0  0  0  0  0
  -35.0580  -17.0190   18.5290 C   0  0  0  0  0  3  0  0  0  0  0  0
  -35.7750  -16.1040   19.3300 C   0  0  0  0  0  3  0  0  0  0  0  0
  -36.4760  -15.0310   18.7320 C   0  0  0  0  0  0  0  0  0  0  0  0
  -36.4670  -14.9050   17.3320 C   0  0  0  0  0  3  0  0  0  0  0  0
  -35.7600  -15.8190   16.5340 C   0  0  0  0  0  3  0  0  0  0  0  0
  -37.2170  -14.1090   19.4300 O   0  0  0  0  0  0  0  0  0  0  0  0
  -36.7000  -13.4380   20.5090 C   0  0  0  0  0  0  0  0  0  0  0  0
  -35.6270  -12.5300   20.3750 C   0  0  0  0  0  3  0  0  0  0  0  0
  -35.1760  -11.8020   21.4960 C   0  0  0  0  0  3  0  0  0  0  0  0
  -35.7930  -11.9800   22.7480 C   0  0  0  0  0  0  0  0  0  0  0  0
  -36.8600  -12.8840   22.8840 C   0  0  0  0  0  3  0  0  0  0  0  0
  -37.3150  -13.6060   21.7660 C   0  0  0  0  0  0  0  0  0  0  0  0
  -38.3610  -14.4560   21.8970 F   0  0  0  0  0  0  0  0  0  0  0  0
  -35.3610  -11.2800   23.8240 F   0  0  0  0  0  0  0  0  0  0  0  0
  -32.5540  -16.2450   15.0500 C   0  0  0  0  0  0  0  0  0  0  0  0
  -32.0780  -15.5540   16.0810 N   0  0  0  0  0  0  0  0  0  0  0  0
  -32.4090  -15.8460   13.8950 O   0  0  0  0  0  0  0  0  0  0  0  0
  -32.1840  -15.8880   17.0270 H   0  0  0  0  0  0  0  0  0  0  0  0
  -31.6010  -14.6780   15.9250 H   0  0  0  0  0  0  0  0  0  0  0  0
  -32.0810  -19.1650   13.7420 N   0  0  0  0  0  0  0  0  0  0  0  0
  -31.4150  -18.5510   13.2890 H   0  0  0  0  0  0  0  0  0  0  0  0
  -32.0510  -20.1140   13.3930 H   0  0  0  0  0  0  0  0  0  0  0  0
  2  1  2  0
  3  4  2  0
  4  1  1  0
  5  2  1  0
  6  5  2  0
  6  3  1  0
  7  5  1  0
  8 10  1  0
  9  4  1  0
  9  8  1  0
 11  9  1  0
 11 12  1  0
 12 13  1  0
 12 10  1  0
 13 15  1  0
 14 25  2  0
 15 20  1  0
 16 24  1  0
 16 26  1  0
 17 19  1  0
 17 23  1  0
 18 24  1  0
 19 18  1  0
 20 19  2  0
 21 15  2  0
 21 22  1  0
 22 17  2  0
 23 16  1  0
 24 14  1  0
 26 27  1  0
 27 29  1  0
 28 26  2  0
 30 34  1  0
 30 39  1  0
 31 27  1  0
 31 32  1  0
 31 35  1  0
 32 33  1  0
 33 34  1  0
 35 30  2  0
 36 35  1  0
 36 37  2  0
 37 38  1  0
 38 39  2  0
 40 14  1  0
 40 41  1  0
 40 50  1  0
 41 44  1  0
 42 46  1  0
 42 41  1  0
 43 42  2  0
 46 45  1  0
 46 48  1  0
 48 47  1  0
 49 48  1  0
 50 51  1  1
 52 50  1  0
 53 50  1  0
 54  6  1  0
 55 54  1  0
 56 55  1  0
 56 57  1  0
 58 64  1  0
 58 57  1  0
 59 64  1  0
 60 61  1  0
 60 59  1  0
 62 61  1  0
 62 69  1  0
 62 63  1  0
 64 63  1  0
 65 58  2  0
 66 69  1  0
 66 67  2  0
 67 68  1  0
 68 71  1  0
 69 70  1  0
 70 68  2  0
 71 72  1  0
 72 73  2  0
 74 73  1  0
 74 77  1  0
 75 74  2  0
 76 71  2  0
 76 75  1  0
 77 78  1  0
 78 83  1  0
 79 78  2  0
 79 80  1  0
 80 81  2  0
 81 82  1  0
 81 85  1  0
 83 84  1  0
 83 82  2  0
 86 67  1  0
 86 87  1  0
 87 89  1  0
 88 86  2  0
 90 87  1  0
 91 66  1  0
 92 91  1  0
 93 91  1  0
M  ISO  4  12 101  13 101  57 100  58 100
M  END
>  <TORSDO>  (56) 
F 21

>  <SCORE>  (56) 
-5.424

>  <name>  (56) 
55

>  <ligand_id>  (56) 
55

>  <original_smiles>  (56) 
[H]C1=C(c2c([H])c([H])c(C([H])([H])[H])c(C([H])([H])C([H])([H])C([H])([H])C([H])([H])C(=O)N3C([H])([H])C([H])([H])C([H])([H])C([H])(n4nc(-c5c([H])c([H])c(Oc6c([H])c([H])c(F)c([H])c6F)c([H])c5[H])c(C(=O)N([H])[H])c4N([H])[H])C3([H])[H])c2[H])C([H])([H])C([H])(Oc2c([H])c([H])c3c(c2[H])C([H])([H])N(C(=O)C([H])(N([H])C(=O)C([H])(N([H])C([H])([H])[H])C([H])([H])[H])C(C([H])([H])[H])(C([H])([H])[H])C([H])([H])[H])C([H])(C(=O)N([H])C2([H])c4c([H])c([H])c([H])c([H])c4C([H])([H])C([H])([H])C2([H])[H])C3([H])[H])C1([H])[H]

>  <smiles>  (56) 
[H]C1=C(c2c([H])c([H])c(C([H])([H])[H])c(C([H])([H])C([H])([H])C([H])([H])C([H])([H])C(=O)N3C([H])([H])C([H])([H])C([H])([H])C([H])(n4nc(-c5c([H])c([H])c(Oc6c([H])c([H])c(F)c([H])c6F)c([H])c5[H])c(C(=O)N([H])[H])c4N([H])[H])C3([H])[H])c2[H])C([H])([H])C([H])(Oc2c([H])c([H])c3c(c2[H])C([H])([H])N(C(=O)C([H])(N([H])C(=O)C([H])(N([H])C([H])([H])[H])C([H])([H])[H])C(C([H])([H])[H])(C([H])([H])[H])C([H])([H])[H])C([H])(C(=O)N([H])C2([H])c4c([H])c([H])c([H])c([H])c4C([H])([H])C([H])([H])C2([H])[H])C3([H])[H])C1([H])[H]

$$$$
56:0:0
     RDKit          3D

 92101  0  0  1  0  0  0  0  0999 V2000
  -30.6960  -14.6350   20.5500 C   0  0  0  0  0  0  0  0  0  0  0  0
  -30.4390  -12.4160   19.4590 C   0  0  0  0  0  2  0  0  0  0  0  0
  -29.5110  -12.5080   18.2310 C   0  0  0  0  0  2  0  0  0  0  0  0
  -28.0370  -12.3130   18.6420 C   0  0  0  0  0  2  0  0  0  0  0  0
  -27.6520  -13.1890   19.8580 C   0  0  0  0  0  3  0  0  0  0  0  0
  -28.7030  -13.0630   20.9950 C   0  0  0  0  0  2  0  0  0  0  0  0
  -30.0020  -13.4500   20.4280 N   0  0  0  0  0  0  0  0  0  0  0  0
  -31.8690  -14.6670   20.1640 O   0  0  0  0  0  0  0  0  0  0  0  0
  -27.5500  -19.7870   21.7460 C   0  0  0  0  0  3  0  0  0  0  0  0
  -29.8870  -20.6050   20.4910 C   0  0  0  0  0  3  0  0  0  0  0  0
  -28.5240  -18.8150   21.4330 C   0  0  0  0  0  0  0  0  0  0  0  0
  -29.7300  -19.2260   20.8200 C   0  0  0  0  0  0  0  0  0  0  0  0
  -27.7270  -21.1550   21.4530 C   0  0  0  0  0  0  0  0  0  0  0  0
  -28.9030  -21.5950   20.7900 C   0  0  0  0  0  0  0  0  0  0  0  0
  -28.2260  -17.3680   21.8160 C   0  0  0  0  0  3  0  0  0  0  0  0
  -30.8750  -18.2390   20.5260 C   0  0  0  0  0  3  0  0  0  0  0  0
  -28.7320  -16.2720   20.8480 C   0  0  0  0  0  3  0  0  0  0  0  0
  -30.9880  -16.9630   21.4310 C   0  0  0  0  0  3  0  0  0  0  0  0
  -26.6280  -22.1030   21.9020 C   0  0  0  0  0  1  0  0  0  0  0  0
  -30.1240  -15.8040   21.0450 N   0  0  0  0  0  0  0  0  0  0  0  0
  -25.2550  -13.8090   20.5620 C   0  0  0  0  0  0  0  0  0  0  0  0
  -24.1830  -13.0410   20.9190 C   0  0  0  0  0  0  0  0  0  0  0  0
  -24.6380  -11.6870   20.8750 C   0  0  0  0  0  0  0  0  0  0  0  0
  -26.2990  -12.9240   20.3300 N   0  0  0  0  0  0  0  0  0  0  0  0
  -25.9310  -11.6420   20.5770 N   0  0  0  0  0  0  0  0  0  0  0  0
  -23.9050  -10.4280   21.0410 C   0  0  0  0  0  0  0  0  0  0  0  0
  -24.3610   -9.4210   21.9190 C   0  0  0  0  0  3  0  0  0  0  0  0
  -23.6290   -8.2260   22.0760 C   0  0  0  0  0  3  0  0  0  0  0  0
  -22.4280   -8.0280   21.3550 C   0  0  0  0  0  0  0  0  0  0  0  0
  -21.9910   -9.0250   20.4650 C   0  0  0  0  0  3  0  0  0  0  0  0
  -22.7220  -10.2130   20.3050 C   0  0  0  0  0  3  0  0  0  0  0  0
  -21.6640   -6.8890   21.4240 O   0  0  0  0  0  0  0  0  0  0  0  0
  -21.6850   -6.0750   22.5270 C   0  0  0  0  0  0  0  0  0  0  0  0
  -21.4020   -6.5650   23.8200 C   0  0  0  0  0  3  0  0  0  0  0  0
  -21.3660   -5.6800   24.9160 C   0  0  0  0  0  3  0  0  0  0  0  0
  -21.6040   -4.3060   24.7210 C   0  0  0  0  0  0  0  0  0  0  0  0
  -21.8810   -3.8160   23.4330 C   0  0  0  0  0  3  0  0  0  0  0  0
  -21.9200   -4.6980   22.3390 C   0  0  0  0  0  0  0  0  0  0  0  0
  -22.1660   -4.2160   21.0960 F   0  0  0  0  0  0  0  0  0  0  0  0
  -21.5620   -3.4530   25.7720 F   0  0  0  0  0  0  0  0  0  0  0  0
  -22.7840  -13.5220   21.1830 C   0  0  0  0  0  0  0  0  0  0  0  0
  -22.0480  -12.8250   22.0390 N   0  0  0  0  0  0  0  0  0  0  0  0
  -22.3570  -14.5560   20.6670 O   0  0  0  0  0  0  0  0  0  0  0  0
  -22.4120  -11.9940   22.4810 H   0  0  0  0  0  0  0  0  0  0  0  0
  -21.1080  -13.1240   22.2560 H   0  0  0  0  0  0  0  0  0  0  0  0
  -25.4190  -15.1820   20.3920 N   0  0  0  0  0  0  0  0  0  0  0  0
  -24.6450  -15.8290   20.5070 H   0  0  0  0  0  0  0  0  0  0  0  0
  -26.2510  -15.6230   20.0260 H   0  0  0  0  0  0  0  0  0  0  0  0
  -29.2150  -23.0860   20.4650 C   0  0  0  0  0  3  0  0  0  0  0  0
  -28.0670  -24.0720   20.0420 C   0  0  0  0  0  3  0  0  0  0  0  0
  -28.5180  -25.4090   19.3600 C   0  0  0  0  0  2  0  0  0  0  0  0
  -28.3890  -26.6280   20.1330 O   0  0  0  0  0  0  0  0  0  0  0  0
  -24.6190  -31.8600   23.2110 C   0  0  0  0  0  0  0  0  0  0  0  0
  -27.2200  -27.3760   20.1010 C   0  0  0  0  0  0  0  0  0  0  0  0
  -23.4070  -30.4830   21.5530 C   0  0  0  0  0  3  0  0  0  0  0  0
  -24.8470  -28.9480   20.1090 C   0  0  0  0  0  0  0  0  0  0  0  0
  -25.9410  -30.8020   21.3740 C   0  0  0  0  0  2  0  0  0  0  0  0
  -26.0100  -29.4360   20.7170 C   0  0  0  0  0  0  0  0  0  0  0  0
  -27.1950  -28.6590   20.7100 C   0  0  0  0  0  3  0  0  0  0  0  0
  -26.0270  -26.9020   19.5050 C   0  0  0  0  0  3  0  0  0  0  0  0
  -24.8540  -27.6820   19.5000 C   0  0  0  0  0  3  0  0  0  0  0  0
  -23.6110  -29.8230   20.1640 C   0  0  0  0  0  2  0  0  0  0  0  0
  -24.6740  -31.0640   22.1030 N   0  0  0  0  0  0  0  0  0  0  0  0
  -23.5380  -32.1370   23.7470 O   0  0  0  0  0  0  0  0  0  0  0  0
  -22.7430  -29.4580   22.4980 C   0  0  0  0  0  0  0  0  0  0  0  0
  -21.4150  -29.3040   22.3680 N   0  0  0  0  0  0  0  0  0  0  0  0
  -23.4160  -28.8140   23.3070 O   0  0  0  0  0  0  0  0  0  0  0  0
  -20.9360  -29.8780   21.6880 H   0  0  0  0  0  0  0  0  0  0  0  0
  -18.0290  -28.1400   22.8400 C   0  0  0  0  0  0  0  0  0  0  0  0
  -20.5860  -28.3720   23.1320 C   0  0  0  0  0  3  0  0  0  0  0  0
  -20.6810  -26.9410   22.5560 C   0  0  0  0  0  2  0  0  0  0  0  0
  -19.5960  -26.6390   21.5130 C   0  0  0  0  0  2  0  0  0  0  0  0
  -18.2040  -26.7970   22.1400 C   0  0  0  0  0  2  0  0  0  0  0  0
  -19.1510  -28.8870   23.2840 C   0  0  0  0  0  0  0  0  0  0  0  0
  -18.9390  -30.1480   23.8800 C   0  0  0  0  0  3  0  0  0  0  0  0
  -17.6390  -30.6590   24.0470 C   0  0  0  0  0  3  0  0  0  0  0  0
  -16.5300  -29.9050   23.6320 C   0  0  0  0  0  3  0  0  0  0  0  0
  -16.7260  -28.6460   23.0330 C   0  0  0  0  0  3  0  0  0  0  0  0
  -25.9060  -32.4780   23.8400 C   0  0  0  0  0  3  0  0  0  0  0  0
  -25.5930  -33.8600   24.2330 N   0  0  0  0  0  0  0  0  0  0  0  0
  -25.9040  -34.9440   23.5110 C   0  0  0  0  0  0  0  0  0  0  0  0
  -26.5590  -34.8870   22.4670 O   0  0  0  0  0  0  0  0  0  0  0  0
  -25.0110  -33.9800   25.0480 H   0  0  0  0  0  0  0  0  0  0  0  0
  -24.1480  -36.7300   23.2650 C   0  0  0  0  0  1  0  0  0  0  0  0
  -25.4110  -36.3080   24.0330 C   0  0  0  0  0  3  0  0  0  0  0  0
  -27.5560  -37.1790   24.8460 C   0  0  0  0  0  1  0  0  0  0  0  0
  -26.4280  -37.3760   23.9410 N   0  0  0  0  0  0  0  0  0  0  0  0
  -26.0180  -38.2840   24.1470 H   0  0  0  0  0  0  0  0  0  0  0  0
  -26.4480  -31.6590   25.0750 C   0  0  1  0  0  0  0  0  0  0  0  0
  -25.3760  -31.3670   26.1510 C   0  0  0  0  0  1  0  0  0  0  0  0
  -27.0350  -30.3020   24.6170 C   0  0  0  0  0  1  0  0  0  0  0  0
  -27.6050  -32.4320   25.7520 C   0  0  0  0  0  1  0  0  0  0  0  0
  1 20  1  0
  2  7  1  0
  3  4  1  0
  3  2  1  0
  5  4  1  0
  5 24  1  0
  5  6  1  0
  7  1  1  0
  7  6  1  0
  8  1  2  0
 10 14  1  0
 10 12  2  0
 11  9  2  0
 11 15  1  0
 12 11  1  0
 13  9  1  0
 13 19  1  0
 14 13  2  0
 16 12  1  0
 16 18  2  0
 17 20  1  0
 17 15  2  0
 20 18  1  0
 21 22  2  0
 22 41  1  0
 23 22  1  0
 23 26  1  0
 24 21  1  0
 24 25  1  0
 25 23  2  0
 26 27  1  0
 27 28  2  0
 29 32  1  0
 29 28  1  0
 30 29  2  0
 31 30  1  0
 31 26  2  0
 32 33  1  0
 33 34  1  0
 34 35  2  0
 36 35  1  0
 36 40  1  0
 37 36  2  0
 38 33  2  0
 38 37  1  0
 39 38  1  0
 41 42  1  0
 42 45  1  0
 42 44  1  0
 43 41  2  0
 46 47  1  0
 46 21  1  0
 48 46  1  0
 49 14  1  0
 50 49  2  0
 51 50  1  0
 51 52  1  0
 53 64  2  0
 54 52  1  0
 54 59  1  0
 55 63  1  0
 55 65  1  0
 56 62  1  0
 56 58  1  0
 57 63  1  0
 58 57  1  0
 59 58  2  0
 60 54  2  0
 61 60  1  0
 61 56  2  0
 62 55  1  0
 63 53  1  0
 65 67  2  0
 66 65  1  0
 68 66  1  0
 69 78  2  0
 69 74  1  0
 70 66  1  0
 70 74  1  0
 71 70  1  0
 72 73  1  0
 72 71  1  0
 73 69  1  0
 74 75  2  0
 75 76  1  0
 77 76  2  0
 78 77  1  0
 79 53  1  0
 79 80  1  0
 79 89  1  0
 80 83  1  0
 81 85  1  0
 81 80  1  0
 82 81  2  0
 85 84  1  0
 87 85  1  0
 87 88  1  0
 87 86  1  0
 89 92  1  1
 89 90  1  0
 91 89  1  0
M  ISO  4   1 100  20 100  51 101  52 101
M  END
>  <TORSDO>  (57) 
F 18

>  <SCORE>  (57) 
-5.917

>  <name>  (57) 
56

>  <ligand_id>  (57) 
56

>  <original_smiles>  (57) 
[H]c1c([H])c([H])c2c(c1[H])C([H])([H])C([H])([H])C([H])([H])C2([H])N([H])C(=O)C1([H])N(C(=O)C([H])(N([H])C(=O)C([H])(N([H])C([H])([H])[H])C([H])([H])[H])C(C([H])([H])[H])(C([H])([H])[H])C([H])([H])[H])C([H])([H])c2c([H])c(OC([H])([H])C([H])([H])C([H])([H])c3c([H])c4c(c([H])c3C([H])([H])[H])C([H])([H])C([H])([H])N(C(=O)N3C([H])([H])C([H])([H])C([H])([H])C([H])(n5nc(-c6c([H])c([H])c(Oc7c([H])c([H])c(F)c([H])c7F)c([H])c6[H])c(C(=O)N([H])[H])c5N([H])[H])C3([H])[H])C([H])([H])C4([H])[H])c([H])c([H])c2C1([H])[H]

>  <smiles>  (57) 
[H]c1c([H])c([H])c2c(c1[H])C([H])([H])C([H])([H])C([H])([H])C2([H])N([H])C(=O)C1([H])N(C(=O)C([H])(N([H])C(=O)C([H])(N([H])C([H])([H])[H])C([H])([H])[H])C(C([H])([H])[H])(C([H])([H])[H])C([H])([H])[H])C([H])([H])c2c([H])c(OC([H])([H])C([H])([H])C([H])([H])c3c([H])c4c(c([H])c3C([H])([H])[H])C([H])([H])C([H])([H])N(C(=O)N3C([H])([H])C([H])([H])C([H])([H])C([H])(n5nc(-c6c([H])c([H])c(Oc7c([H])c([H])c(F)c([H])c7F)c([H])c6[H])c(C(=O)N([H])[H])c5N([H])[H])C3([H])[H])C([H])([H])C4([H])[H])c([H])c([H])c2C1([H])[H]

$$$$
57:0:0
     RDKit          3D

 92100  0  0  1  0  0  0  0  0999 V2000
  -29.3100  -21.8210   21.8160 C   0  0  0  0  0  3  0  0  0  0  0  0
  -28.9130  -21.6430   20.4800 C   0  0  0  0  0  0  0  0  0  0  0  0
  -28.5360  -23.0370   19.8790 C   0  0  0  0  0  0  0  0  0  0  0  0
  -28.9430  -24.3270   21.8960 C   0  0  0  0  0  0  0  0  0  0  0  0
  -29.3370  -23.0750   22.4790 C   0  0  0  0  0  0  0  0  0  0  0  0
  -28.5060  -24.4550   20.5410 C   0  0  0  0  0  0  0  0  0  0  0  0
  -28.1470  -23.0000   18.4180 C   0  0  0  0  0  1  0  0  0  0  0  0
  -29.0800  -25.5820   22.7550 C   0  0  0  0  0  1  0  0  0  0  0  0
  -29.8060  -23.0480   23.7950 N   0  0  0  0  0  0  0  0  0  0  0  0
  -30.4030  -22.2750   24.0740 H   0  0  0  0  0  0  0  0  0  0  0  0
  -30.0850  -23.9250   24.2220 H   0  0  0  0  0  0  0  0  0  0  0  0
  -28.3590  -25.9190   20.0210 O   0  0  0  0  0  0  0  0  0  0  0  0
  -24.7160  -31.8680   23.1650 C   0  0  0  0  0  0  0  0  0  0  0  0
  -27.3030  -26.9940   20.1090 C   0  0  0  0  0  0  0  0  0  0  0  0
  -23.5230  -30.4610   21.5380 C   0  0  0  0  0  3  0  0  0  0  0  0
  -24.9740  -28.8660   20.1020 C   0  0  0  0  0  0  0  0  0  0  0  0
  -26.0860  -30.6950   21.3620 C   0  0  0  0  0  2  0  0  0  0  0  0
  -26.1690  -29.2820   20.7040 C   0  0  0  0  0  0  0  0  0  0  0  0
  -27.3270  -28.3720   20.6730 C   0  0  0  0  0  3  0  0  0  0  0  0
  -26.0690  -26.7380   19.4680 C   0  0  0  0  0  3  0  0  0  0  0  0
  -24.9490  -27.6140   19.4640 C   0  0  0  0  0  3  0  0  0  0  0  0
  -23.7480  -29.7800   20.1600 C   0  0  0  0  0  2  0  0  0  0  0  0
  -24.7970  -31.0360   22.0740 N   0  0  0  0  0  0  0  0  0  0  0  0
  -23.6270  -32.1430   23.6960 O   0  0  0  0  0  0  0  0  0  0  0  0
  -22.8490  -29.4560   22.5110 C   0  0  0  0  0  0  0  0  0  0  0  0
  -21.5290  -29.2350   22.3670 N   0  0  0  0  0  0  0  0  0  0  0  0
  -23.5230  -28.8750   23.3650 O   0  0  0  0  0  0  0  0  0  0  0  0
  -21.0360  -29.7580   21.6570 H   0  0  0  0  0  0  0  0  0  0  0  0
  -18.2030  -27.8360   22.7910 C   0  0  0  0  0  0  0  0  0  0  0  0
  -20.7300  -28.2750   23.1390 C   0  0  0  0  0  3  0  0  0  0  0  0
  -20.9420  -26.8330   22.6220 C   0  0  0  0  0  2  0  0  0  0  0  0
  -19.9040  -26.4060   21.5810 C   0  0  0  0  0  2  0  0  0  0  0  0
  -18.4910  -26.4800   22.1680 C   0  0  0  0  0  2  0  0  0  0  0  0
  -19.2530  -28.6860   23.2300 C   0  0  0  0  0  0  0  0  0  0  0  0
  -18.9280  -29.9460   23.7760 C   0  0  0  0  0  3  0  0  0  0  0  0
  -17.5870  -30.3630   23.8800 C   0  0  0  0  0  3  0  0  0  0  0  0
  -16.5520  -29.5130   23.4520 C   0  0  0  0  0  3  0  0  0  0  0  0
  -16.8610  -28.2500   22.9150 C   0  0  0  0  0  3  0  0  0  0  0  0
  -25.9830  -32.5270   23.7880 C   0  0  0  0  0  3  0  0  0  0  0  0
  -26.4990  -31.7750   25.0770 C   0  0  1  0  0  0  0  0  0  0  0  0
  -25.4050  -31.5410   26.1460 C   0  0  0  0  0  1  0  0  0  0  0  0
  -27.0960  -30.3980   24.7140 C   0  0  0  0  0  1  0  0  0  0  0  0
  -27.6410  -32.5870   25.7330 C   0  0  0  0  0  1  0  0  0  0  0  0
  -25.6540  -33.9260   24.1200 N   0  0  0  0  0  0  0  0  0  0  0  0
  -25.9700  -34.9880   23.3680 C   0  0  0  0  0  0  0  0  0  0  0  0
  -26.6290  -34.8940   22.3300 O   0  0  0  0  0  0  0  0  0  0  0  0
  -25.0660  -34.0690   24.9280 H   0  0  0  0  0  0  0  0  0  0  0  0
  -24.2240  -36.7760   23.0480 C   0  0  0  0  0  1  0  0  0  0  0  0
  -25.4790  -36.3730   23.8390 C   0  0  0  0  0  3  0  0  0  0  0  0
  -27.6120  -37.2800   24.6530 C   0  0  0  0  0  1  0  0  0  0  0  0
  -26.5030  -37.4350   23.7150 N   0  0  0  0  0  0  0  0  0  0  0  0
  -26.0930  -38.3530   23.8580 H   0  0  0  0  0  0  0  0  0  0  0  0
  -28.8700  -19.9500   19.9280 C   0  0  0  0  0  3  0  0  0  0  0  0
  -29.7050  -18.3860   20.4090 C   0  0  0  0  0  3  0  0  0  0  0  0
  -30.2450  -15.4440   19.9120 C   0  0  0  0  0  0  0  0  0  0  0  0
  -30.1870  -13.0160   18.9470 C   0  0  0  0  0  2  0  0  0  0  0  0
  -29.1850  -12.7950   17.7840 C   0  0  0  0  0  2  0  0  0  0  0  0
  -27.7820  -12.4760   18.3250 C   0  0  0  0  0  2  0  0  0  0  0  0
  -27.3920  -13.4060   19.4990 C   0  0  0  0  0  3  0  0  0  0  0  0
  -28.5180  -13.5720   20.5420 C   0  0  0  0  0  2  0  0  0  0  0  0
  -29.6780  -14.1340   19.8260 N   0  0  0  0  0  0  0  0  0  0  0  0
  -31.4620  -15.4400   19.6610 O   0  0  0  0  0  0  0  0  0  0  0  0
  -29.4860  -16.7290   20.0840 N   0  0  0  0  0  0  0  0  0  0  0  0
  -28.5030  -16.4990   20.1420 H   0  0  0  0  0  0  0  0  0  0  0  0
  -25.0730  -13.9050   20.4300 C   0  0  0  0  0  0  0  0  0  0  0  0
  -24.0530  -13.1040   20.8550 C   0  0  0  0  0  0  0  0  0  0  0  0
  -24.5360  -11.7620   20.7660 C   0  0  0  0  0  0  0  0  0  0  0  0
  -26.1100  -13.0520   20.0960 N   0  0  0  0  0  0  0  0  0  0  0  0
  -25.8040  -11.7540   20.3650 N   0  0  0  0  0  0  0  0  0  0  0  0
  -23.8400  -10.4870   20.9770 C   0  0  0  0  0  0  0  0  0  0  0  0
  -24.3190   -9.5240   21.8920 C   0  0  0  0  0  3  0  0  0  0  0  0
  -23.6170   -8.3160   22.0930 C   0  0  0  0  0  3  0  0  0  0  0  0
  -22.4220   -8.0600   21.3810 C   0  0  0  0  0  0  0  0  0  0  0  0
  -21.9620   -9.0120   20.4550 C   0  0  0  0  0  3  0  0  0  0  0  0
  -22.6630  -10.2120   20.2510 C   0  0  0  0  0  3  0  0  0  0  0  0
  -21.6870   -6.9050   21.4930 O   0  0  0  0  0  0  0  0  0  0  0  0
  -21.6770   -6.1690   22.6510 C   0  0  0  0  0  0  0  0  0  0  0  0
  -21.2190   -6.7080   23.8740 C   0  0  0  0  0  3  0  0  0  0  0  0
  -21.1610   -5.8940   25.0230 C   0  0  0  0  0  3  0  0  0  0  0  0
  -21.5490   -4.5430   24.9500 C   0  0  0  0  0  0  0  0  0  0  0  0
  -22.0000   -4.0050   23.7330 C   0  0  0  0  0  3  0  0  0  0  0  0
  -22.0600   -4.8150   22.5860 C   0  0  0  0  0  0  0  0  0  0  0  0
  -22.4750   -4.2850   21.4100 F   0  0  0  0  0  0  0  0  0  0  0  0
  -21.4860   -3.7580   26.0520 F   0  0  0  0  0  0  0  0  0  0  0  0
  -22.6700  -13.5560   21.2250 C   0  0  0  0  0  0  0  0  0  0  0  0
  -22.0070  -12.8350   22.1220 N   0  0  0  0  0  0  0  0  0  0  0  0
  -22.1880  -14.5830   20.7520 O   0  0  0  0  0  0  0  0  0  0  0  0
  -22.4090  -12.0010   22.5230 H   0  0  0  0  0  0  0  0  0  0  0  0
  -21.0840  -13.1240   22.4120 H   0  0  0  0  0  0  0  0  0  0  0  0
  -25.2040  -15.2820   20.2700 N   0  0  0  0  0  0  0  0  0  0  0  0
  -24.4370  -15.9240   20.4420 H   0  0  0  0  0  0  0  0  0  0  0  0
  -26.0120  -15.7370   19.8690 H   0  0  0  0  0  0  0  0  0  0  0  0
  1  5  1  0
  2  1  2  0
  3  2  1  0
  3  6  2  0
  4  5  2  0
  4  8  1  0
  5  9  1  0
  6  4  1  0
  7  3  1  0
  9 10  1  0
  9 11  1  0
 12 14  1  0
 12  6  1  0
 13 24  2  0
 14 19  1  0
 15 23  1  0
 15 25  1  0
 16 22  1  0
 16 18  1  0
 17 23  1  0
 18 17  1  0
 19 18  2  0
 20 14  2  0
 21 20  1  0
 21 16  2  0
 22 15  1  0
 23 13  1  0
 25 27  2  0
 26 25  1  0
 28 26  1  0
 29 38  2  0
 29 34  1  0
 30 26  1  0
 30 34  1  0
 31 30  1  0
 32 33  1  0
 32 31  1  0
 33 29  1  0
 34 35  2  0
 35 36  1  0
 37 36  2  0
 38 37  1  0
 39 13  1  0
 39 44  1  0
 39 40  1  0
 40 43  1  1
 40 41  1  0
 42 40  1  0
 44 47  1  0
 45 49  1  0
 45 44  1  0
 46 45  2  0
 49 48  1  0
 51 49  1  0
 51 52  1  0
 51 50  1  0
 53 54  2  0
 53  2  1  0
 55 63  1  0
 56 61  1  0
 57 58  1  0
 57 56  1  0
 59 58  1  0
 59 68  1  0
 59 60  1  0
 61 55  1  0
 61 60  1  0
 62 55  2  0
 63 64  1  0
 63 54  1  0
 65 66  2  0
 66 85  1  0
 67 66  1  0
 67 70  1  0
 68 69  1  0
 68 65  1  0
 69 67  2  0
 70 71  1  0
 71 72  2  0
 73 76  1  0
 73 72  1  0
 74 73  2  0
 75 74  1  0
 75 70  2  0
 76 77  1  0
 77 78  1  0
 78 79  2  0
 80 79  1  0
 80 84  1  0
 81 80  2  0
 82 77  2  0
 82 81  1  0
 83 82  1  0
 85 86  1  0
 86 89  1  0
 86 88  1  0
 87 85  2  0
 90 65  1  0
 90 91  1  0
 92 90  1  0
M  ISO  4   6 101  12 101  55 100  63 100
M  END
>  <TORSDO>  (58) 
F 19

>  <SCORE>  (58) 
-16.020

>  <name>  (58) 
57

>  <ligand_id>  (58) 
57

>  <original_smiles>  (58) 
[H]c1c([H])c([H])c2c(c1[H])C([H])([H])C([H])([H])C([H])([H])C2([H])N([H])C(=O)C1([H])N(C(=O)C([H])(N([H])C(=O)C([H])(N([H])C([H])([H])[H])C([H])([H])[H])C(C([H])([H])[H])(C([H])([H])[H])C([H])([H])[H])C([H])([H])c2c([H])c(Oc3c(C([H])([H])[H])c(N([H])[H])c([H])c(C([H])([H])C([H])([H])N([H])C(=O)N4C([H])([H])C([H])([H])C([H])([H])C([H])(n5nc(-c6c([H])c([H])c(Oc7c([H])c([H])c(F)c([H])c7F)c([H])c6[H])c(C(=O)N([H])[H])c5N([H])[H])C4([H])[H])c3C([H])([H])[H])c([H])c([H])c2C1([H])[H]

>  <smiles>  (58) 
[H]c1c([H])c([H])c2c(c1[H])C([H])([H])C([H])([H])C([H])([H])C2([H])N([H])C(=O)C1([H])N(C(=O)C([H])(N([H])C(=O)C([H])(N([H])C([H])([H])[H])C([H])([H])[H])C(C([H])([H])[H])(C([H])([H])[H])C([H])([H])[H])C([H])([H])c2c([H])c(Oc3c(C([H])([H])[H])c(N([H])[H])c([H])c(C([H])([H])C([H])([H])N([H])C(=O)N4C([H])([H])C([H])([H])C([H])([H])C([H])(n5nc(-c6c([H])c([H])c(Oc7c([H])c([H])c(F)c([H])c7F)c([H])c6[H])c(C(=O)N([H])[H])c5N([H])[H])C4([H])[H])c3C([H])([H])[H])c([H])c([H])c2C1([H])[H]

$$$$
58:0:0
     RDKit          3D

 95 98  0  0  1  0  0  0  0  0999 V2000
  -27.4770  -22.1970   20.4910 C   0  0  0  0  0  3  0  0  0  0  0  0
  -26.9530  -23.7520   18.7620 C   0  0  0  0  0  3  0  0  0  0  0  0
  -27.2120  -20.8420   19.6820 C   0  0  0  0  0  0  0  0  0  0  0  0
  -26.6930  -22.6110   17.9470 C   0  0  0  0  0  0  0  0  0  0  0  0
  -26.8260  -21.2340   18.3590 C   0  0  0  0  0  0  0  0  0  0  0  0
  -27.3470  -23.7410   20.1160 C   0  0  0  0  0  0  0  0  0  0  0  0
  -26.2610  -22.9370   16.5210 C   0  0  0  0  0  1  0  0  0  0  0  0
  -26.6010  -20.1400   17.3140 C   0  0  0  0  0  1  0  0  0  0  0  0
  -27.3630  -19.0560   20.0000 C   0  0  0  0  0  0  0  0  0  0  0  0
  -28.3280  -18.7770   20.7140 O   0  0  0  0  0  0  0  0  0  0  0  0
  -26.4410  -17.5310   19.5490 C   0  0  0  0  0  2  0  0  0  0  0  0
  -24.0710  -14.4880   19.7770 C   0  0  0  0  0  3  0  0  0  0  0  0
  -25.8800  -12.7830   22.4110 C   0  0  0  0  0 15  0  0  0  0  0  0
  -26.0530  -15.6940   19.9880 C   0  0  0  0  0  1  0  0  0  0  0  0
  -27.5380  -14.4740   21.4970 C   0  0  0  0  0 15  0  0  0  0  0  0
  -23.9290  -13.1430   20.9880 N   0  0  0  0  0  2  0  0  0  0  0  0
  -23.2090  -14.7680   18.9450 O   0  0  0  0  0  0  0  0  0  0  0  0
  -23.1100  -12.5490   21.0420 H   0  0  0  0  0  0  0  0  0  0  0  0
  -29.5690  -14.1160   21.0070 C   0  0  0  0  0  2  0  0  0  0  0  0
  -31.3760  -12.2780   19.9420 C   0  0  0  0  0  2  0  0  0  0  0  0
  -30.9140  -11.6890   18.5220 C   0  0  0  0  0  2  0  0  0  0  0  0
  -29.4690  -11.1440   18.5220 C   0  0  0  0  0  2  0  0  0  0  0  0
  -28.8330  -12.0130   19.5060 C   0  0  0  0  0  3  0  0  0  0  0  0
  -29.3510  -11.8630   20.9430 C   0  0  0  0  0  2  0  0  0  0  0  0
  -30.2490  -12.8690   20.8570 N   0  0  0  0  0  0  0  0  0  0  0  0
  -30.5810  -14.8350   20.6280 O   0  0  0  0  0  1  0  0  0  0  0  0
  -26.8720  -13.2590   19.3980 C   0  0  0  0  0  3  0  0  0  0  0  0
  -26.0400  -13.1620   20.4170 C   0  0  0  0  0  2  0  0  0  0  0  0
  -25.7820  -11.5600   20.2760 C   0  0  0  0  0  3  0  0  0  0  0  0
  -27.4990  -12.0920   19.5330 N   0  0  0  0  0  0  0  0  0  0  0  0
  -26.8950  -11.0380   20.0090 N   0  0  0  0  0  2  0  0  0  0  0  0
  -24.8560  -10.3840   20.8310 C   0  0  0  0  0  0  0  0  0  0  0  0
  -25.2640   -9.2850   21.6790 C   0  0  0  0  0  3  0  0  0  0  0  0
  -24.4200   -8.1720   21.9980 C   0  0  0  0  0  3  0  0  0  0  0  0
  -23.1060   -8.0930   21.4760 C   0  0  0  0  0  0  0  0  0  0  0  0
  -22.6780   -9.1680   20.6730 C   0  0  0  0  0  3  0  0  0  0  0  0
  -23.5210  -10.2670   20.3680 C   0  0  0  0  0  3  0  0  0  0  0  0
  -22.2390   -7.0160   21.6050 O   0  0  0  0  0  0  0  0  0  0  0  0
  -22.1130   -6.2580   22.7500 C   0  0  0  0  0  0  0  0  0  0  0  0
  -21.6610   -6.8180   23.9650 C   0  0  0  0  0  3  0  0  0  0  0  0
  -21.4680   -6.0010   25.0980 C   0  0  0  0  0  3  0  0  0  0  0  0
  -21.7160   -4.6160   25.0240 C   0  0  0  0  0  0  0  0  0  0  0  0
  -22.1460   -4.0480   23.8130 C   0  0  0  0  0  3  0  0  0  0  0  0
  -22.3360   -4.8630   22.6800 C   0  0  0  0  0  0  0  0  0  0  0  0
  -22.7230   -4.2920   21.5140 F   0  0  0  0  0  0  0  0  0  0  0  0
  -21.5370   -3.8320   26.1150 F   0  0  0  0  0  0  0  0  0  0  0  0
  -25.0810  -14.7110   22.2050 C   0  0  0  0  0  2  0  0  0  0  0  0
  -24.1550  -14.2640   23.1670 N   0  0  0  0  0  0  0  0  0  0  0  0
  -24.4030  -15.7440   22.0210 O   0  0  0  0  0  1  0  0  0  0  0  0
  -23.5320  -14.9320   23.5930 H   0  0  0  0  0  0  0  0  0  0  0  0
  -23.9770  -13.2760   23.2550 H   0  0  0  0  0  0  0  0  0  0  0  0
  -27.5080  -14.2710   18.7070 N   0  0  0  0  0  0  0  0  0  0  0  0
  -27.1710  -15.2220   18.6630 H   0  0  0  0  0  0  0  0  0  0  0  0
  -28.2440  -14.0930   18.0340 H   0  0  0  0  0  0  0  0  0  0  0  0
  -27.6650  -25.2020   20.7010 O   0  0  0  0  0  0  0  0  0  0  0  0
  -24.6480  -31.7860   23.0100 C   0  0  0  0  0  0  0  0  0  0  0  0
  -27.0380  -26.5490   20.4220 C   0  0  0  0  0  0  0  0  0  0  0  0
  -23.5400  -30.3080   21.4050 C   0  0  0  0  0  3  0  0  0  0  0  0
  -25.0170  -28.6630   20.0900 C   0  0  0  0  0  0  0  0  0  0  0  0
  -26.1190  -30.4440   21.4010 C   0  0  0  0  0  2  0  0  0  0  0  0
  -26.1710  -28.9940   20.8080 C   0  0  0  0  0  0  0  0  0  0  0  0
  -27.2000  -27.9420   20.9640 C   0  0  0  0  0  3  0  0  0  0  0  0
  -25.9510  -26.4650   19.5540 C   0  0  0  0  0  3  0  0  0  0  0  0
  -24.9560  -27.4410   19.4240 C   0  0  0  0  0  3  0  0  0  0  0  0
  -23.8310  -29.6140   20.0530 C   0  0  0  0  0  2  0  0  0  0  0  0
  -24.7930  -30.8830   21.9870 N   0  0  0  0  0  0  0  0  0  0  0  0
  -23.5290  -32.0960   23.4540 O   0  0  0  0  0  0  0  0  0  0  0  0
  -22.8230  -29.3300   22.3750 C   0  0  0  0  0  0  0  0  0  0  0  0
  -21.4890  -29.1950   22.2520 N   0  0  0  0  0  0  0  0  0  0  0  0
  -23.4720  -28.7040   23.2160 O   0  0  0  0  0  0  0  0  0  0  0  0
  -21.0190  -29.7530   21.5540 H   0  0  0  0  0  0  0  0  0  0  0  0
  -18.0700  -28.1280   22.8290 C   0  0  0  0  0  0  0  0  0  0  0  0
  -20.6420  -28.2970   23.0470 C   0  0  0  0  0  3  0  0  0  0  0  0
  -20.6780  -26.8570   22.4860 C   0  0  0  0  0  2  0  0  0  0  0  0
  -19.5470  -26.5680   21.4930 C   0  0  0  0  0  2  0  0  0  0  0  0
  -18.1830  -26.7690   22.1590 C   0  0  0  0  0  2  0  0  0  0  0  0
  -19.2240  -28.8520   23.2320 C   0  0  0  0  0  0  0  0  0  0  0  0
  -19.0610  -30.1240   23.8250 C   0  0  0  0  0  3  0  0  0  0  0  0
  -17.7770  -30.6700   24.0150 C   0  0  0  0  0  3  0  0  0  0  0  0
  -16.6390  -29.9430   23.6260 C   0  0  0  0  0  3  0  0  0  0  0  0
  -16.7860  -28.6750   23.0390 C   0  0  0  0  0  3  0  0  0  0  0  0
  -25.8740  -32.4910   23.6590 C   0  0  0  0  0  3  0  0  0  0  0  0
  -26.4440  -31.7080   24.9070 C   0  0  1  0  0  0  0  0  0  0  0  0
  -25.3670  -31.3250   25.9510 C   0  0  0  0  0  1  0  0  0  0  0  0
  -27.1510  -30.4060   24.4710 C   0  0  0  0  0  1  0  0  0  0  0  0
  -27.5150  -32.5680   25.6180 C   0  0  0  0  0  1  0  0  0  0  0  0
  -25.4540  -33.8450   24.0690 N   0  0  0  0  0  0  0  0  0  0  0  0
  -25.7420  -34.9750   23.4110 C   0  0  0  0  0  0  0  0  0  0  0  0
  -26.4540  -34.9930   22.4040 O   0  0  0  0  0  0  0  0  0  0  0  0
  -24.8220  -33.8990   24.8540 H   0  0  0  0  0  0  0  0  0  0  0  0
  -23.9270  -36.7000   23.1160 C   0  0  0  0  0  1  0  0  0  0  0  0
  -25.1520  -36.2940   23.9530 C   0  0  0  0  0  3  0  0  0  0  0  0
  -27.1780  -37.2360   24.9760 C   0  0  0  0  0  1  0  0  0  0  0  0
  -26.1240  -37.4100   23.9800 N   0  0  0  0  0  0  0  0  0  0  0  0
  -25.6560  -38.2930   24.1640 H   0  0  0  0  0  0  0  0  0  0  0  0
  2  6  2  0
  3  9  1  0
  3  1  2  0
  4  5  2  0
  4  2  1  0
  5  3  1  0
  6  1  1  0
  6 55  1  0
  7  4  1  0
  8  5  1  0
  9 10  2  0
 11 14  1  0
 11  9  1  0
 12 16  1  0
 16 18  1  0
 17 12  2  0
 20 25  1  0
 21 20  1  0
 22 21  1  0
 23 22  1  0
 23 30  1  0
 23 24  1  0
 25 24  1  0
 25 19  1  0
 26 19  1  0
 27 52  1  0
 27 30  1  0
 27 28  1  0
 29 28  1  0
 29 32  1  0
 30 31  1  0
 31 29  1  0
 32 33  1  0
 33 34  2  0
 35 38  1  0
 35 34  1  0
 36 35  2  0
 37 36  1  0
 37 32  2  0
 38 39  1  0
 39 40  1  0
 40 41  2  0
 42 41  1  0
 42 46  1  0
 43 42  2  0
 44 39  2  0
 44 43  1  0
 45 44  1  0
 47 48  1  0
 48 51  1  0
 48 50  1  0
 49 47  1  0
 53 52  1  0
 54 52  1  0
 56 67  2  0
 57 55  1  0
 57 62  1  0
 58 66  1  0
 58 68  1  0
 59 61  1  0
 60 66  1  0
 61 62  2  0
 61 60  1  0
 63 57  2  0
 64 63  1  0
 64 59  2  0
 65 59  1  0
 65 58  1  0
 66 56  1  0
 68 70  2  0
 69 68  1  0
 71 69  1  0
 72 81  2  0
 72 77  1  0
 73 69  1  0
 73 77  1  0
 74 73  1  0
 75 76  1  0
 75 74  1  0
 76 72  1  0
 77 78  2  0
 78 79  1  0
 80 79  2  0
 81 80  1  0
 82 56  1  0
 82 87  1  0
 82 83  1  0
 83 86  1  1
 83 84  1  0
 85 83  1  0
 87 90  1  0
 88 92  1  0
 88 87  1  0
 89 88  2  0
 92 91  1  0
 92 94  1  0
 94 95  1  0
 94 93  1  0
M  ISO  4   6 101  15 100  19 100  55 101
M  END
>  <TORSDO>  (59) 
F 19

>  <SCORE>  (59) 
-6.367

>  <name>  (59) 
58

>  <ligand_id>  (59) 
58

>  <original_smiles>  (59) 
[H]c1c([H])c([H])c2c(c1[H])C([H])([H])C([H])([H])C([H])([H])C2([H])N([H])C(=O)C1([H])N(C(=O)C([H])(N([H])C(=O)C([H])(N([H])C([H])([H])[H])C([H])([H])[H])C(C([H])([H])[H])(C([H])([H])[H])C([H])([H])[H])C([H])([H])c2c([H])c(Oc3c([H])c(C(=O)C([H])([H])C4([H])C(=O)N([H])C([H])([H])C4([H])C(=O)N4C([H])([H])C([H])([H])C([H])([H])C([H])(n5nc(-c6c([H])c([H])c(Oc7c([H])c([H])c(F)c([H])c7F)c([H])c6[H])c(C(=O)N([H])[H])c5N([H])[H])C4([H])[H])c(C([H])([H])[H])c(C([H])([H])[H])c3[H])c([H])c([H])c2C1([H])[H]

>  <smiles>  (59) 
[H]c1c([H])c([H])c2c(c1[H])C([H])([H])C([H])([H])C([H])([H])C2([H])N([H])C(=O)C1([H])N(C(=O)C([H])(N([H])C(=O)C([H])(N([H])C([H])([H])[H])C([H])([H])[H])C(C([H])([H])[H])(C([H])([H])[H])C([H])([H])[H])C([H])([H])c2c([H])c(Oc3c([H])c(C(=O)C([H])([H])C4([H])C(=O)N([H])C([H])([H])C4([H])C(=O)N4C([H])([H])C([H])([H])C([H])([H])C([H])(n5nc(-c6c([H])c([H])c(Oc7c([H])c([H])c(F)c([H])c7F)c([H])c6[H])c(C(=O)N([H])[H])c5N([H])[H])C4([H])[H])c(C([H])([H])[H])c(C([H])([H])[H])c3[H])c([H])c([H])c2C1([H])[H]

$$$$
59:0:0
     RDKit          3D

 91 99  0  0  1  0  0  0  0  0999 V2000
  -29.7060  -17.7770   22.1090 C   0  0  0  0  0  3  0  0  0  0  0  0
  -29.3910  -18.9490   21.3960 C   0  0  0  0  0  3  0  0  0  0  0  0
  -30.1440  -16.4370   20.0690 C   0  0  0  0  0  0  0  0  0  0  0  0
  -30.1220  -16.5720   21.4910 C   0  0  0  0  0  0  0  0  0  0  0  0
  -29.4770  -19.0110   19.9950 C   0  0  0  0  0  0  0  0  0  0  0  0
  -29.8380  -17.7140   19.3490 C   0  0  0  0  0  0  0  0  0  0  0  0
  -30.6890  -15.0660   19.4240 C   0  0  0  0  0  0  0  0  0  0  0  0
  -30.3820  -12.7510   18.4390 C   0  0  0  0  0  2  0  0  0  0  0  0
  -29.3060  -12.7640   17.3280 C   0  0  0  0  0  2  0  0  0  0  0  0
  -27.9090  -12.5370   17.9300 C   0  0  0  0  0  2  0  0  0  0  0  0
  -27.6590  -13.4320   19.1680 C   0  0  0  0  0  3  0  0  0  0  0  0
  -28.8400  -13.4210   20.1550 C   0  0  0  0  0  2  0  0  0  0  0  0
  -30.0530  -13.8220   19.4280 N   0  0  0  0  0  0  0  0  0  0  0  0
  -31.7730  -15.1210   18.8360 O   0  0  0  0  0  0  0  0  0  0  0  0
  -25.4200  -13.9840   20.2760 C   0  0  0  0  0  0  0  0  0  0  0  0
  -24.4070  -13.1960   20.7500 C   0  0  0  0  0  0  0  0  0  0  0  0
  -24.8430  -11.8470   20.5810 C   0  0  0  0  0  0  0  0  0  0  0  0
  -26.4020  -13.1140   19.8360 N   0  0  0  0  0  0  0  0  0  0  0  0
  -26.0760  -11.8190   20.0850 N   0  0  0  0  0  0  0  0  0  0  0  0
  -24.1320  -10.5810   20.8030 C   0  0  0  0  0  0  0  0  0  0  0  0
  -24.6140   -9.6100   21.7080 C   0  0  0  0  0  3  0  0  0  0  0  0
  -23.9010   -8.4100   21.9200 C   0  0  0  0  0  3  0  0  0  0  0  0
  -22.6910   -8.1720   21.2260 C   0  0  0  0  0  0  0  0  0  0  0  0
  -22.2270   -9.1310   20.3090 C   0  0  0  0  0  3  0  0  0  0  0  0
  -22.9410  -10.3220   20.0960 C   0  0  0  0  0  3  0  0  0  0  0  0
  -21.9440   -7.0250   21.3470 O   0  0  0  0  0  0  0  0  0  0  0  0
  -21.8620   -6.3420   22.5340 C   0  0  0  0  0  0  0  0  0  0  0  0
  -21.3850   -6.9520   23.7140 C   0  0  0  0  0  3  0  0  0  0  0  0
  -21.2510   -6.1950   24.8950 C   0  0  0  0  0  3  0  0  0  0  0  0
  -21.5850   -4.8270   24.8960 C   0  0  0  0  0  0  0  0  0  0  0  0
  -22.0560   -4.2160   23.7200 C   0  0  0  0  0  3  0  0  0  0  0  0
  -22.1930   -4.9720   22.5430 C   0  0  0  0  0  0  0  0  0  0  0  0
  -22.6260   -4.3730   21.4080 F   0  0  0  0  0  0  0  0  0  0  0  0
  -21.4500   -4.0960   26.0270 F   0  0  0  0  0  0  0  0  0  0  0  0
  -23.0700  -13.6670   21.2430 C   0  0  0  0  0  0  0  0  0  0  0  0
  -22.4690  -12.9360   22.1740 N   0  0  0  0  0  0  0  0  0  0  0  0
  -22.5730  -14.7170   20.8370 O   0  0  0  0  0  0  0  0  0  0  0  0
  -22.8870  -12.0840   22.5200 H   0  0  0  0  0  0  0  0  0  0  0  0
  -21.5780  -13.2330   22.5470 H   0  0  0  0  0  0  0  0  0  0  0  0
  -25.5820  -15.3610   20.1590 N   0  0  0  0  0  0  0  0  0  0  0  0
  -24.8620  -16.0200   20.4360 H   0  0  0  0  0  0  0  0  0  0  0  0
  -26.4070  -15.8120   19.7840 H   0  0  0  0  0  0  0  0  0  0  0  0
  -32.1820  -15.6880   22.6620 C   0  0  0  0  0  1  0  0  0  0  0  0
  -30.6760  -15.5080   22.4400 C   0  0  0  0  0  2  0  0  0  0  0  0
  -31.2770  -18.1870   17.3050 C   0  0  0  0  0  1  0  0  0  0  0  0
  -29.9150  -17.7130   17.8270 C   0  0  0  0  0  2  0  0  0  0  0  0
  -29.2300  -20.4850   19.2990 C   0  0  0  0  0  3  0  0  0  0  0  0
  -28.7420  -21.8950   20.0810 C   0  0  0  0  0  3  0  0  0  0  0  0
  -28.7950  -23.4560   19.4440 C   0  0  0  0  0  3  0  0  0  0  0  0
  -28.0650  -24.8140   20.1130 C   0  0  0  0  0  3  0  0  0  0  0  0
  -28.2910  -26.3120   19.7630 O   0  0  0  0  0  0  0  0  0  0  0  0
  -24.8030  -31.8600   23.1330 C   0  0  0  0  0  0  0  0  0  0  0  0
  -27.2250  -27.2740   19.8280 C   0  0  0  0  0  0  0  0  0  0  0  0
  -23.5210  -30.5210   21.5100 C   0  0  0  0  0  3  0  0  0  0  0  0
  -24.8950  -28.9980   19.9640 C   0  0  0  0  0  0  0  0  0  0  0  0
  -26.0610  -30.8030   21.2230 C   0  0  0  0  0  2  0  0  0  0  0  0
  -26.1030  -29.4330   20.5260 C   0  0  0  0  0  0  0  0  0  0  0  0
  -27.2710  -28.5890   20.4390 C   0  0  0  0  0  3  0  0  0  0  0  0
  -25.9940  -26.9370   19.2280 C   0  0  0  0  0  3  0  0  0  0  0  0
  -24.8520  -27.7650   19.2970 C   0  0  0  0  0  3  0  0  0  0  0  0
  -23.6710  -29.8900   20.1000 C   0  0  0  0  0  2  0  0  0  0  0  0
  -24.8180  -31.0810   22.0100 N   0  0  0  0  0  0  0  0  0  0  0  0
  -23.7460  -32.1240   23.7270 O   0  0  0  0  0  0  0  0  0  0  0  0
  -22.8940  -29.4780   22.4710 C   0  0  0  0  0  0  0  0  0  0  0  0
  -21.5690  -29.2730   22.3720 N   0  0  0  0  0  0  0  0  0  0  0  0
  -23.6020  -28.8590   23.2690 O   0  0  0  0  0  0  0  0  0  0  0  0
  -21.0520  -29.8260   21.7020 H   0  0  0  0  0  0  0  0  0  0  0  0
  -18.2460  -27.9300   22.8840 C   0  0  0  0  0  0  0  0  0  0  0  0
  -20.7920  -28.3020   23.1460 C   0  0  0  0  0  3  0  0  0  0  0  0
  -20.9540  -26.8740   22.5730 C   0  0  0  0  0  2  0  0  0  0  0  0
  -19.8650  -26.5040   21.5610 C   0  0  0  0  0  2  0  0  0  0  0  0
  -18.4800  -26.5880   22.2080 C   0  0  0  0  0  2  0  0  0  0  0  0
  -19.3310  -28.7400   23.3110 C   0  0  0  0  0  0  0  0  0  0  0  0
  -19.0590  -29.9910   23.9060 C   0  0  0  0  0  3  0  0  0  0  0  0
  -17.7340  -30.4330   24.0770 C   0  0  0  0  0  3  0  0  0  0  0  0
  -16.6630  -29.6220   23.6650 C   0  0  0  0  0  3  0  0  0  0  0  0
  -16.9190  -28.3700   23.0760 C   0  0  0  0  0  3  0  0  0  0  0  0
  -26.1120  -32.4770   23.7160 C   0  0  0  0  0  3  0  0  0  0  0  0
  -25.8210  -33.8680   24.0970 N   0  0  0  0  0  0  0  0  0  0  0  0
  -26.1310  -34.9430   23.3600 C   0  0  0  0  0  0  0  0  0  0  0  0
  -26.7580  -34.8670   22.3010 O   0  0  0  0  0  0  0  0  0  0  0  0
  -25.2610  -34.0010   24.9260 H   0  0  0  0  0  0  0  0  0  0  0  0
  -24.4010  -36.7570   23.1340 C   0  0  0  0  0  1  0  0  0  0  0  0
  -25.6720  -36.3200   23.8780 C   0  0  0  0  0  3  0  0  0  0  0  0
  -27.8450  -37.1750   24.6440 C   0  0  0  0  0  1  0  0  0  0  0  0
  -26.7050  -37.3720   23.7520 N   0  0  0  0  0  0  0  0  0  0  0  0
  -26.3110  -38.2890   23.9400 H   0  0  0  0  0  0  0  0  0  0  0  0
  -26.6770  -31.6730   24.9520 C   0  0  1  0  0  0  0  0  0  0  0  0
  -25.6220  -31.3980   26.0500 C   0  0  0  0  0  1  0  0  0  0  0  0
  -27.2550  -30.3100   24.5070 C   0  0  0  0  0  1  0  0  0  0  0  0
  -27.8430  -32.4590   25.5970 C   0  0  0  0  0  1  0  0  0  0  0  0
  2  1  2  0
  3  4  2  0
  4  1  1  0
  4 44  1  0
  5  2  1  0
  6  5  2  0
  6  3  1  0
  7 13  1  0
  7  3  1  0
  8 13  1  0
  9 10  1  0
  9  8  1  0
 11 10  1  0
 11 18  1  0
 11 12  1  0
 13 12  1  0
 14  7  2  0
 15 16  2  0
 16 35  1  0
 17 16  1  0
 17 20  1  0
 18 19  1  0
 18 15  1  0
 19 17  2  0
 20 21  1  0
 21 22  2  0
 23 26  1  0
 23 22  1  0
 24 23  2  0
 25 24  1  0
 25 20  2  0
 26 27  1  0
 27 32  2  0
 27 28  1  0
 28 29  2  0
 29 30  1  0
 30 34  1  0
 31 30  2  0
 32 31  1  0
 33 32  1  0
 35 36  1  0
 36 38  1  0
 36 39  1  0
 37 35  2  0
 40 15  1  0
 40 41  1  0
 42 40  1  0
 44 43  1  0
 45 46  1  0
 46  6  1  0
 47  5  1  0
 47 48  2  0
 49 48  1  0
 49 50  2  0
 51 53  1  0
 51 50  1  0
 52 63  2  0
 53 58  1  0
 54 62  1  0
 54 64  1  0
 55 61  1  0
 55 57  1  0
 56 62  1  0
 57 56  1  0
 58 57  2  0
 59 60  1  0
 59 53  2  0
 60 55  2  0
 61 54  1  0
 62 52  1  0
 64 66  2  0
 65 64  1  0
 67 65  1  0
 68 77  2  0
 68 73  1  0
 69 65  1  0
 69 73  1  0
 70 69  1  0
 71 72  1  0
 71 70  1  0
 72 68  1  0
 73 74  2  0
 74 75  1  0
 76 75  2  0
 77 76  1  0
 78 52  1  0
 78 79  1  0
 78 88  1  0
 79 82  1  0
 80 84  1  0
 80 79  1  0
 81 80  2  0
 84 83  1  0
 86 84  1  0
 86 87  1  0
 86 85  1  0
 88 91  1  1
 88 89  1  0
 90 88  1  0
M  ISO  4   3 100   7 100  50 101  51 101
M  END
>  <TORSDO>  (60) 
F 22

>  <SCORE>  (60) 
-7.717

>  <name>  (60) 
59

>  <ligand_id>  (60) 
59

>  <original_smiles>  (60) 
[H]c1c([H])c([H])c2c(c1[H])C([H])([H])C([H])([H])C([H])([H])C2([H])N([H])C(=O)C1([H])N(C(=O)C([H])(N([H])C(=O)C([H])(N([H])C([H])([H])[H])C([H])([H])[H])C(C([H])([H])[H])(C([H])([H])[H])C([H])([H])[H])C([H])([H])c2c([H])c(OC([H])([H])C([H])([H])C([H])([H])C([H])([H])c3c([H])c([H])c(C([H])([H])C([H])([H])[H])c(C(=O)N4C([H])([H])C([H])([H])C([H])([H])C([H])(n5nc(-c6c([H])c([H])c(Oc7c([H])c([H])c(F)c([H])c7F)c([H])c6[H])c(C(=O)N([H])[H])c5N([H])[H])C4([H])[H])c3C([H])([H])C([H])([H])[H])c([H])c([H])c2C1([H])[H]

>  <smiles>  (60) 
[H]c1c([H])c([H])c2c(c1[H])C([H])([H])C([H])([H])C([H])([H])C2([H])N([H])C(=O)C1([H])N(C(=O)C([H])(N([H])C(=O)C([H])(N([H])C([H])([H])[H])C([H])([H])[H])C(C([H])([H])[H])(C([H])([H])[H])C([H])([H])[H])C([H])([H])c2c([H])c(OC([H])([H])C([H])([H])C([H])([H])C([H])([H])c3c([H])c([H])c(C([H])([H])C([H])([H])[H])c(C(=O)N4C([H])([H])C([H])([H])C([H])([H])C([H])(n5nc(-c6c([H])c([H])c(Oc7c([H])c([H])c(F)c([H])c7F)c([H])c6[H])c(C(=O)N([H])[H])c5N([H])[H])C4([H])[H])c3C([H])([H])C([H])([H])[H])c([H])c([H])c2C1([H])[H]

$$$$
60:0:0
     RDKit          3D

 89 97  0  0  1  0  0  0  0  0999 V2000
  -30.1140  -21.8640   20.1250 C   0  0  0  0  0  3  0  0  0  0  0  0
  -29.7670  -23.3400   20.1470 C   0  0  0  0  0  3  0  0  0  0  0  0
  -29.2900  -20.6280   20.0960 C   0  0  0  0  0  0  0  0  0  0  0  0
  -27.6000  -22.8420   20.1450 C   0  0  0  0  0  0  0  0  0  0  0  0
  -28.4770  -24.0680   20.1520 C   0  0  0  0  0  0  0  0  0  0  0  0
  -27.9590  -21.3270   20.1080 C   0  0  0  0  0  0  0  0  0  0  0  0
  -26.1140  -23.1440   20.1830 C   0  0  0  0  0  1  0  0  0  0  0  0
  -26.8980  -20.4850   20.0730 F   0  0  0  0  0  0  0  0  0  0  0  0
  -30.8070  -18.9640   18.6600 C   0  0  0  0  0  1  0  0  0  0  0  0
  -30.0060  -18.8910   19.9720 C   0  0  0  0  0  0  0  0  0  0  0  0
  -30.4520  -15.7710   19.9770 C   0  0  0  0  0  0  0  0  0  0  0  0
  -30.4940  -13.2570   19.0810 C   0  0  0  0  0  2  0  0  0  0  0  0
  -29.5370  -12.8980   17.9090 C   0  0  0  0  0  2  0  0  0  0  0  0
  -28.1420  -12.5300   18.4320 C   0  0  0  0  0  2  0  0  0  0  0  0
  -27.6940  -13.4930   19.5550 C   0  0  0  0  0  3  0  0  0  0  0  0
  -28.7840  -13.7730   20.6160 C   0  0  0  0  0  2  0  0  0  0  0  0
  -29.9170  -14.4110   19.9090 N   0  0  0  0  0  0  0  0  0  0  0  0
  -31.6690  -15.7060   19.7170 O   0  0  0  0  0  0  0  0  0  0  0  0
  -29.7230  -17.1440   20.1300 N   0  0  0  0  0  4  0  0  0  0  0  0
  -28.7490  -16.9740   20.3340 H   0  0  0  0  0  0  0  0  0  0  0  0
  -25.3780  -13.9810   20.4730 C   0  0  0  0  0  0  0  0  0  0  0  0
  -24.3470  -13.1800   20.8750 C   0  0  0  0  0  0  0  0  0  0  0  0
  -24.8240  -11.8360   20.7720 C   0  0  0  0  0  0  0  0  0  0  0  0
  -26.4120  -13.1260   20.1390 N   0  0  0  0  0  0  0  0  0  0  0  0
  -26.0980  -11.8280   20.3860 N   0  0  0  0  0  0  0  0  0  0  0  0
  -24.1180  -10.5620   20.9610 C   0  0  0  0  0  0  0  0  0  0  0  0
  -24.5590   -9.6020   21.8980 C   0  0  0  0  0  3  0  0  0  0  0  0
  -23.8460   -8.3960   22.0760 C   0  0  0  0  0  3  0  0  0  0  0  0
  -22.6780   -8.1410   21.3190 C   0  0  0  0  0  0  0  0  0  0  0  0
  -22.2560   -9.0910   20.3720 C   0  0  0  0  0  3  0  0  0  0  0  0
  -22.9690  -10.2880   20.1910 C   0  0  0  0  0  3  0  0  0  0  0  0
  -21.9370   -6.9880   21.4070 O   0  0  0  0  0  0  0  0  0  0  0  0
  -21.8320   -6.2880   22.5820 C   0  0  0  0  0  0  0  0  0  0  0  0
  -21.2720   -6.8620   23.7440 C   0  0  0  0  0  3  0  0  0  0  0  0
  -21.1190   -6.0850   24.9100 C   0  0  0  0  0  3  0  0  0  0  0  0
  -21.5150   -4.7350   24.9140 C   0  0  0  0  0  0  0  0  0  0  0  0
  -22.0680   -4.1600   23.7560 C   0  0  0  0  0  3  0  0  0  0  0  0
  -22.2220   -4.9340   22.5930 C   0  0  0  0  0  0  0  0  0  0  0  0
  -22.7350   -4.3680   21.4730 F   0  0  0  0  0  0  0  0  0  0  0  0
  -21.3620   -3.9860   26.0320 F   0  0  0  0  0  0  0  0  0  0  0  0
  -22.9640  -13.6350   21.2320 C   0  0  0  0  0  0  0  0  0  0  0  0
  -22.2930  -12.9150   22.1230 N   0  0  0  0  0  0  0  0  0  0  0  0
  -22.4910  -14.6680   20.7590 O   0  0  0  0  0  0  0  0  0  0  0  0
  -22.6920  -12.0810   22.5280 H   0  0  0  0  0  0  0  0  0  0  0  0
  -21.3660  -13.2020   22.4050 H   0  0  0  0  0  0  0  0  0  0  0  0
  -25.5160  -15.3580   20.3300 N   0  0  0  0  0  0  0  0  0  0  0  0
  -24.7470  -15.9960   20.5030 H   0  0  0  0  0  0  0  0  0  0  0  0
  -26.3280  -15.8140   19.9370 H   0  0  0  0  0  0  0  0  0  0  0  0
  -28.3260  -25.6860   20.2090 O   0  0  0  0  0  0  0  0  0  0  0  0
  -24.7030  -31.8730   23.1910 C   0  0  0  0  0  0  0  0  0  0  0  0
  -27.2930  -26.8420   20.1890 C   0  0  0  0  0  0  0  0  0  0  0  0
  -23.5460  -30.4940   21.5150 C   0  0  0  0  0  3  0  0  0  0  0  0
  -25.0200  -28.8640   20.1100 C   0  0  0  0  0  0  0  0  0  0  0  0
  -26.1240  -30.6430   21.4430 C   0  0  0  0  0  2  0  0  0  0  0  0
  -26.1990  -29.2180   20.7750 C   0  0  0  0  0  0  0  0  0  0  0  0
  -27.3170  -28.2340   20.7840 C   0  0  0  0  0  3  0  0  0  0  0  0
  -26.0860  -26.7000   19.4600 C   0  0  0  0  0  3  0  0  0  0  0  0
  -25.0000  -27.6310   19.4310 C   0  0  0  0  0  3  0  0  0  0  0  0
  -23.8110  -29.8130   20.1400 C   0  0  0  0  0  2  0  0  0  0  0  0
  -24.8140  -31.0360   22.1020 N   0  0  0  0  0  0  0  0  0  0  0  0
  -23.6010  -32.1650   23.6870 O   0  0  0  0  0  0  0  0  0  0  0  0
  -22.8160  -29.5030   22.4610 C   0  0  0  0  0  0  0  0  0  0  0  0
  -21.4830  -29.3630   22.3230 N   0  0  0  0  0  0  0  0  0  0  0  0
  -23.4610  -28.8580   23.2910 O   0  0  0  0  0  0  0  0  0  0  0  0
  -21.0140  -29.9340   21.6350 H   0  0  0  0  0  0  0  0  0  0  0  0
  -18.0700  -28.2420   22.8620 C   0  0  0  0  0  0  0  0  0  0  0  0
  -20.6430  -28.4190   23.0710 C   0  0  0  0  0  3  0  0  0  0  0  0
  -20.6830  -27.0120   22.4300 C   0  0  0  0  0  2  0  0  0  0  0  0
  -19.5480  -26.7730   21.4280 C   0  0  0  0  0  2  0  0  0  0  0  0
  -18.1870  -26.9260   22.1130 C   0  0  0  0  0  2  0  0  0  0  0  0
  -19.2220  -28.9510   23.2980 C   0  0  0  0  0  0  0  0  0  0  0  0
  -19.0530  -30.1830   23.9660 C   0  0  0  0  0  3  0  0  0  0  0  0
  -17.7680  -30.7070   24.1980 C   0  0  0  0  0  3  0  0  0  0  0  0
  -16.6310  -29.9970   23.7750 C   0  0  0  0  0  3  0  0  0  0  0  0
  -16.7840  -28.7650   23.1130 C   0  0  0  0  0  3  0  0  0  0  0  0
  -25.9540  -32.5160   23.8620 C   0  0  0  0  0  3  0  0  0  0  0  0
  -25.6250  -33.9140   24.2050 N   0  0  0  0  0  0  0  0  0  0  0  0
  -25.9250  -34.9840   23.4560 C   0  0  0  0  0  0  0  0  0  0  0  0
  -26.5670  -34.9000   22.4060 O   0  0  0  0  0  0  0  0  0  0  0  0
  -25.0490  -34.0520   25.0220 H   0  0  0  0  0  0  0  0  0  0  0  0
  -24.1510  -36.7570   23.2130 C   0  0  0  0  0  1  0  0  0  0  0  0
  -25.4440  -36.3670   23.9460 C   0  0  0  0  0  3  0  0  0  0  0  0
  -27.5990  -37.3060   24.6630 C   0  0  0  0  0  1  0  0  0  0  0  0
  -26.4500  -37.4390   23.7720 N   0  0  0  0  0  0  0  0  0  0  0  0
  -26.0330  -38.3540   23.9280 H   0  0  0  0  0  0  0  0  0  0  0  0
  -26.4240  -31.7470   25.1600 C   0  0  1  0  0  0  0  0  0  0  0  0
  -25.2950  -31.5110   26.1910 C   0  0  0  0  0  1  0  0  0  0  0  0
  -27.0210  -30.3680   24.8020 C   0  0  0  0  0  1  0  0  0  0  0  0
  -27.5520  -32.5410   25.8610 C   0  0  0  0  0  1  0  0  0  0  0  0
  1  2  1  0
  2  5  2  0
  3  6  1  0
  3  1  2  0
  4  5  1  0
  4  7  1  0
  5 49  1  0
  6  4  2  0
  8  6  1  0
  9 10  1  0
 10  3  1  0
 10 19  2  0
 11 19  1  0
 12 17  1  0
 13 14  1  0
 13 12  1  0
 15 14  1  0
 15 24  1  0
 15 16  1  0
 17 11  1  0
 17 16  1  0
 18 11  2  0
 19 20  1  0
 21 22  2  0
 22 41  1  0
 23 22  1  0
 23 26  1  0
 24 25  1  0
 24 21  1  0
 25 23  2  0
 26 27  1  0
 27 28  2  0
 29 32  1  0
 29 28  1  0
 30 29  2  0
 31 30  1  0
 31 26  2  0
 32 33  1  0
 33 38  2  0
 33 34  1  0
 34 35  2  0
 35 36  1  0
 36 40  1  0
 37 36  2  0
 38 37  1  0
 39 38  1  0
 41 42  1  0
 42 45  1  0
 42 44  1  0
 43 41  2  0
 46 21  1  0
 46 47  1  0
 48 46  1  0
 50 61  2  0
 51 49  1  0
 51 56  1  0
 52 60  1  0
 52 62  1  0
 53 59  1  0
 53 55  1  0
 54 60  1  0
 55 56  2  0
 55 54  1  0
 57 51  2  0
 58 57  1  0
 58 53  2  0
 59 52  1  0
 60 50  1  0
 62 64  2  0
 63 62  1  0
 65 63  1  0
 66 75  2  0
 66 71  1  0
 67 63  1  0
 67 71  1  0
 68 67  1  0
 69 70  1  0
 69 68  1  0
 70 66  1  0
 71 72  2  0
 72 73  1  0
 74 73  2  0
 75 74  1  0
 76 50  1  0
 76 77  1  0
 76 86  1  0
 77 80  1  0
 78 82  1  0
 78 77  1  0
 79 78  2  0
 82 81  1  0
 84 85  1  0
 84 82  1  0
 84 83  1  0
 86 89  1  1
 86 87  1  0
 88 86  1  0
M  ISO  4   5 101  11 100  19 100  49 101
M  END
>  <TORSDO>  (61) 
F 17

>  <SCORE>  (61) 
-15.357

>  <name>  (61) 
60

>  <ligand_id>  (61) 
60

>  <original_smiles>  (61) 
[H]c1c([H])c([H])c2c(c1[H])C([H])([H])C([H])([H])C([H])([H])C2([H])N([H])C(=O)C1([H])N(C(=O)C([H])(N([H])C(=O)C([H])(N([H])C([H])([H])[H])C([H])([H])[H])C(C([H])([H])[H])(C([H])([H])[H])C([H])([H])[H])C([H])([H])c2c([H])c(Oc3c([H])c([H])c(C([H])(N([H])C(=O)N4C([H])([H])C([H])([H])C([H])([H])C([H])(n5nc(-c6c([H])c([H])c(Oc7c([H])c([H])c(F)c([H])c7F)c([H])c6[H])c(C(=O)N([H])[H])c5N([H])[H])C4([H])[H])C([H])([H])[H])c(F)c3C([H])([H])[H])c([H])c([H])c2C1([H])[H]

>  <smiles>  (61) 
[H]c1c([H])c([H])c2c(c1[H])C([H])([H])C([H])([H])C([H])([H])C2([H])N([H])C(=O)C1([H])N(C(=O)C([H])(N([H])C(=O)C([H])(N([H])C([H])([H])[H])C([H])([H])[H])C(C([H])([H])[H])(C([H])([H])[H])C([H])([H])[H])C([H])([H])c2c([H])c(Oc3c([H])c([H])c(C([H])(N([H])C(=O)N4C([H])([H])C([H])([H])C([H])([H])C([H])(n5nc(-c6c([H])c([H])c(Oc7c([H])c([H])c(F)c([H])c7F)c([H])c6[H])c(C(=O)N([H])[H])c5N([H])[H])C4([H])[H])C([H])([H])[H])c(F)c3C([H])([H])[H])c([H])c([H])c2C1([H])[H]

$$$$
61:0:0
     RDKit          3D

 89 98  0  0  1  0  0  0  0  0999 V2000
  -30.4750  -15.4160   20.3440 C   0  0  0  0  0  0  0  0  0  0  0  0
  -30.3890  -12.9400   19.5040 C   0  0  0  0  0  2  0  0  0  0  0  0
  -29.5020  -12.6170   18.2800 C   0  0  0  0  0  2  0  0  0  0  0  0
  -28.0660  -12.3210   18.7280 C   0  0  0  0  0  2  0  0  0  0  0  0
  -27.5790  -13.3260   19.7990 C   0  0  0  0  0  3  0  0  0  0  0  0
  -28.6110  -13.6160   20.9130 C   0  0  0  0  0  2  0  0  0  0  0  0
  -29.8100  -14.1450   20.2370 N   0  0  0  0  0  0  0  0  0  0  0  0
  -31.6990  -15.2180   20.2520 O   0  0  0  0  0  0  0  0  0  0  0  0
  -28.1920  -23.3410   18.7830 C   0  0  0  0  0  0  0  0  0  0  0  0
  -28.2850  -21.7380   18.8360 C   0  0  0  0  0  2  0  0  0  0  0  0
  -30.8670  -19.2940   19.4580 C   0  0  0  0  0  2  0  0  0  0  0  0
  -30.4610  -20.7490   20.0180 C   0  0  0  0  0  2  0  0  0  0  0  0
  -28.4590  -19.5510   20.7450 C   0  0  0  0  0  2  0  0  0  0  0  0
  -28.6920  -22.7030   20.9330 C   0  0  0  0  0  2  0  0  0  0  0  0
  -31.0190  -18.0030   20.4230 C   0  0  0  0  0  2  0  0  0  0  0  0
  -28.7000  -17.8370   20.2730 C   0  0  0  0  0  2  0  0  0  0  0  0
  -27.9780  -24.0780   20.1390 C   0  0  0  0  0  3  0  0  0  0  0  0
  -28.9310  -21.1430   20.1620 C   0  0  2  0  0  0  0  0  0  0  0  0
  -30.0000  -16.8750   20.3570 N   0  0  0  0  0  0  0  0  0  0  0  0
  -28.2640  -23.9550   17.7130 O   0  0  0  0  0  0  0  0  0  0  0  0
  -25.2090  -13.8550   20.5420 C   0  0  0  0  0  0  0  0  0  0  0  0
  -24.1500  -13.0720   20.8980 C   0  0  0  0  0  0  0  0  0  0  0  0
  -24.6280  -11.7240   20.8800 C   0  0  0  0  0  0  0  0  0  0  0  0
  -26.2610  -12.9900   20.3150 N   0  0  0  0  0  0  0  0  0  0  0  0
  -25.9250  -11.7000   20.5870 N   0  0  0  0  0  0  0  0  0  0  0  0
  -23.9060  -10.4580   21.0650 C   0  0  0  0  0  0  0  0  0  0  0  0
  -24.3380   -9.4890   21.9970 C   0  0  0  0  0  3  0  0  0  0  0  0
  -23.6130   -8.2910   22.1730 C   0  0  0  0  0  3  0  0  0  0  0  0
  -22.4400   -8.0540   21.4170 C   0  0  0  0  0  0  0  0  0  0  0  0
  -22.0270   -9.0110   20.4740 C   0  0  0  0  0  3  0  0  0  0  0  0
  -22.7540  -10.2000   20.2960 C   0  0  0  0  0  3  0  0  0  0  0  0
  -21.6860   -6.9090   21.5050 O   0  0  0  0  0  0  0  0  0  0  0  0
  -21.6440   -6.1590   22.6540 C   0  0  0  0  0  0  0  0  0  0  0  0
  -21.2380   -6.7100   23.8890 C   0  0  0  0  0  3  0  0  0  0  0  0
  -21.1420   -5.8860   25.0290 C   0  0  0  0  0  3  0  0  0  0  0  0
  -21.4440   -4.5140   24.9340 C   0  0  0  0  0  0  0  0  0  0  0  0
  -21.8440   -3.9640   23.7030 C   0  0  0  0  0  3  0  0  0  0  0  0
  -21.9400   -4.7850   22.5670 C   0  0  0  0  0  0  0  0  0  0  0  0
  -22.3040   -4.2450   21.3780 F   0  0  0  0  0  0  0  0  0  0  0  0
  -21.3460   -3.7210   26.0260 F   0  0  0  0  0  0  0  0  0  0  0  0
  -22.7460  -13.5390   21.1410 C   0  0  0  0  0  0  0  0  0  0  0  0
  -22.0120  -12.8510   22.0070 N   0  0  0  0  0  0  0  0  0  0  0  0
  -22.3110  -14.5560   20.6010 O   0  0  0  0  0  0  0  0  0  0  0  0
  -22.3780  -12.0320   22.4690 H   0  0  0  0  0  0  0  0  0  0  0  0
  -21.0720  -13.1540   22.2170 H   0  0  0  0  0  0  0  0  0  0  0  0
  -25.3660  -15.2280   20.3590 N   0  0  0  0  0  0  0  0  0  0  0  0
  -24.5940  -15.8770   20.4680 H   0  0  0  0  0  0  0  0  0  0  0  0
  -26.2230  -15.6690   20.0550 H   0  0  0  0  0  0  0  0  0  0  0  0
  -28.1780  -25.7570   20.1900 O   0  0  0  0  0  0  0  0  0  0  0  0
  -24.6840  -31.8410   23.1430 C   0  0  0  0  0  0  0  0  0  0  0  0
  -27.1800  -26.8870   20.1320 C   0  0  0  0  0  0  0  0  0  0  0  0
  -23.4740  -30.4460   21.5160 C   0  0  0  0  0  3  0  0  0  0  0  0
  -24.9030  -28.8200   20.0900 C   0  0  0  0  0  0  0  0  0  0  0  0
  -26.0420  -30.6280   21.3560 C   0  0  0  0  0  2  0  0  0  0  0  0
  -26.1000  -29.2090   20.7030 C   0  0  0  0  0  0  0  0  0  0  0  0
  -27.2300  -28.2650   20.6950 C   0  0  0  0  0  3  0  0  0  0  0  0
  -25.9550  -26.6640   19.4650 C   0  0  0  0  0  3  0  0  0  0  0  0
  -24.8590  -27.5710   19.4470 C   0  0  0  0  0  3  0  0  0  0  0  0
  -23.6920  -29.7560   20.1410 C   0  0  0  0  0  2  0  0  0  0  0  0
  -24.7560  -31.0010   22.0580 N   0  0  0  0  0  0  0  0  0  0  0  0
  -23.5990  -32.1390   23.6680 O   0  0  0  0  0  0  0  0  0  0  0  0
  -22.7770  -29.4600   22.4900 C   0  0  0  0  0  0  0  0  0  0  0  0
  -21.4420  -29.3140   22.3830 N   0  0  0  0  0  0  0  0  0  0  0  0
  -23.4440  -28.8250   23.3100 O   0  0  0  0  0  0  0  0  0  0  0  0
  -20.9560  -29.8780   21.7000 H   0  0  0  0  0  0  0  0  0  0  0  0
  -18.0520  -28.1450   22.9390 C   0  0  0  0  0  0  0  0  0  0  0  0
  -20.6190  -28.3840   23.1640 C   0  0  0  0  0  3  0  0  0  0  0  0
  -20.6950  -26.9520   22.5830 C   0  0  0  0  0  2  0  0  0  0  0  0
  -19.5740  -26.6450   21.5840 C   0  0  0  0  0  2  0  0  0  0  0  0
  -18.2050  -26.7980   22.2510 C   0  0  0  0  0  2  0  0  0  0  0  0
  -19.1840  -28.8970   23.3530 C   0  0  0  0  0  0  0  0  0  0  0  0
  -18.9830  -30.1550   23.9610 C   0  0  0  0  0  3  0  0  0  0  0  0
  -17.6850  -30.6620   24.1570 C   0  0  0  0  0  3  0  0  0  0  0  0
  -16.5690  -29.9080   23.7560 C   0  0  0  0  0  3  0  0  0  0  0  0
  -16.7520  -28.6510   23.1540 C   0  0  0  0  0  3  0  0  0  0  0  0
  -25.9590  -32.4820   23.7690 C   0  0  0  0  0  3  0  0  0  0  0  0
  -25.6400  -33.8760   24.1300 N   0  0  0  0  0  0  0  0  0  0  0  0
  -25.9530  -34.9520   23.3960 C   0  0  0  0  0  0  0  0  0  0  0  0
  -26.6010  -34.8770   22.3490 O   0  0  0  0  0  0  0  0  0  0  0  0
  -25.0630  -34.0080   24.9480 H   0  0  0  0  0  0  0  0  0  0  0  0
  -24.2030  -36.7480   23.1380 C   0  0  0  0  0  1  0  0  0  0  0  0
  -25.4730  -36.3300   23.8980 C   0  0  0  0  0  3  0  0  0  0  0  0
  -27.6280  -37.2150   24.6780 C   0  0  0  0  0  1  0  0  0  0  0  0
  -26.4950  -37.3940   23.7740 N   0  0  0  0  0  0  0  0  0  0  0  0
  -26.0880  -38.3080   23.9540 H   0  0  0  0  0  0  0  0  0  0  0  0
  -26.4850  -31.7030   25.0380 C   0  0  1  0  0  0  0  0  0  0  0  0
  -25.4010  -31.4610   26.1160 C   0  0  0  0  0  1  0  0  0  0  0  0
  -27.0630  -30.3260   24.6410 C   0  0  0  0  0  1  0  0  0  0  0  0
  -27.6430  -32.4910   25.6950 C   0  0  0  0  0  1  0  0  0  0  0  0
  1 19  1  0
  2  7  1  0
  3  4  1  0
  3  2  1  0
  5  4  1  0
  5 24  1  0
  5  6  1  0
  7  1  1  0
  7  6  1  0
  8  1  2  0
  9 10  1  0
  9 17  1  0
 11 12  1  0
 11 15  1  0
 18 12  1  6
 16 19  1  0
 16 13  1  0
 17 49  1  0
 17 14  1  0
 18 10  1  0
 18 13  1  0
 18 14  1  0
 19 15  1  0
 20  9  2  0
 21 22  2  0
 22 41  1  0
 23 22  1  0
 23 26  1  0
 24 21  1  0
 24 25  1  0
 25 23  2  0
 26 27  1  0
 27 28  2  0
 29 32  1  0
 29 28  1  0
 30 29  2  0
 31 30  1  0
 31 26  2  0
 32 33  1  0
 33 34  1  0
 34 35  2  0
 36 35  1  0
 36 40  1  0
 37 36  2  0
 38 33  2  0
 38 37  1  0
 39 38  1  0
 41 42  1  0
 42 45  1  0
 42 44  1  0
 43 41  2  0
 46 47  1  0
 46 21  1  0
 48 46  1  0
 50 61  2  0
 51 49  1  0
 51 56  1  0
 52 60  1  0
 52 62  1  0
 53 59  1  0
 53 55  1  0
 54 60  1  0
 55 54  1  0
 56 55  2  0
 57 51  2  0
 58 57  1  0
 58 53  2  0
 59 52  1  0
 60 50  1  0
 62 64  2  0
 63 62  1  0
 65 63  1  0
 66 75  2  0
 66 71  1  0
 67 63  1  0
 67 71  1  0
 68 67  1  0
 69 70  1  0
 69 68  1  0
 70 66  1  0
 71 72  2  0
 72 73  1  0
 74 73  2  0
 75 74  1  0
 76 50  1  0
 76 77  1  0
 76 86  1  0
 77 80  1  0
 78 82  1  0
 78 77  1  0
 79 78  2  0
 82 81  1  0
 84 82  1  0
 84 85  1  0
 84 83  1  0
 86 89  1  1
 86 87  1  0
 88 86  1  0
M  ISO  4   1 100  17 101  19 100  49 101
M  END
>  <TORSDO>  (62) 
F 15

>  <SCORE>  (62) 
-16.617

>  <name>  (62) 
61

>  <ligand_id>  (62) 
61

>  <original_smiles>  (62) 
[H]c1c([H])c([H])c2c(c1[H])C([H])([H])C([H])([H])C([H])([H])C2([H])N([H])C(=O)C1([H])N(C(=O)C([H])(N([H])C(=O)C([H])(N([H])C([H])([H])[H])C([H])([H])[H])C(C([H])([H])[H])(C([H])([H])[H])C([H])([H])[H])C([H])([H])c2c([H])c(OC3([H])C(=O)C([H])([H])C4(C3([H])[H])C([H])([H])C([H])([H])N(C(=O)N3C([H])([H])C([H])([H])C([H])([H])C([H])(n5nc(-c6c([H])c([H])c(Oc7c([H])c([H])c(F)c([H])c7F)c([H])c6[H])c(C(=O)N([H])[H])c5N([H])[H])C3([H])[H])C([H])([H])C([H])([H])C4([H])[H])c([H])c([H])c2C1([H])[H]

>  <smiles>  (62) 
[H]c1c([H])c([H])c2c(c1[H])C([H])([H])C([H])([H])C([H])([H])C2([H])N([H])C(=O)C1([H])N(C(=O)C([H])(N([H])C(=O)C([H])(N([H])C([H])([H])[H])C([H])([H])[H])C(C([H])([H])[H])(C([H])([H])[H])C([H])([H])[H])C([H])([H])c2c([H])c(OC3([H])C(=O)C([H])([H])C4(C3([H])[H])C([H])([H])C([H])([H])N(C(=O)N3C([H])([H])C([H])([H])C([H])([H])C([H])(n5nc(-c6c([H])c([H])c(Oc7c([H])c([H])c(F)c([H])c7F)c([H])c6[H])c(C(=O)N([H])[H])c5N([H])[H])C3([H])[H])C([H])([H])C([H])([H])C4([H])[H])c([H])c([H])c2C1([H])[H]

$$$$
62:0:0
     RDKit          3D

 97106  0  0  1  0  0  0  0  0999 V2000
  -27.4460  -22.2880   21.3720 C   0  0  0  0  0  2  0  0  0  0  0  0
  -28.2740  -25.5960   23.0210 C   0  0  0  0  0  3  0  0  0  0  0  0
  -27.9350  -24.2640   22.7510 C   0  0  0  0  0  3  0  0  0  0  0  0
  -28.5100  -26.4730   21.9560 C   0  0  0  0  0  3  0  0  0  0  0  0
  -27.8850  -23.7620   21.4310 C   0  0  0  0  0  0  0  0  0  0  0  0
  -28.2110  -24.6450   20.3470 C   0  0  0  0  0  0  0  0  0  0  0  0
  -28.4300  -26.0260   20.6170 C   0  0  0  0  0  0  0  0  0  0  0  0
  -28.3500  -24.1890   18.9010 C   0  0  0  0  0  1  0  0  0  0  0  0
  -28.4690  -26.9680   19.6040 O   0  0  0  0  0  0  0  0  0  0  0  0
  -24.7340  -31.6820   23.3220 C   0  0  0  0  0  0  0  0  0  0  0  0
  -27.3590  -27.7770   19.5980 C   0  0  0  0  0  0  0  0  0  0  0  0
  -23.5130  -30.5260   21.5070 C   0  0  0  0  0  3  0  0  0  0  0  0
  -24.9570  -29.2330   19.8450 C   0  0  0  0  0  0  0  0  0  0  0  0
  -26.0290  -30.9390   21.3310 C   0  0  0  0  0  2  0  0  0  0  0  0
  -26.1170  -29.6840   20.4880 C   0  0  0  0  0  0  0  0  0  0  0  0
  -27.3260  -28.9670   20.3550 C   0  0  0  0  0  3  0  0  0  0  0  0
  -26.1910  -27.3420   18.9390 C   0  0  0  0  0  3  0  0  0  0  0  0
  -24.9890  -28.0660   19.0600 C   0  0  0  0  0  3  0  0  0  0  0  0
  -23.7060  -30.0580   20.0380 C   0  0  0  0  0  2  0  0  0  0  0  0
  -24.7770  -31.0530   22.1140 N   0  0  0  0  0  0  0  0  0  0  0  0
  -23.6590  -31.8650   23.9110 O   0  0  0  0  0  0  0  0  0  0  0  0
  -22.8780  -29.3730   22.3180 C   0  0  0  0  0  0  0  0  0  0  0  0
  -21.5550  -29.1980   22.1740 N   0  0  0  0  0  0  0  0  0  0  0  0
  -23.5730  -28.6470   23.0330 O   0  0  0  0  0  0  0  0  0  0  0  0
  -21.0570  -29.8440   21.5770 H   0  0  0  0  0  0  0  0  0  0  0  0
  -18.1970  -27.9000   22.4970 C   0  0  0  0  0  0  0  0  0  0  0  0
  -20.7510  -28.1530   22.8100 C   0  0  0  0  0  3  0  0  0  0  0  0
  -20.8750  -26.8160   22.0450 C   0  0  0  0  0  2  0  0  0  0  0  0
  -19.7790  -26.6180   20.9940 C   0  0  0  0  0  2  0  0  0  0  0  0
  -18.3940  -26.6550   21.6470 C   0  0  0  0  0  2  0  0  0  0  0  0
  -19.3050  -28.6110   23.0290 C   0  0  0  0  0  0  0  0  0  0  0  0
  -19.0700  -29.7790   23.7850 C   0  0  0  0  0  3  0  0  0  0  0  0
  -17.7610  -30.2390   24.0150 C   0  0  0  0  0  3  0  0  0  0  0  0
  -16.6660  -29.5230   23.5000 C   0  0  0  0  0  3  0  0  0  0  0  0
  -16.8850  -28.3550   22.7470 C   0  0  0  0  0  3  0  0  0  0  0  0
  -26.0270  -32.2250   24.0100 C   0  0  0  0  0  3  0  0  0  0  0  0
  -25.7150  -33.5520   24.5540 N   0  0  0  0  0  0  0  0  0  0  0  0
  -26.0440  -34.7120   23.9690 C   0  0  0  0  0  0  0  0  0  0  0  0
  -26.7130  -34.7720   22.9340 O   0  0  0  0  0  0  0  0  0  0  0  0
  -25.1220  -33.5740   25.3720 H   0  0  0  0  0  0  0  0  0  0  0  0
  -24.3060  -36.5300   23.8980 C   0  0  0  0  0  1  0  0  0  0  0  0
  -25.5500  -36.0110   24.6360 C   0  0  0  0  0  3  0  0  0  0  0  0
  -27.6800  -36.7640   25.5930 C   0  0  0  0  0  1  0  0  0  0  0  0
  -26.5770  -37.0740   24.6860 N   0  0  0  0  0  0  0  0  0  0  0  0
  -26.1680  -37.9570   24.9800 H   0  0  0  0  0  0  0  0  0  0  0  0
  -26.5760  -31.2710   25.1410 C   0  0  1  0  0  0  0  0  0  0  0  0
  -25.5090  -30.8600   26.1830 C   0  0  0  0  0  1  0  0  0  0  0  0
  -27.1580  -29.9770   24.5270 C   0  0  0  0  0  1  0  0  0  0  0  0
  -27.7350  -31.9640   25.8940 C   0  0  0  0  0  1  0  0  0  0  0  0
  -27.9170  -20.4500   19.6920 C   0  0  0  0  0  3  0  0  0  0  0  0
  -27.2010  -21.5320   20.0670 C   0  0  0  0  0  0  0  0  0  0  0  0
  -26.0150  -22.0070   19.2480 C   0  0  0  0  0  1  0  0  0  0  0  0
  -29.0300  -19.8060   20.5060 C   0  0  0  0  0  2  0  0  0  0  0  0
  -29.2320  -18.3020   20.2480 C   0  0  0  0  0  2  0  0  0  0  0  0
  -31.2720  -17.3630   23.3590 C   0  0  0  0  0  2  0  0  0  0  0  0
  -30.5750  -18.3890   22.4660 C   0  0  0  0  0  2  0  0  0  0  0  0
  -31.4320  -16.1020   22.5020 C   0  0  0  0  0  2  0  0  0  0  0  0
  -29.7200  -17.5520   21.5090 C   0  0  0  0  0  3  0  0  0  0  0  0
  -30.6220  -16.3460   21.2150 C   0  0  0  0  0  3  0  0  0  0  0  0
  -30.1030  -14.4500   19.7120 C   0  0  0  0  0  0  0  0  0  0  0  0
  -29.6640  -12.3730   18.4640 C   0  0  0  0  0  2  0  0  0  0  0  0
  -28.5400  -12.5630   17.4310 C   0  0  0  0  0  2  0  0  0  0  0  0
  -27.1690  -12.2960   18.0790 C   0  0  0  0  0  2  0  0  0  0  0  0
  -26.9780  -13.0750   19.4070 C   0  0  0  0  0  3  0  0  0  0  0  0
  -28.2020  -12.9050   20.3370 C   0  0  0  0  0  2  0  0  0  0  0  0
  -29.4160  -13.2850   19.5910 N   0  0  0  0  0  0  0  0  0  0  0  0
  -30.9540  -14.8160   18.8960 O   0  0  0  0  0  0  0  0  0  0  0  0
  -29.8640  -15.1590   20.8220 N   0  0  0  0  0  0  0  0  0  0  0  0
  -29.1630  -14.8060   21.4560 H   0  0  0  0  0  0  0  0  0  0  0  0
  -24.6810  -13.4800   20.4990 C   0  0  0  0  0  0  0  0  0  0  0  0
  -23.7380  -12.6180   20.9930 C   0  0  0  0  0  0  0  0  0  0  0  0
  -24.2800  -11.3060   20.8310 C   0  0  0  0  0  0  0  0  0  0  0  0
  -25.7360  -12.6870   20.0740 N   0  0  0  0  0  0  0  0  0  0  0  0
  -25.5050  -11.3730   20.3260 N   0  0  0  0  0  0  0  0  0  0  0  0
  -23.6800   -9.9870   21.0730 C   0  0  0  0  0  0  0  0  0  0  0  0
  -24.2200   -9.0940   22.0240 C   0  0  0  0  0  3  0  0  0  0  0  0
  -23.6140   -7.8400   22.2530 C   0  0  0  0  0  3  0  0  0  0  0  0
  -22.4540   -7.4690   21.5310 C   0  0  0  0  0  0  0  0  0  0  0  0
  -21.9340   -8.3540   20.5690 C   0  0  0  0  0  3  0  0  0  0  0  0
  -22.5410   -9.5990   20.3390 C   0  0  0  0  0  3  0  0  0  0  0  0
  -21.8140   -6.2610   21.6670 O   0  0  0  0  0  0  0  0  0  0  0  0
  -21.7710   -5.6010   22.8690 C   0  0  0  0  0  0  0  0  0  0  0  0
  -21.1960   -6.1840   24.0190 C   0  0  0  0  0  3  0  0  0  0  0  0
  -21.1100   -5.4450   25.2150 C   0  0  0  0  0  3  0  0  0  0  0  0
  -21.5880   -4.1210   25.2620 C   0  0  0  0  0  0  0  0  0  0  0  0
  -22.1560   -3.5370   24.1160 C   0  0  0  0  0  3  0  0  0  0  0  0
  -22.2440   -4.2740   22.9220 C   0  0  0  0  0  0  0  0  0  0  0  0
  -22.7720   -3.6990   21.8150 F   0  0  0  0  0  0  0  0  0  0  0  0
  -21.4990   -3.4070   26.4080 F   0  0  0  0  0  0  0  0  0  0  0  0
  -22.3710  -12.9810   21.4980 C   0  0  0  0  0  0  0  0  0  0  0  0
  -21.8480  -12.2190   22.4520 N   0  0  0  0  0  0  0  0  0  0  0  0
  -21.7790  -13.9770   21.0830 O   0  0  0  0  0  0  0  0  0  0  0  0
  -22.3440  -11.4130   22.8060 H   0  0  0  0  0  0  0  0  0  0  0  0
  -20.9410  -12.4440   22.8330 H   0  0  0  0  0  0  0  0  0  0  0  0
  -24.7230  -14.8640   20.3610 N   0  0  0  0  0  0  0  0  0  0  0  0
  -23.9430  -15.4590   20.6200 H   0  0  0  0  0  0  0  0  0  0  0  0
  -25.4930  -15.3770   19.9500 H   0  0  0  0  0  0  0  0  0  0  0  0
  1  5  1  0
  3  2  1  0
  4  2  2  0
  5  3  2  0
  6  7  2  0
  6  5  1  0
  7  4  1  0
  8  6  1  0
  9  7  1  0
 10 21  2  0
 11  9  1  0
 11 16  1  0
 12 20  1  0
 12 22  1  0
 13 19  1  0
 13 15  1  0
 14 20  1  0
 15 14  1  0
 16 15  2  0
 17 18  1  0
 17 11  2  0
 18 13  2  0
 19 12  1  0
 20 10  1  0
 22 24  2  0
 23 22  1  0
 25 23  1  0
 26 35  2  0
 26 31  1  0
 27 23  1  0
 27 31  1  0
 28 27  1  0
 29 30  1  0
 29 28  1  0
 30 26  1  0
 31 32  2  0
 32 33  1  0
 34 33  2  0
 35 34  1  0
 36 10  1  0
 36 37  1  0
 36 46  1  0
 37 40  1  0
 38 37  1  0
 38 42  1  0
 39 38  2  0
 42 41  1  0
 42 44  1  0
 44 45  1  0
 44 43  1  0
 46 49  1  1
 46 47  1  0
 48 46  1  0
 50 51  2  0
 50 53  1  0
 51  1  1  0
 52 51  1  0
 54 53  1  0
 56 55  1  0
 57 55  1  0
 58 54  1  0
 58 56  1  0
 59 68  1  0
 59 58  1  0
 59 57  1  0
 60 68  1  0
 61 66  1  0
 62 63  1  0
 62 61  1  0
 64 63  1  0
 64 73  1  0
 64 65  1  0
 66 60  1  0
 66 65  1  0
 67 60  2  0
 68 69  1  0
 70 71  2  0
 71 90  1  0
 72 71  1  0
 72 75  1  0
 73 74  1  0
 73 70  1  0
 74 72  2  0
 75 76  1  0
 76 77  2  0
 78 81  1  0
 78 77  1  0
 79 78  2  0
 80 79  1  0
 80 75  2  0
 81 82  1  0
 82 87  2  0
 82 83  1  0
 83 84  2  0
 84 85  1  0
 85 89  1  0
 86 85  2  0
 87 86  1  0
 88 87  1  0
 90 91  1  0
 91 93  1  0
 91 94  1  0
 92 90  2  0
 95 70  1  0
 95 96  1  0
 97 95  1  0
M  ISO  4   7 101   9 101  60 100  68 100
M  END
>  <TORSDO>  (63) 
F 21

>  <SCORE>  (63) 
-8.802

>  <name>  (63) 
62

>  <ligand_id>  (63) 
62

>  <original_smiles>  (63) 
[H]C(=C(C([H])([H])[H])C([H])([H])c1c([H])c([H])c([H])c(Oc2c([H])c([H])c3c(c2[H])C([H])([H])N(C(=O)C([H])(N([H])C(=O)C([H])(N([H])C([H])([H])[H])C([H])([H])[H])C(C([H])([H])[H])(C([H])([H])[H])C([H])([H])[H])C([H])(C(=O)N([H])C2([H])c4c([H])c([H])c([H])c([H])c4C([H])([H])C([H])([H])C2([H])[H])C3([H])[H])c1C([H])([H])[H])C([H])([H])C([H])([H])C1([H])C([H])([H])C([H])([H])C([H])([H])C1([H])N([H])C(=O)N1C([H])([H])C([H])([H])C([H])([H])C([H])(n2nc(-c3c([H])c([H])c(Oc4c([H])c([H])c(F)c([H])c4F)c([H])c3[H])c(C(=O)N([H])[H])c2N([H])[H])C1([H])[H]

>  <smiles>  (63) 
[H]C(=C(C([H])([H])[H])C([H])([H])c1c([H])c([H])c([H])c(Oc2c([H])c([H])c3c(c2[H])C([H])([H])N(C(=O)C([H])(N([H])C(=O)C([H])(N([H])C([H])([H])[H])C([H])([H])[H])C(C([H])([H])[H])(C([H])([H])[H])C([H])([H])[H])C([H])(C(=O)N([H])C2([H])c4c([H])c([H])c([H])c([H])c4C([H])([H])C([H])([H])C2([H])[H])C3([H])[H])c1C([H])([H])[H])C([H])([H])C([H])([H])C1([H])C([H])([H])C([H])([H])C([H])([H])C1([H])N([H])C(=O)N1C([H])([H])C([H])([H])C([H])([H])C([H])(n2nc(-c3c([H])c([H])c(Oc4c([H])c([H])c(F)c([H])c4F)c([H])c3[H])c(C(=O)N([H])[H])c2N([H])[H])C1([H])[H]

$$$$
63:0:0
     RDKit          3D

 92101  0  0  1  0  0  0  0  0999 V2000
  -28.0480  -25.7920   21.4570 C   0  0  0  0  0  3  0  0  0  0  0  0
  -27.8730  -25.0630   22.6340 C   0  0  0  0  0  3  0  0  0  0  0  0
  -28.4830  -23.0740   21.4330 C   0  0  0  0  0  3  0  0  0  0  0  0
  -28.7340  -23.7300   20.1930 C   0  0  0  0  0  0  0  0  0  0  0  0
  -28.3960  -25.2490   20.1850 C   0  0  0  0  0  0  0  0  0  0  0  0
  -28.0610  -23.6910   22.6110 C   0  0  0  0  0  0  0  0  0  0  0  0
  -27.8620  -22.9580   23.7320 F   0  0  0  0  0  0  0  0  0  0  0  0
  -28.3540  -26.3950   19.2510 O   0  0  0  0  0  0  0  0  0  0  0  0
  -24.7750  -31.7410   22.9750 C   0  0  0  0  0  0  0  0  0  0  0  0
  -27.3310  -27.4370   19.3390 C   0  0  0  0  0  0  0  0  0  0  0  0
  -23.5350  -30.4770   21.2600 C   0  0  0  0  0  3  0  0  0  0  0  0
  -24.9570  -29.1130   19.6020 C   0  0  0  0  0  0  0  0  0  0  0  0
  -26.0700  -30.8470   20.9980 C   0  0  0  0  0  2  0  0  0  0  0  0
  -26.1550  -29.5310   20.1970 C   0  0  0  0  0  0  0  0  0  0  0  0
  -27.3450  -28.7120   20.0490 C   0  0  0  0  0  3  0  0  0  0  0  0
  -26.1070  -27.1370   18.7100 C   0  0  0  0  0  3  0  0  0  0  0  0
  -24.9470  -27.9350   18.8390 C   0  0  0  0  0  3  0  0  0  0  0  0
  -23.7060  -29.9550   19.8080 C   0  0  0  0  0  2  0  0  0  0  0  0
  -24.8170  -31.0400   21.8000 N   0  0  0  0  0  0  0  0  0  0  0  0
  -23.7110  -31.9300   23.5850 O   0  0  0  0  0  0  0  0  0  0  0  0
  -22.9410  -29.3520   22.1450 C   0  0  0  0  0  0  0  0  0  0  0  0
  -21.6130  -29.1500   22.0730 N   0  0  0  0  0  0  0  0  0  0  0  0
  -23.6770  -28.6700   22.8630 O   0  0  0  0  0  0  0  0  0  0  0  0
  -21.0730  -29.7580   21.4720 H   0  0  0  0  0  0  0  0  0  0  0  0
  -18.3050  -27.7760   22.6290 C   0  0  0  0  0  0  0  0  0  0  0  0
  -20.8660  -28.1070   22.7840 C   0  0  0  0  0  3  0  0  0  0  0  0
  -20.9780  -26.7470   22.0580 C   0  0  0  0  0  2  0  0  0  0  0  0
  -19.8310  -26.4910   21.0750 C   0  0  0  0  0  2  0  0  0  0  0  0
  -18.4850  -26.5140   21.8020 C   0  0  0  0  0  2  0  0  0  0  0  0
  -19.4210  -28.5330   23.0760 C   0  0  0  0  0  0  0  0  0  0  0  0
  -19.1930  -29.7150   23.8130 C   0  0  0  0  0  3  0  0  0  0  0  0
  -17.8850  -30.1450   24.1020 C   0  0  0  0  0  3  0  0  0  0  0  0
  -16.7840  -29.3850   23.6670 C   0  0  0  0  0  3  0  0  0  0  0  0
  -16.9950  -28.2000   22.9390 C   0  0  0  0  0  3  0  0  0  0  0  0
  -26.0630  -32.3600   23.6020 C   0  0  0  0  0  3  0  0  0  0  0  0
  -25.7060  -33.6710   24.1650 N   0  0  0  0  0  0  0  0  0  0  0  0
  -25.9420  -34.8490   23.5710 C   0  0  0  0  0  0  0  0  0  0  0  0
  -26.5500  -34.9460   22.5010 O   0  0  0  0  0  0  0  0  0  0  0  0
  -25.1560  -33.6640   25.0110 H   0  0  0  0  0  0  0  0  0  0  0  0
  -24.1120  -36.5770   23.6090 C   0  0  0  0  0  1  0  0  0  0  0  0
  -25.4220  -36.1210   24.2720 C   0  0  0  0  0  3  0  0  0  0  0  0
  -27.5570  -36.9910   25.1190 C   0  0  0  0  0  1  0  0  0  0  0  0
  -26.3960  -37.2350   24.2680 N   0  0  0  0  0  0  0  0  0  0  0  0
  -25.9560  -38.1000   24.5740 H   0  0  0  0  0  0  0  0  0  0  0  0
  -26.7110  -31.4450   24.7140 C   0  0  1  0  0  0  0  0  0  0  0  0
  -25.7090  -30.9770   25.7960 C   0  0  0  0  0  1  0  0  0  0  0  0
  -27.3460  -30.1830   24.0870 C   0  0  0  0  0  1  0  0  0  0  0  0
  -27.8560  -32.2090   25.4190 C   0  0  0  0  0  1  0  0  0  0  0  0
  -29.3440  -22.5520   19.1700 C   0  0  0  0  0  2  0  0  0  0  0  0
  -31.0720  -20.5640   20.2430 C   0  0  0  0  0  2  0  0  0  0  0  0
  -31.2260  -19.0010   20.4100 C   0  0  0  0  0  2  0  0  0  0  0  0
  -29.5790  -19.4720   18.7610 C   0  0  0  0  0  2  0  0  0  0  0  0
  -29.6870  -20.8950   19.6270 C   0  0  0  0  0  3  0  0  0  0  0  0
  -30.6880  -18.2830   19.1490 C   0  0  0  0  0  3  0  0  0  0  0  0
  -31.2690  -15.5330   19.3230 C   0  0  0  0  0  0  0  0  0  0  0  0
  -31.2250  -13.0500   18.7410 C   0  0  0  0  0  2  0  0  0  0  0  0
  -30.2110  -12.7590   17.6110 C   0  0  0  0  0  2  0  0  0  0  0  0
  -28.7990  -12.5450   18.1880 C   0  0  0  0  0  2  0  0  0  0  0  0
  -28.4230  -13.6160   19.2450 C   0  0  0  0  0  3  0  0  0  0  0  0
  -29.5550  -13.8570   20.2640 C   0  0  0  0  0  2  0  0  0  0  0  0
  -30.7410  -14.2470   19.4930 N   0  0  0  0  0  0  0  0  0  0  0  0
  -32.4570  -15.5960   18.9850 O   0  0  0  0  0  0  0  0  0  0  0  0
  -30.4380  -16.7060   19.3310 N   0  0  0  0  0  0  0  0  0  0  0  0
  -29.4760  -16.4770   19.5310 H   0  0  0  0  0  0  0  0  0  0  0  0
  -26.1910  -14.2300   20.3260 C   0  0  0  0  0  0  0  0  0  0  0  0
  -25.1410  -13.4740   20.7700 C   0  0  0  0  0  0  0  0  0  0  0  0
  -25.5280  -12.1110   20.5810 C   0  0  0  0  0  0  0  0  0  0  0  0
  -27.1480  -13.3310   19.8900 N   0  0  0  0  0  0  0  0  0  0  0  0
  -26.7680  -12.0450   20.1080 N   0  0  0  0  0  0  0  0  0  0  0  0
  -24.7650  -10.8710   20.7670 C   0  0  0  0  0  0  0  0  0  0  0  0
  -25.0910   -9.9460   21.7840 C   0  0  0  0  0  3  0  0  0  0  0  0
  -24.3260   -8.7710   21.9550 C   0  0  0  0  0  3  0  0  0  0  0  0
  -23.2210   -8.5140   21.1080 C   0  0  0  0  0  0  0  0  0  0  0  0
  -22.9160   -9.4260   20.0830 C   0  0  0  0  0  3  0  0  0  0  0  0
  -23.6810  -10.5920   19.9110 C   0  0  0  0  0  3  0  0  0  0  0  0
  -22.4390   -7.3860   21.1850 O   0  0  0  0  0  0  0  0  0  0  0  0
  -22.0450   -6.8620   22.3890 C   0  0  0  0  0  0  0  0  0  0  0  0
  -21.2690   -7.6050   23.3070 C   0  0  0  0  0  3  0  0  0  0  0  0
  -20.8280   -7.0050   24.5030 C   0  0  0  0  0  3  0  0  0  0  0  0
  -21.1520   -5.6620   24.7800 C   0  0  0  0  0  0  0  0  0  0  0  0
  -21.9190   -4.9200   23.8650 C   0  0  0  0  0  3  0  0  0  0  0  0
  -22.3620   -5.5180   22.6720 C   0  0  0  0  0  0  0  0  0  0  0  0
  -23.0830   -4.7920   21.7840 F   0  0  0  0  0  0  0  0  0  0  0  0
  -20.7220   -5.0830   25.9250 F   0  0  0  0  0  0  0  0  0  0  0  0
  -23.8140  -13.9880   21.2450 C   0  0  0  0  0  0  0  0  0  0  0  0
  -23.1820  -13.2840   22.1780 N   0  0  0  0  0  0  0  0  0  0  0  0
  -23.3520  -15.0480   20.8250 O   0  0  0  0  0  0  0  0  0  0  0  0
  -23.5720  -12.4260   22.5380 H   0  0  0  0  0  0  0  0  0  0  0  0
  -22.2960  -13.6100   22.5370 H   0  0  0  0  0  0  0  0  0  0  0  0
  -26.3980  -15.6030   20.2280 N   0  0  0  0  0  0  0  0  0  0  0  0
  -25.6770  -16.2710   20.4760 H   0  0  0  0  0  0  0  0  0  0  0  0
  -27.1970  -16.0360   19.7840 H   0  0  0  0  0  0  0  0  0  0  0  0
  1  2  1  0
  3  6  1  0
  4  3  2  0
  5  4  1  0
  5  1  2  0
  6  2  2  0
  6  7  1  0
  8 10  1  0
  8  5  1  0
  9 20  2  0
 10 15  1  0
 11 19  1  0
 11 21  1  0
 12 18  1  0
 12 14  1  0
 13 19  1  0
 14 13  1  0
 15 14  2  0
 16 17  1  0
 16 10  2  0
 17 12  2  0
 18 11  1  0
 19  9  1  0
 21 23  2  0
 22 21  1  0
 24 22  1  0
 25 34  2  0
 25 30  1  0
 26 22  1  0
 26 30  1  0
 27 26  1  0
 28 29  1  0
 28 27  1  0
 29 25  1  0
 30 31  2  0
 31 32  1  0
 33 32  2  0
 34 33  1  0
 35  9  1  0
 35 36  1  0
 35 45  1  0
 36 39  1  0
 37 36  1  0
 37 41  1  0
 38 37  2  0
 41 40  1  0
 43 41  1  0
 43 44  1  0
 43 42  1  0
 45 48  1  1
 45 46  1  0
 47 45  1  0
 49  4  1  0
 50 51  1  0
 52 54  1  0
 52 53  1  0
 53 49  1  0
 53 50  1  0
 54 63  1  0
 54 51  1  0
 55 63  1  0
 55 61  1  0
 56 61  1  0
 57 58  1  0
 57 56  1  0
 59 58  1  0
 59 68  1  0
 59 60  1  0
 61 60  1  0
 62 55  2  0
 63 64  1  0
 65 66  2  0
 66 85  1  0
 67 70  1  0
 67 66  1  0
 68 69  1  0
 68 65  1  0
 69 67  2  0
 70 71  1  0
 71 72  2  0
 73 76  1  0
 73 72  1  0
 74 73  2  0
 75 74  1  0
 75 70  2  0
 76 77  1  0
 77 82  2  0
 77 78  1  0
 78 79  2  0
 79 80  1  0
 80 84  1  0
 81 80  2  0
 82 81  1  0
 83 82  1  0
 85 86  1  0
 86 89  1  0
 86 88  1  0
 87 85  2  0
 90 65  1  0
 90 91  1  0
 92 90  1  0
M  ISO  4   5 101   8 101  55 100  63 100
M  END
>  <TORSDO>  (64) 
F 18

>  <SCORE>  (64) 
-9.812

>  <name>  (64) 
63

>  <ligand_id>  (64) 
63

>  <original_smiles>  (64) 
[H]c1c([H])c([H])c2c(c1[H])C([H])([H])C([H])([H])C([H])([H])C2([H])N([H])C(=O)C1([H])N(C(=O)C([H])(N([H])C(=O)C([H])(N([H])C([H])([H])[H])C([H])([H])[H])C(C([H])([H])[H])(C([H])([H])[H])C([H])([H])[H])C([H])([H])c2c([H])c(Oc3c([H])c([H])c(F)c([H])c3C([H])([H])C3([H])C([H])([H])C([H])([H])C([H])(N([H])C(=O)N4C([H])([H])C([H])([H])C([H])([H])C([H])(n5nc(-c6c([H])c([H])c(Oc7c([H])c([H])c(F)c([H])c7F)c([H])c6[H])c(C(=O)N([H])[H])c5N([H])[H])C4([H])[H])C3([H])[H])c([H])c([H])c2C1([H])[H]

>  <smiles>  (64) 
[H]c1c([H])c([H])c2c(c1[H])C([H])([H])C([H])([H])C([H])([H])C2([H])N([H])C(=O)C1([H])N(C(=O)C([H])(N([H])C(=O)C([H])(N([H])C([H])([H])[H])C([H])([H])[H])C(C([H])([H])[H])(C([H])([H])[H])C([H])([H])[H])C([H])([H])c2c([H])c(Oc3c([H])c([H])c(F)c([H])c3C([H])([H])C3([H])C([H])([H])C([H])([H])C([H])(N([H])C(=O)N4C([H])([H])C([H])([H])C([H])([H])C([H])(n5nc(-c6c([H])c([H])c(Oc7c([H])c([H])c(F)c([H])c7F)c([H])c6[H])c(C(=O)N([H])[H])c5N([H])[H])C4([H])[H])C3([H])[H])c([H])c([H])c2C1([H])[H]

$$$$
64:0:0
     RDKit          3D

 90 99  0  0  1  0  0  0  0  0999 V2000
  -29.1880  -18.1920   19.2740 C   0  0  0  0  0  3  0  0  0  0  0  0
  -30.4090  -18.4110   21.1710 C   0  0  0  0  0  3  0  0  0  0  0  0
  -28.9140  -19.6950   19.3040 C   0  0  0  0  0  0  0  0  0  0  0  0
  -29.9740  -17.3480   20.2270 C   0  0  0  0  0  0  0  0  0  0  0  0
  -29.3240  -20.7010   20.2550 C   0  0  0  0  0  0  0  0  0  0  0  0
  -30.1310  -19.9080   21.2060 C   0  0  0  0  0  0  0  0  0  0  0  0
  -28.3780  -21.9100   18.5160 C   0  0  0  0  0  3  0  0  0  0  0  0
  -28.2740  -20.5610   18.2880 C   0  0  0  0  0  0  0  0  0  0  0  0
  -29.1000  -22.4230   19.7800 C   0  0  2  0  0  0  0  0  0  0  0  0
  -30.8210  -20.6840   22.3100 C   0  0  0  0  0  1  0  0  0  0  0  0
  -27.5430  -19.9370   17.1210 C   0  0  0  0  0  1  0  0  0  0  0  0
  -30.5110  -22.9020   19.4050 C   0  0  0  0  0  1  0  0  0  0  0  0
  -30.5820  -15.7040   20.0920 C   0  0  0  0  0  0  0  0  0  0  0  0
  -30.5790  -13.1920   19.2410 C   0  0  0  0  0  2  0  0  0  0  0  0
  -29.6540  -12.8620   18.0380 C   0  0  0  0  0  2  0  0  0  0  0  0
  -28.2330  -12.5320   18.5150 C   0  0  0  0  0  2  0  0  0  0  0  0
  -27.7650  -13.5190   19.6090 C   0  0  0  0  0  3  0  0  0  0  0  0
  -28.8220  -13.7940   20.7010 C   0  0  0  0  0  2  0  0  0  0  0  0
  -30.0070  -14.3700   20.0350 N   0  0  0  0  0  0  0  0  0  0  0  0
  -31.8030  -15.5890   19.8810 O   0  0  0  0  0  0  0  0  0  0  0  0
  -25.4290  -14.0410   20.4580 C   0  0  0  0  0  0  0  0  0  0  0  0
  -24.3790  -13.2540   20.8380 C   0  0  0  0  0  0  0  0  0  0  0  0
  -24.8470  -11.9050   20.7670 C   0  0  0  0  0  0  0  0  0  0  0  0
  -26.4630  -13.1740   20.1620 N   0  0  0  0  0  0  0  0  0  0  0  0
  -26.1320  -11.8810   20.4200 N   0  0  0  0  0  0  0  0  0  0  0  0
  -24.1250  -10.6390   20.9520 C   0  0  0  0  0  0  0  0  0  0  0  0
  -24.5360   -9.6830   21.9070 C   0  0  0  0  0  3  0  0  0  0  0  0
  -23.8090   -8.4860   22.0800 C   0  0  0  0  0  3  0  0  0  0  0  0
  -22.6560   -8.2350   21.2990 C   0  0  0  0  0  0  0  0  0  0  0  0
  -22.2630   -9.1790   20.3360 C   0  0  0  0  0  3  0  0  0  0  0  0
  -22.9910  -10.3690   20.1600 C   0  0  0  0  0  3  0  0  0  0  0  0
  -21.9030   -7.0890   21.3810 O   0  0  0  0  0  0  0  0  0  0  0  0
  -21.7640   -6.4000   22.5590 C   0  0  0  0  0  0  0  0  0  0  0  0
  -21.1960   -6.9940   23.7070 C   0  0  0  0  0  3  0  0  0  0  0  0
  -21.0080   -6.2290   24.8760 C   0  0  0  0  0  3  0  0  0  0  0  0
  -21.3800   -4.8720   24.8970 C   0  0  0  0  0  0  0  0  0  0  0  0
  -21.9400   -4.2770   23.7530 C   0  0  0  0  0  3  0  0  0  0  0  0
  -22.1290   -5.0390   22.5870 C   0  0  0  0  0  0  0  0  0  0  0  0
  -22.6500   -4.4540   21.4810 F   0  0  0  0  0  0  0  0  0  0  0  0
  -21.1920   -4.1350   26.0180 F   0  0  0  0  0  0  0  0  0  0  0  0
  -22.9900  -13.7260   21.1480 C   0  0  0  0  0  0  0  0  0  0  0  0
  -22.2850  -13.0220   22.0280 N   0  0  0  0  0  0  0  0  0  0  0  0
  -22.5390  -14.7560   20.6480 O   0  0  0  0  0  0  0  0  0  0  0  0
  -22.6630  -12.1890   22.4530 H   0  0  0  0  0  0  0  0  0  0  0  0
  -21.3560  -13.3230   22.2820 H   0  0  0  0  0  0  0  0  0  0  0  0
  -25.5880  -15.4160   20.3060 N   0  0  0  0  0  0  0  0  0  0  0  0
  -24.8290  -16.0700   20.4640 H   0  0  0  0  0  0  0  0  0  0  0  0
  -26.4380  -15.8650   19.9890 H   0  0  0  0  0  0  0  0  0  0  0  0
  -28.2680  -24.0470   20.3270 C   0  0  0  0  0  2  0  0  0  0  0  0
  -28.3690  -25.7560   20.0270 O   0  0  0  0  0  0  0  0  0  0  0  0
  -24.7210  -31.8480   23.0790 C   0  0  0  0  0  0  0  0  0  0  0  0
  -27.3460  -26.9020   20.0390 C   0  0  0  0  0  0  0  0  0  0  0  0
  -23.5550  -30.4420   21.4320 C   0  0  0  0  0  3  0  0  0  0  0  0
  -25.0300  -28.8450   20.0040 C   0  0  0  0  0  0  0  0  0  0  0  0
  -26.1260  -30.6570   21.2980 C   0  0  0  0  0  2  0  0  0  0  0  0
  -26.2190  -29.2370   20.6310 C   0  0  0  0  0  0  0  0  0  0  0  0
  -27.3670  -28.2930   20.6120 C   0  0  0  0  0  3  0  0  0  0  0  0
  -26.1150  -26.7000   19.3670 C   0  0  0  0  0  3  0  0  0  0  0  0
  -25.0110  -27.6010   19.3490 C   0  0  0  0  0  3  0  0  0  0  0  0
  -23.8030  -29.7640   20.0540 C   0  0  0  0  0  2  0  0  0  0  0  0
  -24.8240  -31.0140   21.9890 N   0  0  0  0  0  0  0  0  0  0  0  0
  -23.6240  -32.1180   23.5970 O   0  0  0  0  0  0  0  0  0  0  0  0
  -22.8670  -29.4370   22.3940 C   0  0  0  0  0  0  0  0  0  0  0  0
  -21.5380  -29.2570   22.2730 N   0  0  0  0  0  0  0  0  0  0  0  0
  -23.5400  -28.8190   23.2240 O   0  0  0  0  0  0  0  0  0  0  0  0
  -21.0430  -29.8080   21.5850 H   0  0  0  0  0  0  0  0  0  0  0  0
  -18.1740  -27.9860   22.7950 C   0  0  0  0  0  0  0  0  0  0  0  0
  -20.7330  -28.2960   23.0380 C   0  0  0  0  0  3  0  0  0  0  0  0
  -20.8520  -26.8730   22.4460 C   0  0  0  0  0  2  0  0  0  0  0  0
  -19.7470  -26.5430   21.4360 C   0  0  0  0  0  2  0  0  0  0  0  0
  -18.3700  -26.6530   22.0940 C   0  0  0  0  0  2  0  0  0  0  0  0
  -19.2820  -28.7660   23.2240 C   0  0  0  0  0  0  0  0  0  0  0  0
  -19.0430  -30.0100   23.8450 C   0  0  0  0  0  3  0  0  0  0  0  0
  -17.7290  -30.4780   24.0390 C   0  0  0  0  0  3  0  0  0  0  0  0
  -16.6370  -29.6980   23.6220 C   0  0  0  0  0  3  0  0  0  0  0  0
  -16.8610  -28.4530   23.0070 C   0  0  0  0  0  3  0  0  0  0  0  0
  -25.9730  -32.5150   23.7210 C   0  0  0  0  0  3  0  0  0  0  0  0
  -25.6170  -33.8970   24.0950 N   0  0  0  0  0  0  0  0  0  0  0  0
  -25.9010  -34.9890   23.3730 C   0  0  0  0  0  0  0  0  0  0  0  0
  -26.5490  -34.9420   22.3260 O   0  0  0  0  0  0  0  0  0  0  0  0
  -25.0380  -34.0030   24.9170 H   0  0  0  0  0  0  0  0  0  0  0  0
  -24.1130  -36.7500   23.1310 C   0  0  0  0  0  1  0  0  0  0  0  0
  -25.3860  -36.3500   23.8920 C   0  0  0  0  0  3  0  0  0  0  0  0
  -27.5110  -37.2810   24.7040 C   0  0  0  0  0  1  0  0  0  0  0  0
  -26.3850  -37.4380   23.7870 N   0  0  0  0  0  0  0  0  0  0  0  0
  -25.9540  -38.3410   23.9680 H   0  0  0  0  0  0  0  0  0  0  0  0
  -26.5050  -31.7380   24.9910 C   0  0  1  0  0  0  0  0  0  0  0  0
  -25.4140  -31.4590   26.0530 C   0  0  0  0  0  1  0  0  0  0  0  0
  -27.1220  -30.3800   24.5900 C   0  0  0  0  0  1  0  0  0  0  0  0
  -27.6340  -32.5520   25.6650 C   0  0  0  0  0  1  0  0  0  0  0  0
  1  3  2  0
  1  4  1  0
  2  6  1  0
  3  5  1  0
  4  2  2  0
  5  6  2  0
  6 10  1  0
  7  9  1  0
  8  7  2  0
  8  3  1  0
  9 12  1  6
  9  5  1  0
  9 49  1  0
 11  8  1  0
 13  4  1  0
 14 19  1  0
 15 16  1  0
 15 14  1  0
 17 16  1  0
 17 24  1  0
 17 18  1  0
 19 13  1  0
 19 18  1  0
 20 13  2  0
 21 22  2  0
 22 41  1  0
 23 22  1  0
 23 26  1  0
 24 25  1  0
 24 21  1  0
 25 23  2  0
 26 27  1  0
 27 28  2  0
 29 32  1  0
 29 28  1  0
 30 29  2  0
 31 30  1  0
 31 26  2  0
 32 33  1  0
 33 38  2  0
 33 34  1  0
 34 35  2  0
 35 36  1  0
 36 40  1  0
 37 36  2  0
 38 37  1  0
 39 38  1  0
 41 42  1  0
 42 45  1  0
 42 44  1  0
 43 41  2  0
 46 21  1  0
 46 47  1  0
 48 46  1  0
 50 52  1  0
 50 49  1  0
 51 62  2  0
 52 57  1  0
 53 61  1  0
 53 63  1  0
 54 60  1  0
 54 56  1  0
 55 61  1  0
 56 55  1  0
 57 56  2  0
 58 52  2  0
 59 58  1  0
 59 54  2  0
 60 53  1  0
 61 51  1  0
 63 65  2  0
 64 63  1  0
 66 64  1  0
 67 76  2  0
 67 72  1  0
 68 64  1  0
 68 72  1  0
 69 68  1  0
 70 71  1  0
 70 69  1  0
 71 67  1  0
 72 73  2  0
 73 74  1  0
 75 74  2  0
 76 75  1  0
 77 51  1  0
 77 78  1  0
 77 87  1  0
 78 81  1  0
 79 83  1  0
 79 78  1  0
 80 79  2  0
 83 82  1  0
 85 83  1  0
 85 86  1  0
 85 84  1  0
 87 90  1  1
 87 88  1  0
 89 87  1  0
M  ISO  4   4 100  13 100  49 101  50 101
M  END
>  <TORSDO>  (65) 
F 17

>  <SCORE>  (65) 
-16.931

>  <name>  (65) 
64

>  <ligand_id>  (65) 
64

>  <original_smiles>  (65) 
[H]C1=C(C([H])([H])[H])c2c([H])c(C(=O)N3C([H])([H])C([H])([H])C([H])([H])C([H])(n4nc(-c5c([H])c([H])c(Oc6c([H])c([H])c(F)c([H])c6F)c([H])c5[H])c(C(=O)N([H])[H])c4N([H])[H])C3([H])[H])c([H])c(C([H])([H])[H])c2C1(C([H])([H])[H])C([H])([H])Oc1c([H])c([H])c2c(c1[H])C([H])([H])N(C(=O)C([H])(N([H])C(=O)C([H])(N([H])C([H])([H])[H])C([H])([H])[H])C(C([H])([H])[H])(C([H])([H])[H])C([H])([H])[H])C([H])(C(=O)N([H])C1([H])c3c([H])c([H])c([H])c([H])c3C([H])([H])C([H])([H])C1([H])[H])C2([H])[H]

>  <smiles>  (65) 
[H]C1=C(C([H])([H])[H])c2c([H])c(C(=O)N3C([H])([H])C([H])([H])C([H])([H])C([H])(n4nc(-c5c([H])c([H])c(Oc6c([H])c([H])c(F)c([H])c6F)c([H])c5[H])c(C(=O)N([H])[H])c4N([H])[H])C3([H])[H])c([H])c(C([H])([H])[H])c2C1(C([H])([H])[H])C([H])([H])Oc1c([H])c([H])c2c(c1[H])C([H])([H])N(C(=O)C([H])(N([H])C(=O)C([H])(N([H])C([H])([H])[H])C([H])([H])[H])C(C([H])([H])[H])(C([H])([H])[H])C([H])([H])[H])C([H])(C(=O)N([H])C1([H])c3c([H])c([H])c([H])c([H])c3C([H])([H])C([H])([H])C1([H])[H])C2([H])[H]

$$$$
65:0:0
     RDKit          3D

 91100  0  0  1  0  0  0  0  0999 V2000
  -28.1140  -21.4120   21.0480 C   0  0  0  0  0  3  0  0  0  0  0  0
  -28.9080  -22.9030   19.3530 C   0  0  0  0  0  3  0  0  0  0  0  0
  -27.4020  -23.8840   20.9330 C   0  0  0  0  0  3  0  0  0  0  0  0
  -28.9480  -21.3590   19.9020 C   0  0  0  0  0  0  0  0  0  0  0  0
  -27.3920  -22.5670   21.5110 C   0  0  0  0  0  0  0  0  0  0  0  0
  -28.1520  -24.2870   19.8000 C   0  0  0  0  0  0  0  0  0  0  0  0
  -30.5840  -16.4370   19.7930 C   0  0  0  0  0  0  0  0  0  0  0  0
  -30.8350  -13.8360   19.0900 C   0  0  0  0  0  2  0  0  0  0  0  0
  -29.9400  -13.2510   17.9530 C   0  0  0  0  0  2  0  0  0  0  0  0
  -28.5560  -12.8350   18.4780 C   0  0  0  0  0  2  0  0  0  0  0  0
  -28.0110  -13.8600   19.4950 C   0  0  0  0  0  3  0  0  0  0  0  0
  -29.0560  -14.3370   20.5350 C   0  0  0  0  0  2  0  0  0  0  0  0
  -30.1440  -15.0210   19.7870 N   0  0  0  0  0  0  0  0  0  0  0  0
  -31.8310  -16.3970   19.7060 O   0  0  0  0  0  0  0  0  0  0  0  0
  -29.2330  -18.4700   17.3610 C   0  0  0  0  0  2  0  0  0  0  0  0
  -29.9720  -19.6800   17.9570 C   0  0  0  0  0  2  0  0  0  0  0  0
  -28.8280  -17.5160   18.5100 C   0  0  0  0  0  2  0  0  0  0  0  0
  -29.6690  -19.6340   19.4470 C   0  0  0  0  0  3  0  0  0  0  0  0
  -29.7300  -17.7930   19.6520 N   0  0  0  0  0  0  0  0  0  0  0  0
  -25.7150  -14.3200   20.4670 C   0  0  0  0  0  0  0  0  0  0  0  0
  -24.6800  -13.5120   20.8370 C   0  0  0  0  0  0  0  0  0  0  0  0
  -25.1450  -12.1700   20.6720 C   0  0  0  0  0  0  0  0  0  0  0  0
  -26.7380  -13.4750   20.0850 N   0  0  0  0  0  0  0  0  0  0  0  0
  -26.4150  -12.1670   20.2740 N   0  0  0  0  0  0  0  0  0  0  0  0
  -24.4270  -10.8950   20.8110 C   0  0  0  0  0  0  0  0  0  0  0  0
  -24.8390   -9.9090   21.7340 C   0  0  0  0  0  3  0  0  0  0  0  0
  -24.1120   -8.7050   21.8650 C   0  0  0  0  0  3  0  0  0  0  0  0
  -22.9610   -8.4780   21.0740 C   0  0  0  0  0  0  0  0  0  0  0  0
  -22.5670   -9.4540   20.1410 C   0  0  0  0  0  3  0  0  0  0  0  0
  -23.2940  -10.6480   20.0070 C   0  0  0  0  0  3  0  0  0  0  0  0
  -22.2100   -7.3260   21.1150 O   0  0  0  0  0  0  0  0  0  0  0  0
  -22.0210   -6.6330   22.2840 C   0  0  0  0  0  0  0  0  0  0  0  0
  -21.3990   -7.2200   23.4070 C   0  0  0  0  0  3  0  0  0  0  0  0
  -21.1600   -6.4500   24.5630 C   0  0  0  0  0  3  0  0  0  0  0  0
  -21.5360   -5.0950   24.5950 C   0  0  0  0  0  0  0  0  0  0  0  0
  -22.1530   -4.5060   23.4760 C   0  0  0  0  0  3  0  0  0  0  0  0
  -22.3920   -5.2740   22.3240 C   0  0  0  0  0  0  0  0  0  0  0  0
  -22.9680   -4.6990   21.2410 F   0  0  0  0  0  0  0  0  0  0  0  0
  -21.2990   -4.3520   25.7020 F   0  0  0  0  0  0  0  0  0  0  0  0
  -23.3040  -13.9630   21.2230 C   0  0  0  0  0  0  0  0  0  0  0  0
  -22.6340  -13.2180   22.0930 N   0  0  0  0  0  0  0  0  0  0  0  0
  -22.8360  -15.0180   20.7910 O   0  0  0  0  0  0  0  0  0  0  0  0
  -23.0280  -12.3680   22.4690 H   0  0  0  0  0  0  0  0  0  0  0  0
  -21.7110  -13.5000   22.3930 H   0  0  0  0  0  0  0  0  0  0  0  0
  -25.8590  -15.7040   20.3940 N   0  0  0  0  0  0  0  0  0  0  0  0
  -25.0930  -16.3270   20.6310 H   0  0  0  0  0  0  0  0  0  0  0  0
  -26.6790  -16.1890   20.0570 H   0  0  0  0  0  0  0  0  0  0  0  0
  -26.5970  -22.3900   22.6420 N   0  0  0  0  0  0  0  0  0  0  0  0
  -26.8280  -21.6490   23.2980 H   0  0  0  0  0  0  0  0  0  0  0  0
  -26.1810  -23.2020   23.0880 H   0  0  0  0  0  0  0  0  0  0  0  0
  -28.1030  -25.9000   19.4540 O   0  0  0  0  0  0  0  0  0  0  0  0
  -24.7610  -32.0680   23.0840 C   0  0  0  0  0  0  0  0  0  0  0  0
  -27.1270  -27.1320   19.6450 C   0  0  0  0  0  0  0  0  0  0  0  0
  -23.4910  -30.7740   21.4270 C   0  0  0  0  0  3  0  0  0  0  0  0
  -24.8630  -29.2130   19.8410 C   0  0  0  0  0  0  0  0  0  0  0  0
  -26.0640  -30.9090   21.1850 C   0  0  0  0  0  2  0  0  0  0  0  0
  -26.0940  -29.5120   20.4410 C   0  0  0  0  0  0  0  0  0  0  0  0
  -27.2040  -28.5050   20.3090 C   0  0  0  0  0  3  0  0  0  0  0  0
  -25.8580  -27.0750   19.0050 C   0  0  0  0  0  3  0  0  0  0  0  0
  -24.7890  -28.0210   19.1010 C   0  0  0  0  0  3  0  0  0  0  0  0
  -23.6640  -30.1670   20.0050 C   0  0  0  0  0  2  0  0  0  0  0  0
  -24.8000  -31.2820   21.9520 N   0  0  0  0  0  0  0  0  0  0  0  0
  -23.6940  -32.3300   23.6680 O   0  0  0  0  0  0  0  0  0  0  0  0
  -22.8240  -29.7350   22.3690 C   0  0  0  0  0  0  0  0  0  0  0  0
  -21.4950  -29.5420   22.2640 N   0  0  0  0  0  0  0  0  0  0  0  0
  -23.5140  -29.1010   23.1710 O   0  0  0  0  0  0  0  0  0  0  0  0
  -20.9810  -30.1050   21.6000 H   0  0  0  0  0  0  0  0  0  0  0  0
  -18.1570  -28.2120   22.8240 C   0  0  0  0  0  0  0  0  0  0  0  0
  -20.7170  -28.5440   23.0110 C   0  0  0  0  0  3  0  0  0  0  0  0
  -20.8350  -27.1450   22.3620 C   0  0  0  0  0  2  0  0  0  0  0  0
  -19.7090  -26.8450   21.3680 C   0  0  0  0  0  2  0  0  0  0  0  0
  -18.3470  -26.9090   22.0650 C   0  0  0  0  0  2  0  0  0  0  0  0
  -19.2670  -28.9870   23.2530 C   0  0  0  0  0  0  0  0  0  0  0  0
  -19.0300  -30.2020   23.9320 C   0  0  0  0  0  3  0  0  0  0  0  0
  -17.7170  -30.6450   24.1790 C   0  0  0  0  0  3  0  0  0  0  0  0
  -16.6220  -29.8700   23.7580 C   0  0  0  0  0  3  0  0  0  0  0  0
  -16.8420  -28.6540   23.0870 C   0  0  0  0  0  3  0  0  0  0  0  0
  -26.0520  -32.6850   23.7010 C   0  0  0  0  0  3  0  0  0  0  0  0
  -25.7340  -34.0510   24.1670 N   0  0  0  0  0  0  0  0  0  0  0  0
  -26.0070  -35.1800   23.4990 C   0  0  0  0  0  0  0  0  0  0  0  0
  -26.6090  -35.1830   22.4220 O   0  0  0  0  0  0  0  0  0  0  0  0
  -25.1840  -34.1200   25.0120 H   0  0  0  0  0  0  0  0  0  0  0  0
  -24.2360  -36.9750   23.4580 C   0  0  0  0  0  1  0  0  0  0  0  0
  -25.5460  -36.5190   24.1200 C   0  0  0  0  0  3  0  0  0  0  0  0
  -27.7270  -37.3820   24.8530 C   0  0  0  0  0  1  0  0  0  0  0  0
  -26.5520  -37.6000   24.0120 N   0  0  0  0  0  0  0  0  0  0  0  0
  -26.1450  -38.4960   24.2630 H   0  0  0  0  0  0  0  0  0  0  0  0
  -26.6270  -31.8360   24.9030 C   0  0  1  0  0  0  0  0  0  0  0  0
  -25.5860  -31.5230   26.0050 C   0  0  0  0  0  1  0  0  0  0  0  0
  -27.2000  -30.4890   24.4080 C   0  0  0  0  0  1  0  0  0  0  0  0
  -27.8040  -32.5920   25.5630 C   0  0  0  0  0  1  0  0  0  0  0  0
  1  5  1  0
  2  6  2  0
  2  4  1  0
  3  5  2  0
  4  1  2  0
  5 48  1  0
  6  3  1  0
  8 13  1  0
  9 10  1  0
  9  8  1  0
 11 10  1  0
 11 23  1  0
 11 12  1  0
 13  7  1  0
 13 12  1  0
 14  7  2  0
 15 16  1  0
 15 17  1  0
 16 18  1  0
 17 19  1  0
 18 19  1  0
 18  4  1  0
 19  7  1  0
 20 21  2  0
 21 40  1  0
 22 25  1  0
 22 21  1  0
 23 24  1  0
 23 20  1  0
 24 22  2  0
 25 26  1  0
 26 27  2  0
 28 31  1  0
 28 27  1  0
 29 28  2  0
 30 29  1  0
 30 25  2  0
 31 32  1  0
 32 37  2  0
 32 33  1  0
 33 34  2  0
 34 35  1  0
 35 39  1  0
 36 35  2  0
 37 36  1  0
 38 37  1  0
 40 41  1  0
 41 44  1  0
 41 43  1  0
 42 40  2  0
 45 20  1  0
 45 46  1  0
 47 45  1  0
 48 50  1  0
 48 49  1  0
 51 53  1  0
 51  6  1  0
 52 63  2  0
 53 58  1  0
 54 62  1  0
 54 64  1  0
 55 61  1  0
 55 57  1  0
 56 62  1  0
 57 56  1  0
 58 57  2  0
 59 60  1  0
 59 53  2  0
 60 55  2  0
 61 54  1  0
 62 52  1  0
 64 66  2  0
 65 64  1  0
 67 65  1  0
 68 77  2  0
 68 73  1  0
 69 65  1  0
 69 73  1  0
 70 69  1  0
 71 72  1  0
 71 70  1  0
 72 68  1  0
 73 74  2  0
 74 75  1  0
 76 75  2  0
 77 76  1  0
 78 52  1  0
 78 79  1  0
 78 88  1  0
 79 82  1  0
 80 84  1  0
 80 79  1  0
 81 80  2  0
 84 83  1  0
 86 84  1  0
 86 87  1  0
 86 85  1  0
 88 91  1  1
 88 89  1  0
 90 88  1  0
M  ISO  4   6 101   7 100  19 100  51 101
M  END
>  <TORSDO>  (66) 
F 17

>  <SCORE>  (66) 
-13.312

>  <name>  (66) 
65

>  <ligand_id>  (66) 
65

>  <original_smiles>  (66) 
[H]c1c([H])c([H])c2c(c1[H])C([H])([H])C([H])([H])C([H])([H])C2([H])N([H])C(=O)C1([H])N(C(=O)C([H])(N([H])C(=O)C([H])(N([H])C([H])([H])[H])C([H])([H])[H])C(C([H])([H])[H])(C([H])([H])[H])C([H])([H])[H])C([H])([H])c2c([H])c(Oc3c([H])c(N([H])[H])c([H])c(C4([H])N(C(=O)N5C([H])([H])C([H])([H])C([H])([H])C([H])(n6nc(-c7c([H])c([H])c(Oc8c([H])c([H])c(F)c([H])c8F)c([H])c7[H])c(C(=O)N([H])[H])c6N([H])[H])C5([H])[H])C([H])([H])C([H])([H])C4([H])[H])c3[H])c([H])c([H])c2C1([H])[H]

>  <smiles>  (66) 
[H]c1c([H])c([H])c2c(c1[H])C([H])([H])C([H])([H])C([H])([H])C2([H])N([H])C(=O)C1([H])N(C(=O)C([H])(N([H])C(=O)C([H])(N([H])C([H])([H])[H])C([H])([H])[H])C(C([H])([H])[H])(C([H])([H])[H])C([H])([H])[H])C([H])([H])c2c([H])c(Oc3c([H])c(N([H])[H])c([H])c(C4([H])N(C(=O)N5C([H])([H])C([H])([H])C([H])([H])C([H])(n6nc(-c7c([H])c([H])c(Oc8c([H])c([H])c(F)c([H])c8F)c([H])c7[H])c(C(=O)N([H])[H])c6N([H])[H])C5([H])[H])C([H])([H])C([H])([H])C4([H])[H])c3[H])c([H])c([H])c2C1([H])[H]

$$$$
66:0:0
     RDKit          3D

 94103  0  0  1  0  0  0  0  0999 V2000
  -28.6340  -20.5930   18.7590 C   0  0  0  0  0  3  0  0  0  0  0  0
  -29.5980  -20.0000   19.6560 C   0  0  0  0  0  0  0  0  0  0  0  0
  -30.0630  -21.0440   20.5110 C   0  0  0  0  0  0  0  0  0  0  0  0
  -28.1880  -22.0140   18.7710 C   0  0  0  0  0  0  0  0  0  0  0  0
  -29.6210  -22.4700   20.5610 C   0  0  0  0  0  0  0  0  0  0  0  0
  -28.6340  -23.0890   19.6720 C   0  0  0  0  0  0  0  0  0  0  0  0
  -31.1730  -20.4370   21.3470 C   0  0  0  0  0  2  0  0  0  0  0  0
  -30.4620  -18.5280   19.7400 C   0  0  0  0  0  3  0  0  0  0  0  0
  -31.3780  -18.9220   20.9480 C   0  0  0  0  0  3  0  0  0  0  0  0
  -27.1380  -22.3670   17.7310 C   0  0  0  0  0  1  0  0  0  0  0  0
  -30.2060  -23.3560   21.6470 C   0  0  0  0  0  1  0  0  0  0  0  0
  -30.9010  -15.6700   19.9710 C   0  0  0  0  0  0  0  0  0  0  0  0
  -30.9600  -13.1340   19.4840 C   0  0  0  0  0  2  0  0  0  0  0  0
  -30.1000  -12.7160   18.2670 C   0  0  0  0  0  2  0  0  0  0  0  0
  -28.6400  -12.4750   18.6870 C   0  0  0  0  0  2  0  0  0  0  0  0
  -28.1140  -13.5900   19.6260 C   0  0  0  0  0  3  0  0  0  0  0  0
  -29.1070  -13.9470   20.7520 C   0  0  0  0  0  2  0  0  0  0  0  0
  -30.3530  -14.3690   20.0940 N   0  0  0  0  0  0  0  0  0  0  0  0
  -32.1290  -15.6700   19.8180 O   0  0  0  0  0  0  0  0  0  0  0  0
  -30.1210  -16.9130   19.8310 N   0  0  0  0  0  0  0  0  0  0  0  0
  -29.1280  -16.7340   19.8590 H   0  0  0  0  0  0  0  0  0  0  0  0
  -25.7570  -14.2120   20.3770 C   0  0  0  0  0  0  0  0  0  0  0  0
  -24.6700  -13.4630   20.7280 C   0  0  0  0  0  0  0  0  0  0  0  0
  -25.0980  -12.0990   20.6830 C   0  0  0  0  0  0  0  0  0  0  0  0
  -26.7750  -13.3090   20.1270 N   0  0  0  0  0  0  0  0  0  0  0  0
  -26.3890  -12.0310   20.3800 N   0  0  0  0  0  0  0  0  0  0  0  0
  -24.3320  -10.8570   20.8490 C   0  0  0  0  0  0  0  0  0  0  0  0
  -24.7120   -9.8760   21.7920 C   0  0  0  0  0  3  0  0  0  0  0  0
  -23.9460   -8.7010   21.9490 C   0  0  0  0  0  3  0  0  0  0  0  0
  -22.7860   -8.4970   21.1640 C   0  0  0  0  0  0  0  0  0  0  0  0
  -22.4260   -9.4660   20.2110 C   0  0  0  0  0  3  0  0  0  0  0  0
  -23.1920  -10.6330   20.0520 C   0  0  0  0  0  3  0  0  0  0  0  0
  -21.9960   -7.3750   21.2290 O   0  0  0  0  0  0  0  0  0  0  0  0
  -21.8410   -6.6720   22.3970 C   0  0  0  0  0  0  0  0  0  0  0  0
  -21.3260   -7.2750   23.5660 C   0  0  0  0  0  3  0  0  0  0  0  0
  -21.1180   -6.4990   24.7240 C   0  0  0  0  0  3  0  0  0  0  0  0
  -21.4110   -5.1220   24.7130 C   0  0  0  0  0  0  0  0  0  0  0  0
  -21.9170   -4.5190   23.5470 C   0  0  0  0  0  3  0  0  0  0  0  0
  -22.1270   -5.2920   22.3920 C   0  0  0  0  0  0  0  0  0  0  0  0
  -22.5950   -4.7030   21.2660 F   0  0  0  0  0  0  0  0  0  0  0  0
  -21.2030   -4.3750   25.8220 F   0  0  0  0  0  0  0  0  0  0  0  0
  -23.2860  -13.9780   20.9920 C   0  0  0  0  0  0  0  0  0  0  0  0
  -22.5360  -13.3040   21.8560 N   0  0  0  0  0  0  0  0  0  0  0  0
  -22.8790  -15.0130   20.4660 O   0  0  0  0  0  0  0  0  0  0  0  0
  -22.8800  -12.4660   22.3020 H   0  0  0  0  0  0  0  0  0  0  0  0
  -21.6070  -13.6310   22.0770 H   0  0  0  0  0  0  0  0  0  0  0  0
  -25.9580  -15.5810   20.2150 N   0  0  0  0  0  0  0  0  0  0  0  0
  -25.2060  -16.2510   20.3250 H   0  0  0  0  0  0  0  0  0  0  0  0
  -26.8100  -15.9980   19.8640 H   0  0  0  0  0  0  0  0  0  0  0  0
  -27.8300  -24.6350   19.8300 C   0  0  0  0  0  2  0  0  0  0  0  0
  -28.2170  -26.2180   19.8290 O   0  0  0  0  0  0  0  0  0  0  0  0
  -24.6450  -31.9300   23.2250 C   0  0  0  0  0  0  0  0  0  0  0  0
  -27.1990  -27.3030   19.8640 C   0  0  0  0  0  0  0  0  0  0  0  0
  -23.4280  -30.6000   21.5520 C   0  0  0  0  0  3  0  0  0  0  0  0
  -24.8630  -29.1200   19.9970 C   0  0  0  0  0  0  0  0  0  0  0  0
  -25.9860  -30.8800   21.3390 C   0  0  0  0  0  2  0  0  0  0  0  0
  -26.0620  -29.5160   20.6020 C   0  0  0  0  0  0  0  0  0  0  0  0
  -27.2260  -28.6300   20.5150 C   0  0  0  0  0  3  0  0  0  0  0  0
  -25.9630  -27.0610   19.2200 C   0  0  0  0  0  3  0  0  0  0  0  0
  -24.8350  -27.9120   19.2870 C   0  0  0  0  0  3  0  0  0  0  0  0
  -23.6280  -30.0050   20.1320 C   0  0  0  0  0  2  0  0  0  0  0  0
  -24.7090  -31.1600   22.0920 N   0  0  0  0  0  0  0  0  0  0  0  0
  -23.5680  -32.1670   23.7940 O   0  0  0  0  0  0  0  0  0  0  0  0
  -22.7890  -29.5330   22.4790 C   0  0  0  0  0  0  0  0  0  0  0  0
  -21.4720  -29.2940   22.3360 N   0  0  0  0  0  0  0  0  0  0  0  0
  -23.4840  -28.9230   23.2950 O   0  0  0  0  0  0  0  0  0  0  0  0
  -20.9630  -29.8400   21.6560 H   0  0  0  0  0  0  0  0  0  0  0  0
  -18.1870  -27.7980   22.6950 C   0  0  0  0  0  0  0  0  0  0  0  0
  -20.6980  -28.2890   23.0740 C   0  0  0  0  0  3  0  0  0  0  0  0
  -20.9520  -26.8710   22.5110 C   0  0  0  0  0  2  0  0  0  0  0  0
  -19.9300  -26.4510   21.4510 C   0  0  0  0  0  2  0  0  0  0  0  0
  -18.5130  -26.4720   22.0310 C   0  0  0  0  0  2  0  0  0  0  0  0
  -19.2130  -28.6580   23.1700 C   0  0  0  0  0  0  0  0  0  0  0  0
  -18.8550  -29.8940   23.7520 C   0  0  0  0  0  3  0  0  0  0  0  0
  -17.5030  -30.2720   23.8650 C   0  0  0  0  0  3  0  0  0  0  0  0
  -16.4920  -29.4110   23.4050 C   0  0  0  0  0  3  0  0  0  0  0  0
  -16.8330  -28.1770   22.8270 C   0  0  0  0  0  3  0  0  0  0  0  0
  -25.9220  -32.5660   23.8510 C   0  0  0  0  0  3  0  0  0  0  0  0
  -26.4190  -31.8100   25.1450 C   0  0  1  0  0  0  0  0  0  0  0  0
  -25.3150  -31.6050   26.2090 C   0  0  0  0  0  1  0  0  0  0  0  0
  -26.9900  -30.4190   24.7890 C   0  0  0  0  0  1  0  0  0  0  0  0
  -27.5760  -32.6010   25.8010 C   0  0  0  0  0  1  0  0  0  0  0  0
  -25.6170  -33.9710   24.1710 N   0  0  0  0  0  0  0  0  0  0  0  0
  -25.9910  -35.0250   23.4330 C   0  0  0  0  0  0  0  0  0  0  0  0
  -26.6900  -34.9150   22.4230 O   0  0  0  0  0  0  0  0  0  0  0  0
  -25.0000  -34.1320   24.9540 H   0  0  0  0  0  0  0  0  0  0  0  0
  -24.3080  -36.8560   23.0400 C   0  0  0  0  0  1  0  0  0  0  0  0
  -25.5160  -36.4220   23.8860 C   0  0  0  0  0  3  0  0  0  0  0  0
  -27.6390  -37.2610   24.7890 C   0  0  0  0  0  1  0  0  0  0  0  0
  -26.5700  -37.4570   23.8130 N   0  0  0  0  0  0  0  0  0  0  0  0
  -26.1760  -38.3830   23.9560 H   0  0  0  0  0  0  0  0  0  0  0  0
  -32.8630  -18.5760   20.7100 C   0  0  0  0  0  2  0  0  0  0  0  0
  -35.2800  -19.2210   21.2030 C   0  0  0  0  0  1  0  0  0  0  0  0
  -33.8280  -19.2600   21.6930 C   0  0  0  0  0  2  0  0  0  0  0  0
  1  4  2  0
  1  2  1  0
  2  8  1  0
  2  3  2  0
  3  5  1  0
  3  7  1  0
  4  6  1  0
  5 11  1  0
  6 50  1  0
  6  5  2  0
  8 20  1  0
  8  9  1  0
  9 92  1  0
  9  7  1  0
 10  4  1  0
 12 18  1  0
 13 18  1  0
 14 15  1  0
 14 13  1  0
 16 15  1  0
 16 25  1  0
 16 17  1  0
 18 17  1  0
 19 12  2  0
 20 21  1  0
 20 12  1  0
 22 23  2  0
 23 42  1  0
 24 23  1  0
 24 27  1  0
 25 22  1  0
 25 26  1  0
 26 24  2  0
 27 28  1  0
 28 29  2  0
 30 33  1  0
 30 29  1  0
 31 30  2  0
 32 31  1  0
 32 27  2  0
 33 34  1  0
 34 35  1  0
 35 36  2  0
 37 36  1  0
 37 41  1  0
 38 37  2  0
 39 34  2  0
 39 38  1  0
 40 39  1  0
 42 43  1  0
 43 46  1  0
 43 45  1  0
 44 42  2  0
 47 48  1  0
 47 22  1  0
 49 47  1  0
 51 50  1  0
 51 53  1  0
 52 63  2  0
 53 58  1  0
 54 62  1  0
 54 64  1  0
 55 61  1  0
 55 57  1  0
 56 62  1  0
 57 56  1  0
 58 57  2  0
 59 60  1  0
 59 53  2  0
 60 55  2  0
 61 54  1  0
 62 52  1  0
 64 66  2  0
 65 64  1  0
 67 65  1  0
 68 77  2  0
 68 73  1  0
 69 65  1  0
 69 73  1  0
 70 69  1  0
 71 72  1  0
 71 70  1  0
 72 68  1  0
 73 74  2  0
 74 75  1  0
 76 75  2  0
 77 76  1  0
 78 52  1  0
 78 83  1  0
 78 79  1  0
 79 82  1  1
 79 80  1  0
 81 79  1  0
 83 86  1  0
 84 88  1  0
 84 83  1  0
 85 84  2  0
 88 87  1  0
 90 88  1  0
 90 91  1  0
 90 89  1  0
 92 94  1  0
 93 94  1  0
M  ISO  4  12 100  20 100  50 101  51 101
M  END
>  <TORSDO>  (67) 
F 19

>  <SCORE>  (67) 
-14.194

>  <name>  (67) 
66

>  <ligand_id>  (67) 
66

>  <original_smiles>  (67) 
[H]c1c([H])c([H])c2c(c1[H])C([H])([H])C([H])([H])C([H])([H])C2([H])N([H])C(=O)C1([H])N(C(=O)C([H])(N([H])C(=O)C([H])(N([H])C([H])([H])[H])C([H])([H])[H])C(C([H])([H])[H])(C([H])([H])[H])C([H])([H])[H])C([H])([H])c2c([H])c(OC([H])([H])c3c(C([H])([H])[H])c([H])c4c(c3C([H])([H])[H])C([H])([H])C([H])(C([H])([H])C([H])([H])C([H])([H])[H])C4([H])N([H])C(=O)N3C([H])([H])C([H])([H])C([H])([H])C([H])(n4nc(-c5c([H])c([H])c(Oc6c([H])c([H])c(F)c([H])c6F)c([H])c5[H])c(C(=O)N([H])[H])c4N([H])[H])C3([H])[H])c([H])c([H])c2C1([H])[H]

>  <smiles>  (67) 
[H]c1c([H])c([H])c2c(c1[H])C([H])([H])C([H])([H])C([H])([H])C2([H])N([H])C(=O)C1([H])N(C(=O)C([H])(N([H])C(=O)C([H])(N([H])C([H])([H])[H])C([H])([H])[H])C(C([H])([H])[H])(C([H])([H])[H])C([H])([H])[H])C([H])([H])c2c([H])c(OC([H])([H])c3c(C([H])([H])[H])c([H])c4c(c3C([H])([H])[H])C([H])([H])C([H])(C([H])([H])C([H])([H])C([H])([H])[H])C4([H])N([H])C(=O)N3C([H])([H])C([H])([H])C([H])([H])C([H])(n4nc(-c5c([H])c([H])c(Oc6c([H])c([H])c(F)c([H])c6F)c([H])c5[H])c(C(=O)N([H])[H])c4N([H])[H])C3([H])[H])c([H])c([H])c2C1([H])[H]

$$$$
67:0:0
     RDKit          3D

 98107  0  0  1  0  0  0  0  0999 V2000
  -30.7100  -25.8600   18.5690 C   0  0  0  0  0  3  0  0  0  0  0  0
  -31.7890  -23.2940   18.8430 C   0  0  0  0  0  3  0  0  0  0  0  0
  -29.9470  -24.8640   19.2250 C   0  0  0  0  0  0  0  0  0  0  0  0
  -30.4800  -23.5330   19.3350 C   0  0  0  0  0  0  0  0  0  0  0  0
  -31.9870  -25.5850   18.0490 C   0  0  0  0  0  0  0  0  0  0  0  0
  -32.5330  -24.3000   18.2050 C   0  0  0  0  0  0  0  0  0  0  0  0
  -33.7730  -24.0300   17.7260 F   0  0  0  0  0  0  0  0  0  0  0  0
  -32.7090  -26.5690   17.3740 N   0  0  0  0  0  0  0  0  0  0  0  0
  -32.5160  -27.5450   17.5720 H   0  0  0  0  0  0  0  0  0  0  0  0
  -33.6910  -26.3750   17.2000 H   0  0  0  0  0  0  0  0  0  0  0  0
  -29.7000  -22.3460   19.9440 C   0  0  0  0  0  3  0  0  0  0  0  0
  -30.1440  -20.9130   19.4700 C   0  0  0  0  0  3  0  0  0  0  0  0
  -29.5080  -19.1830   21.3390 C   0  0  0  0  0  2  0  0  0  0  0  0
  -29.0280  -18.6160   18.8310 C   0  0  0  0  0  2  0  0  0  0  0  0
  -30.3070  -17.8520   21.4130 C   0  0  0  0  0  2  0  0  0  0  0  0
  -29.8540  -17.3200   19.0240 C   0  0  0  0  0  2  0  0  0  0  0  0
  -29.2190  -19.7370   19.9080 C   0  0  0  0  0  3  0  0  0  0  0  0
  -29.6760  -16.8220   20.4660 C   0  0  0  0  0  3  0  0  0  0  0  0
  -30.6980  -14.4710   20.1330 C   0  0  0  0  0  0  0  0  0  0  0  0
  -30.4010  -12.3430   18.9160 C   0  0  0  0  0  2  0  0  0  0  0  0
  -29.3870  -12.5950   17.7790 C   0  0  0  0  0  2  0  0  0  0  0  0
  -27.9330  -12.4480   18.2730 C   0  0  0  0  0  2  0  0  0  0  0  0
  -27.6720  -13.2200   19.5930 C   0  0  0  0  0  3  0  0  0  0  0  0
  -28.7810  -12.9130   20.6270 C   0  0  0  0  0  2  0  0  0  0  0  0
  -30.0800  -13.2620   20.0200 N   0  0  0  0  0  0  0  0  0  0  0  0
  -31.7690  -14.7420   19.5800 O   0  0  0  0  0  0  0  0  0  0  0  0
  -29.9310  -15.3940   20.7460 N   0  0  0  0  0  0  0  0  0  0  0  0
  -29.1730  -14.9600   21.2500 H   0  0  0  0  0  0  0  0  0  0  0  0
  -25.3020  -13.8280   20.4020 C   0  0  0  0  0  0  0  0  0  0  0  0
  -24.2520  -13.0520   20.8110 C   0  0  0  0  0  0  0  0  0  0  0  0
  -24.7100  -11.7010   20.7470 C   0  0  0  0  0  0  0  0  0  0  0  0
  -26.3380  -12.9460   20.1210 N   0  0  0  0  0  0  0  0  0  0  0  0
  -25.9860  -11.6620   20.3840 N   0  0  0  0  0  0  0  0  0  0  0  0
  -23.9920  -10.4370   20.9570 C   0  0  0  0  0  0  0  0  0  0  0  0
  -24.4370   -9.4840   21.9000 C   0  0  0  0  0  3  0  0  0  0  0  0
  -23.7220   -8.2830   22.0950 C   0  0  0  0  0  3  0  0  0  0  0  0
  -22.5480   -8.0260   21.3460 C   0  0  0  0  0  0  0  0  0  0  0  0
  -22.1230   -8.9670   20.3920 C   0  0  0  0  0  3  0  0  0  0  0  0
  -22.8380  -10.1600   20.1970 C   0  0  0  0  0  3  0  0  0  0  0  0
  -21.8040   -6.8770   21.4520 O   0  0  0  0  0  0  0  0  0  0  0  0
  -21.7260   -6.1750   22.6290 C   0  0  0  0  0  0  0  0  0  0  0  0
  -21.2410   -6.7620   23.8180 C   0  0  0  0  0  3  0  0  0  0  0  0
  -21.1140   -5.9840   24.9860 C   0  0  0  0  0  3  0  0  0  0  0  0
  -21.4610   -4.6200   24.9650 C   0  0  0  0  0  0  0  0  0  0  0  0
  -21.9370   -4.0320   23.7800 C   0  0  0  0  0  3  0  0  0  0  0  0
  -22.0660   -4.8070   22.6150 C   0  0  0  0  0  0  0  0  0  0  0  0
  -22.5050   -4.2310   21.4680 F   0  0  0  0  0  0  0  0  0  0  0  0
  -21.3310   -3.8690   26.0840 F   0  0  0  0  0  0  0  0  0  0  0  0
  -22.8670  -13.5260   21.1510 C   0  0  0  0  0  0  0  0  0  0  0  0
  -22.1800  -12.8230   22.0450 N   0  0  0  0  0  0  0  0  0  0  0  0
  -22.4040  -14.5540   20.6590 O   0  0  0  0  0  0  0  0  0  0  0  0
  -22.5640  -11.9900   22.4650 H   0  0  0  0  0  0  0  0  0  0  0  0
  -21.2540  -13.1240   22.3130 H   0  0  0  0  0  0  0  0  0  0  0  0
  -25.4610  -15.1990   20.2270 N   0  0  0  0  0  0  0  0  0  0  0  0
  -24.6990  -15.8550   20.3680 H   0  0  0  0  0  0  0  0  0  0  0  0
  -26.2940  -15.6340   19.8520 H   0  0  0  0  0  0  0  0  0  0  0  0
  -28.5470  -25.2950   19.6910 C   0  0  0  0  0  2  0  0  0  0  0  0
  -28.4870  -26.6940   20.0690 O   0  0  0  0  0  0  0  0  0  0  0  0
  -24.6480  -31.8530   23.2060 C   0  0  0  0  0  0  0  0  0  0  0  0
  -27.2830  -27.3880   20.0980 C   0  0  0  0  0  0  0  0  0  0  0  0
  -23.4350  -30.4530   21.5690 C   0  0  0  0  0  3  0  0  0  0  0  0
  -24.8810  -28.9110   20.1420 C   0  0  0  0  0  0  0  0  0  0  0  0
  -25.9640  -30.8020   21.3630 C   0  0  0  0  0  2  0  0  0  0  0  0
  -26.0440  -29.4300   20.7210 C   0  0  0  0  0  0  0  0  0  0  0  0
  -27.2440  -28.6750   20.6950 C   0  0  0  0  0  3  0  0  0  0  0  0
  -26.0870  -26.8840   19.5360 C   0  0  0  0  0  3  0  0  0  0  0  0
  -24.8980  -27.6370   19.5510 C   0  0  0  0  0  3  0  0  0  0  0  0
  -23.6390  -29.7730   20.1900 C   0  0  0  0  0  2  0  0  0  0  0  0
  -24.7010  -31.0500   22.1040 N   0  0  0  0  0  0  0  0  0  0  0  0
  -23.5680  -32.1260   23.7500 O   0  0  0  0  0  0  0  0  0  0  0  0
  -22.7860  -29.4320   22.5320 C   0  0  0  0  0  0  0  0  0  0  0  0
  -21.4610  -29.2530   22.4110 N   0  0  0  0  0  0  0  0  0  0  0  0
  -23.4730  -28.8030   23.3410 O   0  0  0  0  0  0  0  0  0  0  0  0
  -20.9670  -29.8110   21.7280 H   0  0  0  0  0  0  0  0  0  0  0  0
  -18.0860  -28.0690   22.9280 C   0  0  0  0  0  0  0  0  0  0  0  0
  -20.6470  -28.3150   23.1830 C   0  0  0  0  0  3  0  0  0  0  0  0
  -20.7400  -26.8870   22.5980 C   0  0  0  0  0  2  0  0  0  0  0  0
  -19.6310  -26.5740   21.5900 C   0  0  0  0  0  2  0  0  0  0  0  0
  -18.2530  -26.7220   22.2450 C   0  0  0  0  0  2  0  0  0  0  0  0
  -19.2110  -28.8240   23.3540 C   0  0  0  0  0  0  0  0  0  0  0  0
  -19.0030  -30.0860   23.9520 C   0  0  0  0  0  3  0  0  0  0  0  0
  -17.7010  -30.5930   24.1280 C   0  0  0  0  0  3  0  0  0  0  0  0
  -16.5920  -29.8340   23.7200 C   0  0  0  0  0  3  0  0  0  0  0  0
  -16.7840  -28.5750   23.1250 C   0  0  0  0  0  3  0  0  0  0  0  0
  -25.9370  -32.4830   23.8210 C   0  0  0  0  0  3  0  0  0  0  0  0
  -25.6260  -33.8770   24.1670 N   0  0  0  0  0  0  0  0  0  0  0  0
  -25.9430  -34.9360   23.4120 C   0  0  0  0  0  0  0  0  0  0  0  0
  -26.6000  -34.8440   22.3700 O   0  0  0  0  0  0  0  0  0  0  0  0
  -25.0410  -34.0220   24.9770 H   0  0  0  0  0  0  0  0  0  0  0  0
  -24.2040  -36.7230   23.0900 C   0  0  0  0  0  1  0  0  0  0  0  0
  -25.4540  -36.3180   23.8850 C   0  0  0  0  0  3  0  0  0  0  0  0
  -27.5910  -37.2080   24.7060 C   0  0  0  0  0  1  0  0  0  0  0  0
  -26.4800  -37.3770   23.7710 N   0  0  0  0  0  0  0  0  0  0  0  0
  -26.0710  -38.2930   23.9280 H   0  0  0  0  0  0  0  0  0  0  0  0
  -26.4690  -31.7010   25.0840 C   0  0  1  0  0  0  0  0  0  0  0  0
  -25.3870  -31.4500   26.1590 C   0  0  0  0  0  1  0  0  0  0  0  0
  -27.0530  -30.3300   24.6730 C   0  0  0  0  0  1  0  0  0  0  0  0
  -27.6210  -32.4940   25.7450 C   0  0  0  0  0  1  0  0  0  0  0  0
  1  3  1  0
  2  4  1  0
  3  4  2  0
  3 57  1  0
  4 11  1  0
  5  6  1  0
  5  1  2  0
  6  2  2  0
  7  6  1  0
  8  9  1  0
  8  5  1  0
 10  8  1  0
 12 11  2  0
 13 15  1  0
 14 16  1  0
 14 17  1  0
 16 18  1  0
 17 12  1  0
 17 13  1  0
 18 27  1  0
 18 15  1  0
 19 27  1  0
 20 25  1  0
 21 22  1  0
 21 20  1  0
 23 22  1  0
 23 32  1  0
 23 24  1  0
 25 19  1  0
 25 24  1  0
 26 19  2  0
 27 28  1  0
 29 30  2  0
 30 49  1  0
 31 30  1  0
 31 34  1  0
 32 33  1  0
 32 29  1  0
 33 31  2  0
 34 35  1  0
 35 36  2  0
 37 40  1  0
 37 36  1  0
 38 37  2  0
 39 38  1  0
 39 34  2  0
 40 41  1  0
 41 42  1  0
 42 43  2  0
 44 43  1  0
 44 48  1  0
 45 44  2  0
 46 41  2  0
 46 45  1  0
 47 46  1  0
 49 50  1  0
 50 53  1  0
 50 52  1  0
 51 49  2  0
 54 55  1  0
 54 29  1  0
 56 54  1  0
 57 58  1  0
 58 60  1  0
 59 70  2  0
 60 65  1  0
 61 69  1  0
 61 71  1  0
 62 68  1  0
 62 64  1  0
 63 69  1  0
 64 63  1  0
 65 64  2  0
 66 67  1  0
 66 60  2  0
 67 62  2  0
 68 61  1  0
 69 59  1  0
 71 73  2  0
 72 71  1  0
 74 72  1  0
 75 84  2  0
 75 80  1  0
 76 72  1  0
 76 80  1  0
 77 76  1  0
 78 79  1  0
 78 77  1  0
 79 75  1  0
 80 81  2  0
 81 82  1  0
 83 82  2  0
 84 83  1  0
 85 59  1  0
 85 86  1  0
 85 95  1  0
 86 89  1  0
 87 91  1  0
 87 86  1  0
 88 87  2  0
 91 90  1  0
 93 91  1  0
 93 94  1  0
 93 92  1  0
 95 98  1  1
 95 96  1  0
 97 95  1  0
M  ISO  4  19 100  27 100  57 101  58 101
M  END
>  <TORSDO>  (68) 
F 21

>  <SCORE>  (68) 
-13.255

>  <name>  (68) 
67

>  <ligand_id>  (68) 
67

>  <original_smiles>  (68) 
[H]c1c([H])c([H])c2c(c1[H])C([H])([H])C([H])([H])C([H])([H])C2([H])N([H])C(=O)C1([H])N(C(=O)C([H])(N([H])C(=O)C([H])(N([H])C([H])([H])[H])C([H])([H])[H])C(C([H])([H])[H])(C([H])([H])[H])C([H])([H])[H])C([H])([H])c2c([H])c(OC([H])([H])c3c([H])c(N([H])[H])c(F)c([H])c3C([H])([H])C([H])([H])C3([H])C([H])([H])C([H])([H])C([H])(N([H])C(=O)N4C([H])([H])C([H])([H])C([H])([H])C([H])(n5nc(-c6c([H])c([H])c(Oc7c([H])c([H])c(F)c([H])c7F)c([H])c6[H])c(C(=O)N([H])[H])c5N([H])[H])C4([H])[H])C([H])([H])C3([H])[H])c([H])c([H])c2C1([H])[H]

>  <smiles>  (68) 
[H]c1c([H])c([H])c2c(c1[H])C([H])([H])C([H])([H])C([H])([H])C2([H])N([H])C(=O)C1([H])N(C(=O)C([H])(N([H])C(=O)C([H])(N([H])C([H])([H])[H])C([H])([H])[H])C(C([H])([H])[H])(C([H])([H])[H])C([H])([H])[H])C([H])([H])c2c([H])c(OC([H])([H])c3c([H])c(N([H])[H])c(F)c([H])c3C([H])([H])C([H])([H])C3([H])C([H])([H])C([H])([H])C([H])(N([H])C(=O)N4C([H])([H])C([H])([H])C([H])([H])C([H])(n5nc(-c6c([H])c([H])c(Oc7c([H])c([H])c(F)c([H])c7F)c([H])c6[H])c(C(=O)N([H])[H])c5N([H])[H])C4([H])[H])C([H])([H])C3([H])[H])c([H])c([H])c2C1([H])[H]

$$$$
68:0:0
     RDKit          3D

 91 99  0  0  1  0  0  0  0  0999 V2000
  -28.7060  -24.7650   17.0560 C   0  0  0  0  0  3  0  0  0  0  0  0
  -28.5430  -25.3280   18.3030 C   0  0  0  0  0  3  0  0  0  0  0  0
  -28.9270  -23.4070   16.9350 C   0  0  0  0  0  0  0  0  0  0  0  0
  -29.0550  -22.5870   18.0910 C   0  0  0  0  0  0  0  0  0  0  0  0
  -28.8830  -23.0660   19.4620 C   0  0  0  0  0  0  0  0  0  0  0  0
  -28.5160  -24.6420   19.5390 C   0  0  0  0  0  0  0  0  0  0  0  0
  -29.0810  -22.9040   15.5010 C   0  0  0  0  0  1  0  0  0  0  0  0
  -28.2580  -20.2470   17.3970 C   0  0  0  0  0  1  0  0  0  0  0  0
  -29.4570  -21.1420   17.7640 C   0  0  0  0  0  2  0  0  0  0  0  0
  -28.2330  -25.8350   20.4580 O   0  0  0  0  0  0  0  0  0  0  0  0
  -24.4790  -31.8670   23.1400 C   0  0  0  0  0  0  0  0  0  0  0  0
  -27.2490  -26.9730   20.3000 C   0  0  0  0  0  0  0  0  0  0  0  0
  -23.3790  -30.4210   21.4830 C   0  0  0  0  0  3  0  0  0  0  0  0
  -24.9170  -28.8250   20.1450 C   0  0  0  0  0  0  0  0  0  0  0  0
  -25.9490  -30.6730   21.4380 C   0  0  0  0  0  2  0  0  0  0  0  0
  -26.0740  -29.2540   20.8050 C   0  0  0  0  0  0  0  0  0  0  0  0
  -27.2330  -28.3480   20.8630 C   0  0  0  0  0  3  0  0  0  0  0  0
  -26.0490  -26.7030   19.5970 C   0  0  0  0  0  3  0  0  0  0  0  0
  -24.9310  -27.5690   19.5200 C   0  0  0  0  0  3  0  0  0  0  0  0
  -23.6790  -29.7210   20.1300 C   0  0  0  0  0  2  0  0  0  0  0  0
  -24.6220  -31.0160   22.0730 N   0  0  0  0  0  0  0  0  0  0  0  0
  -23.3640  -32.1450   23.6110 O   0  0  0  0  0  0  0  0  0  0  0  0
  -22.6640  -29.4290   22.4360 C   0  0  0  0  0  0  0  0  0  0  0  0
  -21.3310  -29.2890   22.3090 N   0  0  0  0  0  0  0  0  0  0  0  0
  -23.3150  -28.7830   23.2620 O   0  0  0  0  0  0  0  0  0  0  0  0
  -20.8590  -29.8580   21.6200 H   0  0  0  0  0  0  0  0  0  0  0  0
  -17.9130  -28.2080   22.8800 C   0  0  0  0  0  0  0  0  0  0  0  0
  -20.4900  -28.3590   23.0720 C   0  0  0  0  0  3  0  0  0  0  0  0
  -20.5110  -26.9460   22.4430 C   0  0  0  0  0  2  0  0  0  0  0  0
  -19.3670  -26.7090   21.4520 C   0  0  0  0  0  2  0  0  0  0  0  0
  -18.0130  -26.8830   22.1450 C   0  0  0  0  0  2  0  0  0  0  0  0
  -19.0750  -28.9100   23.3000 C   0  0  0  0  0  0  0  0  0  0  0  0
  -18.9230  -30.1520   23.9540 C   0  0  0  0  0  3  0  0  0  0  0  0
  -17.6450  -30.6940   24.1860 C   0  0  0  0  0  3  0  0  0  0  0  0
  -16.4990  -29.9900   23.7780 C   0  0  0  0  0  3  0  0  0  0  0  0
  -16.6340  -28.7490   23.1320 C   0  0  0  0  0  3  0  0  0  0  0  0
  -25.7100  -32.5480   23.8120 C   0  0  0  0  0  3  0  0  0  0  0  0
  -26.1680  -31.8250   25.1390 C   0  0  1  0  0  0  0  0  0  0  0  0
  -25.0210  -31.5940   26.1510 C   0  0  0  0  0  1  0  0  0  0  0  0
  -26.7980  -30.4490   24.8300 C   0  0  0  0  0  1  0  0  0  0  0  0
  -27.2640  -32.6610   25.8400 C   0  0  0  0  0  1  0  0  0  0  0  0
  -25.3550  -33.9500   24.0970 N   0  0  0  0  0  0  0  0  0  0  0  0
  -25.7570  -35.0060   23.3770 C   0  0  0  0  0  0  0  0  0  0  0  0
  -26.5240  -34.9030   22.4160 O   0  0  0  0  0  0  0  0  0  0  0  0
  -24.6820  -34.1030   24.8340 H   0  0  0  0  0  0  0  0  0  0  0  0
  -24.1000  -36.8210   22.8250 C   0  0  0  0  0  1  0  0  0  0  0  0
  -25.2250  -36.3960   23.7830 C   0  0  0  0  0  3  0  0  0  0  0  0
  -27.2370  -37.2620   24.8950 C   0  0  0  0  0  1  0  0  0  0  0  0
  -26.2720  -37.4420   23.8140 N   0  0  0  0  0  0  0  0  0  0  0  0
  -25.8570  -38.3650   23.9130 H   0  0  0  0  0  0  0  0  0  0  0  0
  -29.2820  -21.7360   20.5460 C   0  0  0  0  0  2  0  0  0  0  0  0
  -29.1230  -19.8860   20.5620 C   0  0  0  0  0  3  0  0  0  0  0  0
  -30.1410  -18.3970   20.2870 C   0  0  0  0  0  3  0  0  0  0  0  0
  -30.5690  -15.4390   20.1720 C   0  0  0  0  0  0  0  0  0  0  0  0
  -30.4930  -13.0230   19.1890 C   0  0  0  0  0  2  0  0  0  0  0  0
  -29.5490  -12.8800   17.9690 C   0  0  0  0  0  2  0  0  0  0  0  0
  -28.1100  -12.5930   18.4300 C   0  0  0  0  0  2  0  0  0  0  0  0
  -27.6930  -13.5030   19.6120 C   0  0  0  0  0  3  0  0  0  0  0  0
  -28.7690  -13.6050   20.7170 C   0  0  0  0  0  2  0  0  0  0  0  0
  -29.9830  -14.1380   20.0770 N   0  0  0  0  0  0  0  0  0  0  0  0
  -31.7780  -15.4200   19.8970 O   0  0  0  0  0  0  0  0  0  0  0  0
  -29.8430  -16.7330   20.3720 N   0  0  0  0  0  0  0  0  0  0  0  0
  -28.8720  -16.5480   20.5770 H   0  0  0  0  0  0  0  0  0  0  0  0
  -25.3310  -14.0370   20.3990 C   0  0  0  0  0  0  0  0  0  0  0  0
  -24.2790  -13.2500   20.7750 C   0  0  0  0  0  0  0  0  0  0  0  0
  -24.7540  -11.9030   20.7310 C   0  0  0  0  0  0  0  0  0  0  0  0
  -26.3770  -13.1700   20.1370 N   0  0  0  0  0  0  0  0  0  0  0  0
  -26.0420  -11.8800   20.4050 N   0  0  0  0  0  0  0  0  0  0  0  0
  -24.0360  -10.6360   20.9210 C   0  0  0  0  0  0  0  0  0  0  0  0
  -24.4510   -9.6850   21.8790 C   0  0  0  0  0  3  0  0  0  0  0  0
  -23.7290   -8.4860   22.0580 C   0  0  0  0  0  3  0  0  0  0  0  0
  -22.5740   -8.2290   21.2800 C   0  0  0  0  0  0  0  0  0  0  0  0
  -22.1780   -9.1690   20.3110 C   0  0  0  0  0  3  0  0  0  0  0  0
  -22.9030  -10.3590   20.1310 C   0  0  0  0  0  3  0  0  0  0  0  0
  -21.8250   -7.0780   21.3650 O   0  0  0  0  0  0  0  0  0  0  0  0
  -21.7190   -6.3760   22.5380 C   0  0  0  0  0  0  0  0  0  0  0  0
  -21.1690   -6.9510   23.7050 C   0  0  0  0  0  3  0  0  0  0  0  0
  -21.0140   -6.1720   24.8690 C   0  0  0  0  0  3  0  0  0  0  0  0
  -21.3980   -4.8170   24.8670 C   0  0  0  0  0  0  0  0  0  0  0  0
  -21.9420   -4.2410   23.7050 C   0  0  0  0  0  3  0  0  0  0  0  0
  -22.0980   -5.0190   22.5440 C   0  0  0  0  0  0  0  0  0  0  0  0
  -22.6020   -4.4520   21.4210 F   0  0  0  0  0  0  0  0  0  0  0  0
  -21.2420   -4.0660   25.9820 F   0  0  0  0  0  0  0  0  0  0  0  0
  -22.8810  -13.7180   21.0590 C   0  0  0  0  0  0  0  0  0  0  0  0
  -22.1630  -13.0090   21.9200 N   0  0  0  0  0  0  0  0  0  0  0  0
  -22.4370  -14.7480   20.5510 O   0  0  0  0  0  0  0  0  0  0  0  0
  -22.5380  -12.1770   22.3510 H   0  0  0  0  0  0  0  0  0  0  0  0
  -21.2260  -13.3020   22.1530 H   0  0  0  0  0  0  0  0  0  0  0  0
  -25.4780  -15.4110   20.2280 N   0  0  0  0  0  0  0  0  0  0  0  0
  -24.6990  -16.0480   20.3490 H   0  0  0  0  0  0  0  0  0  0  0  0
  -26.3030  -15.8610   19.8520 H   0  0  0  0  0  0  0  0  0  0  0  0
  1  2  1  0
  2  6  2  0
  3  1  2  0
  3  4  1  0
  4  5  2  0
  5  6  1  0
  5 51  1  0
  6 10  1  0
  7  3  1  0
  8  9  1  0
  9  4  1  0
 11 22  2  0
 12 10  1  0
 12 17  1  0
 13 21  1  0
 13 23  1  0
 14 16  1  0
 15 21  1  0
 16 17  2  0
 16 15  1  0
 18 12  2  0
 19 18  1  0
 19 14  2  0
 20 14  1  0
 20 13  1  0
 21 11  1  0
 23 25  2  0
 24 23  1  0
 26 24  1  0
 27 36  2  0
 27 32  1  0
 28 24  1  0
 28 32  1  0
 29 28  1  0
 30 31  1  0
 30 29  1  0
 31 27  1  0
 32 33  2  0
 33 34  1  0
 35 34  2  0
 36 35  1  0
 37 11  1  0
 37 42  1  0
 37 38  1  0
 38 41  1  1
 38 39  1  0
 40 38  1  0
 42 45  1  0
 43 47  1  0
 43 42  1  0
 44 43  2  0
 47 46  1  0
 47 49  1  0
 49 50  1  0
 49 48  1  0
 51 52  1  0
 53 62  1  0
 53 52  2  0
 54 62  1  0
 55 60  1  0
 56 57  1  0
 56 55  1  0
 58 57  1  0
 58 67  1  0
 58 59  1  0
 60 54  1  0
 60 59  1  0
 61 54  2  0
 62 63  1  0
 64 65  2  0
 65 84  1  0
 66 65  1  0
 66 69  1  0
 67 64  1  0
 67 68  1  0
 68 66  2  0
 69 70  1  0
 70 71  2  0
 72 75  1  0
 72 71  1  0
 73 72  2  0
 74 73  1  0
 74 69  2  0
 75 76  1  0
 76 81  2  0
 76 77  1  0
 77 78  2  0
 79 78  1  0
 79 83  1  0
 80 79  2  0
 81 80  1  0
 82 81  1  0
 84 85  1  0
 85 88  1  0
 85 87  1  0
 86 84  2  0
 89 90  1  0
 89 64  1  0
 91 89  1  0
M  ISO  4   6 101  10 101  54 100  62 100
M  END
>  <TORSDO>  (69) 
F 20

>  <SCORE>  (69) 
-14.596

>  <name>  (69) 
68

>  <ligand_id>  (69) 
68

>  <original_smiles>  (69) 
[H]c1c([H])c([H])c2c(c1[H])C([H])([H])C([H])([H])C([H])([H])C2([H])N([H])C(=O)C1([H])N(C(=O)C([H])(N([H])C(=O)C([H])(N([H])C([H])([H])[H])C([H])([H])[H])C(C([H])([H])[H])(C([H])([H])[H])C([H])([H])[H])C([H])([H])c2c([H])c(Oc3c([H])c([H])c(C([H])([H])[H])c(C([H])([H])C([H])([H])[H])c3C([H])([H])C([H])([H])C([H])([H])N([H])C(=O)N3C([H])([H])C([H])([H])C([H])([H])C([H])(n4nc(-c5c([H])c([H])c(Oc6c([H])c([H])c(F)c([H])c6F)c([H])c5[H])c(C(=O)N([H])[H])c4N([H])[H])C3([H])[H])c([H])c([H])c2C1([H])[H]

>  <smiles>  (69) 
[H]c1c([H])c([H])c2c(c1[H])C([H])([H])C([H])([H])C([H])([H])C2([H])N([H])C(=O)C1([H])N(C(=O)C([H])(N([H])C(=O)C([H])(N([H])C([H])([H])[H])C([H])([H])[H])C(C([H])([H])[H])(C([H])([H])[H])C([H])([H])[H])C([H])([H])c2c([H])c(Oc3c([H])c([H])c(C([H])([H])[H])c(C([H])([H])C([H])([H])[H])c3C([H])([H])C([H])([H])C([H])([H])N([H])C(=O)N3C([H])([H])C([H])([H])C([H])([H])C([H])(n4nc(-c5c([H])c([H])c(Oc6c([H])c([H])c(F)c([H])c6F)c([H])c5[H])c(C(=O)N([H])[H])c4N([H])[H])C3([H])[H])c([H])c([H])c2C1([H])[H]

$$$$
69:0:0
     RDKit          3D

 93102  0  0  1  0  0  0  0  0999 V2000
  -29.7100  -21.6600   19.7630 C   0  0  0  0  0  3  0  0  0  0  0  0
  -29.7590  -20.3710   20.3020 C   0  0  0  0  0  0  0  0  0  0  0  0
  -29.0180  -22.8740   20.3540 C   0  0  0  0  0  0  0  0  0  0  0  0
  -28.9810  -24.1400   19.7530 C   0  0  0  0  0  3  0  0  0  0  0  0
  -29.0290  -20.1370   21.6150 C   0  0  0  0  0  2  0  0  0  0  0  0
  -28.3360  -22.6020   21.6980 C   0  0  0  0  0  2  0  0  0  0  0  0
  -27.8870  -21.1390   21.8450 C   0  0  0  0  0  2  0  0  0  0  0  0
  -30.6770  -19.2440   18.2670 C   0  0  0  0  0  3  0  0  0  0  0  0
  -31.2590  -18.1920   17.5520 C   0  0  0  0  0  3  0  0  0  0  0  0
  -30.5940  -17.7880   20.2230 C   0  0  0  0  0  3  0  0  0  0  0  0
  -30.3560  -19.1070   19.6280 C   0  0  0  0  0  0  0  0  0  0  0  0
  -31.1660  -16.6520   19.4980 C   0  0  0  0  0  0  0  0  0  0  0  0
  -31.5510  -16.9490   18.1460 C   0  0  0  0  0  0  0  0  0  0  0  0
  -32.3870  -16.0360   17.2550 C   0  0  0  0  0  1  0  0  0  0  0  0
  -31.6660  -15.3040   20.1350 C   0  0  0  0  0  0  0  0  0  0  0  0
  -31.3330  -12.9650   19.3360 C   0  0  0  0  0  2  0  0  0  0  0  0
  -30.4100  -12.9060   18.1000 C   0  0  0  0  0  2  0  0  0  0  0  0
  -28.9360  -12.8400   18.5180 C   0  0  0  0  0  2  0  0  0  0  0  0
  -28.5690  -13.8700   19.6190 C   0  0  0  0  0  3  0  0  0  0  0  0
  -29.6140  -13.9130   20.7510 C   0  0  0  0  0  2  0  0  0  0  0  0
  -30.9260  -14.1400   20.1370 N   0  0  0  0  0  0  0  0  0  0  0  0
  -32.8930  -15.2160   20.1590 O   0  0  0  0  0  0  0  0  0  0  0  0
  -26.2220  -14.5830   20.3640 C   0  0  0  0  0  0  0  0  0  0  0  0
  -25.1080  -13.8640   20.7010 C   0  0  0  0  0  0  0  0  0  0  0  0
  -25.4900  -12.4890   20.6430 C   0  0  0  0  0  0  0  0  0  0  0  0
  -27.2130  -13.6500   20.1160 N   0  0  0  0  0  0  0  0  0  0  0  0
  -26.7820  -12.3830   20.3550 N   0  0  0  0  0  0  0  0  0  0  0  0
  -24.6880  -11.2660   20.7890 C   0  0  0  0  0  0  0  0  0  0  0  0
  -25.0300  -10.2630   21.7230 C   0  0  0  0  0  3  0  0  0  0  0  0
  -24.2300   -9.1080   21.8580 C   0  0  0  0  0  3  0  0  0  0  0  0
  -23.0740   -8.9470   21.0580 C   0  0  0  0  0  0  0  0  0  0  0  0
  -22.7520   -9.9370   20.1130 C   0  0  0  0  0  3  0  0  0  0  0  0
  -23.5520  -11.0830   19.9760 C   0  0  0  0  0  3  0  0  0  0  0  0
  -22.2510   -7.8480   21.1040 O   0  0  0  0  0  0  0  0  0  0  0  0
  -22.0580   -7.1400   22.2640 C   0  0  0  0  0  0  0  0  0  0  0  0
  -21.5290   -7.7440   23.4260 C   0  0  0  0  0  3  0  0  0  0  0  0
  -21.2820   -6.9650   24.5730 C   0  0  0  0  0  3  0  0  0  0  0  0
  -21.5540   -5.5840   24.5600 C   0  0  0  0  0  0  0  0  0  0  0  0
  -22.0760   -4.9810   23.4020 C   0  0  0  0  0  3  0  0  0  0  0  0
  -22.3240   -5.7560   22.2570 C   0  0  0  0  0  0  0  0  0  0  0  0
  -22.8060   -5.1660   21.1370 F   0  0  0  0  0  0  0  0  0  0  0  0
  -21.3110   -4.8340   25.6600 F   0  0  0  0  0  0  0  0  0  0  0  0
  -23.7360  -14.4170   20.9620 C   0  0  0  0  0  0  0  0  0  0  0  0
  -22.9590  -13.7500   21.8070 N   0  0  0  0  0  0  0  0  0  0  0  0
  -23.3670  -15.4740   20.4530 O   0  0  0  0  0  0  0  0  0  0  0  0
  -23.2740  -12.8950   22.2410 H   0  0  0  0  0  0  0  0  0  0  0  0
  -22.0380  -14.1010   22.0250 H   0  0  0  0  0  0  0  0  0  0  0  0
  -26.4710  -15.9440   20.2220 N   0  0  0  0  0  0  0  0  0  0  0  0
  -25.7480  -16.6430   20.3500 H   0  0  0  0  0  0  0  0  0  0  0  0
  -27.3590  -16.3380   19.9360 H   0  0  0  0  0  0  0  0  0  0  0  0
  -28.2860  -25.4430   20.2530 C   0  0  0  0  0  0  0  0  0  0  0  0
  -27.7240  -25.5050   21.3500 O   0  0  0  0  0  0  0  0  0  0  0  0
  -28.2610  -26.6200   19.3930 O   0  0  0  0  0  0  0  0  0  0  0  0
  -24.6970  -31.7380   23.1680 C   0  0  0  0  0  0  0  0  0  0  0  0
  -27.2030  -27.5440   19.5330 C   0  0  0  0  0  0  0  0  0  0  0  0
  -23.4380  -30.5100   21.4380 C   0  0  0  0  0  3  0  0  0  0  0  0
  -24.8410  -29.1470   19.7870 C   0  0  0  0  0  0  0  0  0  0  0  0
  -25.9670  -30.8760   21.1840 C   0  0  0  0  0  2  0  0  0  0  0  0
  -26.0340  -29.5730   20.3880 C   0  0  0  0  0  0  0  0  0  0  0  0
  -27.2230  -28.7860   20.2510 C   0  0  0  0  0  3  0  0  0  0  0  0
  -25.9920  -27.1930   18.9000 C   0  0  0  0  0  3  0  0  0  0  0  0
  -24.8230  -27.9660   19.0310 C   0  0  0  0  0  3  0  0  0  0  0  0
  -23.6000  -29.9950   19.9830 C   0  0  0  0  0  2  0  0  0  0  0  0
  -24.7210  -31.0530   21.9870 N   0  0  0  0  0  0  0  0  0  0  0  0
  -23.6360  -31.9370   23.7760 O   0  0  0  0  0  0  0  0  0  0  0  0
  -22.8270  -29.3840   22.3080 C   0  0  0  0  0  0  0  0  0  0  0  0
  -21.5020  -29.1820   22.2000 N   0  0  0  0  0  0  0  0  0  0  0  0
  -23.5450  -28.6990   23.0410 O   0  0  0  0  0  0  0  0  0  0  0  0
  -20.9800  -29.7900   21.5850 H   0  0  0  0  0  0  0  0  0  0  0  0
  -18.1740  -27.8350   22.6560 C   0  0  0  0  0  0  0  0  0  0  0  0
  -20.7300  -28.1510   22.8960 C   0  0  0  0  0  3  0  0  0  0  0  0
  -20.8610  -26.7830   22.1860 C   0  0  0  0  0  2  0  0  0  0  0  0
  -19.7450  -26.5220   21.1690 C   0  0  0  0  0  2  0  0  0  0  0  0
  -18.3760  -26.5620   21.8510 C   0  0  0  0  0  2  0  0  0  0  0  0
  -19.2800  -28.5890   23.1320 C   0  0  0  0  0  0  0  0  0  0  0  0
  -19.0360  -29.7820   23.8460 C   0  0  0  0  0  3  0  0  0  0  0  0
  -17.7210  -30.2230   24.0860 C   0  0  0  0  0  3  0  0  0  0  0  0
  -16.6310  -29.4650   23.6250 C   0  0  0  0  0  3  0  0  0  0  0  0
  -16.8590  -28.2710   22.9150 C   0  0  0  0  0  3  0  0  0  0  0  0
  -26.0000  -32.3200   23.7990 C   0  0  0  0  0  3  0  0  0  0  0  0
  -25.6930  -33.6730   24.2820 N   0  0  0  0  0  0  0  0  0  0  0  0
  -26.0350  -34.8030   23.6500 C   0  0  0  0  0  0  0  0  0  0  0  0
  -26.7120  -34.8140   22.6170 O   0  0  0  0  0  0  0  0  0  0  0  0
  -25.0970  -33.7380   25.0950 H   0  0  0  0  0  0  0  0  0  0  0  0
  -24.3310  -36.6450   23.4760 C   0  0  0  0  0  1  0  0  0  0  0  0
  -25.5510  -36.1340   24.2580 C   0  0  0  0  0  3  0  0  0  0  0  0
  -27.6730  -36.8930   25.2340 C   0  0  0  0  0  1  0  0  0  0  0  0
  -26.5950  -37.1810   24.2910 N   0  0  0  0  0  0  0  0  0  0  0  0
  -26.1930  -38.0830   24.5340 H   0  0  0  0  0  0  0  0  0  0  0  0
  -26.5720  -31.4290   24.9710 C   0  0  1  0  0  0  0  0  0  0  0  0
  -25.5260  -31.0840   26.0570 C   0  0  0  0  0  1  0  0  0  0  0  0
  -27.1390  -30.0990   24.4230 C   0  0  0  0  0  1  0  0  0  0  0  0
  -27.7490  -32.1610   25.6570 C   0  0  0  0  0  1  0  0  0  0  0  0
  1  2  2  0
  1  3  1  0
  2  5  1  0
  3  6  1  0
  4 51  1  0
  4  3  2  0
  5  7  1  0
  6  7  1  0
  8 11  1  0
  9 13  1  0
  9  8  2  0
 11 10  2  0
 11  2  1  0
 12 15  1  0
 12 10  1  0
 13 12  2  0
 14 13  1  0
 15 21  1  0
 15 22  2  0
 16 21  1  0
 17 18  1  0
 17 16  1  0
 19 18  1  0
 19 26  1  0
 19 20  1  0
 21 20  1  0
 23 24  2  0
 24 43  1  0
 25 24  1  0
 25 28  1  0
 26 27  1  0
 26 23  1  0
 27 25  2  0
 28 29  1  0
 29 30  2  0
 31 34  1  0
 31 30  1  0
 32 31  2  0
 33 32  1  0
 33 28  2  0
 34 35  1  0
 35 36  1  0
 36 37  2  0
 38 37  1  0
 38 42  1  0
 39 38  2  0
 40 35  2  0
 40 39  1  0
 41 40  1  0
 43 44  1  0
 44 47  1  0
 44 46  1  0
 45 43  2  0
 48 49  1  0
 48 23  1  0
 50 48  1  0
 51 52  2  0
 53 55  1  0
 53 51  1  0
 54 65  2  0
 55 60  1  0
 56 64  1  0
 56 66  1  0
 57 63  1  0
 57 59  1  0
 58 64  1  0
 59 58  1  0
 60 59  2  0
 61 62  1  0
 61 55  2  0
 62 57  2  0
 63 56  1  0
 64 54  1  0
 66 68  2  0
 67 66  1  0
 69 67  1  0
 70 79  2  0
 70 75  1  0
 71 67  1  0
 71 75  1  0
 72 71  1  0
 73 74  1  0
 73 72  1  0
 74 70  1  0
 75 76  2  0
 76 77  1  0
 78 77  2  0
 79 78  1  0
 80 54  1  0
 80 81  1  0
 80 90  1  0
 81 84  1  0
 82 86  1  0
 82 81  1  0
 83 82  2  0
 86 85  1  0
 86 88  1  0
 88 89  1  0
 88 87  1  0
 90 93  1  1
 90 91  1  0
 92 90  1  0
M  ISO  4  12 100  15 100  51 101  53 101
M  END
>  <TORSDO>  (70) 
F 18

>  <SCORE>  (70) 
-11.379

>  <name>  (70) 
69

>  <ligand_id>  (70) 
69

>  <original_smiles>  (70) 
[H]C(C(=O)Oc1c([H])c([H])c2c(c1[H])C([H])([H])N(C(=O)C([H])(N([H])C(=O)C([H])(N([H])C([H])([H])[H])C([H])([H])[H])C(C([H])([H])[H])(C([H])([H])[H])C([H])([H])[H])C([H])(C(=O)N([H])C1([H])c3c([H])c([H])c([H])c([H])c3C([H])([H])C([H])([H])C1([H])[H])C2([H])[H])=C1C([H])=C(c2c([H])c([H])c(C([H])([H])[H])c(C(=O)N3C([H])([H])C([H])([H])C([H])([H])C([H])(n4nc(-c5c([H])c([H])c(Oc6c([H])c([H])c(F)c([H])c6F)c([H])c5[H])c(C(=O)N([H])[H])c4N([H])[H])C3([H])[H])c2[H])C([H])([H])C([H])([H])C1([H])[H]

>  <smiles>  (70) 
[H]C(C(=O)Oc1c([H])c([H])c2c(c1[H])C([H])([H])N(C(=O)C([H])(N([H])C(=O)C([H])(N([H])C([H])([H])[H])C([H])([H])[H])C(C([H])([H])[H])(C([H])([H])[H])C([H])([H])[H])C([H])(C(=O)N([H])C1([H])c3c([H])c([H])c([H])c([H])c3C([H])([H])C([H])([H])C1([H])[H])C2([H])[H])=C1C([H])=C(c2c([H])c([H])c(C([H])([H])[H])c(C(=O)N3C([H])([H])C([H])([H])C([H])([H])C([H])(n4nc(-c5c([H])c([H])c(Oc6c([H])c([H])c(F)c([H])c6F)c([H])c5[H])c(C(=O)N([H])[H])c4N([H])[H])C3([H])[H])c2[H])C([H])([H])C([H])([H])C1([H])[H]

$$$$
70:0:0
     RDKit          3D

 91 99  0  0  1  0  0  0  0  0999 V2000
  -30.0530  -25.1390   23.0020 C   0  0  0  0  0  3  0  0  0  0  0  0
  -28.7880  -25.5740   23.4420 C   0  0  0  0  0  3  0  0  0  0  0  0
  -30.1610  -24.4580   21.7710 C   0  0  0  0  0  3  0  0  0  0  0  0
  -27.7020  -25.5940   22.5350 C   0  0  0  0  0  3  0  0  0  0  0  0
  -29.0040  -24.3120   20.9640 C   0  0  0  0  0  3  0  0  0  0  0  0
  -27.9800  -25.3280   21.1520 C   0  0  0  0  0  3  0  0  0  0  0  0
  -31.5060  -23.8870   21.3390 C   0  0  0  0  0  1  0  0  0  0  0  0
  -26.3020  -25.9380   23.0760 C   0  0  0  0  0  1  0  0  0  0  0  0
  -28.0670  -26.4810   20.3150 O   0  0  0  0  0  0  0  0  0  0  0  0
  -24.5230  -32.0080   23.2590 C   0  0  0  0  0  0  0  0  0  0  0  0
  -27.0210  -27.4060   20.2320 C   0  0  0  0  0  0  0  0  0  0  0  0
  -23.2890  -30.6220   21.6310 C   0  0  0  0  0  3  0  0  0  0  0  0
  -24.7030  -29.0620   20.1810 C   0  0  0  0  0  0  0  0  0  0  0  0
  -25.8220  -30.9150   21.4180 C   0  0  0  0  0  2  0  0  0  0  0  0
  -25.8790  -29.5380   20.7740 C   0  0  0  0  0  0  0  0  0  0  0  0
  -27.0490  -28.7220   20.7880 C   0  0  0  0  0  3  0  0  0  0  0  0
  -25.8390  -26.9890   19.5920 C   0  0  0  0  0  3  0  0  0  0  0  0
  -24.6880  -27.7990   19.5680 C   0  0  0  0  0  3  0  0  0  0  0  0
  -23.4800  -29.9460   20.2470 C   0  0  0  0  0  2  0  0  0  0  0  0
  -24.5630  -31.2030   22.1570 N   0  0  0  0  0  0  0  0  0  0  0  0
  -23.4490  -32.2900   23.8130 O   0  0  0  0  0  0  0  0  0  0  0  0
  -22.6340  -29.6050   22.6000 C   0  0  0  0  0  0  0  0  0  0  0  0
  -21.3090  -29.4150   22.4750 N   0  0  0  0  0  0  0  0  0  0  0  0
  -23.3140  -28.9890   23.4250 O   0  0  0  0  0  0  0  0  0  0  0  0
  -20.8140  -29.9690   21.7900 H   0  0  0  0  0  0  0  0  0  0  0  0
  -17.9450  -28.1810   22.9670 C   0  0  0  0  0  0  0  0  0  0  0  0
  -20.4970  -28.4770   23.2560 C   0  0  0  0  0  3  0  0  0  0  0  0
  -20.6230  -27.0390   22.7070 C   0  0  0  0  0  2  0  0  0  0  0  0
  -19.5380  -26.6870   21.6810 C   0  0  0  0  0  2  0  0  0  0  0  0
  -18.1450  -26.8250   22.3040 C   0  0  0  0  0  2  0  0  0  0  0  0
  -19.0500  -28.9630   23.3970 C   0  0  0  0  0  0  0  0  0  0  0  0
  -18.8070  -30.2300   23.9730 C   0  0  0  0  0  3  0  0  0  0  0  0
  -17.4950  -30.7160   24.1220 C   0  0  0  0  0  3  0  0  0  0  0  0
  -16.4060  -29.9310   23.7070 C   0  0  0  0  0  3  0  0  0  0  0  0
  -16.6310  -28.6660   23.1360 C   0  0  0  0  0  3  0  0  0  0  0  0
  -25.8190  -32.6250   23.8660 C   0  0  0  0  0  3  0  0  0  0  0  0
  -25.5200  -34.0210   24.2160 N   0  0  0  0  0  0  0  0  0  0  0  0
  -25.8440  -35.0810   23.4650 C   0  0  0  0  0  0  0  0  0  0  0  0
  -26.4930  -34.9860   22.4210 O   0  0  0  0  0  0  0  0  0  0  0  0
  -24.9290  -34.1670   25.0220 H   0  0  0  0  0  0  0  0  0  0  0  0
  -24.1100  -36.8830   23.1660 C   0  0  0  0  0  1  0  0  0  0  0  0
  -25.3670  -36.4660   23.9480 C   0  0  0  0  0  3  0  0  0  0  0  0
  -27.5220  -37.3370   24.7380 C   0  0  0  0  0  1  0  0  0  0  0  0
  -26.3990  -37.5190   23.8230 N   0  0  0  0  0  0  0  0  0  0  0  0
  -25.9960  -38.4390   23.9880 H   0  0  0  0  0  0  0  0  0  0  0  0
  -26.3520  -31.8430   25.1310 C   0  0  1  0  0  0  0  0  0  0  0  0
  -25.2750  -31.6040   26.2150 C   0  0  0  0  0  1  0  0  0  0  0  0
  -26.9250  -30.4670   24.7220 C   0  0  0  0  0  1  0  0  0  0  0  0
  -27.5170  -32.6280   25.7770 C   0  0  0  0  0  1  0  0  0  0  0  0
  -28.9250  -23.0530   20.0110 C   0  0  0  0  0  2  0  0  0  0  0  0
  -28.9120  -21.5910   20.7000 C   0  0  0  0  0  3  0  0  0  0  0  0
  -29.5550  -20.3000   19.9840 C   0  0  0  0  0  3  0  0  0  0  0  0
  -29.3050  -18.8440   20.6250 C   0  0  0  0  0  2  0  0  0  0  0  0
  -30.0720  -17.5320   20.0890 C   0  0  0  0  0  3  0  0  0  0  0  0
  -29.7180  -16.1020   20.7300 C   0  0  0  0  0  3  0  0  0  0  0  0
  -30.4770  -14.7960   20.2210 C   0  0  0  0  0  0  0  0  0  0  0  0
  -30.2830  -12.5480   19.1590 C   0  0  0  0  0  2  0  0  0  0  0  0
  -29.3230  -12.6720   17.9580 C   0  0  0  0  0  2  0  0  0  0  0  0
  -27.8500  -12.5150   18.4010 C   0  0  0  0  0  2  0  0  0  0  0  0
  -27.5060  -13.3300   19.6800 C   0  0  0  0  0  3  0  0  0  0  0  0
  -28.5910  -13.1900   20.7660 C   0  0  0  0  0  2  0  0  0  0  0  0
  -29.8840  -13.5590   20.1630 N   0  0  0  0  0  0  0  0  0  0  0  0
  -31.6170  -14.9450   19.7640 O   0  0  0  0  0  0  0  0  0  0  0  0
  -25.1100  -13.8600   20.4440 C   0  0  0  0  0  0  0  0  0  0  0  0
  -24.0700  -13.0670   20.8280 C   0  0  0  0  0  0  0  0  0  0  0  0
  -24.5610  -11.7250   20.7860 C   0  0  0  0  0  0  0  0  0  0  0  0
  -26.1730  -13.0070   20.1880 N   0  0  0  0  0  0  0  0  0  0  0  0
  -25.8500  -11.7140   20.4510 N   0  0  0  0  0  0  0  0  0  0  0  0
  -23.8650  -10.4520   20.9890 C   0  0  0  0  0  0  0  0  0  0  0  0
  -24.3300   -9.4950   21.9160 C   0  0  0  0  0  3  0  0  0  0  0  0
  -23.6330   -8.2810   22.1050 C   0  0  0  0  0  3  0  0  0  0  0  0
  -22.4530   -8.0190   21.3710 C   0  0  0  0  0  0  0  0  0  0  0  0
  -22.0100   -8.9620   20.4250 C   0  0  0  0  0  3  0  0  0  0  0  0
  -22.7070  -10.1640   20.2350 C   0  0  0  0  0  3  0  0  0  0  0  0
  -21.7280   -6.8560   21.4760 O   0  0  0  0  0  0  0  0  0  0  0  0
  -21.7060   -6.1190   22.6320 C   0  0  0  0  0  0  0  0  0  0  0  0
  -21.2920   -6.6680   23.8650 C   0  0  0  0  0  3  0  0  0  0  0  0
  -21.2250   -5.8490   25.0110 C   0  0  0  0  0  3  0  0  0  0  0  0
  -21.5620   -4.4850   24.9280 C   0  0  0  0  0  0  0  0  0  0  0  0
  -21.9680   -3.9400   23.6980 C   0  0  0  0  0  3  0  0  0  0  0  0
  -22.0410   -4.7530   22.5560 C   0  0  0  0  0  0  0  0  0  0  0  0
  -22.4130   -4.2160   21.3710 F   0  0  0  0  0  0  0  0  0  0  0  0
  -21.4900   -3.6940   26.0250 F   0  0  0  0  0  0  0  0  0  0  0  0
  -22.6670  -13.5120   21.1280 C   0  0  0  0  0  0  0  0  0  0  0  0
  -21.9630  -12.8030   22.0020 N   0  0  0  0  0  0  0  0  0  0  0  0
  -22.2020  -14.5310   20.6170 O   0  0  0  0  0  0  0  0  0  0  0  0
  -22.3540  -11.9930   22.4610 H   0  0  0  0  0  0  0  0  0  0  0  0
  -21.0120  -13.0680   22.2210 H   0  0  0  0  0  0  0  0  0  0  0  0
  -25.2420  -15.2350   20.2650 N   0  0  0  0  0  0  0  0  0  0  0  0
  -24.4570  -15.8620   20.3810 H   0  0  0  0  0  0  0  0  0  0  0  0
  -26.0760  -15.6880   19.9200 H   0  0  0  0  0  0  0  0  0  0  0  0
  1  2  2  0
  3  7  1  0
  3  1  1  0
  4  8  1  0
  4  2  1  0
  5 50  1  0
  5  6  1  0
  5  3  1  0
  6  9  1  0
  6  4  1  0
 10 21  2  0
 11  9  1  0
 11 16  1  0
 12 20  1  0
 12 22  1  0
 13 19  1  0
 13 15  1  0
 14 20  1  0
 15 16  2  0
 15 14  1  0
 17 11  2  0
 18 17  1  0
 18 13  2  0
 19 12  1  0
 20 10  1  0
 22 24  2  0
 23 22  1  0
 25 23  1  0
 26 35  2  0
 26 31  1  0
 27 23  1  0
 27 31  1  0
 28 27  1  0
 29 30  1  0
 29 28  1  0
 30 26  1  0
 31 32  2  0
 32 33  1  0
 34 33  2  0
 35 34  1  0
 36 10  1  0
 36 37  1  0
 36 46  1  0
 37 40  1  0
 38 42  1  0
 38 37  1  0
 39 38  2  0
 42 41  1  0
 44 42  1  0
 44 45  1  0
 44 43  1  0
 46 49  1  1
 46 47  1  0
 48 46  1  0
 50 51  1  0
 52 53  1  0
 52 51  2  0
 54 53  1  0
 54 55  2  0
 56 55  1  0
 57 62  1  0
 58 59  1  0
 58 57  1  0
 60 59  1  0
 60 67  1  0
 60 61  1  0
 62 56  1  0
 62 61  1  0
 63 56  2  0
 64 65  2  0
 65 84  1  0
 66 65  1  0
 66 69  1  0
 67 64  1  0
 67 68  1  0
 68 66  2  0
 69 70  1  0
 70 71  2  0
 72 75  1  0
 72 71  1  0
 73 72  2  0
 74 73  1  0
 74 69  2  0
 75 76  1  0
 76 77  1  0
 77 78  2  0
 79 78  1  0
 79 83  1  0
 80 79  2  0
 81 76  2  0
 81 80  1  0
 82 81  1  0
 84 85  1  0
 85 88  1  0
 85 87  1  0
 86 84  2  0
 89 90  1  0
 89 64  1  0
 91 89  1  0
M  ISO  4   6 101   9 101  55 100  56 100
M  END
>  <TORSDO>  (71) 
F 22

>  <SCORE>  (71) 
-12.510

>  <name>  (71) 
70

>  <ligand_id>  (71) 
70

>  <original_smiles>  (71) 
[H]c1c([H])c([H])c2c(c1[H])C([H])([H])C([H])([H])C([H])([H])C2([H])N([H])C(=O)C1([H])N(C(=O)C([H])(N([H])C(=O)C([H])(N([H])C([H])([H])[H])C([H])([H])[H])C(C([H])([H])[H])(C([H])([H])[H])C([H])([H])[H])C([H])([H])c2c([H])c(Oc3c(C([H])([H])[H])c([H])c([H])c(C([H])([H])[H])c3C([H])([H])C([H])([H])C([H])([H])C([H])([H])C([H])([H])C([H])([H])C(=O)N3C([H])([H])C([H])([H])C([H])([H])C([H])(n4nc(-c5c([H])c([H])c(Oc6c([H])c([H])c(F)c([H])c6F)c([H])c5[H])c(C(=O)N([H])[H])c4N([H])[H])C3([H])[H])c([H])c([H])c2C1([H])[H]

>  <smiles>  (71) 
[H]c1c([H])c([H])c2c(c1[H])C([H])([H])C([H])([H])C([H])([H])C2([H])N([H])C(=O)C1([H])N(C(=O)C([H])(N([H])C(=O)C([H])(N([H])C([H])([H])[H])C([H])([H])[H])C(C([H])([H])[H])(C([H])([H])[H])C([H])([H])[H])C([H])([H])c2c([H])c(Oc3c(C([H])([H])[H])c([H])c([H])c(C([H])([H])[H])c3C([H])([H])C([H])([H])C([H])([H])C([H])([H])C([H])([H])C([H])([H])C(=O)N3C([H])([H])C([H])([H])C([H])([H])C([H])(n4nc(-c5c([H])c([H])c(Oc6c([H])c([H])c(F)c([H])c6F)c([H])c5[H])c(C(=O)N([H])[H])c4N([H])[H])C3([H])[H])c([H])c([H])c2C1([H])[H]

$$$$
71:0:0
     RDKit          3D

 94 97  0  0  1  0  0  0  0  0999 V2000
  -24.1380  -26.4070   22.3480 C   0  0  0  0  0  2  0  0  0  0  0  0
  -22.2960  -28.7130   20.7650 C   0  0  0  0  0 15  0  0  0  0  0  0
  -23.6260  -26.8080   24.0110 C   0  0  0  0  0  2  0  0  0  0  0  0
  -21.6530  -29.5400   22.6360 C   0  0  0  0  0  1  0  0  0  0  0  0
  -22.4190  -28.4680   24.3760 C   0  0  0  0  0  1  0  0  0  0  0  0
  -23.7170  -27.2100   20.8340 C   0  0  0  0  0  2  0  0  0  0  0  0
  -20.9110  -30.8870   22.5970 C   0  0  0  0  0  1  0  0  0  0  0  0
  -22.8880  -29.3730   26.7510 C   0  0  0  0  0  1  0  0  0  0  0  0
  -21.9600  -28.5910   25.8280 C   0  0  0  0  0  2  0  0  0  0  0  0
  -24.3640  -25.3100   24.5890 C   0  0  0  0  0  0  0  0  0  0  0  0
  -24.3010  -25.1010   25.8040 O   0  0  0  0  0  0  0  0  0  0  0  0
  -25.2000  -23.9710   23.6560 C   0  0  0  0  0  3  0  0  0  0  0  0
  -26.0180  -22.3170   23.8660 C   0  0  0  0  0  3  0  0  0  0  0  0
  -26.7440  -21.0530   22.7150 C   0  0  0  0  0  3  0  0  0  0  0  0
  -27.6240  -19.4240   22.8200 C   0  0  0  0  0  3  0  0  0  0  0  0
  -28.4500  -18.2340   21.6580 C   0  0  0  0  0  3  0  0  0  0  0  0
  -29.0680  -16.4910   21.7590 C   0  0  0  0  0  3  0  0  0  0  0  0
  -30.0710  -15.2640   20.8600 C   0  0  0  0  0  0  0  0  0  0  0  0
  -30.4270  -12.9180   19.6580 C   0  0  0  0  0  2  0  0  0  0  0  0
  -29.5610  -12.6740   18.3810 C   0  0  0  0  0  2  0  0  0  0  0  0
  -28.1010  -12.3330   18.7310 C   0  0  0  0  0  2  0  0  0  0  0  0
  -27.5940  -13.2450   19.8710 C   0  0  0  0  0  3  0  0  0  0  0  0
  -28.5450  -13.2510   21.0740 C   0  0  0  0  0  2  0  0  0  0  0  0
  -29.7510  -13.9010   20.6060 N   0  0  0  0  0  0  0  0  0  0  0  0
  -31.2190  -15.5050   20.4180 O   0  0  0  0  0  0  0  0  0  0  0  0
  -25.2240  -13.8180   20.5660 C   0  0  0  0  0  0  0  0  0  0  0  0
  -24.1590  -13.0400   20.9200 C   0  0  0  0  0  0  0  0  0  0  0  0
  -24.6220  -11.6890   20.8730 C   0  0  0  0  0  0  0  0  0  0  0  0
  -26.2540  -12.9350   20.3060 N   0  0  0  0  0  0  0  0  0  0  0  0
  -25.9090  -11.6500   20.5560 N   0  0  0  0  0  0  0  0  0  0  0  0
  -23.8990  -10.4280   21.0440 C   0  0  0  0  0  0  0  0  0  0  0  0
  -24.3590   -9.4210   21.9200 C   0  0  0  0  0  3  0  0  0  0  0  0
  -23.6290   -8.2230   22.0760 C   0  0  0  0  0  3  0  0  0  0  0  0
  -22.4260   -8.0280   21.3550 C   0  0  0  0  0  0  0  0  0  0  0  0
  -21.9880   -9.0240   20.4650 C   0  0  0  0  0  3  0  0  0  0  0  0
  -22.7190  -10.2120   20.3070 C   0  0  0  0  0  3  0  0  0  0  0  0
  -21.6620   -6.8890   21.4260 O   0  0  0  0  0  0  0  0  0  0  0  0
  -21.6840   -6.0750   22.5300 C   0  0  0  0  0  0  0  0  0  0  0  0
  -21.4010   -6.5650   23.8230 C   0  0  0  0  0  3  0  0  0  0  0  0
  -21.3650   -5.6790   24.9190 C   0  0  0  0  0  3  0  0  0  0  0  0
  -21.6030   -4.3060   24.7230 C   0  0  0  0  0  0  0  0  0  0  0  0
  -21.8820   -3.8160   23.4350 C   0  0  0  0  0  3  0  0  0  0  0  0
  -21.9190   -4.6990   22.3410 C   0  0  0  0  0  0  0  0  0  0  0  0
  -22.1670   -4.2180   21.0990 F   0  0  0  0  0  0  0  0  0  0  0  0
  -21.5620   -3.4530   25.7730 F   0  0  0  0  0  0  0  0  0  0  0  0
  -22.7640  -13.5190   21.1910 C   0  0  0  0  0  0  0  0  0  0  0  0
  -22.0290  -12.8220   22.0510 N   0  0  0  0  0  0  0  0  0  0  0  0
  -22.3340  -14.5500   20.6750 O   0  0  0  0  0  0  0  0  0  0  0  0
  -22.3880  -11.9880   22.4910 H   0  0  0  0  0  0  0  0  0  0  0  0
  -21.0920  -13.1310   22.2700 H   0  0  0  0  0  0  0  0  0  0  0  0
  -25.3970  -15.1940   20.4190 N   0  0  0  0  0  0  0  0  0  0  0  0
  -24.6270  -15.8440   20.5350 H   0  0  0  0  0  0  0  0  0  0  0  0
  -26.2440  -15.6470   20.0970 H   0  0  0  0  0  0  0  0  0  0  0  0
  -25.1900  -26.7570   20.3890 O   0  0  0  0  0  0  0  0  0  0  0  0
  -24.8050  -31.9160   23.2420 C   0  0  0  0  0  0  0  0  0  0  0  0
  -26.4750  -27.3030   20.1470 C   0  0  0  0  0  3  0  0  0  0  0  0
  -23.9540  -30.3430   21.6590 C   0  0  0  0  0  3  0  0  0  0  0  0
  -25.1690  -29.4850   19.7260 C   0  0  0  0  0  0  0  0  0  0  0  0
  -26.3040  -30.8450   21.5040 C   0  0  0  0  0  2  0  0  0  0  0  0
  -26.2250  -29.5960   20.6270 C   0  0  0  0  0  3  0  0  0  0  0  0
  -26.9680  -28.4420   20.8330 C   0  0  0  0  0  2  0  0  0  0  0  0
  -26.1260  -27.4690   18.8340 C   0  0  0  0  0  2  0  0  0  0  0  0
  -25.1410  -28.4760   18.7350 C   0  0  0  0  0  3  0  0  0  0  0  0
  -24.1010  -30.4240   20.0630 C   0  0  0  0  0  2  0  0  0  0  0  0
  -25.0220  -31.1270   22.1700 N   0  0  0  0  0  0  0  0  0  0  0  0
  -23.6790  -32.1350   23.7290 O   0  0  0  0  0  0  0  0  0  0  0  0
  -23.8610  -28.8550   22.5520 C   0  0  0  0  0  2  0  0  0  0  0  0
  -22.0680  -27.3980   22.4800 N   0  0  0  0  0  2  0  0  0  0  0  0
  -24.7160  -28.9180   23.4070 O   0  0  0  0  0  1  0  0  0  0  0  0
  -21.9180  -27.2420   21.4950 H   0  0  0  0  0  0  0  0  0  0  0  0
  -17.9890  -28.0270   22.7020 C   0  0  0  0  0  0  0  0  0  0  0  0
  -20.5360  -27.3410   23.1220 C   0  0  0  0  0  3  0  0  0  0  0  0
  -20.1730  -26.1090   22.4210 C   0  0  0  0  0  2  0  0  0  0  0  0
  -19.2640  -26.4180   21.2780 C   0  0  0  0  0  2  0  0  0  0  0  0
  -17.9190  -26.7850   21.8720 C   0  0  0  0  0  2  0  0  0  0  0  0
  -19.2250  -28.4120   23.2880 C   0  0  0  0  0  0  0  0  0  0  0  0
  -19.0400  -29.5940   24.1250 C   0  0  0  0  0  3  0  0  0  0  0  0
  -17.8380  -30.3600   24.2130 C   0  0  0  0  0  3  0  0  0  0  0  0
  -16.6720  -29.8980   23.5930 C   0  0  0  0  0  3  0  0  0  0  0  0
  -16.7620  -28.7070   22.8670 C   0  0  0  0  0  3  0  0  0  0  0  0
  -26.0360  -32.5500   23.8940 C   0  0  0  0  0  3  0  0  0  0  0  0
  -25.6550  -33.9070   24.2730 N   0  0  0  0  0  0  0  0  0  0  0  0
  -25.9120  -34.9800   23.5180 C   0  0  0  0  0  0  0  0  0  0  0  0
  -26.5460  -34.9170   22.4600 O   0  0  0  0  0  0  0  0  0  0  0  0
  -25.0950  -34.0190   25.1050 H   0  0  0  0  0  0  0  0  0  0  0  0
  -24.1470  -36.7450   23.2540 C   0  0  0  0  0  1  0  0  0  0  0  0
  -25.4070  -36.3350   24.0330 C   0  0  0  0  0  3  0  0  0  0  0  0
  -27.5580  -37.1950   24.8460 C   0  0  0  0  0  1  0  0  0  0  0  0
  -26.4250  -37.4040   23.9470 N   0  0  0  0  0  0  0  0  0  0  0  0
  -26.0150  -38.3100   24.1580 H   0  0  0  0  0  0  0  0  0  0  0  0
  -26.5540  -31.7300   25.1290 C   0  0  1  0  0  0  0  0  0  0  0  0
  -25.4320  -31.3950   26.1210 C   0  0  0  0  0  1  0  0  0  0  0  0
  -27.2740  -30.4240   24.7230 C   0  0  0  0  0  1  0  0  0  0  0  0
  -27.6420  -32.5400   25.8520 C   0  0  0  0  0  1  0  0  0  0  0  0
  1  3  1  0
  3 10  1  0
  5  9  1  0
  6  1  1  0
  7  4  1  0
  9  8  1  0
 10 11  2  0
 12 13  2  0
 12 10  1  0
 14 15  2  0
 14 13  1  0
 16 17  2  0
 16 15  1  0
 18 17  1  0
 19 24  1  0
 20 21  1  0
 20 19  1  0
 22 21  1  0
 22 29  1  0
 22 23  1  0
 24 18  1  0
 24 23  1  0
 25 18  2  0
 26 27  2  0
 27 46  1  0
 28 27  1  0
 28 31  1  0
 29 30  1  0
 29 26  1  0
 30 28  2  0
 31 32  1  0
 32 33  2  0
 34 37  1  0
 34 33  1  0
 35 34  2  0
 36 35  1  0
 36 31  2  0
 37 38  1  0
 38 39  1  0
 39 40  2  0
 41 40  1  0
 41 45  1  0
 42 41  2  0
 43 38  2  0
 43 42  1  0
 44 43  1  0
 46 47  1  0
 47 50  1  0
 47 49  1  0
 48 46  2  0
 51 52  1  0
 51 26  1  0
 53 51  1  0
 54  6  1  0
 55 66  2  0
 56 54  1  0
 56 61  1  0
 57 65  1  0
 57 67  1  0
 58 64  1  0
 58 60  1  0
 59 65  1  0
 60 61  1  0
 60 59  1  0
 62 56  1  0
 63 62  1  0
 63 58  2  0
 64 57  1  0
 65 55  1  0
 67 69  1  0
 70 68  1  0
 71 80  2  0
 71 76  1  0
 72 68  1  0
 72 76  1  0
 73 72  1  0
 74 75  1  0
 74 73  1  0
 75 71  1  0
 76 77  2  0
 77 78  1  0
 79 78  2  0
 80 79  1  0
 81 55  1  0
 81 82  1  0
 81 91  1  0
 82 85  1  0
 83 87  1  0
 83 82  1  0
 84 83  2  0
 87 86  1  0
 89 87  1  0
 89 90  1  0
 89 88  1  0
 91 94  1  1
 91 92  1  0
 93 91  1  0
M  ISO  4   6 101  17 100  18 100  54 101
M  END
>  <TORSDO>  (72) 
F 24

>  <SCORE>  (72) 
22.016

>  <name>  (72) 
71

>  <ligand_id>  (72) 
71

>  <original_smiles>  (72) 
[H]c1c([H])c([H])c2c(c1[H])C([H])([H])C([H])([H])C([H])([H])C2([H])N([H])C(=O)C1([H])N(C(=O)C([H])(N([H])C(=O)C([H])(N([H])C([H])([H])[H])C([H])([H])[H])C(C([H])([H])[H])(C([H])([H])[H])C([H])([H])[H])C([H])([H])c2c([H])c(Oc3c([H])c(C(=O)C([H])([H])C([H])([H])C([H])([H])C([H])([H])C([H])([H])C([H])([H])C(=O)N4C([H])([H])C([H])([H])C([H])([H])C([H])(n5nc(-c6c([H])c([H])c(Oc7c([H])c([H])c(F)c([H])c7F)c([H])c6[H])c(C(=O)N([H])[H])c5N([H])[H])C4([H])[H])c(C([H])([H])C([H])([H])[H])c(C([H])([H])[H])c3[H])c([H])c([H])c2C1([H])[H]

>  <smiles>  (72) 
[H]c1c([H])c([H])c2c(c1[H])C([H])([H])C([H])([H])C([H])([H])C2([H])N([H])C(=O)C1([H])N(C(=O)C([H])(N([H])C(=O)C([H])(N([H])C([H])([H])[H])C([H])([H])[H])C(C([H])([H])[H])(C([H])([H])[H])C([H])([H])[H])C([H])([H])c2c([H])c(Oc3c([H])c(C(=O)C([H])([H])C([H])([H])C([H])([H])C([H])([H])C([H])([H])C([H])([H])C(=O)N4C([H])([H])C([H])([H])C([H])([H])C([H])(n5nc(-c6c([H])c([H])c(Oc7c([H])c([H])c(F)c([H])c7F)c([H])c6[H])c(C(=O)N([H])[H])c5N([H])[H])C4([H])[H])c(C([H])([H])C([H])([H])[H])c(C([H])([H])[H])c3[H])c([H])c([H])c2C1([H])[H]

$$$$
72:0:0
     RDKit          3D

 93 97  0  0  1  0  0  0  0  0999 V2000
  -23.1390  -26.3940   24.1150 C   0  0  0  0  0  2  0  0  0  0  0  0
  -22.1020  -25.9350   23.1520 C   0  0  0  0  0  2  0  0  0  0  0  0
  -24.6860  -26.7050   22.4360 C   0  0  0  0  0  3  0  0  0  0  0  0
  -24.4220  -26.9920   23.7660 C   0  0  0  0  0  0  0  0  0  0  0  0
  -22.0710  -26.3770   21.7480 C   0  0  0  0  0  2  0  0  0  0  0  0
  -23.7560  -26.0090   21.6140 C   0  0  0  0  0  3  0  0  0  0  0  0
  -20.6880  -28.4520   20.5530 C   0  0  0  0  0 15  0  0  0  0  0  0
  -25.5000  -27.7660   24.6630 C   0  0  0  0  0  0  0  0  0  0  0  0
  -25.2960  -27.8950   25.8720 O   0  0  0  0  0  0  0  0  0  0  0  0
  -26.9480  -28.3200   24.1240 C   0  0  0  0  0  2  0  0  0  0  0  0
  -27.6620  -29.5570   24.7170 O   0  0  0  0  0  0  0  0  0  0  0  0
  -26.9420  -33.0980   30.2520 C   0  0  0  0  0  0  0  0  0  0  0  0
  -26.7720  -30.5510   24.9490 C   0  0  0  0  0  0  0  0  0  0  0  0
  -24.9180  -32.1340   29.2680 C   0  0  0  0  0  3  0  0  0  0  0  0
  -24.9840  -31.5450   26.7930 C   0  0  0  0  0  0  0  0  0  0  0  0
  -26.6890  -33.1180   27.7590 C   0  0  0  0  0  2  0  0  0  0  0  0
  -26.2740  -32.0910   26.7240 C   0  0  0  0  0  0  0  0  0  0  0  0
  -27.1850  -31.6140   25.7660 C   0  0  0  0  0  3  0  0  0  0  0  0
  -25.4230  -30.1810   24.8450 C   0  0  0  0  0  3  0  0  0  0  0  0
  -24.5350  -30.6240   25.8310 C   0  0  0  0  0  3  0  0  0  0  0  0
  -24.1250  -32.0040   27.9410 C   0  0  0  0  0  2  0  0  0  0  0  0
  -26.2290  -32.8060   29.1260 N   0  0  0  0  0  0  0  0  0  0  0  0
  -26.5010  -32.8480   31.3860 O   0  0  0  0  0  0  0  0  0  0  0  0
  -25.1540  -30.7600   29.8310 C   0  0  0  0  0  0  0  0  0  0  0  0
  -24.6460  -30.5640   31.0320 N   0  0  0  0  0  0  0  0  0  0  0  0
  -25.7740  -29.9060   29.1850 O   0  0  0  0  0  0  0  0  0  0  0  0
  -24.1720  -31.3010   31.5330 H   0  0  0  0  0  0  0  0  0  0  0  0
  -24.1330  -27.7460   33.9520 C   0  0  0  0  0  0  0  0  0  0  0  0
  -24.3630  -29.2230   31.3070 C   0  0  0  0  0  2  0  0  0  0  0  0
  -22.3680  -29.0580   30.6950 C   0  0  0  0  0 15  0  0  0  0  0  0
  -21.1970  -27.7970   32.0610 C   0  0  0  0  0 15  0  0  0  0  0  0
  -22.4040  -27.0540   33.6070 C   0  0  0  0  0  1  0  0  0  0  0  0
  -24.9730  -28.6460   32.9320 C   0  0  0  0  0  0  0  0  0  0  0  0
  -25.9430  -29.5590   33.4950 C   0  0  0  0  0  3  0  0  0  0  0  0
  -26.1230  -29.8050   34.8760 C   0  0  0  0  0  3  0  0  0  0  0  0
  -25.3060  -29.1290   35.7920 C   0  0  0  0  0  3  0  0  0  0  0  0
  -24.3630  -28.1590   35.3360 C   0  0  0  0  0  3  0  0  0  0  0  0
  -28.3240  -33.7940   30.1630 C   0  0  0  0  0  3  0  0  0  0  0  0
  -28.3010  -34.8800   31.1460 N   0  0  0  0  0  0  0  0  0  0  0  0
  -27.9290  -36.1330   30.8660 C   0  0  0  0  0  0  0  0  0  0  0  0
  -27.6540  -36.5100   29.7230 O   0  0  0  0  0  0  0  0  0  0  0  0
  -28.4630  -34.6260   32.1100 H   0  0  0  0  0  0  0  0  0  0  0  0
  -26.4070  -37.2520   32.5230 C   0  0  0  0  0  1  0  0  0  0  0  0
  -27.8590  -37.1280   32.0380 C   0  0  0  0  0  3  0  0  0  0  0  0
  -29.8320  -38.4660   31.4570 C   0  0  0  0  0  1  0  0  0  0  0  0
  -28.3920  -38.4650   31.7000 N   0  0  0  0  0  0  0  0  0  0  0  0
  -28.1950  -39.1290   32.4440 H   0  0  0  0  0  0  0  0  0  0  0  0
  -29.5360  -32.8220   30.4200 C   0  0  1  0  0  0  0  0  0  0  0  0
  -29.4080  -31.9800   31.7110 C   0  0  0  0  0  1  0  0  0  0  0  0
  -29.7100  -31.8460   29.2350 C   0  0  0  0  0  1  0  0  0  0  0  0
  -30.8390  -33.6480   30.5100 C   0  0  0  0  0  1  0  0  0  0  0  0
  -25.0480  -24.8290   21.0980 C   0  0  0  0  0  3  0  0  0  0  0  0
  -26.7510  -24.3370   21.8640 C   0  0  0  0  0  3  0  0  0  0  0  0
  -28.3190  -23.2880   21.5460 C   0  0  0  0  0  3  0  0  0  0  0  0
  -29.8480  -22.6090   22.4770 C   0  0  0  0  0  3  0  0  0  0  0  0
  -31.5400  -21.7770   22.1480 C   0  0  0  0  0  2  0  0  0  0  0  0
  -32.9800  -20.9120   23.0710 C   0  0  0  0  0  2  0  0  0  0  0  0
  -34.8170  -20.5960   23.1580 C   0  0  0  0  0  0  0  0  0  0  0  0
  -37.1490  -19.5700   22.3820 C   0  0  0  0  0  2  0  0  0  0  0  0
  -37.4720  -19.9890   20.9170 C   0  0  0  0  0  2  0  0  0  0  0  0
  -36.6370  -19.1680   19.9150 C   0  0  0  0  0  2  0  0  0  0  0  0
  -35.1830  -19.0100   20.4210 C   0  0  0  0  0  3  0  0  0  0  0  0
  -35.1050  -18.4890   21.8510 C   0  0  0  0  0  2  0  0  0  0  0  0
  -35.6390  -19.5790   22.6070 N   0  0  0  0  0  0  0  0  0  0  0  0
  -35.5770  -21.2870   23.8920 O   0  0  0  0  0  0  0  0  0  0  0  0
  -33.0130  -18.3460   19.3300 C   0  0  0  0  0  0  0  0  0  0  0  0
  -32.6850  -17.3260   18.4960 C   0  0  0  0  0  0  0  0  0  0  0  0
  -33.8860  -16.5780   18.3010 C   0  0  0  0  0  0  0  0  0  0  0  0
  -34.3550  -18.1860   19.5960 N   0  0  0  0  0  0  0  0  0  0  0  0
  -34.8720  -17.0730   19.0340 N   0  0  0  0  0  0  0  0  0  0  0  0
  -34.1760  -15.4680   17.4010 C   0  0  0  0  0  0  0  0  0  0  0  0
  -34.8240  -14.3000   17.8550 C   0  0  0  0  0  3  0  0  0  0  0  0
  -35.0750  -13.2380   16.9620 C   0  0  0  0  0  3  0  0  0  0  0  0
  -34.6750  -13.3420   15.6090 C   0  0  0  0  0  0  0  0  0  0  0  0
  -34.0550  -14.5200   15.1590 C   0  0  0  0  0  3  0  0  0  0  0  0
  -33.8100  -15.5780   16.0470 C   0  0  0  0  0  3  0  0  0  0  0  0
  -34.8970  -12.3710   14.6640 O   0  0  0  0  0  0  0  0  0  0  0  0
  -35.0730  -11.0580   15.0160 C   0  0  0  0  0  0  0  0  0  0  0  0
  -34.1560  -10.3790   15.8470 C   0  0  0  0  0  3  0  0  0  0  0  0
  -34.3400   -9.0100   16.1240 C   0  0  0  0  0  3  0  0  0  0  0  0
  -35.4310   -8.3180   15.5650 C   0  0  0  0  0  0  0  0  0  0  0  0
  -36.3420   -8.9930   14.7340 C   0  0  0  0  0  3  0  0  0  0  0  0
  -36.1620  -10.3590   14.4580 C   0  0  0  0  0  0  0  0  0  0  0  0
  -37.0300  -11.0020   13.6400 F   0  0  0  0  0  0  0  0  0  0  0  0
  -35.6040   -7.0010   15.8240 F   0  0  0  0  0  0  0  0  0  0  0  0
  -31.3580  -17.1290   17.8290 C   0  0  0  0  0  0  0  0  0  0  0  0
  -30.9920  -15.8830   17.5600 N   0  0  0  0  0  0  0  0  0  0  0  0
  -30.6160  -18.0820   17.5930 O   0  0  0  0  0  0  0  0  0  0  0  0
  -31.5960  -15.1040   17.7790 H   0  0  0  0  0  0  0  0  0  0  0  0
  -30.0950  -15.7030   17.1320 H   0  0  0  0  0  0  0  0  0  0  0  0
  -32.2960  -19.4110   19.8510 N   0  0  0  0  0  0  0  0  0  0  0  0
  -31.3250  -19.5700   19.6060 H   0  0  0  0  0  0  0  0  0  0  0  0
  -32.6870  -20.1430   20.4300 H   0  0  0  0  0  0  0  0  0  0  0  0
  2  1  1  0
  3  4  2  0
  4  1  1  0
  4  8  1  0
  5  2  1  0
  6 52  1  0
  6  5  1  0
  6  3  1  0
  8  9  2  0
 10  8  1  0
 10 11  1  0
 11 13  1  0
 12 23  2  0
 13 18  1  0
 14 24  1  0
 15 21  1  0
 16 22  1  0
 17 15  1  0
 17 16  1  0
 18 17  2  0
 19 13  2  0
 19 20  1  0
 20 15  2  0
 21 14  1  0
 22 14  1  0
 22 12  1  0
 24 25  1  0
 25 29  1  0
 25 27  1  0
 26 24  2  0
 28 37  1  0
 29 33  1  0
 32 28  1  0
 33 34  1  0
 33 28  2  0
 34 35  2  0
 35 36  1  0
 37 36  2  0
 38 12  1  0
 38 48  1  0
 38 39  1  0
 39 42  1  0
 40 39  1  0
 40 44  1  0
 41 40  2  0
 44 43  1  0
 45 46  1  0
 46 44  1  0
 46 47  1  0
 48 51  1  1
 48 49  1  0
 50 48  1  0
 52 53  2  0
 54 53  1  0
 54 55  2  0
 56 55  1  0
 56 57  1  0
 57 58  1  0
 58 65  2  0
 59 64  1  0
 60 59  1  0
 61 62  1  0
 61 60  1  0
 62 69  1  0
 62 63  1  0
 63 64  1  0
 64 58  1  0
 66 69  1  0
 66 91  1  0
 67 66  2  0
 68 67  1  0
 68 70  2  0
 70 69  1  0
 71 72  1  0
 71 68  1  0
 73 72  2  0
 74 73  1  0
 75 74  2  0
 75 76  1  0
 76 71  2  0
 77 78  1  0
 77 74  1  0
 78 79  1  0
 79 80  2  0
 81 85  1  0
 81 80  1  0
 82 81  2  0
 83 82  1  0
 83 78  2  0
 84 83  1  0
 86 67  1  0
 87 89  1  0
 87 86  1  0
 88 86  2  0
 90 87  1  0
 91 93  1  0
 92 91  1  0
M  ISO  4  10 101  11 101  57 100  58 100
M  END
>  <TORSDO>  (73) 
F 24

>  <SCORE>  (73) 
15.295

>  <name>  (73) 
72

>  <ligand_id>  (73) 
72

>  <original_smiles>  (73) 
[H]c1c([H])c([H])c2c(c1[H])C([H])([H])C([H])([H])C([H])([H])C2([H])N([H])C(=O)C1([H])N(C(=O)C([H])(N([H])C(=O)C([H])(N([H])C([H])([H])[H])C([H])([H])[H])C(C([H])([H])[H])(C([H])([H])[H])C([H])([H])[H])C([H])([H])c2c([H])c(OC([H])([H])C(=O)c3c([H])c([H])c(C([H])([H])[H])c(C([H])([H])C([H])([H])C([H])([H])C([H])([H])C([H])([H])C([H])([H])C(=O)N4C([H])([H])C([H])([H])C([H])([H])C([H])(n5nc(-c6c([H])c([H])c(Oc7c([H])c([H])c(F)c([H])c7F)c([H])c6[H])c(C(=O)N([H])[H])c5N([H])[H])C4([H])[H])c3[H])c([H])c([H])c2C1([H])[H]

>  <smiles>  (73) 
[H]c1c([H])c([H])c2c(c1[H])C([H])([H])C([H])([H])C([H])([H])C2([H])N([H])C(=O)C1([H])N(C(=O)C([H])(N([H])C(=O)C([H])(N([H])C([H])([H])[H])C([H])([H])[H])C(C([H])([H])[H])(C([H])([H])[H])C([H])([H])[H])C([H])([H])c2c([H])c(OC([H])([H])C(=O)c3c([H])c([H])c(C([H])([H])[H])c(C([H])([H])C([H])([H])C([H])([H])C([H])([H])C([H])([H])C([H])([H])C(=O)N4C([H])([H])C([H])([H])C([H])([H])C([H])(n5nc(-c6c([H])c([H])c(Oc7c([H])c([H])c(F)c([H])c7F)c([H])c6[H])c(C(=O)N([H])[H])c5N([H])[H])C4([H])[H])c3[H])c([H])c([H])c2C1([H])[H]

$$$$
73:0:0
     RDKit          3D

 95103  0  0  1  0  0  0  0  0999 V2000
  -29.2220  -23.7010   21.8660 C   0  0  0  0  0  3  0  0  0  0  0  0
  -27.8590  -23.7670   19.8540 C   0  0  0  0  0  3  0  0  0  0  0  0
  -29.3200  -22.2980   21.7620 C   0  0  0  0  0  0  0  0  0  0  0  0
  -28.4780  -24.4440   20.9270 C   0  0  0  0  0  0  0  0  0  0  0  0
  -27.9160  -22.3630   19.7590 C   0  0  0  0  0  0  0  0  0  0  0  0
  -28.6170  -21.6170   20.7340 C   0  0  0  0  0  0  0  0  0  0  0  0
  -27.2120  -21.6730   18.6030 C   0  0  0  0  0  1  0  0  0  0  0  0
  -30.1830  -21.5990   22.7440 C   0  0  0  0  0  0  0  0  0  0  0  0
  -29.7870  -21.2020   23.8420 O   0  0  0  0  0  0  0  0  0  0  0  0
  -31.6380  -21.3900   22.3010 C   0  0  0  0  0  2  0  0  0  0  0  0
  -32.2890  -20.0570   22.7470 C   0  0  0  0  0  2  0  0  0  0  0  0
  -31.5200  -18.7640   22.4040 C   0  0  0  0  0  2  0  0  0  0  0  0
  -31.5130  -18.3880   20.9090 C   0  0  0  0  0  2  0  0  0  0  0  0
  -32.3010  -17.1140   20.5590 C   0  0  0  0  0  2  0  0  0  0  0  0
  -31.6150  -15.8130   21.0460 C   0  0  0  0  0  2  0  0  0  0  0  0
  -32.2100  -14.5340   20.4280 C   0  0  0  0  0  0  0  0  0  0  0  0
  -31.7760  -12.3350   19.4050 C   0  0  0  0  0  2  0  0  0  0  0  0
  -30.8930  -12.5200   18.1560 C   0  0  0  0  0  2  0  0  0  0  0  0
  -29.3990  -12.5380   18.5310 C   0  0  0  0  0  2  0  0  0  0  0  0
  -29.0880  -13.4970   19.7110 C   0  0  0  0  0  3  0  0  0  0  0  0
  -30.0830  -13.2770   20.8740 C   0  0  0  0  0  2  0  0  0  0  0  0
  -31.4480  -13.4150   20.3440 N   0  0  0  0  0  0  0  0  0  0  0  0
  -33.3430  -14.5990   19.9400 O   0  0  0  0  0  0  0  0  0  0  0  0
  -26.7560  -14.3600   20.3800 C   0  0  0  0  0  0  0  0  0  0  0  0
  -25.5950  -13.7070   20.6990 C   0  0  0  0  0  0  0  0  0  0  0  0
  -25.8990  -12.3130   20.6410 C   0  0  0  0  0  0  0  0  0  0  0  0
  -27.7000  -13.3700   20.1510 N   0  0  0  0  0  0  0  0  0  0  0  0
  -27.1840  -12.1330   20.3630 N   0  0  0  0  0  0  0  0  0  0  0  0
  -25.0290  -11.1380   20.7770 C   0  0  0  0  0  0  0  0  0  0  0  0
  -25.3150  -10.1100   21.7030 C   0  0  0  0  0  3  0  0  0  0  0  0
  -24.4540   -8.9990   21.8280 C   0  0  0  0  0  3  0  0  0  0  0  0
  -23.2910   -8.9080   21.0270 C   0  0  0  0  0  0  0  0  0  0  0  0
  -23.0220   -9.9230   20.0910 C   0  0  0  0  0  3  0  0  0  0  0  0
  -23.8830  -11.0240   19.9630 C   0  0  0  0  0  3  0  0  0  0  0  0
  -22.4110   -7.8530   21.0620 O   0  0  0  0  0  0  0  0  0  0  0  0
  -22.1850   -7.1410   22.2130 C   0  0  0  0  0  0  0  0  0  0  0  0
  -21.7360   -7.7640   23.3980 C   0  0  0  0  0  3  0  0  0  0  0  0
  -21.4510   -6.9850   24.5370 C   0  0  0  0  0  3  0  0  0  0  0  0
  -21.6030   -5.5860   24.4910 C   0  0  0  0  0  0  0  0  0  0  0  0
  -22.0450   -4.9640   23.3100 C   0  0  0  0  0  3  0  0  0  0  0  0
  -22.3330   -5.7400   22.1740 C   0  0  0  0  0  0  0  0  0  0  0  0
  -22.7370   -5.1350   21.0310 F   0  0  0  0  0  0  0  0  0  0  0  0
  -21.3220   -4.8360   25.5820 F   0  0  0  0  0  0  0  0  0  0  0  0
  -24.2540  -14.3350   20.9530 C   0  0  0  0  0  0  0  0  0  0  0  0
  -23.4400  -13.7180   21.8040 N   0  0  0  0  0  0  0  0  0  0  0  0
  -23.9390  -15.4050   20.4340 O   0  0  0  0  0  0  0  0  0  0  0  0
  -23.7080  -12.8520   22.2460 H   0  0  0  0  0  0  0  0  0  0  0  0
  -22.5370  -14.1180   22.0150 H   0  0  0  0  0  0  0  0  0  0  0  0
  -27.0840  -15.7060   20.2470 N   0  0  0  0  0  0  0  0  0  0  0  0
  -26.4050  -16.4480   20.3760 H   0  0  0  0  0  0  0  0  0  0  0  0
  -27.9990  -16.0470   19.9790 H   0  0  0  0  0  0  0  0  0  0  0  0
  -28.5880  -20.2520   20.6480 O   0  0  0  0  0  0  0  0  0  0  0  0
  -28.8380  -19.8010   21.4460 H   0  0  0  0  0  0  0  0  0  0  0  0
  -28.3820  -25.9570   21.0710 C   0  0  0  0  0  2  0  0  0  0  0  0
  -27.9630  -26.6180   19.8800 O   0  0  0  0  0  0  0  0  0  0  0  0
  -24.4780  -31.8740   23.1890 C   0  0  0  0  0  0  0  0  0  0  0  0
  -26.8180  -27.3580   20.0030 C   0  0  0  0  0  0  0  0  0  0  0  0
  -23.1430  -30.5000   21.6220 C   0  0  0  0  0  3  0  0  0  0  0  0
  -24.4700  -28.9120   20.1370 C   0  0  0  0  0  0  0  0  0  0  0  0
  -25.6600  -30.7840   21.2880 C   0  0  0  0  0  2  0  0  0  0  0  0
  -25.6680  -29.4060   20.6670 C   0  0  0  0  0  0  0  0  0  0  0  0
  -26.8440  -28.6300   20.6110 C   0  0  0  0  0  3  0  0  0  0  0  0
  -25.6080  -26.8740   19.4630 C   0  0  0  0  0  3  0  0  0  0  0  0
  -24.4320  -27.6410   19.5370 C   0  0  0  0  0  3  0  0  0  0  0  0
  -23.2550  -29.8030   20.2390 C   0  0  0  0  0  2  0  0  0  0  0  0
  -24.4490  -31.0680   22.0890 N   0  0  0  0  0  0  0  0  0  0  0  0
  -23.4380  -32.1820   23.7860 O   0  0  0  0  0  0  0  0  0  0  0  0
  -22.5180  -29.5000   22.6230 C   0  0  0  0  0  0  0  0  0  0  0  0
  -21.1940  -29.3040   22.5210 N   0  0  0  0  0  0  0  0  0  0  0  0
  -23.2190  -28.9050   23.4460 O   0  0  0  0  0  0  0  0  0  0  0  0
  -20.6890  -29.8330   21.8230 H   0  0  0  0  0  0  0  0  0  0  0  0
  -17.8520  -28.0340   23.0260 C   0  0  0  0  0  0  0  0  0  0  0  0
  -20.3950  -28.3840   23.3280 C   0  0  0  0  0  3  0  0  0  0  0  0
  -20.5540  -26.9290   22.8330 C   0  0  0  0  0  2  0  0  0  0  0  0
  -19.4800  -26.5160   21.8220 C   0  0  0  0  0  2  0  0  0  0  0  0
  -18.0820  -26.6550   22.4310 C   0  0  0  0  0  2  0  0  0  0  0  0
  -18.9390  -28.8530   23.4320 C   0  0  0  0  0  0  0  0  0  0  0  0
  -18.6730  -30.1420   23.9430 C   0  0  0  0  0  3  0  0  0  0  0  0
  -17.3510  -30.6120   24.0590 C   0  0  0  0  0  3  0  0  0  0  0  0
  -16.2780  -29.7890   23.6740 C   0  0  0  0  0  3  0  0  0  0  0  0
  -16.5300  -28.5040   23.1610 C   0  0  0  0  0  3  0  0  0  0  0  0
  -25.8170  -32.4660   23.7330 C   0  0  0  0  0  3  0  0  0  0  0  0
  -26.3950  -31.6700   24.9670 C   0  0  1  0  0  0  0  0  0  0  0  0
  -25.3650  -31.4470   26.0990 C   0  0  0  0  0  1  0  0  0  0  0  0
  -26.9210  -30.2860   24.5210 C   0  0  0  0  0  1  0  0  0  0  0  0
  -27.6030  -32.4300   25.5630 C   0  0  0  0  0  1  0  0  0  0  0  0
  -25.5690  -33.8690   24.0890 N   0  0  0  0  0  0  0  0  0  0  0  0
  -25.9250  -34.9170   23.3350 C   0  0  0  0  0  0  0  0  0  0  0  0
  -26.5700  -34.8020   22.2890 O   0  0  0  0  0  0  0  0  0  0  0  0
  -25.0070  -34.0380   24.9100 H   0  0  0  0  0  0  0  0  0  0  0  0
  -24.2610  -36.7750   23.0270 C   0  0  0  0  0  1  0  0  0  0  0  0
  -25.4960  -36.3150   23.8180 C   0  0  0  0  0  3  0  0  0  0  0  0
  -27.6730  -37.1040   24.6320 C   0  0  0  0  0  1  0  0  0  0  0  0
  -26.5660  -37.3320   23.7070 N   0  0  0  0  0  0  0  0  0  0  0  0
  -26.1950  -38.2640   23.8760 H   0  0  0  0  0  0  0  0  0  0  0  0
  2  4  1  0
  3  1  1  0
  3  8  1  0
  4 54  1  0
  4  1  2  0
  5  2  2  0
  5  6  1  0
  6  3  2  0
  7  5  1  0
  8  9  2  0
 10  8  1  0
 10 11  1  0
 12 11  1  0
 13 12  1  0
 14 13  1  0
 14 15  1  0
 16 15  1  0
 17 22  1  0
 18 19  1  0
 18 17  1  0
 20 19  1  0
 20 27  1  0
 20 21  1  0
 22 16  1  0
 22 21  1  0
 23 16  2  0
 24 25  2  0
 25 44  1  0
 26 25  1  0
 26 29  1  0
 27 28  1  0
 27 24  1  0
 28 26  2  0
 29 30  1  0
 30 31  2  0
 32 35  1  0
 32 31  1  0
 33 32  2  0
 34 33  1  0
 34 29  2  0
 35 36  1  0
 36 37  1  0
 37 38  2  0
 39 38  1  0
 39 43  1  0
 40 39  2  0
 41 36  2  0
 41 40  1  0
 42 41  1  0
 44 45  1  0
 45 48  1  0
 45 47  1  0
 46 44  2  0
 49 50  1  0
 49 24  1  0
 51 49  1  0
 52  6  1  0
 52 53  1  0
 55 57  1  0
 55 54  1  0
 56 67  2  0
 57 62  1  0
 58 66  1  0
 58 68  1  0
 59 65  1  0
 59 61  1  0
 60 66  1  0
 61 60  1  0
 62 61  2  0
 63 64  1  0
 63 57  2  0
 64 59  2  0
 65 58  1  0
 66 56  1  0
 68 70  2  0
 69 68  1  0
 71 69  1  0
 72 81  2  0
 72 77  1  0
 73 69  1  0
 73 77  1  0
 74 73  1  0
 75 76  1  0
 75 74  1  0
 76 72  1  0
 77 78  2  0
 78 79  1  0
 80 79  2  0
 81 80  1  0
 82 56  1  0
 82 87  1  0
 82 83  1  0
 83 86  1  1
 83 84  1  0
 85 83  1  0
 87 90  1  0
 88 92  1  0
 88 87  1  0
 89 88  2  0
 92 91  1  0
 94 92  1  0
 94 95  1  0
 94 93  1  0
M  ISO  4  15 100  16 100  54 101  55 101
M  END
>  <TORSDO>  (74) 
F 25

>  <SCORE>  (74) 
-11.182

>  <name>  (74) 
73

>  <ligand_id>  (74) 
73

>  <original_smiles>  (74) 
[H]Oc1c(C(=O)C([H])([H])C([H])([H])C([H])([H])C([H])([H])C([H])([H])C([H])([H])C(=O)N2C([H])([H])C([H])([H])C([H])([H])C([H])(n3nc(-c4c([H])c([H])c(Oc5c([H])c([H])c(F)c([H])c5F)c([H])c4[H])c(C(=O)N([H])[H])c3N([H])[H])C2([H])[H])c([H])c(C([H])([H])Oc2c([H])c([H])c3c(c2[H])C([H])([H])N(C(=O)C([H])(N([H])C(=O)C([H])(N([H])C([H])([H])[H])C([H])([H])[H])C(C([H])([H])[H])(C([H])([H])[H])C([H])([H])[H])C([H])(C(=O)N([H])C2([H])c4c([H])c([H])c([H])c([H])c4C([H])([H])C([H])([H])C2([H])[H])C3([H])[H])c([H])c1C([H])([H])[H]

>  <smiles>  (74) 
[H]Oc1c(C(=O)C([H])([H])C([H])([H])C([H])([H])C([H])([H])C([H])([H])C([H])([H])C(=O)N2C([H])([H])C([H])([H])C([H])([H])C([H])(n3nc(-c4c([H])c([H])c(Oc5c([H])c([H])c(F)c([H])c5F)c([H])c4[H])c(C(=O)N([H])[H])c3N([H])[H])C2([H])[H])c([H])c(C([H])([H])Oc2c([H])c([H])c3c(c2[H])C([H])([H])N(C(=O)C([H])(N([H])C(=O)C([H])(N([H])C([H])([H])[H])C([H])([H])[H])C(C([H])([H])[H])(C([H])([H])[H])C([H])([H])[H])C([H])(C(=O)N([H])C2([H])c4c([H])c([H])c([H])c([H])c4C([H])([H])C([H])([H])C2([H])[H])C3([H])[H])c([H])c1C([H])([H])[H]

$$$$
74:0:0
     RDKit          3D

 94103  0  0  1  0  0  0  0  0999 V2000
  -29.2050  -21.2800   22.1930 C   0  0  0  0  0  3  0  0  0  0  0  0
  -29.7570  -22.3010   22.8690 C   0  0  0  0  0  0  0  0  0  0  0  0
  -30.2790  -23.5510   22.1800 C   0  0  0  0  0  2  0  0  0  0  0  0
  -30.3980  -23.3970   20.6490 C   0  0  0  0  0  2  0  0  0  0  0  0
  -28.9120  -21.2270   20.6990 C   0  0  0  0  0  3  0  0  0  0  0  0
  -29.1220  -22.8670   19.9490 C   0  0  2  0  0  0  0  0  0  0  0  0
  -29.9310  -22.2520   24.3800 C   0  0  0  0  0  1  0  0  0  0  0  0
  -29.4950  -22.6150   18.4790 C   0  0  0  0  0  1  0  0  0  0  0  0
  -29.7100  -18.2930   20.8830 C   0  0  0  0  0  3  0  0  0  0  0  0
  -28.6860  -17.9190   18.4080 C   0  0  0  0  0  3  0  0  0  0  0  0
  -29.7230  -16.8190   20.4030 C   0  0  0  0  0  0  0  0  0  0  0  0
  -29.1770  -19.5770   20.1810 C   0  0  0  0  0  0  0  0  0  0  0  0
  -29.2130  -16.7850   19.0690 C   0  0  0  0  0  0  0  0  0  0  0  0
  -28.6260  -19.2300   18.9140 C   0  0  0  0  0  0  0  0  0  0  0  0
  -29.2390  -15.5360   18.2040 C   0  0  0  0  0  1  0  0  0  0  0  0
  -27.9000  -20.2090   17.9980 C   0  0  0  0  0  1  0  0  0  0  0  0
  -30.4140  -15.3760   20.9620 C   0  0  0  0  0  0  0  0  0  0  0  0
  -30.5310  -12.8570   20.3180 C   0  0  0  0  0  2  0  0  0  0  0  0
  -29.7700  -12.4560   19.0290 C   0  0  0  0  0  2  0  0  0  0  0  0
  -28.2540  -12.3080   19.2720 C   0  0  0  0  0  2  0  0  0  0  0  0
  -27.6740  -13.3310   20.2860 C   0  0  0  0  0  3  0  0  0  0  0  0
  -28.5950  -13.5790   21.4910 C   0  0  0  0  0  2  0  0  0  0  0  0
  -29.8710  -14.0590   20.9440 N   0  0  0  0  0  0  0  0  0  0  0  0
  -31.6500  -15.3560   21.0420 O   0  0  0  0  0  0  0  0  0  0  0  0
  -25.2670  -13.8990   20.8960 C   0  0  0  0  0  0  0  0  0  0  0  0
  -24.1680  -13.1230   21.1440 C   0  0  0  0  0  0  0  0  0  0  0  0
  -24.6160  -11.7670   21.0850 C   0  0  0  0  0  0  0  0  0  0  0  0
  -26.3100  -13.0150   20.6850 N   0  0  0  0  0  0  0  0  0  0  0  0
  -25.9260  -11.7240   20.8730 N   0  0  0  0  0  0  0  0  0  0  0  0
  -23.8560  -10.5100   21.1500 C   0  0  0  0  0  0  0  0  0  0  0  0
  -24.1570   -9.5120   22.1030 C   0  0  0  0  0  3  0  0  0  0  0  0
  -23.3980   -8.3220   22.1600 C   0  0  0  0  0  3  0  0  0  0  0  0
  -22.3210   -8.1240   21.2630 C   0  0  0  0  0  0  0  0  0  0  0  0
  -22.0400   -9.1100   20.3010 C   0  0  0  0  0  3  0  0  0  0  0  0
  -22.8010  -10.2900   20.2410 C   0  0  0  0  0  3  0  0  0  0  0  0
  -21.5430   -6.9920   21.2300 O   0  0  0  0  0  0  0  0  0  0  0  0
  -21.3080   -6.2460   22.3580 C   0  0  0  0  0  0  0  0  0  0  0  0
  -20.6740   -6.7910   23.4960 C   0  0  0  0  0  3  0  0  0  0  0  0
  -20.3890   -5.9700   24.6050 C   0  0  0  0  0  3  0  0  0  0  0  0
  -20.7320   -4.6040   24.5760 C   0  0  0  0  0  0  0  0  0  0  0  0
  -21.3590   -4.0590   23.4430 C   0  0  0  0  0  3  0  0  0  0  0  0
  -21.6430   -4.8770   22.3350 C   0  0  0  0  0  0  0  0  0  0  0  0
  -22.2260   -4.3400   21.2370 F   0  0  0  0  0  0  0  0  0  0  0  0
  -20.4530   -3.8140   25.6390 F   0  0  0  0  0  0  0  0  0  0  0  0
  -22.7620  -13.6130   21.3200 C   0  0  0  0  0  0  0  0  0  0  0  0
  -21.9550  -12.8940   22.0950 N   0  0  0  0  0  0  0  0  0  0  0  0
  -22.3820  -14.6660   20.8080 O   0  0  0  0  0  0  0  0  0  0  0  0
  -22.2730  -12.0390   22.5250 H   0  0  0  0  0  0  0  0  0  0  0  0
  -21.0060  -13.2000   22.2590 H   0  0  0  0  0  0  0  0  0  0  0  0
  -25.4700  -15.2730   20.8020 N   0  0  0  0  0  0  0  0  0  0  0  0
  -24.7170  -15.9450   20.9000 H   0  0  0  0  0  0  0  0  0  0  0  0
  -26.3570  -15.7020   20.5720 H   0  0  0  0  0  0  0  0  0  0  0  0
  -28.0580  -24.3240   19.9160 C   0  0  0  0  0  2  0  0  0  0  0  0
  -28.3010  -25.9440   19.7380 O   0  0  0  0  0  0  0  0  0  0  0  0
  -24.7550  -31.6480   23.1460 C   0  0  0  0  0  0  0  0  0  0  0  0
  -27.2760  -27.0220   19.7710 C   0  0  0  0  0  0  0  0  0  0  0  0
  -23.5320  -30.3540   21.4430 C   0  0  0  0  0  3  0  0  0  0  0  0
  -24.9600  -28.8700   19.8840 C   0  0  0  0  0  0  0  0  0  0  0  0
  -26.0900  -30.6160   21.2450 C   0  0  0  0  0  2  0  0  0  0  0  0
  -26.1590  -29.2520   20.5040 C   0  0  0  0  0  0  0  0  0  0  0  0
  -27.3110  -28.3500   20.4220 C   0  0  0  0  0  3  0  0  0  0  0  0
  -26.0480  -26.7960   19.1100 C   0  0  0  0  0  3  0  0  0  0  0  0
  -24.9300  -27.6650   19.1680 C   0  0  0  0  0  3  0  0  0  0  0  0
  -23.7340  -29.7710   20.0180 C   0  0  0  0  0  2  0  0  0  0  0  0
  -24.8140  -30.8990   22.0000 N   0  0  0  0  0  0  0  0  0  0  0  0
  -23.6760  -31.8830   23.7170 O   0  0  0  0  0  0  0  0  0  0  0  0
  -22.8780  -29.2820   22.3560 C   0  0  0  0  0  0  0  0  0  0  0  0
  -21.5530  -29.0780   22.2250 N   0  0  0  0  0  0  0  0  0  0  0  0
  -23.5700  -28.6390   23.1500 O   0  0  0  0  0  0  0  0  0  0  0  0
  -21.0480  -29.6540   21.5680 H   0  0  0  0  0  0  0  0  0  0  0  0
  -18.2220  -27.7000   22.6500 C   0  0  0  0  0  0  0  0  0  0  0  0
  -20.7670  -28.0720   22.9480 C   0  0  0  0  0  3  0  0  0  0  0  0
  -20.9350  -26.6690   22.3190 C   0  0  0  0  0  2  0  0  0  0  0  0
  -19.8580  -26.3380   21.2820 C   0  0  0  0  0  2  0  0  0  0  0  0
  -18.4650  -26.3930   21.9150 C   0  0  0  0  0  2  0  0  0  0  0  0
  -19.3020  -28.4970   23.1190 C   0  0  0  0  0  0  0  0  0  0  0  0
  -19.0180  -29.7170   23.7670 C   0  0  0  0  0  3  0  0  0  0  0  0
  -17.6890  -30.1480   23.9460 C   0  0  0  0  0  3  0  0  0  0  0  0
  -16.6250  -29.3510   23.4870 C   0  0  0  0  0  3  0  0  0  0  0  0
  -16.8920  -28.1280   22.8470 C   0  0  0  0  0  3  0  0  0  0  0  0
  -26.0360  -32.2620   23.7890 C   0  0  0  0  0  3  0  0  0  0  0  0
  -25.7110  -33.6280   24.2340 N   0  0  0  0  0  0  0  0  0  0  0  0
  -26.0490  -34.7480   23.5840 C   0  0  0  0  0  0  0  0  0  0  0  0
  -26.7320  -34.7410   22.5570 O   0  0  0  0  0  0  0  0  0  0  0  0
  -25.1190  -33.7050   25.0490 H   0  0  0  0  0  0  0  0  0  0  0  0
  -24.3210  -36.5640   23.3650 C   0  0  0  0  0  1  0  0  0  0  0  0
  -25.5480  -36.0890   24.1610 C   0  0  0  0  0  3  0  0  0  0  0  0
  -27.6590  -36.8940   25.1180 C   0  0  0  0  0  1  0  0  0  0  0  0
  -26.5780  -37.1500   24.1710 N   0  0  0  0  0  0  0  0  0  0  0  0
  -26.1620  -38.0490   24.4000 H   0  0  0  0  0  0  0  0  0  0  0  0
  -26.5890  -31.4170   25.0020 C   0  0  1  0  0  0  0  0  0  0  0  0
  -25.5260  -31.1050   26.0810 C   0  0  0  0  0  1  0  0  0  0  0  0
  -27.1750  -30.0710   24.5170 C   0  0  0  0  0  1  0  0  0  0  0  0
  -27.7520  -32.1770   25.6840 C   0  0  0  0  0  1  0  0  0  0  0  0
  1  2  2  0
  2  7  1  0
  3  2  1  0
  4  3  1  0
  5 12  1  0
  5  1  1  0
  6  8  1  6
  6  4  1  0
  6  5  1  0
 10 14  2  0
 10 13  1  0
 11  9  1  0
 11 17  1  0
 12  9  2  0
 13 11  2  0
 14 12  1  0
 15 13  1  0
 16 14  1  0
 17 24  2  0
 18 23  1  0
 19 20  1  0
 19 18  1  0
 21 20  1  0
 21 28  1  0
 21 22  1  0
 23 17  1  0
 23 22  1  0
 25 26  2  0
 26 45  1  0
 27 26  1  0
 27 30  1  0
 28 29  1  0
 28 25  1  0
 29 27  2  0
 30 31  1  0
 31 32  2  0
 33 32  1  0
 34 33  2  0
 35 34  1  0
 35 30  2  0
 36 33  1  0
 36 37  1  0
 37 38  1  0
 38 39  2  0
 40 39  1  0
 40 44  1  0
 41 40  2  0
 42 37  2  0
 42 41  1  0
 43 42  1  0
 45 46  1  0
 46 49  1  0
 46 48  1  0
 47 45  2  0
 50 25  1  0
 50 51  1  0
 52 50  1  0
 53  6  1  0
 54 56  1  0
 54 53  1  0
 55 66  2  0
 56 61  1  0
 57 65  1  0
 57 67  1  0
 58 64  1  0
 58 60  1  0
 59 65  1  0
 60 59  1  0
 61 60  2  0
 62 63  1  0
 62 56  2  0
 63 58  2  0
 64 57  1  0
 65 55  1  0
 67 69  2  0
 68 67  1  0
 70 68  1  0
 71 80  2  0
 71 76  1  0
 72 68  1  0
 72 76  1  0
 73 72  1  0
 74 75  1  0
 74 73  1  0
 75 71  1  0
 76 77  2  0
 77 78  1  0
 79 78  2  0
 80 79  1  0
 81 55  1  0
 81 82  1  0
 81 91  1  0
 82 85  1  0
 83 87  1  0
 83 82  1  0
 84 83  2  0
 87 86  1  0
 87 89  1  0
 89 90  1  0
 89 88  1  0
 91 94  1  1
 91 92  1  0
 93 91  1  0
M  ISO  4  11 100  17 100  53 101  54 101
M  END
>  <TORSDO>  (75) 
F 18

>  <SCORE>  (75) 
-14.289

>  <name>  (75) 
74

>  <ligand_id>  (75) 
74

>  <original_smiles>  (75) 
[H]C1=C(C([H])([H])[H])C([H])([H])C([H])([H])C(C([H])([H])[H])(C([H])([H])Oc2c([H])c([H])c3c(c2[H])C([H])([H])N(C(=O)C([H])(N([H])C(=O)C([H])(N([H])C([H])([H])[H])C([H])([H])[H])C(C([H])([H])[H])(C([H])([H])[H])C([H])([H])[H])C([H])(C(=O)N([H])C2([H])c4c([H])c([H])c([H])c([H])c4C([H])([H])C([H])([H])C2([H])[H])C3([H])[H])C1([H])c1c([H])c(C(=O)N2C([H])([H])C([H])([H])C([H])([H])C([H])(n3nc(-c4c([H])c([H])c(Oc5c([H])c([H])c(F)c([H])c5F)c([H])c4[H])c(C(=O)N([H])[H])c3N([H])[H])C2([H])[H])c(C([H])([H])[H])c([H])c1C([H])([H])[H]

>  <smiles>  (75) 
[H]C1=C(C([H])([H])[H])C([H])([H])C([H])([H])C(C([H])([H])[H])(C([H])([H])Oc2c([H])c([H])c3c(c2[H])C([H])([H])N(C(=O)C([H])(N([H])C(=O)C([H])(N([H])C([H])([H])[H])C([H])([H])[H])C(C([H])([H])[H])(C([H])([H])[H])C([H])([H])[H])C([H])(C(=O)N([H])C2([H])c4c([H])c([H])c([H])c([H])c4C([H])([H])C([H])([H])C2([H])[H])C3([H])[H])C1([H])c1c([H])c(C(=O)N2C([H])([H])C([H])([H])C([H])([H])C([H])(n3nc(-c4c([H])c([H])c(Oc5c([H])c([H])c(F)c([H])c5F)c([H])c4[H])c(C(=O)N([H])[H])c3N([H])[H])C2([H])[H])c(C([H])([H])[H])c([H])c1C([H])([H])[H]

$$$$
75:0:0
     RDKit          3D

 94103  0  0  1  0  0  0  0  0999 V2000
  -30.3150  -18.1830   21.0360 C   0  0  0  0  0  3  0  0  0  0  0  0
  -29.7490  -16.9260   20.4720 C   0  0  0  0  0  0  0  0  0  0  0  0
  -29.8370  -19.6040   20.8560 C   0  0  0  0  0  0  0  0  0  0  0  0
  -28.6520  -19.9040   20.1440 C   0  0  0  0  0  0  0  0  0  0  0  0
  -28.6540  -17.3530   19.6060 C   0  0  0  0  0  0  0  0  0  0  0  0
  -28.0980  -18.7210   19.5220 C   0  0  0  0  0  0  0  0  0  0  0  0
  -28.0310  -21.4410   19.9950 C   0  0  0  0  0  2  0  0  0  0  0  0
  -30.1500  -22.3770   20.7350 C   0  0  0  0  0  2  0  0  0  0  0  0
  -30.5310  -20.9210   21.3920 C   0  0  0  0  0  3  0  0  0  0  0  0
  -28.6400  -22.8560   20.6420 C   0  0  0  0  0  3  0  0  0  0  0  0
  -28.1120  -16.3720   18.5720 C   0  0  0  0  0  1  0  0  0  0  0  0
  -26.8670  -18.9440   18.6400 C   0  0  0  0  0  1  0  0  0  0  0  0
  -30.4370  -15.3810   20.5300 C   0  0  0  0  0  0  0  0  0  0  0  0
  -30.4260  -12.9390   19.6820 C   0  0  0  0  0  2  0  0  0  0  0  0
  -29.5500  -12.7050   18.4260 C   0  0  0  0  0  2  0  0  0  0  0  0
  -28.0830  -12.4500   18.8180 C   0  0  0  0  0  2  0  0  0  0  0  0
  -27.5910  -13.4020   19.9360 C   0  0  0  0  0  3  0  0  0  0  0  0
  -28.6040  -13.5870   21.0800 C   0  0  0  0  0  2  0  0  0  0  0  0
  -29.8520  -14.0850   20.4760 N   0  0  0  0  0  0  0  0  0  0  0  0
  -31.6720  -15.3270   20.4440 O   0  0  0  0  0  0  0  0  0  0  0  0
  -25.1920  -13.9520   20.5950 C   0  0  0  0  0  0  0  0  0  0  0  0
  -24.1250  -13.1660   20.9250 C   0  0  0  0  0  0  0  0  0  0  0  0
  -24.6100  -11.8220   20.9330 C   0  0  0  0  0  0  0  0  0  0  0  0
  -26.2530  -13.0840   20.4070 N   0  0  0  0  0  0  0  0  0  0  0  0
  -25.9130  -11.8000   20.6790 N   0  0  0  0  0  0  0  0  0  0  0  0
  -23.8960  -10.5520   21.1060 C   0  0  0  0  0  0  0  0  0  0  0  0
  -24.3060   -9.6000   22.0650 C   0  0  0  0  0  3  0  0  0  0  0  0
  -23.5910   -8.3950   22.2280 C   0  0  0  0  0  3  0  0  0  0  0  0
  -22.4500   -8.1340   21.4320 C   0  0  0  0  0  0  0  0  0  0  0  0
  -22.0600   -9.0740   20.4620 C   0  0  0  0  0  3  0  0  0  0  0  0
  -22.7770  -10.2720   20.2970 C   0  0  0  0  0  3  0  0  0  0  0  0
  -21.7060   -6.9810   21.5040 O   0  0  0  0  0  0  0  0  0  0  0  0
  -21.6280   -6.2470   22.6600 C   0  0  0  0  0  0  0  0  0  0  0  0
  -21.1260   -6.7970   23.8590 C   0  0  0  0  0  3  0  0  0  0  0  0
  -20.9980   -5.9870   25.0060 C   0  0  0  0  0  3  0  0  0  0  0  0
  -21.3620   -4.6280   24.9520 C   0  0  0  0  0  0  0  0  0  0  0  0
  -21.8580   -4.0780   23.7570 C   0  0  0  0  0  3  0  0  0  0  0  0
  -21.9880   -4.8860   22.6140 C   0  0  0  0  0  0  0  0  0  0  0  0
  -22.4460   -4.3450   21.4580 F   0  0  0  0  0  0  0  0  0  0  0  0
  -21.2330   -3.8470   26.0500 F   0  0  0  0  0  0  0  0  0  0  0  0
  -22.7110  -13.6270   21.1250 C   0  0  0  0  0  0  0  0  0  0  0  0
  -21.9560  -12.9320   21.9690 N   0  0  0  0  0  0  0  0  0  0  0  0
  -22.2830  -14.6390   20.5710 O   0  0  0  0  0  0  0  0  0  0  0  0
  -22.3180  -12.1160   22.4390 H   0  0  0  0  0  0  0  0  0  0  0  0
  -21.0040  -13.2200   22.1460 H   0  0  0  0  0  0  0  0  0  0  0  0
  -25.3470  -15.3230   20.4120 N   0  0  0  0  0  0  0  0  0  0  0  0
  -24.5730  -15.9710   20.5100 H   0  0  0  0  0  0  0  0  0  0  0  0
  -26.2210  -15.7810   20.1890 H   0  0  0  0  0  0  0  0  0  0  0  0
  -31.9880  -20.7430   21.3250 N   0  0  0  0  0  4  0  0  0  0  0  0
  -32.2830  -20.6420   20.3700 H   0  0  0  0  0  0  0  0  0  0  0  0
  -32.2630  -19.9260   21.8350 H   0  0  0  0  0  0  0  0  0  0  0  0
  -32.4580  -21.5330   21.7260 H   0  0  0  0  0  0  0  0  0  0  0  0
  -28.1160  -24.4650   20.0580 C   0  0  0  0  0  2  0  0  0  0  0  0
  -28.2160  -26.0370   20.4850 O   0  0  0  0  0  0  0  0  0  0  0  0
  -24.5760  -31.9670   23.2900 C   0  0  0  0  0  0  0  0  0  0  0  0
  -27.1920  -27.1030   20.3510 C   0  0  0  0  0  0  0  0  0  0  0  0
  -23.3990  -30.5400   21.6640 C   0  0  0  0  0  3  0  0  0  0  0  0
  -24.8690  -28.9360   20.2670 C   0  0  0  0  0  0  0  0  0  0  0  0
  -25.9620  -30.7790   21.5260 C   0  0  0  0  0  2  0  0  0  0  0  0
  -26.0460  -29.3660   20.8910 C   0  0  0  0  0  0  0  0  0  0  0  0
  -27.1980  -28.4660   20.9150 C   0  0  0  0  0  3  0  0  0  0  0  0
  -25.9880  -26.8220   19.6610 C   0  0  0  0  0  3  0  0  0  0  0  0
  -24.8640  -27.6840   19.6320 C   0  0  0  0  0  3  0  0  0  0  0  0
  -23.6390  -29.8400   20.2980 C   0  0  0  0  0  2  0  0  0  0  0  0
  -24.6660  -31.1230   22.2130 N   0  0  0  0  0  0  0  0  0  0  0  0
  -23.4820  -32.2560   23.8030 O   0  0  0  0  0  0  0  0  0  0  0  0
  -22.7100  -29.5490   22.6390 C   0  0  0  0  0  0  0  0  0  0  0  0
  -21.3860  -29.3540   22.4930 N   0  0  0  0  0  0  0  0  0  0  0  0
  -23.3730  -28.9580   23.4950 O   0  0  0  0  0  0  0  0  0  0  0  0
  -20.9040  -29.8810   21.7790 H   0  0  0  0  0  0  0  0  0  0  0  0
  -18.0220  -28.0820   22.9570 C   0  0  0  0  0  0  0  0  0  0  0  0
  -20.5680  -28.4180   23.2720 C   0  0  0  0  0  3  0  0  0  0  0  0
  -20.7160  -26.9740   22.7390 C   0  0  0  0  0  2  0  0  0  0  0  0
  -19.6460  -26.5960   21.7090 C   0  0  0  0  0  2  0  0  0  0  0  0
  -18.2470  -26.7220   22.3180 C   0  0  0  0  0  2  0  0  0  0  0  0
  -19.1120  -28.8850   23.3900 C   0  0  0  0  0  0  0  0  0  0  0  0
  -18.8460  -30.1540   23.9490 C   0  0  0  0  0  3  0  0  0  0  0  0
  -17.5240  -30.6220   24.0780 C   0  0  0  0  0  3  0  0  0  0  0  0
  -16.4490  -29.8180   23.6590 C   0  0  0  0  0  3  0  0  0  0  0  0
  -16.6990  -28.5500   23.1050 C   0  0  0  0  0  3  0  0  0  0  0  0
  -25.8390  -32.6270   23.9180 C   0  0  0  0  0  3  0  0  0  0  0  0
  -26.3410  -31.8860   25.2190 C   0  0  1  0  0  0  0  0  0  0  0  0
  -25.2300  -31.6530   26.2700 C   0  0  0  0  0  1  0  0  0  0  0  0
  -26.9510  -30.5090   24.8700 C   0  0  0  0  0  1  0  0  0  0  0  0
  -27.4670  -32.7080   25.8890 C   0  0  0  0  0  1  0  0  0  0  0  0
  -25.5120  -34.0300   24.2290 N   0  0  0  0  0  0  0  0  0  0  0  0
  -25.8330  -35.0810   23.4620 C   0  0  0  0  0  0  0  0  0  0  0  0
  -26.5000  -34.9720   22.4300 O   0  0  0  0  0  0  0  0  0  0  0  0
  -24.9230  -34.1870   25.0330 H   0  0  0  0  0  0  0  0  0  0  0  0
  -24.0870  -36.8590   23.1050 C   0  0  0  0  0  1  0  0  0  0  0  0
  -25.3380  -36.4720   23.9090 C   0  0  0  0  0  3  0  0  0  0  0  0
  -27.4670  -37.3940   24.7180 C   0  0  0  0  0  1  0  0  0  0  0  0
  -26.3610  -37.5330   23.7740 N   0  0  0  0  0  0  0  0  0  0  0  0
  -25.9460  -38.4510   23.9050 H   0  0  0  0  0  0  0  0  0  0  0  0
  2 13  1  0
  2  1  2  0
  3  1  1  0
  3  9  1  0
  4  3  2  0
  5  2  1  0
  6  5  2  0
  6  4  1  0
  7  4  1  0
  7 10  1  0
  8  9  1  0
  9 49  1  0
 10 53  1  0
 10  8  1  0
 11  5  1  0
 12  6  1  0
 14 19  1  0
 15 16  1  0
 15 14  1  0
 17 16  1  0
 17 24  1  0
 17 18  1  0
 19 13  1  0
 19 18  1  0
 20 13  2  0
 21 22  2  0
 22 23  1  0
 22 41  1  0
 23 26  1  0
 24 21  1  0
 24 25  1  0
 25 23  2  0
 26 27  1  0
 27 28  2  0
 29 32  1  0
 29 28  1  0
 30 29  2  0
 31 30  1  0
 31 26  2  0
 32 33  1  0
 33 34  1  0
 34 35  2  0
 36 35  1  0
 36 40  1  0
 37 36  2  0
 38 33  2  0
 38 37  1  0
 39 38  1  0
 41 42  1  0
 42 45  1  0
 42 44  1  0
 43 41  2  0
 46 47  1  0
 46 21  1  0
 48 46  1  0
 49 52  1  0
 49 51  1  0
 50 49  1  0
 53 54  1  0
 55 66  2  0
 56 54  1  0
 56 61  1  0
 57 65  1  0
 57 67  1  0
 58 64  1  0
 58 60  1  0
 59 65  1  0
 60 61  2  0
 60 59  1  0
 62 56  2  0
 63 62  1  0
 63 58  2  0
 64 57  1  0
 65 55  1  0
 67 69  2  0
 68 67  1  0
 70 68  1  0
 71 80  2  0
 71 76  1  0
 72 68  1  0
 72 76  1  0
 73 72  1  0
 74 75  1  0
 74 73  1  0
 75 71  1  0
 76 77  2  0
 77 78  1  0
 79 78  2  0
 80 79  1  0
 81 55  1  0
 81 86  1  0
 81 82  1  0
 82 85  1  1
 82 83  1  0
 84 82  1  0
 86 89  1  0
 87 91  1  0
 87 86  1  0
 88 87  2  0
 91 90  1  0
 93 94  1  0
 93 91  1  0
 93 92  1  0
M  ISO  4   2 100  13 100  53 101  54 101
M  END
>  <TORSDO>  (76) 
F 18

>  <SCORE>  (76) 
-15.455

>  <name>  (76) 
75

>  <ligand_id>  (76) 
75

>  <original_smiles>  (76) 
[H]c1c([H])c([H])c2c(c1[H])C([H])([H])C([H])([H])C([H])([H])C2([H])N([H])C(=O)C1([H])N(C(=O)C([H])(N([H])C(=O)C([H])(N([H])C([H])([H])[H])C([H])([H])[H])C(C([H])([H])[H])(C([H])([H])[H])C([H])([H])[H])C([H])([H])c2c([H])c(OC([H])([H])C3([H])C([H])([H])c4c(C([H])([H])[H])c(C([H])([H])[H])c(C(=O)N5C([H])([H])C([H])([H])C([H])([H])C([H])(n6nc(-c7c([H])c([H])c(Oc8c([H])c([H])c(F)c([H])c8F)c([H])c7[H])c(C(=O)N([H])[H])c6N([H])[H])C5([H])[H])c([H])c4C([H])([N+]([H])([H])[H])C3([H])[H])c([H])c([H])c2C1([H])[H]

>  <smiles>  (76) 
[H]c1c([H])c([H])c2c(c1[H])C([H])([H])C([H])([H])C([H])([H])C2([H])N([H])C(=O)C1([H])N(C(=O)C([H])(N([H])C(=O)C([H])(N([H])C([H])([H])[H])C([H])([H])[H])C(C([H])([H])[H])(C([H])([H])[H])C([H])([H])[H])C([H])([H])c2c([H])c(OC([H])([H])C3([H])C([H])([H])c4c(C([H])([H])[H])c(C([H])([H])[H])c(C(=O)N5C([H])([H])C([H])([H])C([H])([H])C([H])(n6nc(-c7c([H])c([H])c(Oc8c([H])c([H])c(F)c([H])c8F)c([H])c7[H])c(C(=O)N([H])[H])c6N([H])[H])C5([H])[H])c([H])c4C([H])([N+]([H])([H])[H])C3([H])[H])c([H])c([H])c2C1([H])[H]

$$$$
76:0:0
     RDKit          3D

100101  0  0  1  0  0  0  0  0999 V2000
  -20.3250  -26.7160   22.4860 C   0  0  0  0  0  2  0  0  0  0  0  0
  -19.8720  -29.5730   21.1670 C   0  0  0  0  0  2  0  0  0  0  0  0
  -20.0550  -28.8160   22.1990 C   0  0  0  0  0  3  0  0  0  0  0  0
  -21.4390  -25.7700   22.0310 C   0  0  0  0  0  1  0  0  0  0  0  0
  -19.3260  -28.3580   21.3320 C   0  0  0  0  0  3  0  0  0  0  0  0
  -20.0470  -26.4410   21.8840 C   0  0  0  0  0  2  0  0  0  0  0  0
  -19.4550  -25.0770   21.5390 F   0  0  0  0  0  0  0  0  0  0  0  0
  -18.1470  -28.8880   20.5870 N   0  0  0  0  0  0  0  0  0  0  0  0
  -18.2560  -29.7560   20.0790 H   0  0  0  0  0  0  0  0  0  0  0  0
  -17.6080  -28.2080   20.0720 H   0  0  0  0  0  0  0  0  0  0  0  0
  -20.8040  -30.0730   23.4060 C   0  0  0  0  0  0  0  0  0  0  0  0
  -20.6590  -31.2940   23.3120 O   0  0  0  0  0  0  0  0  0  0  0  0
  -21.9300  -29.4000   24.7300 C   0  0  0  0  0  3  0  0  0  0  0  0
  -22.9050  -27.7920   25.1430 C   0  0  0  0  0  3  0  0  0  0  0  0
  -23.4880  -26.0980   24.5500 C   0  0  0  0  0  2  0  0  0  0  0  0
  -24.9890  -25.1100   24.2240 C   0  0  0  0  0  2  0  0  0  0  0  0
  -25.7000  -23.8350   23.1060 C   0  0  0  0  0  2  0  0  0  0  0  0
  -26.0450  -22.0550   22.9600 C   0  0  0  0  0  2  0  0  0  0  0  0
  -27.4080  -21.0590   22.2770 C   0  0  0  0  0  3  0  0  0  0  0  0
  -27.6210  -19.3510   21.6820 C   0  0  0  0  0  3  0  0  0  0  0  0
  -29.0240  -18.3190   21.1400 C   0  0  0  0  0  3  0  0  0  0  0  0
  -29.1580  -16.6580   20.4170 C   0  0  0  0  0  3  0  0  0  0  0  0
  -30.3750  -15.4660   19.8820 C   0  0  0  0  0  0  0  0  0  0  0  0
  -30.7080  -13.1530   18.6610 C   0  0  0  0  0  2  0  0  0  0  0  0
  -29.7460  -12.9680   17.4450 C   0  0  0  0  0  2  0  0  0  0  0  0
  -28.3190  -12.5960   17.8920 C   0  0  0  0  0  2  0  0  0  0  0  0
  -27.8830  -13.4690   19.0930 C   0  0  0  0  0  3  0  0  0  0  0  0
  -28.9270  -13.4190   20.2120 C   0  0  0  0  0  2  0  0  0  0  0  0
  -30.0970  -14.0920   19.6770 N   0  0  0  0  0  0  0  0  0  0  0  0
  -31.5200  -15.7590   19.4700 O   0  0  0  0  0  0  0  0  0  0  0  0
  -25.5510  -13.9770   19.9650 C   0  0  0  0  0  0  0  0  0  0  0  0
  -24.5340  -13.1650   20.3760 C   0  0  0  0  0  0  0  0  0  0  0  0
  -25.0290  -11.8280   20.2730 C   0  0  0  0  0  0  0  0  0  0  0  0
  -26.5840  -13.1250   19.6180 N   0  0  0  0  0  0  0  0  0  0  0  0
  -26.2910  -11.8280   19.8720 N   0  0  0  0  0  0  0  0  0  0  0  0
  -24.3550  -10.5440   20.4720 C   0  0  0  0  0  0  0  0  0  0  0  0
  -24.9030   -9.5400   21.2990 C   0  0  0  0  0  3  0  0  0  0  0  0
  -24.2230   -8.3170   21.4820 C   0  0  0  0  0  3  0  0  0  0  0  0
  -22.9840   -8.0930   20.8360 C   0  0  0  0  0  0  0  0  0  0  0  0
  -22.4570   -9.0880   19.9940 C   0  0  0  0  0  3  0  0  0  0  0  0
  -23.1370  -10.3020   19.8100 C   0  0  0  0  0  3  0  0  0  0  0  0
  -22.2620   -6.9290   20.9360 O   0  0  0  0  0  0  0  0  0  0  0  0
  -22.3790   -6.1020   22.0240 C   0  0  0  0  0  0  0  0  0  0  0  0
  -22.1650   -6.5670   23.3400 C   0  0  0  0  0  3  0  0  0  0  0  0
  -22.2270   -5.6670   24.4210 C   0  0  0  0  0  3  0  0  0  0  0  0
  -22.4940   -4.3040   24.1890 C   0  0  0  0  0  0  0  0  0  0  0  0
  -22.7040   -3.8400   22.8790 C   0  0  0  0  0  3  0  0  0  0  0  0
  -22.6440   -4.7370   21.7990 C   0  0  0  0  0  0  0  0  0  0  0  0
  -22.8260   -4.2820   20.5360 F   0  0  0  0  0  0  0  0  0  0  0  0
  -22.5450   -3.4370   25.2280 F   0  0  0  0  0  0  0  0  0  0  0  0
  -23.1500  -13.6010   20.7490 C   0  0  0  0  0  0  0  0  0  0  0  0
  -22.4960  -12.8650   21.6410 N   0  0  0  0  0  0  0  0  0  0  0  0
  -22.6570  -14.6270   20.2840 O   0  0  0  0  0  0  0  0  0  0  0  0
  -22.9130  -12.0370   22.0390 H   0  0  0  0  0  0  0  0  0  0  0  0
  -21.5660  -13.1360   21.9280 H   0  0  0  0  0  0  0  0  0  0  0  0
  -25.6760  -15.3560   19.8330 N   0  0  0  0  0  0  0  0  0  0  0  0
  -24.9020  -15.9820   20.0250 H   0  0  0  0  0  0  0  0  0  0  0  0
  -26.4890  -15.8310   19.4620 H   0  0  0  0  0  0  0  0  0  0  0  0
  -23.2580  -25.8410   21.2190 C   0  0  0  0  0  1  0  0  0  0  0  0
  -25.0110  -26.3750   21.3240 O   0  0  0  0  0  0  0  0  0  0  0  0
  -24.7250  -32.0610   22.7550 C   0  0  0  0  0  0  0  0  0  0  0  0
  -26.0250  -26.9620   20.4340 C   0  0  0  0  0  3  0  0  0  0  0  0
  -23.6280  -30.7160   21.1190 C   0  0  0  0  0  3  0  0  0  0  0  0
  -24.8360  -29.1260   19.5630 C   0  0  0  0  0  0  0  0  0  0  0  0
  -26.0930  -30.7840   21.0040 C   0  0  0  0  0  2  0  0  0  0  0  0
  -25.9530  -29.3750   20.3740 C   0  0  0  0  0  3  0  0  0  0  0  0
  -26.6560  -28.2200   20.7820 C   0  0  0  0  0  2  0  0  0  0  0  0
  -25.5950  -26.8580   19.1340 C   0  0  0  0  0  2  0  0  0  0  0  0
  -24.7020  -27.8990   18.8700 C   0  0  0  0  0  3  0  0  0  0  0  0
  -23.7480  -30.1620   19.6530 C   0  0  0  0  0  2  0  0  0  0  0  0
  -24.8430  -31.3090   21.6190 N   0  0  0  0  0  0  0  0  0  0  0  0
  -23.6230  -32.3100   23.2830 O   0  0  0  0  0  0  0  0  0  0  0  0
  -23.4870  -29.5790   22.0760 C   0  0  0  0  0  0  0  0  0  0  0  0
  -22.5140  -28.9450   21.7320 N   0  0  0  0  0  0  0  0  0  0  0  0
  -24.1480  -29.2550   23.0560 O   0  0  0  0  0  0  0  0  0  0  0  0
  -22.0020  -29.1970   20.9000 H   0  0  0  0  0  0  0  0  0  0  0  0
  -18.0550  -27.4230   23.0580 C   0  0  0  0  0  3  0  0  0  0  0  0
  -21.9780  -28.0290   22.6010 C   0  0  0  0  0  1  0  0  0  0  0  0
  -21.4690  -27.4730   20.3080 C   0  0  0  0  0 15  0  0  0  0  0  0
  -19.4710  -26.4520   19.6220 C   0  0  0  0  0 15  0  0  0  0  0  0
  -17.8050  -26.4080   21.3070 C   0  0  0  0  0 15  0  0  0  0  0  0
  -19.4920  -28.0040   23.9870 C   0  0  0  0  0  2  0  0  0  0  0  0
  -18.8390  -29.1720   24.6780 C   0  0  0  0  0  2  0  0  0  0  0  0
  -17.7540  -30.0230   24.2530 C   0  0  0  0  0  3  0  0  0  0  0  0
  -16.7250  -29.5410   23.4620 C   0  0  0  0  0  3  0  0  0  0  0  0
  -16.8490  -28.2190   23.0220 C   0  0  0  0  0  3  0  0  0  0  0  0
  -25.9830  -32.6230   23.4260 C   0  0  0  0  0  3  0  0  0  0  0  0
  -25.6400  -34.0010   23.7750 N   0  0  0  0  0  0  0  0  0  0  0  0
  -25.8520  -35.0410   22.9650 C   0  0  0  0  0  0  0  0  0  0  0  0
  -26.4520  -34.9370   21.8930 O   0  0  0  0  0  0  0  0  0  0  0  0
  -25.1150  -34.1420   24.6250 H   0  0  0  0  0  0  0  0  0  0  0  0
  -24.0570  -36.7710   22.6490 C   0  0  0  0  0  1  0  0  0  0  0  0
  -25.3320  -36.4130   23.4270 C   0  0  0  0  0  3  0  0  0  0  0  0
  -27.4810  -37.3280   24.1760 C   0  0  0  0  0  1  0  0  0  0  0  0
  -26.3370  -37.4880   23.2820 N   0  0  0  0  0  0  0  0  0  0  0  0
  -25.9200  -38.3980   23.4600 H   0  0  0  0  0  0  0  0  0  0  0  0
  -26.4560  -31.8140   24.6910 C   0  0  1  0  0  0  0  0  0  0  0  0
  -25.3520  -31.5460   25.7390 C   0  0  0  0  0  1  0  0  0  0  0  0
  -27.0810  -30.4580   24.2900 C   0  0  0  0  0  1  0  0  0  0  0  0
  -27.5860  -32.6030   25.3830 C   0  0  0  0  0  1  0  0  0  0  0  0
  2  5  1  0
  2  3  1  0
  3 11  1  0
  4  1  1  0
  5  8  1  0
  5  3  1  0
  6  1  1  0
  7  6  1  0
  9  8  1  0
 10  8  1  0
 11 13  1  0
 12 11  2  0
 13 14  2  0
 15 14  1  0
 16 15  1  0
 17 16  1  0
 18 17  1  0
 19 18  1  0
 20 19  2  0
 21 20  1  0
 22 21  2  0
 23 22  1  0
 24 29  1  0
 25 26  1  0
 25 24  1  0
 27 26  1  0
 27 34  1  0
 27 28  1  0
 29 23  1  0
 29 28  1  0
 30 23  2  0
 31 32  2  0
 32 51  1  0
 33 32  1  0
 33 36  1  0
 34 35  1  0
 34 31  1  0
 35 33  2  0
 36 37  1  0
 37 38  2  0
 39 42  1  0
 39 38  1  0
 40 39  2  0
 41 40  1  0
 41 36  2  0
 42 43  1  0
 43 44  1  0
 44 45  2  0
 46 45  1  0
 46 50  1  0
 47 46  2  0
 48 43  2  0
 48 47  1  0
 49 48  1  0
 51 52  1  0
 52 55  1  0
 52 54  1  0
 53 51  2  0
 56 31  1  0
 56 57  1  0
 58 56  1  0
 59 60  1  0
 61 72  2  0
 62 67  1  0
 62 60  1  0
 63 71  1  0
 63 73  1  0
 64 70  1  0
 64 66  1  0
 65 71  1  0
 66 67  1  0
 66 65  1  0
 68 62  1  0
 69 68  1  0
 69 64  2  0
 70 63  1  0
 71 61  1  0
 73 75  2  0
 74 73  1  0
 74 78  1  0
 76 74  1  0
 77 82  1  0
 82 83  1  0
 84 83  1  0
 85 84  2  0
 86 77  2  0
 86 85  1  0
 87 61  1  0
 87 88  1  0
 87 97  1  0
 88 91  1  0
 89 93  1  0
 89 88  1  0
 90 89  2  0
 93 92  1  0
 95 93  1  0
 95 96  1  0
 95 94  1  0
 97100  1  1
 97 98  1  0
 99 97  1  0
M  ISO  4  22 100  23 100  59 101  60 101
M  END
>  <TORSDO>  (77) 
F 29

>  <SCORE>  (77) 
13.558

>  <name>  (77) 
76

>  <ligand_id>  (77) 
76

>  <original_smiles>  (77) 
[H]c1c([H])c([H])c2c(c1[H])C([H])([H])C([H])([H])C([H])([H])C2([H])N([H])C(=O)C1([H])N(C(=O)C([H])(N([H])C(=O)C([H])(N([H])C([H])([H])[H])C([H])([H])[H])C(C([H])([H])[H])(C([H])([H])[H])C([H])([H])[H])C([H])([H])c2c([H])c(OC([H])([H])c3c([H])c(C(=O)C([H])([H])C([H])([H])C([H])([H])C([H])([H])C([H])([H])C([H])([H])C([H])([H])C([H])([H])C([H])([H])C([H])([H])C(=O)N4C([H])([H])C([H])([H])C([H])([H])C([H])(n5nc(-c6c([H])c([H])c(Oc7c([H])c([H])c(F)c([H])c7F)c([H])c6[H])c(C(=O)N([H])[H])c5N([H])[H])C4([H])[H])c([H])c(N([H])[H])c3F)c([H])c([H])c2C1([H])[H]

>  <smiles>  (77) 
[H]c1c([H])c([H])c2c(c1[H])C([H])([H])C([H])([H])C([H])([H])C2([H])N([H])C(=O)C1([H])N(C(=O)C([H])(N([H])C(=O)C([H])(N([H])C([H])([H])[H])C([H])([H])[H])C(C([H])([H])[H])(C([H])([H])[H])C([H])([H])[H])C([H])([H])c2c([H])c(OC([H])([H])c3c([H])c(C(=O)C([H])([H])C([H])([H])C([H])([H])C([H])([H])C([H])([H])C([H])([H])C([H])([H])C([H])([H])C([H])([H])C([H])([H])C(=O)N4C([H])([H])C([H])([H])C([H])([H])C([H])(n5nc(-c6c([H])c([H])c(Oc7c([H])c([H])c(F)c([H])c7F)c([H])c6[H])c(C(=O)N([H])[H])c5N([H])[H])C4([H])[H])c([H])c(N([H])[H])c3F)c([H])c([H])c2C1([H])[H]

$$$$
77:0:0
     RDKit          3D

 92100  0  0  1  0  0  0  0  0999 V2000
  -28.1160  -25.4880   23.6280 C   0  0  0  0  0  3  0  0  0  0  0  0
  -27.9700  -26.1030   22.3870 C   0  0  0  0  0  3  0  0  0  0  0  0
  -28.8780  -24.3290   23.7230 C   0  0  0  0  0  0  0  0  0  0  0  0
  -29.4240  -23.7560   22.5540 C   0  0  0  0  0  0  0  0  0  0  0  0
  -28.9750  -24.1440   21.2410 C   0  0  0  0  0  0  0  0  0  0  0  0
  -28.3870  -25.5190   21.1570 C   0  0  0  0  0  0  0  0  0  0  0  0
  -29.1160  -23.7230   25.1000 C   0  0  0  0  0  1  0  0  0  0  0  0
  -30.6110  -22.8230   22.7910 C   0  0  0  0  0  1  0  0  0  0  0  0
  -28.2520  -26.4300   20.0530 O   0  0  0  0  0  0  0  0  0  0  0  0
  -24.6030  -31.8890   23.1840 C   0  0  0  0  0  0  0  0  0  0  0  0
  -27.1930  -27.3750   20.0090 C   0  0  0  0  0  0  0  0  0  0  0  0
  -23.3740  -30.4820   21.5660 C   0  0  0  0  0  3  0  0  0  0  0  0
  -24.8070  -28.9740   20.0730 C   0  0  0  0  0  0  0  0  0  0  0  0
  -25.8990  -30.8530   21.2970 C   0  0  0  0  0  2  0  0  0  0  0  0
  -25.9890  -29.4810   20.6300 C   0  0  0  0  0  0  0  0  0  0  0  0
  -27.1900  -28.7010   20.5730 C   0  0  0  0  0  3  0  0  0  0  0  0
  -25.9870  -26.9390   19.4220 C   0  0  0  0  0  3  0  0  0  0  0  0
  -24.8100  -27.7110   19.4600 C   0  0  0  0  0  3  0  0  0  0  0  0
  -23.5570  -29.8250   20.1710 C   0  0  0  0  0  2  0  0  0  0  0  0
  -24.6460  -31.0970   22.0690 N   0  0  0  0  0  0  0  0  0  0  0  0
  -23.5350  -32.1340   23.7590 O   0  0  0  0  0  0  0  0  0  0  0  0
  -22.7670  -29.4450   22.5400 C   0  0  0  0  0  0  0  0  0  0  0  0
  -21.4550  -29.1790   22.4050 N   0  0  0  0  0  0  0  0  0  0  0  0
  -23.4750  -28.8820   23.3780 O   0  0  0  0  0  0  0  0  0  0  0  0
  -20.9410  -29.6890   21.7010 H   0  0  0  0  0  0  0  0  0  0  0  0
  -18.1850  -27.6880   22.8140 C   0  0  0  0  0  0  0  0  0  0  0  0
  -20.6910  -28.2070   23.1870 C   0  0  0  0  0  3  0  0  0  0  0  0
  -20.9550  -26.7660   22.6900 C   0  0  0  0  0  2  0  0  0  0  0  0
  -19.9400  -26.2950   21.6430 C   0  0  0  0  0  2  0  0  0  0  0  0
  -18.5220  -26.3320   22.2170 C   0  0  0  0  0  2  0  0  0  0  0  0
  -19.2020  -28.5750   23.2560 C   0  0  0  0  0  0  0  0  0  0  0  0
  -18.8330  -29.8360   23.7720 C   0  0  0  0  0  3  0  0  0  0  0  0
  -17.4790  -30.2130   23.8530 C   0  0  0  0  0  3  0  0  0  0  0  0
  -16.4760  -29.3270   23.4230 C   0  0  0  0  0  3  0  0  0  0  0  0
  -16.8300  -28.0680   22.9120 C   0  0  0  0  0  3  0  0  0  0  0  0
  -25.8910  -32.5440   23.7720 C   0  0  0  0  0  3  0  0  0  0  0  0
  -25.5750  -33.9470   24.0790 N   0  0  0  0  0  0  0  0  0  0  0  0
  -25.8950  -34.9910   23.3040 C   0  0  0  0  0  0  0  0  0  0  0  0
  -26.5570  -34.8750   22.2670 O   0  0  0  0  0  0  0  0  0  0  0  0
  -24.9820  -34.1070   24.8810 H   0  0  0  0  0  0  0  0  0  0  0  0
  -24.1540  -36.7670   22.9470 C   0  0  0  0  0  1  0  0  0  0  0  0
  -25.4070  -36.3830   23.7490 C   0  0  0  0  0  3  0  0  0  0  0  0
  -27.5460  -37.2900   24.5420 C   0  0  0  0  0  1  0  0  0  0  0  0
  -26.4320  -37.4410   23.6090 N   0  0  0  0  0  0  0  0  0  0  0  0
  -26.0250  -38.3620   23.7480 H   0  0  0  0  0  0  0  0  0  0  0  0
  -26.4320  -31.8050   25.0580 C   0  0  1  0  0  0  0  0  0  0  0  0
  -25.3600  -31.5860   26.1510 C   0  0  0  0  0  1  0  0  0  0  0  0
  -27.0130  -30.4230   24.6860 C   0  0  0  0  0  1  0  0  0  0  0  0
  -27.5880  -32.6200   25.6830 C   0  0  0  0  0  1  0  0  0  0  0  0
  -29.0620  -22.9970   20.0960 C   0  0  0  0  0  2  0  0  0  0  0  0
  -29.5230  -21.4310   20.4220 C   0  0  0  0  0  2  0  0  0  0  0  0
  -29.0610  -20.0950   19.6330 C   0  0  0  0  0  2  0  0  0  0  0  0
  -29.8960  -18.6800   19.5690 C   0  0  0  0  0  2  0  0  0  0  0  0
  -29.9650  -17.5090   20.6910 C   0  0  0  0  0  2  0  0  0  0  0  0
  -30.5840  -14.9260   20.1340 C   0  0  0  0  0  0  0  0  0  0  0  0
  -30.4060  -12.6360   19.1230 C   0  0  0  0  0  2  0  0  0  0  0  0
  -29.4310  -12.6890   17.9250 C   0  0  0  0  0  2  0  0  0  0  0  0
  -27.9710  -12.5090   18.3910 C   0  0  0  0  0  2  0  0  0  0  0  0
  -27.6210  -13.3950   19.6160 C   0  0  0  0  0  3  0  0  0  0  0  0
  -28.7100  -13.3080   20.7050 C   0  0  0  0  0  2  0  0  0  0  0  0
  -29.9840  -13.6860   20.0770 N   0  0  0  0  0  0  0  0  0  0  0  0
  -31.7670  -15.0580   19.8140 O   0  0  0  0  0  0  0  0  0  0  0  0
  -29.7570  -16.0170   20.3690 N   0  0  0  0  0  0  0  0  0  0  0  0
  -28.8030  -15.7220   20.5190 H   0  0  0  0  0  0  0  0  0  0  0  0
  -25.2520  -13.9780   20.4130 C   0  0  0  0  0  0  0  0  0  0  0  0
  -24.2040  -13.2020   20.8260 C   0  0  0  0  0  0  0  0  0  0  0  0
  -24.6750  -11.8520   20.7960 C   0  0  0  0  0  0  0  0  0  0  0  0
  -26.2940  -13.1020   20.1490 N   0  0  0  0  0  0  0  0  0  0  0  0
  -25.9550  -11.8190   20.4430 N   0  0  0  0  0  0  0  0  0  0  0  0
  -23.9630  -10.5880   21.0210 C   0  0  0  0  0  0  0  0  0  0  0  0
  -24.4090   -9.6500   21.9750 C   0  0  0  0  0  3  0  0  0  0  0  0
  -23.6960   -8.4510   22.1860 C   0  0  0  0  0  3  0  0  0  0  0  0
  -22.5210   -8.1820   21.4430 C   0  0  0  0  0  0  0  0  0  0  0  0
  -22.0940   -9.1120   20.4770 C   0  0  0  0  0  3  0  0  0  0  0  0
  -22.8090  -10.3020   20.2650 C   0  0  0  0  0  3  0  0  0  0  0  0
  -21.7760   -7.0340   21.5630 O   0  0  0  0  0  0  0  0  0  0  0  0
  -21.7260   -6.3280   22.7390 C   0  0  0  0  0  0  0  0  0  0  0  0
  -21.2650   -6.9120   23.9400 C   0  0  0  0  0  3  0  0  0  0  0  0
  -21.1650   -6.1310   25.1090 C   0  0  0  0  0  3  0  0  0  0  0  0
  -21.5120   -4.7680   25.0770 C   0  0  0  0  0  0  0  0  0  0  0  0
  -21.9630   -4.1830   23.8810 C   0  0  0  0  0  3  0  0  0  0  0  0
  -22.0670   -4.9610   22.7150 C   0  0  0  0  0  0  0  0  0  0  0  0
  -22.4840   -4.3880   21.5600 F   0  0  0  0  0  0  0  0  0  0  0  0
  -21.4070   -4.0140   26.1980 F   0  0  0  0  0  0  0  0  0  0  0  0
  -22.8100  -13.6740   21.1280 C   0  0  0  0  0  0  0  0  0  0  0  0
  -22.1050  -12.9830   22.0160 N   0  0  0  0  0  0  0  0  0  0  0  0
  -22.3530  -14.6900   20.6040 O   0  0  0  0  0  0  0  0  0  0  0  0
  -22.4870  -12.1670   22.4680 H   0  0  0  0  0  0  0  0  0  0  0  0
  -21.1680  -13.2780   22.2490 H   0  0  0  0  0  0  0  0  0  0  0  0
  -25.3940  -15.3490   20.2190 N   0  0  0  0  0  0  0  0  0  0  0  0
  -24.6130  -15.9810   20.3650 H   0  0  0  0  0  0  0  0  0  0  0  0
  -26.1930  -15.8000   19.7920 H   0  0  0  0  0  0  0  0  0  0  0  0
  1  3  1  0
  2  1  2  0
  3  7  1  0
  4  8  1  0
  4  3  2  0
  5  4  1  0
  6  5  2  0
  6  2  1  0
  9  6  1  0
 10 21  2  0
 11  9  1  0
 11 16  1  0
 12 20  1  0
 12 22  1  0
 13 19  1  0
 13 15  1  0
 14 20  1  0
 15 14  1  0
 16 15  2  0
 17 18  1  0
 17 11  2  0
 18 13  2  0
 19 12  1  0
 20 10  1  0
 22 24  2  0
 23 22  1  0
 25 23  1  0
 26 35  2  0
 26 31  1  0
 27 23  1  0
 27 31  1  0
 28 27  1  0
 29 30  1  0
 29 28  1  0
 30 26  1  0
 31 32  2  0
 32 33  1  0
 34 33  2  0
 35 34  1  0
 36 10  1  0
 36 37  1  0
 36 46  1  0
 37 40  1  0
 38 42  1  0
 38 37  1  0
 39 38  2  0
 42 41  1  0
 44 45  1  0
 44 42  1  0
 44 43  1  0
 46 49  1  1
 46 47  1  0
 48 46  1  0
 50 51  1  0
 50  5  1  0
 52 51  1  0
 53 52  1  0
 53 54  1  0
 55 63  1  0
 56 61  1  0
 57 58  1  0
 57 56  1  0
 59 58  1  0
 59 68  1  0
 59 60  1  0
 61 55  1  0
 61 60  1  0
 62 55  2  0
 63 64  1  0
 63 54  1  0
 65 66  2  0
 66 85  1  0
 67 66  1  0
 67 70  1  0
 68 65  1  0
 68 69  1  0
 69 67  2  0
 70 71  1  0
 71 72  2  0
 73 76  1  0
 73 72  1  0
 74 73  2  0
 75 74  1  0
 75 70  2  0
 76 77  1  0
 77 78  1  0
 78 79  2  0
 80 79  1  0
 80 84  1  0
 81 80  2  0
 82 77  2  0
 82 81  1  0
 83 82  1  0
 85 86  1  0
 86 89  1  0
 86 88  1  0
 87 85  2  0
 90 91  1  0
 90 65  1  0
 92 90  1  0
M  ISO  4   6 101   9 101  55 100  63 100
M  END
>  <TORSDO>  (78) 
F 21

>  <SCORE>  (78) 
-11.236

>  <name>  (78) 
77

>  <ligand_id>  (78) 
77

>  <original_smiles>  (78) 
[H]c1c([H])c([H])c2c(c1[H])C([H])([H])C([H])([H])C([H])([H])C2([H])N([H])C(=O)C1([H])N(C(=O)C([H])(N([H])C(=O)C([H])(N([H])C([H])([H])[H])C([H])([H])[H])C(C([H])([H])[H])(C([H])([H])[H])C([H])([H])[H])C([H])([H])c2c([H])c(Oc3c([H])c([H])c(C([H])([H])[H])c(C([H])([H])[H])c3C([H])([H])C([H])([H])C([H])([H])C([H])([H])C([H])([H])N([H])C(=O)N3C([H])([H])C([H])([H])C([H])([H])C([H])(n4nc(-c5c([H])c([H])c(Oc6c([H])c([H])c(F)c([H])c6F)c([H])c5[H])c(C(=O)N([H])[H])c4N([H])[H])C3([H])[H])c([H])c([H])c2C1([H])[H]

>  <smiles>  (78) 
[H]c1c([H])c([H])c2c(c1[H])C([H])([H])C([H])([H])C([H])([H])C2([H])N([H])C(=O)C1([H])N(C(=O)C([H])(N([H])C(=O)C([H])(N([H])C([H])([H])[H])C([H])([H])[H])C(C([H])([H])[H])(C([H])([H])[H])C([H])([H])[H])C([H])([H])c2c([H])c(Oc3c([H])c([H])c(C([H])([H])[H])c(C([H])([H])[H])c3C([H])([H])C([H])([H])C([H])([H])C([H])([H])C([H])([H])N([H])C(=O)N3C([H])([H])C([H])([H])C([H])([H])C([H])(n4nc(-c5c([H])c([H])c(Oc6c([H])c([H])c(F)c([H])c6F)c([H])c5[H])c(C(=O)N([H])[H])c4N([H])[H])C3([H])[H])c([H])c([H])c2C1([H])[H]

$$$$
78:0:0
     RDKit          3D

 94102  0  0  1  0  0  0  0  0999 V2000
  -27.4580  -22.3130   21.0190 C   0  0  0  0  0  3  0  0  0  0  0  0
  -26.5260  -24.6810   20.7430 C   0  0  0  0  0  0  0  0  0  0  0  0
  -26.8640  -24.5740   19.1800 C   0  0  0  0  0  0  0  0  0  0  0  0
  -26.8220  -23.4870   21.5260 C   0  0  0  0  0  0  0  0  0  0  0  0
  -27.8300  -21.9940   19.6870 C   0  0  0  0  0  0  0  0  0  0  0  0
  -27.4480  -23.1950   18.8120 C   0  0  0  0  0  0  0  0  0  0  0  0
  -25.7750  -25.9690   21.7700 C   0  0  0  0  0  2  0  0  0  0  0  0
  -24.9360  -27.5390   21.2050 C   0  0  0  0  0  1  0  0  0  0  0  0
  -26.5120  -25.8670   17.7930 C   0  0  0  0  0  2  0  0  0  0  0  0
  -27.0820  -27.2130   17.7650 C   0  0  0  0  0  3  0  0  0  0  0  0
  -25.5950  -27.6560   18.0050 C   0  0  0  0  0  3  0  0  0  0  0  0
  -26.4080  -23.3020   23.0320 C   0  0  0  0  0  1  0  0  0  0  0  0
  -24.8710  -28.3720   16.8370 C   0  0  0  0  0  1  0  0  0  0  0  0
  -27.5560  -22.9880   17.4780 F   0  0  0  0  0  0  0  0  0  0  0  0
  -27.6670  -27.0370   19.0110 O   0  0  0  0  0  0  0  0  0  0  0  0
  -24.6600  -31.8960   23.4080 C   0  0  0  0  0  0  0  0  0  0  0  0
  -26.5910  -27.2640   19.7760 C   0  0  0  0  0  2  0  0  0  0  0  0
  -23.1470  -30.9380   21.7120 C   0  0  0  0  0  3  0  0  0  0  0  0
  -24.1670  -29.4790   19.7980 C   0  0  0  0  0  0  0  0  0  0  0  0
  -25.6390  -31.1200   21.1720 C   0  0  0  0  0  2  0  0  0  0  0  0
  -25.5770  -29.8300   20.3070 C   0  0  0  0  0  0  0  0  0  0  0  0
  -26.8010  -28.8310   20.2930 C   0  0  0  0  0  2  0  0  0  0  0  0
  -24.6850  -26.8210   19.2100 C   0  0  0  0  0  2  0  0  0  0  0  0
  -23.7120  -28.1000   19.2190 C   0  0  0  0  0  2  0  0  0  0  0  0
  -23.1130  -30.5120   20.2030 C   0  0  0  0  0  2  0  0  0  0  0  0
  -24.5200  -31.3200   22.1610 N   0  0  0  0  0  0  0  0  0  0  0  0
  -23.6850  -32.1250   24.1390 O   0  0  0  0  0  0  0  0  0  0  0  0
  -22.4590  -29.8680   22.6080 C   0  0  0  0  0  0  0  0  0  0  0  0
  -21.1340  -29.7110   22.4850 N   0  0  0  0  0  0  0  0  0  0  0  0
  -23.1200  -29.2130   23.4080 O   0  0  0  0  0  0  0  0  0  0  0  0
  -20.6550  -30.3090   21.8290 H   0  0  0  0  0  0  0  0  0  0  0  0
  -17.7510  -28.4650   22.9450 C   0  0  0  0  0  0  0  0  0  0  0  0
  -20.3160  -28.6890   23.1560 C   0  0  0  0  0  3  0  0  0  0  0  0
  -20.3840  -27.3280   22.4200 C   0  0  0  0  0  2  0  0  0  0  0  0
  -19.2510  -27.1220   21.4090 C   0  0  0  0  0  2  0  0  0  0  0  0
  -17.8850  -27.2180   22.0930 C   0  0  0  0  0  2  0  0  0  0  0  0
  -18.8870  -29.1710   23.4240 C   0  0  0  0  0  0  0  0  0  0  0  0
  -18.6940  -30.3410   24.1910 C   0  0  0  0  0  3  0  0  0  0  0  0
  -17.3980  -30.8090   24.4740 C   0  0  0  0  0  3  0  0  0  0  0  0
  -16.2770  -30.1040   24.0000 C   0  0  0  0  0  3  0  0  0  0  0  0
  -16.4530  -28.9280   23.2470 C   0  0  0  0  0  3  0  0  0  0  0  0
  -26.0580  -32.2900   23.9820 C   0  0  0  0  0  3  0  0  0  0  0  0
  -26.5570  -31.3270   25.1340 C   0  0  1  0  0  0  0  0  0  0  0  0
  -25.5350  -31.1490   26.2800 C   0  0  0  0  0  1  0  0  0  0  0  0
  -26.8580  -29.9290   24.5560 C   0  0  0  0  0  1  0  0  0  0  0  0
  -27.8800  -31.8690   25.7290 C   0  0  0  0  0  1  0  0  0  0  0  0
  -25.9750  -33.6740   24.4790 N   0  0  0  0  0  0  0  0  0  0  0  0
  -26.3480  -34.7610   23.7830 C   0  0  0  0  0  0  0  0  0  0  0  0
  -26.8670  -34.6990   22.6660 O   0  0  0  0  0  0  0  0  0  0  0  0
  -25.5200  -33.7980   25.3710 H   0  0  0  0  0  0  0  0  0  0  0  0
  -24.8410  -36.7770   23.8610 C   0  0  0  0  0  1  0  0  0  0  0  0
  -26.1260  -36.1470   24.4230 C   0  0  0  0  0  3  0  0  0  0  0  0
  -28.4530  -36.6970   24.9940 C   0  0  0  0  0  1  0  0  0  0  0  0
  -27.2660  -37.0780   24.2260 N   0  0  0  0  0  0  0  0  0  0  0  0
  -27.0060  -38.0200   24.5100 H   0  0  0  0  0  0  0  0  0  0  0  0
  -28.2050  -20.2790   19.4700 C   0  0  0  0  0  2  0  0  0  0  0  0
  -29.5410  -19.0760   19.6120 C   0  0  0  0  0  3  0  0  0  0  0  0
  -29.4670  -17.2930   19.9300 C   0  0  0  0  0  3  0  0  0  0  0  0
  -30.5080  -15.8840   19.7660 C   0  0  0  0  0  0  0  0  0  0  0  0
  -30.6570  -13.4210   18.9610 C   0  0  0  0  0  2  0  0  0  0  0  0
  -29.6700  -13.1260   17.7970 C   0  0  0  0  0  2  0  0  0  0  0  0
  -28.2800  -12.7580   18.3510 C   0  0  0  0  0  2  0  0  0  0  0  0
  -27.8250  -13.7540   19.4490 C   0  0  0  0  0  3  0  0  0  0  0  0
  -28.9210  -13.9790   20.5080 C   0  0  0  0  0  2  0  0  0  0  0  0
  -30.0950  -14.5280   19.8160 N   0  0  0  0  0  0  0  0  0  0  0  0
  -31.7060  -16.0000   19.4770 O   0  0  0  0  0  0  0  0  0  0  0  0
  -25.5170  -14.2430   20.4230 C   0  0  0  0  0  0  0  0  0  0  0  0
  -24.4950  -13.4260   20.8280 C   0  0  0  0  0  0  0  0  0  0  0  0
  -24.9800  -12.0900   20.6860 C   0  0  0  0  0  0  0  0  0  0  0  0
  -26.5470  -13.3990   20.0470 N   0  0  0  0  0  0  0  0  0  0  0  0
  -26.2400  -12.0950   20.2690 N   0  0  0  0  0  0  0  0  0  0  0  0
  -24.2930  -10.8010   20.8570 C   0  0  0  0  0  0  0  0  0  0  0  0
  -24.7410   -9.8450   21.7940 C   0  0  0  0  0  3  0  0  0  0  0  0
  -24.0540   -8.6220   21.9570 C   0  0  0  0  0  3  0  0  0  0  0  0
  -22.9090   -8.3460   21.1730 C   0  0  0  0  0  0  0  0  0  0  0  0
  -22.4810   -9.2900   20.2240 C   0  0  0  0  0  3  0  0  0  0  0  0
  -23.1680  -10.5050   20.0630 C   0  0  0  0  0  3  0  0  0  0  0  0
  -22.1940   -7.1740   21.2400 O   0  0  0  0  0  0  0  0  0  0  0  0
  -21.9860   -6.5220   22.4290 C   0  0  0  0  0  0  0  0  0  0  0  0
  -21.2800   -7.1210   23.4970 C   0  0  0  0  0  3  0  0  0  0  0  0
  -21.0340   -6.3910   24.6780 C   0  0  0  0  0  3  0  0  0  0  0  0
  -21.4790   -5.0600   24.7870 C   0  0  0  0  0  0  0  0  0  0  0  0
  -22.1780   -4.4600   23.7260 C   0  0  0  0  0  3  0  0  0  0  0  0
  -22.4290   -5.1880   22.5500 C   0  0  0  0  0  0  0  0  0  0  0  0
  -23.0810   -4.5980   21.5200 F   0  0  0  0  0  0  0  0  0  0  0  0
  -21.2380   -4.3560   25.9180 F   0  0  0  0  0  0  0  0  0  0  0  0
  -23.1160  -13.8580   21.2320 C   0  0  0  0  0  0  0  0  0  0  0  0
  -22.4710  -13.1100   22.1220 N   0  0  0  0  0  0  0  0  0  0  0  0
  -22.6120  -14.8860   20.7830 O   0  0  0  0  0  0  0  0  0  0  0  0
  -22.8760  -12.2590   22.4860 H   0  0  0  0  0  0  0  0  0  0  0  0
  -21.5490  -13.3830   22.4340 H   0  0  0  0  0  0  0  0  0  0  0  0
  -25.6660  -15.6240   20.3160 N   0  0  0  0  0  0  0  0  0  0  0  0
  -24.9360  -16.2860   20.5540 H   0  0  0  0  0  0  0  0  0  0  0  0
  -26.5100  -16.0780   19.9930 H   0  0  0  0  0  0  0  0  0  0  0  0
  1  4  1  0
  2  4  2  0
  2  7  1  0
  3  2  1  0
  4 12  1  0
  5  1  2  0
  6  3  2  0
  6  5  1  0
  8  7  1  0
  9  3  1  0
 10  9  1  0
 10 11  1  0
 10 15  1  0
 11 13  1  0
 11 23  1  0
 14  6  1  0
 15 17  1  0
 16 27  2  0
 17 22  1  0
 18 26  1  0
 18 28  1  0
 19 25  1  0
 19 21  2  0
 20 26  1  0
 21 20  1  0
 22 21  1  0
 23 24  1  0
 24 19  1  0
 25 18  1  0
 26 16  1  0
 28 30  2  0
 29 28  1  0
 31 29  1  0
 32 41  2  0
 32 37  1  0
 33 29  1  0
 33 37  1  0
 34 33  1  0
 35 36  1  0
 35 34  1  0
 36 32  1  0
 37 38  2  0
 38 39  1  0
 40 39  2  0
 41 40  1  0
 42 16  1  0
 42 47  1  0
 42 43  1  0
 43 46  1  1
 43 44  1  0
 45 43  1  0
 47 50  1  0
 48 52  1  0
 48 47  1  0
 49 48  2  0
 52 51  1  0
 54 52  1  0
 54 55  1  0
 54 53  1  0
 56 57  1  0
 56  5  1  0
 57 58  2  0
 59 65  1  0
 59 58  1  0
 60 65  1  0
 61 62  1  0
 61 60  1  0
 63 62  1  0
 63 70  1  0
 63 64  1  0
 65 64  1  0
 66 59  2  0
 67 68  2  0
 68 87  1  0
 69 68  1  0
 69 72  1  0
 70 71  1  0
 70 67  1  0
 71 69  2  0
 72 73  1  0
 73 74  2  0
 75 78  1  0
 75 74  1  0
 76 75  2  0
 77 76  1  0
 77 72  2  0
 78 79  1  0
 79 84  2  0
 79 80  1  0
 80 81  2  0
 81 82  1  0
 82 86  1  0
 83 82  2  0
 84 83  1  0
 85 84  1  0
 87 88  1  0
 88 91  1  0
 88 90  1  0
 89 87  2  0
 92 67  1  0
 92 93  1  0
 94 92  1  0
M  ISO  4  10 101  15 101  58 100  59 100
M  END
>  <TORSDO>  (79) 
F 19

>  <SCORE>  (79) 
-12.167

>  <name>  (79) 
78

>  <ligand_id>  (79) 
78

>  <original_smiles>  (79) 
[H]c1c([H])c([H])c2c(c1[H])C([H])([H])C([H])([H])C([H])([H])C2([H])N([H])C(=O)C1([H])N(C(=O)C([H])(N([H])C(=O)C([H])(N([H])C([H])([H])[H])C([H])([H])[H])C(C([H])([H])[H])(C([H])([H])[H])C([H])([H])[H])C([H])([H])c2c([H])c(OC3([H])C4([H])c5c(F)c(C([H])([H])C([H])([H])C([H])([H])C(=O)N6C([H])([H])C([H])([H])C([H])([H])C([H])(n7nc(-c8c([H])c([H])c(Oc9c([H])c([H])c(F)c([H])c9F)c([H])c8[H])c(C(=O)N([H])[H])c7N([H])[H])C6([H])[H])c([H])c(C([H])([H])[H])c5C([H])([H])C([H])([H])C34C([H])([H])[H])c([H])c([H])c2C1([H])[H]

>  <smiles>  (79) 
[H]c1c([H])c([H])c2c(c1[H])C([H])([H])C([H])([H])C([H])([H])C2([H])N([H])C(=O)C1([H])N(C(=O)C([H])(N([H])C(=O)C([H])(N([H])C([H])([H])[H])C([H])([H])[H])C(C([H])([H])[H])(C([H])([H])[H])C([H])([H])[H])C([H])([H])c2c([H])c(OC3([H])C4([H])c5c(F)c(C([H])([H])C([H])([H])C([H])([H])C(=O)N6C([H])([H])C([H])([H])C([H])([H])C([H])(n7nc(-c8c([H])c([H])c(Oc9c([H])c([H])c(F)c([H])c9F)c([H])c8[H])c(C(=O)N([H])[H])c7N([H])[H])C6([H])[H])c([H])c(C([H])([H])[H])c5C([H])([H])C([H])([H])C34C([H])([H])[H])c([H])c([H])c2C1([H])[H]

$$$$
79:0:0
     RDKit          3D

 96106  0  0  1  0  0  0  0  0999 V2000
  -30.4210  -24.2690   21.0210 C   0  0  0  0  0  0  0  0  0  0  0  0
  -31.1530  -24.7540   22.0480 C   0  0  0  0  0  2  0  0  0  0  0  0
  -30.9390  -24.2990   19.5620 C   0  0  0  0  0  2  0  0  0  0  0  0
  -30.2040  -23.2720   18.6280 C   0  0  0  0  0  2  0  0  0  0  0  0
  -28.7770  -19.6400   21.4000 C   0  0  0  0  0  2  0  0  0  0  0  0
  -29.3260  -20.9920   21.9620 C   0  0  0  0  0  2  0  0  0  0  0  0
  -28.9930  -23.7050   21.1740 C   0  0  0  0  0  3  0  0  0  0  0  0
  -28.6910  -23.0350   19.0010 C   0  0  0  0  0  3  0  0  0  0  0  0
  -28.4410  -21.5020   19.7960 C   0  0  0  0  0  3  0  0  0  0  0  0
  -28.1850  -24.4040   19.9470 C   0  0  0  0  0  3  0  0  0  0  0  0
  -28.6600  -19.6570   19.8320 C   0  0  2  0  0  0  0  0  0  0  0  0
  -28.5440  -22.1240   21.2270 C   0  0  1  0  0  0  0  0  0  0  0  0
  -27.2790  -19.0150   19.4590 C   0  0  0  0  0  1  0  0  0  0  0  0
  -30.5350  -15.6760   19.4190 C   0  0  0  0  0  0  0  0  0  0  0  0
  -30.6300  -13.1620   18.7210 C   0  0  0  0  0  2  0  0  0  0  0  0
  -29.6050  -12.7630   17.6270 C   0  0  0  0  0  2  0  0  0  0  0  0
  -28.2520  -12.3950   18.2600 C   0  0  0  0  0  2  0  0  0  0  0  0
  -27.8320  -13.4310   19.3270 C   0  0  0  0  0  3  0  0  0  0  0  0
  -28.9740  -13.7500   20.3170 C   0  0  0  0  0  2  0  0  0  0  0  0
  -30.0810  -14.3170   19.5280 N   0  0  0  0  0  0  0  0  0  0  0  0
  -31.7080  -15.7350   19.0160 O   0  0  0  0  0  0  0  0  0  0  0  0
  -29.7670  -18.3650   19.3330 C   0  0  0  0  0  0  0  0  0  0  0  0
  -29.6920  -16.8910   19.6060 N   0  0  0  0  0  0  0  0  0  0  0  0
  -30.7200  -18.7690   18.6690 O   0  0  0  0  0  0  0  0  0  0  0  0
  -28.8100  -16.6540   20.0200 H   0  0  0  0  0  0  0  0  0  0  0  0
  -25.6210  -13.9200   20.4900 C   0  0  0  0  0  0  0  0  0  0  0  0
  -24.6080  -13.1110   20.9330 C   0  0  0  0  0  0  0  0  0  0  0  0
  -25.0430  -11.7690   20.7070 C   0  0  0  0  0  0  0  0  0  0  0  0
  -26.5960  -13.0650   20.0010 N   0  0  0  0  0  0  0  0  0  0  0  0
  -26.2740  -11.7600   20.1970 N   0  0  0  0  0  0  0  0  0  0  0  0
  -24.3280  -10.4980   20.8890 C   0  0  0  0  0  0  0  0  0  0  0  0
  -24.7910   -9.5130   21.7900 C   0  0  0  0  0  3  0  0  0  0  0  0
  -24.0840   -8.3030   21.9530 C   0  0  0  0  0  3  0  0  0  0  0  0
  -22.9020   -8.0710   21.2090 C   0  0  0  0  0  0  0  0  0  0  0  0
  -22.4580   -9.0400   20.2930 C   0  0  0  0  0  3  0  0  0  0  0  0
  -23.1660  -10.2420   20.1310 C   0  0  0  0  0  3  0  0  0  0  0  0
  -22.1590   -6.9190   21.2850 O   0  0  0  0  0  0  0  0  0  0  0  0
  -21.9610   -6.2690   22.4750 C   0  0  0  0  0  0  0  0  0  0  0  0
  -21.3360   -6.8970   23.5730 C   0  0  0  0  0  3  0  0  0  0  0  0
  -21.0890   -6.1680   24.7510 C   0  0  0  0  0  3  0  0  0  0  0  0
  -21.4580   -4.8110   24.8330 C   0  0  0  0  0  0  0  0  0  0  0  0
  -22.0750   -4.1800   23.7380 C   0  0  0  0  0  3  0  0  0  0  0  0
  -22.3180   -4.9080   22.5590 C   0  0  0  0  0  0  0  0  0  0  0  0
  -22.8940   -4.2940   21.5000 F   0  0  0  0  0  0  0  0  0  0  0  0
  -21.2110   -4.1070   25.9620 F   0  0  0  0  0  0  0  0  0  0  0  0
  -23.2740  -13.5690   21.4470 C   0  0  0  0  0  0  0  0  0  0  0  0
  -22.6780  -12.8200   22.3730 N   0  0  0  0  0  0  0  0  0  0  0  0
  -22.7700  -14.6260   21.0750 O   0  0  0  0  0  0  0  0  0  0  0  0
  -23.0990  -11.9750   22.7290 H   0  0  0  0  0  0  0  0  0  0  0  0
  -21.7830  -13.1060   22.7390 H   0  0  0  0  0  0  0  0  0  0  0  0
  -25.7730  -15.3030   20.4330 N   0  0  0  0  0  0  0  0  0  0  0  0
  -25.0490  -15.9380   20.7560 H   0  0  0  0  0  0  0  0  0  0  0  0
  -26.5770  -15.7640   20.0210 H   0  0  0  0  0  0  0  0  0  0  0  0
  -27.2620  -22.1360   21.8500 O   0  0  0  0  0  0  0  0  0  0  0  0
  -27.3640  -22.4930   22.7270 H   0  0  0  0  0  0  0  0  0  0  0  0
  -28.2550  -26.0890   19.7990 O   0  0  0  0  0  0  0  0  0  0  0  0
  -24.7770  -31.8360   23.3960 C   0  0  0  0  0  0  0  0  0  0  0  0
  -27.2200  -27.1850   19.9050 C   0  0  0  0  0  0  0  0  0  0  0  0
  -23.5430  -30.6410   21.6310 C   0  0  0  0  0  3  0  0  0  0  0  0
  -24.9450  -29.1330   20.0580 C   0  0  0  0  0  0  0  0  0  0  0  0
  -26.1110  -30.7890   21.4860 C   0  0  0  0  0  2  0  0  0  0  0  0
  -26.1440  -29.4400   20.7060 C   0  0  0  0  0  0  0  0  0  0  0  0
  -27.2700  -28.4960   20.6010 C   0  0  0  0  0  3  0  0  0  0  0  0
  -25.9770  -27.0420   19.2280 C   0  0  0  0  0  3  0  0  0  0  0  0
  -24.8890  -27.9540   19.2940 C   0  0  0  0  0  3  0  0  0  0  0  0
  -23.7540  -30.0870   20.1940 C   0  0  0  0  0  2  0  0  0  0  0  0
  -24.8330  -31.1090   22.2290 N   0  0  0  0  0  0  0  0  0  0  0  0
  -23.6930  -32.0930   23.9490 O   0  0  0  0  0  0  0  0  0  0  0  0
  -22.8270  -29.5690   22.5010 C   0  0  0  0  0  0  0  0  0  0  0  0
  -21.5000  -29.4220   22.3390 N   0  0  0  0  0  0  0  0  0  0  0  0
  -23.4740  -28.8770   23.2910 O   0  0  0  0  0  0  0  0  0  0  0  0
  -21.0270  -30.0360   21.6890 H   0  0  0  0  0  0  0  0  0  0  0  0
  -18.0970  -28.2130   22.7300 C   0  0  0  0  0  0  0  0  0  0  0  0
  -20.6620  -28.4230   23.0130 C   0  0  0  0  0  3  0  0  0  0  0  0
  -20.7450  -27.0540   22.2970 C   0  0  0  0  0  2  0  0  0  0  0  0
  -19.6340  -26.8480   21.2590 C   0  0  0  0  0  2  0  0  0  0  0  0
  -18.2570  -26.9410   21.9200 C   0  0  0  0  0  2  0  0  0  0  0  0
  -19.2250  -28.9190   23.2350 C   0  0  0  0  0  0  0  0  0  0  0  0
  -19.0180  -30.1110   23.9620 C   0  0  0  0  0  3  0  0  0  0  0  0
  -17.7190  -30.5980   24.1890 C   0  0  0  0  0  3  0  0  0  0  0  0
  -16.6070  -29.8890   23.7010 C   0  0  0  0  0  3  0  0  0  0  0  0
  -16.7990  -28.6990   22.9770 C   0  0  0  0  0  3  0  0  0  0  0  0
  -26.0630  -32.3880   24.0820 C   0  0  0  0  0  3  0  0  0  0  0  0
  -25.7930  -33.7750   24.5110 N   0  0  0  0  0  0  0  0  0  0  0  0
  -26.1280  -34.8700   23.8180 C   0  0  0  0  0  0  0  0  0  0  0  0
  -26.7580  -34.8190   22.7580 O   0  0  0  0  0  0  0  0  0  0  0  0
  -25.2370  -33.8830   25.3450 H   0  0  0  0  0  0  0  0  0  0  0  0
  -24.4310  -36.7210   23.6720 C   0  0  0  0  0  1  0  0  0  0  0  0
  -25.7030  -36.2380   24.3870 C   0  0  0  0  0  3  0  0  0  0  0  0
  -27.8990  -37.0340   25.1520 C   0  0  0  0  0  1  0  0  0  0  0  0
  -26.7520  -37.2760   24.2780 N   0  0  0  0  0  0  0  0  0  0  0  0
  -26.3760  -38.1940   24.4970 H   0  0  0  0  0  0  0  0  0  0  0  0
  -26.5190  -31.5210   25.3240 C   0  0  1  0  0  0  0  0  0  0  0  0
  -25.3940  -31.2620   26.3540 C   0  0  0  0  0  1  0  0  0  0  0  0
  -27.0580  -30.1480   24.8640 C   0  0  0  0  0  1  0  0  0  0  0  0
  -27.6830  -32.2280   26.0590 C   0  0  0  0  0  1  0  0  0  0  0  0
  1  2  2  0
  3  1  1  0
  4  3  1  0
  5  6  1  0
  7  1  1  0
  7 12  1  0
  8  4  1  0
  8  9  1  0
  8 10  1  0
  9 11  1  0
  9 12  1  0
 10  7  1  0
 11  5  1  0
 12 54  1  1
 12  6  1  0
 11 13  1  1
 14 20  1  0
 14 23  1  0
 15 20  1  0
 16 17  1  0
 16 15  1  0
 17 18  1  0
 18 29  1  0
 18 19  1  0
 20 19  1  0
 21 14  2  0
 22 23  1  0
 22 11  1  0
 23 25  1  0
 24 22  2  0
 26 27  2  0
 27 46  1  0
 28 31  1  0
 28 27  1  0
 29 30  1  0
 29 26  1  0
 30 28  2  0
 31 32  1  0
 32 33  2  0
 34 37  1  0
 34 33  1  0
 35 34  2  0
 36 35  1  0
 36 31  2  0
 37 38  1  0
 38 43  2  0
 38 39  1  0
 39 40  2  0
 40 41  1  0
 41 45  1  0
 42 41  2  0
 43 42  1  0
 44 43  1  0
 46 47  1  0
 47 49  1  0
 47 50  1  0
 48 46  2  0
 51 26  1  0
 51 52  1  0
 53 51  1  0
 54 55  1  0
 56 58  1  0
 56 10  1  0
 57 68  2  0
 57 83  1  0
 58 63  1  0
 59 67  1  0
 59 69  1  0
 60 66  1  0
 60 62  1  0
 61 67  1  0
 62 61  1  0
 63 62  2  0
 64 65  1  0
 64 58  2  0
 65 60  2  0
 66 59  1  0
 67 57  1  0
 69 71  2  0
 70 69  1  0
 70 74  1  0
 72 70  1  0
 73 82  2  0
 73 78  1  0
 74 78  1  0
 75 74  1  0
 76 77  1  0
 76 75  1  0
 77 73  1  0
 78 79  2  0
 79 80  1  0
 81 80  2  0
 82 81  1  0
 83 84  1  0
 83 93  1  0
 84 87  1  0
 85 89  1  0
 85 84  1  0
 86 85  2  0
 88 89  1  0
 91 89  1  0
 91 92  1  0
 91 90  1  0
 93 96  1  1
 93 94  1  0
 95 93  1  0
M  ISO  4  10 101  14 100  23 100  56 101
M  END
>  <TORSDO>  (80) 
F 17

>  <SCORE>  (80) 
-13.751

>  <name>  (80) 
79

>  <ligand_id>  (80) 
79

>  <original_smiles>  (80) 
[H]OC12C([H])([H])C([H])([H])C(C(=O)N([H])C(=O)N3C([H])([H])C([H])([H])C([H])([H])C([H])(n4nc(-c5c([H])c([H])c(Oc6c([H])c([H])c(F)c([H])c6F)c([H])c5[H])c(C(=O)N([H])[H])c4N([H])[H])C3([H])[H])(C([H])([H])[H])C1([H])C1([H])C([H])([H])C([H])([H])C(=C([H])[H])C2([H])C1([H])Oc1c([H])c([H])c2c(c1[H])C([H])([H])N(C(=O)C([H])(N([H])C(=O)C([H])(N([H])C([H])([H])[H])C([H])([H])[H])C(C([H])([H])[H])(C([H])([H])[H])C([H])([H])[H])C([H])(C(=O)N([H])C1([H])c3c([H])c([H])c([H])c([H])c3C([H])([H])C([H])([H])C1([H])[H])C2([H])[H]

>  <smiles>  (80) 
[H]OC12C([H])([H])C([H])([H])C(C(=O)N([H])C(=O)N3C([H])([H])C([H])([H])C([H])([H])C([H])(n4nc(-c5c([H])c([H])c(Oc6c([H])c([H])c(F)c([H])c6F)c([H])c5[H])c(C(=O)N([H])[H])c4N([H])[H])C3([H])[H])(C([H])([H])[H])C1([H])C1([H])C([H])([H])C([H])([H])C(=C([H])[H])C2([H])C1([H])Oc1c([H])c([H])c2c(c1[H])C([H])([H])N(C(=O)C([H])(N([H])C(=O)C([H])(N([H])C([H])([H])[H])C([H])([H])[H])C(C([H])([H])[H])(C([H])([H])[H])C([H])([H])[H])C([H])(C(=O)N([H])C1([H])c3c([H])c([H])c([H])c([H])c3C([H])([H])C([H])([H])C1([H])[H])C2([H])[H]

$$$$
80:0:0
     RDKit          3D

 98104  0  0  1  0  0  0  0  0999 V2000
  -29.1010   -9.9770   20.0530 C   0  0  0  0  0  3  0  0  0  0  0  0
  -27.4670  -11.0050   18.1050 C   0  0  0  0  0  3  0  0  0  0  0  0
  -29.1470  -11.3620   19.7590 C   0  0  0  0  0  0  0  0  0  0  0  0
  -28.2270  -12.0380   18.8850 C   0  0  0  0  0  0  0  0  0  0  0  0
  -27.5410   -9.5360   18.2740 C   0  0  0  0  0  0  0  0  0  0  0  0
  -28.3280   -9.0380   19.3500 C   0  0  0  0  0  0  0  0  0  0  0  0
  -30.0050  -13.3350   18.7920 C   0  0  0  0  0  2  0  0  0  0  0  0
  -30.4280  -12.1340   20.0220 C   0  0  0  0  0  3  0  0  0  0  0  0
  -28.5050  -13.7100   18.6090 C   0  0  1  0  0  0  0  0  0  0  0  0
  -26.8510   -8.5040   17.3000 C   0  0  0  0  0  1  0  0  0  0  0  0
  -31.3820  -11.4330   18.9300 C   0  0  0  0  0  1  0  0  0  0  0  0
  -28.0250  -13.9070   17.1190 C   0  0  0  0  0  1  0  0  0  0  0  0
  -31.2300  -12.3560   21.9720 C   0  0  2  0  0  0  0  0  0  0  0  0
  -32.4750  -12.5060   21.1700 C   0  0  0  0  0  1  0  0  0  0  0  0
  -31.6450  -14.1600   20.6760 C   0  0  0  0  0  1  0  0  0  0  0  0
  -29.8820  -14.2830   21.2560 C   0  0  0  0  0  2  0  0  0  0  0  0
  -28.9470  -12.9640   22.0090 C   0  0  0  0  0  2  0  0  0  0  0  0
  -29.9220  -11.5520   22.4900 C   0  0  0  0  0  1  0  0  0  0  0  0
  -31.5490  -11.3760   22.0640 N   0  0  0  0  0  1  0  0  0  0  0  0
  -31.5200  -13.2300   23.0230 O   0  0  0  0  0  1  0  0  0  0  0  0
  -26.4940  -13.5520   21.4520 C   0  0  0  0  0  0  0  0  0  0  0  0
  -25.3400  -12.8430   21.3010 C   0  0  0  0  0  0  0  0  0  0  0  0
  -25.6700  -11.4940   21.5820 C   0  0  0  0  0  0  0  0  0  0  0  0
  -27.5140  -12.6580   21.7110 N   0  0  0  0  0  0  0  0  0  0  0  0
  -26.9470  -11.4280   21.9380 N   0  0  0  0  0  0  0  0  0  0  0  0
  -24.8290  -10.2870   21.5210 C   0  0  0  0  0  0  0  0  0  0  0  0
  -24.7900   -9.3560   22.5940 C   0  0  0  0  0  3  0  0  0  0  0  0
  -23.9640   -8.2270   22.5340 C   0  0  0  0  0  3  0  0  0  0  0  0
  -23.1070   -8.0340   21.4380 C   0  0  0  0  0  0  0  0  0  0  0  0
  -23.2110   -8.8830   20.3320 C   0  0  0  0  0  3  0  0  0  0  0  0
  -24.0390  -10.0230   20.3730 C   0  0  0  0  0  3  0  0  0  0  0  0
  -22.1750   -7.0090   21.3610 O   0  0  0  0  0  0  0  0  0  0  0  0
  -21.6450   -6.4000   22.4690 C   0  0  0  0  0  0  0  0  0  0  0  0
  -20.8880   -7.1000   23.4460 C   0  0  0  0  0  3  0  0  0  0  0  0
  -20.2230   -6.4090   24.4810 C   0  0  0  0  0  3  0  0  0  0  0  0
  -20.3590   -5.0120   24.5930 C   0  0  0  0  0  0  0  0  0  0  0  0
  -21.1280   -4.3140   23.6430 C   0  0  0  0  0  3  0  0  0  0  0  0
  -21.7420   -5.0040   22.5750 C   0  0  0  0  0  0  0  0  0  0  0  0
  -22.4160   -4.2920   21.6460 F   0  0  0  0  0  0  0  0  0  0  0  0
  -19.7220   -4.3520   25.5880 F   0  0  0  0  0  0  0  0  0  0  0  0
  -24.0110  -13.3980   20.9070 C   0  0  0  0  0  0  0  0  0  0  0  0
  -22.9040  -12.9580   21.4910 N   0  0  0  0  0  0  0  0  0  0  0  0
  -23.9450  -14.3400   20.1170 O   0  0  0  0  0  0  0  0  0  0  0  0
  -22.9170  -12.3770   22.3110 H   0  0  0  0  0  0  0  0  0  0  0  0
  -22.0300  -13.4050   21.2560 H   0  0  0  0  0  0  0  0  0  0  0  0
  -26.7710  -14.8980   21.3810 N   0  0  0  0  0  0  0  0  0  0  0  0
  -25.9350  -15.3980   21.1110 H   0  0  0  0  0  0  0  0  0  0  0  0
  -27.5640  -15.1580   20.8060 H   0  0  0  0  0  0  0  0  0  0  0  0
  -28.3510   -7.5530   21.3500 C   0  0  0  0  0  1  0  0  0  0  0  0
  -28.3990   -7.5650   19.8280 C   0  0  0  0  0  2  0  0  0  0  0  0
  -28.0770  -15.3940   19.3160 C   0  0  0  0  0  2  0  0  0  0  0  0
  -28.6620  -17.1600   19.2400 C   0  0  0  0  0  3  0  0  0  0  0  0
  -28.9400  -18.5540   20.3470 C   0  0  0  0  0  3  0  0  0  0  0  0
  -29.0780  -20.3350   20.0570 C   0  0  0  0  0  3  0  0  0  0  0  0
  -29.5240  -21.7550   21.0590 C   0  0  0  0  0  3  0  0  0  0  0  0
  -29.8740  -23.5090   20.8090 C   0  0  0  0  0  3  0  0  0  0  0  0
  -29.8650  -24.9470   21.8760 C   0  0  0  0  0  3  0  0  0  0  0  0
  -30.1570  -26.5710   21.7340 O   0  0  0  0  0  0  0  0  0  0  0  0
  -28.2470  -32.8900   25.4680 C   0  0  0  0  0  0  0  0  0  0  0  0
  -29.2530  -27.5940   22.2710 C   0  0  0  0  0  0  0  0  0  0  0  0
  -26.9120  -30.8500   25.6320 C   0  0  0  0  0  3  0  0  0  0  0  0
  -27.2820  -29.0670   23.8120 C   0  0  0  0  0  0  0  0  0  0  0  0
  -28.2450  -31.3270   23.4630 C   0  0  0  0  0  2  0  0  0  0  0  0
  -28.2940  -29.7940   23.1780 C   0  0  0  0  0  0  0  0  0  0  0  0
  -29.2890  -29.0660   22.3880 C   0  0  0  0  0  3  0  0  0  0  0  0
  -28.1210  -27.0180   22.8280 C   0  0  0  0  0  3  0  0  0  0  0  0
  -27.1740  -27.7010   23.5840 C   0  0  0  0  0  3  0  0  0  0  0  0
  -26.2800  -29.7810   24.7000 C   0  0  0  0  0  2  0  0  0  0  0  0
  -27.8400  -31.7370   24.8620 N   0  0  0  0  0  0  0  0  0  0  0  0
  -27.8840  -33.1900   26.6150 O   0  0  0  0  0  0  0  0  0  0  0  0
  -27.6050  -30.1630   26.8460 C   0  0  0  0  0  0  0  0  0  0  0  0
  -26.9240  -30.1160   28.0090 N   0  0  0  0  0  0  0  0  0  0  0  0
  -28.7270  -29.6670   26.7250 O   0  0  0  0  0  0  0  0  0  0  0  0
  -26.0240  -30.5720   28.0440 H   0  0  0  0  0  0  0  0  0  0  0  0
  -26.2910  -29.8330   31.5740 C   0  0  0  0  0  0  0  0  0  0  0  0
  -27.3900  -29.4940   29.2580 C   0  0  0  0  0  3  0  0  0  0  0  0
  -26.9070  -28.0320   29.3590 C   0  0  0  0  0  2  0  0  0  0  0  0
  -25.5890  -27.8830   30.1230 C   0  0  0  0  0  2  0  0  0  0  0  0
  -25.7310  -28.4230   31.5530 C   0  0  0  0  0  2  0  0  0  0  0  0
  -27.0560  -30.3430   30.4930 C   0  0  0  0  0  0  0  0  0  0  0  0
  -27.5270  -31.6710   30.5540 C   0  0  0  0  0  3  0  0  0  0  0  0
  -27.2390  -32.4830   31.6680 C   0  0  0  0  0  3  0  0  0  0  0  0
  -26.4870  -31.9680   32.7400 C   0  0  0  0  0  3  0  0  0  0  0  0
  -26.0220  -30.6440   32.6930 C   0  0  0  0  0  3  0  0  0  0  0  0
  -29.1800  -33.9020   24.7370 C   0  0  0  0  0  3  0  0  0  0  0  0
  -28.6150  -35.2550   24.9260 N   0  0  0  0  0  0  0  0  0  0  0  0
  -27.9310  -35.9380   23.9990 C   0  0  0  0  0  0  0  0  0  0  0  0
  -27.7700  -35.5220   22.8490 O   0  0  0  0  0  0  0  0  0  0  0  0
  -28.6730  -35.6370   25.8600 H   0  0  0  0  0  0  0  0  0  0  0  0
  -25.8360  -37.1640   24.6640 C   0  0  0  0  0  1  0  0  0  0  0  0
  -27.3460  -37.3060   24.4030 C   0  0  0  0  0  3  0  0  0  0  0  0
  -28.9820  -38.7580   23.2800 C   0  0  0  0  0  1  0  0  0  0  0  0
  -27.5720  -38.3710   23.3940 N   0  0  0  0  0  0  0  0  0  0  0  0
  -27.0340  -39.2030   23.6220 H   0  0  0  0  0  0  0  0  0  0  0  0
  -30.6710  -33.8670   25.2610 C   0  0  1  0  0  0  0  0  0  0  0  0
  -30.7970  -33.9450   26.8010 C   0  0  0  0  0  1  0  0  0  0  0  0
  -31.3930  -32.5830   24.8060 C   0  0  0  0  0  1  0  0  0  0  0  0
  -31.4590  -35.0470   24.6560 C   0  0  0  0  0  1  0  0  0  0  0  0
  2  5  2  0
  2  4  1  0
  3  8  1  0
  3  1  1  0
  4  3  2  0
  5  6  1  0
  6 50  1  0
  6  1  2  0
  7  8  1  0
  8 11  1  0
  9 12  1  6
  9  7  1  0
  9  4  1  0
  9 51  1  0
 10  5  1  0
 13 19  1  0
 13 18  1  6
 13 20  1  0
 14 13  1  0
 15 16  1  0
 16 17  1  0
 21 24  1  0
 22 21  2  0
 22 23  1  0
 23 25  2  0
 24 25  1  0
 24 17  1  0
 26 23  1  0
 26 27  1  0
 28 27  2  0
 29 28  1  0
 30 31  1  0
 30 29  2  0
 31 26  2  0
 32 29  1  0
 32 33  1  0
 33 38  2  0
 33 34  1  0
 34 35  2  0
 35 36  1  0
 36 40  1  0
 37 36  2  0
 38 37  1  0
 39 38  1  0
 41 22  1  0
 41 42  1  0
 42 44  1  0
 43 41  2  0
 45 42  1  0
 46 21  1  0
 47 46  1  0
 48 46  1  0
 50 49  1  0
 52 51  1  0
 52 53  2  0
 54 53  1  0
 54 55  2  0
 56 55  1  0
 56 57  2  0
 58 57  1  0
 58 60  1  0
 59 70  2  0
 60 65  2  0
 60 66  1  0
 61 71  1  0
 62 68  1  0
 63 69  1  0
 64 63  1  0
 64 62  2  0
 65 64  1  0
 66 67  2  0
 67 62  1  0
 68 61  1  0
 69 59  1  0
 69 61  1  0
 71 72  1  0
 72 74  1  0
 73 71  2  0
 75 84  1  0
 76 72  1  0
 76 77  1  0
 76 80  1  0
 77 78  1  0
 78 79  1  0
 79 75  1  0
 80 81  1  0
 80 75  2  0
 81 82  2  0
 82 83  1  0
 84 83  2  0
 85 86  1  0
 85 95  1  0
 85 59  1  0
 86 89  1  0
 87 91  1  0
 87 86  1  0
 88 87  2  0
 91 90  1  0
 92 93  1  0
 93 94  1  0
 93 91  1  0
 95 96  1  1
 97 95  1  0
 98 95  1  0
M  ISO  4   8 100  13 100  57 101  58 101
M  END
>  <TORSDO>  (81) 
F 24

>  <SCORE>  (81) 
1.846

>  <name>  (81) 
80

>  <ligand_id>  (81) 
80

>  <original_smiles>  (81) 
[H]c1c([H])c([H])c2c(c1[H])C([H])([H])C([H])([H])C([H])([H])C2([H])N([H])C(=O)C1([H])N(C(=O)C([H])(N([H])C(=O)C([H])(N([H])C([H])([H])[H])C([H])([H])[H])C(C([H])([H])[H])(C([H])([H])[H])C([H])([H])[H])C([H])([H])c2c([H])c(OC([H])([H])C([H])([H])C([H])([H])C([H])([H])C([H])([H])C([H])([H])C([H])([H])C3(C([H])([H])[H])c4c([H])c(C([H])([H])[H])c(C([H])([H])C([H])([H])[H])c([H])c4C(C(=O)N4C([H])([H])C([H])([H])C([H])([H])C([H])(n5nc(-c6c([H])c([H])c(Oc7c([H])c([H])c(F)c([H])c7F)c([H])c6[H])c(C(=O)N([H])[H])c5N([H])[H])C4([H])[H])(C([H])([H])[H])C3([H])[H])c([H])c([H])c2C1([H])[H]

>  <smiles>  (81) 
[H]c1c([H])c([H])c2c(c1[H])C([H])([H])C([H])([H])C([H])([H])C2([H])N([H])C(=O)C1([H])N(C(=O)C([H])(N([H])C(=O)C([H])(N([H])C([H])([H])[H])C([H])([H])[H])C(C([H])([H])[H])(C([H])([H])[H])C([H])([H])[H])C([H])([H])c2c([H])c(OC([H])([H])C([H])([H])C([H])([H])C([H])([H])C([H])([H])C([H])([H])C([H])([H])C3(C([H])([H])[H])c4c([H])c(C([H])([H])[H])c(C([H])([H])C([H])([H])[H])c([H])c4C(C(=O)N4C([H])([H])C([H])([H])C([H])([H])C([H])(n5nc(-c6c([H])c([H])c(Oc7c([H])c([H])c(F)c([H])c7F)c([H])c6[H])c(C(=O)N([H])[H])c5N([H])[H])C4([H])[H])(C([H])([H])[H])C3([H])[H])c([H])c([H])c2C1([H])[H]

$$$$
81:0:0
     RDKit          3D

 97106  0  0  1  0  0  0  0  0999 V2000
  -32.1210  -21.0180   21.1060 C   0  0  0  0  0  3  0  0  0  0  0  0
  -31.2660  -20.3220   20.2300 C   0  0  0  0  0  0  0  0  0  0  0  0
  -30.9720  -18.9150   20.5220 C   0  0  0  0  0  0  0  0  0  0  0  0
  -32.6670  -20.4270   22.2520 C   0  0  0  0  0  0  0  0  0  0  0  0
  -31.3010  -18.4360   21.8370 C   0  0  0  0  0  0  0  0  0  0  0  0
  -32.2370  -19.1410   22.6440 C   0  0  0  0  0  0  0  0  0  0  0  0
  -28.4120  -20.4490   18.9850 C   0  0  0  0  0  0  0  0  0  0  0  0
  -30.7270  -21.2440   19.0660 C   0  0  0  0  0  2  0  0  0  0  0  0
  -28.8160  -18.7960   19.1490 C   0  0  0  0  0  2  0  0  0  0  0  0
  -30.2480  -17.9680   19.4970 C   0  0  0  0  0  3  0  0  0  0  0  0
  -29.2710  -21.8330   19.2750 C   0  0  0  0  0  3  0  0  0  0  0  0
  -33.6600  -21.2380   23.0730 C   0  0  0  0  0  1  0  0  0  0  0  0
  -32.7630  -18.5290   23.9410 C   0  0  0  0  0  1  0  0  0  0  0  0
  -27.2560  -20.6520   18.6080 O   0  0  0  0  0  0  0  0  0  0  0  0
  -30.8000  -16.2720   19.4460 C   0  0  0  0  0  0  0  0  0  0  0  0
  -30.8080  -13.7290   18.9090 C   0  0  0  0  0  2  0  0  0  0  0  0
  -29.8750  -13.3460   17.7340 C   0  0  0  0  0  2  0  0  0  0  0  0
  -28.4580  -13.0480   18.2520 C   0  0  0  0  0  2  0  0  0  0  0  0
  -27.9890  -14.1140   19.2750 C   0  0  0  0  0  3  0  0  0  0  0  0
  -29.0540  -14.4960   20.3250 C   0  0  0  0  0  2  0  0  0  0  0  0
  -30.2480  -14.9600   19.6000 N   0  0  0  0  0  0  0  0  0  0  0  0
  -32.0000  -16.1650   19.1480 O   0  0  0  0  0  0  0  0  0  0  0  0
  -25.7410  -14.6470   20.3450 C   0  0  0  0  0  0  0  0  0  0  0  0
  -24.6850  -13.8660   20.7260 C   0  0  0  0  0  0  0  0  0  0  0  0
  -25.0850  -12.5160   20.4860 C   0  0  0  0  0  0  0  0  0  0  0  0
  -26.7100  -13.7740   19.8860 N   0  0  0  0  0  0  0  0  0  0  0  0
  -26.3350  -12.4750   20.0380 N   0  0  0  0  0  0  0  0  0  0  0  0
  -24.3220  -11.2650   20.5990 C   0  0  0  0  0  0  0  0  0  0  0  0
  -24.7670  -10.1930   21.4050 C   0  0  0  0  0  3  0  0  0  0  0  0
  -23.9990   -9.0140   21.5190 C   0  0  0  0  0  3  0  0  0  0  0  0
  -22.7720   -8.8970   20.8230 C   0  0  0  0  0  0  0  0  0  0  0  0
  -22.3440   -9.9560   20.0030 C   0  0  0  0  0  3  0  0  0  0  0  0
  -23.1130  -11.1270   19.8880 C   0  0  0  0  0  3  0  0  0  0  0  0
  -21.9760   -7.7770   20.8480 O   0  0  0  0  0  0  0  0  0  0  0  0
  -21.9400   -6.9410   21.9370 C   0  0  0  0  0  0  0  0  0  0  0  0
  -21.5930   -7.4080   23.2240 C   0  0  0  0  0  3  0  0  0  0  0  0
  -21.5010   -6.5030   24.3000 C   0  0  0  0  0  3  0  0  0  0  0  0
  -21.7480   -5.1330   24.0910 C   0  0  0  0  0  0  0  0  0  0  0  0
  -22.0910   -4.6650   22.8100 C   0  0  0  0  0  3  0  0  0  0  0  0
  -22.1850   -5.5670   21.7350 C   0  0  0  0  0  0  0  0  0  0  0  0
  -22.4930   -5.1090   20.4990 F   0  0  0  0  0  0  0  0  0  0  0  0
  -21.6550   -4.2620   25.1220 F   0  0  0  0  0  0  0  0  0  0  0  0
  -23.3460  -14.3560   21.1890 C   0  0  0  0  0  0  0  0  0  0  0  0
  -22.6770  -13.5970   22.0490 N   0  0  0  0  0  0  0  0  0  0  0  0
  -22.9040  -15.4440   20.8250 O   0  0  0  0  0  0  0  0  0  0  0  0
  -23.0530  -12.7160   22.3670 H   0  0  0  0  0  0  0  0  0  0  0  0
  -21.7800  -13.9050   22.3960 H   0  0  0  0  0  0  0  0  0  0  0  0
  -25.9500  -16.0230   20.3190 N   0  0  0  0  0  0  0  0  0  0  0  0
  -25.2250  -16.6800   20.5860 H   0  0  0  0  0  0  0  0  0  0  0  0
  -26.7880  -16.4720   19.9710 H   0  0  0  0  0  0  0  0  0  0  0  0
  -30.5390  -17.2550   22.4790 C   0  0  0  0  0  2  0  0  0  0  0  0
  -29.6140  -17.7130   23.6260 C   0  0  0  0  0  2  0  0  0  0  0  0
  -29.4270  -18.9230   25.8670 C   0  0  0  0  0  1  0  0  0  0  0  0
  -30.3540  -18.5090   24.7180 C   0  0  0  0  0  2  0  0  0  0  0  0
  -28.8980  -23.6380   19.2990 C   0  0  0  0  0  3  0  0  0  0  0  0
  -27.9830  -25.0040   18.5400 C   0  0  0  0  0  3  0  0  0  0  0  0
  -28.0140  -26.6550   18.7350 O   0  0  0  0  0  0  0  0  0  0  0  0
  -24.3690  -31.7870   22.9010 C   0  0  0  0  0  0  0  0  0  0  0  0
  -26.9030  -27.6410   18.9170 C   0  0  0  0  0  0  0  0  0  0  0  0
  -23.0880  -30.5030   21.2370 C   0  0  0  0  0  3  0  0  0  0  0  0
  -24.4610  -29.2670   19.4210 C   0  0  0  0  0  0  0  0  0  0  0  0
  -25.5860  -30.9980   20.8080 C   0  0  0  0  0  2  0  0  0  0  0  0
  -25.6840  -29.7070   19.9430 C   0  0  0  0  0  0  0  0  0  0  0  0
  -26.8890  -28.9160   19.6700 C   0  0  0  0  0  3  0  0  0  0  0  0
  -25.6330  -27.3550   18.3670 C   0  0  0  0  0  3  0  0  0  0  0  0
  -24.4580  -28.1170   18.6100 C   0  0  0  0  0  3  0  0  0  0  0  0
  -23.1840  -30.0430   19.7560 C   0  0  0  0  0  2  0  0  0  0  0  0
  -24.3730  -31.1210   21.6990 N   0  0  0  0  0  0  0  0  0  0  0  0
  -23.3390  -31.8910   23.5880 O   0  0  0  0  0  0  0  0  0  0  0  0
  -22.6240  -29.3190   22.1260 C   0  0  0  0  0  0  0  0  0  0  0  0
  -21.3240  -28.9740   22.0760 N   0  0  0  0  0  0  0  0  0  0  0  0
  -23.4370  -28.7120   22.8260 O   0  0  0  0  0  0  0  0  0  0  0  0
  -20.7130  -29.5170   21.4850 H   0  0  0  0  0  0  0  0  0  0  0  0
  -18.2200  -27.1610   22.5870 C   0  0  0  0  0  0  0  0  0  0  0  0
  -20.7070  -27.8500   22.7880 C   0  0  0  0  0  3  0  0  0  0  0  0
  -21.0240  -26.5090   22.0850 C   0  0  0  0  0  2  0  0  0  0  0  0
  -19.9460  -26.0830   21.0840 C   0  0  0  0  0  2  0  0  0  0  0  0
  -18.5920  -25.9260   21.7840 C   0  0  0  0  0  2  0  0  0  0  0  0
  -19.2100  -28.0710   23.0450 C   0  0  0  0  0  0  0  0  0  0  0  0
  -18.8070  -29.2150   23.7660 C   0  0  0  0  0  3  0  0  0  0  0  0
  -17.4440  -29.4590   24.0280 C   0  0  0  0  0  3  0  0  0  0  0  0
  -16.4690  -28.5510   23.5810 C   0  0  0  0  0  3  0  0  0  0  0  0
  -16.8560  -27.4030   22.8660 C   0  0  0  0  0  3  0  0  0  0  0  0
  -25.6530  -32.4710   23.4570 C   0  0  0  0  0  3  0  0  0  0  0  0
  -25.2790  -33.8110   23.9450 N   0  0  0  0  0  0  0  0  0  0  0  0
  -25.5180  -34.9590   23.2960 C   0  0  0  0  0  0  0  0  0  0  0  0
  -26.1450  -35.0060   22.2360 O   0  0  0  0  0  0  0  0  0  0  0  0
  -24.7190  -33.8460   24.7830 H   0  0  0  0  0  0  0  0  0  0  0  0
  -23.6940  -36.6930   23.2090 C   0  0  0  0  0  1  0  0  0  0  0  0
  -24.9830  -36.2610   23.9270 C   0  0  0  0  0  3  0  0  0  0  0  0
  -27.1010  -37.1600   24.7860 C   0  0  0  0  0  1  0  0  0  0  0  0
  -25.9610  -37.3720   23.8990 N   0  0  0  0  0  0  0  0  0  0  0  0
  -25.5190  -38.2520   24.1570 H   0  0  0  0  0  0  0  0  0  0  0  0
  -26.3380  -31.6470   24.6200 C   0  0  1  0  0  0  0  0  0  0  0  0
  -25.3630  -31.2660   25.7590 C   0  0  0  0  0  1  0  0  0  0  0  0
  -26.9760  -30.3460   24.0840 C   0  0  0  0  0  1  0  0  0  0  0  0
  -27.4960  -32.4720   25.2320 C   0  0  0  0  0  1  0  0  0  0  0  0
  1  4  1  0
  2  3  1  0
  2  1  2  0
  3  5  2  0
  4  6  2  0
  4 12  1  0
  5 51  1  0
  5  6  1  0
  6 13  1  0
  7  9  1  0
  7 11  1  0
  8 11  1  0
  8  2  1  0
  9 10  1  0
 10 15  1  0
 10  3  1  0
 11 55  1  0
 14  7  2  0
 15 21  1  0
 16 21  1  0
 17 18  1  0
 17 16  1  0
 19 18  1  0
 19 26  1  0
 19 20  1  0
 21 20  1  0
 22 15  2  0
 23 24  2  0
 24 43  1  0
 25 28  1  0
 25 24  1  0
 26 27  1  0
 26 23  1  0
 27 25  2  0
 28 29  1  0
 29 30  2  0
 31 34  1  0
 31 30  1  0
 32 31  2  0
 33 32  1  0
 33 28  2  0
 34 35  1  0
 35 36  1  0
 36 37  2  0
 38 37  1  0
 38 42  1  0
 39 38  2  0
 40 35  2  0
 40 39  1  0
 41 40  1  0
 43 44  1  0
 44 46  1  0
 44 47  1  0
 45 43  2  0
 48 23  1  0
 48 49  1  0
 50 48  1  0
 51 52  1  0
 52 54  1  0
 54 53  1  0
 56 57  1  0
 56 55  2  0
 57 59  1  0
 58 69  2  0
 59 64  1  0
 60 68  1  0
 60 70  1  0
 61 67  1  0
 61 63  1  0
 62 68  1  0
 63 62  1  0
 64 63  2  0
 65 66  1  0
 65 59  2  0
 66 61  2  0
 67 60  1  0
 68 58  1  0
 70 72  2  0
 71 70  1  0
 73 71  1  0
 74 83  2  0
 74 79  1  0
 75 71  1  0
 75 79  1  0
 76 75  1  0
 77 78  1  0
 77 76  1  0
 78 74  1  0
 79 80  2  0
 80 81  1  0
 82 81  2  0
 83 82  1  0
 84 58  1  0
 84 85  1  0
 84 94  1  0
 85 88  1  0
 86 90  1  0
 86 85  1  0
 87 86  2  0
 90 89  1  0
 92 90  1  0
 92 93  1  0
 92 91  1  0
 94 97  1  1
 94 95  1  0
 96 94  1  0
M  ISO  4  10 100  15 100  56 101  57 101
M  END
>  <TORSDO>  (82) 
F 21

>  <SCORE>  (82) 
-1.242

>  <name>  (82) 
81

>  <ligand_id>  (82) 
81

>  <original_smiles>  (82) 
[H]c1c([H])c([H])c2c(c1[H])C([H])([H])C([H])([H])C([H])([H])C2([H])N([H])C(=O)C1([H])N(C(=O)C([H])(N([H])C(=O)C([H])(N([H])C([H])([H])[H])C([H])([H])[H])C(C([H])([H])[H])(C([H])([H])[H])C([H])([H])[H])C([H])([H])c2c([H])c(OC([H])([H])C([H])([H])C3([H])C(=O)C([H])([H])C([H])(C(=O)N4C([H])([H])C([H])([H])C([H])([H])C([H])(n5nc(-c6c([H])c([H])c(Oc7c([H])c([H])c(F)c([H])c7F)c([H])c6[H])c(C(=O)N([H])[H])c5N([H])[H])C4([H])[H])c4c(C([H])([H])C([H])([H])C([H])([H])C([H])([H])[H])c(C([H])([H])[H])c(C([H])([H])[H])c([H])c4C3([H])[H])c([H])c([H])c2C1([H])[H]

>  <smiles>  (82) 
[H]c1c([H])c([H])c2c(c1[H])C([H])([H])C([H])([H])C([H])([H])C2([H])N([H])C(=O)C1([H])N(C(=O)C([H])(N([H])C(=O)C([H])(N([H])C([H])([H])[H])C([H])([H])[H])C(C([H])([H])[H])(C([H])([H])[H])C([H])([H])[H])C([H])([H])c2c([H])c(OC([H])([H])C([H])([H])C3([H])C(=O)C([H])([H])C([H])(C(=O)N4C([H])([H])C([H])([H])C([H])([H])C([H])(n5nc(-c6c([H])c([H])c(Oc7c([H])c([H])c(F)c([H])c7F)c([H])c6[H])c(C(=O)N([H])[H])c5N([H])[H])C4([H])[H])c4c(C([H])([H])C([H])([H])C([H])([H])C([H])([H])[H])c(C([H])([H])[H])c(C([H])([H])[H])c([H])c4C3([H])[H])c([H])c([H])c2C1([H])[H]

$$$$
82:0:0
     RDKit          3D

 94103  0  0  1  0  0  0  0  0999 V2000
  -30.7250  -14.5470   20.4290 C   0  0  0  0  0  0  0  0  0  0  0  0
  -30.4180  -12.3380   19.4100 C   0  0  0  0  0  2  0  0  0  0  0  0
  -29.5050  -12.4920   18.1780 C   0  0  0  0  0  2  0  0  0  0  0  0
  -28.0250  -12.3600   18.5860 C   0  0  0  0  0  2  0  0  0  0  0  0
  -27.6570  -13.2560   19.8020 C   0  0  0  0  0  3  0  0  0  0  0  0
  -28.6960  -13.1060   20.9370 C   0  0  0  0  0  2  0  0  0  0  0  0
  -30.0190  -13.3850   20.3610 N   0  0  0  0  0  0  0  0  0  0  0  0
  -31.9450  -14.5550   20.2410 O   0  0  0  0  0  0  0  0  0  0  0  0
  -29.5810  -20.9340   21.4950 C   0  0  0  0  0  2  0  0  0  0  0  0
  -30.2930  -19.5700   21.3490 C   0  0  0  0  0  2  0  0  0  0  0  0
  -28.6690  -17.7910   20.5220 C   0  0  0  0  0  2  0  0  0  0  0  0
  -31.0070  -17.9070   19.5740 C   0  0  0  0  0  2  0  0  0  0  0  0
  -30.0910  -21.0890   18.9970 C   0  0  0  0  0  2  0  0  0  0  0  0
  -29.1110  -16.3810   21.0140 C   0  0  0  0  0  2  0  0  0  0  0  0
  -30.5620  -16.5390   19.0170 C   0  0  0  0  0  2  0  0  0  0  0  0
  -29.2850  -19.7650   19.0090 C   0  0  0  0  0  3  0  0  0  0  0  0
  -29.9310  -21.8850   20.3210 C   0  0  0  0  0  3  0  0  0  0  0  0
  -29.8170  -18.7570   20.1000 C   0  0  2  0  0  0  0  0  0  0  0  0
  -29.1220  -19.2000   17.5830 C   0  0  0  0  0  1  0  0  0  0  0  0
  -30.0300  -15.6740   20.0920 N   0  0  0  0  0  0  0  0  0  0  0  0
  -25.2580  -13.8890   20.4750 C   0  0  0  0  0  0  0  0  0  0  0  0
  -24.1760  -13.1280   20.8340 C   0  0  0  0  0  0  0  0  0  0  0  0
  -24.6290  -11.7720   20.8240 C   0  0  0  0  0  0  0  0  0  0  0  0
  -26.2980  -12.9970   20.2710 N   0  0  0  0  0  0  0  0  0  0  0  0
  -25.9240  -11.7210   20.5400 N   0  0  0  0  0  0  0  0  0  0  0  0
  -23.8920  -10.5160   21.0150 C   0  0  0  0  0  0  0  0  0  0  0  0
  -24.3080   -9.5520   21.9600 C   0  0  0  0  0  3  0  0  0  0  0  0
  -23.5740   -8.3620   22.1390 C   0  0  0  0  0  3  0  0  0  0  0  0
  -22.4070   -8.1250   21.3720 C   0  0  0  0  0  0  0  0  0  0  0  0
  -22.0100   -9.0780   20.4160 C   0  0  0  0  0  3  0  0  0  0  0  0
  -22.7470  -10.2610   20.2360 C   0  0  0  0  0  3  0  0  0  0  0  0
  -21.6480   -6.9840   21.4550 O   0  0  0  0  0  0  0  0  0  0  0  0
  -21.5800   -6.2480   22.6090 C   0  0  0  0  0  0  0  0  0  0  0  0
  -21.1390   -6.8100   23.8280 C   0  0  0  0  0  3  0  0  0  0  0  0
  -21.0210   -6.0010   24.9760 C   0  0  0  0  0  3  0  0  0  0  0  0
  -21.3300   -4.6300   24.9040 C   0  0  0  0  0  0  0  0  0  0  0  0
  -21.7640   -4.0660   23.6910 C   0  0  0  0  0  3  0  0  0  0  0  0
  -21.8840   -4.8720   22.5460 C   0  0  0  0  0  0  0  0  0  0  0  0
  -22.2820   -4.3210   21.3760 F   0  0  0  0  0  0  0  0  0  0  0  0
  -21.2070   -3.8510   26.0040 F   0  0  0  0  0  0  0  0  0  0  0  0
  -22.7780  -13.6180   21.0760 C   0  0  0  0  0  0  0  0  0  0  0  0
  -22.0330  -12.9360   21.9370 N   0  0  0  0  0  0  0  0  0  0  0  0
  -22.3550  -14.6360   20.5320 O   0  0  0  0  0  0  0  0  0  0  0  0
  -22.3910  -12.1160   22.4020 H   0  0  0  0  0  0  0  0  0  0  0  0
  -21.0890  -13.2400   22.1350 H   0  0  0  0  0  0  0  0  0  0  0  0
  -25.4380  -15.2560   20.2850 N   0  0  0  0  0  0  0  0  0  0  0  0
  -24.6810  -15.9230   20.3860 H   0  0  0  0  0  0  0  0  0  0  0  0
  -26.3010  -15.6780   19.9670 H   0  0  0  0  0  0  0  0  0  0  0  0
  -28.9060  -22.9460   20.1770 N   0  0  0  0  0  4  0  0  0  0  0  0
  -28.2030  -22.8030   20.8870 H   0  0  0  0  0  0  0  0  0  0  0  0
  -28.4530  -22.7990   19.2860 H   0  0  0  0  0  0  0  0  0  0  0  0
  -29.3660  -24.3630   20.2530 C   0  0  0  0  0  2  0  0  0  0  0  0
  -28.2360  -25.3010   19.7840 C   0  0  0  0  0  2  0  0  0  0  0  0
  -28.4220  -26.7090   20.0220 O   0  0  0  0  0  0  0  0  0  0  0  0
  -24.6460  -31.8780   23.1770 C   0  0  0  0  0  0  0  0  0  0  0  0
  -27.2630  -27.4720   20.0010 C   0  0  0  0  0  0  0  0  0  0  0  0
  -23.4320  -30.5030   21.5220 C   0  0  0  0  0  3  0  0  0  0  0  0
  -24.8740  -28.9990   20.0590 C   0  0  0  0  0  0  0  0  0  0  0  0
  -25.9610  -30.8560   21.3190 C   0  0  0  0  0  2  0  0  0  0  0  0
  -26.0390  -29.5010   20.6480 C   0  0  0  0  0  0  0  0  0  0  0  0
  -27.2390  -28.7480   20.6130 C   0  0  0  0  0  3  0  0  0  0  0  0
  -26.0700  -27.0010   19.3920 C   0  0  0  0  0  3  0  0  0  0  0  0
  -24.8850  -27.7470   19.4280 C   0  0  0  0  0  3  0  0  0  0  0  0
  -23.6310  -29.8560   20.1280 C   0  0  0  0  0  2  0  0  0  0  0  0
  -24.6990  -31.0930   22.0620 N   0  0  0  0  0  0  0  0  0  0  0  0
  -23.5680  -32.1430   23.7250 O   0  0  0  0  0  0  0  0  0  0  0  0
  -22.7870  -29.4610   22.4650 C   0  0  0  0  0  0  0  0  0  0  0  0
  -21.4600  -29.2900   22.3480 N   0  0  0  0  0  0  0  0  0  0  0  0
  -23.4770  -28.8130   23.2560 O   0  0  0  0  0  0  0  0  0  0  0  0
  -20.9640  -29.8690   21.6850 H   0  0  0  0  0  0  0  0  0  0  0  0
  -18.0830  -28.1150   22.8700 C   0  0  0  0  0  0  0  0  0  0  0  0
  -20.6470  -28.3400   23.1080 C   0  0  0  0  0  3  0  0  0  0  0  0
  -20.7220  -26.9230   22.4960 C   0  0  0  0  0  2  0  0  0  0  0  0
  -19.6040  -26.6350   21.4910 C   0  0  0  0  0  2  0  0  0  0  0  0
  -18.2340  -26.7810   22.1610 C   0  0  0  0  0  2  0  0  0  0  0  0
  -19.2160  -28.8560   23.3000 C   0  0  0  0  0  0  0  0  0  0  0  0
  -19.0190  -30.1090   23.9220 C   0  0  0  0  0  3  0  0  0  0  0  0
  -17.7230  -30.6210   24.1130 C   0  0  0  0  0  3  0  0  0  0  0  0
  -16.6040  -29.8770   23.6990 C   0  0  0  0  0  3  0  0  0  0  0  0
  -16.7850  -28.6240   23.0860 C   0  0  0  0  0  3  0  0  0  0  0  0
  -25.9370  -32.4980   23.7970 C   0  0  0  0  0  3  0  0  0  0  0  0
  -25.6320  -33.8890   24.1490 N   0  0  0  0  0  0  0  0  0  0  0  0
  -25.9420  -34.9510   23.3940 C   0  0  0  0  0  0  0  0  0  0  0  0
  -26.5880  -34.8600   22.3470 O   0  0  0  0  0  0  0  0  0  0  0  0
  -25.0580  -34.0320   24.9680 H   0  0  0  0  0  0  0  0  0  0  0  0
  -24.1880  -36.7270   23.1060 C   0  0  0  0  0  1  0  0  0  0  0  0
  -25.4580  -36.3320   23.8750 C   0  0  0  0  0  3  0  0  0  0  0  0
  -27.6100  -37.2280   24.6470 C   0  0  0  0  0  1  0  0  0  0  0  0
  -26.4780  -37.3940   23.7370 N   0  0  0  0  0  0  0  0  0  0  0  0
  -26.0730  -38.3110   23.9030 H   0  0  0  0  0  0  0  0  0  0  0  0
  -26.4640  -31.7070   25.0570 C   0  0  1  0  0  0  0  0  0  0  0  0
  -25.3770  -31.4520   26.1280 C   0  0  0  0  0  1  0  0  0  0  0  0
  -27.0430  -30.3370   24.6360 C   0  0  0  0  0  1  0  0  0  0  0  0
  -27.6220  -32.4890   25.7210 C   0  0  0  0  0  1  0  0  0  0  0  0
  2  7  1  0
  3  4  1  0
  3  2  1  0
  5  4  1  0
  5 24  1  0
  5  6  1  0
  7  1  1  0
  7  6  1  0
  8  1  2  0
 10  9  1  0
 11 14  1  0
 13 16  1  0
 13 17  1  0
 15 12  1  0
 15 20  1  0
 16 19  1  0
 16 18  1  0
 17 49  1  0
 17  9  1  0
 18 12  1  6
 18 11  1  0
 18 10  1  0
 20  1  1  0
 20 14  1  0
 21 22  2  0
 22 41  1  0
 23 22  1  0
 23 26  1  0
 24 21  1  0
 24 25  1  0
 25 23  2  0
 26 27  1  0
 27 28  2  0
 29 32  1  0
 29 28  1  0
 30 29  2  0
 31 30  1  0
 31 26  2  0
 32 33  1  0
 33 34  1  0
 34 35  2  0
 36 35  1  0
 36 40  1  0
 37 36  2  0
 38 33  2  0
 38 37  1  0
 39 38  1  0
 41 42  1  0
 42 45  1  0
 42 44  1  0
 43 41  2  0
 46 47  1  0
 46 21  1  0
 48 46  1  0
 49 52  1  0
 49 50  1  0
 51 49  1  0
 53 54  1  0
 53 52  1  0
 55 66  2  0
 56 54  1  0
 56 61  1  0
 57 65  1  0
 57 67  1  0
 58 64  1  0
 58 60  1  0
 59 65  1  0
 60 59  1  0
 61 60  2  0
 62 63  1  0
 62 56  2  0
 63 58  2  0
 64 57  1  0
 65 55  1  0
 67 69  2  0
 68 67  1  0
 70 68  1  0
 71 80  2  0
 71 76  1  0
 72 68  1  0
 72 76  1  0
 73 72  1  0
 74 75  1  0
 74 73  1  0
 75 71  1  0
 76 77  2  0
 77 78  1  0
 79 78  2  0
 80 79  1  0
 81 55  1  0
 81 82  1  0
 81 91  1  0
 82 85  1  0
 83 87  1  0
 83 82  1  0
 84 83  2  0
 87 86  1  0
 89 87  1  0
 89 90  1  0
 89 88  1  0
 91 94  1  1
 91 92  1  0
 93 91  1  0
M  ISO  4   1 100  20 100  53 101  54 101
M  END
>  <TORSDO>  (83) 
F 18

>  <SCORE>  (83) 
-14.791

>  <name>  (83) 
82

>  <ligand_id>  (83) 
82

>  <original_smiles>  (83) 
[H]c1c([H])c([H])c2c(c1[H])C([H])([H])C([H])([H])C([H])([H])C2([H])N([H])C(=O)C1([H])N(C(=O)C([H])(N([H])C(=O)C([H])(N([H])C([H])([H])[H])C([H])([H])[H])C(C([H])([H])[H])(C([H])([H])[H])C([H])([H])[H])C([H])([H])c2c([H])c(OC([H])([H])C([H])([H])[N+]([H])([H])C3([H])C([H])([H])C([H])([H])C4(C([H])([H])C([H])([H])N(C(=O)N5C([H])([H])C([H])([H])C([H])([H])C([H])(n6nc(-c7c([H])c([H])c(Oc8c([H])c([H])c(F)c([H])c8F)c([H])c7[H])c(C(=O)N([H])[H])c6N([H])[H])C5([H])[H])C([H])([H])C4([H])[H])C([H])(C([H])([H])[H])C3([H])[H])c([H])c([H])c2C1([H])[H]

>  <smiles>  (83) 
[H]c1c([H])c([H])c2c(c1[H])C([H])([H])C([H])([H])C([H])([H])C2([H])N([H])C(=O)C1([H])N(C(=O)C([H])(N([H])C(=O)C([H])(N([H])C([H])([H])[H])C([H])([H])[H])C(C([H])([H])[H])(C([H])([H])[H])C([H])([H])[H])C([H])([H])c2c([H])c(OC([H])([H])C([H])([H])[N+]([H])([H])C3([H])C([H])([H])C([H])([H])C4(C([H])([H])C([H])([H])N(C(=O)N5C([H])([H])C([H])([H])C([H])([H])C([H])(n6nc(-c7c([H])c([H])c(Oc8c([H])c([H])c(F)c([H])c8F)c([H])c7[H])c(C(=O)N([H])[H])c6N([H])[H])C5([H])[H])C([H])([H])C4([H])[H])C([H])(C([H])([H])[H])C3([H])[H])c([H])c([H])c2C1([H])[H]

$$$$
83:0:0
     RDKit          3D

 99108  0  0  1  0  0  0  0  0999 V2000
  -28.4870  -23.6930   21.5280 C   0  0  0  0  0  3  0  0  0  0  0  0
  -27.8960  -24.1750   19.2320 C   0  0  0  0  0  3  0  0  0  0  0  0
  -27.7730  -25.9530   20.9050 C   0  0  0  0  0  3  0  0  0  0  0  0
  -28.3570  -23.1620   20.2170 C   0  0  0  0  0  0  0  0  0  0  0  0
  -28.2080  -25.0320   21.8760 C   0  0  0  0  0  0  0  0  0  0  0  0
  -27.5870  -25.5970   19.5590 C   0  0  0  0  0  0  0  0  0  0  0  0
  -28.0230  -20.4920   19.2400 C   0  0  0  0  0  2  0  0  0  0  0  0
  -28.1810  -18.9530   19.7010 C   0  0  0  0  0  2  0  0  0  0  0  0
  -30.3940  -19.4580   20.6890 C   0  0  0  0  0  2  0  0  0  0  0  0
  -28.7450  -21.5460   20.1500 C   0  0  0  0  0  3  0  0  0  0  0  0
  -29.6300  -18.3170   19.8950 C   0  0  0  0  0  3  0  0  0  0  0  0
  -30.2330  -21.0010   20.2030 C   0  0  0  0  0  3  0  0  0  0  0  0
  -30.5540  -15.7770   20.4930 C   0  0  0  0  0  0  0  0  0  0  0  0
  -30.7140  -13.3220   19.9280 C   0  0  0  0  0  2  0  0  0  0  0  0
  -29.8930  -13.0390   18.6480 C   0  0  0  0  0  2  0  0  0  0  0  0
  -28.4160  -12.7690   18.9950 C   0  0  0  0  0  2  0  0  0  0  0  0
  -27.8440  -13.8070   19.9960 C   0  0  0  0  0  3  0  0  0  0  0  0
  -28.7970  -14.0530   21.1860 C   0  0  0  0  0  2  0  0  0  0  0  0
  -30.0870  -14.4760   20.6270 N   0  0  0  0  0  0  0  0  0  0  0  0
  -31.7450  -15.9430   20.2090 O   0  0  0  0  0  0  0  0  0  0  0  0
  -29.6360  -16.8490   20.4720 N   0  0  0  0  0  0  0  0  0  0  0  0
  -28.7200  -16.5440   20.7660 H   0  0  0  0  0  0  0  0  0  0  0  0
  -25.4140  -14.3010   20.6410 C   0  0  0  0  0  0  0  0  0  0  0  0
  -24.3630  -13.4860   20.9630 C   0  0  0  0  0  0  0  0  0  0  0  0
  -24.8730  -12.1520   20.9300 C   0  0  0  0  0  0  0  0  0  0  0  0
  -26.4950  -13.4600   20.4320 N   0  0  0  0  0  0  0  0  0  0  0  0
  -26.1760  -12.1620   20.6700 N   0  0  0  0  0  0  0  0  0  0  0  0
  -24.1830  -10.8640   21.0740 C   0  0  0  0  0  0  0  0  0  0  0  0
  -24.5600   -9.9290   22.0640 C   0  0  0  0  0  3  0  0  0  0  0  0
  -23.8660   -8.7050   22.1950 C   0  0  0  0  0  3  0  0  0  0  0  0
  -22.7820   -8.4080   21.3350 C   0  0  0  0  0  0  0  0  0  0  0  0
  -22.4270   -9.3320   20.3360 C   0  0  0  0  0  3  0  0  0  0  0  0
  -23.1210  -10.5460   20.2040 C   0  0  0  0  0  3  0  0  0  0  0  0
  -22.0670   -7.2350   21.3730 O   0  0  0  0  0  0  0  0  0  0  0  0
  -21.8680   -6.5520   22.5450 C   0  0  0  0  0  0  0  0  0  0  0  0
  -21.1540   -7.1170   23.6250 C   0  0  0  0  0  3  0  0  0  0  0  0
  -20.9120   -6.3540   24.7850 C   0  0  0  0  0  3  0  0  0  0  0  0
  -21.3720   -5.0250   24.8640 C   0  0  0  0  0  0  0  0  0  0  0  0
  -22.0770   -4.4600   23.7870 C   0  0  0  0  0  3  0  0  0  0  0  0
  -22.3210   -5.2200   22.6290 C   0  0  0  0  0  0  0  0  0  0  0  0
  -22.9820   -4.6630   21.5870 F   0  0  0  0  0  0  0  0  0  0  0  0
  -21.1320   -4.2890   25.9740 F   0  0  0  0  0  0  0  0  0  0  0  0
  -22.9420  -13.9130   21.1860 C   0  0  0  0  0  0  0  0  0  0  0  0
  -22.2040  -13.1800   22.0120 N   0  0  0  0  0  0  0  0  0  0  0  0
  -22.4910  -14.9310   20.6610 O   0  0  0  0  0  0  0  0  0  0  0  0
  -22.5800  -12.3570   22.4600 H   0  0  0  0  0  0  0  0  0  0  0  0
  -21.2480  -13.4470   22.2030 H   0  0  0  0  0  0  0  0  0  0  0  0
  -25.5370  -15.6780   20.4840 N   0  0  0  0  0  0  0  0  0  0  0  0
  -24.7370  -16.2980   20.5520 H   0  0  0  0  0  0  0  0  0  0  0  0
  -26.3650  -16.1420   20.1340 H   0  0  0  0  0  0  0  0  0  0  0  0
  -31.0730  -21.8800   21.0370 N   0  0  0  0  0  4  0  0  0  0  0  0
  -30.8320  -21.8160   22.0090 H   0  0  0  0  0  0  0  0  0  0  0  0
  -30.9700  -22.8360   20.7420 H   0  0  0  0  0  0  0  0  0  0  0  0
  -32.0410  -21.6320   20.9330 H   0  0  0  0  0  0  0  0  0  0  0  0
  -28.4100  -25.5040   23.3110 C   0  0  1  0  0  0  0  0  0  0  0  0
  -27.8210  -24.6800   24.1790 F   0  0  0  0  0  0  0  0  0  0  0  0
  -29.7140  -25.5480   23.5830 F   0  0  0  0  0  0  0  0  0  0  0  0
  -27.8980  -26.7220   23.4950 F   0  0  0  0  0  0  0  0  0  0  0  0
  -27.2240  -26.7140   18.7000 O   0  0  0  0  0  0  0  0  0  0  0  0
  -24.5150  -31.9400   23.1350 C   0  0  0  0  0  0  0  0  0  0  0  0
  -26.2390  -27.6910   19.0530 C   0  0  0  0  0  0  0  0  0  0  0  0
  -22.9630  -30.8570   21.5540 C   0  0  0  0  0  3  0  0  0  0  0  0
  -24.0430  -29.4640   19.6880 C   0  0  0  0  0  0  0  0  0  0  0  0
  -25.4570  -31.0630   20.9730 C   0  0  0  0  0  2  0  0  0  0  0  0
  -25.3320  -29.7820   20.1350 C   0  0  0  0  0  0  0  0  0  0  0  0
  -26.4310  -28.9100   19.8080 C   0  0  0  0  0  3  0  0  0  0  0  0
  -24.9270  -27.4590   18.5970 C   0  0  0  0  0  3  0  0  0  0  0  0
  -23.8460  -28.3120   18.9090 C   0  0  0  0  0  3  0  0  0  0  0  0
  -22.9000  -30.3880   20.0750 C   0  0  0  0  0  2  0  0  0  0  0  0
  -24.3430  -31.2980   21.9410 N   0  0  0  0  0  0  0  0  0  0  0  0
  -23.5560  -32.1790   23.8860 O   0  0  0  0  0  0  0  0  0  0  0  0
  -22.3970  -29.7400   22.4670 C   0  0  0  0  0  0  0  0  0  0  0  0
  -21.0760  -29.5010   22.3950 N   0  0  0  0  0  0  0  0  0  0  0  0
  -23.1460  -29.0980   23.2050 O   0  0  0  0  0  0  0  0  0  0  0  0
  -20.5200  -30.0790   21.7790 H   0  0  0  0  0  0  0  0  0  0  0  0
  -17.8130  -28.0250   22.9190 C   0  0  0  0  0  0  0  0  0  0  0  0
  -20.3530  -28.4630   23.1320 C   0  0  0  0  0  3  0  0  0  0  0  0
  -20.5400  -27.0780   22.4710 C   0  0  0  0  0  2  0  0  0  0  0  0
  -19.4330  -26.7330   21.4700 C   0  0  0  0  0  2  0  0  0  0  0  0
  -18.0660  -26.7350   22.1590 C   0  0  0  0  0  2  0  0  0  0  0  0
  -18.8860  -28.8450   23.3620 C   0  0  0  0  0  0  0  0  0  0  0  0
  -18.5900  -30.0500   24.0340 C   0  0  0  0  0  3  0  0  0  0  0  0
  -17.2570  -30.4380   24.2690 C   0  0  0  0  0  3  0  0  0  0  0  0
  -16.2010  -29.6170   23.8370 C   0  0  0  0  0  3  0  0  0  0  0  0
  -16.4800  -28.4130   23.1680 C   0  0  0  0  0  3  0  0  0  0  0  0
  -25.9220  -32.4200   23.6080 C   0  0  0  0  0  3  0  0  0  0  0  0
  -26.6370  -31.3950   24.5710 C   0  0  1  0  0  0  0  0  0  0  0  0
  -25.7640  -30.9520   25.7680 C   0  0  0  0  0  1  0  0  0  0  0  0
  -27.0610  -30.1220   23.8010 C   0  0  0  0  0  1  0  0  0  0  0  0
  -27.9350  -32.0220   25.1340 C   0  0  0  0  0  1  0  0  0  0  0  0
  -25.7500  -33.7180   24.2770 N   0  0  0  0  0  0  0  0  0  0  0  0
  -26.0200  -34.9060   23.7200 C   0  0  0  0  0  0  0  0  0  0  0  0
  -26.5090  -35.0190   22.5930 O   0  0  0  0  0  0  0  0  0  0  0  0
  -25.3000  -33.7040   25.1810 H   0  0  0  0  0  0  0  0  0  0  0  0
  -24.3830  -36.7910   24.0410 C   0  0  0  0  0  1  0  0  0  0  0  0
  -25.6970  -36.1700   24.5420 C   0  0  0  0  0  3  0  0  0  0  0  0
  -27.9770  -36.7790   25.2260 C   0  0  0  0  0  1  0  0  0  0  0  0
  -26.7720  -37.1870   24.5080 N   0  0  0  0  0  0  0  0  0  0  0  0
  -26.4480  -38.0670   24.9020 H   0  0  0  0  0  0  0  0  0  0  0  0
  1  5  1  0
  2  6  2  0
  2  4  1  0
  3  5  2  0
  4  1  2  0
  5 55  1  0
  6  3  1  0
  7  8  1  0
  7 10  1  0
  8 11  1  0
 10 12  1  0
 10  4  1  0
 11 21  1  0
 11  9  1  0
 12  9  1  0
 12 51  1  0
 13 19  1  0
 14 19  1  0
 15 16  1  0
 15 14  1  0
 17 16  1  0
 17 26  1  0
 17 18  1  0
 19 18  1  0
 20 13  2  0
 21 13  1  0
 21 22  1  0
 23 24  2  0
 24 43  1  0
 25 24  1  0
 25 28  1  0
 26 23  1  0
 26 27  1  0
 27 25  2  0
 28 29  1  0
 29 30  2  0
 31 34  1  0
 31 30  1  0
 32 31  2  0
 33 32  1  0
 33 28  2  0
 34 35  1  0
 35 40  2  0
 35 36  1  0
 36 37  2  0
 37 38  1  0
 38 42  1  0
 39 38  2  0
 40 39  1  0
 41 40  1  0
 43 44  1  0
 44 47  1  0
 44 46  1  0
 45 43  2  0
 48 49  1  0
 48 23  1  0
 50 48  1  0
 51 52  1  0
 53 51  1  0
 54 51  1  0
 55 58  1  6
 55 57  1  0
 55 56  1  0
 59 61  1  0
 59  6  1  0
 60 71  2  0
 61 66  1  0
 62 70  1  0
 62 72  1  0
 63 69  1  0
 63 65  1  0
 64 70  1  0
 65 64  1  0
 66 65  2  0
 67 68  1  0
 67 61  2  0
 68 63  2  0
 69 62  1  0
 70 60  1  0
 72 74  2  0
 73 72  1  0
 75 73  1  0
 76 85  2  0
 76 81  1  0
 77 73  1  0
 77 81  1  0
 78 77  1  0
 79 80  1  0
 79 78  1  0
 80 76  1  0
 81 82  2  0
 82 83  1  0
 84 83  2  0
 85 84  1  0
 86 60  1  0
 86 91  1  0
 86 87  1  0
 87 90  1  1
 87 88  1  0
 89 87  1  0
 91 94  1  0
 92 91  1  0
 92 96  1  0
 93 92  2  0
 96 95  1  0
 98 96  1  0
 98 99  1  0
 98 97  1  0
M  ISO  4   6 101  13 100  21 100  59 101
M  END
>  <TORSDO>  (84) 
F 19

>  <SCORE>  (84) 
-12.301

>  <name>  (84) 
83

>  <ligand_id>  (84) 
83

>  <original_smiles>  (84) 
[H]c1c([H])c([H])c2c(c1[H])C([H])([H])C([H])([H])C([H])([H])C2([H])N([H])C(=O)C1([H])N(C(=O)C([H])(N([H])C(=O)C([H])(N([H])C([H])([H])[H])C([H])([H])[H])C(C([H])([H])[H])(C([H])([H])[H])C([H])([H])[H])C([H])([H])c2c([H])c(Oc3c([H])c(C(F)(F)F)c([H])c(C4([H])C([H])([H])C([H])([H])C([H])(N([H])C(=O)N5C([H])([H])C([H])([H])C([H])([H])C([H])(n6nc(-c7c([H])c([H])c(Oc8c([H])c([H])c(F)c([H])c8F)c([H])c7[H])c(C(=O)N([H])[H])c6N([H])[H])C5([H])[H])C([H])([H])C4([H])[N+]([H])([H])[H])c3[H])c([H])c([H])c2C1([H])[H]

>  <smiles>  (84) 
[H]c1c([H])c([H])c2c(c1[H])C([H])([H])C([H])([H])C([H])([H])C2([H])N([H])C(=O)C1([H])N(C(=O)C([H])(N([H])C(=O)C([H])(N([H])C([H])([H])[H])C([H])([H])[H])C(C([H])([H])[H])(C([H])([H])[H])C([H])([H])[H])C([H])([H])c2c([H])c(Oc3c([H])c(C(F)(F)F)c([H])c(C4([H])C([H])([H])C([H])([H])C([H])(N([H])C(=O)N5C([H])([H])C([H])([H])C([H])([H])C([H])(n6nc(-c7c([H])c([H])c(Oc8c([H])c([H])c(F)c([H])c8F)c([H])c7[H])c(C(=O)N([H])[H])c6N([H])[H])C5([H])[H])C([H])([H])C4([H])[N+]([H])([H])[H])c3[H])c([H])c([H])c2C1([H])[H]

$$$$
84:0:0
     RDKit          3D

 92101  0  0  1  0  0  0  0  0999 V2000
  -27.4650  -21.4680   20.8030 C   0  0  0  0  0  3  0  0  0  0  0  0
  -27.2750  -23.9100   20.5210 C   0  0  0  0  0  3  0  0  0  0  0  0
  -28.6390  -21.3670   20.0140 C   0  0  0  0  0  0  0  0  0  0  0  0
  -26.8000  -22.6950   21.0630 C   0  0  0  0  0  0  0  0  0  0  0  0
  -28.4110  -23.9580   19.6890 C   0  0  0  0  0  0  0  0  0  0  0  0
  -29.0740  -22.6580   19.4260 C   0  0  0  0  0  0  0  0  0  0  0  0
  -25.5540  -22.7260   21.9510 C   0  0  0  0  0  1  0  0  0  0  0  0
  -30.2630  -22.6720   18.4680 C   0  0  0  0  0  1  0  0  0  0  0  0
  -29.4670  -17.2690   19.1400 C   0  0  0  0  0  3  0  0  0  0  0  0
  -30.0930  -16.7180   20.2340 C   0  0  0  0  0  0  0  0  0  0  0  0
  -28.8760  -18.7430   18.9660 C   0  0  0  0  0  2  0  0  0  0  0  0
  -30.2640  -17.7370   21.3950 C   0  0  0  0  0  2  0  0  0  0  0  0
  -29.4230  -19.0980   21.3230 C   0  0  0  0  0  2  0  0  0  0  0  0
  -29.3760  -19.8930   19.9580 C   0  0  0  0  0  3  0  0  0  0  0  0
  -30.8950  -15.3890   20.1660 C   0  0  0  0  0  0  0  0  0  0  0  0
  -30.7780  -13.0150   19.3150 C   0  0  0  0  0  2  0  0  0  0  0  0
  -29.8770  -13.0030   18.0630 C   0  0  0  0  0  2  0  0  0  0  0  0
  -28.4010  -12.8190   18.4650 C   0  0  0  0  0  2  0  0  0  0  0  0
  -27.9890  -13.7480   19.6430 C   0  0  0  0  0  3  0  0  0  0  0  0
  -29.0230  -13.7680   20.7810 C   0  0  0  0  0  2  0  0  0  0  0  0
  -30.3030  -14.1340   20.1800 N   0  0  0  0  0  0  0  0  0  0  0  0
  -32.1070  -15.4030   19.9120 O   0  0  0  0  0  0  0  0  0  0  0  0
  -25.6360  -14.3440   20.4110 C   0  0  0  0  0  0  0  0  0  0  0  0
  -24.5580  -13.5770   20.7540 C   0  0  0  0  0  0  0  0  0  0  0  0
  -24.9940  -12.2190   20.6770 C   0  0  0  0  0  0  0  0  0  0  0  0
  -26.6570  -13.4530   20.1370 N   0  0  0  0  0  0  0  0  0  0  0  0
  -26.2850  -12.1670   20.3680 N   0  0  0  0  0  0  0  0  0  0  0  0
  -24.2440  -10.9670   20.8270 C   0  0  0  0  0  0  0  0  0  0  0  0
  -24.6230   -9.9870   21.7720 C   0  0  0  0  0  3  0  0  0  0  0  0
  -23.8700   -8.8010   21.9110 C   0  0  0  0  0  3  0  0  0  0  0  0
  -22.7240   -8.5900   21.1110 C   0  0  0  0  0  0  0  0  0  0  0  0
  -22.3630   -9.5590   20.1570 C   0  0  0  0  0  3  0  0  0  0  0  0
  -23.1140  -10.7360   20.0130 C   0  0  0  0  0  3  0  0  0  0  0  0
  -21.9450   -7.4600   21.1570 O   0  0  0  0  0  0  0  0  0  0  0  0
  -21.7910   -6.7420   22.3150 C   0  0  0  0  0  0  0  0  0  0  0  0
  -21.2550   -7.3160   23.4870 C   0  0  0  0  0  3  0  0  0  0  0  0
  -21.0510   -6.5210   24.6330 C   0  0  0  0  0  3  0  0  0  0  0  0
  -21.3750   -5.1520   24.6060 C   0  0  0  0  0  0  0  0  0  0  0  0
  -21.9040   -4.5770   23.4360 C   0  0  0  0  0  3  0  0  0  0  0  0
  -22.1090   -5.3690   22.2940 C   0  0  0  0  0  0  0  0  0  0  0  0
  -22.5970   -4.8020   21.1640 F   0  0  0  0  0  0  0  0  0  0  0  0
  -21.1750   -4.3860   25.7040 F   0  0  0  0  0  0  0  0  0  0  0  0
  -23.1750  -14.0770   21.0500 C   0  0  0  0  0  0  0  0  0  0  0  0
  -22.4430  -13.3770   21.9050 N   0  0  0  0  0  0  0  0  0  0  0  0
  -22.7550  -15.1230   20.5530 O   0  0  0  0  0  0  0  0  0  0  0  0
  -22.7920  -12.5180   22.3050 H   0  0  0  0  0  0  0  0  0  0  0  0
  -21.5200  -13.7000   22.1580 H   0  0  0  0  0  0  0  0  0  0  0  0
  -25.8300  -15.7140   20.2840 N   0  0  0  0  0  0  0  0  0  0  0  0
  -25.0740  -16.3740   20.4330 H   0  0  0  0  0  0  0  0  0  0  0  0
  -26.7110  -16.1680   20.0710 H   0  0  0  0  0  0  0  0  0  0  0  0
  -28.7760  -25.3850   19.0020 C   0  0  0  0  0  2  0  0  0  0  0  0
  -28.6600  -26.7580   19.6580 O   0  0  0  0  0  0  0  0  0  0  0  0
  -24.6650  -31.8330   23.0480 C   0  0  0  0  0  0  0  0  0  0  0  0
  -27.5190  -27.6050   19.6420 C   0  0  0  0  0  0  0  0  0  0  0  0
  -23.5410  -30.4800   21.3220 C   0  0  0  0  0  3  0  0  0  0  0  0
  -25.0690  -29.1280   19.7670 C   0  0  0  0  0  0  0  0  0  0  0  0
  -26.0580  -30.9550   21.1460 C   0  0  0  0  0  2  0  0  0  0  0  0
  -26.2160  -29.6250   20.4000 C   0  0  0  0  0  0  0  0  0  0  0  0
  -27.4370  -28.8710   20.3330 C   0  0  0  0  0  3  0  0  0  0  0  0
  -26.3450  -27.1890   18.9830 C   0  0  0  0  0  3  0  0  0  0  0  0
  -25.1400  -27.9180   19.0530 C   0  0  0  0  0  3  0  0  0  0  0  0
  -23.7830  -29.9250   19.8930 C   0  0  0  0  0  2  0  0  0  0  0  0
  -24.7760  -31.1050   21.8980 N   0  0  0  0  0  0  0  0  0  0  0  0
  -23.5690  -32.0000   23.6060 O   0  0  0  0  0  0  0  0  0  0  0  0
  -22.9530  -29.3570   22.2100 C   0  0  0  0  0  0  0  0  0  0  0  0
  -21.6350  -29.1180   22.0990 N   0  0  0  0  0  0  0  0  0  0  0  0
  -23.6830  -28.7060   22.9630 O   0  0  0  0  0  0  0  0  0  0  0  0
  -21.0960  -29.6980   21.4700 H   0  0  0  0  0  0  0  0  0  0  0  0
  -18.3430  -27.6960   22.5820 C   0  0  0  0  0  0  0  0  0  0  0  0
  -20.8900  -28.0770   22.8090 C   0  0  0  0  0  3  0  0  0  0  0  0
  -21.0540  -26.7040   22.1160 C   0  0  0  0  0  2  0  0  0  0  0  0
  -19.9420  -26.4040   21.1050 C   0  0  0  0  0  2  0  0  0  0  0  0
  -18.5740  -26.4170   21.7920 C   0  0  0  0  0  2  0  0  0  0  0  0
  -19.4310  -28.4820   23.0480 C   0  0  0  0  0  0  0  0  0  0  0  0
  -19.1610  -29.6760   23.7500 C   0  0  0  0  0  3  0  0  0  0  0  0
  -17.8340  -30.0910   23.9840 C   0  0  0  0  0  3  0  0  0  0  0  0
  -16.7620  -29.3010   23.5310 C   0  0  0  0  0  3  0  0  0  0  0  0
  -17.0180  -28.1040   22.8410 C   0  0  0  0  0  3  0  0  0  0  0  0
  -25.9050  -32.5120   23.7060 C   0  0  0  0  0  3  0  0  0  0  0  0
  -25.5340  -33.8960   24.0390 N   0  0  0  0  0  0  0  0  0  0  0  0
  -25.8500  -34.9690   23.3000 C   0  0  0  0  0  0  0  0  0  0  0  0
  -26.5550  -34.8990   22.2870 O   0  0  0  0  0  0  0  0  0  0  0  0
  -24.9010  -34.0210   24.8130 H   0  0  0  0  0  0  0  0  0  0  0  0
  -24.0600  -36.6960   22.9250 C   0  0  0  0  0  1  0  0  0  0  0  0
  -25.3020  -36.3350   23.7560 C   0  0  0  0  0  3  0  0  0  0  0  0
  -27.3840  -37.2960   24.6330 C   0  0  0  0  0  1  0  0  0  0  0  0
  -26.2950  -37.4300   23.6700 N   0  0  0  0  0  0  0  0  0  0  0  0
  -25.8470  -38.3300   23.8210 H   0  0  0  0  0  0  0  0  0  0  0  0
  -26.4140  -31.7510   24.9910 C   0  0  1  0  0  0  0  0  0  0  0  0
  -25.3050  -31.4650   26.0280 C   0  0  0  0  0  1  0  0  0  0  0  0
  -27.0490  -30.3950   24.6040 C   0  0  0  0  0  1  0  0  0  0  0  0
  -27.5290  -32.5730   25.6810 C   0  0  0  0  0  1  0  0  0  0  0  0
  1  4  1  0
  2  4  2  0
  3  1  2  0
  4  7  1  0
  5  2  1  0
  6  5  2  0
  6  3  1  0
  8  6  1  0
  9 10  2  0
 10 12  1  0
 11  9  1  0
 11 14  1  0
 13 12  1  0
 14  3  1  0
 14 13  1  0
 15 21  1  0
 15 10  1  0
 16 21  1  0
 17 18  1  0
 17 16  1  0
 19 18  1  0
 19 26  1  0
 19 20  1  0
 21 20  1  0
 22 15  2  0
 23 24  2  0
 24 43  1  0
 25 24  1  0
 25 28  1  0
 26 27  1  0
 26 23  1  0
 27 25  2  0
 28 29  1  0
 29 30  2  0
 31 34  1  0
 31 30  1  0
 32 31  2  0
 33 32  1  0
 33 28  2  0
 34 35  1  0
 35 36  1  0
 36 37  2  0
 38 37  1  0
 38 42  1  0
 39 38  2  0
 40 35  2  0
 40 39  1  0
 41 40  1  0
 43 44  1  0
 44 47  1  0
 44 46  1  0
 45 43  2  0
 48 23  1  0
 48 49  1  0
 50 48  1  0
 51 52  1  0
 51  5  1  0
 53 64  2  0
 54 52  1  0
 54 59  1  0
 55 63  1  0
 55 65  1  0
 56 62  1  0
 56 58  1  0
 57 63  1  0
 58 57  1  0
 59 58  2  0
 60 61  1  0
 60 54  2  0
 61 56  2  0
 62 55  1  0
 63 53  1  0
 65 67  2  0
 66 65  1  0
 68 66  1  0
 69 78  2  0
 69 74  1  0
 70 66  1  0
 70 74  1  0
 71 70  1  0
 72 73  1  0
 72 71  1  0
 73 69  1  0
 74 75  2  0
 75 76  1  0
 77 76  2  0
 78 77  1  0
 79 53  1  0
 79 80  1  0
 79 89  1  0
 80 83  1  0
 81 85  1  0
 81 80  1  0
 82 81  2  0
 85 84  1  0
 87 85  1  0
 87 88  1  0
 87 86  1  0
 89 92  1  1
 89 90  1  0
 91 89  1  0
M  ISO  4  10 100  15 100  51 101  52 101
M  END
>  <TORSDO>  (85) 
F 18

>  <SCORE>  (85) 
-11.877

>  <name>  (85) 
84

>  <ligand_id>  (85) 
84

>  <original_smiles>  (85) 
[H]C1=C(C(=O)N2C([H])([H])C([H])([H])C([H])([H])C([H])(n3nc(-c4c([H])c([H])c(Oc5c([H])c([H])c(F)c([H])c5F)c([H])c4[H])c(C(=O)N([H])[H])c3N([H])[H])C2([H])[H])C([H])([H])C([H])([H])C([H])(c2c([H])c(C([H])([H])[H])c([H])c(C([H])([H])Oc3c([H])c([H])c4c(c3[H])C([H])([H])N(C(=O)C([H])(N([H])C(=O)C([H])(N([H])C([H])([H])[H])C([H])([H])[H])C(C([H])([H])[H])(C([H])([H])[H])C([H])([H])[H])C([H])(C(=O)N([H])C3([H])c5c([H])c([H])c([H])c([H])c5C([H])([H])C([H])([H])C3([H])[H])C4([H])[H])c2C([H])([H])[H])C1([H])[H]

>  <smiles>  (85) 
[H]C1=C(C(=O)N2C([H])([H])C([H])([H])C([H])([H])C([H])(n3nc(-c4c([H])c([H])c(Oc5c([H])c([H])c(F)c([H])c5F)c([H])c4[H])c(C(=O)N([H])[H])c3N([H])[H])C2([H])[H])C([H])([H])C([H])([H])C([H])(c2c([H])c(C([H])([H])[H])c([H])c(C([H])([H])Oc3c([H])c([H])c4c(c3[H])C([H])([H])N(C(=O)C([H])(N([H])C(=O)C([H])(N([H])C([H])([H])[H])C([H])([H])[H])C(C([H])([H])[H])(C([H])([H])[H])C([H])([H])[H])C([H])(C(=O)N([H])C3([H])c5c([H])c([H])c([H])c([H])c5C([H])([H])C([H])([H])C3([H])[H])C4([H])[H])c2C([H])([H])[H])C1([H])[H]

$$$$
85:0:0
     RDKit          3D

 94103  0  0  1  0  0  0  0  0999 V2000
  -27.6700  -22.3810   21.0440 C   0  0  0  0  0  3  0  0  0  0  0  0
  -26.8280  -23.4090   21.5290 C   0  0  0  0  0  0  0  0  0  0  0  0
  -28.7850  -22.6590   20.2420 C   0  0  0  0  0  0  0  0  0  0  0  0
  -27.0660  -24.7890   21.2440 C   0  0  0  0  0  0  0  0  0  0  0  0
  -28.9570  -24.0850   19.8810 C   0  0  0  0  0  0  0  0  0  0  0  0
  -28.0990  -25.2000   20.3380 C   0  0  0  0  0  0  0  0  0  0  0  0
  -25.6540  -22.9760   22.3970 C   0  0  0  0  0  1  0  0  0  0  0  0
  -26.2060  -25.8220   21.9750 C   0  0  0  0  0  1  0  0  0  0  0  0
  -30.1300  -24.4360   18.9840 C   0  0  0  0  0  1  0  0  0  0  0  0
  -28.3050  -26.6130   20.0020 O   0  0  0  0  0  0  0  0  0  0  0  0
  -24.6880  -32.0100   23.3680 C   0  0  0  0  0  0  0  0  0  0  0  0
  -27.2770  -27.6060   19.9790 C   0  0  0  0  0  0  0  0  0  0  0  0
  -23.5030  -30.7710   21.5950 C   0  0  0  0  0  3  0  0  0  0  0  0
  -24.9630  -29.3270   20.0510 C   0  0  0  0  0  0  0  0  0  0  0  0
  -26.0540  -31.0450   21.4880 C   0  0  0  0  0  2  0  0  0  0  0  0
  -26.1290  -29.7200   20.7210 C   0  0  0  0  0  0  0  0  0  0  0  0
  -27.2910  -28.8710   20.6740 C   0  0  0  0  0  3  0  0  0  0  0  0
  -26.1030  -27.3130   19.2570 C   0  0  0  0  0  3  0  0  0  0  0  0
  -24.9600  -28.1380   19.3050 C   0  0  0  0  0  3  0  0  0  0  0  0
  -23.7370  -30.2170   20.1640 C   0  0  0  0  0  2  0  0  0  0  0  0
  -24.7670  -31.2910   22.2080 N   0  0  0  0  0  0  0  0  0  0  0  0
  -23.5970  -32.2540   23.9060 O   0  0  0  0  0  0  0  0  0  0  0  0
  -22.8100  -29.6850   22.4540 C   0  0  0  0  0  0  0  0  0  0  0  0
  -21.4810  -29.5370   22.2960 N   0  0  0  0  0  0  0  0  0  0  0  0
  -23.4660  -28.9830   23.2250 O   0  0  0  0  0  0  0  0  0  0  0  0
  -21.0070  -30.1600   21.6570 H   0  0  0  0  0  0  0  0  0  0  0  0
  -18.0750  -28.3860   22.7130 C   0  0  0  0  0  0  0  0  0  0  0  0
  -20.6440  -28.5420   22.9710 C   0  0  0  0  0  3  0  0  0  0  0  0
  -20.6950  -27.1810   22.2380 C   0  0  0  0  0  2  0  0  0  0  0  0
  -19.5730  -27.0050   21.2120 C   0  0  0  0  0  2  0  0  0  0  0  0
  -18.2030  -27.1170   21.8870 C   0  0  0  0  0  2  0  0  0  0  0  0
  -19.2200  -29.0640   23.2090 C   0  0  0  0  0  0  0  0  0  0  0  0
  -19.0460  -30.2580   23.9420 C   0  0  0  0  0  3  0  0  0  0  0  0
  -17.7580  -30.7720   24.1850 C   0  0  0  0  0  3  0  0  0  0  0  0
  -16.6270  -30.0890   23.7050 C   0  0  0  0  0  3  0  0  0  0  0  0
  -16.7860  -28.8980   22.9750 C   0  0  0  0  0  3  0  0  0  0  0  0
  -25.9620  -32.5780   24.0640 C   0  0  0  0  0  3  0  0  0  0  0  0
  -25.6810  -33.9730   24.4420 N   0  0  0  0  0  0  0  0  0  0  0  0
  -26.0680  -35.0470   23.7410 C   0  0  0  0  0  0  0  0  0  0  0  0
  -26.7670  -34.9660   22.7280 O   0  0  0  0  0  0  0  0  0  0  0  0
  -25.0670  -34.1110   25.2320 H   0  0  0  0  0  0  0  0  0  0  0  0
  -24.4070  -36.9090   23.4150 C   0  0  0  0  0  1  0  0  0  0  0  0
  -25.6090  -36.4300   24.2440 C   0  0  0  0  0  3  0  0  0  0  0  0
  -27.7380  -37.2170   25.1820 C   0  0  0  0  0  1  0  0  0  0  0  0
  -26.6770  -37.4550   24.2070 N   0  0  0  0  0  0  0  0  0  0  0  0
  -26.2930  -38.3800   24.3770 H   0  0  0  0  0  0  0  0  0  0  0  0
  -26.4010  -31.7420   25.3300 C   0  0  1  0  0  0  0  0  0  0  0  0
  -25.2570  -31.4980   26.3420 C   0  0  0  0  0  1  0  0  0  0  0  0
  -26.9600  -30.3640   24.9100 C   0  0  0  0  0  1  0  0  0  0  0  0
  -27.5460  -32.4750   26.0690 C   0  0  0  0  0  1  0  0  0  0  0  0
  -29.7690  -21.4460   19.7900 C   0  0  0  0  0  2  0  0  0  0  0  0
  -30.9540  -15.3440   20.3040 C   0  0  0  0  0  0  0  0  0  0  0  0
  -30.7940  -13.0140   19.3590 C   0  0  0  0  0  2  0  0  0  0  0  0
  -29.8780  -12.9540   18.1190 C   0  0  0  0  0  2  0  0  0  0  0  0
  -28.4120  -12.7550   18.5390 C   0  0  0  0  0  2  0  0  0  0  0  0
  -27.9880  -13.6830   19.7100 C   0  0  0  0  0  3  0  0  0  0  0  0
  -29.0340  -13.7240   20.8430 C   0  0  0  0  0  2  0  0  0  0  0  0
  -30.3020  -14.1210   20.2250 N   0  0  0  0  0  0  0  0  0  0  0  0
  -32.1730  -15.3240   20.1050 O   0  0  0  0  0  0  0  0  0  0  0  0
  -30.4580  -19.0520   19.0660 C   0  0  0  0  0  3  0  0  0  0  0  0
  -29.7760  -19.8100   19.9580 C   0  0  0  0  0  0  0  0  0  0  0  0
  -29.1710  -18.9440   21.0840 C   0  0  0  0  0  2  0  0  0  0  0  0
  -29.7010  -17.4120   21.2740 C   0  0  0  0  0  2  0  0  0  0  0  0
  -30.6780  -17.5000   19.0050 C   0  0  0  0  0  3  0  0  0  0  0  0
  -30.1070  -16.9720   17.6770 C   0  0  0  0  0  1  0  0  0  0  0  0
  -30.2630  -16.5860   20.1370 N   0  0  0  0  0  0  0  0  0  0  0  0
  -25.5960  -14.2220   20.4370 C   0  0  0  0  0  0  0  0  0  0  0  0
  -24.5380  -13.4290   20.7850 C   0  0  0  0  0  0  0  0  0  0  0  0
  -25.0210  -12.0850   20.7470 C   0  0  0  0  0  0  0  0  0  0  0  0
  -26.6520  -13.3610   20.1990 N   0  0  0  0  0  0  0  0  0  0  0  0
  -26.3170  -12.0700   20.4540 N   0  0  0  0  0  0  0  0  0  0  0  0
  -24.3090  -10.8110   20.9140 C   0  0  0  0  0  0  0  0  0  0  0  0
  -24.6940   -9.8710   21.8950 C   0  0  0  0  0  3  0  0  0  0  0  0
  -23.9810   -8.6620   22.0480 C   0  0  0  0  0  3  0  0  0  0  0  0
  -22.8690   -8.3840   21.2190 C   0  0  0  0  0  0  0  0  0  0  0  0
  -22.5030   -9.3130   20.2290 C   0  0  0  0  0  3  0  0  0  0  0  0
  -23.2170  -10.5130   20.0740 C   0  0  0  0  0  3  0  0  0  0  0  0
  -22.1310   -7.2270   21.2810 O   0  0  0  0  0  0  0  0  0  0  0  0
  -21.9300   -6.5630   22.4650 C   0  0  0  0  0  0  0  0  0  0  0  0
  -21.2900   -7.1780   23.5640 C   0  0  0  0  0  3  0  0  0  0  0  0
  -21.0420   -6.4380   24.7370 C   0  0  0  0  0  3  0  0  0  0  0  0
  -21.4220   -5.0840   24.8090 C   0  0  0  0  0  0  0  0  0  0  0  0
  -22.0530   -4.4700   23.7150 C   0  0  0  0  0  3  0  0  0  0  0  0
  -22.3030   -5.2060   22.5450 C   0  0  0  0  0  0  0  0  0  0  0  0
  -22.8920   -4.6040   21.4830 F   0  0  0  0  0  0  0  0  0  0  0  0
  -21.1780   -4.3700   25.9330 F   0  0  0  0  0  0  0  0  0  0  0  0
  -23.1310  -13.8840   21.0400 C   0  0  0  0  0  0  0  0  0  0  0  0
  -22.4050  -13.1810   21.9010 N   0  0  0  0  0  0  0  0  0  0  0  0
  -22.6850  -14.9010   20.5110 O   0  0  0  0  0  0  0  0  0  0  0  0
  -22.7780  -12.3590   22.3530 H   0  0  0  0  0  0  0  0  0  0  0  0
  -21.4610  -13.4730   22.1120 H   0  0  0  0  0  0  0  0  0  0  0  0
  -25.7470  -15.5970   20.2780 N   0  0  0  0  0  0  0  0  0  0  0  0
  -24.9770  -16.2450   20.3930 H   0  0  0  0  0  0  0  0  0  0  0  0
  -26.6020  -16.0510   19.9810 H   0  0  0  0  0  0  0  0  0  0  0  0
  1  2  1  0
  2  7  1  0
  3  1  2  0
  4  2  2  0
  4  8  1  0
  5  3  1  0
  5  6  2  0
  6  4  1  0
  9  5  1  0
 10  6  1  0
 11 22  2  0
 12 10  1  0
 12 17  1  0
 13 21  1  0
 13 23  1  0
 14 20  1  0
 14 16  1  0
 15 21  1  0
 16 15  1  0
 17 16  2  0
 18 19  1  0
 18 12  2  0
 19 14  2  0
 20 13  1  0
 21 11  1  0
 23 25  2  0
 24 23  1  0
 26 24  1  0
 27 36  2  0
 27 32  1  0
 28 24  1  0
 28 32  1  0
 29 28  1  0
 30 31  1  0
 30 29  1  0
 31 27  1  0
 32 33  2  0
 33 34  1  0
 35 34  2  0
 36 35  1  0
 37 11  1  0
 37 38  1  0
 37 47  1  0
 38 41  1  0
 39 43  1  0
 39 38  1  0
 40 39  2  0
 43 42  1  0
 45 43  1  0
 45 46  1  0
 45 44  1  0
 47 50  1  1
 47 48  1  0
 49 47  1  0
 51 61  1  0
 51  3  1  0
 53 58  1  0
 54 55  1  0
 54 53  1  0
 56 55  1  0
 56 70  1  0
 56 57  1  0
 58 52  1  0
 58 57  1  0
 59 52  2  0
 60 61  2  0
 61 62  1  0
 62 63  1  0
 64 65  1  0
 64 60  1  0
 64 66  1  0
 66 52  1  0
 66 63  1  0
 67 68  2  0
 68 87  1  0
 69 68  1  0
 69 72  1  0
 70 67  1  0
 70 71  1  0
 71 69  2  0
 72 73  1  0
 73 74  2  0
 75 78  1  0
 75 74  1  0
 76 75  2  0
 77 76  1  0
 77 72  2  0
 78 79  1  0
 79 84  2  0
 79 80  1  0
 80 81  2  0
 81 82  1  0
 82 86  1  0
 83 82  2  0
 84 83  1  0
 85 84  1  0
 87 88  1  0
 88 91  1  0
 88 90  1  0
 89 87  2  0
 92 93  1  0
 92 67  1  0
 94 92  1  0
M  ISO  4   6 101  10 101  52 100  66 100
M  END
>  <TORSDO>  (86) 
F 17

>  <SCORE>  (86) 
-12.801

>  <name>  (86) 
85

>  <ligand_id>  (86) 
85

>  <original_smiles>  (86) 
[H]C1=C(C([H])([H])c2c([H])c(C([H])([H])[H])c(C([H])([H])[H])c(Oc3c([H])c([H])c4c(c3[H])C([H])([H])N(C(=O)C([H])(N([H])C(=O)C([H])(N([H])C([H])([H])[H])C([H])([H])[H])C(C([H])([H])[H])(C([H])([H])[H])C([H])([H])[H])C([H])(C(=O)N([H])C3([H])c5c([H])c([H])c([H])c([H])c5C([H])([H])C([H])([H])C3([H])[H])C4([H])[H])c2C([H])([H])[H])C([H])([H])C([H])([H])N(C(=O)N2C([H])([H])C([H])([H])C([H])([H])C([H])(n3nc(-c4c([H])c([H])c(Oc5c([H])c([H])c(F)c([H])c5F)c([H])c4[H])c(C(=O)N([H])[H])c3N([H])[H])C2([H])[H])C1([H])C([H])([H])[H]

>  <smiles>  (86) 
[H]C1=C(C([H])([H])c2c([H])c(C([H])([H])[H])c(C([H])([H])[H])c(Oc3c([H])c([H])c4c(c3[H])C([H])([H])N(C(=O)C([H])(N([H])C(=O)C([H])(N([H])C([H])([H])[H])C([H])([H])[H])C(C([H])([H])[H])(C([H])([H])[H])C([H])([H])[H])C([H])(C(=O)N([H])C3([H])c5c([H])c([H])c([H])c([H])c5C([H])([H])C([H])([H])C3([H])[H])C4([H])[H])c2C([H])([H])[H])C([H])([H])C([H])([H])N(C(=O)N2C([H])([H])C([H])([H])C([H])([H])C([H])(n3nc(-c4c([H])c([H])c(Oc5c([H])c([H])c(F)c([H])c5F)c([H])c4[H])c(C(=O)N([H])[H])c3N([H])[H])C2([H])[H])C1([H])C([H])([H])[H]

$$$$
86:0:0
     RDKit          3D

 94102  0  0  1  0  0  0  0  0999 V2000
  -26.3570  -23.5130   19.9310 C   0  0  0  0  0  3  0  0  0  0  0  0
  -27.0520  -24.4610   19.1480 C   0  0  0  0  0  3  0  0  0  0  0  0
  -28.6720  -24.7580   20.8830 C   0  0  0  0  0  0  0  0  0  0  0  0
  -26.7140  -23.3460   21.2820 C   0  0  0  0  0  0  0  0  0  0  0  0
  -28.0260  -25.3080   19.7360 C   0  0  0  0  0  0  0  0  0  0  0  0
  -27.9210  -23.9110   21.7310 C   0  0  0  0  0  0  0  0  0  0  0  0
  -25.8620  -22.5080   22.2210 C   0  0  0  0  0  1  0  0  0  0  0  0
  -28.3640  -23.5970   22.9750 F   0  0  0  0  0  0  0  0  0  0  0  0
  -30.1270  -24.9140   21.1520 C   0  0  0  0  0  0  0  0  0  0  0  0
  -30.6570  -25.9870   21.4540 O   0  0  0  0  0  0  0  0  0  0  0  0
  -31.0280  -23.6610   20.9030 C   0  0  0  0  0  3  0  0  0  0  0  0
  -30.7080  -22.3720   21.7250 C   0  0  0  0  0  3  0  0  0  0  0  0
  -31.5650  -21.1150   21.4100 C   0  0  0  0  0  2  0  0  0  0  0  0
  -30.8680  -20.0360   20.5200 C   0  0  0  0  0  2  0  0  0  0  0  0
  -30.6220  -18.6450   21.1870 C   0  0  0  0  0  2  0  0  0  0  0  0
  -31.0080  -17.3900   20.3440 C   0  0  0  0  0  2  0  0  0  0  0  0
  -30.4900  -16.0260   20.9260 C   0  0  0  0  0  2  0  0  0  0  0  0
  -31.1560  -14.7410   20.3360 C   0  0  0  0  0  0  0  0  0  0  0  0
  -30.8840  -12.4700   19.4000 C   0  0  0  0  0  2  0  0  0  0  0  0
  -29.9880  -12.5850   18.1490 C   0  0  0  0  0  2  0  0  0  0  0  0
  -28.5000  -12.4770   18.5420 C   0  0  0  0  0  2  0  0  0  0  0  0
  -28.1230  -13.4200   19.7180 C   0  0  0  0  0  3  0  0  0  0  0  0
  -29.1510  -13.3040   20.8680 C   0  0  0  0  0  2  0  0  0  0  0  0
  -30.4890  -13.5500   20.3140 N   0  0  0  0  0  0  0  0  0  0  0  0
  -32.2690  -14.8540   19.8110 O   0  0  0  0  0  0  0  0  0  0  0  0
  -25.7400  -14.0950   20.4220 C   0  0  0  0  0  0  0  0  0  0  0  0
  -24.6460  -13.3620   20.7860 C   0  0  0  0  0  0  0  0  0  0  0  0
  -25.0630  -11.9950   20.7550 C   0  0  0  0  0  0  0  0  0  0  0  0
  -26.7560  -13.1860   20.1840 N   0  0  0  0  0  0  0  0  0  0  0  0
  -26.3510  -11.9130   20.4460 N   0  0  0  0  0  0  0  0  0  0  0  0
  -24.2910  -10.7600   20.9410 C   0  0  0  0  0  0  0  0  0  0  0  0
  -24.6750   -9.7820   21.8860 C   0  0  0  0  0  3  0  0  0  0  0  0
  -23.9040   -8.6130   22.0620 C   0  0  0  0  0  3  0  0  0  0  0  0
  -22.7330   -8.4120   21.2930 C   0  0  0  0  0  0  0  0  0  0  0  0
  -22.3660   -9.3780   20.3360 C   0  0  0  0  0  3  0  0  0  0  0  0
  -23.1400  -10.5390   20.1600 C   0  0  0  0  0  3  0  0  0  0  0  0
  -21.9390   -7.2950   21.3770 O   0  0  0  0  0  0  0  0  0  0  0  0
  -21.8310   -6.5690   22.5380 C   0  0  0  0  0  0  0  0  0  0  0  0
  -21.3970   -7.1610   23.7440 C   0  0  0  0  0  3  0  0  0  0  0  0
  -21.2300   -6.3670   24.8950 C   0  0  0  0  0  3  0  0  0  0  0  0
  -21.4880   -4.9830   24.8420 C   0  0  0  0  0  0  0  0  0  0  0  0
  -21.9140   -4.3930   23.6420 C   0  0  0  0  0  3  0  0  0  0  0  0
  -22.0820   -5.1840   22.4920 C   0  0  0  0  0  0  0  0  0  0  0  0
  -22.4720   -4.6050   21.3300 F   0  0  0  0  0  0  0  0  0  0  0  0
  -21.3230   -4.2200   25.9480 F   0  0  0  0  0  0  0  0  0  0  0  0
  -23.2650  -13.8870   21.0610 C   0  0  0  0  0  0  0  0  0  0  0  0
  -22.5130  -13.2220   21.9320 N   0  0  0  0  0  0  0  0  0  0  0  0
  -22.8630  -14.9250   20.5350 O   0  0  0  0  0  0  0  0  0  0  0  0
  -22.8530  -12.3870   22.3830 H   0  0  0  0  0  0  0  0  0  0  0  0
  -21.5860  -13.5560   22.1520 H   0  0  0  0  0  0  0  0  0  0  0  0
  -25.9450  -15.4630   20.2520 N   0  0  0  0  0  0  0  0  0  0  0  0
  -25.1920  -16.1330   20.3580 H   0  0  0  0  0  0  0  0  0  0  0  0
  -26.8180  -15.8850   19.9650 H   0  0  0  0  0  0  0  0  0  0  0  0
  -28.2320  -26.6230   19.2650 O   0  0  0  0  0  0  0  0  0  0  0  0
  -24.8500  -31.7450   23.1110 C   0  0  0  0  0  0  0  0  0  0  0  0
  -27.1530  -27.5130   19.4130 C   0  0  0  0  0  0  0  0  0  0  0  0
  -23.5140  -30.5250   21.4420 C   0  0  0  0  0  3  0  0  0  0  0  0
  -24.8300  -29.1380   19.7760 C   0  0  0  0  0  0  0  0  0  0  0  0
  -26.0440  -30.8340   21.1170 C   0  0  0  0  0  2  0  0  0  0  0  0
  -26.0510  -29.5300   20.3370 C   0  0  0  0  0  0  0  0  0  0  0  0
  -27.2150  -28.7210   20.1700 C   0  0  0  0  0  3  0  0  0  0  0  0
  -25.9030  -27.2220   18.8060 C   0  0  0  0  0  3  0  0  0  0  0  0
  -24.7510  -27.9750   19.0180 C   0  0  0  0  0  3  0  0  0  0  0  0
  -23.6200  -30.0140   19.9900 C   0  0  0  0  0  2  0  0  0  0  0  0
  -24.8260  -31.0440   21.9440 N   0  0  0  0  0  0  0  0  0  0  0  0
  -23.8100  -31.9780   23.7420 O   0  0  0  0  0  0  0  0  0  0  0  0
  -22.9130  -29.4080   22.3300 C   0  0  0  0  0  0  0  0  0  0  0  0
  -21.5840  -29.2200   22.2480 N   0  0  0  0  0  0  0  0  0  0  0  0
  -23.6370  -28.7250   23.0610 O   0  0  0  0  0  0  0  0  0  0  0  0
  -21.0590  -29.8260   21.6330 H   0  0  0  0  0  0  0  0  0  0  0  0
  -18.2550  -27.9070   22.7540 C   0  0  0  0  0  0  0  0  0  0  0  0
  -20.8110  -28.2150   22.9770 C   0  0  0  0  0  3  0  0  0  0  0  0
  -20.9360  -26.8260   22.3090 C   0  0  0  0  0  2  0  0  0  0  0  0
  -19.8150  -26.5350   21.3060 C   0  0  0  0  0  2  0  0  0  0  0  0
  -18.4480  -26.6050   21.9930 C   0  0  0  0  0  2  0  0  0  0  0  0
  -19.3640  -28.6710   23.2020 C   0  0  0  0  0  0  0  0  0  0  0  0
  -19.1310  -29.8880   23.8790 C   0  0  0  0  0  3  0  0  0  0  0  0
  -17.8190  -30.3450   24.1060 C   0  0  0  0  0  3  0  0  0  0  0  0
  -16.7240  -29.5760   23.6750 C   0  0  0  0  0  3  0  0  0  0  0  0
  -16.9420  -28.3580   23.0080 C   0  0  0  0  0  3  0  0  0  0  0  0
  -26.1810  -32.3060   23.6900 C   0  0  0  0  0  3  0  0  0  0  0  0
  -25.8990  -33.6460   24.2220 N   0  0  0  0  0  0  0  0  0  0  0  0
  -26.1680  -34.7900   23.5810 C   0  0  0  0  0  0  0  0  0  0  0  0
  -26.7530  -34.8270   22.4950 O   0  0  0  0  0  0  0  0  0  0  0  0
  -25.3710  -33.6930   25.0810 H   0  0  0  0  0  0  0  0  0  0  0  0
  -24.4160  -36.5940   23.6030 C   0  0  0  0  0  1  0  0  0  0  0  0
  -25.7200  -36.1020   24.2510 C   0  0  0  0  0  3  0  0  0  0  0  0
  -27.9170  -36.8890   25.0140 C   0  0  0  0  0  1  0  0  0  0  0  0
  -26.7420  -37.1700   24.1920 N   0  0  0  0  0  0  0  0  0  0  0  0
  -26.3500  -38.0600   24.4930 H   0  0  0  0  0  0  0  0  0  0  0  0
  -26.8110  -31.3850   24.8060 C   0  0  1  0  0  0  0  0  0  0  0  0
  -25.8210  -31.0040   25.9300 C   0  0  0  0  0  1  0  0  0  0  0  0
  -27.3550  -30.0740   24.1940 C   0  0  0  0  0  1  0  0  0  0  0  0
  -28.0170  -32.1020   25.4590 C   0  0  0  0  0  1  0  0  0  0  0  0
  1  4  1  0
  2  5  1  0
  2  1  2  0
  3  9  1  0
  3  6  1  0
  4  6  2  0
  4  7  1  0
  5  3  2  0
  6  8  1  0
  9 10  2  0
 11  9  1  0
 11 12  2  0
 13 12  1  0
 14 15  1  0
 14 13  1  0
 16 17  1  0
 16 15  1  0
 18 17  1  0
 19 24  1  0
 20 21  1  0
 20 19  1  0
 22 21  1  0
 22 29  1  0
 22 23  1  0
 24 18  1  0
 24 23  1  0
 25 18  2  0
 26 27  2  0
 27 46  1  0
 28 27  1  0
 28 31  1  0
 29 26  1  0
 29 30  1  0
 30 28  2  0
 31 32  1  0
 32 33  2  0
 34 37  1  0
 34 33  1  0
 35 34  2  0
 36 35  1  0
 36 31  2  0
 37 38  1  0
 38 39  1  0
 39 40  2  0
 41 40  1  0
 41 45  1  0
 42 41  2  0
 43 38  2  0
 43 42  1  0
 44 43  1  0
 46 47  1  0
 47 50  1  0
 47 49  1  0
 48 46  2  0
 51 52  1  0
 51 26  1  0
 53 51  1  0
 54 56  1  0
 54  5  1  0
 55 66  2  0
 56 61  1  0
 57 65  1  0
 57 67  1  0
 58 64  1  0
 58 60  1  0
 59 65  1  0
 60 59  1  0
 61 60  2  0
 62 63  1  0
 62 56  2  0
 63 58  2  0
 64 57  1  0
 65 55  1  0
 67 69  2  0
 68 67  1  0
 70 68  1  0
 71 80  2  0
 71 76  1  0
 72 68  1  0
 72 76  1  0
 73 72  1  0
 74 75  1  0
 74 73  1  0
 75 71  1  0
 76 77  2  0
 77 78  1  0
 79 78  2  0
 80 79  1  0
 81 55  1  0
 81 82  1  0
 81 91  1  0
 82 85  1  0
 83 82  1  0
 83 87  1  0
 84 83  2  0
 87 86  1  0
 89 87  1  0
 89 90  1  0
 89 88  1  0
 91 94  1  1
 91 92  1  0
 93 91  1  0
M  ISO  4   5 101  17 100  18 100  54 101
M  END
>  <TORSDO>  (87) 
F 24

>  <SCORE>  (87) 
-10.234

>  <name>  (87) 
86

>  <ligand_id>  (87) 
86

>  <original_smiles>  (87) 
[H]c1c([H])c([H])c2c(c1[H])C([H])([H])C([H])([H])C([H])([H])C2([H])N([H])C(=O)C1([H])N(C(=O)C([H])(N([H])C(=O)C([H])(N([H])C([H])([H])[H])C([H])([H])[H])C(C([H])([H])[H])(C([H])([H])[H])C([H])([H])[H])C([H])([H])c2c([H])c(Oc3c([H])c([H])c(C([H])([H])[H])c(F)c3C(=O)C([H])([H])C([H])([H])C([H])([H])C([H])([H])C([H])([H])C([H])([H])C([H])([H])C(=O)N3C([H])([H])C([H])([H])C([H])([H])C([H])(n4nc(-c5c([H])c([H])c(Oc6c([H])c([H])c(F)c([H])c6F)c([H])c5[H])c(C(=O)N([H])[H])c4N([H])[H])C3([H])[H])c([H])c([H])c2C1([H])[H]

>  <smiles>  (87) 
[H]c1c([H])c([H])c2c(c1[H])C([H])([H])C([H])([H])C([H])([H])C2([H])N([H])C(=O)C1([H])N(C(=O)C([H])(N([H])C(=O)C([H])(N([H])C([H])([H])[H])C([H])([H])[H])C(C([H])([H])[H])(C([H])([H])[H])C([H])([H])[H])C([H])([H])c2c([H])c(Oc3c([H])c([H])c(C([H])([H])[H])c(F)c3C(=O)C([H])([H])C([H])([H])C([H])([H])C([H])([H])C([H])([H])C([H])([H])C([H])([H])C(=O)N3C([H])([H])C([H])([H])C([H])([H])C([H])(n4nc(-c5c([H])c([H])c(Oc6c([H])c([H])c(F)c([H])c6F)c([H])c5[H])c(C(=O)N([H])[H])c4N([H])[H])C3([H])[H])c([H])c([H])c2C1([H])[H]

$$$$
87:0:0
     RDKit          3D

 93102  0  0  1  0  0  0  0  0999 V2000
  -28.1850  -23.8320   22.4660 C   0  0  0  0  0  3  0  0  0  0  0  0
  -28.6990  -22.7530   21.7150 C   0  0  0  0  0  3  0  0  0  0  0  0
  -28.0440  -25.1150   21.9010 C   0  0  0  0  0  3  0  0  0  0  0  0
  -28.8950  -24.2230   19.8130 C   0  0  0  0  0  3  0  0  0  0  0  0
  -29.0620  -22.8890   20.3520 C   0  0  0  0  0  0  0  0  0  0  0  0
  -28.4120  -25.3460   20.5620 C   0  0  0  0  0  0  0  0  0  0  0  0
  -29.7180  -20.3540   19.7880 C   0  0  0  0  0  0  0  0  0  0  0  0
  -29.6730  -21.7270   19.5380 C   0  0  0  0  0  0  0  0  0  0  0  0
  -30.5120  -19.3790   18.8720 C   0  0  0  0  0  2  0  0  0  0  0  0
  -29.1630  -19.6330   21.0350 C   0  0  0  0  0  2  0  0  0  0  0  0
  -30.1890  -17.8520   18.9060 C   0  0  0  0  0  2  0  0  0  0  0  0
  -28.9450  -18.0800   20.9690 C   0  0  0  0  0  2  0  0  0  0  0  0
  -30.0890  -17.2550   20.3220 C   0  0  0  0  0  3  0  0  0  0  0  0
  -30.4370  -22.2870   18.3310 C   0  0  0  0  0  1  0  0  0  0  0  0
  -30.6340  -14.7160   20.0300 C   0  0  0  0  0  0  0  0  0  0  0  0
  -30.3850  -12.5030   18.9410 C   0  0  0  0  0  2  0  0  0  0  0  0
  -29.3790  -12.6530   17.7780 C   0  0  0  0  0  2  0  0  0  0  0  0
  -27.9310  -12.4780   18.2800 C   0  0  0  0  0  2  0  0  0  0  0  0
  -27.6320  -13.3190   19.5510 C   0  0  0  0  0  3  0  0  0  0  0  0
  -28.7450  -13.1440   20.6070 C   0  0  0  0  0  2  0  0  0  0  0  0
  -30.0200  -13.4960   19.9670 N   0  0  0  0  0  0  0  0  0  0  0  0
  -31.7890  -14.8820   19.6290 O   0  0  0  0  0  0  0  0  0  0  0  0
  -29.8280  -15.7740   20.3490 N   0  0  0  0  0  0  0  0  0  0  0  0
  -28.8950  -15.5060   20.6220 H   0  0  0  0  0  0  0  0  0  0  0  0
  -25.2760  -13.8960   20.3990 C   0  0  0  0  0  0  0  0  0  0  0  0
  -24.2330  -13.1100   20.8090 C   0  0  0  0  0  0  0  0  0  0  0  0
  -24.7010  -11.7620   20.7330 C   0  0  0  0  0  0  0  0  0  0  0  0
  -26.3120  -13.0250   20.0980 N   0  0  0  0  0  0  0  0  0  0  0  0
  -25.9740  -11.7360   20.3600 N   0  0  0  0  0  0  0  0  0  0  0  0
  -23.9930  -10.4920   20.9350 C   0  0  0  0  0  0  0  0  0  0  0  0
  -24.4470   -9.5340   21.8690 C   0  0  0  0  0  3  0  0  0  0  0  0
  -23.7370   -8.3290   22.0590 C   0  0  0  0  0  3  0  0  0  0  0  0
  -22.5610   -8.0720   21.3150 C   0  0  0  0  0  0  0  0  0  0  0  0
  -22.1280   -9.0190   20.3700 C   0  0  0  0  0  3  0  0  0  0  0  0
  -22.8370  -10.2160   20.1780 C   0  0  0  0  0  3  0  0  0  0  0  0
  -21.8210   -6.9190   21.4150 O   0  0  0  0  0  0  0  0  0  0  0  0
  -21.7490   -6.2100   22.5870 C   0  0  0  0  0  0  0  0  0  0  0  0
  -21.2790   -6.7940   23.7830 C   0  0  0  0  0  3  0  0  0  0  0  0
  -21.1550   -6.0100   24.9480 C   0  0  0  0  0  3  0  0  0  0  0  0
  -21.4890   -4.6430   24.9160 C   0  0  0  0  0  0  0  0  0  0  0  0
  -21.9520   -4.0580   23.7240 C   0  0  0  0  0  3  0  0  0  0  0  0
  -22.0780   -4.8390   22.5610 C   0  0  0  0  0  0  0  0  0  0  0  0
  -22.5040   -4.2660   21.4100 F   0  0  0  0  0  0  0  0  0  0  0  0
  -21.3630   -3.8880   26.0310 F   0  0  0  0  0  0  0  0  0  0  0  0
  -22.8480  -13.5730   21.1560 C   0  0  0  0  0  0  0  0  0  0  0  0
  -22.1660  -12.8570   22.0440 N   0  0  0  0  0  0  0  0  0  0  0  0
  -22.3790  -14.6050   20.6760 O   0  0  0  0  0  0  0  0  0  0  0  0
  -22.5590  -12.0230   22.4540 H   0  0  0  0  0  0  0  0  0  0  0  0
  -21.2390  -13.1480   22.3180 H   0  0  0  0  0  0  0  0  0  0  0  0
  -25.4230  -15.2700   20.2360 N   0  0  0  0  0  0  0  0  0  0  0  0
  -24.6510  -15.9100   20.3920 H   0  0  0  0  0  0  0  0  0  0  0  0
  -26.2340  -15.7210   19.8370 H   0  0  0  0  0  0  0  0  0  0  0  0
  -28.3940  -26.6530   20.0470 O   0  0  0  0  0  0  0  0  0  0  0  0
  -24.6420  -31.9180   23.2420 C   0  0  0  0  0  0  0  0  0  0  0  0
  -27.2470  -27.4410   20.1100 C   0  0  0  0  0  0  0  0  0  0  0  0
  -23.4200  -30.5250   21.6030 C   0  0  0  0  0  3  0  0  0  0  0  0
  -24.8600  -28.9920   20.1510 C   0  0  0  0  0  0  0  0  0  0  0  0
  -25.9480  -30.8740   21.3820 C   0  0  0  0  0  2  0  0  0  0  0  0
  -26.0290  -29.5010   20.7320 C   0  0  0  0  0  0  0  0  0  0  0  0
  -27.2260  -28.7330   20.7070 C   0  0  0  0  0  3  0  0  0  0  0  0
  -26.0610  -26.9660   19.5160 C   0  0  0  0  0  3  0  0  0  0  0  0
  -24.8740  -27.7270   19.5370 C   0  0  0  0  0  3  0  0  0  0  0  0
  -23.6160  -29.8560   20.2180 C   0  0  0  0  0  2  0  0  0  0  0  0
  -24.6900  -31.1220   22.1330 N   0  0  0  0  0  0  0  0  0  0  0  0
  -23.5670  -32.1850   23.7960 O   0  0  0  0  0  0  0  0  0  0  0  0
  -22.7790  -29.5000   22.5660 C   0  0  0  0  0  0  0  0  0  0  0  0
  -21.4530  -29.3100   22.4500 N   0  0  0  0  0  0  0  0  0  0  0  0
  -23.4710  -28.8770   23.3760 O   0  0  0  0  0  0  0  0  0  0  0  0
  -20.9540  -29.8660   21.7700 H   0  0  0  0  0  0  0  0  0  0  0  0
  -18.0950  -28.0710   22.9520 C   0  0  0  0  0  0  0  0  0  0  0  0
  -20.6490  -28.3610   23.2200 C   0  0  0  0  0  3  0  0  0  0  0  0
  -20.7680  -26.9300   22.6440 C   0  0  0  0  0  2  0  0  0  0  0  0
  -19.6700  -26.5950   21.6300 C   0  0  0  0  0  2  0  0  0  0  0  0
  -18.2860  -26.7230   22.2770 C   0  0  0  0  0  2  0  0  0  0  0  0
  -19.2040  -28.8460   23.3800 C   0  0  0  0  0  0  0  0  0  0  0  0
  -18.9710  -30.1080   23.9710 C   0  0  0  0  0  3  0  0  0  0  0  0
  -17.6600  -30.5920   24.1400 C   0  0  0  0  0  3  0  0  0  0  0  0
  -16.5650  -29.8140   23.7280 C   0  0  0  0  0  3  0  0  0  0  0  0
  -16.7830  -28.5550   23.1390 C   0  0  0  0  0  3  0  0  0  0  0  0
  -25.9340  -32.5480   23.8500 C   0  0  0  0  0  3  0  0  0  0  0  0
  -25.6270  -33.9430   24.1950 N   0  0  0  0  0  0  0  0  0  0  0  0
  -25.9470  -35.0020   23.4400 C   0  0  0  0  0  0  0  0  0  0  0  0
  -26.6030  -34.9090   22.3990 O   0  0  0  0  0  0  0  0  0  0  0  0
  -25.0440  -34.0900   25.0060 H   0  0  0  0  0  0  0  0  0  0  0  0
  -24.2110  -36.7930   23.1240 C   0  0  0  0  0  1  0  0  0  0  0  0
  -25.4640  -36.3860   23.9160 C   0  0  0  0  0  3  0  0  0  0  0  0
  -27.6060  -37.2690   24.7230 C   0  0  0  0  0  1  0  0  0  0  0  0
  -26.4910  -37.4420   23.7950 N   0  0  0  0  0  0  0  0  0  0  0  0
  -26.0860  -38.3610   23.9550 H   0  0  0  0  0  0  0  0  0  0  0  0
  -26.4700  -31.7680   25.1130 C   0  0  1  0  0  0  0  0  0  0  0  0
  -25.3920  -31.5200   26.1940 C   0  0  0  0  0  1  0  0  0  0  0  0
  -27.0510  -30.3960   24.7000 C   0  0  0  0  0  1  0  0  0  0  0  0
  -27.6270  -32.5610   25.7660 C   0  0  0  0  0  1  0  0  0  0  0  0
  2  1  2  0
  3  1  1  0
  4  5  2  0
  4  6  1  0
  5  2  1  0
  6  3  2  0
  7 10  1  0
  8  7  2  0
  8  5  1  0
  9 11  1  0
  9  7  1  0
 11 13  1  0
 12 10  1  0
 13 23  1  0
 13 12  1  0
 14  8  1  0
 15 23  1  0
 16 21  1  0
 17 18  1  0
 17 16  1  0
 19 18  1  0
 19 28  1  0
 19 20  1  0
 21 15  1  0
 21 20  1  0
 22 15  2  0
 23 24  1  0
 25 26  2  0
 26 45  1  0
 27 26  1  0
 27 30  1  0
 28 29  1  0
 28 25  1  0
 29 27  2  0
 30 31  1  0
 31 32  2  0
 33 36  1  0
 33 32  1  0
 34 33  2  0
 35 34  1  0
 35 30  2  0
 36 37  1  0
 37 38  1  0
 38 39  2  0
 40 39  1  0
 40 44  1  0
 41 40  2  0
 42 37  2  0
 42 41  1  0
 43 42  1  0
 45 46  1  0
 46 49  1  0
 46 48  1  0
 47 45  2  0
 50 51  1  0
 50 25  1  0
 52 50  1  0
 53 55  1  0
 53  6  1  0
 54 65  2  0
 55 60  1  0
 56 64  1  0
 56 66  1  0
 57 63  1  0
 57 59  1  0
 58 64  1  0
 59 58  1  0
 60 59  2  0
 61 62  1  0
 61 55  2  0
 62 57  2  0
 63 56  1  0
 64 54  1  0
 66 68  2  0
 67 66  1  0
 69 67  1  0
 70 79  2  0
 70 75  1  0
 71 67  1  0
 71 75  1  0
 72 71  1  0
 73 74  1  0
 73 72  1  0
 74 70  1  0
 75 76  2  0
 76 77  1  0
 78 77  2  0
 79 78  1  0
 80 54  1  0
 80 81  1  0
 80 90  1  0
 81 84  1  0
 82 86  1  0
 82 81  1  0
 83 82  2  0
 86 85  1  0
 88 86  1  0
 88 89  1  0
 88 87  1  0
 90 93  1  1
 90 91  1  0
 92 90  1  0
M  ISO  4   6 101  15 100  23 100  53 101
M  END
>  <TORSDO>  (88) 
F 17

>  <SCORE>  (88) 
-14.459

>  <name>  (88) 
87

>  <ligand_id>  (88) 
87

>  <original_smiles>  (88) 
[H]c1c([H])c(Oc2c([H])c([H])c3c(c2[H])C([H])([H])N(C(=O)C([H])(N([H])C(=O)C([H])(N([H])C([H])([H])[H])C([H])([H])[H])C(C([H])([H])[H])(C([H])([H])[H])C([H])([H])[H])C([H])(C(=O)N([H])C2([H])c4c([H])c([H])c([H])c([H])c4C([H])([H])C([H])([H])C2([H])[H])C3([H])[H])c([H])c(C(=C2C([H])([H])C([H])([H])C([H])(N([H])C(=O)N3C([H])([H])C([H])([H])C([H])([H])C([H])(n4nc(-c5c([H])c([H])c(Oc6c([H])c([H])c(F)c([H])c6F)c([H])c5[H])c(C(=O)N([H])[H])c4N([H])[H])C3([H])[H])C([H])([H])C2([H])[H])C([H])([H])[H])c1[H]

>  <smiles>  (88) 
[H]c1c([H])c(Oc2c([H])c([H])c3c(c2[H])C([H])([H])N(C(=O)C([H])(N([H])C(=O)C([H])(N([H])C([H])([H])[H])C([H])([H])[H])C(C([H])([H])[H])(C([H])([H])[H])C([H])([H])[H])C([H])(C(=O)N([H])C2([H])c4c([H])c([H])c([H])c([H])c4C([H])([H])C([H])([H])C2([H])[H])C3([H])[H])c([H])c(C(=C2C([H])([H])C([H])([H])C([H])(N([H])C(=O)N3C([H])([H])C([H])([H])C([H])([H])C([H])(n4nc(-c5c([H])c([H])c(Oc6c([H])c([H])c(F)c([H])c6F)c([H])c5[H])c(C(=O)N([H])[H])c4N([H])[H])C3([H])[H])C([H])([H])C2([H])[H])C([H])([H])[H])c1[H]

$$$$
88:0:0
     RDKit          3D

 99109  0  0  1  0  0  0  0  0999 V2000
  -29.7760  -22.9290   20.0490 C   0  0  0  0  0  3  0  0  0  0  0  0
  -27.9120  -21.9200   21.2920 C   0  0  0  0  0  3  0  0  0  0  0  0
  -29.3380  -24.1980   20.4940 C   0  0  0  0  0  0  0  0  0  0  0  0
  -28.2200  -24.3170   21.3100 C   0  0  0  0  0  0  0  0  0  0  0  0
  -29.0550  -21.7760   20.4640 C   0  0  0  0  0  0  0  0  0  0  0  0
  -27.4870  -23.1940   21.7250 C   0  0  0  0  0  0  0  0  0  0  0  0
  -27.9450  -25.7500   21.6570 C   0  0  0  0  0  2  0  0  0  0  0  0
  -29.9420  -25.5640   20.1980 C   0  0  0  0  0  3  0  0  0  0  0  0
  -28.8140  -26.5500   20.6440 C   0  0  0  0  0  3  0  0  0  0  0  0
  -26.3960  -23.3310   22.5130 F   0  0  0  0  0  0  0  0  0  0  0  0
  -28.0850  -26.8540   19.4510 O   0  0  0  0  0  0  0  0  0  0  0  0
  -24.4700  -31.8650   23.0460 C   0  0  0  0  0  0  0  0  0  0  0  0
  -26.9550  -27.6170   19.5980 C   0  0  0  0  0  0  0  0  0  0  0  0
  -23.1780  -30.5300   21.4120 C   0  0  0  0  0  3  0  0  0  0  0  0
  -24.5550  -29.0730   19.8380 C   0  0  0  0  0  0  0  0  0  0  0  0
  -25.6850  -30.9230   21.0840 C   0  0  0  0  0  2  0  0  0  0  0  0
  -25.7420  -29.5840   20.3830 C   0  0  0  0  0  0  0  0  0  0  0  0
  -26.9480  -28.8590   20.2710 C   0  0  0  0  0  3  0  0  0  0  0  0
  -25.7590  -27.1170   19.0490 C   0  0  0  0  0  3  0  0  0  0  0  0
  -24.5550  -27.8310   19.1790 C   0  0  0  0  0  3  0  0  0  0  0  0
  -23.3090  -29.9120   19.9960 C   0  0  0  0  0  2  0  0  0  0  0  0
  -24.4670  -31.1190   21.9060 N   0  0  0  0  0  0  0  0  0  0  0  0
  -23.4200  -32.1020   23.6570 O   0  0  0  0  0  0  0  0  0  0  0  0
  -22.5910  -29.4600   22.3600 C   0  0  0  0  0  0  0  0  0  0  0  0
  -21.2740  -29.2270   22.2550 N   0  0  0  0  0  0  0  0  0  0  0  0
  -23.3190  -28.8430   23.1420 O   0  0  0  0  0  0  0  0  0  0  0  0
  -20.7450  -29.7830   21.5960 H   0  0  0  0  0  0  0  0  0  0  0  0
  -17.9730  -27.8390   22.7410 C   0  0  0  0  0  0  0  0  0  0  0  0
  -20.5120  -28.2370   23.0130 C   0  0  0  0  0  3  0  0  0  0  0  0
  -20.6930  -26.8200   22.4230 C   0  0  0  0  0  2  0  0  0  0  0  0
  -19.6100  -26.4440   21.4060 C   0  0  0  0  0  2  0  0  0  0  0  0
  -18.2210  -26.5080   22.0500 C   0  0  0  0  0  2  0  0  0  0  0  0
  -19.0480  -28.6580   23.1750 C   0  0  0  0  0  0  0  0  0  0  0  0
  -18.7590  -29.9050   23.7740 C   0  0  0  0  0  3  0  0  0  0  0  0
  -17.4290  -30.3320   23.9440 C   0  0  0  0  0  3  0  0  0  0  0  0
  -16.3690  -29.5100   23.5240 C   0  0  0  0  0  3  0  0  0  0  0  0
  -16.6430  -28.2640   22.9310 C   0  0  0  0  0  3  0  0  0  0  0  0
  -25.7860  -32.4770   23.6210 C   0  0  0  0  0  3  0  0  0  0  0  0
  -25.4970  -33.8610   24.0170 N   0  0  0  0  0  0  0  0  0  0  0  0
  -25.8370  -34.9430   23.3040 C   0  0  0  0  0  0  0  0  0  0  0  0
  -26.5020  -34.8800   22.2660 O   0  0  0  0  0  0  0  0  0  0  0  0
  -24.9140  -33.9880   24.8300 H   0  0  0  0  0  0  0  0  0  0  0  0
  -24.1350  -36.7700   23.0210 C   0  0  0  0  0  1  0  0  0  0  0  0
  -25.3610  -36.3110   23.8250 C   0  0  0  0  0  3  0  0  0  0  0  0
  -27.5010  -37.1170   24.7200 C   0  0  0  0  0  1  0  0  0  0  0  0
  -26.4060  -37.3570   23.7830 N   0  0  0  0  0  0  0  0  0  0  0  0
  -26.0080  -38.2690   23.9900 H   0  0  0  0  0  0  0  0  0  0  0  0
  -26.3760  -31.6580   24.8360 C   0  0  1  0  0  0  0  0  0  0  0  0
  -25.3460  -31.3630   25.9500 C   0  0  0  0  0  1  0  0  0  0  0  0
  -26.9460  -30.3050   24.3530 C   0  0  0  0  0  1  0  0  0  0  0  0
  -27.5570  -32.4340   25.4650 C   0  0  0  0  0  1  0  0  0  0  0  0
  -29.4440  -20.3760   19.9970 C   0  0  0  0  0  2  0  0  0  0  0  0
  -30.2740  -19.5540   21.0080 C   0  0  0  0  0  2  0  0  0  0  0  0
  -30.3460  -18.0560   20.6230 C   0  0  0  0  0  2  0  0  0  0  0  0
  -31.0160  -17.1440   21.6790 C   0  0  0  0  0  2  0  0  0  0  0  0
  -30.5140  -15.6740   21.6900 C   0  0  0  0  0  2  0  0  0  0  0  0
  -30.9650  -14.7480   20.5320 C   0  0  0  0  0  0  0  0  0  0  0  0
  -30.6330  -12.6830   19.1930 C   0  0  0  0  0  2  0  0  0  0  0  0
  -29.6690  -12.9080   18.0150 C   0  0  0  0  0  2  0  0  0  0  0  0
  -28.2020  -12.7520   18.4610 C   0  0  0  0  0  2  0  0  0  0  0  0
  -27.8830  -13.5530   19.7510 C   0  0  0  0  0  3  0  0  0  0  0  0
  -28.9460  -13.2660   20.8370 C   0  0  0  0  0  2  0  0  0  0  0  0
  -30.2660  -13.6060   20.2780 N   0  0  0  0  0  0  0  0  0  0  0  0
  -31.9740  -15.0510   19.8870 O   0  0  0  0  0  0  0  0  0  0  0  0
  -25.4930  -14.1710   20.4900 C   0  0  0  0  0  0  0  0  0  0  0  0
  -24.4180  -13.4010   20.8420 C   0  0  0  0  0  0  0  0  0  0  0  0
  -24.8590  -12.0450   20.7610 C   0  0  0  0  0  0  0  0  0  0  0  0
  -26.5260  -13.2850   20.2240 N   0  0  0  0  0  0  0  0  0  0  0  0
  -26.1460  -12.0000   20.4410 N   0  0  0  0  0  0  0  0  0  0  0  0
  -24.1180  -10.7880   20.9180 C   0  0  0  0  0  0  0  0  0  0  0  0
  -24.5350   -9.7960   21.8320 C   0  0  0  0  0  3  0  0  0  0  0  0
  -23.7970   -8.6010   21.9790 C   0  0  0  0  0  3  0  0  0  0  0  0
  -22.6280   -8.3900   21.2110 C   0  0  0  0  0  0  0  0  0  0  0  0
  -22.2320   -9.3710   20.2830 C   0  0  0  0  0  3  0  0  0  0  0  0
  -22.9700  -10.5570   20.1340 C   0  0  0  0  0  3  0  0  0  0  0  0
  -21.8630   -7.2510   21.2660 O   0  0  0  0  0  0  0  0  0  0  0  0
  -21.7440   -6.5210   22.4220 C   0  0  0  0  0  0  0  0  0  0  0  0
  -21.2430   -7.0900   23.6130 C   0  0  0  0  0  3  0  0  0  0  0  0
  -21.0680   -6.2860   24.7580 C   0  0  0  0  0  3  0  0  0  0  0  0
  -21.3870   -4.9160   24.7120 C   0  0  0  0  0  0  0  0  0  0  0  0
  -21.8820   -4.3470   23.5260 C   0  0  0  0  0  3  0  0  0  0  0  0
  -22.0570   -5.1480   22.3830 C   0  0  0  0  0  0  0  0  0  0  0  0
  -22.5130   -4.5900   21.2360 F   0  0  0  0  0  0  0  0  0  0  0  0
  -21.2120   -4.1410   25.8090 F   0  0  0  0  0  0  0  0  0  0  0  0
  -23.0300  -13.8850   21.1500 C   0  0  0  0  0  0  0  0  0  0  0  0
  -22.3180  -13.1820   22.0200 N   0  0  0  0  0  0  0  0  0  0  0  0
  -22.5900  -14.9230   20.6560 O   0  0  0  0  0  0  0  0  0  0  0  0
  -22.6860  -12.3380   22.4350 H   0  0  0  0  0  0  0  0  0  0  0  0
  -21.3890  -13.4910   22.2770 H   0  0  0  0  0  0  0  0  0  0  0  0
  -25.6760  -15.5460   20.3580 N   0  0  0  0  0  0  0  0  0  0  0  0
  -24.9270  -16.2160   20.4950 H   0  0  0  0  0  0  0  0  0  0  0  0
  -26.5410  -15.9780   20.0560 H   0  0  0  0  0  0  0  0  0  0  0  0
  -31.2510  -25.7650   20.9960 C   0  0  0  0  0  2  0  0  0  0  0  0
  -34.2320  -27.3340   19.2060 C   0  0  0  0  0  2  0  0  0  0  0  0
  -34.6290  -27.4490   20.6830 C   0  0  0  0  0  2  0  0  0  0  0  0
  -32.8680  -26.6290   19.1780 C   0  0  0  0  0  2  0  0  0  0  0  0
  -33.4460  -26.8960   21.4840 C   0  0  0  0  0  2  0  0  0  0  0  0
  -32.2240  -26.8950   20.5500 C   0  0  2  0  0  0  0  0  0  0  0  0
  -31.5670  -28.2940   20.5550 C   0  0  0  0  0  1  0  0  0  0  0  0
  1  5  2  0
  1  3  1  0
  2  6  2  0
  3  4  2  0
  4  7  1  0
  4  6  1  0
  5  2  1  0
  6 10  1  0
  8  3  1  0
  8  9  1  0
  8 93  1  0
  9 11  1  0
  9  7  1  0
 11 13  1  0
 12 23  2  0
 13 18  1  0
 14 22  1  0
 14 24  1  0
 15 21  1  0
 15 17  1  0
 16 22  1  0
 17 16  1  0
 18 17  2  0
 19 20  1  0
 19 13  2  0
 20 15  2  0
 21 14  1  0
 22 12  1  0
 24 26  2  0
 25 24  1  0
 27 25  1  0
 28 37  2  0
 28 33  1  0
 29 25  1  0
 29 33  1  0
 30 29  1  0
 31 32  1  0
 31 30  1  0
 32 28  1  0
 33 34  2  0
 34 35  1  0
 36 35  2  0
 37 36  1  0
 38 12  1  0
 38 39  1  0
 38 48  1  0
 39 42  1  0
 40 44  1  0
 40 39  1  0
 41 40  2  0
 44 43  1  0
 46 44  1  0
 46 47  1  0
 46 45  1  0
 48 51  1  1
 48 49  1  0
 50 48  1  0
 52  5  1  0
 52 53  1  0
 54 53  1  0
 54 55  1  0
 55 56  1  0
 57 56  1  0
 58 63  1  0
 59 60  1  0
 59 58  1  0
 61 60  1  0
 61 68  1  0
 61 62  1  0
 63 57  1  0
 63 62  1  0
 64 57  2  0
 65 66  2  0
 66 85  1  0
 67 66  1  0
 67 70  1  0
 68 69  1  0
 68 65  1  0
 69 67  2  0
 70 71  1  0
 71 72  2  0
 73 76  1  0
 73 72  1  0
 74 73  2  0
 75 74  1  0
 75 70  2  0
 76 77  1  0
 77 78  1  0
 78 79  2  0
 80 79  1  0
 80 84  1  0
 81 80  2  0
 82 77  2  0
 82 81  1  0
 83 82  1  0
 85 86  1  0
 86 89  1  0
 86 88  1  0
 87 85  2  0
 90 65  1  0
 90 91  1  0
 92 90  1  0
 94 95  1  0
 95 97  1  0
 96 94  1  0
 96 98  1  0
 98 99  1  6
 98 93  1  0
 98 97  1  0
M  ISO  4   9 101  11 101  56 100  57 100
M  END
>  <TORSDO>  (89) 
F 23

>  <SCORE>  (89) 
-12.722

>  <name>  (89) 
88

>  <ligand_id>  (89) 
88

>  <original_smiles>  (89) 
[H]c1c([H])c([H])c2c(c1[H])C([H])([H])C([H])([H])C([H])([H])C2([H])N([H])C(=O)C1([H])N(C(=O)C([H])(N([H])C(=O)C([H])(N([H])C([H])([H])[H])C([H])([H])[H])C(C([H])([H])[H])(C([H])([H])[H])C([H])([H])[H])C([H])([H])c2c([H])c(OC3([H])C([H])([H])c4c(F)c([H])c(C([H])([H])C([H])([H])C([H])([H])C([H])([H])C([H])([H])C(=O)N5C([H])([H])C([H])([H])C([H])([H])C([H])(n6nc(-c7c([H])c([H])c(Oc8c([H])c([H])c(F)c([H])c8F)c([H])c7[H])c(C(=O)N([H])[H])c6N([H])[H])C5([H])[H])c([H])c4C3([H])C([H])([H])C3(C([H])([H])[H])C([H])([H])C([H])([H])C([H])([H])C3([H])[H])c([H])c([H])c2C1([H])[H]

>  <smiles>  (89) 
[H]c1c([H])c([H])c2c(c1[H])C([H])([H])C([H])([H])C([H])([H])C2([H])N([H])C(=O)C1([H])N(C(=O)C([H])(N([H])C(=O)C([H])(N([H])C([H])([H])[H])C([H])([H])[H])C(C([H])([H])[H])(C([H])([H])[H])C([H])([H])[H])C([H])([H])c2c([H])c(OC3([H])C([H])([H])c4c(F)c([H])c(C([H])([H])C([H])([H])C([H])([H])C([H])([H])C([H])([H])C(=O)N5C([H])([H])C([H])([H])C([H])([H])C([H])(n6nc(-c7c([H])c([H])c(Oc8c([H])c([H])c(F)c([H])c8F)c([H])c7[H])c(C(=O)N([H])[H])c6N([H])[H])C5([H])[H])c([H])c4C3([H])C([H])([H])C3(C([H])([H])[H])C([H])([H])C([H])([H])C([H])([H])C3([H])[H])c([H])c([H])c2C1([H])[H]

$$$$
89:0:0
     RDKit          3D

 93103  0  0  1  0  0  0  0  0999 V2000
  -30.7220  -15.3990   20.0230 C   0  0  0  0  0  0  0  0  0  0  0  0
  -30.6400  -12.9470   19.3050 C   0  0  0  0  0  2  0  0  0  0  0  0
  -29.7150  -12.6710   18.1000 C   0  0  0  0  0  2  0  0  0  0  0  0
  -28.2770  -12.4150   18.5810 C   0  0  0  0  0  2  0  0  0  0  0  0
  -27.8200  -13.4490   19.6430 C   0  0  0  0  0  3  0  0  0  0  0  0
  -28.8780  -13.7080   20.7340 C   0  0  0  0  0  2  0  0  0  0  0  0
  -30.0970  -14.1390   20.0390 N   0  0  0  0  0  0  0  0  0  0  0  0
  -31.9440  -15.3370   19.8420 O   0  0  0  0  0  0  0  0  0  0  0  0
  -29.1070  -22.4790   18.3450 C   0  0  0  0  0  3  0  0  0  0  0  0
  -28.7770  -21.6760   19.4940 C   0  0  0  0  0  0  0  0  0  0  0  0
  -28.1080  -22.4830   20.4510 C   0  0  0  0  0  0  0  0  0  0  0  0
  -28.8110  -23.9190   18.2150 C   0  0  0  0  0  0  0  0  0  0  0  0
  -27.7970  -23.9240   20.3450 C   0  0  0  0  0  0  0  0  0  0  0  0
  -28.1410  -24.7560   19.1990 C   0  0  0  0  0  0  0  0  0  0  0  0
  -27.8070  -21.5890   21.6400 C   0  0  0  0  0  2  0  0  0  0  0  0
  -28.5890  -20.2460   21.4380 C   0  0  0  0  0  2  0  0  0  0  0  0
  -30.5430  -19.4790   19.9010 C   0  0  0  0  0  2  0  0  0  0  0  0
  -28.3920  -18.8030   19.2810 C   0  0  0  0  0  2  0  0  0  0  0  0
  -30.8610  -17.9820   20.4790 C   0  0  0  0  0  2  0  0  0  0  0  0
  -28.6930  -17.2480   19.7840 C   0  0  0  0  0  2  0  0  0  0  0  0
  -29.0760  -20.0920   19.9630 C   0  0  2  0  0  0  0  0  0  0  0  0
  -29.2880  -24.6170   16.9560 C   0  0  0  0  0  1  0  0  0  0  0  0
  -27.1230  -24.5890   21.5300 C   0  0  0  0  0  1  0  0  0  0  0  0
  -30.0950  -16.7260   20.0720 N   0  0  0  0  0  0  0  0  0  0  0  0
  -25.4870  -14.0050   20.5080 C   0  0  0  0  0  0  0  0  0  0  0  0
  -24.4340  -13.2230   20.8910 C   0  0  0  0  0  0  0  0  0  0  0  0
  -24.8900  -11.8730   20.8050 C   0  0  0  0  0  0  0  0  0  0  0  0
  -26.5120  -13.1310   20.1990 N   0  0  0  0  0  0  0  0  0  0  0  0
  -26.1690  -11.8410   20.4470 N   0  0  0  0  0  0  0  0  0  0  0  0
  -24.1630  -10.6090   20.9820 C   0  0  0  0  0  0  0  0  0  0  0  0
  -24.5730   -9.6460   21.9310 C   0  0  0  0  0  3  0  0  0  0  0  0
  -23.8430   -8.4490   22.0980 C   0  0  0  0  0  3  0  0  0  0  0  0
  -22.6910   -8.2060   21.3150 C   0  0  0  0  0  0  0  0  0  0  0  0
  -22.3000   -9.1560   20.3550 C   0  0  0  0  0  3  0  0  0  0  0  0
  -23.0310  -10.3450   20.1870 C   0  0  0  0  0  3  0  0  0  0  0  0
  -21.9350   -7.0600   21.3890 O   0  0  0  0  0  0  0  0  0  0  0  0
  -21.7800   -6.3760   22.5670 C   0  0  0  0  0  0  0  0  0  0  0  0
  -21.1510   -6.9590   23.6900 C   0  0  0  0  0  3  0  0  0  0  0  0
  -20.9510   -6.1970   24.8580 C   0  0  0  0  0  3  0  0  0  0  0  0
  -21.3680   -4.8530   24.9050 C   0  0  0  0  0  0  0  0  0  0  0  0
  -21.9900   -4.2700   23.7860 C   0  0  0  0  0  3  0  0  0  0  0  0
  -22.1920   -5.0290   22.6200 C   0  0  0  0  0  0  0  0  0  0  0  0
  -22.7720   -4.4560   21.5380 F   0  0  0  0  0  0  0  0  0  0  0  0
  -21.1690   -4.1190   26.0240 F   0  0  0  0  0  0  0  0  0  0  0  0
  -23.0490  -13.7000   21.2210 C   0  0  0  0  0  0  0  0  0  0  0  0
  -22.3470  -12.9840   22.0920 N   0  0  0  0  0  0  0  0  0  0  0  0
  -22.6010  -14.7410   20.7430 O   0  0  0  0  0  0  0  0  0  0  0  0
  -22.7230  -12.1420   22.5010 H   0  0  0  0  0  0  0  0  0  0  0  0
  -21.4190  -13.2840   22.3540 H   0  0  0  0  0  0  0  0  0  0  0  0
  -25.6500  -15.3810   20.3650 N   0  0  0  0  0  0  0  0  0  0  0  0
  -24.8910  -16.0330   20.5310 H   0  0  0  0  0  0  0  0  0  0  0  0
  -26.4890  -15.8250   20.0190 H   0  0  0  0  0  0  0  0  0  0  0  0
  -28.0880  -26.2570   19.0960 O   0  0  0  0  0  0  0  0  0  0  0  0
  -24.5840  -31.5470   22.9870 C   0  0  0  0  0  0  0  0  0  0  0  0
  -27.0060  -27.2200   19.2520 C   0  0  0  0  0  0  0  0  0  0  0  0
  -23.3060  -30.3600   21.2430 C   0  0  0  0  0  3  0  0  0  0  0  0
  -24.6830  -28.9780   19.5560 C   0  0  0  0  0  0  0  0  0  0  0  0
  -25.8490  -30.6510   20.9850 C   0  0  0  0  0  2  0  0  0  0  0  0
  -25.8910  -29.3440   20.1610 C   0  0  0  0  0  0  0  0  0  0  0  0
  -27.0490  -28.4830   19.9910 C   0  0  0  0  0  3  0  0  0  0  0  0
  -25.7690  -26.9730   18.6200 C   0  0  0  0  0  3  0  0  0  0  0  0
  -24.6370  -27.8120   18.7710 C   0  0  0  0  0  3  0  0  0  0  0  0
  -23.4610  -29.8600   19.7800 C   0  0  0  0  0  2  0  0  0  0  0  0
  -24.6030  -30.8700   21.7950 N   0  0  0  0  0  0  0  0  0  0  0  0
  -23.5250  -31.7520   23.6000 O   0  0  0  0  0  0  0  0  0  0  0  0
  -22.6760  -29.2370   22.1060 C   0  0  0  0  0  0  0  0  0  0  0  0
  -21.3440  -29.0710   22.0240 N   0  0  0  0  0  0  0  0  0  0  0  0
  -23.3890  -28.5200   22.8120 O   0  0  0  0  0  0  0  0  0  0  0  0
  -20.8240  -29.7060   21.4330 H   0  0  0  0  0  0  0  0  0  0  0  0
  -17.9940  -27.7840   22.5430 C   0  0  0  0  0  0  0  0  0  0  0  0
  -20.5640  -28.0340   22.7060 C   0  0  0  0  0  3  0  0  0  0  0  0
  -20.6370  -26.6910   21.9440 C   0  0  0  0  0  2  0  0  0  0  0  0
  -19.4830  -26.4940   20.9550 C   0  0  0  0  0  2  0  0  0  0  0  0
  -18.1380  -26.5380   21.6860 C   0  0  0  0  0  2  0  0  0  0  0  0
  -19.1330  -28.4950   23.0090 C   0  0  0  0  0  0  0  0  0  0  0  0
  -18.9420  -29.6620   23.7790 C   0  0  0  0  0  3  0  0  0  0  0  0
  -17.6460  -30.1210   24.0830 C   0  0  0  0  0  3  0  0  0  0  0  0
  -16.5240  -29.4080   23.6300 C   0  0  0  0  0  3  0  0  0  0  0  0
  -16.6990  -28.2400   22.8670 C   0  0  0  0  0  3  0  0  0  0  0  0
  -25.8890  -32.1100   23.6280 C   0  0  0  0  0  3  0  0  0  0  0  0
  -25.6300  -33.5080   24.0200 N   0  0  0  0  0  0  0  0  0  0  0  0
  -26.0160  -34.5820   23.3200 C   0  0  0  0  0  0  0  0  0  0  0  0
  -26.6930  -34.5000   22.2900 O   0  0  0  0  0  0  0  0  0  0  0  0
  -25.0310  -33.6490   24.8190 H   0  0  0  0  0  0  0  0  0  0  0  0
  -24.4030  -36.4920   23.0140 C   0  0  0  0  0  1  0  0  0  0  0  0
  -25.5880  -35.9700   23.8420 C   0  0  0  0  0  3  0  0  0  0  0  0
  -27.7240  -36.6980   24.8120 C   0  0  0  0  0  1  0  0  0  0  0  0
  -26.6790  -36.9680   23.8270 N   0  0  0  0  0  0  0  0  0  0  0  0
  -26.3160  -37.9020   24.0000 H   0  0  0  0  0  0  0  0  0  0  0  0
  -26.3780  -31.2740   24.8760 C   0  0  1  0  0  0  0  0  0  0  0  0
  -25.2850  -31.0590   25.9490 C   0  0  0  0  0  1  0  0  0  0  0  0
  -26.8840  -29.8800   24.4390 C   0  0  0  0  0  1  0  0  0  0  0  0
  -27.5730  -31.9880   25.5490 C   0  0  0  0  0  1  0  0  0  0  0  0
  1  7  1  0
  1 24  1  0
  2  7  1  0
  3  4  1  0
  3  2  1  0
  5  4  1  0
  5 28  1  0
  5  6  1  0
  7  6  1  0
  8  1  2  0
  9 10  1  0
 10 21  1  0
 10 11  2  0
 11 15  1  0
 12  9  2  0
 12 14  1  0
 13 11  1  0
 13 23  1  0
 14 13  2  0
 16 15  1  0
 21 17  1  1
 17 19  1  0
 18 20  1  0
 20 24  1  0
 21 18  1  0
 21 16  1  0
 22 12  1  0
 24 19  1  0
 25 26  2  0
 26 45  1  0
 27 26  1  0
 27 30  1  0
 28 29  1  0
 28 25  1  0
 29 27  2  0
 30 31  1  0
 31 32  2  0
 33 36  1  0
 33 32  1  0
 34 33  2  0
 35 34  1  0
 35 30  2  0
 36 37  1  0
 37 42  2  0
 37 38  1  0
 38 39  2  0
 39 40  1  0
 40 44  1  0
 41 40  2  0
 42 41  1  0
 43 42  1  0
 45 46  1  0
 46 49  1  0
 46 48  1  0
 47 45  2  0
 50 25  1  0
 50 51  1  0
 52 50  1  0
 53 14  1  0
 53 55  1  0
 54 65  2  0
 55 60  1  0
 56 64  1  0
 56 66  1  0
 57 63  1  0
 57 59  1  0
 58 64  1  0
 59 58  1  0
 60 59  2  0
 61 62  1  0
 61 55  2  0
 62 57  2  0
 63 56  1  0
 64 54  1  0
 66 68  2  0
 67 66  1  0
 69 67  1  0
 70 79  2  0
 70 75  1  0
 71 67  1  0
 71 75  1  0
 72 71  1  0
 73 74  1  0
 73 72  1  0
 74 70  1  0
 75 76  2  0
 76 77  1  0
 78 77  2  0
 79 78  1  0
 80 54  1  0
 80 81  1  0
 80 90  1  0
 81 84  1  0
 82 86  1  0
 82 81  1  0
 83 82  2  0
 86 85  1  0
 88 86  1  0
 88 89  1  0
 88 87  1  0
 90 93  1  1
 90 91  1  0
 92 90  1  0
M  ISO  4   1 100  14 101  24 100  53 101
M  END
>  <TORSDO>  (90) 
F 15

>  <SCORE>  (90) 
-14.267

>  <name>  (90) 
89

>  <ligand_id>  (90) 
89

>  <original_smiles>  (90) 
[H]c1c([H])c([H])c2c(c1[H])C([H])([H])C([H])([H])C([H])([H])C2([H])N([H])C(=O)C1([H])N(C(=O)C([H])(N([H])C(=O)C([H])(N([H])C([H])([H])[H])C([H])([H])[H])C(C([H])([H])[H])(C([H])([H])[H])C([H])([H])[H])C([H])([H])c2c([H])c(Oc3c(C([H])([H])[H])c([H])c4c(c3C([H])([H])[H])C([H])([H])C([H])([H])C43C([H])([H])C([H])([H])N(C(=O)N4C([H])([H])C([H])([H])C([H])([H])C([H])(n5nc(-c6c([H])c([H])c(Oc7c([H])c([H])c(F)c([H])c7F)c([H])c6[H])c(C(=O)N([H])[H])c5N([H])[H])C4([H])[H])C([H])([H])C3([H])[H])c([H])c([H])c2C1([H])[H]

>  <smiles>  (90) 
[H]c1c([H])c([H])c2c(c1[H])C([H])([H])C([H])([H])C([H])([H])C2([H])N([H])C(=O)C1([H])N(C(=O)C([H])(N([H])C(=O)C([H])(N([H])C([H])([H])[H])C([H])([H])[H])C(C([H])([H])[H])(C([H])([H])[H])C([H])([H])[H])C([H])([H])c2c([H])c(Oc3c(C([H])([H])[H])c([H])c4c(c3C([H])([H])[H])C([H])([H])C([H])([H])C43C([H])([H])C([H])([H])N(C(=O)N4C([H])([H])C([H])([H])C([H])([H])C([H])(n5nc(-c6c([H])c([H])c(Oc7c([H])c([H])c(F)c([H])c7F)c([H])c6[H])c(C(=O)N([H])[H])c5N([H])[H])C4([H])[H])C([H])([H])C3([H])[H])c([H])c([H])c2C1([H])[H]

$$$$
90:0:0
     RDKit          3D

 90 99  0  0  1  0  0  0  0  0999 V2000
  -27.9070  -18.2440   19.0710 C   0  0  0  0  0  3  0  0  0  0  0  0
  -29.6900  -17.0420   20.4100 C   0  0  0  0  0  0  0  0  0  0  0  0
  -28.0660  -19.5300   19.6320 C   0  0  0  0  0  0  0  0  0  0  0  0
  -29.1610  -19.7910   20.4640 C   0  0  0  0  0  0  0  0  0  0  0  0
  -28.7380  -17.1170   19.3320 C   0  0  0  0  0  0  0  0  0  0  0  0
  -29.9140  -18.5010   20.8870 C   0  0  0  0  0  0  0  0  0  0  0  0
  -27.0400  -20.6330   19.3170 C   0  0  0  0  0  2  0  0  0  0  0  0
  -29.3590  -21.4790   20.7410 C   0  0  0  0  0  2  0  0  0  0  0  0
  -27.5590  -22.0840   19.0850 C   0  0  0  0  0  2  0  0  0  0  0  0
  -28.2630  -22.7930   20.2750 C   0  0  0  0  0  3  0  0  0  0  0  0
  -28.6550  -16.0880   18.2210 C   0  0  0  0  0  1  0  0  0  0  0  0
  -31.0230  -18.7250   21.8990 C   0  0  0  0  0  1  0  0  0  0  0  0
  -30.4950  -15.5650   20.7190 C   0  0  0  0  0  0  0  0  0  0  0  0
  -30.6400  -13.0520   20.0540 C   0  0  0  0  0  2  0  0  0  0  0  0
  -29.8380  -12.6380   18.7900 C   0  0  0  0  0  2  0  0  0  0  0  0
  -28.3470  -12.4160   19.1050 C   0  0  0  0  0  2  0  0  0  0  0  0
  -27.7760  -13.4260   20.1320 C   0  0  0  0  0  3  0  0  0  0  0  0
  -28.7240  -13.7160   21.3060 C   0  0  0  0  0  2  0  0  0  0  0  0
  -29.9780  -14.2310   20.7280 N   0  0  0  0  0  0  0  0  0  0  0  0
  -31.7360  -15.5620   20.7300 O   0  0  0  0  0  0  0  0  0  0  0  0
  -25.3500  -13.9730   20.6860 C   0  0  0  0  0  0  0  0  0  0  0  0
  -24.2710  -13.1840   20.9730 C   0  0  0  0  0  0  0  0  0  0  0  0
  -24.7590  -11.8420   21.0010 C   0  0  0  0  0  0  0  0  0  0  0  0
  -26.4200  -13.1060   20.5470 N   0  0  0  0  0  0  0  0  0  0  0  0
  -26.0710  -11.8220   20.8050 N   0  0  0  0  0  0  0  0  0  0  0  0
  -24.0400  -10.5700   21.1430 C   0  0  0  0  0  0  0  0  0  0  0  0
  -24.4130   -9.6190   22.1170 C   0  0  0  0  0  3  0  0  0  0  0  0
  -23.6920   -8.4120   22.2500 C   0  0  0  0  0  3  0  0  0  0  0  0
  -22.5860   -8.1490   21.4060 C   0  0  0  0  0  0  0  0  0  0  0  0
  -22.2350   -9.0890   20.4220 C   0  0  0  0  0  3  0  0  0  0  0  0
  -22.9560  -10.2870   20.2890 C   0  0  0  0  0  3  0  0  0  0  0  0
  -21.8440   -6.9940   21.4450 O   0  0  0  0  0  0  0  0  0  0  0  0
  -21.7110   -6.2640   22.6000 C   0  0  0  0  0  0  0  0  0  0  0  0
  -21.1550   -6.8190   23.7730 C   0  0  0  0  0  3  0  0  0  0  0  0
  -20.9730   -6.0140   24.9160 C   0  0  0  0  0  3  0  0  0  0  0  0
  -21.3380   -4.6540   24.8850 C   0  0  0  0  0  0  0  0  0  0  0  0
  -21.8880   -4.0980   23.7150 C   0  0  0  0  0  3  0  0  0  0  0  0
  -22.0710   -4.9010   22.5760 C   0  0  0  0  0  0  0  0  0  0  0  0
  -22.5810   -4.3570   21.4450 F   0  0  0  0  0  0  0  0  0  0  0  0
  -21.1560   -3.8780   25.9780 F   0  0  0  0  0  0  0  0  0  0  0  0
  -22.8490  -13.6420   21.1140 C   0  0  0  0  0  0  0  0  0  0  0  0
  -22.0600  -12.9470   21.9260 N   0  0  0  0  0  0  0  0  0  0  0  0
  -22.4430  -14.6510   20.5400 O   0  0  0  0  0  0  0  0  0  0  0  0
  -22.3970  -12.1280   22.4090 H   0  0  0  0  0  0  0  0  0  0  0  0
  -21.1030  -13.2390   22.0660 H   0  0  0  0  0  0  0  0  0  0  0  0
  -25.5070  -15.3440   20.5040 N   0  0  0  0  0  0  0  0  0  0  0  0
  -24.7250  -15.9870   20.5480 H   0  0  0  0  0  0  0  0  0  0  0  0
  -26.3860  -15.8030   20.2940 H   0  0  0  0  0  0  0  0  0  0  0  0
  -28.4440  -24.5270   19.7710 C   0  0  0  0  0  2  0  0  0  0  0  0
  -28.2770  -26.0840   20.2790 O   0  0  0  0  0  0  0  0  0  0  0  0
  -24.6130  -31.9320   23.2040 C   0  0  0  0  0  0  0  0  0  0  0  0
  -27.2400  -27.1410   20.1280 C   0  0  0  0  0  0  0  0  0  0  0  0
  -23.4380  -30.5480   21.5360 C   0  0  0  0  0  3  0  0  0  0  0  0
  -24.9100  -28.9800   20.0880 C   0  0  0  0  0  0  0  0  0  0  0  0
  -25.9960  -30.7940   21.3980 C   0  0  0  0  0  2  0  0  0  0  0  0
  -26.0850  -29.3950   20.7270 C   0  0  0  0  0  0  0  0  0  0  0  0
  -27.2360  -28.4920   20.7300 C   0  0  0  0  0  3  0  0  0  0  0  0
  -26.0420  -26.8730   19.4290 C   0  0  0  0  0  3  0  0  0  0  0  0
  -24.9140  -27.7410   19.4190 C   0  0  0  0  0  3  0  0  0  0  0  0
  -23.6780  -29.8830   20.1490 C   0  0  0  0  0  2  0  0  0  0  0  0
  -24.7040  -31.1180   22.1020 N   0  0  0  0  0  0  0  0  0  0  0  0
  -23.5210  -32.2020   23.7270 O   0  0  0  0  0  0  0  0  0  0  0  0
  -22.7510  -29.5340   22.4870 C   0  0  0  0  0  0  0  0  0  0  0  0
  -21.4200  -29.3680   22.3640 N   0  0  0  0  0  0  0  0  0  0  0  0
  -23.4200  -28.8950   23.3040 O   0  0  0  0  0  0  0  0  0  0  0  0
  -20.9330  -29.9370   21.6850 H   0  0  0  0  0  0  0  0  0  0  0  0
  -18.0410  -28.1490   22.8690 C   0  0  0  0  0  0  0  0  0  0  0  0
  -20.6030  -28.4120   23.1180 C   0  0  0  0  0  3  0  0  0  0  0  0
  -20.7010  -26.9950   22.5060 C   0  0  0  0  0  2  0  0  0  0  0  0
  -19.5910  -26.6940   21.4940 C   0  0  0  0  0  2  0  0  0  0  0  0
  -18.2140  -26.8200   22.1530 C   0  0  0  0  0  2  0  0  0  0  0  0
  -19.1620  -28.9030   23.3070 C   0  0  0  0  0  0  0  0  0  0  0  0
  -18.9440  -30.1460   23.9390 C   0  0  0  0  0  3  0  0  0  0  0  0
  -17.6390  -30.6360   24.1360 C   0  0  0  0  0  3  0  0  0  0  0  0
  -16.5330  -29.8790   23.7120 C   0  0  0  0  0  3  0  0  0  0  0  0
  -16.7350  -28.6370   23.0850 C   0  0  0  0  0  3  0  0  0  0  0  0
  -25.8770  -32.5750   23.8540 C   0  0  0  0  0  3  0  0  0  0  0  0
  -25.5440  -33.9630   24.2220 N   0  0  0  0  0  0  0  0  0  0  0  0
  -25.8970  -35.0490   23.5230 C   0  0  0  0  0  0  0  0  0  0  0  0
  -26.6000  -34.9890   22.5100 O   0  0  0  0  0  0  0  0  0  0  0  0
  -24.9330  -34.0850   25.0160 H   0  0  0  0  0  0  0  0  0  0  0  0
  -24.2050  -36.8790   23.1590 C   0  0  0  0  0  1  0  0  0  0  0  0
  -25.3930  -36.4200   24.0200 C   0  0  0  0  0  3  0  0  0  0  0  0
  -27.4790  -37.2500   25.0180 C   0  0  0  0  0  1  0  0  0  0  0  0
  -26.4370  -37.4680   24.0180 N   0  0  0  0  0  0  0  0  0  0  0  0
  -26.0280  -38.3840   24.1800 H   0  0  0  0  0  0  0  0  0  0  0  0
  -26.3890  -31.7880   25.1240 C   0  0  1  0  0  0  0  0  0  0  0  0
  -25.2880  -31.5200   26.1770 C   0  0  0  0  0  1  0  0  0  0  0  0
  -26.9970  -30.4260   24.7210 C   0  0  0  0  0  1  0  0  0  0  0  0
  -27.5240  -32.5860   25.8110 C   0  0  0  0  0  1  0  0  0  0  0  0
  1  5  2  0
  1  3  1  0
  2 13  1  0
  2  6  2  0
  3  4  2  0
  4  8  1  0
  4  6  1  0
  5  2  1  0
  6 12  1  0
  7  3  1  0
  9  7  1  0
  9 10  1  0
 10 49  1  0
 10  8  1  0
 11  5  1  0
 13 19  1  0
 13 20  2  0
 14 19  1  0
 15 16  1  0
 15 14  1  0
 17 16  1  0
 17 24  1  0
 17 18  1  0
 19 18  1  0
 21 22  2  0
 22 23  1  0
 22 41  1  0
 23 26  1  0
 24 21  1  0
 24 25  1  0
 25 23  2  0
 26 27  1  0
 27 28  2  0
 29 32  1  0
 29 28  1  0
 30 29  2  0
 31 30  1  0
 31 26  2  0
 32 33  1  0
 33 34  1  0
 34 35  2  0
 36 35  1  0
 36 40  1  0
 37 36  2  0
 38 33  2  0
 38 37  1  0
 39 38  1  0
 41 42  1  0
 42 45  1  0
 42 44  1  0
 43 41  2  0
 46 47  1  0
 46 21  1  0
 48 46  1  0
 49 50  1  0
 51 62  2  0
 52 50  1  0
 52 57  1  0
 53 61  1  0
 53 63  1  0
 54 60  1  0
 54 56  1  0
 55 61  1  0
 56 57  2  0
 56 55  1  0
 58 52  2  0
 59 58  1  0
 59 54  2  0
 60 53  1  0
 61 51  1  0
 63 65  2  0
 64 63  1  0
 66 64  1  0
 67 76  2  0
 67 72  1  0
 68 64  1  0
 68 72  1  0
 69 68  1  0
 70 71  1  0
 70 69  1  0
 71 67  1  0
 72 73  2  0
 73 74  1  0
 75 74  2  0
 76 75  1  0
 77 51  1  0
 77 78  1  0
 77 87  1  0
 78 81  1  0
 79 83  1  0
 79 78  1  0
 80 79  2  0
 83 82  1  0
 85 83  1  0
 85 86  1  0
 85 84  1  0
 87 90  1  1
 87 88  1  0
 89 87  1  0
M  ISO  4   2 100  13 100  49 101  50 101
M  END
>  <TORSDO>  (91) 
F 17

>  <SCORE>  (91) 
-15.149

>  <name>  (91) 
90

>  <ligand_id>  (91) 
90

>  <original_smiles>  (91) 
[H]c1c([H])c([H])c2c(c1[H])C([H])([H])C([H])([H])C([H])([H])C2([H])N([H])C(=O)C1([H])N(C(=O)C([H])(N([H])C(=O)C([H])(N([H])C([H])([H])[H])C([H])([H])[H])C(C([H])([H])[H])(C([H])([H])[H])C([H])([H])[H])C([H])([H])c2c([H])c(OC([H])([H])C3([H])C([H])([H])c4c(C([H])([H])[H])c(C(=O)N5C([H])([H])C([H])([H])C([H])([H])C([H])(n6nc(-c7c([H])c([H])c(Oc8c([H])c([H])c(F)c([H])c8F)c([H])c7[H])c(C(=O)N([H])[H])c6N([H])[H])C5([H])[H])c(C([H])([H])[H])c([H])c4C([H])([H])C3([H])[H])c([H])c([H])c2C1([H])[H]

>  <smiles>  (91) 
[H]c1c([H])c([H])c2c(c1[H])C([H])([H])C([H])([H])C([H])([H])C2([H])N([H])C(=O)C1([H])N(C(=O)C([H])(N([H])C(=O)C([H])(N([H])C([H])([H])[H])C([H])([H])[H])C(C([H])([H])[H])(C([H])([H])[H])C([H])([H])[H])C([H])([H])c2c([H])c(OC([H])([H])C3([H])C([H])([H])c4c(C([H])([H])[H])c(C(=O)N5C([H])([H])C([H])([H])C([H])([H])C([H])(n6nc(-c7c([H])c([H])c(Oc8c([H])c([H])c(F)c([H])c8F)c([H])c7[H])c(C(=O)N([H])[H])c6N([H])[H])C5([H])[H])c(C([H])([H])[H])c([H])c4C([H])([H])C3([H])[H])c([H])c([H])c2C1([H])[H]

$$$$
91:0:0
     RDKit          3D

 98108  0  0  1  0  0  0  0  0999 V2000
  -29.9590  -22.5670   22.7240 C   0  0  0  0  0  3  0  0  0  0  0  0
  -29.7170  -22.1590   21.3890 C   0  0  0  0  0  0  0  0  0  0  0  0
  -30.3120  -19.8340   22.0620 C   0  0  0  0  0  0  0  0  0  0  0  0
  -30.3860  -21.6510   23.7050 C   0  0  0  0  0  0  0  0  0  0  0  0
  -29.9840  -20.7930   21.0600 C   0  0  0  0  0  0  0  0  0  0  0  0
  -30.5350  -20.2900   23.3790 C   0  0  0  0  0  0  0  0  0  0  0  0
  -30.6430  -22.1270   25.1230 C   0  0  0  0  0  1  0  0  0  0  0  0
  -29.9050  -20.3800   19.7750 F   0  0  0  0  0  0  0  0  0  0  0  0
  -30.8770  -19.4100   24.3510 F   0  0  0  0  0  0  0  0  0  0  0  0
  -31.4150  -14.5750   19.8650 C   0  0  0  0  0  0  0  0  0  0  0  0
  -30.8820  -12.4570   18.6960 C   0  0  0  0  0  2  0  0  0  0  0  0
  -29.8580  -12.6800   17.5670 C   0  0  0  0  0  2  0  0  0  0  0  0
  -28.4230  -12.5680   18.1170 C   0  0  0  0  0  2  0  0  0  0  0  0
  -28.2090  -13.4370   19.3820 C   0  0  0  0  0  3  0  0  0  0  0  0
  -29.3420  -13.2020   20.4110 C   0  0  0  0  0  2  0  0  0  0  0  0
  -30.6300  -13.4610   19.7470 N   0  0  0  0  0  0  0  0  0  0  0  0
  -32.4850  -14.6730   19.2510 O   0  0  0  0  0  0  0  0  0  0  0  0
  -29.9590  -17.8610   20.3860 C   0  0  0  0  0  2  0  0  0  0  0  0
  -31.6040  -17.5690   22.2790 C   0  0  0  0  0  2  0  0  0  0  0  0
  -29.7990  -16.3370   20.3170 C   0  0  0  0  0  2  0  0  0  0  0  0
  -32.0630  -16.3730   21.3900 C   0  0  0  0  0  2  0  0  0  0  0  0
  -30.3390  -18.3090   21.8020 C   0  0  0  0  0  3  0  0  0  0  0  0
  -31.0110  -15.5800   20.6960 N   0  0  0  0  0  0  0  0  0  0  0  0
  -25.9310  -14.1700   20.3270 C   0  0  0  0  0  0  0  0  0  0  0  0
  -24.8470  -13.4490   20.7490 C   0  0  0  0  0  0  0  0  0  0  0  0
  -25.2150  -12.0730   20.6220 C   0  0  0  0  0  0  0  0  0  0  0  0
  -26.8890  -13.2330   19.9650 N   0  0  0  0  0  0  0  0  0  0  0  0
  -26.4650  -11.9660   20.1980 N   0  0  0  0  0  0  0  0  0  0  0  0
  -24.4290  -10.8520   20.8220 C   0  0  0  0  0  0  0  0  0  0  0  0
  -24.8050   -9.8780   21.7740 C   0  0  0  0  0  3  0  0  0  0  0  0
  -24.0230   -8.7180   21.9550 C   0  0  0  0  0  3  0  0  0  0  0  0
  -22.8490   -8.5250   21.1860 C   0  0  0  0  0  0  0  0  0  0  0  0
  -22.4950   -9.4860   20.2240 C   0  0  0  0  0  3  0  0  0  0  0  0
  -23.2780  -10.6380   20.0390 C   0  0  0  0  0  3  0  0  0  0  0  0
  -22.0410   -7.4180   21.2790 O   0  0  0  0  0  0  0  0  0  0  0  0
  -21.8140   -6.7930   22.4780 C   0  0  0  0  0  0  0  0  0  0  0  0
  -21.2610   -7.4770   23.5820 C   0  0  0  0  0  3  0  0  0  0  0  0
  -20.9790   -6.7780   24.7740 C   0  0  0  0  0  3  0  0  0  0  0  0
  -21.2410   -5.3980   24.8610 C   0  0  0  0  0  0  0  0  0  0  0  0
  -21.7870   -4.7150   23.7590 C   0  0  0  0  0  3  0  0  0  0  0  0
  -22.0700   -5.4110   22.5710 C   0  0  0  0  0  0  0  0  0  0  0  0
  -22.5770   -4.7420   21.5070 F   0  0  0  0  0  0  0  0  0  0  0  0
  -20.9620   -4.7250   26.0020 F   0  0  0  0  0  0  0  0  0  0  0  0
  -23.5120  -14.0010   21.1570 C   0  0  0  0  0  0  0  0  0  0  0  0
  -22.8290  -13.3290   22.0780 N   0  0  0  0  0  0  0  0  0  0  0  0
  -23.0860  -15.0590   20.6950 O   0  0  0  0  0  0  0  0  0  0  0  0
  -23.1890  -12.4720   22.4700 H   0  0  0  0  0  0  0  0  0  0  0  0
  -21.9370  -13.6800   22.3940 H   0  0  0  0  0  0  0  0  0  0  0  0
  -26.1710  -15.5340   20.2030 N   0  0  0  0  0  0  0  0  0  0  0  0
  -25.4680  -16.2240   20.4430 H   0  0  0  0  0  0  0  0  0  0  0  0
  -27.0140  -15.9430   19.8240 H   0  0  0  0  0  0  0  0  0  0  0  0
  -28.7850  -24.4060   20.7260 C   0  0  0  0  0  3  0  0  0  0  0  0
  -29.0760  -23.1140   20.4040 C   0  0  0  0  0  0  0  0  0  0  0  0
  -28.5920  -22.5800   19.0450 C   0  0  0  0  0  2  0  0  0  0  0  0
  -27.5890  -23.4510   18.2660 C   0  0  0  0  0  2  0  0  0  0  0  0
  -27.8450  -24.9510   18.4320 C   0  0  0  0  0  2  0  0  0  0  0  0
  -27.8470  -25.2970   19.9190 C   0  0  0  0  0  3  0  0  0  0  0  0
  -28.0160  -26.7210   20.1240 O   0  0  0  0  0  0  0  0  0  0  0  0
  -24.6380  -32.0210   23.4960 C   0  0  0  0  0  0  0  0  0  0  0  0
  -26.8860  -27.5330   20.1480 C   0  0  0  0  0  0  0  0  0  0  0  0
  -23.2840  -30.7370   21.8770 C   0  0  0  0  0  3  0  0  0  0  0  0
  -24.5840  -29.1890   20.3270 C   0  0  0  0  0  0  0  0  0  0  0  0
  -25.8170  -30.9660   21.5710 C   0  0  0  0  0  2  0  0  0  0  0  0
  -25.7960  -29.6160   20.8810 C   0  0  0  0  0  0  0  0  0  0  0  0
  -26.9450  -28.7920   20.7970 C   0  0  0  0  0  3  0  0  0  0  0  0
  -25.6550  -27.1610   19.5480 C   0  0  0  0  0  3  0  0  0  0  0  0
  -24.5070  -27.9590   19.6630 C   0  0  0  0  0  3  0  0  0  0  0  0
  -23.3920  -30.1070   20.4650 C   0  0  0  0  0  2  0  0  0  0  0  0
  -24.6020  -31.2540   22.3710 N   0  0  0  0  0  0  0  0  0  0  0  0
  -23.5990  -32.3250   24.0980 O   0  0  0  0  0  0  0  0  0  0  0  0
  -22.6350  -29.7090   22.8340 C   0  0  0  0  0  0  0  0  0  0  0  0
  -21.3290  -29.4560   22.6490 N   0  0  0  0  0  0  0  0  0  0  0  0
  -23.3070  -29.1440   23.7020 O   0  0  0  0  0  0  0  0  0  0  0  0
  -20.8430  -29.9770   21.9310 H   0  0  0  0  0  0  0  0  0  0  0  0
  -18.0530  -27.9500   22.8760 C   0  0  0  0  0  0  0  0  0  0  0  0
  -20.5210  -28.5010   23.4080 C   0  0  0  0  0  3  0  0  0  0  0  0
  -20.8330  -27.0470   22.9810 C   0  0  0  0  0  2  0  0  0  0  0  0
  -19.8970  -26.5300   21.8840 C   0  0  0  0  0  2  0  0  0  0  0  0
  -18.4410  -26.5770   22.3530 C   0  0  0  0  0  2  0  0  0  0  0  0
  -19.0320  -28.8600   23.3560 C   0  0  0  0  0  0  0  0  0  0  0  0
  -18.6250  -30.1380   23.7960 C   0  0  0  0  0  3  0  0  0  0  0  0
  -17.2690  -30.5110   23.7670 C   0  0  0  0  0  3  0  0  0  0  0  0
  -16.3000  -29.6010   23.3070 C   0  0  0  0  0  3  0  0  0  0  0  0
  -16.6920  -28.3240   22.8680 C   0  0  0  0  0  3  0  0  0  0  0  0
  -25.9850  -32.5710   24.0630 C   0  0  0  0  0  3  0  0  0  0  0  0
  -25.7610  -33.9690   24.4490 N   0  0  0  0  0  0  0  0  0  0  0  0
  -26.0970  -35.0270   23.7000 C   0  0  0  0  0  0  0  0  0  0  0  0
  -26.7010  -34.9250   22.6280 O   0  0  0  0  0  0  0  0  0  0  0  0
  -25.2330  -34.1230   25.2950 H   0  0  0  0  0  0  0  0  0  0  0  0
  -24.4270  -36.8960   23.4980 C   0  0  0  0  0  1  0  0  0  0  0  0
  -25.6970  -36.4210   24.2220 C   0  0  0  0  0  3  0  0  0  0  0  0
  -27.9140  -37.1950   24.9400 C   0  0  0  0  0  1  0  0  0  0  0  0
  -26.7650  -37.4350   24.0720 N   0  0  0  0  0  0  0  0  0  0  0  0
  -26.4060  -38.3650   24.2680 H   0  0  0  0  0  0  0  0  0  0  0  0
  -26.5290  -31.7360   25.2860 C   0  0  1  0  0  0  0  0  0  0  0  0
  -25.4730  -31.4840   26.3870 C   0  0  0  0  0  1  0  0  0  0  0  0
  -27.0620  -30.3610   24.8170 C   0  0  0  0  0  1  0  0  0  0  0  0
  -27.7250  -32.4730   25.9330 C   0  0  0  0  0  1  0  0  0  0  0  0
  1  4  1  0
  2  1  2  0
  3  6  1  0
  4  7  1  0
  5  2  1  0
  5  3  2  0
  6  4  2  0
  6  9  1  0
  8  5  1  0
 10 23  1  0
 11 16  1  0
 12 13  1  0
 12 11  1  0
 14 13  1  0
 14 27  1  0
 14 15  1  0
 16 10  1  0
 16 15  1  0
 17 10  2  0
 18 22  1  0
 20 18  1  0
 20 23  1  0
 21 19  1  0
 22  3  1  0
 22 19  1  0
 23 21  1  0
 24 25  2  0
 25 44  1  0
 26 25  1  0
 26 29  1  0
 27 28  1  0
 27 24  1  0
 28 26  2  0
 29 30  1  0
 30 31  2  0
 32 35  1  0
 32 31  1  0
 33 32  2  0
 34 33  1  0
 34 29  2  0
 35 36  1  0
 36 41  2  0
 36 37  1  0
 37 38  2  0
 38 39  1  0
 39 43  1  0
 40 39  2  0
 41 40  1  0
 42 41  1  0
 44 45  1  0
 45 48  1  0
 45 47  1  0
 46 44  2  0
 49 24  1  0
 49 50  1  0
 51 49  1  0
 53 52  2  0
 53  2  1  0
 54 53  1  0
 55 56  1  0
 55 54  1  0
 56 57  1  0
 57 58  1  0
 57 52  1  0
 58 60  1  0
 59 70  2  0
 60 65  1  0
 61 69  1  0
 61 71  1  0
 62 68  1  0
 62 64  1  0
 63 69  1  0
 64 63  1  0
 65 64  2  0
 66 67  1  0
 66 60  2  0
 67 62  2  0
 68 61  1  0
 69 59  1  0
 71 73  2  0
 72 71  1  0
 74 72  1  0
 75 80  1  0
 76 72  1  0
 77 76  1  0
 78 79  1  0
 78 77  1  0
 79 75  1  0
 80 76  1  0
 80 81  2  0
 82 81  1  0
 83 82  2  0
 84 75  2  0
 84 83  1  0
 85 59  1  0
 85 86  1  0
 85 95  1  0
 86 89  1  0
 87 91  1  0
 87 86  1  0
 88 87  2  0
 91 90  1  0
 93 91  1  0
 93 94  1  0
 93 92  1  0
 95 98  1  1
 95 96  1  0
 97 95  1  0
M  ISO  4  10 100  23 100  57 101  58 101
M  END
>  <TORSDO>  (92) 
F 17

>  <SCORE>  (92) 
-12.779

>  <name>  (92) 
91

>  <ligand_id>  (92) 
91

>  <original_smiles>  (92) 
[H]C1=C(c2c([H])c(C([H])([H])[H])c(F)c(C3([H])C([H])([H])C([H])([H])N(C(=O)N4C([H])([H])C([H])([H])C([H])([H])C([H])(n5nc(-c6c([H])c([H])c(Oc7c([H])c([H])c(F)c([H])c7F)c([H])c6[H])c(C(=O)N([H])[H])c5N([H])[H])C4([H])[H])C([H])([H])C3([H])[H])c2F)C([H])([H])C([H])([H])C([H])([H])C1([H])Oc1c([H])c([H])c2c(c1[H])C([H])([H])N(C(=O)C([H])(N([H])C(=O)C([H])(N([H])C([H])([H])[H])C([H])([H])[H])C(C([H])([H])[H])(C([H])([H])[H])C([H])([H])[H])C([H])(C(=O)N([H])C1([H])c3c([H])c([H])c([H])c([H])c3C([H])([H])C([H])([H])C1([H])[H])C2([H])[H]

>  <smiles>  (92) 
[H]C1=C(c2c([H])c(C([H])([H])[H])c(F)c(C3([H])C([H])([H])C([H])([H])N(C(=O)N4C([H])([H])C([H])([H])C([H])([H])C([H])(n5nc(-c6c([H])c([H])c(Oc7c([H])c([H])c(F)c([H])c7F)c([H])c6[H])c(C(=O)N([H])[H])c5N([H])[H])C4([H])[H])C([H])([H])C3([H])[H])c2F)C([H])([H])C([H])([H])C([H])([H])C1([H])Oc1c([H])c([H])c2c(c1[H])C([H])([H])N(C(=O)C([H])(N([H])C(=O)C([H])(N([H])C([H])([H])[H])C([H])([H])[H])C(C([H])([H])[H])(C([H])([H])[H])C([H])([H])[H])C([H])(C(=O)N([H])C1([H])c3c([H])c([H])c([H])c([H])c3C([H])([H])C([H])([H])C1([H])[H])C2([H])[H]

$$$$
92:0:0
     RDKit          3D

 96105  0  0  1  0  0  0  0  0999 V2000
  -30.4750  -23.6440   20.5010 C   0  0  0  0  0  2  0  0  0  0  0  0
  -30.8120  -25.1250   20.2270 C   0  0  0  0  0  2  0  0  0  0  0  0
  -29.7850  -24.0610   18.2880 C   0  0  0  0  0  2  0  0  0  0  0  0
  -30.4940  -22.9430   19.1300 C   0  0  1  0  0  0  0  0  0  0  0  0
  -30.1960  -25.4650   18.8430 C   0  0  2  0  0  0  0  0  0  0  0  0
  -31.9650  -22.7550   18.6680 C   0  0  0  0  0  1  0  0  0  0  0  0
  -31.2350  -26.1320   17.9120 C   0  0  0  0  0  1  0  0  0  0  0  0
  -30.4800  -20.3290   19.2990 C   0  0  0  0  0  3  0  0  0  0  0  0
  -28.3580  -21.4720   18.9980 C   0  0  0  0  0  3  0  0  0  0  0  0
  -29.7680  -21.5590   19.1450 C   0  0  0  0  0  0  0  0  0  0  0  0
  -29.8240  -19.0730   19.2860 C   0  0  0  0  0  0  0  0  0  0  0  0
  -27.6960  -20.2290   18.9710 C   0  0  0  0  0  0  0  0  0  0  0  0
  -28.4240  -19.0310   19.1100 C   0  0  0  0  0  0  0  0  0  0  0  0
  -26.3520  -20.1870   18.7900 F   0  0  0  0  0  0  0  0  0  0  0  0
  -27.7740  -17.8400   19.0590 F   0  0  0  0  0  0  0  0  0  0  0  0
  -30.6230  -17.7680   19.3890 C   0  0  0  0  0  2  0  0  0  0  0  0
  -30.8140  -17.2230   20.8300 C   0  0  0  0  0  2  0  0  0  0  0  0
  -30.2370  -15.7990   21.1090 C   0  0  0  0  0  2  0  0  0  0  0  0
  -30.8910  -14.6090   20.3700 C   0  0  0  0  0  0  0  0  0  0  0  0
  -30.5700  -12.4400   19.2250 C   0  0  0  0  0  2  0  0  0  0  0  0
  -29.6220  -12.6710   18.0330 C   0  0  0  0  0  2  0  0  0  0  0  0
  -28.1550  -12.5160   18.4720 C   0  0  0  0  0  2  0  0  0  0  0  0
  -27.8270  -13.3630   19.7290 C   0  0  0  0  0  3  0  0  0  0  0  0
  -28.8950  -13.1390   20.8270 C   0  0  0  0  0  2  0  0  0  0  0  0
  -30.2170  -13.4300   20.2530 N   0  0  0  0  0  0  0  0  0  0  0  0
  -31.9920  -14.7880   19.8440 O   0  0  0  0  0  0  0  0  0  0  0  0
  -25.4260  -14.0010   20.4180 C   0  0  0  0  0  0  0  0  0  0  0  0
  -24.3480  -13.2470   20.7870 C   0  0  0  0  0  0  0  0  0  0  0  0
  -24.7940  -11.8880   20.7690 C   0  0  0  0  0  0  0  0  0  0  0  0
  -26.4670  -13.1100   20.2090 N   0  0  0  0  0  0  0  0  0  0  0  0
  -26.0860  -11.8310   20.4710 N   0  0  0  0  0  0  0  0  0  0  0  0
  -24.0490  -10.6380   20.9650 C   0  0  0  0  0  0  0  0  0  0  0  0
  -24.4650   -9.6680   21.9040 C   0  0  0  0  0  3  0  0  0  0  0  0
  -23.7220   -8.4820   22.0890 C   0  0  0  0  0  3  0  0  0  0  0  0
  -22.5440   -8.2610   21.3360 C   0  0  0  0  0  0  0  0  0  0  0  0
  -22.1490   -9.2190   20.3830 C   0  0  0  0  0  3  0  0  0  0  0  0
  -22.8940  -10.3960   20.1980 C   0  0  0  0  0  3  0  0  0  0  0  0
  -21.7650   -7.1340   21.4340 O   0  0  0  0  0  0  0  0  0  0  0  0
  -21.7120   -6.3960   22.5880 C   0  0  0  0  0  0  0  0  0  0  0  0
  -21.3040   -6.9630   23.8180 C   0  0  0  0  0  3  0  0  0  0  0  0
  -21.2050   -6.1540   24.9650 C   0  0  0  0  0  3  0  0  0  0  0  0
  -21.4880   -4.7780   24.8860 C   0  0  0  0  0  0  0  0  0  0  0  0
  -21.8830   -4.2110   23.6630 C   0  0  0  0  0  3  0  0  0  0  0  0
  -21.9950   -5.0170   22.5170 C   0  0  0  0  0  0  0  0  0  0  0  0
  -22.3580   -4.4600   21.3360 F   0  0  0  0  0  0  0  0  0  0  0  0
  -21.3780   -4.0010   25.9890 F   0  0  0  0  0  0  0  0  0  0  0  0
  -22.9490  -13.7400   21.0360 C   0  0  0  0  0  0  0  0  0  0  0  0
  -22.2020  -13.0660   21.9040 N   0  0  0  0  0  0  0  0  0  0  0  0
  -22.5240  -14.7600   20.4930 O   0  0  0  0  0  0  0  0  0  0  0  0
  -22.5570  -12.2500   22.3820 H   0  0  0  0  0  0  0  0  0  0  0  0
  -21.2560  -13.3680   22.0950 H   0  0  0  0  0  0  0  0  0  0  0  0
  -25.5990  -15.3670   20.2180 N   0  0  0  0  0  0  0  0  0  0  0  0
  -24.8200  -16.0100   20.2960 H   0  0  0  0  0  0  0  0  0  0  0  0
  -26.4460  -15.8130   19.8920 H   0  0  0  0  0  0  0  0  0  0  0  0
  -29.0000  -26.4760   18.8960 C   0  0  0  0  0  2  0  0  0  0  0  0
  -28.4430  -26.7320   20.1840 O   0  0  0  0  0  0  0  0  0  0  0  0
  -24.5950  -31.8980   23.2320 C   0  0  0  0  0  0  0  0  0  0  0  0
  -27.2800  -27.4680   20.1690 C   0  0  0  0  0  0  0  0  0  0  0  0
  -23.4100  -30.4960   21.5760 C   0  0  0  0  0  3  0  0  0  0  0  0
  -24.8800  -28.9610   20.1670 C   0  0  0  0  0  0  0  0  0  0  0  0
  -25.9360  -30.8570   21.4060 C   0  0  0  0  0  2  0  0  0  0  0  0
  -26.0290  -29.4850   20.7740 C   0  0  0  0  0  0  0  0  0  0  0  0
  -27.2280  -28.7380   20.7870 C   0  0  0  0  0  3  0  0  0  0  0  0
  -26.1100  -26.9510   19.5700 C   0  0  0  0  0  3  0  0  0  0  0  0
  -24.9120  -27.6910   19.5690 C   0  0  0  0  0  3  0  0  0  0  0  0
  -23.6350  -29.8190   20.1980 C   0  0  0  0  0  2  0  0  0  0  0  0
  -24.6650  -31.0990   22.1300 N   0  0  0  0  0  0  0  0  0  0  0  0
  -23.5070  -32.1670   23.7600 O   0  0  0  0  0  0  0  0  0  0  0  0
  -22.7540  -29.4710   22.5280 C   0  0  0  0  0  0  0  0  0  0  0  0
  -21.4290  -29.3030   22.4010 N   0  0  0  0  0  0  0  0  0  0  0  0
  -23.4320  -28.8320   23.3370 O   0  0  0  0  0  0  0  0  0  0  0  0
  -20.9460  -29.8660   21.7150 H   0  0  0  0  0  0  0  0  0  0  0  0
  -18.0370  -28.1640   22.9130 C   0  0  0  0  0  0  0  0  0  0  0  0
  -20.6030  -28.3660   23.1620 C   0  0  0  0  0  3  0  0  0  0  0  0
  -20.6710  -26.9470   22.5550 C   0  0  0  0  0  2  0  0  0  0  0  0
  -19.5510  -26.6640   21.5500 C   0  0  0  0  0  2  0  0  0  0  0  0
  -18.1800  -26.8240   22.2110 C   0  0  0  0  0  2  0  0  0  0  0  0
  -19.1760  -28.8950   23.3460 C   0  0  0  0  0  0  0  0  0  0  0  0
  -18.9890  -30.1520   23.9610 C   0  0  0  0  0  3  0  0  0  0  0  0
  -17.6970  -30.6770   24.1520 C   0  0  0  0  0  3  0  0  0  0  0  0
  -16.5720  -29.9400   23.7390 C   0  0  0  0  0  3  0  0  0  0  0  0
  -16.7440  -28.6850   23.1250 C   0  0  0  0  0  3  0  0  0  0  0  0
  -25.8730  -32.5310   23.8650 C   0  0  0  0  0  3  0  0  0  0  0  0
  -25.5620  -33.9310   24.1840 N   0  0  0  0  0  0  0  0  0  0  0  0
  -25.9110  -34.9790   23.4280 C   0  0  0  0  0  0  0  0  0  0  0  0
  -26.6020  -34.8690   22.4100 O   0  0  0  0  0  0  0  0  0  0  0  0
  -24.9540  -34.0890   24.9750 H   0  0  0  0  0  0  0  0  0  0  0  0
  -24.1940  -36.7710   23.0270 C   0  0  0  0  0  1  0  0  0  0  0  0
  -25.4170  -36.3700   23.8680 C   0  0  0  0  0  3  0  0  0  0  0  0
  -27.5370  -37.2500   24.7370 C   0  0  0  0  0  1  0  0  0  0  0  0
  -26.4540  -37.4210   23.7730 N   0  0  0  0  0  0  0  0  0  0  0  0
  -26.0480  -38.3430   23.9110 H   0  0  0  0  0  0  0  0  0  0  0  0
  -26.3750  -31.7640   25.1500 C   0  0  1  0  0  0  0  0  0  0  0  0
  -25.2680  -31.5250   26.2050 C   0  0  0  0  0  1  0  0  0  0  0  0
  -26.9670  -30.3870   24.7670 C   0  0  0  0  0  1  0  0  0  0  0  0
  -27.5180  -32.5600   25.8230 C   0  0  0  0  0  1  0  0  0  0  0  0
  2  1  1  0
  3  5  1  0
  3  4  1  0
  4  6  1  6
  4 10  1  0
  4  1  1  0
  5  7  1  6
  5 55  1  0
  5  2  1  0
  9 10  1  0
 10  8  2  0
 11  8  1  0
 11 16  1  0
 12  9  2  0
 12 13  1  0
 13 11  2  0
 14 12  1  0
 15 13  1  0
 16 17  1  0
 17 18  1  0
 19 18  1  0
 20 25  1  0
 21 22  1  0
 21 20  1  0
 23 22  1  0
 23 30  1  0
 23 24  1  0
 25 19  1  0
 25 24  1  0
 26 19  2  0
 27 28  2  0
 28 47  1  0
 29 28  1  0
 29 32  1  0
 30 27  1  0
 30 31  1  0
 31 29  2  0
 32 33  1  0
 33 34  2  0
 35 38  1  0
 35 34  1  0
 36 35  2  0
 37 36  1  0
 37 32  2  0
 38 39  1  0
 39 40  1  0
 40 41  2  0
 42 41  1  0
 42 46  1  0
 43 42  2  0
 44 39  2  0
 44 43  1  0
 45 44  1  0
 47 48  1  0
 48 51  1  0
 48 50  1  0
 49 47  2  0
 52 53  1  0
 52 27  1  0
 54 52  1  0
 55 56  1  0
 57 68  2  0
 58 56  1  0
 58 63  1  0
 59 67  1  0
 59 69  1  0
 60 66  1  0
 60 62  1  0
 61 67  1  0
 62 63  2  0
 62 61  1  0
 64 58  2  0
 65 64  1  0
 65 60  2  0
 66 59  1  0
 67 57  1  0
 69 71  2  0
 70 69  1  0
 72 70  1  0
 73 82  2  0
 73 78  1  0
 74 70  1  0
 74 78  1  0
 75 74  1  0
 76 77  1  0
 76 75  1  0
 77 73  1  0
 78 79  2  0
 79 80  1  0
 81 80  2  0
 82 81  1  0
 83 57  1  0
 83 84  1  0
 83 93  1  0
 84 87  1  0
 85 89  1  0
 85 84  1  0
 86 85  2  0
 89 88  1  0
 91 89  1  0
 91 92  1  0
 91 90  1  0
 93 96  1  1
 93 94  1  0
 95 93  1  0
M  ISO  4  18 100  19 100  55 101  56 101
M  END
>  <TORSDO>  (93) 
F 21

>  <SCORE>  (93) 
-13.828

>  <name>  (93) 
92

>  <ligand_id>  (93) 
92

>  <original_smiles>  (93) 
[H]c1c([H])c([H])c2c(c1[H])C([H])([H])C([H])([H])C([H])([H])C2([H])N([H])C(=O)C1([H])N(C(=O)C([H])(N([H])C(=O)C([H])(N([H])C([H])([H])[H])C([H])([H])[H])C(C([H])([H])[H])(C([H])([H])[H])C([H])([H])[H])C([H])([H])c2c([H])c(OC([H])([H])C3(C([H])([H])[H])C([H])([H])C([H])([H])C(c4c([H])c(F)c(F)c(C([H])([H])C([H])([H])C([H])([H])C(=O)N5C([H])([H])C([H])([H])C([H])([H])C([H])(n6nc(-c7c([H])c([H])c(Oc8c([H])c([H])c(F)c([H])c8F)c([H])c7[H])c(C(=O)N([H])[H])c6N([H])[H])C5([H])[H])c4[H])(C([H])([H])[H])C3([H])[H])c([H])c([H])c2C1([H])[H]

>  <smiles>  (93) 
[H]c1c([H])c([H])c2c(c1[H])C([H])([H])C([H])([H])C([H])([H])C2([H])N([H])C(=O)C1([H])N(C(=O)C([H])(N([H])C(=O)C([H])(N([H])C([H])([H])[H])C([H])([H])[H])C(C([H])([H])[H])(C([H])([H])[H])C([H])([H])[H])C([H])([H])c2c([H])c(OC([H])([H])C3(C([H])([H])[H])C([H])([H])C([H])([H])C(c4c([H])c(F)c(F)c(C([H])([H])C([H])([H])C([H])([H])C(=O)N5C([H])([H])C([H])([H])C([H])([H])C([H])(n6nc(-c7c([H])c([H])c(Oc8c([H])c([H])c(F)c([H])c8F)c([H])c7[H])c(C(=O)N([H])[H])c6N([H])[H])C5([H])[H])c4[H])(C([H])([H])[H])C3([H])[H])c([H])c([H])c2C1([H])[H]

$$$$
