0:0:0
     RDKit          3D

 92101  0  0  1  0  0  0  0  0999 V2000
  -28.4160  -22.6190   21.1160 C   0  0  0  0  0  3  0  0  0  0  0  0
  -28.8570  -24.2400   18.9330 C   0  0  0  0  0  3  0  0  0  0  0  0
  -29.0100  -21.9240   20.0040 C   0  0  0  0  0  0  0  0  0  0  0  0
  -28.0990  -24.0440   21.1610 C   0  0  0  0  0  0  0  0  0  0  0  0
  -29.1790  -22.8190   18.8890 C   0  0  0  0  0  0  0  0  0  0  0  0
  -28.3320  -24.9500   20.0660 C   0  0  0  0  0  0  0  0  0  0  0  0
  -27.5440  -24.6150   22.4560 C   0  0  0  0  0  1  0  0  0  0  0  0
  -29.7940  -22.2790   17.6090 C   0  0  0  0  0  1  0  0  0  0  0  0
  -30.0730  -19.8880   21.4940 C   0  0  0  0  0  2  0  0  0  0  0  0
  -30.5780  -18.4010   21.3800 C   0  0  0  0  0  2  0  0  0  0  0  0
  -29.1650  -18.9720   19.5140 C   0  0  0  0  0  2  0  0  0  0  0  0
  -29.6760  -20.4060   20.0950 C   0  0  0  0  0  3  0  0  0  0  0  0
  -30.1910  -17.7890   20.0020 C   0  0  0  0  0  3  0  0  0  0  0  0
  -30.6740  -15.0890   19.9210 C   0  0  0  0  0  0  0  0  0  0  0  0
  -30.5460  -12.7170   19.0610 C   0  0  0  0  0  2  0  0  0  0  0  0
  -29.5560  -12.6410   17.8760 C   0  0  0  0  0  2  0  0  0  0  0  0
  -28.1110  -12.4420   18.3760 C   0  0  0  0  0  2  0  0  0  0  0  0
  -27.7550  -13.3890   19.5520 C   0  0  0  0  0  3  0  0  0  0  0  0
  -28.8610  -13.4280   20.6260 C   0  0  0  0  0  2  0  0  0  0  0  0
  -30.0990  -13.8260   19.9460 N   0  0  0  0  0  0  0  0  0  0  0  0
  -31.8630  -15.1730   19.5920 O   0  0  0  0  0  0  0  0  0  0  0  0
  -29.8700  -16.2480   20.0610 N   0  0  0  0  0  0  0  0  0  0  0  0
  -28.9050  -16.0330   20.2660 H   0  0  0  0  0  0  0  0  0  0  0  0
  -25.4330  -13.9780   20.4600 C   0  0  0  0  0  0  0  0  0  0  0  0
  -24.3820  -13.2040   20.8690 C   0  0  0  0  0  0  0  0  0  0  0  0
  -24.8220  -11.8490   20.7610 C   0  0  0  0  0  0  0  0  0  0  0  0
  -26.4450  -13.0920   20.1220 N   0  0  0  0  0  0  0  0  0  0  0  0
  -26.0900  -11.8050   20.3680 N   0  0  0  0  0  0  0  0  0  0  0  0
  -24.0890  -10.5910   20.9500 C   0  0  0  0  0  0  0  0  0  0  0  0
  -24.5040   -9.6270   21.8960 C   0  0  0  0  0  3  0  0  0  0  0  0
  -23.7690   -8.4350   22.0720 C   0  0  0  0  0  3  0  0  0  0  0  0
  -22.6050   -8.1980   21.3030 C   0  0  0  0  0  0  0  0  0  0  0  0
  -22.2080   -9.1500   20.3480 C   0  0  0  0  0  3  0  0  0  0  0  0
  -22.9440  -10.3340   20.1700 C   0  0  0  0  0  3  0  0  0  0  0  0
  -21.8430   -7.0580   21.3890 O   0  0  0  0  0  0  0  0  0  0  0  0
  -21.7080   -6.3670   22.5670 C   0  0  0  0  0  0  0  0  0  0  0  0
  -21.1280   -6.9550   23.7120 C   0  0  0  0  0  3  0  0  0  0  0  0
  -20.9460   -6.1900   24.8810 C   0  0  0  0  0  3  0  0  0  0  0  0
  -21.3330   -4.8360   24.9040 C   0  0  0  0  0  0  0  0  0  0  0  0
  -21.9060   -4.2470   23.7630 C   0  0  0  0  0  3  0  0  0  0  0  0
  -22.0900   -5.0110   22.5970 C   0  0  0  0  0  0  0  0  0  0  0  0
  -22.6220   -4.4330   21.4940 F   0  0  0  0  0  0  0  0  0  0  0  0
  -21.1520   -4.0980   26.0240 F   0  0  0  0  0  0  0  0  0  0  0  0
  -23.0130  -13.6910   21.2420 C   0  0  0  0  0  0  0  0  0  0  0  0
  -22.3270  -12.9770   22.1270 N   0  0  0  0  0  0  0  0  0  0  0  0
  -22.5600  -14.7400   20.7830 O   0  0  0  0  0  0  0  0  0  0  0  0
  -22.7050  -12.1290   22.5210 H   0  0  0  0  0  0  0  0  0  0  0  0
  -21.4090  -13.2850   22.4160 H   0  0  0  0  0  0  0  0  0  0  0  0
  -25.6050  -15.3520   20.3190 N   0  0  0  0  0  0  0  0  0  0  0  0
  -24.8470  -16.0040   20.4930 H   0  0  0  0  0  0  0  0  0  0  0  0
  -26.4150  -15.7930   19.9040 H   0  0  0  0  0  0  0  0  0  0  0  0
  -28.2960  -26.4150   20.1260 O   0  0  0  0  0  0  0  0  0  0  0  0
  -24.5710  -31.9580   23.2090 C   0  0  0  0  0  0  0  0  0  0  0  0
  -27.1740  -27.3030   20.1420 C   0  0  0  0  0  0  0  0  0  0  0  0
  -23.3650  -30.5470   21.5830 C   0  0  0  0  0  3  0  0  0  0  0  0
  -24.8130  -28.9850   20.1440 C   0  0  0  0  0  0  0  0  0  0  0  0
  -25.9070  -30.8550   21.3790 C   0  0  0  0  0  2  0  0  0  0  0  0
  -25.9900  -29.4610   20.7360 C   0  0  0  0  0  0  0  0  0  0  0  0
  -27.1690  -28.6340   20.7180 C   0  0  0  0  0  3  0  0  0  0  0  0
  -25.9700  -26.9120   19.5200 C   0  0  0  0  0  3  0  0  0  0  0  0
  -24.8120  -27.7230   19.5250 C   0  0  0  0  0  3  0  0  0  0  0  0
  -23.5740  -29.8650   20.2040 C   0  0  0  0  0  2  0  0  0  0  0  0
  -24.6340  -31.1430   22.1120 N   0  0  0  0  0  0  0  0  0  0  0  0
  -23.4890  -32.2270   23.7540 O   0  0  0  0  0  0  0  0  0  0  0  0
  -22.7150  -29.5310   22.5560 C   0  0  0  0  0  0  0  0  0  0  0  0
  -21.3970  -29.3000   22.4080 N   0  0  0  0  0  0  0  0  0  0  0  0
  -23.3970  -28.9510   23.4020 O   0  0  0  0  0  0  0  0  0  0  0  0
  -20.9040  -29.8190   21.6960 H   0  0  0  0  0  0  0  0  0  0  0  0
  -18.0680  -27.9480   22.8550 C   0  0  0  0  0  0  0  0  0  0  0  0
  -20.6030  -28.3450   23.1830 C   0  0  0  0  0  3  0  0  0  0  0  0
  -20.7900  -26.9040   22.6520 C   0  0  0  0  0  2  0  0  0  0  0  0
  -19.7350  -26.5000   21.6160 C   0  0  0  0  0  2  0  0  0  0  0  0
  -18.3300  -26.5940   22.2190 C   0  0  0  0  0  2  0  0  0  0  0  0
  -19.1350  -28.7780   23.2930 C   0  0  0  0  0  0  0  0  0  0  0  0
  -18.8360  -30.0410   23.8440 C   0  0  0  0  0  3  0  0  0  0  0  0
  -17.5030  -30.4780   23.9630 C   0  0  0  0  0  3  0  0  0  0  0  0
  -16.4500  -29.6470   23.5410 C   0  0  0  0  0  3  0  0  0  0  0  0
  -16.7340  -28.3850   22.9920 C   0  0  0  0  0  3  0  0  0  0  0  0
  -25.8500  -32.6080   23.8200 C   0  0  0  0  0  3  0  0  0  0  0  0
  -25.5240  -34.0010   24.1610 N   0  0  0  0  0  0  0  0  0  0  0  0
  -25.8180  -35.0640   23.4000 C   0  0  0  0  0  0  0  0  0  0  0  0
  -26.4620  -34.9780   22.3510 O   0  0  0  0  0  0  0  0  0  0  0  0
  -24.9500  -34.1400   24.9800 H   0  0  0  0  0  0  0  0  0  0  0  0
  -24.0580  -36.8370   23.1000 C   0  0  0  0  0  1  0  0  0  0  0  0
  -25.3220  -36.4430   23.8800 C   0  0  0  0  0  3  0  0  0  0  0  0
  -27.4540  -37.3640   24.6800 C   0  0  0  0  0  1  0  0  0  0  0  0
  -26.3370  -37.5110   23.7500 N   0  0  0  0  0  0  0  0  0  0  0  0
  -25.9200  -38.4240   23.9020 H   0  0  0  0  0  0  0  0  0  0  0  0
  -26.3890  -31.8430   25.0930 C   0  0  1  0  0  0  0  0  0  0  0  0
  -25.3020  -31.5710   26.1600 C   0  0  0  0  0  1  0  0  0  0  0  0
  -27.0060  -30.4810   24.6960 C   0  0  0  0  0  1  0  0  0  0  0  0
  -27.5190  -32.6630   25.7600 C   0  0  0  0  0  1  0  0  0  0  0  0
  1  4  1  0
  2  6  1  0
  3  1  2  0
  4  7  1  0
  5  2  2  0
  5  3  1  0
  6 52  1  0
  6  4  2  0
  8  5  1  0
 10  9  1  0
 11 13  1  0
 11 12  1  0
 12  3  1  0
 12  9  1  0
 13 22  1  0
 13 10  1  0
 14 20  1  0
 14 22  1  0
 15 20  1  0
 16 17  1  0
 16 15  1  0
 18 17  1  0
 18 27  1  0
 18 19  1  0
 20 19  1  0
 21 14  2  0
 22 23  1  0
 24 25  2  0
 25 44  1  0
 26 25  1  0
 26 29  1  0
 27 28  1  0
 27 24  1  0
 28 26  2  0
 29 30  1  0
 30 31  2  0
 32 35  1  0
 32 31  1  0
 33 32  2  0
 34 33  1  0
 34 29  2  0
 35 36  1  0
 36 41  2  0
 36 37  1  0
 37 38  2  0
 38 39  1  0
 39 43  1  0
 40 39  2  0
 41 40  1  0
 42 41  1  0
 44 45  1  0
 45 48  1  0
 45 47  1  0
 46 44  2  0
 49 24  1  0
 49 50  1  0
 51 49  1  0
 52 54  1  0
 53 64  2  0
 54 59  1  0
 55 63  1  0
 55 65  1  0
 56 62  1  0
 56 58  1  0
 57 63  1  0
 58 57  1  0
 59 58  2  0
 60 61  1  0
 60 54  2  0
 61 56  2  0
 62 55  1  0
 63 53  1  0
 65 67  2  0
 66 65  1  0
 68 66  1  0
 69 78  2  0
 69 74  1  0
 70 66  1  0
 70 74  1  0
 71 70  1  0
 72 73  1  0
 72 71  1  0
 73 69  1  0
 74 75  2  0
 75 76  1  0
 77 76  2  0
 78 77  1  0
 79 53  1  0
 79 80  1  0
 79 89  1  0
 80 83  1  0
 81 85  1  0
 81 80  1  0
 82 81  2  0
 85 84  1  0
 87 85  1  0
 87 88  1  0
 87 86  1  0
 89 92  1  1
 89 90  1  0
 91 89  1  0
M  ISO  4   6 101  14 100  22 100  52 101
M  END
>  <TORSDO>  (1) 
F 17

>  <SCORE>  (1) 
-14.697

>  <name>  (1) 
0

>  <ligand_id>  (1) 
0

>  <original_smiles>  (1) 
[H]c1c([H])c([H])c2c(c1[H])C([H])([H])C([H])([H])C([H])([H])C2([H])N([H])C(=O)C1([H])N(C(=O)C([H])(N([H])C(=O)C([H])(N([H])C([H])([H])[H])C([H])([H])[H])C(C([H])([H])[H])(C([H])([H])[H])C([H])([H])[H])C([H])([H])c2c([H])c(Oc3c([H])c(C([H])([H])[H])c(C4([H])C([H])([H])C([H])([H])C([H])(N([H])C(=O)N5C([H])([H])C([H])([H])C([H])([H])C([H])(n6nc(-c7c([H])c([H])c(Oc8c([H])c([H])c(F)c([H])c8F)c([H])c7[H])c(C(=O)N([H])[H])c6N([H])[H])C5([H])[H])C4([H])[H])c([H])c3C([H])([H])[H])c([H])c([H])c2C1([H])[H]

>  <smiles>  (1) 
[H]c1c([H])c([H])c2c(c1[H])C([H])([H])C([H])([H])C([H])([H])C2([H])N([H])C(=O)C1([H])N(C(=O)C([H])(N([H])C(=O)C([H])(N([H])C([H])([H])[H])C([H])([H])[H])C(C([H])([H])[H])(C([H])([H])[H])C([H])([H])[H])C([H])([H])c2c([H])c(Oc3c([H])c(C([H])([H])[H])c(C4([H])C([H])([H])C([H])([H])C([H])(N([H])C(=O)N5C([H])([H])C([H])([H])C([H])([H])C([H])(n6nc(-c7c([H])c([H])c(Oc8c([H])c([H])c(F)c([H])c8F)c([H])c7[H])c(C(=O)N([H])[H])c6N([H])[H])C5([H])[H])C4([H])[H])c([H])c3C([H])([H])[H])c([H])c([H])c2C1([H])[H]

$$$$
1:0:0
     RDKit          3D

 90 98  0  0  1  0  0  0  0  0999 V2000
  -28.0890  -23.1750   21.5220 C   0  0  0  0  0  3  0  0  0  0  0  0
  -28.6540  -23.0160   19.1810 C   0  0  0  0  0  3  0  0  0  0  0  0
  -28.3880  -22.3600   20.4040 C   0  0  0  0  0  0  0  0  0  0  0  0
  -28.0480  -24.5920   21.4310 C   0  0  0  0  0  0  0  0  0  0  0  0
  -28.6250  -24.4360   19.0780 C   0  0  0  0  0  0  0  0  0  0  0  0
  -28.3250  -25.2500   20.2030 C   0  0  0  0  0  0  0  0  0  0  0  0
  -27.6800  -25.4030   22.6610 C   0  0  0  0  0  1  0  0  0  0  0  0
  -28.8810  -25.0750   17.7250 C   0  0  0  0  0  1  0  0  0  0  0  0
  -28.3640  -26.6460   20.1080 O   0  0  0  0  0  0  0  0  0  0  0  0
  -24.5900  -31.8900   23.2290 C   0  0  0  0  0  0  0  0  0  0  0  0
  -27.2050  -27.4090   20.1270 C   0  0  0  0  0  0  0  0  0  0  0  0
  -23.3810  -30.4970   21.5840 C   0  0  0  0  0  3  0  0  0  0  0  0
  -24.8260  -28.9560   20.1500 C   0  0  0  0  0  0  0  0  0  0  0  0
  -25.9120  -30.8360   21.3900 C   0  0  0  0  0  2  0  0  0  0  0  0
  -25.9900  -29.4640   20.7420 C   0  0  0  0  0  0  0  0  0  0  0  0
  -27.1840  -28.6970   20.7270 C   0  0  0  0  0  3  0  0  0  0  0  0
  -26.0240  -26.9280   19.5260 C   0  0  0  0  0  3  0  0  0  0  0  0
  -24.8400  -27.6920   19.5370 C   0  0  0  0  0  3  0  0  0  0  0  0
  -23.5870  -29.8230   20.2030 C   0  0  0  0  0  2  0  0  0  0  0  0
  -24.6460  -31.0920   22.1260 N   0  0  0  0  0  0  0  0  0  0  0  0
  -23.5110  -32.1640   23.7710 O   0  0  0  0  0  0  0  0  0  0  0  0
  -22.7280  -29.4740   22.5420 C   0  0  0  0  0  0  0  0  0  0  0  0
  -21.4030  -29.2940   22.4150 N   0  0  0  0  0  0  0  0  0  0  0  0
  -23.4110  -28.8460   23.3550 O   0  0  0  0  0  0  0  0  0  0  0  0
  -20.9140  -29.8490   21.7280 H   0  0  0  0  0  0  0  0  0  0  0  0
  -18.0290  -28.0930   22.9070 C   0  0  0  0  0  0  0  0  0  0  0  0
  -20.5860  -28.3530   23.1820 C   0  0  0  0  0  3  0  0  0  0  0  0
  -20.6900  -26.9240   22.6020 C   0  0  0  0  0  2  0  0  0  0  0  0
  -19.5900  -26.6020   21.5860 C   0  0  0  0  0  2  0  0  0  0  0  0
  -18.2070  -26.7450   22.2300 C   0  0  0  0  0  2  0  0  0  0  0  0
  -19.1460  -28.8550   23.3400 C   0  0  0  0  0  0  0  0  0  0  0  0
  -18.9250  -30.1180   23.9320 C   0  0  0  0  0  3  0  0  0  0  0  0
  -17.6200  -30.6160   24.0980 C   0  0  0  0  0  3  0  0  0  0  0  0
  -16.5160  -29.8510   23.6820 C   0  0  0  0  0  3  0  0  0  0  0  0
  -16.7220  -28.5910   23.0920 C   0  0  0  0  0  3  0  0  0  0  0  0
  -25.8780  -32.5180   23.8490 C   0  0  0  0  0  3  0  0  0  0  0  0
  -25.5690  -33.9130   24.1940 N   0  0  0  0  0  0  0  0  0  0  0  0
  -25.8890  -34.9720   23.4370 C   0  0  0  0  0  0  0  0  0  0  0  0
  -26.5460  -34.8780   22.3970 O   0  0  0  0  0  0  0  0  0  0  0  0
  -24.9860  -34.0600   25.0050 H   0  0  0  0  0  0  0  0  0  0  0  0
  -24.1470  -36.7580   23.1190 C   0  0  0  0  0  1  0  0  0  0  0  0
  -25.4010  -36.3550   23.9110 C   0  0  0  0  0  3  0  0  0  0  0  0
  -27.5460  -37.2430   24.7130 C   0  0  0  0  0  1  0  0  0  0  0  0
  -26.4280  -37.4140   23.7890 N   0  0  0  0  0  0  0  0  0  0  0  0
  -26.0210  -38.3310   23.9500 H   0  0  0  0  0  0  0  0  0  0  0  0
  -26.4040  -31.7350   25.1130 C   0  0  1  0  0  0  0  0  0  0  0  0
  -25.3190  -31.4850   26.1860 C   0  0  0  0  0  1  0  0  0  0  0  0
  -26.9860  -30.3620   24.7030 C   0  0  0  0  0  1  0  0  0  0  0  0
  -27.5570  -32.5250   25.7770 C   0  0  0  0  0  1  0  0  0  0  0  0
  -28.2550  -20.8180   20.5070 C   0  0  0  0  0  2  0  0  0  0  0  0
  -29.5170  -19.9010   20.3600 C   0  0  0  0  0  2  0  0  0  0  0  0
  -29.2390  -18.4090   20.7780 C   0  0  0  0  0  2  0  0  0  0  0  0
  -30.2670  -17.2860   20.3810 C   0  0  0  0  0  2  0  0  0  0  0  0
  -29.9160  -15.8530   20.9410 C   0  0  0  0  0  2  0  0  0  0  0  0
  -30.6700  -14.6140   20.3390 C   0  0  0  0  0  0  0  0  0  0  0  0
  -30.4140  -12.4300   19.1850 C   0  0  0  0  0  2  0  0  0  0  0  0
  -29.4540  -12.6250   17.9920 C   0  0  0  0  0  2  0  0  0  0  0  0
  -27.9840  -12.4730   18.4340 C   0  0  0  0  0  2  0  0  0  0  0  0
  -27.6580  -13.3000   19.7060 C   0  0  0  0  0  3  0  0  0  0  0  0
  -28.7270  -13.0820   20.7990 C   0  0  0  0  0  2  0  0  0  0  0  0
  -30.0380  -13.4080   20.2210 N   0  0  0  0  0  0  0  0  0  0  0  0
  -31.8010  -14.7880   19.8740 O   0  0  0  0  0  0  0  0  0  0  0  0
  -25.2680  -13.9060   20.4350 C   0  0  0  0  0  0  0  0  0  0  0  0
  -24.2030  -13.1360   20.8150 C   0  0  0  0  0  0  0  0  0  0  0  0
  -24.6640  -11.7840   20.7880 C   0  0  0  0  0  0  0  0  0  0  0  0
  -26.3110  -13.0240   20.1990 N   0  0  0  0  0  0  0  0  0  0  0  0
  -25.9520  -11.7420   20.4690 N   0  0  0  0  0  0  0  0  0  0  0  0
  -23.9380  -10.5240   20.9910 C   0  0  0  0  0  0  0  0  0  0  0  0
  -24.3790   -9.5600   21.9230 C   0  0  0  0  0  3  0  0  0  0  0  0
  -23.6560   -8.3620   22.1120 C   0  0  0  0  0  3  0  0  0  0  0  0
  -22.4790   -8.1210   21.3660 C   0  0  0  0  0  0  0  0  0  0  0  0
  -22.0580   -9.0720   20.4210 C   0  0  0  0  0  3  0  0  0  0  0  0
  -22.7810  -10.2610   20.2310 C   0  0  0  0  0  3  0  0  0  0  0  0
  -21.7270   -6.9760   21.4650 O   0  0  0  0  0  0  0  0  0  0  0  0
  -21.6840   -6.2380   22.6200 C   0  0  0  0  0  0  0  0  0  0  0  0
  -21.2710   -6.8010   23.8470 C   0  0  0  0  0  3  0  0  0  0  0  0
  -21.1760   -5.9910   24.9960 C   0  0  0  0  0  3  0  0  0  0  0  0
  -21.4840   -4.6180   24.9170 C   0  0  0  0  0  0  0  0  0  0  0  0
  -21.8920   -4.0560   23.6960 C   0  0  0  0  0  3  0  0  0  0  0  0
  -21.9880   -4.8640   22.5490 C   0  0  0  0  0  0  0  0  0  0  0  0
  -22.3610   -4.3130   21.3690 F   0  0  0  0  0  0  0  0  0  0  0  0
  -21.3860   -3.8390   26.0200 F   0  0  0  0  0  0  0  0  0  0  0  0
  -22.8080  -13.6140   21.0970 C   0  0  0  0  0  0  0  0  0  0  0  0
  -22.0910  -12.9210   21.9740 N   0  0  0  0  0  0  0  0  0  0  0  0
  -22.3650  -14.6360   20.5780 O   0  0  0  0  0  0  0  0  0  0  0  0
  -22.4690  -12.0930   22.4130 H   0  0  0  0  0  0  0  0  0  0  0  0
  -21.1550  -13.2170   22.2100 H   0  0  0  0  0  0  0  0  0  0  0  0
  -25.4350  -15.2760   20.2530 N   0  0  0  0  0  0  0  0  0  0  0  0
  -24.6740  -15.9360   20.3640 H   0  0  0  0  0  0  0  0  0  0  0  0
  -26.2930  -15.7100   19.9300 H   0  0  0  0  0  0  0  0  0  0  0  0
  2  3  1  0
  3 50  1  0
  3  1  2  0
  4  1  1  0
  4  7  1  0
  5  2  2  0
  5  6  1  0
  6  4  2  0
  8  5  1  0
  9 11  1  0
  9  6  1  0
 10 21  2  0
 11 16  1  0
 12 20  1  0
 12 22  1  0
 13 19  1  0
 13 15  1  0
 14 20  1  0
 15 14  1  0
 16 15  2  0
 17 18  1  0
 17 11  2  0
 18 13  2  0
 19 12  1  0
 20 10  1  0
 22 24  2  0
 23 22  1  0
 25 23  1  0
 26 35  2  0
 26 31  1  0
 27 23  1  0
 27 31  1  0
 28 27  1  0
 29 30  1  0
 29 28  1  0
 30 26  1  0
 31 32  2  0
 32 33  1  0
 34 33  2  0
 35 34  1  0
 36 10  1  0
 36 37  1  0
 36 46  1  0
 37 40  1  0
 38 42  1  0
 38 37  1  0
 39 38  2  0
 42 41  1  0
 44 42  1  0
 44 45  1  0
 44 43  1  0
 46 49  1  1
 46 47  1  0
 48 46  1  0
 51 50  1  0
 51 52  1  0
 53 52  1  0
 53 54  1  0
 55 54  1  0
 56 61  1  0
 57 58  1  0
 57 56  1  0
 59 58  1  0
 59 66  1  0
 59 60  1  0
 61 55  1  0
 61 60  1  0
 62 55  2  0
 63 64  2  0
 64 83  1  0
 65 64  1  0
 65 68  1  0
 66 63  1  0
 66 67  1  0
 67 65  2  0
 68 69  1  0
 69 70  2  0
 71 74  1  0
 71 70  1  0
 72 71  2  0
 73 72  1  0
 73 68  2  0
 74 75  1  0
 75 76  1  0
 76 77  2  0
 78 77  1  0
 78 82  1  0
 79 78  2  0
 80 75  2  0
 80 79  1  0
 81 80  1  0
 83 84  1  0
 84 87  1  0
 84 86  1  0
 85 83  2  0
 88 89  1  0
 88 63  1  0
 90 88  1  0
M  ISO  4   6 101   9 101  54 100  55 100
M  END
>  <TORSDO>  (2) 
F 21

>  <SCORE>  (2) 
-13.508

>  <name>  (2) 
1

>  <ligand_id>  (2) 
1

>  <original_smiles>  (2) 
[H]c1c([H])c([H])c2c(c1[H])C([H])([H])C([H])([H])C([H])([H])C2([H])N([H])C(=O)C1([H])N(C(=O)C([H])(N([H])C(=O)C([H])(N([H])C([H])([H])[H])C([H])([H])[H])C(C([H])([H])[H])(C([H])([H])[H])C([H])([H])[H])C([H])([H])c2c([H])c(Oc3c(C([H])([H])[H])c([H])c(C([H])([H])C([H])([H])C([H])([H])C([H])([H])C([H])([H])C(=O)N4C([H])([H])C([H])([H])C([H])([H])C([H])(n5nc(-c6c([H])c([H])c(Oc7c([H])c([H])c(F)c([H])c7F)c([H])c6[H])c(C(=O)N([H])[H])c5N([H])[H])C4([H])[H])c([H])c3C([H])([H])[H])c([H])c([H])c2C1([H])[H]

>  <smiles>  (2) 
[H]c1c([H])c([H])c2c(c1[H])C([H])([H])C([H])([H])C([H])([H])C2([H])N([H])C(=O)C1([H])N(C(=O)C([H])(N([H])C(=O)C([H])(N([H])C([H])([H])[H])C([H])([H])[H])C(C([H])([H])[H])(C([H])([H])[H])C([H])([H])[H])C([H])([H])c2c([H])c(Oc3c(C([H])([H])[H])c([H])c(C([H])([H])C([H])([H])C([H])([H])C([H])([H])C([H])([H])C(=O)N4C([H])([H])C([H])([H])C([H])([H])C([H])(n5nc(-c6c([H])c([H])c(Oc7c([H])c([H])c(F)c([H])c7F)c([H])c6[H])c(C(=O)N([H])[H])c5N([H])[H])C4([H])[H])c([H])c3C([H])([H])[H])c([H])c([H])c2C1([H])[H]

$$$$
2:0:0
     RDKit          3D

 93101  0  0  1  0  0  0  0  0999 V2000
  -29.6230  -25.1270   20.6880 C   0  0  0  0  0  3  0  0  0  0  0  0
  -29.6190  -24.4860   23.0400 C   0  0  0  0  0  3  0  0  0  0  0  0
  -28.3250  -26.4140   22.3000 C   0  0  0  0  0  3  0  0  0  0  0  0
  -30.0460  -24.2630   21.7180 C   0  0  0  0  0  0  0  0  0  0  0  0
  -28.7700  -26.2120   20.9660 C   0  0  0  0  0  0  0  0  0  0  0  0
  -28.7520  -25.5520   23.3470 C   0  0  0  0  0  0  0  0  0  0  0  0
  -27.6470  -26.8260   25.0670 C   0  0  0  0  0  1  0  0  0  0  0  0
  -28.3990  -25.6840   24.6720 O   0  0  0  0  0  0  0  0  0  0  0  0
  -31.0130  -23.1840   21.4390 C   0  0  0  0  0  0  0  0  0  0  0  0
  -32.1590  -23.1760   21.8930 O   0  0  0  0  0  0  0  0  0  0  0  0
  -30.5330  -22.0380   20.5510 C   0  0  0  0  0  2  0  0  0  0  0  0
  -30.0330  -20.8140   21.3460 C   0  0  0  0  0  2  0  0  0  0  0  0
  -30.1810  -19.5280   20.5170 C   0  0  0  0  0  2  0  0  0  0  0  0
  -29.8400  -18.2250   21.2660 C   0  0  0  0  0  2  0  0  0  0  0  0
  -30.2480  -17.0070   20.4190 C   0  0  0  0  0  2  0  0  0  0  0  0
  -29.7270  -15.6290   20.9040 C   0  0  0  0  0  2  0  0  0  0  0  0
  -30.2480  -14.4770   20.0150 C   0  0  0  0  0  0  0  0  0  0  0  0
  -29.8650  -12.3410   18.8370 C   0  0  0  0  0  2  0  0  0  0  0  0
  -28.8140  -12.5290   17.7270 C   0  0  0  0  0  2  0  0  0  0  0  0
  -27.3970  -12.3260   18.2960 C   0  0  0  0  0  2  0  0  0  0  0  0
  -27.1480  -13.1550   19.5850 C   0  0  0  0  0  3  0  0  0  0  0  0
  -28.3090  -12.9760   20.5930 C   0  0  0  0  0  2  0  0  0  0  0  0
  -29.5680  -13.3050   19.9080 N   0  0  0  0  0  0  0  0  0  0  0  0
  -31.2690  -14.6880   19.3530 O   0  0  0  0  0  0  0  0  0  0  0  0
  -24.8060  -13.6680   20.5260 C   0  0  0  0  0  0  0  0  0  0  0  0
  -23.8030  -12.8540   20.9760 C   0  0  0  0  0  0  0  0  0  0  0  0
  -24.3050  -11.5190   20.8790 C   0  0  0  0  0  0  0  0  0  0  0  0
  -25.8550  -12.8280   20.1840 N   0  0  0  0  0  0  0  0  0  0  0  0
  -25.5600  -11.5310   20.4530 N   0  0  0  0  0  0  0  0  0  0  0  0
  -23.6410  -10.2290   21.1130 C   0  0  0  0  0  0  0  0  0  0  0  0
  -24.1640   -9.2850   22.0220 C   0  0  0  0  0  3  0  0  0  0  0  0
  -23.4990   -8.0590   22.2420 C   0  0  0  0  0  3  0  0  0  0  0  0
  -22.2960   -7.7700   21.5550 C   0  0  0  0  0  0  0  0  0  0  0  0
  -21.7940   -8.7030   20.6310 C   0  0  0  0  0  3  0  0  0  0  0  0
  -22.4590   -9.9210   20.4090 C   0  0  0  0  0  3  0  0  0  0  0  0
  -21.5970   -6.5960   21.6860 O   0  0  0  0  0  0  0  0  0  0  0  0
  -21.6200   -5.8700   22.8490 C   0  0  0  0  0  0  0  0  0  0  0  0
  -21.1950   -6.4190   24.0790 C   0  0  0  0  0  3  0  0  0  0  0  0
  -21.1700   -5.6170   25.2370 C   0  0  0  0  0  3  0  0  0  0  0  0
  -21.5610   -4.2670   25.1670 C   0  0  0  0  0  0  0  0  0  0  0  0
  -21.9800   -3.7160   23.9420 C   0  0  0  0  0  3  0  0  0  0  0  0
  -22.0060   -4.5160   22.7870 C   0  0  0  0  0  0  0  0  0  0  0  0
  -22.3910   -3.9760   21.6060 F   0  0  0  0  0  0  0  0  0  0  0  0
  -21.5300   -3.4930   26.2780 F   0  0  0  0  0  0  0  0  0  0  0  0
  -22.4220  -13.2770   21.3860 C   0  0  0  0  0  0  0  0  0  0  0  0
  -21.7990  -12.5380   22.2980 N   0  0  0  0  0  0  0  0  0  0  0  0
  -21.9060  -14.2990   20.9340 O   0  0  0  0  0  0  0  0  0  0  0  0
  -22.2310  -11.7130   22.6870 H   0  0  0  0  0  0  0  0  0  0  0  0
  -20.8780  -12.8050   22.6160 H   0  0  0  0  0  0  0  0  0  0  0  0
  -24.9090  -15.0460   20.3600 N   0  0  0  0  0  0  0  0  0  0  0  0
  -24.1370  -15.6740   20.5580 H   0  0  0  0  0  0  0  0  0  0  0  0
  -25.7190  -15.5220   19.9800 H   0  0  0  0  0  0  0  0  0  0  0  0
  -28.4420  -27.0330   19.9010 O   0  0  0  0  0  0  0  0  0  0  0  0
  -24.5950  -31.9920   23.2090 C   0  0  0  0  0  0  0  0  0  0  0  0
  -27.2730  -27.7450   19.9340 C   0  0  0  0  0  0  0  0  0  0  0  0
  -23.3860  -30.6170   21.5430 C   0  0  0  0  0  3  0  0  0  0  0  0
  -24.8470  -29.1710   20.0330 C   0  0  0  0  0  0  0  0  0  0  0  0
  -25.8950  -31.0530   21.3060 C   0  0  0  0  0  2  0  0  0  0  0  0
  -26.0030  -29.7120   20.6140 C   0  0  0  0  0  0  0  0  0  0  0  0
  -27.2230  -29.0090   20.5570 C   0  0  0  0  0  3  0  0  0  0  0  0
  -26.1080  -27.2080   19.3490 C   0  0  0  0  0  3  0  0  0  0  0  0
  -24.8940  -27.9180   19.3980 C   0  0  0  0  0  3  0  0  0  0  0  0
  -23.5820  -29.9900   20.1380 C   0  0  0  0  0  2  0  0  0  0  0  0
  -24.6450  -31.2330   22.0780 N   0  0  0  0  0  0  0  0  0  0  0  0
  -23.5210  -32.2200   23.7810 O   0  0  0  0  0  0  0  0  0  0  0  0
  -22.7850  -29.5470   22.4820 C   0  0  0  0  0  0  0  0  0  0  0  0
  -21.4680  -29.3140   22.3520 N   0  0  0  0  0  0  0  0  0  0  0  0
  -23.4960  -28.9290   23.2790 O   0  0  0  0  0  0  0  0  0  0  0  0
  -20.9570  -29.8700   21.6820 H   0  0  0  0  0  0  0  0  0  0  0  0
  -18.1450  -27.9660   22.8110 C   0  0  0  0  0  0  0  0  0  0  0  0
  -20.6890  -28.3270   23.0970 C   0  0  0  0  0  3  0  0  0  0  0  0
  -20.8560  -26.9130   22.4940 C   0  0  0  0  0  2  0  0  0  0  0  0
  -19.7720  -26.5650   21.4680 C   0  0  0  0  0  2  0  0  0  0  0  0
  -18.3810  -26.6390   22.1070 C   0  0  0  0  0  2  0  0  0  0  0  0
  -19.2290  -28.7670   23.2600 C   0  0  0  0  0  0  0  0  0  0  0  0
  -18.9560  -30.0070   23.8770 C   0  0  0  0  0  3  0  0  0  0  0  0
  -17.6330  -30.4520   24.0430 C   0  0  0  0  0  3  0  0  0  0  0  0
  -16.5630  -29.6490   23.6110 C   0  0  0  0  0  3  0  0  0  0  0  0
  -16.8180  -28.4060   23.0030 C   0  0  0  0  0  3  0  0  0  0  0  0
  -25.8810  -32.6300   23.8250 C   0  0  0  0  0  3  0  0  0  0  0  0
  -25.5520  -34.0140   24.1930 N   0  0  0  0  0  0  0  0  0  0  0  0
  -25.8280  -35.0860   23.4400 C   0  0  0  0  0  0  0  0  0  0  0  0
  -26.4560  -35.0190   22.3800 O   0  0  0  0  0  0  0  0  0  0  0  0
  -24.9920  -34.1400   25.0230 H   0  0  0  0  0  0  0  0  0  0  0  0
  -24.0270  -36.8250   23.2060 C   0  0  0  0  0  1  0  0  0  0  0  0
  -25.3240  -36.4540   23.9410 C   0  0  0  0  0  3  0  0  0  0  0  0
  -27.4750  -37.3950   24.6600 C   0  0  0  0  0  1  0  0  0  0  0  0
  -26.3160  -37.5390   23.7830 N   0  0  0  0  0  0  0  0  0  0  0  0
  -25.8930  -38.4450   23.9660 H   0  0  0  0  0  0  0  0  0  0  0  0
  -26.4370  -31.8380   25.0710 C   0  0  1  0  0  0  0  0  0  0  0  0
  -25.3680  -31.5520   26.1510 C   0  0  0  0  0  1  0  0  0  0  0  0
  -27.0440  -30.4840   24.6310 C   0  0  0  0  0  1  0  0  0  0  0  0
  -27.5850  -32.6420   25.7280 C   0  0  0  0  0  1  0  0  0  0  0  0
  1  5  2  0
  1  4  1  0
  2  6  1  0
  3  6  2  0
  4  2  2  0
  5  3  1  0
  6  8  1  0
  8  7  1  0
  9  4  1  0
  9 10  2  0
 11 12  1  0
 11  9  1  0
 13 14  1  0
 13 12  1  0
 15 16  1  0
 15 14  1  0
 17 16  1  0
 18 23  1  0
 19 20  1  0
 19 18  1  0
 21 20  1  0
 21 28  1  0
 21 22  1  0
 23 17  1  0
 23 22  1  0
 24 17  2  0
 25 26  2  0
 26 45  1  0
 27 26  1  0
 27 30  1  0
 28 29  1  0
 28 25  1  0
 29 27  2  0
 30 31  1  0
 31 32  2  0
 33 36  1  0
 33 32  1  0
 34 33  2  0
 35 34  1  0
 35 30  2  0
 36 37  1  0
 37 38  1  0
 38 39  2  0
 40 39  1  0
 40 44  1  0
 41 40  2  0
 42 37  2  0
 42 41  1  0
 43 42  1  0
 45 46  1  0
 46 49  1  0
 46 48  1  0
 47 45  2  0
 50 25  1  0
 50 51  1  0
 52 50  1  0
 53 55  1  0
 53  5  1  0
 54 65  2  0
 55 60  1  0
 56 64  1  0
 56 66  1  0
 57 63  1  0
 57 59  1  0
 58 64  1  0
 59 58  1  0
 60 59  2  0
 61 62  1  0
 61 55  2  0
 62 57  2  0
 63 56  1  0
 64 54  1  0
 66 68  2  0
 67 66  1  0
 69 67  1  0
 70 79  2  0
 70 75  1  0
 71 67  1  0
 71 75  1  0
 72 71  1  0
 73 74  1  0
 73 72  1  0
 74 70  1  0
 75 76  2  0
 76 77  1  0
 78 77  2  0
 79 78  1  0
 80 54  1  0
 80 81  1  0
 80 90  1  0
 81 84  1  0
 82 86  1  0
 82 81  1  0
 83 82  2  0
 86 85  1  0
 88 86  1  0
 88 89  1  0
 88 87  1  0
 90 93  1  1
 90 91  1  0
 92 90  1  0
M  ISO  4   5 101  16 100  17 100  53 101
M  END
>  <TORSDO>  (3) 
F 24

>  <SCORE>  (3) 
-10.988

>  <name>  (3) 
2

>  <ligand_id>  (3) 
2

>  <original_smiles>  (3) 
[H]c1c([H])c([H])c2c(c1[H])C([H])([H])C([H])([H])C([H])([H])C2([H])N([H])C(=O)C1([H])N(C(=O)C([H])(N([H])C(=O)C([H])(N([H])C([H])([H])[H])C([H])([H])[H])C(C([H])([H])[H])(C([H])([H])[H])C([H])([H])[H])C([H])([H])c2c([H])c(Oc3c([H])c(OC([H])([H])[H])c([H])c(C(=O)C([H])([H])C([H])([H])C([H])([H])C([H])([H])C([H])([H])C([H])([H])C(=O)N4C([H])([H])C([H])([H])C([H])([H])C([H])(n5nc(-c6c([H])c([H])c(Oc7c([H])c([H])c(F)c([H])c7F)c([H])c6[H])c(C(=O)N([H])[H])c5N([H])[H])C4([H])[H])c3[H])c([H])c([H])c2C1([H])[H]

>  <smiles>  (3) 
[H]c1c([H])c([H])c2c(c1[H])C([H])([H])C([H])([H])C([H])([H])C2([H])N([H])C(=O)C1([H])N(C(=O)C([H])(N([H])C(=O)C([H])(N([H])C([H])([H])[H])C([H])([H])[H])C(C([H])([H])[H])(C([H])([H])[H])C([H])([H])[H])C([H])([H])c2c([H])c(Oc3c([H])c(OC([H])([H])[H])c([H])c(C(=O)C([H])([H])C([H])([H])C([H])([H])C([H])([H])C([H])([H])C([H])([H])C(=O)N4C([H])([H])C([H])([H])C([H])([H])C([H])(n5nc(-c6c([H])c([H])c(Oc7c([H])c([H])c(F)c([H])c7F)c([H])c6[H])c(C(=O)N([H])[H])c5N([H])[H])C4([H])[H])c3[H])c([H])c([H])c2C1([H])[H]

$$$$
3:0:0
     RDKit          3D

 93101  0  0  1  0  0  0  0  0999 V2000
  -29.2840  -20.8420   21.5550 C   0  0  0  0  0  3  0  0  0  0  0  0
  -28.7940  -22.1710   21.4350 C   0  0  0  0  0  0  0  0  0  0  0  0
  -29.6130  -20.0350   20.4380 C   0  0  0  0  0  0  0  0  0  0  0  0
  -29.3940  -20.6240   19.1620 C   0  0  0  0  0  0  0  0  0  0  0  0
  -28.8010  -21.9310   19.0290 C   0  0  0  0  0  0  0  0  0  0  0  0
  -28.5500  -22.7660   20.1620 C   0  0  0  0  0  0  0  0  0  0  0  0
  -28.5270  -22.9400   22.7180 C   0  0  0  0  0  1  0  0  0  0  0  0
  -29.8290  -19.8760   17.9120 C   0  0  0  0  0  1  0  0  0  0  0  0
  -28.4140  -22.4240   17.6410 C   0  0  0  0  0  1  0  0  0  0  0  0
  -30.3140  -18.6490   20.7140 C   0  0  0  0  0  2  0  0  0  0  0  0
  -29.9910  -17.3000   19.9200 C   0  0  0  0  0  2  0  0  0  0  0  0
  -31.4220  -16.0330   21.6530 C   0  0  0  0  0  1  0  0  0  0  0  0
  -28.9760  -15.7020   21.5710 C   0  0  0  0  0  1  0  0  0  0  0  0
  -30.2200  -15.8990   20.6780 C   0  0  1  0  0  0  0  0  0  0  0  0
  -30.6210  -14.6680   19.7170 C   0  0  0  0  0  0  0  0  0  0  0  0
  -30.3260  -12.4860   18.5260 C   0  0  0  0  0  2  0  0  0  0  0  0
  -29.2340  -12.5850   17.4330 C   0  0  0  0  0  2  0  0  0  0  0  0
  -27.8150  -12.4060   18.0140 C   0  0  0  0  0  2  0  0  0  0  0  0
  -27.6030  -13.2290   19.3110 C   0  0  0  0  0  3  0  0  0  0  0  0
  -28.7750  -12.9530   20.2710 C   0  0  0  0  0  2  0  0  0  0  0  0
  -29.9980  -13.4390   19.6170 N   0  0  0  0  0  0  0  0  0  0  0  0
  -31.6140  -14.8690   19.0060 O   0  0  0  0  0  0  0  0  0  0  0  0
  -25.3030  -13.8200   20.3020 C   0  0  0  0  0  0  0  0  0  0  0  0
  -24.2820  -13.0360   20.7680 C   0  0  0  0  0  0  0  0  0  0  0  0
  -24.7290  -11.6860   20.6370 C   0  0  0  0  0  0  0  0  0  0  0  0
  -26.3110  -12.9430   19.9270 N   0  0  0  0  0  0  0  0  0  0  0  0
  -25.9730  -11.6530   20.1780 N   0  0  0  0  0  0  0  0  0  0  0  0
  -24.0240  -10.4180   20.8650 C   0  0  0  0  0  0  0  0  0  0  0  0
  -24.4740   -9.4870   21.8260 C   0  0  0  0  0  3  0  0  0  0  0  0
  -23.7690   -8.2820   22.0390 C   0  0  0  0  0  3  0  0  0  0  0  0
  -22.6010   -8.0020   21.2920 C   0  0  0  0  0  0  0  0  0  0  0  0
  -22.1690   -8.9230   20.3200 C   0  0  0  0  0  3  0  0  0  0  0  0
  -22.8760  -10.1180   20.1050 C   0  0  0  0  0  3  0  0  0  0  0  0
  -21.8650   -6.8480   21.4160 O   0  0  0  0  0  0  0  0  0  0  0  0
  -21.7370   -6.2020   22.6180 C   0  0  0  0  0  0  0  0  0  0  0  0
  -21.1770   -6.8350   23.7490 C   0  0  0  0  0  3  0  0  0  0  0  0
  -21.0000   -6.1120   24.9460 C   0  0  0  0  0  3  0  0  0  0  0  0
  -21.3720   -4.7560   25.0100 C   0  0  0  0  0  0  0  0  0  0  0  0
  -21.9220   -4.1210   23.8830 C   0  0  0  0  0  3  0  0  0  0  0  0
  -22.1020   -4.8420   22.6900 C   0  0  0  0  0  0  0  0  0  0  0  0
  -22.6140   -4.2200   21.6000 F   0  0  0  0  0  0  0  0  0  0  0  0
  -21.1940   -4.0580   26.1570 F   0  0  0  0  0  0  0  0  0  0  0  0
  -22.9290  -13.5050   21.2200 C   0  0  0  0  0  0  0  0  0  0  0  0
  -22.3040  -12.7780   22.1410 N   0  0  0  0  0  0  0  0  0  0  0  0
  -22.4390  -14.5490   20.7930 O   0  0  0  0  0  0  0  0  0  0  0  0
  -22.7140  -11.9320   22.5080 H   0  0  0  0  0  0  0  0  0  0  0  0
  -21.4030  -13.0750   22.4870 H   0  0  0  0  0  0  0  0  0  0  0  0
  -25.4530  -15.1940   20.1500 N   0  0  0  0  0  0  0  0  0  0  0  0
  -24.7100  -15.8480   20.3650 H   0  0  0  0  0  0  0  0  0  0  0  0
  -26.2660  -15.6400   19.7470 H   0  0  0  0  0  0  0  0  0  0  0  0
  -27.9520  -24.2310   20.0640 C   0  0  0  0  0  2  0  0  0  0  0  0
  -28.6760  -25.3460   19.2140 C   0  0  0  0  0  2  0  0  0  0  0  0
  -28.5780  -26.7470   19.6430 O   0  0  0  0  0  0  0  0  0  0  0  0
  -24.6700  -31.6640   23.0850 C   0  0  0  0  0  0  0  0  0  0  0  0
  -27.3870  -27.4690   19.6590 C   0  0  0  0  0  0  0  0  0  0  0  0
  -23.4790  -30.3230   21.3850 C   0  0  0  0  0  3  0  0  0  0  0  0
  -24.9500  -28.9400   19.8140 C   0  0  0  0  0  0  0  0  0  0  0  0
  -25.9910  -30.7770   21.1540 C   0  0  0  0  0  2  0  0  0  0  0  0
  -26.1080  -29.4500   20.4170 C   0  0  0  0  0  0  0  0  0  0  0  0
  -27.3250  -28.7220   20.3330 C   0  0  0  0  0  3  0  0  0  0  0  0
  -26.2090  -26.9970   19.0380 C   0  0  0  0  0  3  0  0  0  0  0  0
  -25.0010  -27.7210   19.1170 C   0  0  0  0  0  3  0  0  0  0  0  0
  -23.6790  -29.7510   19.9550 C   0  0  0  0  0  2  0  0  0  0  0  0
  -24.7330  -30.9350   21.9330 N   0  0  0  0  0  0  0  0  0  0  0  0
  -23.5910  -31.8570   23.6660 O   0  0  0  0  0  0  0  0  0  0  0  0
  -22.8890  -29.2180   22.2920 C   0  0  0  0  0  0  0  0  0  0  0  0
  -21.5760  -28.9680   22.1600 N   0  0  0  0  0  0  0  0  0  0  0  0
  -23.6100  -28.5880   23.0730 O   0  0  0  0  0  0  0  0  0  0  0  0
  -21.0510  -29.5350   21.5080 H   0  0  0  0  0  0  0  0  0  0  0  0
  -18.2780  -27.5430   22.5880 C   0  0  0  0  0  0  0  0  0  0  0  0
  -20.8160  -27.9450   22.8790 C   0  0  0  0  0  3  0  0  0  0  0  0
  -21.0060  -26.5540   22.2330 C   0  0  0  0  0  2  0  0  0  0  0  0
  -19.9240  -26.2150   21.2010 C   0  0  0  0  0  2  0  0  0  0  0  0
  -18.5360  -26.2410   21.8470 C   0  0  0  0  0  2  0  0  0  0  0  0
  -19.3480  -28.3500   23.0580 C   0  0  0  0  0  0  0  0  0  0  0  0
  -19.0530  -29.5660   23.7110 C   0  0  0  0  0  3  0  0  0  0  0  0
  -17.7200  -29.9770   23.9000 C   0  0  0  0  0  3  0  0  0  0  0  0
  -16.6650  -29.1670   23.4460 C   0  0  0  0  0  3  0  0  0  0  0  0
  -16.9440  -27.9520   22.7960 C   0  0  0  0  0  3  0  0  0  0  0  0
  -25.9420  -32.3070   23.7160 C   0  0  0  0  0  3  0  0  0  0  0  0
  -25.5980  -33.6820   24.1020 N   0  0  0  0  0  0  0  0  0  0  0  0
  -25.8880  -34.7710   23.3790 C   0  0  0  0  0  0  0  0  0  0  0  0
  -26.5430  -34.7280   22.3330 O   0  0  0  0  0  0  0  0  0  0  0  0
  -25.0110  -33.7880   24.9160 H   0  0  0  0  0  0  0  0  0  0  0  0
  -24.0860  -36.5110   23.1420 C   0  0  0  0  0  1  0  0  0  0  0  0
  -25.3680  -36.1260   23.8950 C   0  0  0  0  0  3  0  0  0  0  0  0
  -27.4950  -37.0640   24.6850 C   0  0  0  0  0  1  0  0  0  0  0  0
  -26.3590  -37.2170   23.7800 N   0  0  0  0  0  0  0  0  0  0  0  0
  -25.9250  -38.1170   23.9700 H   0  0  0  0  0  0  0  0  0  0  0  0
  -26.4950  -31.5030   24.9570 C   0  0  1  0  0  0  0  0  0  0  0  0
  -25.4160  -31.1700   26.0140 C   0  0  0  0  0  1  0  0  0  0  0  0
  -27.1350  -30.1690   24.5030 C   0  0  0  0  0  1  0  0  0  0  0  0
  -27.6130  -32.3160   25.6510 C   0  0  0  0  0  1  0  0  0  0  0  0
  2  1  1  0
  2  7  1  0
  3 10  1  0
  3  1  2  0
  4  3  1  0
  5  4  2  0
  5  6  1  0
  6  2  2  0
  8  4  1  0
  9  5  1  0
 11 14  1  0
 11 10  1  0
 14 13  1  1
 14 12  1  0
 15 14  1  0
 16 21  1  0
 17 18  1  0
 17 16  1  0
 19 18  1  0
 19 26  1  0
 19 20  1  0
 21 15  1  0
 21 20  1  0
 22 15  2  0
 23 24  2  0
 24 43  1  0
 25 24  1  0
 25 28  1  0
 26 27  1  0
 26 23  1  0
 27 25  2  0
 28 29  1  0
 29 30  2  0
 31 34  1  0
 31 30  1  0
 32 31  2  0
 33 32  1  0
 33 28  2  0
 34 35  1  0
 35 40  2  0
 35 36  1  0
 36 37  2  0
 37 38  1  0
 38 42  1  0
 39 38  2  0
 40 39  1  0
 41 40  1  0
 43 44  1  0
 44 47  1  0
 44 46  1  0
 45 43  2  0
 48 23  1  0
 48 49  1  0
 50 48  1  0
 51  6  1  0
 52 53  1  0
 52 51  1  0
 53 55  1  0
 54 65  2  0
 55 60  1  0
 56 64  1  0
 56 66  1  0
 57 63  1  0
 57 59  1  0
 58 64  1  0
 59 58  1  0
 60 59  2  0
 61 62  1  0
 61 55  2  0
 62 57  2  0
 63 56  1  0
 64 54  1  0
 66 68  2  0
 67 66  1  0
 69 67  1  0
 70 79  2  0
 70 75  1  0
 71 67  1  0
 71 75  1  0
 72 71  1  0
 73 74  1  0
 73 72  1  0
 74 70  1  0
 75 76  2  0
 76 77  1  0
 78 77  2  0
 79 78  1  0
 80 54  1  0
 80 81  1  0
 80 90  1  0
 81 84  1  0
 82 86  1  0
 82 81  1  0
 83 82  2  0
 86 85  1  0
 88 86  1  0
 88 89  1  0
 88 87  1  0
 90 93  1  1
 90 91  1  0
 92 90  1  0
M  ISO  4  14 100  15 100  52 101  53 101
M  END
>  <TORSDO>  (4) 
F 21

>  <SCORE>  (4) 
-11.418

>  <name>  (4) 
3

>  <ligand_id>  (4) 
3

>  <original_smiles>  (4) 
[H]c1c([H])c([H])c2c(c1[H])C([H])([H])C([H])([H])C([H])([H])C2([H])N([H])C(=O)C1([H])N(C(=O)C([H])(N([H])C(=O)C([H])(N([H])C([H])([H])[H])C([H])([H])[H])C(C([H])([H])[H])(C([H])([H])[H])C([H])([H])[H])C([H])([H])c2c([H])c(OC([H])([H])C([H])([H])c3c(C([H])([H])[H])c([H])c(C([H])([H])C([H])([H])C(C(=O)N4C([H])([H])C([H])([H])C([H])([H])C([H])(n5nc(-c6c([H])c([H])c(Oc7c([H])c([H])c(F)c([H])c7F)c([H])c6[H])c(C(=O)N([H])[H])c5N([H])[H])C4([H])[H])(C([H])([H])[H])C([H])([H])[H])c(C([H])([H])[H])c3C([H])([H])[H])c([H])c([H])c2C1([H])[H]

>  <smiles>  (4) 
[H]c1c([H])c([H])c2c(c1[H])C([H])([H])C([H])([H])C([H])([H])C2([H])N([H])C(=O)C1([H])N(C(=O)C([H])(N([H])C(=O)C([H])(N([H])C([H])([H])[H])C([H])([H])[H])C(C([H])([H])[H])(C([H])([H])[H])C([H])([H])[H])C([H])([H])c2c([H])c(OC([H])([H])C([H])([H])c3c(C([H])([H])[H])c([H])c(C([H])([H])C([H])([H])C(C(=O)N4C([H])([H])C([H])([H])C([H])([H])C([H])(n5nc(-c6c([H])c([H])c(Oc7c([H])c([H])c(F)c([H])c7F)c([H])c6[H])c(C(=O)N([H])[H])c5N([H])[H])C4([H])[H])(C([H])([H])[H])C([H])([H])[H])c(C([H])([H])[H])c3C([H])([H])[H])c([H])c([H])c2C1([H])[H]

$$$$
4:0:0
     RDKit          3D

 99107  0  0  1  0  0  0  0  0999 V2000
  -27.6890  -21.4420   16.9170 C   0  0  0  0  0  3  0  0  0  0  0  0
  -27.9340  -20.0850   16.6430 C   0  0  0  0  0  3  0  0  0  0  0  0
  -30.0860  -21.8570   16.9920 C   0  0  0  0  0  3  0  0  0  0  0  0
  -28.7630  -22.3280   17.1500 C   0  0  0  0  0  0  0  0  0  0  0  0
  -29.2560  -19.5980   16.5590 C   0  0  0  0  0  0  0  0  0  0  0  0
  -30.3400  -20.5020   16.6820 C   0  0  0  0  0  0  0  0  0  0  0  0
  -31.7770  -20.0420   16.5100 C   0  0  0  0  0  1  0  0  0  0  0  0
  -28.4690  -23.7350   17.5430 C   0  0  0  0  0  0  0  0  0  0  0  0
  -27.3300  -24.1410   17.8040 O   0  0  0  0  0  0  0  0  0  0  0  0
  -29.6690  -24.6630   17.7680 C   0  0  0  0  0  2  0  0  0  0  0  0
  -29.6750  -25.0220   19.2040 N   0  0  0  0  0  4  0  0  0  0  0  0
  -29.0460  -24.3650   19.6410 H   0  0  0  0  0  0  0  0  0  0  0  0
  -29.2640  -25.9380   19.2990 H   0  0  0  0  0  0  0  0  0  0  0  0
  -31.0000  -24.9680   19.8710 C   0  0  0  0  0  2  0  0  0  0  0  0
  -30.9580  -25.5090   21.3140 C   0  0  0  0  0  2  0  0  0  0  0  0
  -31.0070  -26.9350   21.3010 O   0  0  0  0  0  0  0  0  0  0  0  0
  -27.4500  -31.6030   25.2900 C   0  0  0  0  0  0  0  0  0  0  0  0
  -29.8370  -27.6430   21.4550 C   0  0  0  0  0  0  0  0  0  0  0  0
  -26.1580  -30.5730   23.4500 C   0  0  0  0  0  3  0  0  0  0  0  0
  -27.5160  -29.2250   21.7650 C   0  0  0  0  0  0  0  0  0  0  0  0
  -28.6970  -30.8320   23.2770 C   0  0  0  0  0  2  0  0  0  0  0  0
  -28.7030  -29.5890   22.4130 C   0  0  0  0  0  0  0  0  0  0  0  0
  -29.8650  -28.8060   22.2530 C   0  0  0  0  0  3  0  0  0  0  0  0
  -28.6290  -27.2830   20.8140 C   0  0  0  0  0  3  0  0  0  0  0  0
  -27.4720  -28.0690   20.9660 C   0  0  0  0  0  3  0  0  0  0  0  0
  -26.3210  -30.1270   21.9720 C   0  0  0  0  0  2  0  0  0  0  0  0
  -27.4540  -31.0060   24.0650 N   0  0  0  0  0  0  0  0  0  0  0  0
  -26.3890  -31.8350   25.8860 O   0  0  0  0  0  0  0  0  0  0  0  0
  -25.4590  -29.4370   24.2280 C   0  0  0  0  0  0  0  0  0  0  0  0
  -24.2970  -28.9930   23.7220 N   0  0  0  0  0  0  0  0  0  0  0  0
  -25.9710  -28.9570   25.2440 O   0  0  0  0  0  0  0  0  0  0  0  0
  -23.9410  -29.4430   22.8900 H   0  0  0  0  0  0  0  0  0  0  0  0
  -21.5260  -26.7950   22.9940 C   0  0  0  0  0  0  0  0  0  0  0  0
  -23.4820  -27.9070   24.2640 C   0  0  0  0  0  3  0  0  0  0  0  0
  -24.2070  -26.5470   24.1330 C   0  0  0  0  0  2  0  0  0  0  0  0
  -23.8460  -25.7930   22.8500 C   0  0  0  0  0  2  0  0  0  0  0  0
  -22.3390  -25.5280   22.7890 C   0  0  0  0  0  2  0  0  0  0  0  0
  -22.0690  -27.9190   23.6720 C   0  0  0  0  0  0  0  0  0  0  0  0
  -21.2850  -29.0840   23.8030 C   0  0  0  0  0  3  0  0  0  0  0  0
  -19.9810  -29.1380   23.2750 C   0  0  0  0  0  3  0  0  0  0  0  0
  -19.4430  -28.0180   22.6170 C   0  0  0  0  0  3  0  0  0  0  0  0
  -20.2130  -26.8500   22.4820 C   0  0  0  0  0  3  0  0  0  0  0  0
  -28.7740  -32.0460   25.9890 C   0  0  0  0  0  3  0  0  0  0  0  0
  -28.6580  -33.4800   26.2850 N   0  0  0  0  0  0  0  0  0  0  0  0
  -29.2520  -34.4510   25.5790 C   0  0  0  0  0  0  0  0  0  0  0  0
  -30.0220  -34.2230   24.6420 O   0  0  0  0  0  0  0  0  0  0  0  0
  -27.9990  -33.7420   27.0030 H   0  0  0  0  0  0  0  0  0  0  0  0
  -27.9330  -36.5080   24.9840 C   0  0  0  0  0  1  0  0  0  0  0  0
  -28.9420  -35.9070   25.9760 C   0  0  0  0  0  3  0  0  0  0  0  0
  -31.0400  -36.4180   27.1440 C   0  0  0  0  0  1  0  0  0  0  0  0
  -30.1430  -36.7670   26.0450 N   0  0  0  0  0  0  0  0  0  0  0  0
  -29.8820  -37.7440   26.1470 H   0  0  0  0  0  0  0  0  0  0  0  0
  -29.0890  -31.2270   27.3020 C   0  0  1  0  0  0  0  0  0  0  0  0
  -27.8800  -31.0960   28.2570 C   0  0  0  0  0  1  0  0  0  0  0  0
  -29.5730  -29.8000   26.9520 C   0  0  0  0  0  1  0  0  0  0  0  0
  -30.2420  -31.9050   28.0780 C   0  0  0  0  0  1  0  0  0  0  0  0
  -29.4650  -18.0940   16.4030 C   0  0  0  0  0  2  0  0  0  0  0  0
  -30.0140  -17.4160   17.6810 C   0  0  0  0  0  2  0  0  0  0  0  0
  -29.3100  -17.8740   18.9720 C   0  0  0  0  0  2  0  0  0  0  0  0
  -29.5660  -16.9860   20.2000 C   0  0  0  0  0  2  0  0  0  0  0  0
  -30.9690  -17.0850   20.8260 C   0  0  0  0  0  2  0  0  0  0  0  0
  -31.1250  -16.3420   22.1800 C   0  0  0  0  0  2  0  0  0  0  0  0
  -30.5810  -14.8890   22.2720 C   0  0  0  0  0  2  0  0  0  0  0  0
  -31.1900  -13.9090   21.2520 C   0  0  0  0  0  0  0  0  0  0  0  0
  -30.7150  -12.3680   19.3960 C   0  0  0  0  0  2  0  0  0  0  0  0
  -29.7880  -13.0760   18.3860 C   0  0  0  0  0  2  0  0  0  0  0  0
  -28.3060  -12.9090   18.7840 C   0  0  0  0  0  2  0  0  0  0  0  0
  -28.0450  -13.2380   20.2810 C   0  0  0  0  0  3  0  0  0  0  0  0
  -29.0810  -12.5360   21.1890 C   0  0  0  0  0  2  0  0  0  0  0  0
  -30.4260  -12.9170   20.7280 N   0  0  0  0  0  0  0  0  0  0  0  0
  -32.3360  -14.1370   20.8530 O   0  0  0  0  0  0  0  0  0  0  0  0
  -25.5940  -13.8050   20.8430 C   0  0  0  0  0  0  0  0  0  0  0  0
  -24.5180  -13.0080   21.1190 C   0  0  0  0  0  0  0  0  0  0  0  0
  -25.0020  -11.6650   21.0880 C   0  0  0  0  0  0  0  0  0  0  0  0
  -26.6690  -12.9430   20.6660 N   0  0  0  0  0  0  0  0  0  0  0  0
  -26.3090  -11.6500   20.8640 N   0  0  0  0  0  0  0  0  0  0  0  0
  -24.2870  -10.3890   21.2010 C   0  0  0  0  0  0  0  0  0  0  0  0
  -24.6420   -9.4280   22.1740 C   0  0  0  0  0  3  0  0  0  0  0  0
  -23.9270   -8.2140   22.2750 C   0  0  0  0  0  3  0  0  0  0  0  0
  -22.8490   -7.9520   21.3970 C   0  0  0  0  0  0  0  0  0  0  0  0
  -22.5130   -8.9020   20.4170 C   0  0  0  0  0  3  0  0  0  0  0  0
  -23.2270  -10.1080   20.3150 C   0  0  0  0  0  3  0  0  0  0  0  0
  -22.1140   -6.7900   21.4030 O   0  0  0  0  0  0  0  0  0  0  0  0
  -21.8250   -6.1300   22.5690 C   0  0  0  0  0  0  0  0  0  0  0  0
  -21.1590   -6.7680   23.6390 C   0  0  0  0  0  3  0  0  0  0  0  0
  -20.8120   -6.0340   24.7900 C   0  0  0  0  0  3  0  0  0  0  0  0
  -21.1270   -4.6630   24.8710 C   0  0  0  0  0  0  0  0  0  0  0  0
  -21.7920   -4.0260   23.8080 C   0  0  0  0  0  3  0  0  0  0  0  0
  -22.1350   -4.7570   22.6570 C   0  0  0  0  0  0  0  0  0  0  0  0
  -22.7530   -4.1360   21.6240 F   0  0  0  0  0  0  0  0  0  0  0  0
  -20.7930   -3.9550   25.9740 F   0  0  0  0  0  0  0  0  0  0  0  0
  -23.0970  -13.4560   21.3110 C   0  0  0  0  0  0  0  0  0  0  0  0
  -22.3390  -12.7590   22.1490 N   0  0  0  0  0  0  0  0  0  0  0  0
  -22.6660  -14.4630   20.7520 O   0  0  0  0  0  0  0  0  0  0  0  0
  -22.6950  -11.9480   22.6330 H   0  0  0  0  0  0  0  0  0  0  0  0
  -21.3820  -13.0420   22.3060 H   0  0  0  0  0  0  0  0  0  0  0  0
  -25.7430  -15.1840   20.7150 N   0  0  0  0  0  0  0  0  0  0  0  0
  -24.9560  -15.8200   20.7960 H   0  0  0  0  0  0  0  0  0  0  0  0
  -26.6000  -15.6520   20.4550 H   0  0  0  0  0  0  0  0  0  0  0  0
  1  4  1  0
  2  1  2  0
  3  4  2  0
  4  8  1  0
  5  2  1  0
  5  6  2  0
  6  3  1  0
  7  6  1  0
  8 10  1  0
  8  9  2  0
 10 11  1  0
 11 13  1  0
 11 12  1  0
 11 14  1  0
 14 15  1  0
 16 15  1  0
 16 18  1  0
 17 28  2  0
 18 23  1  0
 19 27  1  0
 19 29  1  0
 20 26  1  0
 20 22  1  0
 21 27  1  0
 22 21  1  0
 23 22  2  0
 24 25  1  0
 24 18  2  0
 25 20  2  0
 26 19  1  0
 27 17  1  0
 29 31  2  0
 30 29  1  0
 32 30  1  0
 33 38  1  0
 34 30  1  0
 35 34  1  0
 36 35  1  0
 37 36  1  0
 37 33  1  0
 38 39  2  0
 38 34  1  0
 40 39  1  0
 41 40  2  0
 42 41  1  0
 42 33  2  0
 43 17  1  0
 43 44  1  0
 43 53  1  0
 44 47  1  0
 45 49  1  0
 45 44  1  0
 46 45  2  0
 49 48  1  0
 49 51  1  0
 51 52  1  0
 51 50  1  0
 53 56  1  1
 53 54  1  0
 55 53  1  0
 57  5  1  0
 57 58  1  0
 58 59  1  0
 59 60  1  0
 60 61  1  0
 61 62  1  0
 62 63  1  0
 64 63  1  0
 65 70  1  0
 66 67  1  0
 66 65  1  0
 68 67  1  0
 68 75  1  0
 68 69  1  0
 70 69  1  0
 70 64  1  0
 71 64  2  0
 72 73  2  0
 73 92  1  0
 74 73  1  0
 74 77  1  0
 75 72  1  0
 75 76  1  0
 76 74  2  0
 77 78  1  0
 78 79  2  0
 80 83  1  0
 80 79  1  0
 81 80  2  0
 82 81  1  0
 82 77  2  0
 83 84  1  0
 84 89  2  0
 84 85  1  0
 85 86  2  0
 86 87  1  0
 87 91  1  0
 88 87  2  0
 89 88  1  0
 90 89  1  0
 92 93  1  0
 93 96  1  0
 93 95  1  0
 94 92  2  0
 97 98  1  0
 97 72  1  0
 99 97  1  0
M  ISO  4  15 101  16 101  63 100  64 100
M  END
>  <TORSDO>  (5) 
F 28

>  <SCORE>  (5) 
-6.801

>  <name>  (5) 
4

>  <ligand_id>  (5) 
4

>  <original_smiles>  (5) 
[H]c1c([H])c([H])c2c(c1[H])C([H])([H])C([H])([H])C([H])([H])C2([H])N([H])C(=O)C1([H])N(C(=O)C([H])(N([H])C(=O)C([H])(N([H])C([H])([H])[H])C([H])([H])[H])C(C([H])([H])[H])(C([H])([H])[H])C([H])([H])[H])C([H])([H])c2c([H])c(OC([H])([H])C([H])([H])[N+]([H])([H])C([H])([H])C(=O)c3c([H])c([H])c(C([H])([H])C([H])([H])C([H])([H])C([H])([H])C([H])([H])C([H])([H])C([H])([H])C(=O)N4C([H])([H])C([H])([H])C([H])([H])C([H])(n5nc(-c6c([H])c([H])c(Oc7c([H])c([H])c(F)c([H])c7F)c([H])c6[H])c(C(=O)N([H])[H])c5N([H])[H])C4([H])[H])c(C([H])([H])[H])c3[H])c([H])c([H])c2C1([H])[H]

>  <smiles>  (5) 
[H]c1c([H])c([H])c2c(c1[H])C([H])([H])C([H])([H])C([H])([H])C2([H])N([H])C(=O)C1([H])N(C(=O)C([H])(N([H])C(=O)C([H])(N([H])C([H])([H])[H])C([H])([H])[H])C(C([H])([H])[H])(C([H])([H])[H])C([H])([H])[H])C([H])([H])c2c([H])c(OC([H])([H])C([H])([H])[N+]([H])([H])C([H])([H])C(=O)c3c([H])c([H])c(C([H])([H])C([H])([H])C([H])([H])C([H])([H])C([H])([H])C([H])([H])C([H])([H])C(=O)N4C([H])([H])C([H])([H])C([H])([H])C([H])(n5nc(-c6c([H])c([H])c(Oc7c([H])c([H])c(F)c([H])c7F)c([H])c6[H])c(C(=O)N([H])[H])c5N([H])[H])C4([H])[H])c(C([H])([H])[H])c3[H])c([H])c([H])c2C1([H])[H]

$$$$
5:0:0
     RDKit          3D

 93101  0  0  1  0  0  0  0  0999 V2000
  -28.4190  -24.5180   21.2280 C   0  0  0  0  0  3  0  0  0  0  0  0
  -28.7010  -24.6420   18.8460 C   0  0  0  0  0  3  0  0  0  0  0  0
  -28.5050  -23.0950   21.1740 C   0  0  0  0  0  0  0  0  0  0  0  0
  -28.6560  -22.4070   19.9290 C   0  0  0  0  0  0  0  0  0  0  0  0
  -28.4920  -25.3220   20.0670 C   0  0  0  0  0  0  0  0  0  0  0  0
  -28.7820  -23.2150   18.7610 C   0  0  0  0  0  0  0  0  0  0  0  0
  -29.8320  -22.2140   23.1380 C   0  0  0  0  0  1  0  0  0  0  0  0
  -28.4440  -22.3490   22.5020 C   0  0  0  0  0  2  0  0  0  0  0  0
  -29.2180  -23.3110   16.3910 C   0  0  0  0  0  1  0  0  0  0  0  0
  -28.9690  -22.5500   17.5660 O   0  0  0  0  0  0  0  0  0  0  0  0
  -28.4850  -26.7250   20.1230 O   0  0  0  0  0  0  0  0  0  0  0  0
  -24.6100  -31.9050   23.2560 C   0  0  0  0  0  0  0  0  0  0  0  0
  -27.3080  -27.4700   20.1450 C   0  0  0  0  0  0  0  0  0  0  0  0
  -23.4250  -30.5010   21.6020 C   0  0  0  0  0  3  0  0  0  0  0  0
  -24.9000  -28.9910   20.1600 C   0  0  0  0  0  0  0  0  0  0  0  0
  -25.9500  -30.8820   21.4100 C   0  0  0  0  0  2  0  0  0  0  0  0
  -26.0540  -29.5120   20.7570 C   0  0  0  0  0  0  0  0  0  0  0  0
  -27.2590  -28.7600   20.7450 C   0  0  0  0  0  3  0  0  0  0  0  0
  -26.1340  -26.9810   19.5320 C   0  0  0  0  0  3  0  0  0  0  0  0
  -24.9380  -27.7280   19.5430 C   0  0  0  0  0  3  0  0  0  0  0  0
  -23.6450  -29.8380   20.2160 C   0  0  0  0  0  2  0  0  0  0  0  0
  -24.6800  -31.1130   22.1480 N   0  0  0  0  0  0  0  0  0  0  0  0
  -23.5240  -32.1560   23.7980 O   0  0  0  0  0  0  0  0  0  0  0  0
  -22.7870  -29.4630   22.5550 C   0  0  0  0  0  0  0  0  0  0  0  0
  -21.4750  -29.2240   22.3940 N   0  0  0  0  0  0  0  0  0  0  0  0
  -23.4720  -28.8730   23.3950 O   0  0  0  0  0  0  0  0  0  0  0  0
  -20.9800  -29.7530   21.6890 H   0  0  0  0  0  0  0  0  0  0  0  0
  -18.1550  -27.8440   22.7700 C   0  0  0  0  0  0  0  0  0  0  0  0
  -20.6780  -28.2570   23.1490 C   0  0  0  0  0  3  0  0  0  0  0  0
  -20.8890  -26.8230   22.6140 C   0  0  0  0  0  2  0  0  0  0  0  0
  -19.8560  -26.4150   21.5580 C   0  0  0  0  0  2  0  0  0  0  0  0
  -18.4390  -26.4920   22.1360 C   0  0  0  0  0  2  0  0  0  0  0  0
  -19.2060  -28.6790   23.2310 C   0  0  0  0  0  0  0  0  0  0  0  0
  -18.8880  -29.9390   23.7820 C   0  0  0  0  0  3  0  0  0  0  0  0
  -17.5510  -30.3680   23.8760 C   0  0  0  0  0  3  0  0  0  0  0  0
  -16.5130  -29.5300   23.4320 C   0  0  0  0  0  3  0  0  0  0  0  0
  -16.8150  -28.2710   22.8850 C   0  0  0  0  0  3  0  0  0  0  0  0
  -25.8840  -32.5530   23.8810 C   0  0  0  0  0  3  0  0  0  0  0  0
  -25.5620  -33.9510   24.1970 N   0  0  0  0  0  0  0  0  0  0  0  0
  -25.8780  -34.9990   23.4250 C   0  0  0  0  0  0  0  0  0  0  0  0
  -26.5410  -34.8900   22.3890 O   0  0  0  0  0  0  0  0  0  0  0  0
  -24.9720  -34.1070   25.0010 H   0  0  0  0  0  0  0  0  0  0  0  0
  -24.1230  -36.7650   23.0680 C   0  0  0  0  0  1  0  0  0  0  0  0
  -25.3790  -36.3870   23.8700 C   0  0  0  0  0  3  0  0  0  0  0  0
  -27.5070  -37.3150   24.6680 C   0  0  0  0  0  1  0  0  0  0  0  0
  -26.3970  -37.4500   23.7290 N   0  0  0  0  0  0  0  0  0  0  0  0
  -25.9800  -38.3680   23.8600 H   0  0  0  0  0  0  0  0  0  0  0  0
  -26.3990  -31.7960   25.1670 C   0  0  1  0  0  0  0  0  0  0  0  0
  -25.2980  -31.5540   26.2270 C   0  0  0  0  0  1  0  0  0  0  0  0
  -27.0000  -30.4230   24.7890 C   0  0  0  0  0  1  0  0  0  0  0  0
  -27.5350  -32.6070   25.8330 C   0  0  0  0  0  1  0  0  0  0  0  0
  -28.5240  -20.8420   19.7920 C   0  0  0  0  0  2  0  0  0  0  0  0
  -29.7400  -19.8720   20.0640 C   0  0  0  0  0  2  0  0  0  0  0  0
  -29.3770  -18.3250   20.0560 C   0  0  0  0  0  3  0  0  0  0  0  0
  -30.5360  -17.2760   20.2880 C   0  0  0  0  0  3  0  0  0  0  0  0
  -30.8660  -14.7370   20.0580 C   0  0  0  0  0  0  0  0  0  0  0  0
  -30.5820  -12.4700   19.0960 C   0  0  0  0  0  2  0  0  0  0  0  0
  -29.5990  -12.5590   17.9100 C   0  0  0  0  0  2  0  0  0  0  0  0
  -28.1420  -12.4320   18.3960 C   0  0  0  0  0  2  0  0  0  0  0  0
  -27.8320  -13.3530   19.6060 C   0  0  0  0  0  3  0  0  0  0  0  0
  -28.9270  -13.2460   20.6930 C   0  0  0  0  0  2  0  0  0  0  0  0
  -30.2170  -13.5350   20.0510 N   0  0  0  0  0  0  0  0  0  0  0  0
  -32.0160  -14.8550   19.6230 O   0  0  0  0  0  0  0  0  0  0  0  0
  -30.1230  -15.8370   20.3780 N   0  0  0  0  0  0  0  0  0  0  0  0
  -29.1840  -15.6500   20.6950 H   0  0  0  0  0  0  0  0  0  0  0  0
  -25.4950  -14.0100   20.4490 C   0  0  0  0  0  0  0  0  0  0  0  0
  -24.4230  -13.2600   20.8500 C   0  0  0  0  0  0  0  0  0  0  0  0
  -24.8390  -11.8970   20.7660 C   0  0  0  0  0  0  0  0  0  0  0  0
  -26.4990  -13.1040   20.1470 N   0  0  0  0  0  0  0  0  0  0  0  0
  -26.1120  -11.8260   20.3960 N   0  0  0  0  0  0  0  0  0  0  0  0
  -24.0830  -10.6530   20.9600 C   0  0  0  0  0  0  0  0  0  0  0  0
  -24.4950   -9.6770   21.8930 C   0  0  0  0  0  3  0  0  0  0  0  0
  -23.7410   -8.4970   22.0750 C   0  0  0  0  0  3  0  0  0  0  0  0
  -22.5610   -8.2860   21.3240 C   0  0  0  0  0  0  0  0  0  0  0  0
  -22.1670   -9.2520   20.3810 C   0  0  0  0  0  3  0  0  0  0  0  0
  -22.9210  -10.4230   20.1970 C   0  0  0  0  0  3  0  0  0  0  0  0
  -21.7780   -7.1610   21.4160 O   0  0  0  0  0  0  0  0  0  0  0  0
  -21.6750   -6.4500   22.5850 C   0  0  0  0  0  0  0  0  0  0  0  0
  -21.1830   -7.0340   23.7720 C   0  0  0  0  0  3  0  0  0  0  0  0
  -21.0280   -6.2500   24.9310 C   0  0  0  0  0  3  0  0  0  0  0  0
  -21.3530   -4.8800   24.9040 C   0  0  0  0  0  0  0  0  0  0  0  0
  -21.8370   -4.2940   23.7210 C   0  0  0  0  0  3  0  0  0  0  0  0
  -21.9950   -5.0770   22.5640 C   0  0  0  0  0  0  0  0  0  0  0  0
  -22.4420   -4.5040   21.4210 F   0  0  0  0  0  0  0  0  0  0  0  0
  -21.1970   -4.1230   26.0160 F   0  0  0  0  0  0  0  0  0  0  0  0
  -23.0550  -13.7740   21.1990 C   0  0  0  0  0  0  0  0  0  0  0  0
  -22.3500  -13.0810   22.0860 N   0  0  0  0  0  0  0  0  0  0  0  0
  -22.6250  -14.8220   20.7200 O   0  0  0  0  0  0  0  0  0  0  0  0
  -22.7130  -12.2320   22.4930 H   0  0  0  0  0  0  0  0  0  0  0  0
  -21.4340  -13.4050   22.3630 H   0  0  0  0  0  0  0  0  0  0  0  0
  -25.6950  -15.3790   20.2940 N   0  0  0  0  0  0  0  0  0  0  0  0
  -24.9510  -16.0490   20.4480 H   0  0  0  0  0  0  0  0  0  0  0  0
  -26.5340  -15.7990   19.9160 H   0  0  0  0  0  0  0  0  0  0  0  0
  2  5  1  0
  3  1  1  0
  3  8  1  0
  4  3  2  0
  5 11  1  0
  5  1  2  0
  6  2  2  0
  6  4  1  0
  8  7  1  0
  9 10  1  0
 10  6  1  0
 11 13  1  0
 12 23  2  0
 13 18  1  0
 14 22  1  0
 14 24  1  0
 15 21  1  0
 15 17  1  0
 16 22  1  0
 17 16  1  0
 18 17  2  0
 19 20  1  0
 19 13  2  0
 20 15  2  0
 21 14  1  0
 22 12  1  0
 24 26  2  0
 25 24  1  0
 27 25  1  0
 28 37  2  0
 28 33  1  0
 29 25  1  0
 29 33  1  0
 30 29  1  0
 31 32  1  0
 31 30  1  0
 32 28  1  0
 33 34  2  0
 34 35  1  0
 36 35  2  0
 37 36  1  0
 38 12  1  0
 38 39  1  0
 38 48  1  0
 39 42  1  0
 40 44  1  0
 40 39  1  0
 41 40  2  0
 44 43  1  0
 46 47  1  0
 46 44  1  0
 46 45  1  0
 48 51  1  1
 48 49  1  0
 50 48  1  0
 52  4  1  0
 52 53  1  0
 54 53  1  0
 54 55  2  0
 55 64  1  0
 56 64  1  0
 57 62  1  0
 58 59  1  0
 58 57  1  0
 60 59  1  0
 60 69  1  0
 60 61  1  0
 62 56  1  0
 62 61  1  0
 63 56  2  0
 64 65  1  0
 66 67  2  0
 67 86  1  0
 68 67  1  0
 68 71  1  0
 69 70  1  0
 69 66  1  0
 70 68  2  0
 71 72  1  0
 72 73  2  0
 74 77  1  0
 74 73  1  0
 75 74  2  0
 76 75  1  0
 76 71  2  0
 77 78  1  0
 78 79  1  0
 79 80  2  0
 81 80  1  0
 81 85  1  0
 82 81  2  0
 83 78  2  0
 83 82  1  0
 84 83  1  0
 86 87  1  0
 87 90  1  0
 87 89  1  0
 88 86  2  0
 91 92  1  0
 91 66  1  0
 93 91  1  0
M  ISO  4   5 101  11 101  56 100  64 100
M  END
>  <TORSDO>  (6) 
F 22

>  <SCORE>  (6) 
-12.739

>  <name>  (6) 
5

>  <ligand_id>  (6) 
5

>  <original_smiles>  (6) 
[H]c1c([H])c([H])c2c(c1[H])C([H])([H])C([H])([H])C([H])([H])C2([H])N([H])C(=O)C1([H])N(C(=O)C([H])(N([H])C(=O)C([H])(N([H])C([H])([H])[H])C([H])([H])[H])C(C([H])([H])[H])(C([H])([H])[H])C([H])([H])[H])C([H])([H])c2c([H])c(Oc3c([H])c(OC([H])([H])[H])c(C([H])([H])C([H])([H])C([H])([H])C([H])([H])N([H])C(=O)N4C([H])([H])C([H])([H])C([H])([H])C([H])(n5nc(-c6c([H])c([H])c(Oc7c([H])c([H])c(F)c([H])c7F)c([H])c6[H])c(C(=O)N([H])[H])c5N([H])[H])C4([H])[H])c(C([H])([H])C([H])([H])[H])c3[H])c([H])c([H])c2C1([H])[H]

>  <smiles>  (6) 
[H]c1c([H])c([H])c2c(c1[H])C([H])([H])C([H])([H])C([H])([H])C2([H])N([H])C(=O)C1([H])N(C(=O)C([H])(N([H])C(=O)C([H])(N([H])C([H])([H])[H])C([H])([H])[H])C(C([H])([H])[H])(C([H])([H])[H])C([H])([H])[H])C([H])([H])c2c([H])c(Oc3c([H])c(OC([H])([H])[H])c(C([H])([H])C([H])([H])C([H])([H])C([H])([H])N([H])C(=O)N4C([H])([H])C([H])([H])C([H])([H])C([H])(n5nc(-c6c([H])c([H])c(Oc7c([H])c([H])c(F)c([H])c7F)c([H])c6[H])c(C(=O)N([H])[H])c5N([H])[H])C4([H])[H])c(C([H])([H])C([H])([H])[H])c3[H])c([H])c([H])c2C1([H])[H]

$$$$
6:0:0
     RDKit          3D

 93101  0  0  1  0  0  0  0  0999 V2000
  -29.5990  -23.4890   19.1640 C   0  0  0  0  0  3  0  0  0  0  0  0
  -28.4510  -23.3230   21.3120 C   0  0  0  0  0  3  0  0  0  0  0  0
  -29.1850  -22.7200   20.2690 C   0  0  0  0  0  0  0  0  0  0  0  0
  -29.3070  -24.8640   19.1120 C   0  0  0  0  0  0  0  0  0  0  0  0
  -28.1450  -24.6990   21.2660 C   0  0  0  0  0  0  0  0  0  0  0  0
  -28.5830  -25.4740   20.1590 C   0  0  0  0  0  0  0  0  0  0  0  0
  -29.8160  -25.7030   17.9520 C   0  0  0  0  0  1  0  0  0  0  0  0
  -27.4540  -25.2820   22.3300 N   0  0  0  0  0  0  0  0  0  0  0  0
  -26.8770  -24.6810   22.9090 H   0  0  0  0  0  0  0  0  0  0  0  0
  -27.0080  -26.1750   22.1430 H   0  0  0  0  0  0  0  0  0  0  0  0
  -28.4520  -26.8380   20.1160 O   0  0  0  0  0  0  0  0  0  0  0  0
  -24.5760  -31.8730   23.2240 C   0  0  0  0  0  0  0  0  0  0  0  0
  -27.2340  -27.4650   20.1460 C   0  0  0  0  0  0  0  0  0  0  0  0
  -23.3700  -30.4690   21.5770 C   0  0  0  0  0  3  0  0  0  0  0  0
  -24.8210  -28.9190   20.1630 C   0  0  0  0  0  0  0  0  0  0  0  0
  -25.8850  -30.8380   21.3750 C   0  0  0  0  0  2  0  0  0  0  0  0
  -25.9700  -29.4620   20.7510 C   0  0  0  0  0  0  0  0  0  0  0  0
  -27.1750  -28.7370   20.7460 C   0  0  0  0  0  3  0  0  0  0  0  0
  -26.0740  -26.9180   19.5560 C   0  0  0  0  0  3  0  0  0  0  0  0
  -24.8650  -27.6420   19.5700 C   0  0  0  0  0  3  0  0  0  0  0  0
  -23.5770  -29.7750   20.2010 C   0  0  0  0  0  2  0  0  0  0  0  0
  -24.6290  -31.0750   22.1170 N   0  0  0  0  0  0  0  0  0  0  0  0
  -23.4960  -32.1430   23.7650 O   0  0  0  0  0  0  0  0  0  0  0  0
  -22.7180  -29.4530   22.5420 C   0  0  0  0  0  0  0  0  0  0  0  0
  -21.3930  -29.2770   22.4190 N   0  0  0  0  0  0  0  0  0  0  0  0
  -23.4030  -28.8240   23.3530 O   0  0  0  0  0  0  0  0  0  0  0  0
  -20.9020  -29.8310   21.7330 H   0  0  0  0  0  0  0  0  0  0  0  0
  -18.0160  -28.1080   22.9330 C   0  0  0  0  0  0  0  0  0  0  0  0
  -20.5770  -28.3420   23.1930 C   0  0  0  0  0  3  0  0  0  0  0  0
  -20.6670  -26.9130   22.6140 C   0  0  0  0  0  2  0  0  0  0  0  0
  -19.5570  -26.6010   21.6050 C   0  0  0  0  0  2  0  0  0  0  0  0
  -18.1780  -26.7580   22.2540 C   0  0  0  0  0  2  0  0  0  0  0  0
  -19.1440  -28.8570   23.3610 C   0  0  0  0  0  0  0  0  0  0  0  0
  -18.9410  -30.1200   23.9570 C   0  0  0  0  0  3  0  0  0  0  0  0
  -17.6440  -30.6370   24.1270 C   0  0  0  0  0  3  0  0  0  0  0  0
  -16.5300  -29.8860   23.7150 C   0  0  0  0  0  3  0  0  0  0  0  0
  -16.7150  -28.6220   23.1250 C   0  0  0  0  0  3  0  0  0  0  0  0
  -25.8650  -32.5020   23.8420 C   0  0  0  0  0  3  0  0  0  0  0  0
  -25.5620  -33.9010   24.1660 N   0  0  0  0  0  0  0  0  0  0  0  0
  -25.8970  -34.9500   23.4000 C   0  0  0  0  0  0  0  0  0  0  0  0
  -26.5670  -34.8390   22.3690 O   0  0  0  0  0  0  0  0  0  0  0  0
  -24.9740  -34.0610   24.9700 H   0  0  0  0  0  0  0  0  0  0  0  0
  -24.1700  -36.7350   23.0380 C   0  0  0  0  0  1  0  0  0  0  0  0
  -25.4110  -36.3380   23.8530 C   0  0  0  0  0  3  0  0  0  0  0  0
  -27.5460  -37.2210   24.6780 C   0  0  0  0  0  1  0  0  0  0  0  0
  -26.4430  -37.3910   23.7350 N   0  0  0  0  0  0  0  0  0  0  0  0
  -26.0380  -38.3120   23.8840 H   0  0  0  0  0  0  0  0  0  0  0  0
  -26.3820  -31.7330   25.1190 C   0  0  1  0  0  0  0  0  0  0  0  0
  -25.2900  -31.5030   26.1880 C   0  0  0  0  0  1  0  0  0  0  0  0
  -26.9590  -30.3560   24.7230 C   0  0  0  0  0  1  0  0  0  0  0  0
  -27.5340  -32.5280   25.7780 C   0  0  0  0  0  1  0  0  0  0  0  0
  -29.5510  -21.2520   20.3260 C   0  0  0  0  0  2  0  0  0  0  0  0
  -28.6340  -20.3960   19.4390 C   0  0  0  0  0  2  0  0  0  0  0  0
  -29.1910  -18.9950   19.1540 C   0  0  0  0  0  2  0  0  0  0  0  0
  -29.2970  -18.0610   20.3730 C   0  0  0  0  0  2  0  0  0  0  0  0
  -29.9120  -16.7170   19.9540 C   0  0  0  0  0  2  0  0  0  0  0  0
  -30.0080  -15.6500   21.0670 C   0  0  0  0  0  2  0  0  0  0  0  0
  -30.6940  -14.3900   20.5050 C   0  0  0  0  0  0  0  0  0  0  0  0
  -30.3660  -12.2600   19.3180 C   0  0  0  0  0  2  0  0  0  0  0  0
  -29.4420  -12.5280   18.1110 C   0  0  0  0  0  2  0  0  0  0  0  0
  -27.9590  -12.4220   18.5210 C   0  0  0  0  0  2  0  0  0  0  0  0
  -27.6340  -13.2310   19.8070 C   0  0  0  0  0  3  0  0  0  0  0  0
  -28.6750  -12.9320   20.9100 C   0  0  0  0  0  2  0  0  0  0  0  0
  -30.0080  -13.2240   20.3660 N   0  0  0  0  0  0  0  0  0  0  0  0
  -31.8320  -14.5380   20.0490 O   0  0  0  0  0  0  0  0  0  0  0  0
  -25.2270  -13.8740   20.4590 C   0  0  0  0  0  0  0  0  0  0  0  0
  -24.1460  -13.1150   20.8220 C   0  0  0  0  0  0  0  0  0  0  0  0
  -24.5960  -11.7590   20.8230 C   0  0  0  0  0  0  0  0  0  0  0  0
  -26.2680  -12.9800   20.2650 N   0  0  0  0  0  0  0  0  0  0  0  0
  -25.8920  -11.7050   20.5400 N   0  0  0  0  0  0  0  0  0  0  0  0
  -23.8580  -10.5060   21.0220 C   0  0  0  0  0  0  0  0  0  0  0  0
  -24.2810   -9.5400   21.9630 C   0  0  0  0  0  3  0  0  0  0  0  0
  -23.5430   -8.3510   22.1470 C   0  0  0  0  0  3  0  0  0  0  0  0
  -22.3680   -8.1200   21.3920 C   0  0  0  0  0  0  0  0  0  0  0  0
  -21.9640   -9.0750   20.4410 C   0  0  0  0  0  3  0  0  0  0  0  0
  -22.7040  -10.2550   20.2540 C   0  0  0  0  0  3  0  0  0  0  0  0
  -21.6020   -6.9840   21.4850 O   0  0  0  0  0  0  0  0  0  0  0  0
  -21.5560   -6.2390   22.6360 C   0  0  0  0  0  0  0  0  0  0  0  0
  -21.1620   -6.7990   23.8720 C   0  0  0  0  0  3  0  0  0  0  0  0
  -21.0640   -5.9820   25.0170 C   0  0  0  0  0  3  0  0  0  0  0  0
  -21.3510   -4.6060   24.9260 C   0  0  0  0  0  0  0  0  0  0  0  0
  -21.7370   -4.0460   23.6970 C   0  0  0  0  0  3  0  0  0  0  0  0
  -21.8370   -4.8600   22.5540 C   0  0  0  0  0  0  0  0  0  0  0  0
  -22.1890   -4.3140   21.3670 F   0  0  0  0  0  0  0  0  0  0  0  0
  -21.2490   -3.8180   26.0220 F   0  0  0  0  0  0  0  0  0  0  0  0
  -22.7490  -13.6090   21.0650 C   0  0  0  0  0  0  0  0  0  0  0  0
  -22.0020  -12.9330   21.9320 N   0  0  0  0  0  0  0  0  0  0  0  0
  -22.3290  -14.6310   20.5240 O   0  0  0  0  0  0  0  0  0  0  0  0
  -22.3550  -12.1090   22.3950 H   0  0  0  0  0  0  0  0  0  0  0  0
  -21.0650  -13.2470   22.1370 H   0  0  0  0  0  0  0  0  0  0  0  0
  -25.4060  -15.2400   20.2630 N   0  0  0  0  0  0  0  0  0  0  0  0
  -24.6420  -15.9020   20.3580 H   0  0  0  0  0  0  0  0  0  0  0  0
  -26.2730  -15.6690   19.9620 H   0  0  0  0  0  0  0  0  0  0  0  0
  1  3  1  0
  3 52  1  0
  3  2  2  0
  4  1  2  0
  4  6  1  0
  5  2  1  0
  5  8  1  0
  6  5  2  0
  7  4  1  0
  8  9  1  0
 10  8  1  0
 11 13  1  0
 11  6  1  0
 12 23  2  0
 13 18  1  0
 14 22  1  0
 14 24  1  0
 15 21  1  0
 15 17  1  0
 16 22  1  0
 17 16  1  0
 18 17  2  0
 19 20  1  0
 19 13  2  0
 20 15  2  0
 21 14  1  0
 22 12  1  0
 24 26  2  0
 25 24  1  0
 27 25  1  0
 28 37  2  0
 28 33  1  0
 29 25  1  0
 29 33  1  0
 30 29  1  0
 31 32  1  0
 31 30  1  0
 32 28  1  0
 33 34  2  0
 34 35  1  0
 36 35  2  0
 37 36  1  0
 38 12  1  0
 38 39  1  0
 38 48  1  0
 39 42  1  0
 40 44  1  0
 40 39  1  0
 41 40  2  0
 44 43  1  0
 46 44  1  0
 46 47  1  0
 46 45  1  0
 48 51  1  1
 48 49  1  0
 50 48  1  0
 53 52  1  0
 54 53  1  0
 54 55  1  0
 56 55  1  0
 56 57  1  0
 58 57  1  0
 59 64  1  0
 60 61  1  0
 60 59  1  0
 62 61  1  0
 62 69  1  0
 62 63  1  0
 64 58  1  0
 64 63  1  0
 65 58  2  0
 66 67  2  0
 67 68  1  0
 67 86  1  0
 68 71  1  0
 69 66  1  0
 69 70  1  0
 70 68  2  0
 71 72  1  0
 72 73  2  0
 74 77  1  0
 74 73  1  0
 75 74  2  0
 76 75  1  0
 76 71  2  0
 77 78  1  0
 78 79  1  0
 79 80  2  0
 81 80  1  0
 81 85  1  0
 82 81  2  0
 83 78  2  0
 83 82  1  0
 84 83  1  0
 86 87  1  0
 87 90  1  0
 87 89  1  0
 88 86  2  0
 91 92  1  0
 91 66  1  0
 93 91  1  0
M  ISO  4   6 101  11 101  57 100  58 100
M  END
>  <TORSDO>  (7) 
F 23

>  <SCORE>  (7) 
-13.041

>  <name>  (7) 
6

>  <ligand_id>  (7) 
6

>  <original_smiles>  (7) 
[H]c1c([H])c([H])c2c(c1[H])C([H])([H])C([H])([H])C([H])([H])C2([H])N([H])C(=O)C1([H])N(C(=O)C([H])(N([H])C(=O)C([H])(N([H])C([H])([H])[H])C([H])([H])[H])C(C([H])([H])[H])(C([H])([H])[H])C([H])([H])[H])C([H])([H])c2c([H])c(Oc3c(N([H])[H])c([H])c(C([H])([H])C([H])([H])C([H])([H])C([H])([H])C([H])([H])C([H])([H])C(=O)N4C([H])([H])C([H])([H])C([H])([H])C([H])(n5nc(-c6c([H])c([H])c(Oc7c([H])c([H])c(F)c([H])c7F)c([H])c6[H])c(C(=O)N([H])[H])c5N([H])[H])C4([H])[H])c([H])c3C([H])([H])[H])c([H])c([H])c2C1([H])[H]

>  <smiles>  (7) 
[H]c1c([H])c([H])c2c(c1[H])C([H])([H])C([H])([H])C([H])([H])C2([H])N([H])C(=O)C1([H])N(C(=O)C([H])(N([H])C(=O)C([H])(N([H])C([H])([H])[H])C([H])([H])[H])C(C([H])([H])[H])(C([H])([H])[H])C([H])([H])[H])C([H])([H])c2c([H])c(Oc3c(N([H])[H])c([H])c(C([H])([H])C([H])([H])C([H])([H])C([H])([H])C([H])([H])C([H])([H])C(=O)N4C([H])([H])C([H])([H])C([H])([H])C([H])(n5nc(-c6c([H])c([H])c(Oc7c([H])c([H])c(F)c([H])c7F)c([H])c6[H])c(C(=O)N([H])[H])c5N([H])[H])C4([H])[H])c([H])c3C([H])([H])[H])c([H])c([H])c2C1([H])[H]

$$$$
7:0:0
     RDKit          3D

 95103  0  0  1  0  0  0  0  0999 V2000
  -27.3410  -23.4860   20.4990 C   0  0  0  0  0  3  0  0  0  0  0  0
  -28.4240  -22.7250   20.0240 C   0  0  0  0  0  0  0  0  0  0  0  0
  -27.5030  -24.6990   21.1940 C   0  0  0  0  0  0  0  0  0  0  0  0
  -29.7530  -23.1370   20.3170 C   0  0  0  0  0  0  0  0  0  0  0  0
  -29.9050  -24.4870   20.8670 C   0  0  0  0  0  0  0  0  0  0  0  0
  -28.7820  -25.3340   21.2630 C   0  0  0  0  0  0  0  0  0  0  0  0
  -26.2490  -25.2350   21.8770 C   0  0  0  0  0  1  0  0  0  0  0  0
  -31.3070  -25.0260   21.0920 C   0  0  0  0  0  1  0  0  0  0  0  0
  -28.9280  -26.6770   21.7590 O   0  0  0  0  0  0  0  0  0  0  0  0
  -24.9910  -32.1000   24.4250 C   0  0  0  0  0  0  0  0  0  0  0  0
  -27.9440  -27.6550   21.5100 C   0  0  0  0  0  0  0  0  0  0  0  0
  -24.0350  -30.8510   22.5220 C   0  0  0  0  0  3  0  0  0  0  0  0
  -25.6670  -29.3610   21.2210 C   0  0  0  0  0  0  0  0  0  0  0  0
  -26.5750  -31.0930   22.7660 C   0  0  0  0  0  2  0  0  0  0  0  0
  -26.7300  -29.7620   22.0400 C   0  0  0  0  0  0  0  0  0  0  0  0
  -27.8740  -28.9180   22.1790 C   0  0  0  0  0  3  0  0  0  0  0  0
  -26.8910  -27.3350   20.6270 C   0  0  0  0  0  3  0  0  0  0  0  0
  -25.7520  -28.1580   20.5000 C   0  0  0  0  0  3  0  0  0  0  0  0
  -24.4520  -30.2660   21.1460 C   0  0  0  0  0  2  0  0  0  0  0  0
  -25.2110  -31.3620   23.2970 N   0  0  0  0  0  0  0  0  0  0  0  0
  -23.8430  -32.3840   24.7960 O   0  0  0  0  0  0  0  0  0  0  0  0
  -23.2050  -29.7960   23.2910 C   0  0  0  0  0  0  0  0  0  0  0  0
  -21.9410  -29.6030   22.8780 N   0  0  0  0  0  0  0  0  0  0  0  0
  -23.7040  -29.1590   24.2210 O   0  0  0  0  0  0  0  0  0  0  0  0
  -21.6030  -30.1690   22.1130 H   0  0  0  0  0  0  0  0  0  0  0  0
  -18.5410  -28.3850   22.6550 C   0  0  0  0  0  0  0  0  0  0  0  0
  -20.9940  -28.6330   23.4310 C   0  0  0  0  0  3  0  0  0  0  0  0
  -21.2210  -27.2300   22.8240 C   0  0  0  0  0  2  0  0  0  0  0  0
  -20.3420  -26.9540   21.5990 C   0  0  0  0  0  2  0  0  0  0  0  0
  -18.8590  -27.0700   21.9640 C   0  0  0  0  0  2  0  0  0  0  0  0
  -19.5470  -29.1270   23.3290 C   0  0  0  0  0  0  0  0  0  0  0  0
  -19.2040  -30.3610   23.9230 C   0  0  0  0  0  3  0  0  0  0  0  0
  -17.8870  -30.8530   23.8540 C   0  0  0  0  0  3  0  0  0  0  0  0
  -16.8930  -30.1080   23.1970 C   0  0  0  0  0  3  0  0  0  0  0  0
  -17.2190  -28.8750   22.6040 C   0  0  0  0  0  3  0  0  0  0  0  0
  -26.1720  -32.6470   25.2860 C   0  0  0  0  0  3  0  0  0  0  0  0
  -25.9630  -34.0920   25.4630 N   0  0  0  0  0  0  0  0  0  0  0  0
  -26.5410  -35.0410   24.7150 C   0  0  0  0  0  0  0  0  0  0  0  0
  -27.3700  -34.7890   23.8370 O   0  0  0  0  0  0  0  0  0  0  0  0
  -25.2540  -34.3680   26.1270 H   0  0  0  0  0  0  0  0  0  0  0  0
  -25.0760  -36.9400   23.9530 C   0  0  0  0  0  1  0  0  0  0  0  0
  -26.1320  -36.5040   24.9820 C   0  0  0  0  0  3  0  0  0  0  0  0
  -28.1900  -37.2700   26.0800 C   0  0  0  0  0  1  0  0  0  0  0  0
  -27.2730  -37.4460   24.9560 N   0  0  0  0  0  0  0  0  0  0  0  0
  -26.9460  -38.4090   24.9660 H   0  0  0  0  0  0  0  0  0  0  0  0
  -26.3040  -31.9300   26.6860 C   0  0  1  0  0  0  0  0  0  0  0  0
  -24.9620  -31.7980   27.4450 C   0  0  0  0  0  1  0  0  0  0  0  0
  -26.8920  -30.5090   26.5230 C   0  0  0  0  0  1  0  0  0  0  0  0
  -27.2890  -32.7130   27.5860 C   0  0  0  0  0  1  0  0  0  0  0  0
  -28.0820  -21.4860   19.1970 C   0  0  0  0  0  2  0  0  0  0  0  0
  -27.3420  -20.3590   19.9320 C   0  0  0  0  0  2  0  0  0  0  0  0
  -25.7320  -18.4150   19.4010 C   0  0  0  0  0  1  0  0  0  0  0  0
  -26.9260  -19.2570   18.9380 C   0  0  0  0  0  2  0  0  0  0  0  0
  -30.9180  -22.0470   20.2650 C   0  0  0  0  0  2  0  0  0  0  0  0
  -30.8770  -20.6290   19.4990 C   0  0  0  0  0  2  0  0  0  0  0  0
  -30.7960  -19.2540   20.3450 C   0  0  0  0  0  3  0  0  0  0  0  0
  -31.3370  -17.8970   19.6830 C   0  0  0  0  0  3  0  0  0  0  0  0
  -31.9980  -15.4700   20.3220 C   0  0  0  0  0  0  0  0  0  0  0  0
  -31.9050  -13.1260   19.5100 C   0  0  0  0  0  2  0  0  0  0  0  0
  -31.0340  -13.1080   18.2340 C   0  0  0  0  0  2  0  0  0  0  0  0
  -29.5480  -12.9310   18.6000 C   0  0  0  0  0  2  0  0  0  0  0  0
  -29.0900  -13.8930   19.7280 C   0  0  0  0  0  3  0  0  0  0  0  0
  -30.0900  -13.9010   20.9090 C   0  0  0  0  0  2  0  0  0  0  0  0
  -31.4140  -14.2280   20.3660 N   0  0  0  0  0  0  0  0  0  0  0  0
  -33.1790  -15.6000   19.9890 O   0  0  0  0  0  0  0  0  0  0  0  0
  -31.1710  -16.5690   20.4010 N   0  0  0  0  0  0  0  0  0  0  0  0
  -30.2410  -16.3680   20.7390 H   0  0  0  0  0  0  0  0  0  0  0  0
  -26.6750  -14.4770   20.3760 C   0  0  0  0  0  0  0  0  0  0  0  0
  -25.5980  -13.6980   20.7100 C   0  0  0  0  0  0  0  0  0  0  0  0
  -26.0660  -12.3490   20.6850 C   0  0  0  0  0  0  0  0  0  0  0  0
  -27.7280  -13.6010   20.1690 N   0  0  0  0  0  0  0  0  0  0  0  0
  -27.3660  -12.3150   20.4170 N   0  0  0  0  0  0  0  0  0  0  0  0
  -25.3370  -11.0820   20.8440 C   0  0  0  0  0  0  0  0  0  0  0  0
  -25.5890  -10.2170   21.9310 C   0  0  0  0  0  3  0  0  0  0  0  0
  -24.8610   -9.0160   22.0730 C   0  0  0  0  0  3  0  0  0  0  0  0
  -23.8680   -8.6710   21.1260 C   0  0  0  0  0  0  0  0  0  0  0  0
  -23.6370   -9.5260   20.0330 C   0  0  0  0  0  3  0  0  0  0  0  0
  -24.3660  -10.7190   19.8900 C   0  0  0  0  0  3  0  0  0  0  0  0
  -23.1290   -7.5130   21.1700 O   0  0  0  0  0  0  0  0  0  0  0  0
  -22.6610   -7.0030   22.3540 C   0  0  0  0  0  0  0  0  0  0  0  0
  -21.7800   -7.7310   23.1820 C   0  0  0  0  0  3  0  0  0  0  0  0
  -21.2670   -7.1420   24.3550 C   0  0  0  0  0  3  0  0  0  0  0  0
  -21.6250   -5.8230   24.6970 C   0  0  0  0  0  0  0  0  0  0  0  0
  -22.4970   -5.0950   23.8690 C   0  0  0  0  0  3  0  0  0  0  0  0
  -23.0110   -5.6810   22.7000 C   0  0  0  0  0  0  0  0  0  0  0  0
  -23.8350   -4.9670   21.8960 F   0  0  0  0  0  0  0  0  0  0  0  0
  -21.1260   -5.2540   25.8180 F   0  0  0  0  0  0  0  0  0  0  0  0
  -24.1920  -14.1690   20.9390 C   0  0  0  0  0  0  0  0  0  0  0  0
  -23.4430  -13.4770   21.7900 N   0  0  0  0  0  0  0  0  0  0  0  0
  -23.7640  -15.1890   20.3990 O   0  0  0  0  0  0  0  0  0  0  0  0
  -23.8000  -12.6520   22.2480 H   0  0  0  0  0  0  0  0  0  0  0  0
  -22.4970  -13.7740   21.9830 H   0  0  0  0  0  0  0  0  0  0  0  0
  -26.8400  -15.8490   20.2090 N   0  0  0  0  0  0  0  0  0  0  0  0
  -26.0620  -16.4960   20.2790 H   0  0  0  0  0  0  0  0  0  0  0  0
  -27.6910  -16.2870   19.8770 H   0  0  0  0  0  0  0  0  0  0  0  0
  1  3  1  0
  2  4  1  0
  2  1  2  0
  3  6  2  0
  3  7  1  0
  4  5  2  0
  5  8  1  0
  5  6  1  0
  6  9  1  0
 10 21  2  0
 11  9  1  0
 11 16  1  0
 12 22  1  0
 12 20  1  0
 13 15  1  0
 14 20  1  0
 15 16  2  0
 15 14  1  0
 17 11  2  0
 18 17  1  0
 18 13  2  0
 19 13  1  0
 19 12  1  0
 20 10  1  0
 22 24  2  0
 23 22  1  0
 25 23  1  0
 26 31  1  0
 27 23  1  0
 28 27  1  0
 29 30  1  0
 29 28  1  0
 30 26  1  0
 31 27  1  0
 31 32  2  0
 33 32  1  0
 34 33  2  0
 35 26  2  0
 35 34  1  0
 36 10  1  0
 36 37  1  0
 36 46  1  0
 37 40  1  0
 38 42  1  0
 38 37  1  0
 39 38  2  0
 42 41  1  0
 44 45  1  0
 44 42  1  0
 44 43  1  0
 46 47  1  1
 46 49  1  0
 48 46  1  0
 50 51  1  0
 50  2  1  0
 53 52  1  0
 53 51  1  0
 54  4  1  0
 55 54  1  0
 55 56  1  0
 57 56  2  0
 57 66  1  0
 58 64  1  0
 58 66  1  0
 59 64  1  0
 60 61  1  0
 60 59  1  0
 62 61  1  0
 62 71  1  0
 62 63  1  0
 64 63  1  0
 65 58  2  0
 66 67  1  0
 68 69  2  0
 69 88  1  0
 70 69  1  0
 70 73  1  0
 71 68  1  0
 71 72  1  0
 72 70  2  0
 73 74  1  0
 74 75  2  0
 76 79  1  0
 76 75  1  0
 77 76  2  0
 78 77  1  0
 78 73  2  0
 79 80  1  0
 80 85  2  0
 80 81  1  0
 81 82  2  0
 82 83  1  0
 83 87  1  0
 84 83  2  0
 85 84  1  0
 86 85  1  0
 88 89  1  0
 89 92  1  0
 89 91  1  0
 90 88  2  0
 93 94  1  0
 93 68  1  0
 95 93  1  0
M  ISO  4   6 101   9 101  58 100  66 100
M  END
>  <TORSDO>  (8) 
F 23

>  <SCORE>  (8) 
-6.493

>  <name>  (8) 
7

>  <ligand_id>  (8) 
7

>  <original_smiles>  (8) 
[H]c1c([H])c([H])c2c(c1[H])C([H])([H])C([H])([H])C([H])([H])C2([H])N([H])C(=O)C1([H])N(C(=O)C([H])(N([H])C(=O)C([H])(N([H])C([H])([H])[H])C([H])([H])[H])C(C([H])([H])[H])(C([H])([H])[H])C([H])([H])[H])C([H])([H])c2c([H])c(Oc3c(C([H])([H])[H])c([H])c(C([H])([H])C([H])([H])C([H])([H])C([H])([H])[H])c(C([H])([H])C([H])([H])C([H])([H])C([H])([H])N([H])C(=O)N4C([H])([H])C([H])([H])C([H])([H])C([H])(n5nc(-c6c([H])c([H])c(Oc7c([H])c([H])c(F)c([H])c7F)c([H])c6[H])c(C(=O)N([H])[H])c5N([H])[H])C4([H])[H])c3C([H])([H])[H])c([H])c([H])c2C1([H])[H]

>  <smiles>  (8) 
[H]c1c([H])c([H])c2c(c1[H])C([H])([H])C([H])([H])C([H])([H])C2([H])N([H])C(=O)C1([H])N(C(=O)C([H])(N([H])C(=O)C([H])(N([H])C([H])([H])[H])C([H])([H])[H])C(C([H])([H])[H])(C([H])([H])[H])C([H])([H])[H])C([H])([H])c2c([H])c(Oc3c(C([H])([H])[H])c([H])c(C([H])([H])C([H])([H])C([H])([H])C([H])([H])[H])c(C([H])([H])C([H])([H])C([H])([H])C([H])([H])N([H])C(=O)N4C([H])([H])C([H])([H])C([H])([H])C([H])(n5nc(-c6c([H])c([H])c(Oc7c([H])c([H])c(F)c([H])c7F)c([H])c6[H])c(C(=O)N([H])[H])c5N([H])[H])C4([H])[H])c3C([H])([H])[H])c([H])c([H])c2C1([H])[H]

$$$$
8:0:0
     RDKit          3D

 95103  0  0  1  0  0  0  0  0999 V2000
  -29.6200  -22.2190   17.6100 C   0  0  0  0  0  3  0  0  0  0  0  0
  -29.1920  -21.9560   20.2980 C   0  0  0  0  0  3  0  0  0  0  0  0
  -28.9530  -23.2610   18.2950 C   0  0  0  0  0  0  0  0  0  0  0  0
  -30.0870  -21.0370   18.2390 C   0  0  0  0  0  0  0  0  0  0  0  0
  -29.7270  -20.7600   19.5910 C   0  0  0  0  0  0  0  0  0  0  0  0
  -28.8440  -23.2730   19.7070 C   0  0  0  0  0  0  0  0  0  0  0  0
  -28.2390  -24.3160   17.4720 C   0  0  0  0  0  1  0  0  0  0  0  0
  -31.0280  -20.1520   17.4100 C   0  0  0  0  0  2  0  0  0  0  0  0
  -32.2700  -20.9240   16.8810 C   0  0  0  0  0  2  0  0  0  0  0  0
  -33.3320  -20.0010   16.2480 C   0  0  0  0  0  2  0  0  0  0  0  0
  -35.7410  -19.7920   15.3940 C   0  0  0  0  0  1  0  0  0  0  0  0
  -34.5900  -20.7410   15.7340 C   0  0  0  0  0  2  0  0  0  0  0  0
  -30.0100  -19.2930   20.2990 C   0  0  0  0  0  3  0  0  0  0  0  0
  -29.9590  -17.7250   19.6490 C   0  0  0  0  0  3  0  0  0  0  0  0
  -31.5110  -16.7830   21.3340 C   0  0  0  0  0  1  0  0  0  0  0  0
  -29.1110  -16.2650   21.6190 C   0  0  0  0  0  1  0  0  0  0  0  0
  -30.2390  -16.3510   20.5660 C   0  0  1  0  0  0  0  0  0  0  0  0
  -30.6870  -14.8470   19.9500 C   0  0  0  0  0  0  0  0  0  0  0  0
  -30.3920  -12.5450   18.9400 C   0  0  0  0  0  2  0  0  0  0  0  0
  -29.3800  -12.6080   17.7770 C   0  0  0  0  0  2  0  0  0  0  0  0
  -27.9390  -12.4150   18.2880 C   0  0  0  0  0  2  0  0  0  0  0  0
  -27.6480  -13.2750   19.5430 C   0  0  0  0  0  3  0  0  0  0  0  0
  -28.7910  -13.1690   20.5850 C   0  0  0  0  0  2  0  0  0  0  0  0
  -30.0240  -13.6130   19.9210 N   0  0  0  0  0  0  0  0  0  0  0  0
  -31.8150  -14.8240   19.4440 O   0  0  0  0  0  0  0  0  0  0  0  0
  -25.3050  -13.8920   20.3990 C   0  0  0  0  0  0  0  0  0  0  0  0
  -24.2510  -13.1210   20.8050 C   0  0  0  0  0  0  0  0  0  0  0  0
  -24.6920  -11.7660   20.7410 C   0  0  0  0  0  0  0  0  0  0  0  0
  -26.3240  -12.9970   20.0980 N   0  0  0  0  0  0  0  0  0  0  0  0
  -25.9670  -11.7170   20.3720 N   0  0  0  0  0  0  0  0  0  0  0  0
  -23.9590  -10.5090   20.9480 C   0  0  0  0  0  0  0  0  0  0  0  0
  -24.3960   -9.5280   21.8610 C   0  0  0  0  0  3  0  0  0  0  0  0
  -23.6500   -8.3470   22.0570 C   0  0  0  0  0  3  0  0  0  0  0  0
  -22.4520   -8.1350   21.3370 C   0  0  0  0  0  0  0  0  0  0  0  0
  -22.0340   -9.1060   20.4080 C   0  0  0  0  0  3  0  0  0  0  0  0
  -22.7820  -10.2770   20.2110 C   0  0  0  0  0  3  0  0  0  0  0  0
  -21.6810   -7.0050   21.4410 O   0  0  0  0  0  0  0  0  0  0  0  0
  -21.6370   -6.2650   22.5990 C   0  0  0  0  0  0  0  0  0  0  0  0
  -21.2410   -6.8320   23.8270 C   0  0  0  0  0  3  0  0  0  0  0  0
  -21.1360   -6.0230   24.9750 C   0  0  0  0  0  3  0  0  0  0  0  0
  -21.4300   -4.6510   24.9020 C   0  0  0  0  0  0  0  0  0  0  0  0
  -21.8240   -4.0820   23.6790 C   0  0  0  0  0  3  0  0  0  0  0  0
  -21.9260   -4.8880   22.5270 C   0  0  0  0  0  0  0  0  0  0  0  0
  -22.2810   -4.3300   21.3460 F   0  0  0  0  0  0  0  0  0  0  0  0
  -21.3190   -3.8700   26.0030 F   0  0  0  0  0  0  0  0  0  0  0  0
  -22.8770  -13.6230   21.1460 C   0  0  0  0  0  0  0  0  0  0  0  0
  -22.1760  -12.9370   22.0440 N   0  0  0  0  0  0  0  0  0  0  0  0
  -22.4360  -14.6540   20.6490 O   0  0  0  0  0  0  0  0  0  0  0  0
  -22.5530  -12.1120   22.4780 H   0  0  0  0  0  0  0  0  0  0  0  0
  -21.2550  -13.2640   22.3080 H   0  0  0  0  0  0  0  0  0  0  0  0
  -25.4700  -15.2660   20.2400 N   0  0  0  0  0  0  0  0  0  0  0  0
  -24.7080  -15.9240   20.3850 H   0  0  0  0  0  0  0  0  0  0  0  0
  -26.3180  -15.7050   19.9060 H   0  0  0  0  0  0  0  0  0  0  0  0
  -28.1230  -24.5560   20.4690 C   0  0  0  0  0  2  0  0  0  0  0  0
  -28.3450  -26.0880   20.2220 O   0  0  0  0  0  0  0  0  0  0  0  0
  -24.5220  -31.7220   23.1610 C   0  0  0  0  0  0  0  0  0  0  0  0
  -27.2520  -27.0350   20.2180 C   0  0  0  0  0  0  0  0  0  0  0  0
  -23.3790  -30.2950   21.5080 C   0  0  0  0  0  3  0  0  0  0  0  0
  -24.8890  -28.7360   20.1280 C   0  0  0  0  0  0  0  0  0  0  0  0
  -25.9320  -30.6060   21.3910 C   0  0  0  0  0  2  0  0  0  0  0  0
  -26.0450  -29.2050   20.7650 C   0  0  0  0  0  0  0  0  0  0  0  0
  -27.2250  -28.3730   20.7950 C   0  0  0  0  0  3  0  0  0  0  0  0
  -26.0670  -26.6690   19.5460 C   0  0  0  0  0  3  0  0  0  0  0  0
  -24.9130  -27.4830   19.4970 C   0  0  0  0  0  3  0  0  0  0  0  0
  -23.6420  -29.6000   20.1430 C   0  0  0  0  0  2  0  0  0  0  0  0
  -24.6290  -30.9000   22.0750 N   0  0  0  0  0  0  0  0  0  0  0  0
  -23.4200  -31.9840   23.6700 O   0  0  0  0  0  0  0  0  0  0  0  0
  -22.7010  -29.2850   22.4630 C   0  0  0  0  0  0  0  0  0  0  0  0
  -21.3780  -29.1020   22.3120 N   0  0  0  0  0  0  0  0  0  0  0  0
  -23.3690  -28.6690   23.2990 O   0  0  0  0  0  0  0  0  0  0  0  0
  -20.9130  -29.6330   21.5900 H   0  0  0  0  0  0  0  0  0  0  0  0
  -17.9940  -27.8750   22.7440 C   0  0  0  0  0  0  0  0  0  0  0  0
  -20.5450  -28.1670   23.0730 C   0  0  0  0  0  3  0  0  0  0  0  0
  -20.6770  -26.7350   22.5090 C   0  0  0  0  0  2  0  0  0  0  0  0
  -19.6000  -26.3880   21.4780 C   0  0  0  0  0  2  0  0  0  0  0  0
  -18.2020  -26.5220   22.0870 C   0  0  0  0  0  2  0  0  0  0  0  0
  -19.0940  -28.6550   23.1930 C   0  0  0  0  0  0  0  0  0  0  0  0
  -18.8440  -29.9150   23.7770 C   0  0  0  0  0  3  0  0  0  0  0  0
  -17.5280  -30.3960   23.9200 C   0  0  0  0  0  3  0  0  0  0  0  0
  -16.4430  -29.6160   23.4850 C   0  0  0  0  0  3  0  0  0  0  0  0
  -16.6770  -28.3590   22.9010 C   0  0  0  0  0  3  0  0  0  0  0  0
  -25.7720  -32.3920   23.8080 C   0  0  0  0  0  3  0  0  0  0  0  0
  -25.4150  -33.7810   24.1350 N   0  0  0  0  0  0  0  0  0  0  0  0
  -25.7430  -34.8500   23.4000 C   0  0  0  0  0  0  0  0  0  0  0  0
  -26.4370  -34.7770   22.3830 O   0  0  0  0  0  0  0  0  0  0  0  0
  -24.7810  -33.9040   24.9120 H   0  0  0  0  0  0  0  0  0  0  0  0
  -23.9760  -36.6080   23.0380 C   0  0  0  0  0  1  0  0  0  0  0  0
  -25.2150  -36.2240   23.8620 C   0  0  0  0  0  3  0  0  0  0  0  0
  -27.3060  -37.1520   24.7400 C   0  0  0  0  0  1  0  0  0  0  0  0
  -26.2200  -37.3060   23.7770 N   0  0  0  0  0  0  0  0  0  0  0  0
  -25.7860  -38.2120   23.9320 H   0  0  0  0  0  0  0  0  0  0  0  0
  -26.2690  -31.6340   25.0980 C   0  0  1  0  0  0  0  0  0  0  0  0
  -25.1490  -31.3670   26.1340 C   0  0  0  0  0  1  0  0  0  0  0  0
  -26.8800  -30.2670   24.7180 C   0  0  0  0  0  1  0  0  0  0  0  0
  -27.3930  -32.4450   25.7850 C   0  0  0  0  0  1  0  0  0  0  0  0
  1  4  2  0
  1  3  1  0
  3  6  2  0
  4  5  1  0
  5  2  2  0
  5 13  1  0
  6  2  1  0
  6 54  1  0
  7  3  1  0
  8  4  1  0
  9  8  1  0
 10  9  1  0
 11 12  1  0
 12 10  1  0
 14 13  2  0
 14 17  1  0
 17 15  1  1
 17 16  1  0
 18 17  1  0
 19 24  1  0
 20 21  1  0
 20 19  1  0
 22 21  1  0
 22 29  1  0
 22 23  1  0
 24 18  1  0
 24 23  1  0
 25 18  2  0
 26 27  2  0
 27 46  1  0
 28 27  1  0
 28 31  1  0
 29 30  1  0
 29 26  1  0
 30 28  2  0
 31 32  1  0
 32 33  2  0
 34 37  1  0
 34 33  1  0
 35 34  2  0
 36 35  1  0
 36 31  2  0
 37 38  1  0
 38 39  1  0
 39 40  2  0
 41 40  1  0
 41 45  1  0
 42 41  2  0
 43 38  2  0
 43 42  1  0
 44 43  1  0
 46 47  1  0
 47 50  1  0
 47 49  1  0
 48 46  2  0
 51 52  1  0
 51 26  1  0
 53 51  1  0
 55 54  1  0
 56 67  2  0
 57 55  1  0
 57 62  1  0
 58 66  1  0
 58 68  1  0
 59 65  1  0
 59 61  1  0
 60 66  1  0
 61 62  2  0
 61 60  1  0
 63 57  2  0
 64 63  1  0
 64 59  2  0
 65 58  1  0
 66 56  1  0
 68 70  2  0
 69 68  1  0
 71 69  1  0
 72 81  2  0
 72 77  1  0
 73 69  1  0
 73 77  1  0
 74 73  1  0
 75 76  1  0
 75 74  1  0
 76 72  1  0
 77 78  2  0
 78 79  1  0
 80 79  2  0
 81 80  1  0
 82 56  1  0
 82 83  1  0
 82 92  1  0
 83 86  1  0
 84 88  1  0
 84 83  1  0
 85 84  2  0
 88 87  1  0
 90 88  1  0
 90 91  1  0
 90 89  1  0
 92 95  1  1
 92 93  1  0
 94 92  1  0
M  ISO  4  17 100  18 100  54 101  55 101
M  END
>  <TORSDO>  (9) 
F 24

>  <SCORE>  (9) 
-12.548

>  <name>  (9) 
8

>  <ligand_id>  (9) 
8

>  <original_smiles>  (9) 
[H]c1c([H])c([H])c2c(c1[H])C([H])([H])C([H])([H])C([H])([H])C2([H])N([H])C(=O)C1([H])N(C(=O)C([H])(N([H])C(=O)C([H])(N([H])C([H])([H])[H])C([H])([H])[H])C(C([H])([H])[H])(C([H])([H])[H])C([H])([H])[H])C([H])([H])c2c([H])c(OC([H])([H])c3c([H])c(C([H])([H])C([H])([H])C(C(=O)N4C([H])([H])C([H])([H])C([H])([H])C([H])(n5nc(-c6c([H])c([H])c(Oc7c([H])c([H])c(F)c([H])c7F)c([H])c6[H])c(C(=O)N([H])[H])c5N([H])[H])C4([H])[H])(C([H])([H])[H])C([H])([H])[H])c(C([H])([H])C([H])([H])C([H])([H])C([H])([H])C([H])([H])[H])c([H])c3C([H])([H])[H])c([H])c([H])c2C1([H])[H]

>  <smiles>  (9) 
[H]c1c([H])c([H])c2c(c1[H])C([H])([H])C([H])([H])C([H])([H])C2([H])N([H])C(=O)C1([H])N(C(=O)C([H])(N([H])C(=O)C([H])(N([H])C([H])([H])[H])C([H])([H])[H])C(C([H])([H])[H])(C([H])([H])[H])C([H])([H])[H])C([H])([H])c2c([H])c(OC([H])([H])c3c([H])c(C([H])([H])C([H])([H])C(C(=O)N4C([H])([H])C([H])([H])C([H])([H])C([H])(n5nc(-c6c([H])c([H])c(Oc7c([H])c([H])c(F)c([H])c7F)c([H])c6[H])c(C(=O)N([H])[H])c5N([H])[H])C4([H])[H])(C([H])([H])[H])C([H])([H])[H])c(C([H])([H])C([H])([H])C([H])([H])C([H])([H])C([H])([H])[H])c([H])c3C([H])([H])[H])c([H])c([H])c2C1([H])[H]

$$$$
9:0:0
     RDKit          3D

 91100  0  0  1  0  0  0  0  0999 V2000
  -30.7700  -14.5300   20.4800 C   0  0  0  0  0  0  0  0  0  0  0  0
  -30.4270  -12.3970   19.2840 C   0  0  0  0  0  2  0  0  0  0  0  0
  -29.5010  -12.6490   18.0780 C   0  0  0  0  0  2  0  0  0  0  0  0
  -28.0210  -12.5290   18.4940 C   0  0  0  0  0  2  0  0  0  0  0  0
  -27.6920  -13.3420   19.7760 C   0  0  0  0  0  3  0  0  0  0  0  0
  -28.7370  -13.0890   20.8860 C   0  0  0  0  0  2  0  0  0  0  0  0
  -30.0670  -13.3730   20.3250 N   0  0  0  0  0  0  0  0  0  0  0  0
  -31.9200  -14.6670   20.0490 O   0  0  0  0  0  0  0  0  0  0  0  0
  -30.8060  -18.8130   22.7640 C   0  0  0  0  0  3  0  0  0  0  0  0
  -29.8260  -19.3000   20.1500 C   0  0  0  0  0  3  0  0  0  0  0  0
  -30.4310  -17.7510   21.9250 C   0  0  0  0  0  0  0  0  0  0  0  0
  -29.9560  -17.9870   20.6560 C   0  0  0  0  0  0  0  0  0  0  0  0
  -30.7130  -20.1440   22.2780 C   0  0  0  0  0  0  0  0  0  0  0  0
  -30.2180  -20.4040   20.9620 C   0  0  0  0  0  0  0  0  0  0  0  0
  -30.5000  -16.2650   22.1930 C   0  0  0  0  0  3  0  0  0  0  0  0
  -29.6720  -16.6640   19.9800 C   0  0  0  0  0  3  0  0  0  0  0  0
  -31.1890  -21.2600   23.1960 C   0  0  0  0  0  1  0  0  0  0  0  0
  -30.0730  -15.5980   20.9400 N   0  0  0  0  0  0  0  0  0  0  0  0
  -25.2920  -13.9840   20.4410 C   0  0  0  0  0  0  0  0  0  0  0  0
  -24.2100  -13.2270   20.8020 C   0  0  0  0  0  0  0  0  0  0  0  0
  -24.6590  -11.8700   20.7970 C   0  0  0  0  0  0  0  0  0  0  0  0
  -26.3310  -13.0880   20.2390 N   0  0  0  0  0  0  0  0  0  0  0  0
  -25.9530  -11.8130   20.5100 N   0  0  0  0  0  0  0  0  0  0  0  0
  -23.9170  -10.6190   20.9920 C   0  0  0  0  0  0  0  0  0  0  0  0
  -24.3260   -9.6580   21.9430 C   0  0  0  0  0  3  0  0  0  0  0  0
  -23.5840   -8.4690   22.1230 C   0  0  0  0  0  3  0  0  0  0  0  0
  -22.4200   -8.2360   21.3530 C   0  0  0  0  0  0  0  0  0  0  0  0
  -22.0310   -9.1850   20.3910 C   0  0  0  0  0  3  0  0  0  0  0  0
  -22.7730  -10.3640   20.2090 C   0  0  0  0  0  3  0  0  0  0  0  0
  -21.6530   -7.1000   21.4410 O   0  0  0  0  0  0  0  0  0  0  0  0
  -21.5750   -6.3720   22.6020 C   0  0  0  0  0  0  0  0  0  0  0  0
  -21.1360   -6.9500   23.8140 C   0  0  0  0  0  3  0  0  0  0  0  0
  -21.0030   -6.1510   24.9670 C   0  0  0  0  0  3  0  0  0  0  0  0
  -21.3000   -4.7760   24.9100 C   0  0  0  0  0  0  0  0  0  0  0  0
  -21.7320   -4.1990   23.7020 C   0  0  0  0  0  3  0  0  0  0  0  0
  -21.8660   -4.9940   22.5510 C   0  0  0  0  0  0  0  0  0  0  0  0
  -22.2620   -4.4300   21.3850 F   0  0  0  0  0  0  0  0  0  0  0  0
  -21.1670   -4.0050   26.0140 F   0  0  0  0  0  0  0  0  0  0  0  0
  -22.8150  -13.7220   21.0480 C   0  0  0  0  0  0  0  0  0  0  0  0
  -22.0670  -13.0440   21.9120 N   0  0  0  0  0  0  0  0  0  0  0  0
  -22.3950  -14.7460   20.5100 O   0  0  0  0  0  0  0  0  0  0  0  0
  -22.4190  -12.2140   22.3660 H   0  0  0  0  0  0  0  0  0  0  0  0
  -21.1310  -13.3610   22.1220 H   0  0  0  0  0  0  0  0  0  0  0  0
  -25.4750  -15.3500   20.2500 N   0  0  0  0  0  0  0  0  0  0  0  0
  -24.7190  -16.0180   20.3500 H   0  0  0  0  0  0  0  0  0  0  0  0
  -26.3460  -15.7780   19.9630 H   0  0  0  0  0  0  0  0  0  0  0  0
  -30.2180  -21.8230   20.3470 C   0  0  0  0  0  2  0  0  0  0  0  0
  -29.2400  -22.8800   20.9400 C   0  0  0  0  0  2  0  0  0  0  0  0
  -29.3720  -24.2960   20.2950 C   0  0  0  0  0  2  0  0  0  0  0  0
  -28.4880  -25.3860   20.9600 C   0  0  0  0  0  2  0  0  0  0  0  0
  -28.6150  -26.6920   20.3510 O   0  0  0  0  0  0  0  0  0  0  0  0
  -24.6730  -31.8900   23.2620 C   0  0  0  0  0  0  0  0  0  0  0  0
  -27.4520  -27.4390   20.3080 C   0  0  0  0  0  0  0  0  0  0  0  0
  -23.5290  -30.4520   21.6080 C   0  0  0  0  0  3  0  0  0  0  0  0
  -25.0400  -28.9200   20.2350 C   0  0  0  0  0  0  0  0  0  0  0  0
  -26.0540  -30.8450   21.4660 C   0  0  0  0  0  2  0  0  0  0  0  0
  -26.1770  -29.4670   20.8430 C   0  0  0  0  0  0  0  0  0  0  0  0
  -27.3900  -28.7360   20.8720 C   0  0  0  0  0  3  0  0  0  0  0  0
  -26.3000  -26.9150   19.6820 C   0  0  0  0  0  3  0  0  0  0  0  0
  -25.0970  -27.6440   19.6500 C   0  0  0  0  0  3  0  0  0  0  0  0
  -23.7820  -29.7600   20.2420 C   0  0  0  0  0  2  0  0  0  0  0  0
  -24.7690  -31.0770   22.1700 N   0  0  0  0  0  0  0  0  0  0  0  0
  -23.5750  -32.1510   23.7730 O   0  0  0  0  0  0  0  0  0  0  0  0
  -22.8690  -29.4310   22.5640 C   0  0  0  0  0  0  0  0  0  0  0  0
  -21.5450  -29.2550   22.4320 N   0  0  0  0  0  0  0  0  0  0  0  0
  -23.5470  -28.8010   23.3790 O   0  0  0  0  0  0  0  0  0  0  0  0
  -21.0590  -29.8160   21.7470 H   0  0  0  0  0  0  0  0  0  0  0  0
  -18.1570  -28.1020   22.9420 C   0  0  0  0  0  0  0  0  0  0  0  0
  -20.7210  -28.3190   23.1960 C   0  0  0  0  0  3  0  0  0  0  0  0
  -20.7980  -26.8940   22.6020 C   0  0  0  0  0  2  0  0  0  0  0  0
  -19.6840  -26.6000   21.5920 C   0  0  0  0  0  2  0  0  0  0  0  0
  -18.3090  -26.7570   22.2480 C   0  0  0  0  0  2  0  0  0  0  0  0
  -19.2910  -28.8420   23.3720 C   0  0  0  0  0  0  0  0  0  0  0  0
  -19.0950  -30.1010   23.9800 C   0  0  0  0  0  3  0  0  0  0  0  0
  -17.8000  -30.6200   24.1600 C   0  0  0  0  0  3  0  0  0  0  0  0
  -16.6810  -29.8760   23.7470 C   0  0  0  0  0  3  0  0  0  0  0  0
  -16.8600  -28.6190   23.1440 C   0  0  0  0  0  3  0  0  0  0  0  0
  -25.9340  -32.5470   23.9050 C   0  0  0  0  0  3  0  0  0  0  0  0
  -26.4390  -31.7930   25.1950 C   0  0  1  0  0  0  0  0  0  0  0  0
  -25.3310  -31.5410   26.2440 C   0  0  0  0  0  1  0  0  0  0  0  0
  -27.0540  -30.4240   24.8190 C   0  0  0  0  0  1  0  0  0  0  0  0
  -27.5620  -32.6110   25.8760 C   0  0  0  0  0  1  0  0  0  0  0  0
  -25.5940  -33.9420   24.2180 N   0  0  0  0  0  0  0  0  0  0  0  0
  -25.9160  -34.9930   23.4530 C   0  0  0  0  0  0  0  0  0  0  0  0
  -26.6010  -34.8930   22.4310 O   0  0  0  0  0  0  0  0  0  0  0  0
  -24.9870  -34.0930   25.0100 H   0  0  0  0  0  0  0  0  0  0  0  0
  -24.1540  -36.7440   23.0620 C   0  0  0  0  0  1  0  0  0  0  0  0
  -25.3950  -36.3760   23.8900 C   0  0  0  0  0  3  0  0  0  0  0  0
  -27.5020  -37.3140   24.7310 C   0  0  0  0  0  1  0  0  0  0  0  0
  -26.4060  -37.4490   23.7750 N   0  0  0  0  0  0  0  0  0  0  0  0
  -25.9790  -38.3620   23.9100 H   0  0  0  0  0  0  0  0  0  0  0  0
  1 18  1  0
  2  7  1  0
  3  4  1  0
  3  2  1  0
  5  4  1  0
  5 22  1  0
  5  6  1  0
  7  1  1  0
  7  6  1  0
  8  1  2  0
 10 12  1  0
 10 14  2  0
 11 15  2  0
 11  9  1  0
 12 11  1  0
 13  9  2  0
 13 17  1  0
 14 13  1  0
 16 12  2  0
 16 18  1  0
 18 15  1  0
 19 20  2  0
 20 39  1  0
 21 20  1  0
 21 24  1  0
 22 19  1  0
 22 23  1  0
 23 21  2  0
 24 25  1  0
 25 26  2  0
 27 30  1  0
 27 26  1  0
 28 27  2  0
 29 28  1  0
 29 24  2  0
 30 31  1  0
 31 32  1  0
 32 33  2  0
 34 33  1  0
 34 38  1  0
 35 34  2  0
 36 31  2  0
 36 35  1  0
 37 36  1  0
 39 40  1  0
 40 43  1  0
 40 42  1  0
 41 39  2  0
 44 45  1  0
 44 19  1  0
 46 44  1  0
 47 48  1  0
 47 14  1  0
 49 48  1  0
 49 50  1  0
 51 50  1  0
 52 63  2  0
 53 51  1  0
 53 58  1  0
 54 62  1  0
 54 64  1  0
 55 61  1  0
 55 57  1  0
 56 62  1  0
 57 58  2  0
 57 56  1  0
 59 53  2  0
 60 59  1  0
 60 55  2  0
 61 54  1  0
 62 52  1  0
 64 66  2  0
 65 64  1  0
 67 65  1  0
 68 77  2  0
 68 73  1  0
 69 65  1  0
 69 73  1  0
 70 69  1  0
 71 72  1  0
 71 70  1  0
 72 68  1  0
 73 74  2  0
 74 75  1  0
 76 75  2  0
 77 76  1  0
 78 52  1  0
 78 83  1  0
 78 79  1  0
 79 82  1  1
 79 80  1  0
 81 79  1  0
 83 86  1  0
 84 88  1  0
 84 83  1  0
 85 84  2  0
 88 87  1  0
 90 88  1  0
 90 91  1  0
 90 89  1  0
M  ISO  4   1 100  18 100  50 101  51 101
M  END
>  <TORSDO>  (10) 
F 19

>  <SCORE>  (10) 
-14.193

>  <name>  (10) 
9

>  <ligand_id>  (10) 
9

>  <original_smiles>  (10) 
[H]c1c([H])c([H])c2c(c1[H])C([H])([H])C([H])([H])C([H])([H])C2([H])N([H])C(=O)C1([H])N(C(=O)C([H])(N([H])C(=O)C([H])(N([H])C([H])([H])[H])C([H])([H])[H])C(C([H])([H])[H])(C([H])([H])[H])C([H])([H])[H])C([H])([H])c2c([H])c(OC([H])([H])C([H])([H])C([H])([H])C([H])([H])c3c([H])c4c(c([H])c3C([H])([H])[H])C([H])([H])N(C(=O)N3C([H])([H])C([H])([H])C([H])([H])C([H])(n5nc(-c6c([H])c([H])c(Oc7c([H])c([H])c(F)c([H])c7F)c([H])c6[H])c(C(=O)N([H])[H])c5N([H])[H])C3([H])[H])C4([H])[H])c([H])c([H])c2C1([H])[H]

>  <smiles>  (10) 
[H]c1c([H])c([H])c2c(c1[H])C([H])([H])C([H])([H])C([H])([H])C2([H])N([H])C(=O)C1([H])N(C(=O)C([H])(N([H])C(=O)C([H])(N([H])C([H])([H])[H])C([H])([H])[H])C(C([H])([H])[H])(C([H])([H])[H])C([H])([H])[H])C([H])([H])c2c([H])c(OC([H])([H])C([H])([H])C([H])([H])C([H])([H])c3c([H])c4c(c([H])c3C([H])([H])[H])C([H])([H])N(C(=O)N3C([H])([H])C([H])([H])C([H])([H])C([H])(n5nc(-c6c([H])c([H])c(Oc7c([H])c([H])c(F)c([H])c7F)c([H])c6[H])c(C(=O)N([H])[H])c5N([H])[H])C3([H])[H])C4([H])[H])c([H])c([H])c2C1([H])[H]

$$$$
10:0:0
     RDKit          3D

 95104  0  0  1  0  0  0  0  0999 V2000
  -28.8970  -23.7990   19.9880 C   0  0  0  0  0  3  0  0  0  0  0  0
  -29.1330  -22.6270   20.8740 C   0  0  0  0  0  0  0  0  0  0  0  0
  -29.0690  -24.3060   22.7290 C   0  0  0  0  0  0  0  0  0  0  0  0
  -28.7360  -25.2100   20.4510 C   0  0  0  0  0  0  0  0  0  0  0  0
  -29.2060  -22.9770   22.2570 C   0  0  0  0  0  0  0  0  0  0  0  0
  -28.8450  -25.3850   21.8490 C   0  0  0  0  0  0  0  0  0  0  0  0
  -29.1770  -24.5960   24.2240 C   0  0  0  0  0  1  0  0  0  0  0  0
  -28.7640  -26.6340   22.3700 F   0  0  0  0  0  0  0  0  0  0  0  0
  -30.6570  -20.2780   20.9740 C   0  0  0  0  0  2  0  0  0  0  0  0
  -28.8420  -20.1770   19.3360 C   0  0  0  0  0  2  0  0  0  0  0  0
  -30.6230  -18.6880   21.2000 C   0  0  0  0  0  2  0  0  0  0  0  0
  -28.7970  -18.5670   19.5430 C   0  0  0  0  0  2  0  0  0  0  0  0
  -29.3000  -20.9950   20.5980 C   0  0  0  0  0  3  0  0  0  0  0  0
  -30.0960  -17.7710   20.0280 C   0  0  0  0  0  3  0  0  0  0  0  0
  -30.7230  -15.0990   20.2970 C   0  0  0  0  0  0  0  0  0  0  0  0
  -30.6400  -12.6900   19.5440 C   0  0  0  0  0  2  0  0  0  0  0  0
  -29.7520  -12.5690   18.2840 C   0  0  0  0  0  2  0  0  0  0  0  0
  -28.2690  -12.4090   18.6730 C   0  0  0  0  0  2  0  0  0  0  0  0
  -27.8260  -13.4230   19.7610 C   0  0  0  0  0  3  0  0  0  0  0  0
  -28.8370  -13.4910   20.9250 C   0  0  0  0  0  2  0  0  0  0  0  0
  -30.1400  -13.8400   20.3460 N   0  0  0  0  0  0  0  0  0  0  0  0
  -31.9200  -15.1790   20.0090 O   0  0  0  0  0  0  0  0  0  0  0  0
  -29.9020  -16.2470   20.3620 N   0  0  0  0  0  0  0  0  0  0  0  0
  -28.9530  -16.0040   20.6000 H   0  0  0  0  0  0  0  0  0  0  0  0
  -25.4360  -14.0700   20.4240 C   0  0  0  0  0  0  0  0  0  0  0  0
  -24.3490  -13.3240   20.7880 C   0  0  0  0  0  0  0  0  0  0  0  0
  -24.7860  -11.9630   20.7880 C   0  0  0  0  0  0  0  0  0  0  0  0
  -26.4670  -13.1660   20.2250 N   0  0  0  0  0  0  0  0  0  0  0  0
  -26.0820  -11.8950   20.5100 N   0  0  0  0  0  0  0  0  0  0  0  0
  -24.0300  -10.7180   20.9780 C   0  0  0  0  0  0  0  0  0  0  0  0
  -24.4260   -9.7480   21.9270 C   0  0  0  0  0  3  0  0  0  0  0  0
  -23.6680   -8.5700   22.1050 C   0  0  0  0  0  3  0  0  0  0  0  0
  -22.5020   -8.3520   21.3340 C   0  0  0  0  0  0  0  0  0  0  0  0
  -22.1260   -9.3090   20.3730 C   0  0  0  0  0  3  0  0  0  0  0  0
  -22.8850  -10.4790   20.1930 C   0  0  0  0  0  3  0  0  0  0  0  0
  -21.7210   -7.2260   21.4210 O   0  0  0  0  0  0  0  0  0  0  0  0
  -21.6430   -6.4910   22.5780 C   0  0  0  0  0  0  0  0  0  0  0  0
  -21.2100   -7.0610   23.7950 C   0  0  0  0  0  3  0  0  0  0  0  0
  -21.0780   -6.2550   24.9430 C   0  0  0  0  0  3  0  0  0  0  0  0
  -21.3670   -4.8790   24.8740 C   0  0  0  0  0  0  0  0  0  0  0  0
  -21.7940   -4.3080   23.6630 C   0  0  0  0  0  3  0  0  0  0  0  0
  -21.9260   -5.1120   22.5160 C   0  0  0  0  0  0  0  0  0  0  0  0
  -22.3170   -4.5510   21.3460 F   0  0  0  0  0  0  0  0  0  0  0  0
  -21.2330   -4.1020   25.9750 F   0  0  0  0  0  0  0  0  0  0  0  0
  -22.9540  -13.8310   21.0160 C   0  0  0  0  0  0  0  0  0  0  0  0
  -22.2010  -13.1850   21.9000 N   0  0  0  0  0  0  0  0  0  0  0  0
  -22.5400  -14.8400   20.4450 O   0  0  0  0  0  0  0  0  0  0  0  0
  -22.5460  -12.3720   22.3880 H   0  0  0  0  0  0  0  0  0  0  0  0
  -21.2640  -13.5100   22.0930 H   0  0  0  0  0  0  0  0  0  0  0  0
  -25.6280  -15.4350   20.2210 N   0  0  0  0  0  0  0  0  0  0  0  0
  -24.8620  -16.0960   20.2830 H   0  0  0  0  0  0  0  0  0  0  0  0
  -26.4660  -15.8420   19.8270 H   0  0  0  0  0  0  0  0  0  0  0  0
  -29.4220  -22.0080   23.2010 O   0  0  0  0  0  0  0  0  0  0  0  0
  -29.4900  -22.3570   24.0840 H   0  0  0  0  0  0  0  0  0  0  0  0
  -28.6010  -26.4430   19.6820 O   0  0  0  0  0  0  0  0  0  0  0  0
  -24.6020  -31.6360   23.0630 C   0  0  0  0  0  0  0  0  0  0  0  0
  -27.4700  -27.3250   19.7590 C   0  0  0  0  0  0  0  0  0  0  0  0
  -23.4760  -30.2450   21.3650 C   0  0  0  0  0  3  0  0  0  0  0  0
  -25.0150  -28.8570   19.8380 C   0  0  0  0  0  0  0  0  0  0  0  0
  -25.9940  -30.7170   21.1770 C   0  0  0  0  0  2  0  0  0  0  0  0
  -26.1620  -29.3720   20.4570 C   0  0  0  0  0  0  0  0  0  0  0  0
  -27.3960  -28.6210   20.4010 C   0  0  0  0  0  3  0  0  0  0  0  0
  -26.2940  -26.9000   19.1120 C   0  0  0  0  0  3  0  0  0  0  0  0
  -25.0910  -27.6370   19.1470 C   0  0  0  0  0  3  0  0  0  0  0  0
  -23.7230  -29.6520   19.9510 C   0  0  0  0  0  2  0  0  0  0  0  0
  -24.7080  -30.8850   21.9240 N   0  0  0  0  0  0  0  0  0  0  0  0
  -23.5100  -31.8100   23.6250 O   0  0  0  0  0  0  0  0  0  0  0  0
  -22.8950  -29.1390   22.2820 C   0  0  0  0  0  0  0  0  0  0  0  0
  -21.6060  -28.8050   22.0950 N   0  0  0  0  0  0  0  0  0  0  0  0
  -23.6060  -28.5890   23.1250 O   0  0  0  0  0  0  0  0  0  0  0  0
  -21.0870  -29.3100   21.3900 H   0  0  0  0  0  0  0  0  0  0  0  0
  -18.4320  -27.0720   22.3190 C   0  0  0  0  0  0  0  0  0  0  0  0
  -20.8770  -27.7570   22.8130 C   0  0  0  0  0  3  0  0  0  0  0  0
  -21.2630  -26.3530   22.2930 C   0  0  0  0  0  2  0  0  0  0  0  0
  -20.3300  -25.8390   21.1900 C   0  0  0  0  0  2  0  0  0  0  0  0
  -18.8890  -25.7610   21.7020 C   0  0  0  0  0  2  0  0  0  0  0  0
  -19.3650  -28.0140   22.8280 C   0  0  0  0  0  0  0  0  0  0  0  0
  -18.8870  -29.2310   23.3620 C   0  0  0  0  0  3  0  0  0  0  0  0
  -17.5070  -29.5100   23.3920 C   0  0  0  0  0  3  0  0  0  0  0  0
  -16.5880  -28.5670   22.9010 C   0  0  0  0  0  3  0  0  0  0  0  0
  -17.0510  -27.3500   22.3710 C   0  0  0  0  0  3  0  0  0  0  0  0
  -25.8430  -32.3290   23.7050 C   0  0  0  0  0  3  0  0  0  0  0  0
  -25.4500  -33.6980   24.0750 N   0  0  0  0  0  0  0  0  0  0  0  0
  -25.7510  -34.7970   23.3690 C   0  0  0  0  0  0  0  0  0  0  0  0
  -26.4550  -34.7660   22.3580 O   0  0  0  0  0  0  0  0  0  0  0  0
  -24.8200  -33.7890   24.8590 H   0  0  0  0  0  0  0  0  0  0  0  0
  -23.9460  -36.5130   23.0270 C   0  0  0  0  0  1  0  0  0  0  0  0
  -25.1820  -36.1420   23.8610 C   0  0  0  0  0  3  0  0  0  0  0  0
  -27.2440  -37.0920   24.7960 C   0  0  0  0  0  1  0  0  0  0  0  0
  -26.1650  -37.2470   23.8240 N   0  0  0  0  0  0  0  0  0  0  0  0
  -25.7100  -38.1390   23.9950 H   0  0  0  0  0  0  0  0  0  0  0  0
  -26.4010  -31.5570   24.9660 C   0  0  1  0  0  0  0  0  0  0  0  0
  -25.3260  -31.2380   26.0310 C   0  0  0  0  0  1  0  0  0  0  0  0
  -27.0520  -30.2190   24.5490 C   0  0  0  0  0  1  0  0  0  0  0  0
  -27.5120  -32.3950   25.6410 C   0  0  0  0  0  1  0  0  0  0  0  0
  1  4  2  0
  1  2  1  0
  2  5  2  0
  3  7  1  0
  4  6  1  0
  5  3  1  0
  5 53  1  0
  6  8  1  0
  6  3  2  0
  9 11  1  0
 10 12  1  0
 10 13  1  0
 12 14  1  0
 13  2  1  0
 13  9  1  0
 14 23  1  0
 14 11  1  0
 15 21  1  0
 15 23  1  0
 16 21  1  0
 17 18  1  0
 17 16  1  0
 19 18  1  0
 19 28  1  0
 19 20  1  0
 21 20  1  0
 22 15  2  0
 23 24  1  0
 25 26  2  0
 26 45  1  0
 27 26  1  0
 27 30  1  0
 28 25  1  0
 28 29  1  0
 29 27  2  0
 30 31  1  0
 31 32  2  0
 33 36  1  0
 33 32  1  0
 34 33  2  0
 35 34  1  0
 35 30  2  0
 36 37  1  0
 37 38  1  0
 38 39  2  0
 40 39  1  0
 40 44  1  0
 41 40  2  0
 42 37  2  0
 42 41  1  0
 43 42  1  0
 45 46  1  0
 46 49  1  0
 46 48  1  0
 47 45  2  0
 50 51  1  0
 50 25  1  0
 52 50  1  0
 53 54  1  0
 55 57  1  0
 55  4  1  0
 56 67  2  0
 57 62  1  0
 58 66  1  0
 58 68  1  0
 59 65  1  0
 59 61  1  0
 60 66  1  0
 61 60  1  0
 62 61  2  0
 63 64  1  0
 63 57  2  0
 64 59  2  0
 65 58  1  0
 66 56  1  0
 68 70  2  0
 69 68  1  0
 71 69  1  0
 72 81  2  0
 72 77  1  0
 73 69  1  0
 73 77  1  0
 74 73  1  0
 75 76  1  0
 75 74  1  0
 76 72  1  0
 77 78  2  0
 78 79  1  0
 80 79  2  0
 81 80  1  0
 82 56  1  0
 82 83  1  0
 82 92  1  0
 83 86  1  0
 84 88  1  0
 84 83  1  0
 85 84  2  0
 88 87  1  0
 90 88  1  0
 90 91  1  0
 90 89  1  0
 92 95  1  1
 92 93  1  0
 94 92  1  0
M  ISO  4   4 101  15 100  23 100  55 101
M  END
>  <TORSDO>  (11) 
F 18

>  <SCORE>  (11) 
-13.888

>  <name>  (11) 
10

>  <ligand_id>  (11) 
10

>  <original_smiles>  (11) 
[H]Oc1c(C([H])([H])[H])c(F)c(Oc2c([H])c([H])c3c(c2[H])C([H])([H])N(C(=O)C([H])(N([H])C(=O)C([H])(N([H])C([H])([H])[H])C([H])([H])[H])C(C([H])([H])[H])(C([H])([H])[H])C([H])([H])[H])C([H])(C(=O)N([H])C2([H])c4c([H])c([H])c([H])c([H])c4C([H])([H])C([H])([H])C2([H])[H])C3([H])[H])c([H])c1C1([H])C([H])([H])C([H])([H])C([H])(N([H])C(=O)N2C([H])([H])C([H])([H])C([H])([H])C([H])(n3nc(-c4c([H])c([H])c(Oc5c([H])c([H])c(F)c([H])c5F)c([H])c4[H])c(C(=O)N([H])[H])c3N([H])[H])C2([H])[H])C([H])([H])C1([H])[H]

>  <smiles>  (11) 
[H]Oc1c(C([H])([H])[H])c(F)c(Oc2c([H])c([H])c3c(c2[H])C([H])([H])N(C(=O)C([H])(N([H])C(=O)C([H])(N([H])C([H])([H])[H])C([H])([H])[H])C(C([H])([H])[H])(C([H])([H])[H])C([H])([H])[H])C([H])(C(=O)N([H])C2([H])c4c([H])c([H])c([H])c([H])c4C([H])([H])C([H])([H])C2([H])[H])C3([H])[H])c([H])c1C1([H])C([H])([H])C([H])([H])C([H])(N([H])C(=O)N2C([H])([H])C([H])([H])C([H])([H])C([H])(n3nc(-c4c([H])c([H])c(Oc5c([H])c([H])c(F)c([H])c5F)c([H])c4[H])c(C(=O)N([H])[H])c3N([H])[H])C2([H])[H])C([H])([H])C1([H])[H]

$$$$
11:0:0
     RDKit          3D

 97105  0  0  1  0  0  0  0  0999 V2000
  -28.9050  -22.5760   20.4570 C   0  0  0  0  0  3  0  0  0  0  0  0
  -31.5640  -23.2270   20.0140 C   0  0  0  0  0  3  0  0  0  0  0  0
  -29.8850  -21.5340   20.6290 C   0  0  0  0  0  0  0  0  0  0  0  0
  -29.2310  -23.9350   20.0910 C   0  0  0  0  0  0  0  0  0  0  0  0
  -31.2360  -21.9210   20.4490 C   0  0  0  0  0  0  0  0  0  0  0  0
  -30.5840  -24.2330   19.8080 C   0  0  0  0  0  0  0  0  0  0  0  0
  -32.2400  -25.7910   19.0010 C   0  0  0  0  0  1  0  0  0  0  0  0
  -30.8890  -25.4960   19.3430 O   0  0  0  0  0  0  0  0  0  0  0  0
  -32.3920  -21.0080   20.8310 C   0  0  0  0  0  2  0  0  0  0  0  0
  -32.8220  -21.2820   22.2810 C   0  0  0  0  0  2  0  0  0  0  0  0
  -34.0180  -20.4400   22.7470 C   0  0  0  0  0  2  0  0  0  0  0  0
  -34.4360  -20.8030   24.1800 C   0  0  0  0  0  2  0  0  0  0  0  0
  -35.6750  -20.0400   24.6690 C   0  0  0  0  0  2  0  0  0  0  0  0
  -37.3620  -19.7880   26.5810 C   0  0  0  0  0  1  0  0  0  0  0  0
  -36.1020  -20.4970   26.0730 C   0  0  0  0  0  2  0  0  0  0  0  0
  -28.1070  -25.0150   19.8900 C   0  0  0  0  0  2  0  0  0  0  0  0
  -28.3470  -26.4590   20.1410 O   0  0  0  0  0  0  0  0  0  0  0  0
  -24.6300  -31.8610   23.2010 C   0  0  0  0  0  0  0  0  0  0  0  0
  -27.2290  -27.3160   20.1010 C   0  0  0  0  0  0  0  0  0  0  0  0
  -23.4240  -30.4860   21.5440 C   0  0  0  0  0  3  0  0  0  0  0  0
  -24.8680  -28.9440   20.1100 C   0  0  0  0  0  0  0  0  0  0  0  0
  -25.9660  -30.7910   21.3700 C   0  0  0  0  0  2  0  0  0  0  0  0
  -26.0400  -29.4180   20.7110 C   0  0  0  0  0  0  0  0  0  0  0  0
  -27.2220  -28.6180   20.6970 C   0  0  0  0  0  3  0  0  0  0  0  0
  -26.0240  -26.8980   19.4820 C   0  0  0  0  0  3  0  0  0  0  0  0
  -24.8620  -27.6860   19.4900 C   0  0  0  0  0  3  0  0  0  0  0  0
  -23.6390  -29.8240   20.1590 C   0  0  0  0  0  2  0  0  0  0  0  0
  -24.6920  -31.0620   22.0950 N   0  0  0  0  0  0  0  0  0  0  0  0
  -23.5460  -32.1390   23.7350 O   0  0  0  0  0  0  0  0  0  0  0  0
  -22.7500  -29.4650   22.4910 C   0  0  0  0  0  0  0  0  0  0  0  0
  -21.4200  -29.3050   22.3660 N   0  0  0  0  0  0  0  0  0  0  0  0
  -23.4220  -28.8200   23.3000 O   0  0  0  0  0  0  0  0  0  0  0  0
  -20.9360  -29.8790   21.6880 H   0  0  0  0  0  0  0  0  0  0  0  0
  -18.0310  -28.1390   22.8530 C   0  0  0  0  0  0  0  0  0  0  0  0
  -20.5920  -28.3700   23.1290 C   0  0  0  0  0  3  0  0  0  0  0  0
  -20.6790  -26.9420   22.5420 C   0  0  0  0  0  2  0  0  0  0  0  0
  -19.5760  -26.6400   21.5230 C   0  0  0  0  0  2  0  0  0  0  0  0
  -18.1940  -26.7940   22.1640 C   0  0  0  0  0  2  0  0  0  0  0  0
  -19.1560  -28.8860   23.2920 C   0  0  0  0  0  0  0  0  0  0  0  0
  -18.9480  -30.1460   23.8930 C   0  0  0  0  0  3  0  0  0  0  0  0
  -17.6480  -30.6590   24.0590 C   0  0  0  0  0  3  0  0  0  0  0  0
  -16.5370  -29.9100   23.6340 C   0  0  0  0  0  3  0  0  0  0  0  0
  -16.7300  -28.6510   23.0380 C   0  0  0  0  0  3  0  0  0  0  0  0
  -25.9130  -32.4790   23.8340 C   0  0  0  0  0  3  0  0  0  0  0  0
  -26.4520  -31.6580   25.0690 C   0  0  1  0  0  0  0  0  0  0  0  0
  -25.3760  -31.3720   26.1430 C   0  0  0  0  0  1  0  0  0  0  0  0
  -27.0330  -30.3020   24.6100 C   0  0  0  0  0  1  0  0  0  0  0  0
  -27.6090  -32.4300   25.7450 C   0  0  0  0  0  1  0  0  0  0  0  0
  -25.5960  -33.8590   24.2280 N   0  0  0  0  0  0  0  0  0  0  0  0
  -25.9070  -34.9470   23.5100 C   0  0  0  0  0  0  0  0  0  0  0  0
  -26.5620  -34.8940   22.4660 O   0  0  0  0  0  0  0  0  0  0  0  0
  -25.0160  -33.9730   25.0460 H   0  0  0  0  0  0  0  0  0  0  0  0
  -24.1490  -36.7270   23.2640 C   0  0  0  0  0  1  0  0  0  0  0  0
  -25.4110  -36.3080   24.0340 C   0  0  0  0  0  3  0  0  0  0  0  0
  -27.5570  -37.1790   24.8490 C   0  0  0  0  0  1  0  0  0  0  0  0
  -26.4280  -37.3780   23.9430 N   0  0  0  0  0  0  0  0  0  0  0  0
  -26.0160  -38.2860   24.1420 H   0  0  0  0  0  0  0  0  0  0  0  0
  -29.5340  -20.0900   21.1720 C   0  0  0  0  0  2  0  0  0  0  0  0
  -29.7410  -18.7810   20.2740 C   0  0  0  0  0  2  0  0  0  0  0  0
  -30.3460  -17.4410   20.9310 C   0  0  0  0  0  2  0  0  0  0  0  0
  -29.7160  -16.0110   20.5660 C   0  0  0  0  0  2  0  0  0  0  0  0
  -30.6020  -14.6880   20.4600 C   0  0  0  0  0  0  0  0  0  0  0  0
  -30.4490  -12.4130   19.4640 C   0  0  0  0  0  2  0  0  0  0  0  0
  -29.5130  -12.4810   18.2340 C   0  0  0  0  0  2  0  0  0  0  0  0
  -28.0380  -12.3120   18.6510 C   0  0  0  0  0  2  0  0  0  0  0  0
  -27.6510  -13.2130   19.8510 C   0  0  0  0  0  3  0  0  0  0  0  0
  -28.6950  -13.1090   20.9830 C   0  0  0  0  0  2  0  0  0  0  0  0
  -30.0110  -13.4480   20.4240 N   0  0  0  0  0  0  0  0  0  0  0  0
  -31.7940  -14.8100   20.1660 O   0  0  0  0  0  0  0  0  0  0  0  0
  -25.2580  -13.8160   20.5680 C   0  0  0  0  0  0  0  0  0  0  0  0
  -24.1840  -13.0440   20.9190 C   0  0  0  0  0  0  0  0  0  0  0  0
  -24.6400  -11.6910   20.8740 C   0  0  0  0  0  0  0  0  0  0  0  0
  -26.2980  -12.9330   20.3270 N   0  0  0  0  0  0  0  0  0  0  0  0
  -25.9320  -11.6490   20.5750 N   0  0  0  0  0  0  0  0  0  0  0  0
  -23.9060  -10.4290   21.0400 C   0  0  0  0  0  0  0  0  0  0  0  0
  -24.3620   -9.4210   21.9170 C   0  0  0  0  0  3  0  0  0  0  0  0
  -23.6300   -8.2250   22.0750 C   0  0  0  0  0  3  0  0  0  0  0  0
  -22.4280   -8.0280   21.3540 C   0  0  0  0  0  0  0  0  0  0  0  0
  -21.9910   -9.0240   20.4640 C   0  0  0  0  0  3  0  0  0  0  0  0
  -22.7240  -10.2130   20.3040 C   0  0  0  0  0  3  0  0  0  0  0  0
  -21.6640   -6.8880   21.4230 O   0  0  0  0  0  0  0  0  0  0  0  0
  -21.6850   -6.0730   22.5270 C   0  0  0  0  0  0  0  0  0  0  0  0
  -21.4010   -6.5640   23.8210 C   0  0  0  0  0  3  0  0  0  0  0  0
  -21.3650   -5.6790   24.9170 C   0  0  0  0  0  3  0  0  0  0  0  0
  -21.6040   -4.3050   24.7220 C   0  0  0  0  0  0  0  0  0  0  0  0
  -21.8830   -3.8150   23.4340 C   0  0  0  0  0  3  0  0  0  0  0  0
  -21.9200   -4.6960   22.3400 C   0  0  0  0  0  0  0  0  0  0  0  0
  -22.1670   -4.2150   21.0980 F   0  0  0  0  0  0  0  0  0  0  0  0
  -21.5630   -3.4540   25.7730 F   0  0  0  0  0  0  0  0  0  0  0  0
  -22.7860  -13.5240   21.1850 C   0  0  0  0  0  0  0  0  0  0  0  0
  -22.0510  -12.8220   22.0400 N   0  0  0  0  0  0  0  0  0  0  0  0
  -22.3540  -14.5540   20.6700 O   0  0  0  0  0  0  0  0  0  0  0  0
  -22.4150  -11.9880   22.4770 H   0  0  0  0  0  0  0  0  0  0  0  0
  -21.1110  -13.1210   22.2590 H   0  0  0  0  0  0  0  0  0  0  0  0
  -25.4310  -15.1890   20.4110 N   0  0  0  0  0  0  0  0  0  0  0  0
  -24.6710  -15.8480   20.5340 H   0  0  0  0  0  0  0  0  0  0  0  0
  -26.2920  -15.6280   20.1100 H   0  0  0  0  0  0  0  0  0  0  0  0
  1  3  1  0
  2  5  1  0
  3 58  1  0
  4  1  2  0
  5  3  2  0
  5  9  1  0
  6  2  2  0
  6  4  1  0
  7  8  1  0
  8  6  1  0
  9 10  1  0
 10 11  1  0
 11 12  1  0
 12 13  1  0
 13 15  1  0
 15 14  1  0
 16  4  1  0
 16 17  1  0
 18 29  2  0
 19 17  1  0
 19 24  1  0
 20 28  1  0
 20 30  1  0
 21 27  1  0
 21 23  1  0
 22 28  1  0
 23 22  1  0
 24 23  2  0
 25 26  1  0
 25 19  2  0
 26 21  2  0
 27 20  1  0
 28 18  1  0
 30 32  2  0
 31 30  1  0
 33 31  1  0
 34 43  2  0
 34 39  1  0
 35 31  1  0
 35 39  1  0
 36 35  1  0
 37 38  1  0
 37 36  1  0
 38 34  1  0
 39 40  2  0
 40 41  1  0
 42 41  2  0
 43 42  1  0
 44 18  1  0
 44 49  1  0
 44 45  1  0
 45 48  1  1
 45 46  1  0
 47 45  1  0
 49 52  1  0
 50 54  1  0
 50 49  1  0
 51 50  2  0
 54 53  1  0
 56 54  1  0
 56 57  1  0
 56 55  1  0
 59 60  1  0
 59 58  1  0
 61 60  1  0
 62 61  1  0
 63 68  1  0
 64 65  1  0
 64 63  1  0
 66 65  1  0
 66 73  1  0
 66 67  1  0
 68 62  1  0
 68 67  1  0
 69 62  2  0
 70 71  2  0
 71 90  1  0
 72 71  1  0
 72 75  1  0
 73 70  1  0
 73 74  1  0
 74 72  2  0
 75 76  1  0
 76 77  2  0
 78 81  1  0
 78 77  1  0
 79 78  2  0
 80 79  1  0
 80 75  2  0
 81 82  1  0
 82 83  1  0
 83 84  2  0
 85 84  1  0
 85 89  1  0
 86 85  2  0
 87 82  2  0
 87 86  1  0
 88 87  1  0
 90 91  1  0
 91 94  1  0
 91 93  1  0
 92 90  2  0
 95 96  1  0
 95 70  1  0
 97 95  1  0
M  ISO  4  16 101  17 101  61 100  62 100
M  END
>  <TORSDO>  (12) 
F 28

>  <SCORE>  (12) 
0.373

>  <name>  (12) 
11

>  <ligand_id>  (12) 
11

>  <original_smiles>  (12) 
[H]c1c([H])c([H])c2c(c1[H])C([H])([H])C([H])([H])C([H])([H])C2([H])N([H])C(=O)C1([H])N(C(=O)C([H])(N([H])C(=O)C([H])(N([H])C([H])([H])[H])C([H])([H])[H])C(C([H])([H])[H])(C([H])([H])[H])C([H])([H])[H])C([H])([H])c2c([H])c(OC([H])([H])c3c([H])c(C([H])([H])C([H])([H])C([H])([H])C([H])([H])C(=O)N4C([H])([H])C([H])([H])C([H])([H])C([H])(n5nc(-c6c([H])c([H])c(Oc7c([H])c([H])c(F)c([H])c7F)c([H])c6[H])c(C(=O)N([H])[H])c5N([H])[H])C4([H])[H])c(C([H])([H])C([H])([H])C([H])([H])C([H])([H])C([H])([H])C([H])([H])C([H])([H])[H])c([H])c3OC([H])([H])[H])c([H])c([H])c2C1([H])[H]

>  <smiles>  (12) 
[H]c1c([H])c([H])c2c(c1[H])C([H])([H])C([H])([H])C([H])([H])C2([H])N([H])C(=O)C1([H])N(C(=O)C([H])(N([H])C(=O)C([H])(N([H])C([H])([H])[H])C([H])([H])[H])C(C([H])([H])[H])(C([H])([H])[H])C([H])([H])[H])C([H])([H])c2c([H])c(OC([H])([H])c3c([H])c(C([H])([H])C([H])([H])C([H])([H])C([H])([H])C(=O)N4C([H])([H])C([H])([H])C([H])([H])C([H])(n5nc(-c6c([H])c([H])c(Oc7c([H])c([H])c(F)c([H])c7F)c([H])c6[H])c(C(=O)N([H])[H])c5N([H])[H])C4([H])[H])c(C([H])([H])C([H])([H])C([H])([H])C([H])([H])C([H])([H])C([H])([H])C([H])([H])[H])c([H])c3OC([H])([H])[H])c([H])c([H])c2C1([H])[H]

$$$$
12:0:0
     RDKit          3D

 90 98  0  0  1  0  0  0  0  0999 V2000
  -31.3170  -19.3340   20.6550 C   0  0  0  0  0  3  0  0  0  0  0  0
  -31.6590  -18.8170   21.9200 C   0  0  0  0  0  3  0  0  0  0  0  0
  -29.9070  -17.2950   20.3480 C   0  0  0  0  0  0  0  0  0  0  0  0
  -30.0950  -18.9040   20.1040 C   0  0  0  0  0  0  0  0  0  0  0  0
  -30.8090  -17.8690   22.5260 C   0  0  0  0  0  0  0  0  0  0  0  0
  -29.8270  -17.2020   21.7560 C   0  0  0  0  0  0  0  0  0  0  0  0
  -29.0600  -16.2720   22.3680 F   0  0  0  0  0  0  0  0  0  0  0  0
  -30.6610  -15.7670   19.8740 C   0  0  0  0  0  0  0  0  0  0  0  0
  -30.7330  -13.2640   18.9360 C   0  0  0  0  0  2  0  0  0  0  0  0
  -29.7380  -12.9500   17.7780 C   0  0  0  0  0  2  0  0  0  0  0  0
  -28.3460  -12.5740   18.3130 C   0  0  0  0  0  2  0  0  0  0  0  0
  -27.9360  -13.5010   19.4770 C   0  0  0  0  0  3  0  0  0  0  0  0
  -29.0590  -13.6930   20.5160 C   0  0  0  0  0  2  0  0  0  0  0  0
  -30.1880  -14.3790   19.8390 N   0  0  0  0  0  0  0  0  0  0  0  0
  -31.8330  -15.7650   19.4470 O   0  0  0  0  0  0  0  0  0  0  0  0
  -25.6490  -13.9770   20.4850 C   0  0  0  0  0  0  0  0  0  0  0  0
  -24.6280  -13.1710   20.8970 C   0  0  0  0  0  0  0  0  0  0  0  0
  -25.0930  -11.8290   20.7390 C   0  0  0  0  0  0  0  0  0  0  0  0
  -26.6650  -13.1290   20.0870 N   0  0  0  0  0  0  0  0  0  0  0  0
  -26.3520  -11.8250   20.3060 N   0  0  0  0  0  0  0  0  0  0  0  0
  -24.3870  -10.5530   20.9160 C   0  0  0  0  0  0  0  0  0  0  0  0
  -24.8120   -9.5960   21.8640 C   0  0  0  0  0  3  0  0  0  0  0  0
  -24.1020   -8.3870   22.0310 C   0  0  0  0  0  3  0  0  0  0  0  0
  -22.9500   -8.1260   21.2490 C   0  0  0  0  0  0  0  0  0  0  0  0
  -22.5430   -9.0730   20.2920 C   0  0  0  0  0  3  0  0  0  0  0  0
  -23.2560  -10.2730   20.1240 C   0  0  0  0  0  3  0  0  0  0  0  0
  -22.2140   -6.9690   21.3220 O   0  0  0  0  0  0  0  0  0  0  0  0
  -22.0000   -6.3270   22.5160 C   0  0  0  0  0  0  0  0  0  0  0  0
  -21.3650   -6.9660   23.6030 C   0  0  0  0  0  3  0  0  0  0  0  0
  -21.1020   -6.2470   24.7870 C   0  0  0  0  0  3  0  0  0  0  0  0
  -21.4640   -4.8900   24.8810 C   0  0  0  0  0  0  0  0  0  0  0  0
  -22.0920   -4.2500   23.7970 C   0  0  0  0  0  3  0  0  0  0  0  0
  -22.3550   -4.9660   22.6170 C   0  0  0  0  0  0  0  0  0  0  0  0
  -22.9400   -4.3390   21.5680 F   0  0  0  0  0  0  0  0  0  0  0  0
  -21.2060   -4.1970   26.0160 F   0  0  0  0  0  0  0  0  0  0  0  0
  -23.2590  -13.6210   21.3190 C   0  0  0  0  0  0  0  0  0  0  0  0
  -22.6200  -12.8800   22.2160 N   0  0  0  0  0  0  0  0  0  0  0  0
  -22.7720  -14.6660   20.8910 O   0  0  0  0  0  0  0  0  0  0  0  0
  -23.0300  -12.0330   22.5800 H   0  0  0  0  0  0  0  0  0  0  0  0
  -21.7080  -13.1640   22.5420 H   0  0  0  0  0  0  0  0  0  0  0  0
  -25.7950  -15.3590   20.3860 N   0  0  0  0  0  0  0  0  0  0  0  0
  -25.0540  -16.0010   20.6460 H   0  0  0  0  0  0  0  0  0  0  0  0
  -26.6370  -15.8280   20.0810 H   0  0  0  0  0  0  0  0  0  0  0  0
  -30.9590  -17.5510   23.8750 N   0  0  0  0  0  0  0  0  0  0  0  0
  -31.3410  -18.2610   24.4910 H   0  0  0  0  0  0  0  0  0  0  0  0
  -30.1910  -17.0370   24.2960 H   0  0  0  0  0  0  0  0  0  0  0  0
  -29.0560  -20.4250   20.0310 C   0  0  0  0  0  2  0  0  0  0  0  0
  -29.2650  -22.3310   20.2110 C   0  0  0  0  0  3  0  0  0  0  0  0
  -28.2550  -23.9690   20.0890 C   0  0  0  0  0  3  0  0  0  0  0  0
  -28.4160  -25.6990   20.2660 O   0  0  0  0  0  0  0  0  0  0  0  0
  -24.8020  -31.8470   23.2570 C   0  0  0  0  0  0  0  0  0  0  0  0
  -27.4230  -26.8820   20.2090 C   0  0  0  0  0  0  0  0  0  0  0  0
  -23.6520  -30.4770   21.5680 C   0  0  0  0  0  3  0  0  0  0  0  0
  -25.1350  -28.8730   20.1490 C   0  0  0  0  0  0  0  0  0  0  0  0
  -26.2290  -30.6490   21.4940 C   0  0  0  0  0  2  0  0  0  0  0  0
  -26.3150  -29.2340   20.8100 C   0  0  0  0  0  0  0  0  0  0  0  0
  -27.4450  -28.2670   20.8080 C   0  0  0  0  0  3  0  0  0  0  0  0
  -26.2080  -26.7200   19.4980 C   0  0  0  0  0  3  0  0  0  0  0  0
  -25.1180  -27.6410   19.4710 C   0  0  0  0  0  3  0  0  0  0  0  0
  -23.9190  -29.8100   20.1890 C   0  0  0  0  0  2  0  0  0  0  0  0
  -24.9170  -31.0220   22.1600 N   0  0  0  0  0  0  0  0  0  0  0  0
  -23.6980  -32.1280   23.7540 O   0  0  0  0  0  0  0  0  0  0  0  0
  -22.9260  -29.4730   22.5050 C   0  0  0  0  0  0  0  0  0  0  0  0
  -21.6030  -29.2890   22.3320 N   0  0  0  0  0  0  0  0  0  0  0  0
  -23.5660  -28.8590   23.3630 O   0  0  0  0  0  0  0  0  0  0  0  0
  -21.1360  -29.8370   21.6220 H   0  0  0  0  0  0  0  0  0  0  0  0
  -18.2300  -27.9940   22.7090 C   0  0  0  0  0  0  0  0  0  0  0  0
  -20.7710  -28.3290   23.0670 C   0  0  0  0  0  3  0  0  0  0  0  0
  -20.9300  -26.9020   22.4920 C   0  0  0  0  0  2  0  0  0  0  0  0
  -19.8760  -26.5560   21.4360 C   0  0  0  0  0  2  0  0  0  0  0  0
  -18.4680  -26.6560   22.0280 C   0  0  0  0  0  2  0  0  0  0  0  0
  -19.3100  -28.7860   23.1830 C   0  0  0  0  0  0  0  0  0  0  0  0
  -19.0310  -30.0330   23.7820 C   0  0  0  0  0  3  0  0  0  0  0  0
  -17.7060  -30.4910   23.9100 C   0  0  0  0  0  3  0  0  0  0  0  0
  -16.6400  -29.6980   23.4500 C   0  0  0  0  0  3  0  0  0  0  0  0
  -16.9030  -28.4510   22.8560 C   0  0  0  0  0  3  0  0  0  0  0  0
  -26.0500  -32.4890   23.9320 C   0  0  0  0  0  3  0  0  0  0  0  0
  -26.5060  -31.7270   25.2400 C   0  0  1  0  0  0  0  0  0  0  0  0
  -25.3660  -31.4970   26.2600 C   0  0  0  0  0  1  0  0  0  0  0  0
  -27.1060  -30.3450   24.8950 C   0  0  0  0  0  1  0  0  0  0  0  0
  -27.6270  -32.5260   25.9470 C   0  0  0  0  0  1  0  0  0  0  0  0
  -25.7250  -33.8920   24.2600 N   0  0  0  0  0  0  0  0  0  0  0  0
  -26.0520  -34.9540   23.5140 C   0  0  0  0  0  0  0  0  0  0  0  0
  -26.7170  -34.8590   22.4810 O   0  0  0  0  0  0  0  0  0  0  0  0
  -25.1310  -34.0370   25.0630 H   0  0  0  0  0  0  0  0  0  0  0  0
  -24.2980  -36.7400   23.2190 C   0  0  0  0  0  1  0  0  0  0  0  0
  -25.5690  -36.3430   23.9860 C   0  0  0  0  0  3  0  0  0  0  0  0
  -27.7160  -37.2630   24.7470 C   0  0  0  0  0  1  0  0  0  0  0  0
  -26.5870  -37.4070   23.8330 N   0  0  0  0  0  0  0  0  0  0  0  0
  -26.1750  -38.3240   23.9810 H   0  0  0  0  0  0  0  0  0  0  0  0
  1  2  1  0
  2  5  2  0
  3  6  2  0
  4  3  1  0
  4  1  2  0
  5 44  1  0
  6  7  1  0
  6  5  1  0
  8  3  1  0
  9 14  1  0
 10 11  1  0
 10  9  1  0
 12 11  1  0
 12 19  1  0
 12 13  1  0
 14  8  1  0
 14 13  1  0
 15  8  2  0
 16 17  2  0
 17 36  1  0
 18 17  1  0
 18 21  1  0
 19 20  1  0
 19 16  1  0
 20 18  2  0
 21 22  1  0
 22 23  2  0
 24 27  1  0
 24 23  1  0
 25 24  2  0
 26 25  1  0
 26 21  2  0
 27 28  1  0
 28 33  2  0
 28 29  1  0
 29 30  2  0
 30 31  1  0
 31 35  1  0
 32 31  2  0
 33 32  1  0
 34 33  1  0
 36 37  1  0
 37 40  1  0
 37 39  1  0
 38 36  2  0
 41 16  1  0
 41 42  1  0
 43 41  1  0
 44 46  1  0
 44 45  1  0
 47  4  1  0
 47 48  1  0
 49 48  2  0
 49 50  1  0
 51 62  2  0
 52 50  1  0
 52 57  1  0
 53 61  1  0
 53 63  1  0
 54 60  1  0
 54 56  1  0
 55 61  1  0
 56 55  1  0
 57 56  2  0
 58 52  2  0
 59 58  1  0
 59 54  2  0
 60 53  1  0
 61 51  1  0
 63 65  2  0
 64 63  1  0
 66 64  1  0
 67 76  2  0
 67 72  1  0
 68 64  1  0
 68 72  1  0
 69 68  1  0
 70 71  1  0
 70 69  1  0
 71 67  1  0
 72 73  2  0
 73 74  1  0
 75 74  2  0
 76 75  1  0
 77 51  1  0
 77 82  1  0
 77 78  1  0
 78 81  1  1
 78 79  1  0
 80 78  1  0
 82 85  1  0
 83 87  1  0
 83 82  1  0
 84 83  2  0
 87 86  1  0
 89 90  1  0
 89 87  1  0
 89 88  1  0
M  ISO  4   3 100   8 100  49 101  50 101
M  END
>  <TORSDO>  (13) 
F 20

>  <SCORE>  (13) 
-14.288

>  <name>  (13) 
12

>  <ligand_id>  (13) 
12

>  <original_smiles>  (13) 
[H]c1c([H])c([H])c2c(c1[H])C([H])([H])C([H])([H])C([H])([H])C2([H])N([H])C(=O)C1([H])N(C(=O)C([H])(N([H])C(=O)C([H])(N([H])C([H])([H])[H])C([H])([H])[H])C(C([H])([H])[H])(C([H])([H])[H])C([H])([H])[H])C([H])([H])c2c([H])c(OC([H])([H])C([H])([H])C([H])([H])c3c([H])c([H])c(N([H])[H])c(F)c3C(=O)N3C([H])([H])C([H])([H])C([H])([H])C([H])(n4nc(-c5c([H])c([H])c(Oc6c([H])c([H])c(F)c([H])c6F)c([H])c5[H])c(C(=O)N([H])[H])c4N([H])[H])C3([H])[H])c([H])c([H])c2C1([H])[H]

>  <smiles>  (13) 
[H]c1c([H])c([H])c2c(c1[H])C([H])([H])C([H])([H])C([H])([H])C2([H])N([H])C(=O)C1([H])N(C(=O)C([H])(N([H])C(=O)C([H])(N([H])C([H])([H])[H])C([H])([H])[H])C(C([H])([H])[H])(C([H])([H])[H])C([H])([H])[H])C([H])([H])c2c([H])c(OC([H])([H])C([H])([H])C([H])([H])c3c([H])c([H])c(N([H])[H])c(F)c3C(=O)N3C([H])([H])C([H])([H])C([H])([H])C([H])(n4nc(-c5c([H])c([H])c(Oc6c([H])c([H])c(F)c([H])c6F)c([H])c5[H])c(C(=O)N([H])[H])c4N([H])[H])C3([H])[H])c([H])c([H])c2C1([H])[H]

$$$$
13:0:0
     RDKit          3D

 96104  0  0  1  0  0  0  0  0999 V2000
  -27.9660  -23.7240   19.2690 C   0  0  0  0  0  3  0  0  0  0  0  0
  -28.5510  -22.4630   19.8230 C   0  0  0  0  0  0  0  0  0  0  0  0
  -29.4030  -22.6730   20.9490 C   0  0  0  0  0  0  0  0  0  0  0  0
  -29.6580  -23.9940   21.4450 C   0  0  0  0  0  0  0  0  0  0  0  0
  -28.1870  -25.1040   19.7800 C   0  0  0  0  0  0  0  0  0  0  0  0
  -29.0730  -25.1570   20.8770 C   0  0  0  0  0  0  0  0  0  0  0  0
  -30.5740  -24.2310   22.6490 C   0  0  0  0  0  1  0  0  0  0  0  0
  -30.4240  -27.0770   20.7470 C   0  0  0  0  0  1  0  0  0  0  0  0
  -29.3810  -26.3800   21.4220 O   0  0  0  0  0  0  0  0  0  0  0  0
  -30.0380  -21.4790   21.6760 C   0  0  0  0  0  2  0  0  0  0  0  0
  -29.8080  -21.5000   23.2030 C   0  0  0  0  0  2  0  0  0  0  0  0
  -31.0740  -21.1600   24.0120 C   0  0  0  0  0  2  0  0  0  0  0  0
  -31.1550  -21.9120   25.3510 C   0  0  0  0  0  2  0  0  0  0  0  0
  -32.6920  -22.7240   27.2300 C   0  0  0  0  0  1  0  0  0  0  0  0
  -32.5860  -21.9530   25.9070 C   0  0  0  0  0  2  0  0  0  0  0  0
  -28.1620  -20.8990   19.4190 C   0  0  0  0  0  2  0  0  0  0  0  0
  -29.1580  -19.6050   18.9580 C   0  0  0  0  0  2  0  0  0  0  0  0
  -29.4780  -18.1190   19.7190 C   0  0  0  0  0  2  0  0  0  0  0  0
  -29.1800  -16.5350   19.2010 C   0  0  0  0  0  2  0  0  0  0  0  0
  -30.1520  -15.1740   19.2350 C   0  0  0  0  0  0  0  0  0  0  0  0
  -30.0710  -12.7660   18.4500 C   0  0  0  0  0  2  0  0  0  0  0  0
  -28.9710  -12.6210   17.3710 C   0  0  0  0  0  2  0  0  0  0  0  0
  -27.5950  -12.3670   18.0150 C   0  0  0  0  0  2  0  0  0  0  0  0
  -27.3100  -13.3350   19.1890 C   0  0  0  0  0  3  0  0  0  0  0  0
  -28.5100  -13.4430   20.1520 C   0  0  0  0  0  2  0  0  0  0  0  0
  -29.6730  -13.8720   19.3670 N   0  0  0  0  0  0  0  0  0  0  0  0
  -31.3190  -15.2890   18.8430 O   0  0  0  0  0  0  0  0  0  0  0  0
  -25.0630  -13.8600   20.2970 C   0  0  0  0  0  0  0  0  0  0  0  0
  -24.0840  -13.0580   20.8170 C   0  0  0  0  0  0  0  0  0  0  0  0
  -24.5640  -11.7170   20.6960 C   0  0  0  0  0  0  0  0  0  0  0  0
  -26.0720  -13.0060   19.8850 N   0  0  0  0  0  0  0  0  0  0  0  0
  -25.7920  -11.7120   20.1900 N   0  0  0  0  0  0  0  0  0  0  0  0
  -23.9000  -10.4380   20.9740 C   0  0  0  0  0  0  0  0  0  0  0  0
  -24.4170   -9.5230   21.9180 C   0  0  0  0  0  3  0  0  0  0  0  0
  -23.7450   -8.3110   22.1830 C   0  0  0  0  0  3  0  0  0  0  0  0
  -22.5420   -8.0030   21.5040 C   0  0  0  0  0  0  0  0  0  0  0  0
  -22.0450   -8.9080   20.5470 C   0  0  0  0  0  3  0  0  0  0  0  0
  -22.7180  -10.1110   20.2810 C   0  0  0  0  0  3  0  0  0  0  0  0
  -21.8340   -6.8370   21.6790 O   0  0  0  0  0  0  0  0  0  0  0  0
  -21.7870   -6.1990   22.8920 C   0  0  0  0  0  0  0  0  0  0  0  0
  -21.2520   -6.8240   24.0400 C   0  0  0  0  0  3  0  0  0  0  0  0
  -21.1560   -6.1110   25.2520 C   0  0  0  0  0  3  0  0  0  0  0  0
  -21.5840   -4.7720   25.3150 C   0  0  0  0  0  0  0  0  0  0  0  0
  -22.1130   -4.1440   24.1740 C   0  0  0  0  0  3  0  0  0  0  0  0
  -22.2100   -4.8560   22.9650 C   0  0  0  0  0  0  0  0  0  0  0  0
  -22.6990   -4.2410   21.8620 F   0  0  0  0  0  0  0  0  0  0  0  0
  -21.4860   -4.0830   26.4760 F   0  0  0  0  0  0  0  0  0  0  0  0
  -22.7360  -13.5030   21.3040 C   0  0  0  0  0  0  0  0  0  0  0  0
  -22.1620  -12.7890   22.2660 N   0  0  0  0  0  0  0  0  0  0  0  0
  -22.2010  -14.5180   20.8610 O   0  0  0  0  0  0  0  0  0  0  0  0
  -22.6100  -11.9660   22.6390 H   0  0  0  0  0  0  0  0  0  0  0  0
  -21.2620  -13.0690   22.6310 H   0  0  0  0  0  0  0  0  0  0  0  0
  -25.1700  -15.2360   20.1200 N   0  0  0  0  0  0  0  0  0  0  0  0
  -24.4180  -15.8700   20.3670 H   0  0  0  0  0  0  0  0  0  0  0  0
  -25.9420  -15.6960   19.6530 H   0  0  0  0  0  0  0  0  0  0  0  0
  -27.8420  -26.4120   19.2150 O   0  0  0  0  0  0  0  0  0  0  0  0
  -24.4180  -31.6000   23.2710 C   0  0  0  0  0  0  0  0  0  0  0  0
  -26.7620  -27.3070   19.5320 C   0  0  0  0  0  0  0  0  0  0  0  0
  -23.1010  -30.4270   21.5470 C   0  0  0  0  0  3  0  0  0  0  0  0
  -24.4430  -29.0290   19.8600 C   0  0  0  0  0  0  0  0  0  0  0  0
  -25.6390  -30.7120   21.2500 C   0  0  0  0  0  2  0  0  0  0  0  0
  -25.6620  -29.4040   20.4420 C   0  0  0  0  0  0  0  0  0  0  0  0
  -26.8230  -28.5620   20.2610 C   0  0  0  0  0  3  0  0  0  0  0  0
  -25.5160  -27.0240   18.9400 C   0  0  0  0  0  3  0  0  0  0  0  0
  -24.3810  -27.8510   19.0980 C   0  0  0  0  0  3  0  0  0  0  0  0
  -23.2280  -29.9170   20.0870 C   0  0  0  0  0  2  0  0  0  0  0  0
  -24.4110  -30.9270   22.0800 N   0  0  0  0  0  0  0  0  0  0  0  0
  -23.3710  -31.8200   23.8990 O   0  0  0  0  0  0  0  0  0  0  0  0
  -22.4740  -29.3100   22.4180 C   0  0  0  0  0  0  0  0  0  0  0  0
  -21.1380  -29.1610   22.3510 N   0  0  0  0  0  0  0  0  0  0  0  0
  -23.1860  -28.5810   23.1120 O   0  0  0  0  0  0  0  0  0  0  0  0
  -20.6200  -29.8020   21.7660 H   0  0  0  0  0  0  0  0  0  0  0  0
  -17.7830  -27.8960   22.8620 C   0  0  0  0  0  0  0  0  0  0  0  0
  -20.3520  -28.1370   23.0420 C   0  0  0  0  0  3  0  0  0  0  0  0
  -20.4270  -26.7820   22.3030 C   0  0  0  0  0  2  0  0  0  0  0  0
  -19.2790  -26.5730   21.3080 C   0  0  0  0  0  2  0  0  0  0  0  0
  -17.9280  -26.6370   22.0250 C   0  0  0  0  0  2  0  0  0  0  0  0
  -18.9190  -28.6110   23.3260 C   0  0  0  0  0  0  0  0  0  0  0  0
  -18.7270  -29.7950   24.0700 C   0  0  0  0  0  3  0  0  0  0  0  0
  -17.4310  -30.2640   24.3550 C   0  0  0  0  0  3  0  0  0  0  0  0
  -16.3090  -29.5440   23.9080 C   0  0  0  0  0  3  0  0  0  0  0  0
  -16.4870  -28.3610   23.1670 C   0  0  0  0  0  3  0  0  0  0  0  0
  -25.7420  -32.1450   23.8920 C   0  0  0  0  0  3  0  0  0  0  0  0
  -26.2570  -31.2730   25.1030 C   0  0  1  0  0  0  0  0  0  0  0  0
  -25.1900  -31.0380   26.1980 C   0  0  0  0  0  1  0  0  0  0  0  0
  -26.7410  -29.8870   24.6160 C   0  0  0  0  0  1  0  0  0  0  0  0
  -27.4760  -31.9600   25.7610 C   0  0  0  0  0  1  0  0  0  0  0  0
  -25.5000  -33.5310   24.3200 N   0  0  0  0  0  0  0  0  0  0  0  0
  -25.8620  -34.6190   23.6260 C   0  0  0  0  0  0  0  0  0  0  0  0
  -26.5040  -34.5560   22.5740 O   0  0  0  0  0  0  0  0  0  0  0  0
  -24.9350  -33.6570   25.1470 H   0  0  0  0  0  0  0  0  0  0  0  0
  -24.1950  -36.4950   23.4540 C   0  0  0  0  0  1  0  0  0  0  0  0
  -25.4490  -35.9940   24.1870 C   0  0  0  0  0  3  0  0  0  0  0  0
  -27.6400  -36.7560   24.9940 C   0  0  0  0  0  1  0  0  0  0  0  0
  -26.5170  -37.0140   24.0960 N   0  0  0  0  0  0  0  0  0  0  0  0
  -26.1510  -37.9380   24.3070 H   0  0  0  0  0  0  0  0  0  0  0  0
  1  5  2  0
  1  2  1  0
  2  3  2  0
  3  4  1  0
  3 10  1  0
  4  7  1  0
  5  6  1  0
  6  9  1  0
  6  4  2  0
  8  9  1  0
 10 11  1  0
 11 12  1  0
 12 13  1  0
 13 15  1  0
 15 14  1  0
 16  2  1  0
 17 16  1  0
 17 18  1  0
 19 20  1  0
 19 18  1  0
 20 26  1  0
 21 26  1  0
 22 23  1  0
 22 21  1  0
 24 23  1  0
 24 31  1  0
 24 25  1  0
 26 25  1  0
 27 20  2  0
 28 29  2  0
 29 48  1  0
 30 29  1  0
 30 33  1  0
 31 32  1  0
 31 28  1  0
 32 30  2  0
 33 34  1  0
 34 35  2  0
 36 39  1  0
 36 35  1  0
 37 36  2  0
 38 37  1  0
 38 33  2  0
 39 40  1  0
 40 45  2  0
 40 41  1  0
 41 42  2  0
 42 43  1  0
 43 47  1  0
 44 43  2  0
 45 44  1  0
 46 45  1  0
 48 49  1  0
 49 52  1  0
 49 51  1  0
 50 48  2  0
 53 28  1  0
 53 54  1  0
 55 53  1  0
 56 58  1  0
 56  5  1  0
 57 68  2  0
 58 63  1  0
 59 67  1  0
 59 69  1  0
 60 66  1  0
 60 62  1  0
 61 67  1  0
 62 61  1  0
 63 62  2  0
 64 65  1  0
 64 58  2  0
 65 60  2  0
 66 59  1  0
 67 57  1  0
 69 71  2  0
 70 69  1  0
 72 70  1  0
 73 82  2  0
 73 78  1  0
 74 70  1  0
 74 78  1  0
 75 74  1  0
 76 77  1  0
 76 75  1  0
 77 73  1  0
 78 79  2  0
 79 80  1  0
 81 80  2  0
 82 81  1  0
 83 57  1  0
 83 88  1  0
 83 84  1  0
 84 87  1  1
 84 85  1  0
 86 84  1  0
 88 91  1  0
 89 93  1  0
 89 88  1  0
 90 89  2  0
 93 92  1  0
 95 93  1  0
 95 96  1  0
 95 94  1  0
M  ISO  4   5 101  19 100  20 100  56 101
M  END
>  <TORSDO>  (14) 
F 26

>  <SCORE>  (14) 
-5.083

>  <name>  (14) 
13

>  <ligand_id>  (14) 
13

>  <original_smiles>  (14) 
[H]c1c([H])c([H])c2c(c1[H])C([H])([H])C([H])([H])C([H])([H])C2([H])N([H])C(=O)C1([H])N(C(=O)C([H])(N([H])C(=O)C([H])(N([H])C([H])([H])[H])C([H])([H])[H])C(C([H])([H])[H])(C([H])([H])[H])C([H])([H])[H])C([H])([H])c2c([H])c(Oc3c([H])c(C([H])([H])C([H])([H])C([H])([H])C([H])([H])C(=O)N4C([H])([H])C([H])([H])C([H])([H])C([H])(n5nc(-c6c([H])c([H])c(Oc7c([H])c([H])c(F)c([H])c7F)c([H])c6[H])c(C(=O)N([H])[H])c5N([H])[H])C4([H])[H])c(C([H])([H])C([H])([H])C([H])([H])C([H])([H])C([H])([H])C([H])([H])[H])c(C([H])([H])[H])c3OC([H])([H])[H])c([H])c([H])c2C1([H])[H]

>  <smiles>  (14) 
[H]c1c([H])c([H])c2c(c1[H])C([H])([H])C([H])([H])C([H])([H])C2([H])N([H])C(=O)C1([H])N(C(=O)C([H])(N([H])C(=O)C([H])(N([H])C([H])([H])[H])C([H])([H])[H])C(C([H])([H])[H])(C([H])([H])[H])C([H])([H])[H])C([H])([H])c2c([H])c(Oc3c([H])c(C([H])([H])C([H])([H])C([H])([H])C([H])([H])C(=O)N4C([H])([H])C([H])([H])C([H])([H])C([H])(n5nc(-c6c([H])c([H])c(Oc7c([H])c([H])c(F)c([H])c7F)c([H])c6[H])c(C(=O)N([H])[H])c5N([H])[H])C4([H])[H])c(C([H])([H])C([H])([H])C([H])([H])C([H])([H])C([H])([H])C([H])([H])[H])c(C([H])([H])[H])c3OC([H])([H])[H])c([H])c([H])c2C1([H])[H]

$$$$
14:0:0
     RDKit          3D

 90 99  0  0  1  0  0  0  0  0999 V2000
  -30.2170  -16.1520   20.1370 C   0  0  0  0  0  0  0  0  0  0  0  0
  -30.3590  -13.4800   19.4300 C   0  0  0  0  0  2  0  0  0  0  0  0
  -29.5320  -12.8460   18.2640 C   0  0  0  0  0  2  0  0  0  0  0  0
  -28.1370  -12.4290   18.7370 C   0  0  0  0  0  2  0  0  0  0  0  0
  -27.5680  -13.4780   19.7130 C   0  0  0  0  0  3  0  0  0  0  0  0
  -28.5660  -14.0100   20.7860 C   0  0  0  0  0  2  0  0  0  0  0  0
  -29.6690  -14.7360   20.0700 N   0  0  0  0  0  0  0  0  0  0  0  0
  -31.4500  -15.9210   20.0350 O   0  0  0  0  0  0  0  0  0  0  0  0
  -30.5670  -21.4990   18.2850 C   0  0  0  0  0  3  0  0  0  0  0  0
  -29.8310  -20.8610   19.2960 C   0  0  0  0  0  0  0  0  0  0  0  0
  -28.8470  -21.8530   19.9050 C   0  0  0  0  0  0  0  0  0  0  0  0
  -30.3680  -22.8310   17.8360 C   0  0  0  0  0  0  0  0  0  0  0  0
  -29.4530  -23.7800   18.4160 C   0  0  0  0  0  0  0  0  0  0  0  0
  -28.6620  -23.5610   19.5950 C   0  0  0  0  0  0  0  0  0  0  0  0
  -28.2110  -20.5160   20.7210 C   0  0  0  0  0  2  0  0  0  0  0  0
  -30.3470  -19.1700   19.6130 C   0  0  0  0  0  2  0  0  0  0  0  0
  -28.3750  -18.7050   20.3880 C   0  0  0  0  0  3  0  0  0  0  0  0
  -31.2590  -23.2220   16.6560 C   0  0  0  0  0  1  0  0  0  0  0  0
  -29.3230  -25.1430   17.7310 C   0  0  0  0  0  1  0  0  0  0  0  0
  -27.3410  -18.3760   19.2910 C   0  0  0  0  0  1  0  0  0  0  0  0
  -29.6540  -17.7270   20.0520 N   0  0  0  0  0  0  0  0  0  0  0  0
  -25.2180  -13.9980   20.4830 C   0  0  0  0  0  0  0  0  0  0  0  0
  -24.1530  -13.2250   20.8460 C   0  0  0  0  0  0  0  0  0  0  0  0
  -24.6190  -11.8730   20.8260 C   0  0  0  0  0  0  0  0  0  0  0  0
  -26.2600  -13.1270   20.2460 N   0  0  0  0  0  0  0  0  0  0  0  0
  -25.9160  -11.8380   20.5180 N   0  0  0  0  0  0  0  0  0  0  0  0
  -23.8740  -10.6190   21.0190 C   0  0  0  0  0  0  0  0  0  0  0  0
  -24.3070   -9.6380   21.9390 C   0  0  0  0  0  3  0  0  0  0  0  0
  -23.5600   -8.4540   22.1290 C   0  0  0  0  0  3  0  0  0  0  0  0
  -22.3660   -8.2410   21.3990 C   0  0  0  0  0  0  0  0  0  0  0  0
  -21.9510   -9.2100   20.4690 C   0  0  0  0  0  3  0  0  0  0  0  0
  -22.6960  -10.3840   20.2770 C   0  0  0  0  0  3  0  0  0  0  0  0
  -21.5950   -7.1070   21.4980 O   0  0  0  0  0  0  0  0  0  0  0  0
  -21.5980   -6.3290   22.6280 C   0  0  0  0  0  0  0  0  0  0  0  0
  -21.2270   -6.8410   23.8890 C   0  0  0  0  0  3  0  0  0  0  0  0
  -21.1800   -5.9870   25.0090 C   0  0  0  0  0  3  0  0  0  0  0  0
  -21.4920   -4.6220   24.8700 C   0  0  0  0  0  0  0  0  0  0  0  0
  -21.8580   -4.1080   23.6130 C   0  0  0  0  0  3  0  0  0  0  0  0
  -21.9080   -4.9590   22.4950 C   0  0  0  0  0  0  0  0  0  0  0  0
  -22.2410   -4.4540   21.2820 F   0  0  0  0  0  0  0  0  0  0  0  0
  -21.4400   -3.8010   25.9450 F   0  0  0  0  0  0  0  0  0  0  0  0
  -22.7570  -13.7170   21.0920 C   0  0  0  0  0  0  0  0  0  0  0  0
  -22.0170  -13.0480   21.9650 N   0  0  0  0  0  0  0  0  0  0  0  0
  -22.3350  -14.7330   20.5390 O   0  0  0  0  0  0  0  0  0  0  0  0
  -22.3750  -12.2300   22.4340 H   0  0  0  0  0  0  0  0  0  0  0  0
  -21.0780  -13.3590   22.1670 H   0  0  0  0  0  0  0  0  0  0  0  0
  -25.3850  -15.3660   20.3000 N   0  0  0  0  0  0  0  0  0  0  0  0
  -24.6160  -16.0180   20.4100 H   0  0  0  0  0  0  0  0  0  0  0  0
  -26.2360  -15.8030   19.9790 H   0  0  0  0  0  0  0  0  0  0  0  0
  -28.2480  -25.1460   20.1430 O   0  0  0  0  0  0  0  0  0  0  0  0
  -24.6820  -31.7360   22.9770 C   0  0  0  0  0  0  0  0  0  0  0  0
  -27.3520  -26.5070   19.9520 C   0  0  0  0  0  0  0  0  0  0  0  0
  -23.5470  -30.3070   21.3320 C   0  0  0  0  0  3  0  0  0  0  0  0
  -25.0460  -28.6540   19.9150 C   0  0  0  0  0  0  0  0  0  0  0  0
  -26.1390  -30.4350   21.2510 C   0  0  0  0  0  2  0  0  0  0  0  0
  -26.2380  -28.9830   20.5720 C   0  0  0  0  0  0  0  0  0  0  0  0
  -27.3500  -27.9420   20.5610 C   0  0  0  0  0  3  0  0  0  0  0  0
  -26.1140  -26.4620   19.2350 C   0  0  0  0  0  3  0  0  0  0  0  0
  -25.0390  -27.4210   19.2280 C   0  0  0  0  0  3  0  0  0  0  0  0
  -23.8220  -29.6050   19.9660 C   0  0  0  0  0  2  0  0  0  0  0  0
  -24.8160  -30.8680   21.9050 N   0  0  0  0  0  0  0  0  0  0  0  0
  -23.5720  -32.0170   23.4660 O   0  0  0  0  0  0  0  0  0  0  0  0
  -22.8280  -29.3270   22.3040 C   0  0  0  0  0  0  0  0  0  0  0  0
  -21.4910  -29.1860   22.2020 N   0  0  0  0  0  0  0  0  0  0  0  0
  -23.4910  -28.6930   23.1270 O   0  0  0  0  0  0  0  0  0  0  0  0
  -21.0120  -29.7570   21.5210 H   0  0  0  0  0  0  0  0  0  0  0  0
  -18.0960  -27.9960   22.8080 C   0  0  0  0  0  0  0  0  0  0  0  0
  -20.6730  -28.2310   22.9660 C   0  0  0  0  0  3  0  0  0  0  0  0
  -20.7270  -26.8220   22.3310 C   0  0  0  0  0  2  0  0  0  0  0  0
  -19.5810  -26.5530   21.3510 C   0  0  0  0  0  2  0  0  0  0  0  0
  -18.2280  -26.6810   22.0590 C   0  0  0  0  0  2  0  0  0  0  0  0
  -19.2430  -28.7310   23.2170 C   0  0  0  0  0  0  0  0  0  0  0  0
  -19.0580  -29.9570   23.8930 C   0  0  0  0  0  3  0  0  0  0  0  0
  -17.7650  -30.4530   24.1460 C   0  0  0  0  0  3  0  0  0  0  0  0
  -16.6360  -29.7180   23.7420 C   0  0  0  0  0  3  0  0  0  0  0  0
  -16.8040  -28.4890   23.0830 C   0  0  0  0  0  3  0  0  0  0  0  0
  -25.9060  -32.4320   23.6470 C   0  0  0  0  0  3  0  0  0  0  0  0
  -25.5170  -33.8110   24.0250 N   0  0  0  0  0  0  0  0  0  0  0  0
  -25.8470  -34.9250   23.3530 C   0  0  0  0  0  0  0  0  0  0  0  0
  -26.5580  -34.9000   22.3450 O   0  0  0  0  0  0  0  0  0  0  0  0
  -24.8840  -33.8960   24.8070 H   0  0  0  0  0  0  0  0  0  0  0  0
  -24.1080  -36.7240   23.0230 C   0  0  0  0  0  1  0  0  0  0  0  0
  -25.3090  -36.2770   23.8770 C   0  0  0  0  0  3  0  0  0  0  0  0
  -27.3710  -37.1460   24.8960 C   0  0  0  0  0  1  0  0  0  0  0  0
  -26.3270  -37.3530   23.8960 N   0  0  0  0  0  0  0  0  0  0  0  0
  -25.8970  -38.2580   24.0630 H   0  0  0  0  0  0  0  0  0  0  0  0
  -26.4240  -31.6660   24.9300 C   0  0  1  0  0  0  0  0  0  0  0  0
  -25.3190  -31.3810   25.9770 C   0  0  0  0  0  1  0  0  0  0  0  0
  -27.0590  -30.3130   24.5470 C   0  0  0  0  0  1  0  0  0  0  0  0
  -27.5380  -32.4910   25.6130 C   0  0  0  0  0  1  0  0  0  0  0  0
  2  7  1  0
  3  4  1  0
  3  2  1  0
  5  4  1  0
  5 25  1  0
  5  6  1  0
  7  1  1  0
  7  6  1  0
  8  1  2  0
  9 10  1  0
 10 16  1  0
 10 11  2  0
 11 15  1  0
 12  9  2  0
 12 13  1  0
 13 14  2  0
 14 11  1  0
 14 50  1  0
 16 21  1  0
 17 20  1  0
 17 15  1  0
 18 12  1  0
 19 13  1  0
 21  1  1  0
 21 17  1  0
 22 23  2  0
 23 42  1  0
 24 23  1  0
 24 27  1  0
 25 22  1  0
 25 26  1  0
 26 24  2  0
 27 28  1  0
 28 29  2  0
 30 33  1  0
 30 29  1  0
 31 30  2  0
 32 31  1  0
 32 27  2  0
 33 34  1  0
 34 35  1  0
 35 36  2  0
 37 36  1  0
 37 41  1  0
 38 37  2  0
 39 34  2  0
 39 38  1  0
 40 39  1  0
 42 43  1  0
 43 46  1  0
 43 45  1  0
 44 42  2  0
 47 48  1  0
 47 22  1  0
 49 47  1  0
 51 62  2  0
 52 50  1  0
 52 57  1  0
 53 61  1  0
 53 63  1  0
 54 60  1  0
 54 56  1  0
 55 61  1  0
 56 55  1  0
 57 56  2  0
 58 52  2  0
 59 58  1  0
 59 54  2  0
 60 53  1  0
 61 51  1  0
 63 65  2  0
 64 63  1  0
 66 64  1  0
 67 76  2  0
 67 72  1  0
 68 64  1  0
 68 72  1  0
 69 68  1  0
 70 71  1  0
 70 69  1  0
 71 67  1  0
 72 73  2  0
 73 74  1  0
 75 74  2  0
 76 75  1  0
 77 51  1  0
 77 78  1  0
 77 87  1  0
 78 81  1  0
 79 83  1  0
 79 78  1  0
 80 79  2  0
 83 82  1  0
 83 85  1  0
 85 86  1  0
 85 84  1  0
 87 90  1  1
 87 88  1  0
 89 87  1  0
M  ISO  4   1 100  14 101  21 100  50 101
M  END
>  <TORSDO>  (15) 
F 15

>  <SCORE>  (15) 
-16.521

>  <name>  (15) 
14

>  <ligand_id>  (15) 
14

>  <original_smiles>  (15) 
[H]c1c([H])c([H])c2c(c1[H])C([H])([H])C([H])([H])C([H])([H])C2([H])N([H])C(=O)C1([H])N(C(=O)C([H])(N([H])C(=O)C([H])(N([H])C([H])([H])[H])C([H])([H])[H])C(C([H])([H])[H])(C([H])([H])[H])C([H])([H])[H])C([H])([H])c2c([H])c(Oc3c(C([H])([H])[H])c(C([H])([H])[H])c([H])c4c3C([H])([H])C([H])(C([H])([H])[H])N(C(=O)N3C([H])([H])C([H])([H])C([H])([H])C([H])(n5nc(-c6c([H])c([H])c(Oc7c([H])c([H])c(F)c([H])c7F)c([H])c6[H])c(C(=O)N([H])[H])c5N([H])[H])C3([H])[H])C4([H])[H])c([H])c([H])c2C1([H])[H]

>  <smiles>  (15) 
[H]c1c([H])c([H])c2c(c1[H])C([H])([H])C([H])([H])C([H])([H])C2([H])N([H])C(=O)C1([H])N(C(=O)C([H])(N([H])C(=O)C([H])(N([H])C([H])([H])[H])C([H])([H])[H])C(C([H])([H])[H])(C([H])([H])[H])C([H])([H])[H])C([H])([H])c2c([H])c(Oc3c(C([H])([H])[H])c(C([H])([H])[H])c([H])c4c3C([H])([H])C([H])(C([H])([H])[H])N(C(=O)N3C([H])([H])C([H])([H])C([H])([H])C([H])(n5nc(-c6c([H])c([H])c(Oc7c([H])c([H])c(F)c([H])c7F)c([H])c6[H])c(C(=O)N([H])[H])c5N([H])[H])C3([H])[H])C4([H])[H])c([H])c([H])c2C1([H])[H]

$$$$
15:0:0
     RDKit          3D

 94103  0  0  1  0  0  0  0  0999 V2000
  -27.3210  -22.3060   21.6870 C   0  0  0  0  0  3  0  0  0  0  0  0
  -26.6910  -23.4630   22.1640 C   0  0  0  0  0  3  0  0  0  0  0  0
  -28.9480  -23.6930   20.5340 C   0  0  0  0  0  3  0  0  0  0  0  0
  -28.4630  -22.4020   20.8700 C   0  0  0  0  0  0  0  0  0  0  0  0
  -27.1620  -24.7510   21.8260 C   0  0  0  0  0  0  0  0  0  0  0  0
  -28.3230  -24.8790   21.0080 C   0  0  0  0  0  0  0  0  0  0  0  0
  -24.8800  -25.8450   22.1170 C   0  0  0  0  0  1  0  0  0  0  0  0
  -26.3900  -25.9380   22.3950 C   0  0  0  0  0  2  0  0  0  0  0  0
  -29.1750  -21.1390   20.3630 C   0  0  0  0  0  3  0  0  0  0  0  0
  -28.8980  -19.8400   21.1730 C   0  0  0  0  0  3  0  0  0  0  0  0
  -31.0390  -14.6600   19.7350 C   0  0  0  0  0  0  0  0  0  0  0  0
  -30.6270  -12.4590   18.7180 C   0  0  0  0  0  2  0  0  0  0  0  0
  -29.5650  -12.6090   17.6110 C   0  0  0  0  0  2  0  0  0  0  0  0
  -28.1490  -12.4640   18.2020 C   0  0  0  0  0  2  0  0  0  0  0  0
  -27.9300  -13.3480   19.4610 C   0  0  0  0  0  3  0  0  0  0  0  0
  -29.1020  -13.2090   20.4580 C   0  0  0  0  0  2  0  0  0  0  0  0
  -30.3500  -13.4880   19.7310 N   0  0  0  0  0  0  0  0  0  0  0  0
  -32.1270  -14.7870   19.1620 O   0  0  0  0  0  0  0  0  0  0  0  0
  -29.3470  -17.9960   19.4360 C   0  0  0  0  0  2  0  0  0  0  0  0
  -29.6970  -17.4870   21.8290 C   0  0  0  0  0  2  0  0  0  0  0  0
  -30.2770  -16.8250   19.0700 C   0  0  0  0  0  2  0  0  0  0  0  0
  -30.6060  -16.2940   21.4520 C   0  0  0  0  0  2  0  0  0  0  0  0
  -29.7560  -18.6130   20.7790 C   0  0  0  0  0  3  0  0  0  0  0  0
  -30.3450  -15.7660   20.1010 N   0  0  0  0  0  0  0  0  0  0  0  0
  -25.6670  -13.9430   20.5300 C   0  0  0  0  0  0  0  0  0  0  0  0
  -24.6330  -13.1650   20.9740 C   0  0  0  0  0  0  0  0  0  0  0  0
  -25.0430  -11.8110   20.7770 C   0  0  0  0  0  0  0  0  0  0  0  0
  -26.6460  -13.0630   20.0950 N   0  0  0  0  0  0  0  0  0  0  0  0
  -26.2810  -11.7700   20.3000 N   0  0  0  0  0  0  0  0  0  0  0  0
  -24.3100  -10.5520   20.9620 C   0  0  0  0  0  0  0  0  0  0  0  0
  -24.7550   -9.5620   21.8670 C   0  0  0  0  0  3  0  0  0  0  0  0
  -24.0220   -8.3690   22.0400 C   0  0  0  0  0  3  0  0  0  0  0  0
  -22.8290   -8.1560   21.3090 C   0  0  0  0  0  0  0  0  0  0  0  0
  -22.4030   -9.1340   20.3930 C   0  0  0  0  0  3  0  0  0  0  0  0
  -23.1360  -10.3190   20.2180 C   0  0  0  0  0  3  0  0  0  0  0  0
  -22.0660   -7.0170   21.3940 O   0  0  0  0  0  0  0  0  0  0  0  0
  -21.9350   -6.3250   22.5710 C   0  0  0  0  0  0  0  0  0  0  0  0
  -21.4260   -6.9320   23.7400 C   0  0  0  0  0  3  0  0  0  0  0  0
  -21.2420   -6.1660   24.9080 C   0  0  0  0  0  3  0  0  0  0  0  0
  -21.5550   -4.7930   24.9090 C   0  0  0  0  0  0  0  0  0  0  0  0
  -22.0560   -4.1860   23.7430 C   0  0  0  0  0  3  0  0  0  0  0  0
  -22.2410   -4.9490   22.5770 C   0  0  0  0  0  0  0  0  0  0  0  0
  -22.7040   -4.3540   21.4520 F   0  0  0  0  0  0  0  0  0  0  0  0
  -21.3710   -4.0560   26.0280 F   0  0  0  0  0  0  0  0  0  0  0  0
  -23.2990  -13.6460   21.4670 C   0  0  0  0  0  0  0  0  0  0  0  0
  -22.6880  -12.9150   22.3940 N   0  0  0  0  0  0  0  0  0  0  0  0
  -22.8120  -14.7030   21.0660 O   0  0  0  0  0  0  0  0  0  0  0  0
  -23.0970  -12.0590   22.7360 H   0  0  0  0  0  0  0  0  0  0  0  0
  -21.7990  -13.2170   22.7660 H   0  0  0  0  0  0  0  0  0  0  0  0
  -25.8540  -15.3190   20.4410 N   0  0  0  0  0  0  0  0  0  0  0  0
  -25.1410  -15.9860   20.7110 H   0  0  0  0  0  0  0  0  0  0  0  0
  -26.6900  -15.7570   20.0750 H   0  0  0  0  0  0  0  0  0  0  0  0
  -28.9910  -26.2360   20.7080 C   0  0  0  0  0  2  0  0  0  0  0  0
  -28.5680  -26.8930   19.5030 O   0  0  0  0  0  0  0  0  0  0  0  0
  -24.8750  -31.7040   23.2520 C   0  0  0  0  0  0  0  0  0  0  0  0
  -27.4360  -27.6600   19.6210 C   0  0  0  0  0  0  0  0  0  0  0  0
  -23.6260  -30.4980   21.4890 C   0  0  0  0  0  3  0  0  0  0  0  0
  -25.0460  -29.1420   19.8560 C   0  0  0  0  0  0  0  0  0  0  0  0
  -26.1440  -30.8910   21.2680 C   0  0  0  0  0  2  0  0  0  0  0  0
  -26.2150  -29.6020   20.4750 C   0  0  0  0  0  0  0  0  0  0  0  0
  -27.4160  -28.8650   20.3600 C   0  0  0  0  0  3  0  0  0  0  0  0
  -26.2620  -27.2250   18.9790 C   0  0  0  0  0  3  0  0  0  0  0  0
  -25.0640  -27.9540   19.1030 C   0  0  0  0  0  3  0  0  0  0  0  0
  -23.7980  -29.9790   20.0370 C   0  0  0  0  0  2  0  0  0  0  0  0
  -24.9010  -31.0400   22.0610 N   0  0  0  0  0  0  0  0  0  0  0  0
  -23.8090  -31.9070   23.8500 O   0  0  0  0  0  0  0  0  0  0  0  0
  -23.0020  -29.3760   22.3500 C   0  0  0  0  0  0  0  0  0  0  0  0
  -21.6900  -29.1480   22.1820 N   0  0  0  0  0  0  0  0  0  0  0  0
  -23.6970  -28.7260   23.1330 O   0  0  0  0  0  0  0  0  0  0  0  0
  -21.1890  -29.7310   21.5280 H   0  0  0  0  0  0  0  0  0  0  0  0
  -18.3680  -27.7660   22.5020 C   0  0  0  0  0  0  0  0  0  0  0  0
  -20.9040  -28.1150   22.8580 C   0  0  0  0  0  3  0  0  0  0  0  0
  -21.0860  -26.7430   22.1670 C   0  0  0  0  0  2  0  0  0  0  0  0
  -20.0220  -26.4570   21.1050 C   0  0  0  0  0  2  0  0  0  0  0  0
  -18.6200  -26.4860   21.7240 C   0  0  0  0  0  2  0  0  0  0  0  0
  -19.4400  -28.5390   23.0210 C   0  0  0  0  0  0  0  0  0  0  0  0
  -19.1500  -29.7380   23.7060 C   0  0  0  0  0  3  0  0  0  0  0  0
  -17.8210  -30.1680   23.8770 C   0  0  0  0  0  3  0  0  0  0  0  0
  -16.7620  -29.3910   23.3750 C   0  0  0  0  0  3  0  0  0  0  0  0
  -17.0360  -28.1920   22.6940 C   0  0  0  0  0  3  0  0  0  0  0  0
  -26.1770  -32.2630   23.9060 C   0  0  0  0  0  3  0  0  0  0  0  0
  -26.7060  -31.3750   25.0980 C   0  0  1  0  0  0  0  0  0  0  0  0
  -25.6270  -31.0480   26.1570 C   0  0  0  0  0  1  0  0  0  0  0  0
  -27.2720  -30.0360   24.5710 C   0  0  0  0  0  1  0  0  0  0  0  0
  -27.8710  -32.0990   25.8120 C   0  0  0  0  0  1  0  0  0  0  0  0
  -25.8900  -33.6290   24.3610 N   0  0  0  0  0  0  0  0  0  0  0  0
  -26.2390  -34.7410   23.6990 C   0  0  0  0  0  0  0  0  0  0  0  0
  -26.9080  -34.7200   22.6630 O   0  0  0  0  0  0  0  0  0  0  0  0
  -25.2980  -33.7200   25.1740 H   0  0  0  0  0  0  0  0  0  0  0  0
  -24.5430  -36.5860   23.4960 C   0  0  0  0  0  1  0  0  0  0  0  0
  -25.7680  -36.0880   24.2780 C   0  0  0  0  0  3  0  0  0  0  0  0
  -27.9100  -36.8550   25.2020 C   0  0  0  0  0  1  0  0  0  0  0  0
  -26.8190  -37.1300   24.2710 N   0  0  0  0  0  0  0  0  0  0  0  0
  -26.4270  -38.0390   24.5000 H   0  0  0  0  0  0  0  0  0  0  0  0
  1  2  1  0
  3  4  1  0
  3  6  2  0
  4  1  2  0
  5  2  2  0
  5  8  1  0
  6  5  1  0
  7  8  1  0
  9  4  1  0
  9 10  2  0
 11 24  1  0
 12 17  1  0
 13 14  1  0
 13 12  1  0
 15 14  1  0
 15 28  1  0
 15 16  1  0
 17 11  1  0
 17 16  1  0
 18 11  2  0
 19 23  1  0
 21 19  1  0
 21 24  1  0
 22 20  1  0
 23 10  1  0
 23 20  1  0
 24 22  1  0
 25 26  2  0
 26 45  1  0
 27 30  1  0
 27 26  1  0
 28 29  1  0
 28 25  1  0
 29 27  2  0
 30 31  1  0
 31 32  2  0
 33 36  1  0
 33 32  1  0
 34 33  2  0
 35 34  1  0
 35 30  2  0
 36 37  1  0
 37 42  2  0
 37 38  1  0
 38 39  2  0
 39 40  1  0
 40 44  1  0
 41 40  2  0
 42 41  1  0
 43 42  1  0
 45 46  1  0
 46 48  1  0
 46 49  1  0
 47 45  2  0
 50 25  1  0
 50 51  1  0
 52 50  1  0
 53  6  1  0
 54 56  1  0
 54 53  1  0
 55 66  2  0
 56 61  1  0
 57 65  1  0
 57 67  1  0
 58 64  1  0
 58 60  1  0
 59 65  1  0
 60 59  1  0
 61 60  2  0
 62 63  1  0
 62 56  2  0
 63 58  2  0
 64 57  1  0
 65 55  1  0
 67 69  2  0
 68 67  1  0
 70 68  1  0
 71 80  2  0
 71 76  1  0
 72 68  1  0
 72 76  1  0
 73 72  1  0
 74 75  1  0
 74 73  1  0
 75 71  1  0
 76 77  2  0
 77 78  1  0
 79 78  2  0
 80 79  1  0
 81 55  1  0
 81 86  1  0
 81 82  1  0
 82 85  1  1
 82 83  1  0
 84 82  1  0
 86 89  1  0
 87 91  1  0
 87 86  1  0
 88 87  2  0
 91 90  1  0
 93 91  1  0
 93 94  1  0
 93 92  1  0
M  ISO  4  11 100  24 100  53 101  54 101
M  END
>  <TORSDO>  (16) 
F 20

>  <SCORE>  (16) 
-11.559

>  <name>  (16) 
15

>  <ligand_id>  (16) 
15

>  <original_smiles>  (16) 
[H]c1c([H])c([H])c2c(c1[H])C([H])([H])C([H])([H])C([H])([H])C2([H])N([H])C(=O)C1([H])N(C(=O)C([H])(N([H])C(=O)C([H])(N([H])C([H])([H])[H])C([H])([H])[H])C(C([H])([H])[H])(C([H])([H])[H])C([H])([H])[H])C([H])([H])c2c([H])c(OC([H])([H])c3c([H])c(C([H])([H])C([H])([H])C4([H])C([H])([H])C([H])([H])N(C(=O)N5C([H])([H])C([H])([H])C([H])([H])C([H])(n6nc(-c7c([H])c([H])c(Oc8c([H])c([H])c(F)c([H])c8F)c([H])c7[H])c(C(=O)N([H])[H])c6N([H])[H])C5([H])[H])C([H])([H])C4([H])[H])c([H])c([H])c3C([H])([H])C([H])([H])[H])c([H])c([H])c2C1([H])[H]

>  <smiles>  (16) 
[H]c1c([H])c([H])c2c(c1[H])C([H])([H])C([H])([H])C([H])([H])C2([H])N([H])C(=O)C1([H])N(C(=O)C([H])(N([H])C(=O)C([H])(N([H])C([H])([H])[H])C([H])([H])[H])C(C([H])([H])[H])(C([H])([H])[H])C([H])([H])[H])C([H])([H])c2c([H])c(OC([H])([H])c3c([H])c(C([H])([H])C([H])([H])C4([H])C([H])([H])C([H])([H])N(C(=O)N5C([H])([H])C([H])([H])C([H])([H])C([H])(n6nc(-c7c([H])c([H])c(Oc8c([H])c([H])c(F)c([H])c8F)c([H])c7[H])c(C(=O)N([H])[H])c6N([H])[H])C5([H])[H])C([H])([H])C4([H])[H])c([H])c([H])c3C([H])([H])C([H])([H])[H])c([H])c([H])c2C1([H])[H]

$$$$
16:0:0
     RDKit          3D

 91100  0  0  1  0  0  0  0  0999 V2000
  -29.7330  -21.9640   21.5330 C   0  0  0  0  0  3  0  0  0  0  0  0
  -28.5670  -23.3270   19.3330 C   0  0  0  0  0  3  0  0  0  0  0  0
  -29.2650  -23.2980   21.6430 C   0  0  0  0  0  0  0  0  0  0  0  0
  -28.7000  -23.9910   20.5700 C   0  0  0  0  0  0  0  0  0  0  0  0
  -29.6280  -21.2810   20.2920 C   0  0  0  0  0  0  0  0  0  0  0  0
  -29.0350  -21.9870   19.2010 C   0  0  0  0  0  0  0  0  0  0  0  0
  -29.2610  -24.1460   22.8900 C   0  0  0  0  0  2  0  0  0  0  0  0
  -28.8030  -25.5440   22.4010 C   0  0  0  0  0  2  0  0  0  0  0  0
  -28.1440  -25.3590   21.0150 C   0  0  0  0  0  3  0  0  0  0  0  0
  -28.9230  -21.3770   17.9970 F   0  0  0  0  0  0  0  0  0  0  0  0
  -28.3480  -26.5540   20.1980 O   0  0  0  0  0  0  0  0  0  0  0  0
  -24.6050  -31.8930   23.2160 C   0  0  0  0  0  0  0  0  0  0  0  0
  -27.2420  -27.3950   20.1620 C   0  0  0  0  0  0  0  0  0  0  0  0
  -23.4040  -30.4870   21.5760 C   0  0  0  0  0  3  0  0  0  0  0  0
  -24.8630  -28.9490   20.1500 C   0  0  0  0  0  0  0  0  0  0  0  0
  -25.9360  -30.8350   21.3860 C   0  0  0  0  0  2  0  0  0  0  0  0
  -26.0260  -29.4600   20.7440 C   0  0  0  0  0  0  0  0  0  0  0  0
  -27.2230  -28.6930   20.7430 C   0  0  0  0  0  3  0  0  0  0  0  0
  -26.0660  -26.9240   19.5440 C   0  0  0  0  0  3  0  0  0  0  0  0
  -24.8820  -27.6830   19.5410 C   0  0  0  0  0  3  0  0  0  0  0  0
  -23.6190  -29.8100   20.1970 C   0  0  0  0  0  2  0  0  0  0  0  0
  -24.6660  -31.0880   22.1170 N   0  0  0  0  0  0  0  0  0  0  0  0
  -23.5210  -32.1670   23.7530 O   0  0  0  0  0  0  0  0  0  0  0  0
  -22.7490  -29.4680   22.5370 C   0  0  0  0  0  0  0  0  0  0  0  0
  -21.4250  -29.2830   22.4070 N   0  0  0  0  0  0  0  0  0  0  0  0
  -23.4300  -28.8480   23.3590 O   0  0  0  0  0  0  0  0  0  0  0  0
  -20.9360  -29.8350   21.7160 H   0  0  0  0  0  0  0  0  0  0  0  0
  -18.0540  -28.0690   22.8910 C   0  0  0  0  0  0  0  0  0  0  0  0
  -20.6090  -28.3440   23.1770 C   0  0  0  0  0  3  0  0  0  0  0  0
  -20.7230  -26.9110   22.6090 C   0  0  0  0  0  2  0  0  0  0  0  0
  -19.6290  -26.5750   21.5910 C   0  0  0  0  0  2  0  0  0  0  0  0
  -18.2420  -26.7170   22.2250 C   0  0  0  0  0  2  0  0  0  0  0  0
  -19.1650  -28.8400   23.3240 C   0  0  0  0  0  0  0  0  0  0  0  0
  -18.9350  -30.1050   23.9060 C   0  0  0  0  0  3  0  0  0  0  0  0
  -17.6270  -30.6000   24.0600 C   0  0  0  0  0  3  0  0  0  0  0  0
  -16.5290  -29.8270   23.6440 C   0  0  0  0  0  3  0  0  0  0  0  0
  -16.7440  -28.5620   23.0650 C   0  0  0  0  0  3  0  0  0  0  0  0
  -25.8880  -32.5290   23.8360 C   0  0  0  0  0  3  0  0  0  0  0  0
  -26.4060  -31.7600   25.1130 C   0  0  1  0  0  0  0  0  0  0  0  0
  -25.3140  -31.5210   26.1810 C   0  0  0  0  0  1  0  0  0  0  0  0
  -26.9910  -30.3820   24.7210 C   0  0  0  0  0  1  0  0  0  0  0  0
  -27.5560  -32.5560   25.7740 C   0  0  0  0  0  1  0  0  0  0  0  0
  -25.5760  -33.9270   24.1640 N   0  0  0  0  0  0  0  0  0  0  0  0
  -25.9090  -34.9780   23.4050 C   0  0  0  0  0  0  0  0  0  0  0  0
  -26.5820  -34.8740   22.3750 O   0  0  0  0  0  0  0  0  0  0  0  0
  -24.9790  -34.0810   24.9630 H   0  0  0  0  0  0  0  0  0  0  0  0
  -24.1820  -36.7700   23.0400 C   0  0  0  0  0  1  0  0  0  0  0  0
  -25.4180  -36.3660   23.8580 C   0  0  0  0  0  3  0  0  0  0  0  0
  -27.5500  -37.2510   24.6980 C   0  0  0  0  0  1  0  0  0  0  0  0
  -26.4500  -37.4210   23.7510 N   0  0  0  0  0  0  0  0  0  0  0  0
  -26.0430  -38.3400   23.9020 H   0  0  0  0  0  0  0  0  0  0  0  0
  -30.2770  -19.8790   20.0890 C   0  0  0  0  0  2  0  0  0  0  0  0
  -29.6420  -18.5960   20.7430 C   0  0  0  0  0  2  0  0  0  0  0  0
  -30.4190  -17.2600   20.4080 C   0  0  0  0  0  3  0  0  0  0  0  0
  -29.8870  -15.8890   20.9890 C   0  0  0  0  0  3  0  0  0  0  0  0
  -30.6210  -14.5970   20.4730 C   0  0  0  0  0  0  0  0  0  0  0  0
  -30.3630  -12.3930   19.3610 C   0  0  0  0  0  2  0  0  0  0  0  0
  -29.4390  -12.5690   18.1370 C   0  0  0  0  0  2  0  0  0  0  0  0
  -27.9590  -12.4250   18.5460 C   0  0  0  0  0  2  0  0  0  0  0  0
  -27.6000  -13.2790   19.7900 C   0  0  0  0  0  3  0  0  0  0  0  0
  -28.6430  -13.1000   20.9170 C   0  0  0  0  0  2  0  0  0  0  0  0
  -29.9700  -13.4010   20.3640 N   0  0  0  0  0  0  0  0  0  0  0  0
  -31.7730  -14.7270   20.0480 O   0  0  0  0  0  0  0  0  0  0  0  0
  -25.1960  -13.8940   20.4640 C   0  0  0  0  0  0  0  0  0  0  0  0
  -24.1210  -13.1280   20.8250 C   0  0  0  0  0  0  0  0  0  0  0  0
  -24.5810  -11.7750   20.8180 C   0  0  0  0  0  0  0  0  0  0  0  0
  -26.2420  -13.0090   20.2570 N   0  0  0  0  0  0  0  0  0  0  0  0
  -25.8770  -11.7300   20.5300 N   0  0  0  0  0  0  0  0  0  0  0  0
  -23.8500  -10.5160   21.0130 C   0  0  0  0  0  0  0  0  0  0  0  0
  -24.2700   -9.5560   21.9580 C   0  0  0  0  0  3  0  0  0  0  0  0
  -23.5390   -8.3620   22.1400 C   0  0  0  0  0  3  0  0  0  0  0  0
  -22.3740   -8.1200   21.3740 C   0  0  0  0  0  0  0  0  0  0  0  0
  -21.9730   -9.0680   20.4180 C   0  0  0  0  0  3  0  0  0  0  0  0
  -22.7050  -10.2540   20.2340 C   0  0  0  0  0  3  0  0  0  0  0  0
  -21.6160   -6.9780   21.4630 O   0  0  0  0  0  0  0  0  0  0  0  0
  -21.5570   -6.2410   22.6190 C   0  0  0  0  0  0  0  0  0  0  0  0
  -21.1280   -6.8040   23.8410 C   0  0  0  0  0  3  0  0  0  0  0  0
  -21.0170   -5.9940   24.9900 C   0  0  0  0  0  3  0  0  0  0  0  0
  -21.3240   -4.6230   24.9170 C   0  0  0  0  0  0  0  0  0  0  0  0
  -21.7470   -4.0590   23.7000 C   0  0  0  0  0  3  0  0  0  0  0  0
  -21.8600   -4.8650   22.5540 C   0  0  0  0  0  0  0  0  0  0  0  0
  -22.2470   -4.3130   21.3790 F   0  0  0  0  0  0  0  0  0  0  0  0
  -21.2110   -3.8430   26.0170 F   0  0  0  0  0  0  0  0  0  0  0  0
  -22.7210  -13.6100   21.0700 C   0  0  0  0  0  0  0  0  0  0  0  0
  -21.9770  -12.9240   21.9310 N   0  0  0  0  0  0  0  0  0  0  0  0
  -22.2930  -14.6310   20.5320 O   0  0  0  0  0  0  0  0  0  0  0  0
  -22.3360  -12.0980   22.3880 H   0  0  0  0  0  0  0  0  0  0  0  0
  -21.0380  -13.2300   22.1380 H   0  0  0  0  0  0  0  0  0  0  0  0
  -25.3670  -15.2620   20.2730 N   0  0  0  0  0  0  0  0  0  0  0  0
  -24.6010  -15.9210   20.3670 H   0  0  0  0  0  0  0  0  0  0  0  0
  -26.2280  -15.6970   19.9660 H   0  0  0  0  0  0  0  0  0  0  0  0
  1  3  1  0
  2  4  1  0
  3  7  1  0
  4  9  1  0
  4  3  2  0
  5  1  2  0
  6  2  2  0
  6  5  1  0
  8  7  1  0
  9 11  1  0
  9  8  1  0
 10  6  1  0
 12 23  2  0
 13 11  1  0
 13 18  1  0
 14 22  1  0
 14 24  1  0
 15 21  1  0
 15 17  1  0
 16 22  1  0
 17 16  1  0
 18 17  2  0
 19 13  2  0
 20 19  1  0
 20 15  2  0
 21 14  1  0
 22 12  1  0
 24 26  2  0
 25 24  1  0
 27 25  1  0
 28 37  2  0
 28 33  1  0
 29 25  1  0
 29 33  1  0
 30 29  1  0
 31 32  1  0
 31 30  1  0
 32 28  1  0
 33 34  2  0
 34 35  1  0
 36 35  2  0
 37 36  1  0
 38 12  1  0
 38 43  1  0
 38 39  1  0
 39 42  1  1
 39 40  1  0
 41 39  1  0
 43 46  1  0
 44 48  1  0
 44 43  1  0
 45 44  2  0
 48 47  1  0
 50 48  1  0
 50 51  1  0
 50 49  1  0
 52  5  1  0
 52 53  1  0
 54 53  1  0
 54 55  2  0
 56 55  1  0
 57 62  1  0
 58 59  1  0
 58 57  1  0
 60 59  1  0
 60 67  1  0
 60 61  1  0
 62 56  1  0
 62 61  1  0
 63 56  2  0
 64 65  2  0
 65 84  1  0
 66 65  1  0
 66 69  1  0
 67 64  1  0
 67 68  1  0
 68 66  2  0
 69 70  1  0
 70 71  2  0
 72 75  1  0
 72 71  1  0
 73 72  2  0
 74 73  1  0
 74 69  2  0
 75 76  1  0
 76 77  1  0
 77 78  2  0
 79 78  1  0
 79 83  1  0
 80 79  2  0
 81 76  2  0
 81 80  1  0
 82 81  1  0
 84 85  1  0
 85 88  1  0
 85 87  1  0
 86 84  2  0
 89 90  1  0
 89 64  1  0
 91 89  1  0
M  ISO  4   9 101  11 101  55 100  56 100
M  END
>  <TORSDO>  (17) 
F 20

>  <SCORE>  (17) 
-13.895

>  <name>  (17) 
16

>  <ligand_id>  (17) 
16

>  <original_smiles>  (17) 
[H]c1c([H])c([H])c2c(c1[H])C([H])([H])C([H])([H])C([H])([H])C2([H])N([H])C(=O)C1([H])N(C(=O)C([H])(N([H])C(=O)C([H])(N([H])C([H])([H])[H])C([H])([H])[H])C(C([H])([H])[H])(C([H])([H])[H])C([H])([H])[H])C([H])([H])c2c([H])c(OC3([H])c4c([H])c(F)c(C([H])([H])C([H])([H])C([H])([H])C([H])([H])C(=O)N5C([H])([H])C([H])([H])C([H])([H])C([H])(n6nc(-c7c([H])c([H])c(Oc8c([H])c([H])c(F)c([H])c8F)c([H])c7[H])c(C(=O)N([H])[H])c6N([H])[H])C5([H])[H])c([H])c4C([H])([H])C3([H])[H])c([H])c([H])c2C1([H])[H]

>  <smiles>  (17) 
[H]c1c([H])c([H])c2c(c1[H])C([H])([H])C([H])([H])C([H])([H])C2([H])N([H])C(=O)C1([H])N(C(=O)C([H])(N([H])C(=O)C([H])(N([H])C([H])([H])[H])C([H])([H])[H])C(C([H])([H])[H])(C([H])([H])[H])C([H])([H])[H])C([H])([H])c2c([H])c(OC3([H])c4c([H])c(F)c(C([H])([H])C([H])([H])C([H])([H])C([H])([H])C(=O)N5C([H])([H])C([H])([H])C([H])([H])C([H])(n6nc(-c7c([H])c([H])c(Oc8c([H])c([H])c(F)c([H])c8F)c([H])c7[H])c(C(=O)N([H])[H])c6N([H])[H])C5([H])[H])c([H])c4C([H])([H])C3([H])[H])c([H])c([H])c2C1([H])[H]

$$$$
17:0:0
     RDKit          3D

 90 98  0  0  1  0  0  0  0  0999 V2000
  -30.2020  -17.9350   17.8920 C   0  0  0  0  0  3  0  0  0  0  0  0
  -30.3590  -16.4940   19.9040 C   0  0  0  0  0  0  0  0  0  0  0  0
  -30.4180  -16.6850   18.4880 C   0  0  0  0  0  0  0  0  0  0  0  0
  -30.0240  -19.1230   18.6080 C   0  0  0  0  0  0  0  0  0  0  0  0
  -30.1130  -17.7700   20.6530 C   0  0  0  0  0  0  0  0  0  0  0  0
  -29.9240  -19.1270   20.0240 C   0  0  0  0  0  0  0  0  0  0  0  0
  -30.8430  -15.6250   17.4780 C   0  0  0  0  0  1  0  0  0  0  0  0
  -30.0750  -20.3820   17.7580 C   0  0  0  0  0  1  0  0  0  0  0  0
  -30.1050  -17.6580   22.1730 C   0  0  0  0  0  1  0  0  0  0  0  0
  -30.8800  -15.0670   20.4490 C   0  0  0  0  0  0  0  0  0  0  0  0
  -30.7010  -12.7040   19.5660 C   0  0  0  0  0  2  0  0  0  0  0  0
  -29.7780  -12.5400   18.3350 C   0  0  0  0  0  2  0  0  0  0  0  0
  -28.3110  -12.3810   18.7490 C   0  0  0  0  0  2  0  0  0  0  0  0
  -27.8810  -13.3650   19.8660 C   0  0  0  0  0  3  0  0  0  0  0  0
  -28.9220  -13.4780   20.9940 C   0  0  0  0  0  2  0  0  0  0  0  0
  -30.1990  -13.8530   20.3690 N   0  0  0  0  0  0  0  0  0  0  0  0
  -32.1090  -14.9910   20.4750 O   0  0  0  0  0  0  0  0  0  0  0  0
  -25.4940  -13.9240   20.5940 C   0  0  0  0  0  0  0  0  0  0  0  0
  -24.4270  -13.1360   20.9310 C   0  0  0  0  0  0  0  0  0  0  0  0
  -24.9030  -11.7890   20.9030 C   0  0  0  0  0  0  0  0  0  0  0  0
  -26.5460  -13.0540   20.3620 N   0  0  0  0  0  0  0  0  0  0  0  0
  -26.1990  -11.7650   20.6240 N   0  0  0  0  0  0  0  0  0  0  0  0
  -24.1840  -10.5170   21.0660 C   0  0  0  0  0  0  0  0  0  0  0  0
  -24.5770   -9.5620   22.0290 C   0  0  0  0  0  3  0  0  0  0  0  0
  -23.8580   -8.3560   22.1780 C   0  0  0  0  0  3  0  0  0  0  0  0
  -22.7290   -8.0980   21.3650 C   0  0  0  0  0  0  0  0  0  0  0  0
  -22.3570   -9.0410   20.3910 C   0  0  0  0  0  3  0  0  0  0  0  0
  -23.0770  -10.2380   20.2400 C   0  0  0  0  0  3  0  0  0  0  0  0
  -21.9810   -6.9470   21.4260 O   0  0  0  0  0  0  0  0  0  0  0  0
  -21.8320   -6.2460   22.5950 C   0  0  0  0  0  0  0  0  0  0  0  0
  -21.2580   -6.8290   23.7470 C   0  0  0  0  0  3  0  0  0  0  0  0
  -21.0640   -6.0510   24.9060 C   0  0  0  0  0  3  0  0  0  0  0  0
  -21.4300   -4.6930   24.9130 C   0  0  0  0  0  0  0  0  0  0  0  0
  -21.9950   -4.1100   23.7650 C   0  0  0  0  0  3  0  0  0  0  0  0
  -22.1920   -4.8850   22.6090 C   0  0  0  0  0  0  0  0  0  0  0  0
  -22.7190   -4.3120   21.5000 F   0  0  0  0  0  0  0  0  0  0  0  0
  -21.2350   -3.9440   26.0230 F   0  0  0  0  0  0  0  0  0  0  0  0
  -23.0210  -13.5980   21.1730 C   0  0  0  0  0  0  0  0  0  0  0  0
  -22.2800  -12.8880   22.0170 N   0  0  0  0  0  0  0  0  0  0  0  0
  -22.5860  -14.6220   20.6480 O   0  0  0  0  0  0  0  0  0  0  0  0
  -22.6470  -12.0580   22.4560 H   0  0  0  0  0  0  0  0  0  0  0  0
  -21.3360  -13.1780   22.2290 H   0  0  0  0  0  0  0  0  0  0  0  0
  -25.6610  -15.2950   20.4380 N   0  0  0  0  0  0  0  0  0  0  0  0
  -24.9180  -15.9650   20.6060 H   0  0  0  0  0  0  0  0  0  0  0  0
  -26.5340  -15.7330   20.1670 H   0  0  0  0  0  0  0  0  0  0  0  0
  -29.8290  -20.6130   20.7490 C   0  0  0  0  0  2  0  0  0  0  0  0
  -28.8960  -21.9420   20.2930 C   0  0  0  0  0  2  0  0  0  0  0  0
  -29.2070  -23.5380   20.6790 C   0  0  0  0  0  3  0  0  0  0  0  0
  -28.2500  -24.8160   20.1920 C   0  0  0  0  0  3  0  0  0  0  0  0
  -28.4810  -26.3260   20.4250 O   0  0  0  0  0  0  0  0  0  0  0  0
  -24.7210  -31.9120   23.3120 C   0  0  0  0  0  0  0  0  0  0  0  0
  -27.4110  -27.2760   20.3110 C   0  0  0  0  0  0  0  0  0  0  0  0
  -23.5650  -30.5140   21.6410 C   0  0  0  0  0  3  0  0  0  0  0  0
  -25.0580  -28.9720   20.2320 C   0  0  0  0  0  0  0  0  0  0  0  0
  -26.1140  -30.8190   21.5220 C   0  0  0  0  0  2  0  0  0  0  0  0
  -26.2170  -29.4350   20.8680 C   0  0  0  0  0  0  0  0  0  0  0  0
  -27.3950  -28.6020   20.8910 C   0  0  0  0  0  3  0  0  0  0  0  0
  -26.2290  -26.9080   19.6280 C   0  0  0  0  0  3  0  0  0  0  0  0
  -25.0770  -27.7210   19.5950 C   0  0  0  0  0  3  0  0  0  0  0  0
  -23.8170  -29.8500   20.2620 C   0  0  0  0  0  2  0  0  0  0  0  0
  -24.8190  -31.1040   22.2150 N   0  0  0  0  0  0  0  0  0  0  0  0
  -23.6230  -32.1810   23.8230 O   0  0  0  0  0  0  0  0  0  0  0  0
  -22.8840  -29.4910   22.5840 C   0  0  0  0  0  0  0  0  0  0  0  0
  -21.5570  -29.3170   22.4460 N   0  0  0  0  0  0  0  0  0  0  0  0
  -23.5510  -28.8580   23.4070 O   0  0  0  0  0  0  0  0  0  0  0  0
  -21.0730  -29.8910   21.7690 H   0  0  0  0  0  0  0  0  0  0  0  0
  -18.1760  -28.1190   22.9040 C   0  0  0  0  0  0  0  0  0  0  0  0
  -20.7330  -28.3670   23.1940 C   0  0  0  0  0  3  0  0  0  0  0  0
  -20.8340  -26.9450   22.5940 C   0  0  0  0  0  2  0  0  0  0  0  0
  -19.7340  -26.6440   21.5700 C   0  0  0  0  0  2  0  0  0  0  0  0
  -18.3540  -26.7780   22.2160 C   0  0  0  0  0  2  0  0  0  0  0  0
  -19.2940  -28.8700   23.3520 C   0  0  0  0  0  0  0  0  0  0  0  0
  -19.0760  -30.1240   23.9590 C   0  0  0  0  0  3  0  0  0  0  0  0
  -17.7720  -30.6270   24.1290 C   0  0  0  0  0  3  0  0  0  0  0  0
  -16.6680  -29.8720   23.6990 C   0  0  0  0  0  3  0  0  0  0  0  0
  -16.8700  -28.6210   23.0890 C   0  0  0  0  0  3  0  0  0  0  0  0
  -25.9810  -32.5580   23.9650 C   0  0  0  0  0  3  0  0  0  0  0  0
  -26.4520  -31.8080   25.2710 C   0  0  1  0  0  0  0  0  0  0  0  0
  -25.3230  -31.5900   26.3060 C   0  0  0  0  0  1  0  0  0  0  0  0
  -27.0450  -30.4220   24.9250 C   0  0  0  0  0  1  0  0  0  0  0  0
  -27.5790  -32.6130   25.9590 C   0  0  0  0  0  1  0  0  0  0  0  0
  -25.6610  -33.9610   24.2660 N   0  0  0  0  0  0  0  0  0  0  0  0
  -26.0160  -35.0060   23.5040 C   0  0  0  0  0  0  0  0  0  0  0  0
  -26.7120  -34.8880   22.4930 O   0  0  0  0  0  0  0  0  0  0  0  0
  -25.0440  -34.1250   25.0470 H   0  0  0  0  0  0  0  0  0  0  0  0
  -24.3060  -36.8050   23.0790 C   0  0  0  0  0  1  0  0  0  0  0  0
  -25.5210  -36.4020   23.9310 C   0  0  0  0  0  3  0  0  0  0  0  0
  -27.6280  -37.2950   24.8220 C   0  0  0  0  0  1  0  0  0  0  0  0
  -26.5590  -37.4510   23.8380 N   0  0  0  0  0  0  0  0  0  0  0  0
  -26.1520  -38.3750   23.9570 H   0  0  0  0  0  0  0  0  0  0  0  0
  1  3  2  0
  1  4  1  0
  2 10  1  0
  2  5  2  0
  3  2  1  0
  4  6  2  0
  5  9  1  0
  6  5  1  0
  6 46  1  0
  7  3  1  0
  8  4  1  0
 10 17  2  0
 11 16  1  0
 12 13  1  0
 12 11  1  0
 14 13  1  0
 14 21  1  0
 14 15  1  0
 16 10  1  0
 16 15  1  0
 18 19  2  0
 19 38  1  0
 20 19  1  0
 20 23  1  0
 21 18  1  0
 21 22  1  0
 22 20  2  0
 23 24  1  0
 24 25  2  0
 26 29  1  0
 26 25  1  0
 27 26  2  0
 28 27  1  0
 28 23  2  0
 29 30  1  0
 30 35  2  0
 30 31  1  0
 31 32  2  0
 32 33  1  0
 33 37  1  0
 34 33  2  0
 35 34  1  0
 36 35  1  0
 38 39  1  0
 39 42  1  0
 39 41  1  0
 40 38  2  0
 43 18  1  0
 43 44  1  0
 45 43  1  0
 47 48  1  0
 47 46  1  0
 49 50  1  0
 49 48  2  0
 51 62  2  0
 52 50  1  0
 52 57  1  0
 53 61  1  0
 53 63  1  0
 54 60  1  0
 54 56  1  0
 55 61  1  0
 56 57  2  0
 56 55  1  0
 58 52  2  0
 59 58  1  0
 59 54  2  0
 60 53  1  0
 61 51  1  0
 63 65  2  0
 64 63  1  0
 66 64  1  0
 67 76  2  0
 67 72  1  0
 68 64  1  0
 68 72  1  0
 69 68  1  0
 70 71  1  0
 70 69  1  0
 71 67  1  0
 72 73  2  0
 73 74  1  0
 75 74  2  0
 76 75  1  0
 77 51  1  0
 77 82  1  0
 77 78  1  0
 78 81  1  1
 78 79  1  0
 80 78  1  0
 82 85  1  0
 83 87  1  0
 83 82  1  0
 84 83  2  0
 87 86  1  0
 89 87  1  0
 89 90  1  0
 89 88  1  0
M  ISO  4   2 100  10 100  49 101  50 101
M  END
>  <TORSDO>  (18) 
F 20

>  <SCORE>  (18) 
-12.498

>  <name>  (18) 
17

>  <ligand_id>  (18) 
17

>  <original_smiles>  (18) 
[H]c1c([H])c([H])c2c(c1[H])C([H])([H])C([H])([H])C([H])([H])C2([H])N([H])C(=O)C1([H])N(C(=O)C([H])(N([H])C(=O)C([H])(N([H])C([H])([H])[H])C([H])([H])[H])C(C([H])([H])[H])(C([H])([H])[H])C([H])([H])[H])C([H])([H])c2c([H])c(OC([H])([H])C([H])([H])C([H])([H])C([H])([H])c3c(C([H])([H])[H])c([H])c(C([H])([H])[H])c(C(=O)N4C([H])([H])C([H])([H])C([H])([H])C([H])(n5nc(-c6c([H])c([H])c(Oc7c([H])c([H])c(F)c([H])c7F)c([H])c6[H])c(C(=O)N([H])[H])c5N([H])[H])C4([H])[H])c3C([H])([H])[H])c([H])c([H])c2C1([H])[H]

>  <smiles>  (18) 
[H]c1c([H])c([H])c2c(c1[H])C([H])([H])C([H])([H])C([H])([H])C2([H])N([H])C(=O)C1([H])N(C(=O)C([H])(N([H])C(=O)C([H])(N([H])C([H])([H])[H])C([H])([H])[H])C(C([H])([H])[H])(C([H])([H])[H])C([H])([H])[H])C([H])([H])c2c([H])c(OC([H])([H])C([H])([H])C([H])([H])C([H])([H])c3c(C([H])([H])[H])c([H])c(C([H])([H])[H])c(C(=O)N4C([H])([H])C([H])([H])C([H])([H])C([H])(n5nc(-c6c([H])c([H])c(Oc7c([H])c([H])c(F)c([H])c7F)c([H])c6[H])c(C(=O)N([H])[H])c5N([H])[H])C4([H])[H])c3C([H])([H])[H])c([H])c([H])c2C1([H])[H]

$$$$
18:0:0
     RDKit          3D

 96104  0  0  1  0  0  0  0  0999 V2000
  -26.8590  -17.7550   18.9120 C   0  0  0  0  0  3  0  0  0  0  0  0
  -27.3360  -18.6110   17.9120 C   0  0  0  0  0  0  0  0  0  0  0  0
  -27.6040  -17.5080   20.0790 C   0  0  0  0  0  0  0  0  0  0  0  0
  -28.5400  -19.3140   18.1230 C   0  0  0  0  0  0  0  0  0  0  0  0
  -28.8420  -18.1900   20.2770 C   0  0  0  0  0  0  0  0  0  0  0  0
  -29.1620  -19.2840   19.4010 C   0  0  0  0  0  0  0  0  0  0  0  0
  -26.5010  -18.7980   16.6550 C   0  0  0  0  0  1  0  0  0  0  0  0
  -29.1750  -20.0510   16.9520 C   0  0  0  0  0  1  0  0  0  0  0  0
  -26.9780  -16.5330   21.0810 C   0  0  0  0  0  2  0  0  0  0  0  0
  -25.4920  -16.8460   21.3510 C   0  0  0  0  0  2  0  0  0  0  0  0
  -23.9810  -16.6590   19.2790 C   0  0  0  0  0  1  0  0  0  0  0  0
  -24.4840  -15.9910   20.5680 C   0  0  0  0  0  2  0  0  0  0  0  0
  -30.0390  -20.5020   19.8250 C   0  0  0  0  0  2  0  0  0  0  0  0
  -29.2180  -21.8490   19.9370 C   0  0  0  0  0  2  0  0  0  0  0  0
  -29.9350  -23.2540   19.8730 C   0  0  0  0  0  2  0  0  0  0  0  0
  -28.9370  -24.3940   19.4390 C   0  0  0  0  0  2  0  0  0  0  0  0
  -29.1570  -25.8130   19.7470 O   0  0  0  0  0  0  0  0  0  0  0  0
  -24.9930  -30.5370   23.2220 C   0  0  0  0  0  0  0  0  0  0  0  0
  -28.0080  -26.6170   19.7230 C   0  0  0  0  0  0  0  0  0  0  0  0
  -23.9650  -29.3630   21.3080 C   0  0  0  0  0  3  0  0  0  0  0  0
  -25.5730  -28.1090   19.7790 C   0  0  0  0  0  0  0  0  0  0  0  0
  -26.4920  -29.8030   21.3630 C   0  0  0  0  0  2  0  0  0  0  0  0
  -26.6750  -28.5470   20.5280 C   0  0  0  0  0  0  0  0  0  0  0  0
  -27.8900  -27.8050   20.5050 C   0  0  0  0  0  3  0  0  0  0  0  0
  -26.8870  -26.2440   18.9440 C   0  0  0  0  0  3  0  0  0  0  0  0
  -25.6810  -26.9610   18.9820 C   0  0  0  0  0  3  0  0  0  0  0  0
  -24.2970  -28.9170   19.8610 C   0  0  0  0  0  2  0  0  0  0  0  0
  -25.1630  -29.9050   22.0240 N   0  0  0  0  0  0  0  0  0  0  0  0
  -23.8640  -30.6960   23.7120 O   0  0  0  0  0  0  0  0  0  0  0  0
  -23.2950  -28.1860   22.0550 C   0  0  0  0  0  0  0  0  0  0  0  0
  -22.0090  -27.9320   21.7570 N   0  0  0  0  0  0  0  0  0  0  0  0
  -23.9330  -27.5070   22.8660 O   0  0  0  0  0  0  0  0  0  0  0  0
  -21.5480  -28.5340   21.0890 H   0  0  0  0  0  0  0  0  0  0  0  0
  -18.6890  -26.5080   21.7930 C   0  0  0  0  0  0  0  0  0  0  0  0
  -21.1980  -26.8510   22.3160 C   0  0  0  0  0  3  0  0  0  0  0  0
  -21.4310  -25.5240   21.5570 C   0  0  0  0  0  2  0  0  0  0  0  0
  -20.4370  -25.3010   20.4140 C   0  0  0  0  0  2  0  0  0  0  0  0
  -19.0010  -25.2850   20.9480 C   0  0  0  0  0  2  0  0  0  0  0  0
  -19.7210  -27.2540   22.4230 C   0  0  0  0  0  0  0  0  0  0  0  0
  -19.3770  -28.4060   23.1620 C   0  0  0  0  0  3  0  0  0  0  0  0
  -18.0340  -28.8090   23.2850 C   0  0  0  0  0  3  0  0  0  0  0  0
  -17.0170  -28.0600   22.6660 C   0  0  0  0  0  3  0  0  0  0  0  0
  -17.3460  -26.9120   21.9260 C   0  0  0  0  0  3  0  0  0  0  0  0
  -26.2060  -31.1110   24.0160 C   0  0  0  0  0  3  0  0  0  0  0  0
  -26.4730  -30.3550   25.3770 C   0  0  1  0  0  0  0  0  0  0  0  0
  -25.2260  -30.2570   26.2870 C   0  0  0  0  0  1  0  0  0  0  0  0
  -26.9780  -28.9150   25.1160 C   0  0  0  0  0  1  0  0  0  0  0  0
  -27.5910  -31.0760   26.1670 C   0  0  0  0  0  1  0  0  0  0  0  0
  -25.9430  -32.5380   24.2550 N   0  0  0  0  0  0  0  0  0  0  0  0
  -26.4380  -33.5390   23.5160 C   0  0  0  0  0  0  0  0  0  0  0  0
  -27.2330  -33.3580   22.5890 O   0  0  0  0  0  0  0  0  0  0  0  0
  -25.2600  -32.7570   24.9650 H   0  0  0  0  0  0  0  0  0  0  0  0
  -24.9040  -35.4210   22.8530 C   0  0  0  0  0  1  0  0  0  0  0  0
  -25.9760  -34.9710   23.8550 C   0  0  0  0  0  3  0  0  0  0  0  0
  -27.9950  -35.7750   25.0010 C   0  0  0  0  0  1  0  0  0  0  0  0
  -27.0800  -35.9550   23.8760 N   0  0  0  0  0  0  0  0  0  0  0  0
  -26.7160  -36.9040   23.9090 H   0  0  0  0  0  0  0  0  0  0  0  0
  -29.7910  -17.7600   21.4130 C   0  0  0  0  0  3  0  0  0  0  0  0
  -30.3400  -16.2680   21.4590 C   0  0  0  0  0  3  0  0  0  0  0  0
  -29.9400  -15.1920   20.3660 C   0  0  0  0  0  2  0  0  0  0  0  0
  -30.7620  -13.8410   20.2530 C   0  0  0  0  0  0  0  0  0  0  0  0
  -30.6660  -11.4410   19.5790 C   0  0  0  0  0  2  0  0  0  0  0  0
  -29.8370  -11.2650   18.2850 C   0  0  0  0  0  2  0  0  0  0  0  0
  -28.3350  -11.1410   18.6030 C   0  0  0  0  0  2  0  0  0  0  0  0
  -27.8500  -12.2440   19.5790 C   0  0  0  0  0  3  0  0  0  0  0  0
  -28.7870  -12.3550   20.8010 C   0  0  0  0  0  2  0  0  0  0  0  0
  -30.1480  -12.6150   20.3130 N   0  0  0  0  0  0  0  0  0  0  0  0
  -31.9500  -13.9200   19.9210 O   0  0  0  0  0  0  0  0  0  0  0  0
  -25.4150  -12.9350   20.0140 C   0  0  0  0  0  0  0  0  0  0  0  0
  -24.3160  -12.2140   20.4040 C   0  0  0  0  0  0  0  0  0  0  0  0
  -24.7630  -10.8730   20.5820 C   0  0  0  0  0  0  0  0  0  0  0  0
  -26.4650  -12.0290   19.9830 N   0  0  0  0  0  0  0  0  0  0  0  0
  -26.0750  -10.7940   20.3900 N   0  0  0  0  0  0  0  0  0  0  0  0
  -24.0100   -9.6460   20.8780 C   0  0  0  0  0  0  0  0  0  0  0  0
  -24.3930   -8.7870   21.9320 C   0  0  0  0  0  3  0  0  0  0  0  0
  -23.6440   -7.6250   22.2140 C   0  0  0  0  0  3  0  0  0  0  0  0
  -22.5000   -7.3150   21.4420 C   0  0  0  0  0  0  0  0  0  0  0  0
  -22.1350   -8.1610   20.3820 C   0  0  0  0  0  3  0  0  0  0  0  0
  -22.8810   -9.3160   20.0980 C   0  0  0  0  0  3  0  0  0  0  0  0
  -21.7270   -6.1930   21.6210 O   0  0  0  0  0  0  0  0  0  0  0  0
  -21.6420   -5.5650   22.8360 C   0  0  0  0  0  0  0  0  0  0  0  0
  -21.1020   -6.2090   23.9710 C   0  0  0  0  0  3  0  0  0  0  0  0
  -20.9700   -5.5030   25.1840 C   0  0  0  0  0  3  0  0  0  0  0  0
  -21.3720   -4.1560   25.2630 C   0  0  0  0  0  0  0  0  0  0  0  0
  -21.9050   -3.5110   24.1330 C   0  0  0  0  0  3  0  0  0  0  0  0
  -22.0410   -4.2160   22.9230 C   0  0  0  0  0  0  0  0  0  0  0  0
  -22.5360   -3.5850   21.8310 F   0  0  0  0  0  0  0  0  0  0  0  0
  -21.2400   -3.4760   26.4260 F   0  0  0  0  0  0  0  0  0  0  0  0
  -22.9080  -12.7280   20.5010 C   0  0  0  0  0  0  0  0  0  0  0  0
  -22.1090  -12.1540   21.3950 N   0  0  0  0  0  0  0  0  0  0  0  0
  -22.5280  -13.6740   19.8160 O   0  0  0  0  0  0  0  0  0  0  0  0
  -22.4320  -11.3890   21.9690 H   0  0  0  0  0  0  0  0  0  0  0  0
  -21.1610  -12.4880   21.5050 H   0  0  0  0  0  0  0  0  0  0  0  0
  -25.6000  -14.2650   19.6660 N   0  0  0  0  0  0  0  0  0  0  0  0
  -24.8270  -14.9200   19.6160 H   0  0  0  0  0  0  0  0  0  0  0  0
  -26.4760  -14.6790   19.3680 H   0  0  0  0  0  0  0  0  0  0  0  0
  1  3  1  0
  2  4  1  0
  2  1  2  0
  3  5  2  0
  3  9  1  0
  4  6  2  0
  5 58  1  0
  6 13  1  0
  6  5  1  0
  7  2  1  0
  8  4  1  0
  9 10  1  0
 11 12  1  0
 12 10  1  0
 13 14  1  0
 15 14  1  0
 16 17  1  0
 16 15  1  0
 18 29  2  0
 19 17  1  0
 19 24  1  0
 20 28  1  0
 20 30  1  0
 21 27  1  0
 21 23  1  0
 22 28  1  0
 23 22  1  0
 24 23  2  0
 25 26  1  0
 25 19  2  0
 26 21  2  0
 27 20  1  0
 28 18  1  0
 30 32  2  0
 31 30  1  0
 33 31  1  0
 34 43  2  0
 34 39  1  0
 35 31  1  0
 35 39  1  0
 36 35  1  0
 37 38  1  0
 37 36  1  0
 38 34  1  0
 39 40  2  0
 40 41  1  0
 42 41  2  0
 43 42  1  0
 44 18  1  0
 44 49  1  0
 44 45  1  0
 45 48  1  1
 45 46  1  0
 47 45  1  0
 49 52  1  0
 50 54  1  0
 50 49  1  0
 51 50  2  0
 54 53  1  0
 54 56  1  0
 56 57  1  0
 56 55  1  0
 58 59  2  0
 60 59  1  0
 61 67  1  0
 61 60  1  0
 62 67  1  0
 63 64  1  0
 63 62  1  0
 65 64  1  0
 65 72  1  0
 65 66  1  0
 67 66  1  0
 68 61  2  0
 69 70  2  0
 70 89  1  0
 70 71  1  0
 71 74  1  0
 72 69  1  0
 72 73  1  0
 73 71  2  0
 74 75  1  0
 75 76  2  0
 77 80  1  0
 77 76  1  0
 78 77  2  0
 79 78  1  0
 79 74  2  0
 80 81  1  0
 81 86  2  0
 81 82  1  0
 82 83  2  0
 83 84  1  0
 84 88  1  0
 85 84  2  0
 86 85  1  0
 87 86  1  0
 89 90  1  0
 90 93  1  0
 90 92  1  0
 91 89  2  0
 94 69  1  0
 95 94  1  0
 96 94  1  0
M  ISO  4  16 101  17 101  60 100  61 100
M  END
>  <TORSDO>  (19) 
F 26

>  <SCORE>  (19) 
-3.225

>  <name>  (19) 
18

>  <ligand_id>  (19) 
18

>  <original_smiles>  (19) 
[H]c1c([H])c([H])c2c(c1[H])C([H])([H])C([H])([H])C([H])([H])C2([H])N([H])C(=O)C1([H])N(C(=O)C([H])(N([H])C(=O)C([H])(N([H])C([H])([H])[H])C([H])([H])[H])C(C([H])([H])[H])(C([H])([H])[H])C([H])([H])[H])C([H])([H])c2c([H])c(OC([H])([H])C([H])([H])C([H])([H])C([H])([H])c3c(C([H])([H])[H])c(C([H])([H])[H])c([H])c(C([H])([H])C([H])([H])C([H])([H])C([H])([H])[H])c3C([H])([H])C([H])([H])C([H])([H])C(=O)N3C([H])([H])C([H])([H])C([H])([H])C([H])(n4nc(-c5c([H])c([H])c(Oc6c([H])c([H])c(F)c([H])c6F)c([H])c5[H])c(C(=O)N([H])[H])c4N([H])[H])C3([H])[H])c([H])c([H])c2C1([H])[H]

>  <smiles>  (19) 
[H]c1c([H])c([H])c2c(c1[H])C([H])([H])C([H])([H])C([H])([H])C2([H])N([H])C(=O)C1([H])N(C(=O)C([H])(N([H])C(=O)C([H])(N([H])C([H])([H])[H])C([H])([H])[H])C(C([H])([H])[H])(C([H])([H])[H])C([H])([H])[H])C([H])([H])c2c([H])c(OC([H])([H])C([H])([H])C([H])([H])C([H])([H])c3c(C([H])([H])[H])c(C([H])([H])[H])c([H])c(C([H])([H])C([H])([H])C([H])([H])C([H])([H])[H])c3C([H])([H])C([H])([H])C([H])([H])C(=O)N3C([H])([H])C([H])([H])C([H])([H])C([H])(n4nc(-c5c([H])c([H])c(Oc6c([H])c([H])c(F)c([H])c6F)c([H])c5[H])c(C(=O)N([H])[H])c4N([H])[H])C3([H])[H])c([H])c([H])c2C1([H])[H]

$$$$
19:0:0
     RDKit          3D

 93101  0  0  1  0  0  0  0  0999 V2000
  -28.2790  -23.2830   21.6270 C   0  0  0  0  0  3  0  0  0  0  0  0
  -28.5850  -22.4470   20.5330 C   0  0  0  0  0  0  0  0  0  0  0  0
  -28.2230  -24.6910   21.4940 C   0  0  0  0  0  0  0  0  0  0  0  0
  -28.8950  -23.0630   19.2890 C   0  0  0  0  0  0  0  0  0  0  0  0
  -28.7750  -24.4800   19.1330 C   0  0  0  0  0  0  0  0  0  0  0  0
  -28.4260  -25.3140   20.2360 C   0  0  0  0  0  0  0  0  0  0  0  0
  -27.9340  -25.5200   22.7280 C   0  0  0  0  0  1  0  0  0  0  0  0
  -29.3380  -22.1980   18.1120 C   0  0  0  0  0  1  0  0  0  0  0  0
  -29.0060  -25.1190   17.7660 C   0  0  0  0  0  1  0  0  0  0  0  0
  -28.3920  -26.7030   20.1010 O   0  0  0  0  0  0  0  0  0  0  0  0
  -24.5610  -31.8900   23.2180 C   0  0  0  0  0  0  0  0  0  0  0  0
  -27.2060  -27.4250   20.1340 C   0  0  0  0  0  0  0  0  0  0  0  0
  -23.3520  -30.4860   21.5780 C   0  0  0  0  0  3  0  0  0  0  0  0
  -24.8050  -28.9440   20.1480 C   0  0  0  0  0  0  0  0  0  0  0  0
  -25.8760  -30.8440   21.3700 C   0  0  0  0  0  2  0  0  0  0  0  0
  -25.9630  -29.4660   20.7360 C   0  0  0  0  0  0  0  0  0  0  0  0
  -27.1640  -28.7150   20.7240 C   0  0  0  0  0  3  0  0  0  0  0  0
  -26.0310  -26.9250   19.5370 C   0  0  0  0  0  3  0  0  0  0  0  0
  -24.8340  -27.6740   19.5460 C   0  0  0  0  0  3  0  0  0  0  0  0
  -23.5590  -29.8030   20.1980 C   0  0  0  0  0  2  0  0  0  0  0  0
  -24.6150  -31.0910   22.1140 N   0  0  0  0  0  0  0  0  0  0  0  0
  -23.4820  -32.1590   23.7640 O   0  0  0  0  0  0  0  0  0  0  0  0
  -22.7030  -29.4680   22.5440 C   0  0  0  0  0  0  0  0  0  0  0  0
  -21.3780  -29.2810   22.4190 N   0  0  0  0  0  0  0  0  0  0  0  0
  -23.3890  -28.8440   23.3590 O   0  0  0  0  0  0  0  0  0  0  0  0
  -20.8880  -29.8320   21.7280 H   0  0  0  0  0  0  0  0  0  0  0  0
  -18.0090  -28.0730   22.9170 C   0  0  0  0  0  0  0  0  0  0  0  0
  -20.5660  -28.3410   23.1900 C   0  0  0  0  0  3  0  0  0  0  0  0
  -20.6730  -26.9110   22.6130 C   0  0  0  0  0  2  0  0  0  0  0  0
  -19.5740  -26.5830   21.5990 C   0  0  0  0  0  2  0  0  0  0  0  0
  -18.1920  -26.7240   22.2420 C   0  0  0  0  0  2  0  0  0  0  0  0
  -19.1250  -28.8380   23.3480 C   0  0  0  0  0  0  0  0  0  0  0  0
  -18.9010  -30.1000   23.9390 C   0  0  0  0  0  3  0  0  0  0  0  0
  -17.5940  -30.5960   24.1060 C   0  0  0  0  0  3  0  0  0  0  0  0
  -16.4930  -29.8270   23.6910 C   0  0  0  0  0  3  0  0  0  0  0  0
  -16.7020  -28.5670   23.1020 C   0  0  0  0  0  3  0  0  0  0  0  0
  -25.8480  -32.5230   23.8350 C   0  0  0  0  0  3  0  0  0  0  0  0
  -25.5410  -33.9200   24.1680 N   0  0  0  0  0  0  0  0  0  0  0  0
  -25.8720  -34.9740   23.4100 C   0  0  0  0  0  0  0  0  0  0  0  0
  -26.5430  -34.8730   22.3790 O   0  0  0  0  0  0  0  0  0  0  0  0
  -24.9570  -34.0750   24.9770 H   0  0  0  0  0  0  0  0  0  0  0  0
  -24.1470  -36.7640   23.0480 C   0  0  0  0  0  1  0  0  0  0  0  0
  -25.3820  -36.3600   23.8680 C   0  0  0  0  0  3  0  0  0  0  0  0
  -27.5120  -37.2390   24.7150 C   0  0  0  0  0  1  0  0  0  0  0  0
  -26.4140  -37.4150   23.7680 N   0  0  0  0  0  0  0  0  0  0  0  0
  -26.0070  -38.3340   23.9230 H   0  0  0  0  0  0  0  0  0  0  0  0
  -26.3720  -31.7510   25.1090 C   0  0  1  0  0  0  0  0  0  0  0  0
  -25.2850  -31.5120   26.1830 C   0  0  0  0  0  1  0  0  0  0  0  0
  -26.9470  -30.3740   24.7080 C   0  0  0  0  0  1  0  0  0  0  0  0
  -27.5280  -32.5440   25.7650 C   0  0  0  0  0  1  0  0  0  0  0  0
  -28.3830  -20.9160   20.6760 C   0  0  0  0  0  2  0  0  0  0  0  0
  -29.5820  -19.9710   21.0350 C   0  0  0  0  0  2  0  0  0  0  0  0
  -29.2570  -18.5010   20.6100 C   0  0  0  0  0  2  0  0  0  0  0  0
  -30.2210  -17.2880   20.9330 C   0  0  0  0  0  2  0  0  0  0  0  0
  -28.9340  -16.0790   19.0750 C   0  0  0  0  0  1  0  0  0  0  0  0
  -31.2660  -16.6660   18.7440 C   0  0  0  0  0  1  0  0  0  0  0  0
  -30.2700  -16.1520   19.8230 C   0  0  1  0  0  0  0  0  0  0  0  0
  -30.7890  -14.7020   20.2720 C   0  0  0  0  0  0  0  0  0  0  0  0
  -30.4360  -12.4300   19.3830 C   0  0  0  0  0  2  0  0  0  0  0  0
  -29.5170  -12.4520   18.1470 C   0  0  0  0  0  2  0  0  0  0  0  0
  -28.0470  -12.2780   18.5790 C   0  0  0  0  0  2  0  0  0  0  0  0
  -27.6400  -13.2240   19.7320 C   0  0  0  0  0  3  0  0  0  0  0  0
  -28.7120  -13.3200   20.8490 C   0  0  0  0  0  2  0  0  0  0  0  0
  -30.0360  -13.5520   20.2520 N   0  0  0  0  0  0  0  0  0  0  0  0
  -32.0120  -14.6030   20.2750 O   0  0  0  0  0  0  0  0  0  0  0  0
  -25.2760  -13.8790   20.4670 C   0  0  0  0  0  0  0  0  0  0  0  0
  -24.2000  -13.1210   20.8340 C   0  0  0  0  0  0  0  0  0  0  0  0
  -24.6570  -11.7680   20.8300 C   0  0  0  0  0  0  0  0  0  0  0  0
  -26.3100  -12.9750   20.2500 N   0  0  0  0  0  0  0  0  0  0  0  0
  -25.9470  -11.7080   20.5390 N   0  0  0  0  0  0  0  0  0  0  0  0
  -23.9290  -10.5140   21.0240 C   0  0  0  0  0  0  0  0  0  0  0  0
  -24.3630   -9.5520   21.9610 C   0  0  0  0  0  3  0  0  0  0  0  0
  -23.6380   -8.3560   22.1400 C   0  0  0  0  0  3  0  0  0  0  0  0
  -22.4670   -8.1170   21.3850 C   0  0  0  0  0  0  0  0  0  0  0  0
  -22.0540   -9.0690   20.4350 C   0  0  0  0  0  3  0  0  0  0  0  0
  -22.7790  -10.2570   20.2530 C   0  0  0  0  0  3  0  0  0  0  0  0
  -21.7110   -6.9740   21.4780 O   0  0  0  0  0  0  0  0  0  0  0  0
  -21.6700   -6.2350   22.6320 C   0  0  0  0  0  0  0  0  0  0  0  0
  -21.2610   -6.7940   23.8620 C   0  0  0  0  0  3  0  0  0  0  0  0
  -21.1670   -5.9800   25.0090 C   0  0  0  0  0  3  0  0  0  0  0  0
  -21.4740   -4.6090   24.9250 C   0  0  0  0  0  0  0  0  0  0  0  0
  -21.8780   -4.0500   23.7000 C   0  0  0  0  0  3  0  0  0  0  0  0
  -21.9740   -4.8610   22.5570 C   0  0  0  0  0  0  0  0  0  0  0  0
  -22.3440   -4.3150   21.3730 F   0  0  0  0  0  0  0  0  0  0  0  0
  -21.3760   -3.8230   26.0230 F   0  0  0  0  0  0  0  0  0  0  0  0
  -22.8030  -13.6090   21.0750 C   0  0  0  0  0  0  0  0  0  0  0  0
  -22.0590  -12.9320   21.9410 N   0  0  0  0  0  0  0  0  0  0  0  0
  -22.3780  -14.6310   20.5340 O   0  0  0  0  0  0  0  0  0  0  0  0
  -22.4160  -12.1080   22.4050 H   0  0  0  0  0  0  0  0  0  0  0  0
  -21.1200  -13.2430   22.1470 H   0  0  0  0  0  0  0  0  0  0  0  0
  -25.4550  -15.2440   20.2660 N   0  0  0  0  0  0  0  0  0  0  0  0
  -24.7050  -15.9210   20.3640 H   0  0  0  0  0  0  0  0  0  0  0  0
  -26.3240  -15.6610   19.9630 H   0  0  0  0  0  0  0  0  0  0  0  0
  2 51  1  0
  2  1  2  0
  3  1  1  0
  3  7  1  0
  4  2  1  0
  5  4  2  0
  5  6  1  0
  6  3  2  0
  8  4  1  0
  9  5  1  0
 10 12  1  0
 10  6  1  0
 11 22  2  0
 12 17  1  0
 13 21  1  0
 13 23  1  0
 14 20  1  0
 14 16  1  0
 15 21  1  0
 16 15  1  0
 17 16  2  0
 18 19  1  0
 18 12  2  0
 19 14  2  0
 20 13  1  0
 21 11  1  0
 23 25  2  0
 24 23  1  0
 26 24  1  0
 27 36  2  0
 27 32  1  0
 28 24  1  0
 28 32  1  0
 29 28  1  0
 30 31  1  0
 30 29  1  0
 31 27  1  0
 32 33  2  0
 33 34  1  0
 35 34  2  0
 36 35  1  0
 37 11  1  0
 37 38  1  0
 37 47  1  0
 38 41  1  0
 39 43  1  0
 39 38  1  0
 40 39  2  0
 43 42  1  0
 45 43  1  0
 45 46  1  0
 45 44  1  0
 47 50  1  1
 47 48  1  0
 49 47  1  0
 51 52  1  0
 53 54  1  0
 53 52  1  0
 57 55  1  6
 56 57  1  0
 57 58  1  0
 57 54  1  0
 58 65  2  0
 59 64  1  0
 60 61  1  0
 60 59  1  0
 62 61  1  0
 62 69  1  0
 62 63  1  0
 64 58  1  0
 64 63  1  0
 66 67  2  0
 67 86  1  0
 68 67  1  0
 68 71  1  0
 69 66  1  0
 69 70  1  0
 70 68  2  0
 71 72  1  0
 72 73  2  0
 74 77  1  0
 74 73  1  0
 75 74  2  0
 76 75  1  0
 76 71  2  0
 77 78  1  0
 78 79  1  0
 79 80  2  0
 81 80  1  0
 81 85  1  0
 82 81  2  0
 83 78  2  0
 83 82  1  0
 84 83  1  0
 86 87  1  0
 87 90  1  0
 87 89  1  0
 88 86  2  0
 91 92  1  0
 91 66  1  0
 93 91  1  0
M  ISO  4   6 101  10 101  57 100  58 100
M  END
>  <TORSDO>  (20) 
F 21

>  <SCORE>  (20) 
-13.646

>  <name>  (20) 
19

>  <ligand_id>  (20) 
19

>  <original_smiles>  (20) 
[H]c1c([H])c([H])c2c(c1[H])C([H])([H])C([H])([H])C([H])([H])C2([H])N([H])C(=O)C1([H])N(C(=O)C([H])(N([H])C(=O)C([H])(N([H])C([H])([H])[H])C([H])([H])[H])C(C([H])([H])[H])(C([H])([H])[H])C([H])([H])[H])C([H])([H])c2c([H])c(Oc3c(C([H])([H])[H])c([H])c(C([H])([H])C([H])([H])C([H])([H])C([H])([H])C(C(=O)N4C([H])([H])C([H])([H])C([H])([H])C([H])(n5nc(-c6c([H])c([H])c(Oc7c([H])c([H])c(F)c([H])c7F)c([H])c6[H])c(C(=O)N([H])[H])c5N([H])[H])C4([H])[H])(C([H])([H])[H])C([H])([H])[H])c(C([H])([H])[H])c3C([H])([H])[H])c([H])c([H])c2C1([H])[H]

>  <smiles>  (20) 
[H]c1c([H])c([H])c2c(c1[H])C([H])([H])C([H])([H])C([H])([H])C2([H])N([H])C(=O)C1([H])N(C(=O)C([H])(N([H])C(=O)C([H])(N([H])C([H])([H])[H])C([H])([H])[H])C(C([H])([H])[H])(C([H])([H])[H])C([H])([H])[H])C([H])([H])c2c([H])c(Oc3c(C([H])([H])[H])c([H])c(C([H])([H])C([H])([H])C([H])([H])C([H])([H])C(C(=O)N4C([H])([H])C([H])([H])C([H])([H])C([H])(n5nc(-c6c([H])c([H])c(Oc7c([H])c([H])c(F)c([H])c7F)c([H])c6[H])c(C(=O)N([H])[H])c5N([H])[H])C4([H])[H])(C([H])([H])[H])C([H])([H])[H])c(C([H])([H])[H])c3C([H])([H])[H])c([H])c([H])c2C1([H])[H]

$$$$
20:0:0
     RDKit          3D

 89 97  0  0  1  0  0  0  0  0999 V2000
  -26.5780  -22.4690   19.9070 C   0  0  0  0  0  3  0  0  0  0  0  0
  -26.9030  -23.8360   20.0840 C   0  0  0  0  0  3  0  0  0  0  0  0
  -27.5020  -21.3900   19.9090 C   0  0  0  0  0  0  0  0  0  0  0  0
  -28.8900  -21.5770   20.1370 C   0  0  0  0  0  0  0  0  0  0  0  0
  -29.1870  -23.1100   20.2630 C   0  0  0  0  0  0  0  0  0  0  0  0
  -28.2190  -24.3420   20.2060 C   0  0  0  0  0  0  0  0  0  0  0  0
  -26.9330  -19.9940   19.7030 C   0  0  0  0  0  1  0  0  0  0  0  0
  -30.6410  -23.4460   20.5120 C   0  0  0  0  0  1  0  0  0  0  0  0
  -28.3810  -25.8970   20.2870 O   0  0  0  0  0  0  0  0  0  0  0  0
  -24.6690  -31.8900   23.1800 C   0  0  0  0  0  0  0  0  0  0  0  0
  -27.3750  -27.0270   20.2040 C   0  0  0  0  0  0  0  0  0  0  0  0
  -23.5460  -30.4830   21.5040 C   0  0  0  0  0  3  0  0  0  0  0  0
  -25.0620  -28.9180   20.1010 C   0  0  0  0  0  0  0  0  0  0  0  0
  -26.1140  -30.7190   21.4400 C   0  0  0  0  0  2  0  0  0  0  0  0
  -26.2200  -29.3110   20.7820 C   0  0  0  0  0  0  0  0  0  0  0  0
  -27.3620  -28.3790   20.8260 C   0  0  0  0  0  3  0  0  0  0  0  0
  -26.2220  -26.8510   19.4020 C   0  0  0  0  0  3  0  0  0  0  0  0
  -25.0910  -27.7090   19.3910 C   0  0  0  0  0  3  0  0  0  0  0  0
  -23.8260  -29.8180   20.1280 C   0  0  0  0  0  2  0  0  0  0  0  0
  -24.7970  -31.0610   22.0940 N   0  0  0  0  0  0  0  0  0  0  0  0
  -23.5600  -32.1570   23.6710 O   0  0  0  0  0  0  0  0  0  0  0  0
  -22.8450  -29.4660   22.4440 C   0  0  0  0  0  0  0  0  0  0  0  0
  -21.5140  -29.3120   22.3170 N   0  0  0  0  0  0  0  0  0  0  0  0
  -23.5070  -28.8170   23.2580 O   0  0  0  0  0  0  0  0  0  0  0  0
  -21.0320  -29.8840   21.6380 H   0  0  0  0  0  0  0  0  0  0  0  0
  -18.1180  -28.1400   22.8440 C   0  0  0  0  0  0  0  0  0  0  0  0
  -20.6870  -28.3600   23.0690 C   0  0  0  0  0  3  0  0  0  0  0  0
  -20.7560  -26.9480   22.4380 C   0  0  0  0  0  2  0  0  0  0  0  0
  -19.6300  -26.6810   21.4340 C   0  0  0  0  0  2  0  0  0  0  0  0
  -18.2630  -26.8190   22.1090 C   0  0  0  0  0  2  0  0  0  0  0  0
  -19.2570  -28.8720   23.2800 C   0  0  0  0  0  0  0  0  0  0  0  0
  -19.0630  -30.1090   23.9320 C   0  0  0  0  0  3  0  0  0  0  0  0
  -17.7680  -30.6150   24.1500 C   0  0  0  0  0  3  0  0  0  0  0  0
  -16.6470  -29.8820   23.7260 C   0  0  0  0  0  3  0  0  0  0  0  0
  -16.8220  -28.6460   23.0800 C   0  0  0  0  0  3  0  0  0  0  0  0
  -25.9080  -32.5560   23.8480 C   0  0  0  0  0  3  0  0  0  0  0  0
  -25.5570  -33.9520   24.1670 N   0  0  0  0  0  0  0  0  0  0  0  0
  -25.9090  -35.0190   23.4400 C   0  0  0  0  0  0  0  0  0  0  0  0
  -26.6250  -34.9350   22.4380 O   0  0  0  0  0  0  0  0  0  0  0  0
  -24.9230  -34.0880   24.9410 H   0  0  0  0  0  0  0  0  0  0  0  0
  -24.1920  -36.8140   23.0210 C   0  0  0  0  0  1  0  0  0  0  0  0
  -25.3890  -36.4010   23.8920 C   0  0  0  0  0  3  0  0  0  0  0  0
  -27.4600  -37.2950   24.8640 C   0  0  0  0  0  1  0  0  0  0  0  0
  -26.4200  -37.4620   23.8530 N   0  0  0  0  0  0  0  0  0  0  0  0
  -25.9980  -38.3790   23.9790 H   0  0  0  0  0  0  0  0  0  0  0  0
  -26.3850  -31.8050   25.1530 C   0  0  1  0  0  0  0  0  0  0  0  0
  -25.2520  -31.5540   26.1760 C   0  0  0  0  0  1  0  0  0  0  0  0
  -27.0120  -30.4360   24.8080 C   0  0  0  0  0  1  0  0  0  0  0  0
  -27.4920  -32.6270   25.8540 C   0  0  0  0  0  1  0  0  0  0  0  0
  -29.7950  -20.0750   20.4370 C   0  0  0  0  0  2  0  0  0  0  0  0
  -29.9450  -18.4200   19.6690 C   0  0  0  0  0  2  0  0  0  0  0  0
  -30.7470  -15.5250   19.9490 C   0  0  0  0  0  0  0  0  0  0  0  0
  -30.6930  -13.0580   19.1050 C   0  0  0  0  0  2  0  0  0  0  0  0
  -29.7310  -12.8520   17.9030 C   0  0  0  0  0  2  0  0  0  0  0  0
  -28.2990  -12.5800   18.3930 C   0  0  0  0  0  2  0  0  0  0  0  0
  -27.8920  -13.5400   19.5390 C   0  0  0  0  0  3  0  0  0  0  0  0
  -28.9800  -13.6900   20.6270 C   0  0  0  0  0  2  0  0  0  0  0  0
  -30.1910  -14.2040   19.9610 N   0  0  0  0  0  0  0  0  0  0  0  0
  -31.9240  -15.5250   19.5610 O   0  0  0  0  0  0  0  0  0  0  0  0
  -30.0080  -16.8040   20.1880 N   0  0  0  0  0  0  0  0  0  0  0  0
  -29.1360  -16.5700   20.6400 H   0  0  0  0  0  0  0  0  0  0  0  0
  -25.5650  -14.1100   20.4100 C   0  0  0  0  0  0  0  0  0  0  0  0
  -24.5080  -13.3400   20.8070 C   0  0  0  0  0  0  0  0  0  0  0  0
  -24.9490  -11.9830   20.7180 C   0  0  0  0  0  0  0  0  0  0  0  0
  -26.5810  -13.2260   20.0940 N   0  0  0  0  0  0  0  0  0  0  0  0
  -26.2250  -11.9390   20.3450 N   0  0  0  0  0  0  0  0  0  0  0  0
  -24.2090  -10.7280   20.9070 C   0  0  0  0  0  0  0  0  0  0  0  0
  -24.6130   -9.7660   21.8590 C   0  0  0  0  0  3  0  0  0  0  0  0
  -23.8700   -8.5780   22.0380 C   0  0  0  0  0  3  0  0  0  0  0  0
  -22.7080   -8.3450   21.2650 C   0  0  0  0  0  0  0  0  0  0  0  0
  -22.3210   -9.2970   20.3050 C   0  0  0  0  0  3  0  0  0  0  0  0
  -23.0660  -10.4740   20.1240 C   0  0  0  0  0  3  0  0  0  0  0  0
  -21.9400   -7.2100   21.3500 O   0  0  0  0  0  0  0  0  0  0  0  0
  -21.7880   -6.5300   22.5320 C   0  0  0  0  0  0  0  0  0  0  0  0
  -21.2150   -7.1370   23.6710 C   0  0  0  0  0  3  0  0  0  0  0  0
  -21.0120   -6.3810   24.8430 C   0  0  0  0  0  3  0  0  0  0  0  0
  -21.3730   -5.0210   24.8770 C   0  0  0  0  0  0  0  0  0  0  0  0
  -21.9400   -4.4140   23.7420 C   0  0  0  0  0  3  0  0  0  0  0  0
  -22.1420   -5.1670   22.5720 C   0  0  0  0  0  0  0  0  0  0  0  0
  -22.6680   -4.5720   21.4730 F   0  0  0  0  0  0  0  0  0  0  0  0
  -21.1740   -4.2930   26.0010 F   0  0  0  0  0  0  0  0  0  0  0  0
  -23.1330  -13.8330   21.1520 C   0  0  0  0  0  0  0  0  0  0  0  0
  -22.4400  -13.1460   22.0540 N   0  0  0  0  0  0  0  0  0  0  0  0
  -22.6830  -14.8650   20.6580 O   0  0  0  0  0  0  0  0  0  0  0  0
  -22.8170  -12.3120   22.4810 H   0  0  0  0  0  0  0  0  0  0  0  0
  -21.5210  -13.4640   22.3260 H   0  0  0  0  0  0  0  0  0  0  0  0
  -25.7400  -15.4820   20.2630 N   0  0  0  0  0  0  0  0  0  0  0  0
  -24.9820  -16.1400   20.4160 H   0  0  0  0  0  0  0  0  0  0  0  0
  -26.5660  -15.9150   19.8720 H   0  0  0  0  0  0  0  0  0  0  0  0
  1  3  2  0
  1  2  1  0
  2  6  2  0
  3  4  1  0
  4  5  2  0
  4 50  1  0
  5  8  1  0
  6  5  1  0
  6  9  1  0
  7  3  1  0
 10 21  2  0
 11  9  1  0
 11 16  1  0
 12 20  1  0
 12 22  1  0
 13 19  1  0
 13 15  1  0
 14 20  1  0
 15 16  2  0
 15 14  1  0
 17 11  2  0
 18 17  1  0
 18 13  2  0
 19 12  1  0
 20 10  1  0
 22 24  2  0
 23 22  1  0
 25 23  1  0
 26 35  2  0
 26 31  1  0
 27 23  1  0
 27 31  1  0
 28 27  1  0
 29 30  1  0
 29 28  1  0
 30 26  1  0
 31 32  2  0
 32 33  1  0
 34 33  2  0
 35 34  1  0
 36 10  1  0
 36 37  1  0
 36 46  1  0
 37 40  1  0
 38 42  1  0
 38 37  1  0
 39 38  2  0
 42 41  1  0
 44 42  1  0
 44 45  1  0
 44 43  1  0
 46 49  1  1
 46 47  1  0
 48 46  1  0
 51 60  1  0
 51 50  1  0
 52 58  1  0
 52 60  1  0
 53 58  1  0
 54 55  1  0
 54 53  1  0
 56 55  1  0
 56 65  1  0
 56 57  1  0
 58 57  1  0
 59 52  2  0
 60 61  1  0
 62 63  2  0
 63 82  1  0
 64 63  1  0
 64 67  1  0
 65 66  1  0
 65 62  1  0
 66 64  2  0
 67 68  1  0
 68 69  2  0
 70 73  1  0
 70 69  1  0
 71 70  2  0
 72 71  1  0
 72 67  2  0
 73 74  1  0
 74 79  2  0
 74 75  1  0
 75 76  2  0
 76 77  1  0
 77 81  1  0
 78 77  2  0
 79 78  1  0
 80 79  1  0
 82 83  1  0
 83 86  1  0
 83 85  1  0
 84 82  2  0
 87 62  1  0
 87 88  1  0
 89 87  1  0
M  ISO  4   6 101   9 101  52 100  60 100
M  END
>  <TORSDO>  (21) 
F 18

>  <SCORE>  (21) 
-14.913

>  <name>  (21) 
20

>  <ligand_id>  (21) 
20

>  <original_smiles>  (21) 
[H]c1c([H])c([H])c2c(c1[H])C([H])([H])C([H])([H])C([H])([H])C2([H])N([H])C(=O)C1([H])N(C(=O)C([H])(N([H])C(=O)C([H])(N([H])C([H])([H])[H])C([H])([H])[H])C(C([H])([H])[H])(C([H])([H])[H])C([H])([H])[H])C([H])([H])c2c([H])c(Oc3c([H])c([H])c(C([H])([H])[H])c(C([H])([H])C([H])([H])N([H])C(=O)N4C([H])([H])C([H])([H])C([H])([H])C([H])(n5nc(-c6c([H])c([H])c(Oc7c([H])c([H])c(F)c([H])c7F)c([H])c6[H])c(C(=O)N([H])[H])c5N([H])[H])C4([H])[H])c3C([H])([H])[H])c([H])c([H])c2C1([H])[H]

>  <smiles>  (21) 
[H]c1c([H])c([H])c2c(c1[H])C([H])([H])C([H])([H])C([H])([H])C2([H])N([H])C(=O)C1([H])N(C(=O)C([H])(N([H])C(=O)C([H])(N([H])C([H])([H])[H])C([H])([H])[H])C(C([H])([H])[H])(C([H])([H])[H])C([H])([H])[H])C([H])([H])c2c([H])c(Oc3c([H])c([H])c(C([H])([H])[H])c(C([H])([H])C([H])([H])N([H])C(=O)N4C([H])([H])C([H])([H])C([H])([H])C([H])(n5nc(-c6c([H])c([H])c(Oc7c([H])c([H])c(F)c([H])c7F)c([H])c6[H])c(C(=O)N([H])[H])c5N([H])[H])C4([H])[H])c3C([H])([H])[H])c([H])c([H])c2C1([H])[H]

$$$$
21:0:0
     RDKit          3D

 96 97  0  0  1  0  0  0  0  0999 V2000
  -25.2370  -18.0250   17.8820 C   0  0  0  0  0  2  0  0  0  0  0  0
  -25.2720  -19.1860   21.2620 C   0  0  0  0  0  3  0  0  0  0  0  0
  -27.7140  -19.2860   20.0590 C   0  0  0  0  0  2  0  0  0  0  0  0
  -26.5140  -19.8470   21.0290 C   0  0  0  0  0  3  0  0  0  0  0  0
  -24.6300  -18.7070   20.1450 C   0  0  0  0  0  0  0  0  0  0  0  0
  -26.5890  -19.7110   19.0560 C   0  0  0  0  0  3  0  0  0  0  0  0
  -25.3320  -19.0120   18.9740 C   0  0  0  0  0  3  0  0  0  0  0  0
  -23.3040  -17.9490   20.2330 C   0  0  0  0  0  1  0  0  0  0  0  0
  -29.4830  -17.2380   20.1770 C   0  0  0  0  0  2  0  0  0  0  0  0
  -30.2500  -14.2900   19.5150 C   0  0  0  0  0  2  0  0  0  0  0  0
  -29.5840  -13.2220   18.4780 C   0  0  0  0  0  2  0  0  0  0  0  0
  -28.3410  -12.4930   19.0000 C   0  0  0  0  0  2  0  0  0  0  0  0
  -27.5820  -13.5020   19.8580 C   0  0  0  0  0  3  0  0  0  0  0  0
  -28.4930  -14.3840   20.8500 C   0  0  0  0  0  2  0  0  0  0  0  0
  -29.3860  -15.5220   20.1840 N   0  0  0  0  0  0  0  0  0  0  0  0
  -30.7610  -17.1140   20.0750 O   0  0  0  0  0  1  0  0  0  0  0  0
  -25.2450  -13.8150   20.7690 C   0  0  0  0  0  0  0  0  0  0  0  0
  -24.1620  -13.0180   20.9480 C   0  0  0  0  0  0  0  0  0  0  0  0
  -24.6580  -11.6840   20.8360 C   0  0  0  0  0  0  0  0  0  0  0  0
  -26.3070  -13.0120   20.4130 N   0  0  0  0  0  0  0  0  0  0  0  0
  -25.9620  -11.6930   20.5170 N   0  0  0  0  0  0  0  0  0  0  0  0
  -23.9300  -10.4200   21.0050 C   0  0  0  0  0  0  0  0  0  0  0  0
  -24.3800   -9.4160   21.8910 C   0  0  0  0  0  3  0  0  0  0  0  0
  -23.6370   -8.2270   22.0690 C   0  0  0  0  0  3  0  0  0  0  0  0
  -22.4280   -8.0320   21.3570 C   0  0  0  0  0  0  0  0  0  0  0  0
  -21.9990   -9.0220   20.4560 C   0  0  0  0  0  3  0  0  0  0  0  0
  -22.7440  -10.2010   20.2780 C   0  0  0  0  0  3  0  0  0  0  0  0
  -21.6570   -6.8970   21.4300 O   0  0  0  0  0  0  0  0  0  0  0  0
  -21.6850   -6.0800   22.5290 C   0  0  0  0  0  0  0  0  0  0  0  0
  -21.4030   -6.5690   23.8230 C   0  0  0  0  0  3  0  0  0  0  0  0
  -21.3700   -5.6830   24.9190 C   0  0  0  0  0  3  0  0  0  0  0  0
  -21.6060   -4.3080   24.7210 C   0  0  0  0  0  0  0  0  0  0  0  0
  -21.8770   -3.8180   23.4320 C   0  0  0  0  0  3  0  0  0  0  0  0
  -21.9190   -4.7030   22.3400 C   0  0  0  0  0  0  0  0  0  0  0  0
  -22.1620   -4.2270   21.0950 F   0  0  0  0  0  0  0  0  0  0  0  0
  -21.5650   -3.4520   25.7690 F   0  0  0  0  0  0  0  0  0  0  0  0
  -22.7570  -13.4850   21.1910 C   0  0  0  0  0  0  0  0  0  0  0  0
  -22.0230  -12.7870   22.0480 N   0  0  0  0  0  0  0  0  0  0  0  0
  -22.3250  -14.5050   20.6570 O   0  0  0  0  0  0  0  0  0  0  0  0
  -22.3950  -11.9640   22.5020 H   0  0  0  0  0  0  0  0  0  0  0  0
  -21.0820  -13.0780   22.2700 H   0  0  0  0  0  0  0  0  0  0  0  0
  -25.4270  -15.1620   20.9340 N   0  0  0  0  0  0  0  0  0  0  0  0
  -24.7200  -15.7430   21.3540 H   0  0  0  0  0  0  0  0  0  0  0  0
  -26.3500  -15.4700   21.2010 H   0  0  0  0  0  0  0  0  0  0  0  0
  -25.8500  -21.1800   23.3480 C   0  0  0  0  0  1  0  0  0  0  0  0
  -26.3260  -21.2090   21.8700 C   0  0  0  0  0  2  0  0  0  0  0  0
  -25.4170  -21.8250   17.9160 C   0  0  0  0  0  1  0  0  0  0  0  0
  -26.5950  -20.8280   17.9380 C   0  0  0  0  0  2  0  0  0  0  0  0
  -25.9910  -16.8800   18.5280 C   0  0  0  0  0  2  0  0  0  0  0  0
  -28.6040  -18.5080   18.1270 C   0  0  0  0  0 15  0  0  0  0  0  0
  -27.8320  -17.9440   21.8170 C   0  0  0  0  0 15  0  0  0  0  0  0
  -29.2770  -20.5200   18.7990 C   0  0  0  0  0 15  0  0  0  0  0  0
  -28.8700  -20.1300   21.8420 C   0  0  0  0  0 15  0  0  0  0  0  0
  -27.2500  -17.2000   19.4620 C   0  0  0  0  0  1  0  0  0  0  0  0
  -28.6460  -21.8580   20.3300 C   0  0  0  0  0 15  0  0  0  0  0  0
  -28.3310  -24.1330   20.3910 O   0  0  0  0  0  1  0  0  0  0  0  0
  -24.7850  -31.6770   23.0700 C   0  0  0  0  0  0  0  0  0  0  0  0
  -27.3870  -25.7440   20.3180 C   0  0  0  0  0  0  0  0  0  0  0  0
  -23.6550  -30.2330   21.4410 C   0  0  0  0  0  3  0  0  0  0  0  0
  -25.1420  -28.3490   20.1660 C   0  0  0  0  0  0  0  0  0  0  0  0
  -26.2670  -30.1000   21.4810 C   0  0  0  0  0  2  0  0  0  0  0  0
  -26.3470  -28.5540   20.8470 C   0  0  0  0  0  0  0  0  0  0  0  0
  -27.3900  -27.3230   20.8630 C   0  0  0  0  0  3  0  0  0  0  0  0
  -26.1360  -25.9970   19.5630 C   0  0  0  0  0  3  0  0  0  0  0  0
  -25.1390  -27.1010   19.4860 C   0  0  0  0  0  3  0  0  0  0  0  0
  -23.9650  -29.4110   20.1380 C   0  0  0  0  0  2  0  0  0  0  0  0
  -24.9400  -30.7280   22.0470 N   0  0  0  0  0  0  0  0  0  0  0  0
  -23.6630  -32.0240   23.5000 O   0  0  0  0  0  0  0  0  0  0  0  0
  -22.8240  -29.3680   22.4480 C   0  0  0  0  0  0  0  0  0  0  0  0
  -21.4720  -29.3170   22.3480 N   0  0  0  0  0  0  0  0  0  0  0  0
  -23.4250  -28.7290   23.3110 O   0  0  0  0  0  0  0  0  0  0  0  0
  -21.0020  -29.9590   21.7170 H   0  0  0  0  0  0  0  0  0  0  0  0
  -18.0320  -28.1650   22.8250 C   0  0  0  0  0  0  0  0  0  0  0  0
  -20.6000  -28.3870   23.0840 C   0  0  0  0  0  3  0  0  0  0  0  0
  -20.6710  -26.9480   22.5040 C   0  0  0  0  0  2  0  0  0  0  0  0
  -19.5650  -26.6050   21.4980 C   0  0  0  0  0  2  0  0  0  0  0  0
  -18.1700  -26.8320   22.1060 C   0  0  0  0  0  2  0  0  0  0  0  0
  -19.1640  -28.9080   23.2530 C   0  0  0  0  0  0  0  0  0  0  0  0
  -18.9680  -30.1560   23.8810 C   0  0  0  0  0  3  0  0  0  0  0  0
  -17.6680  -30.6740   24.0700 C   0  0  0  0  0  3  0  0  0  0  0  0
  -16.5560  -29.9330   23.6480 C   0  0  0  0  0  3  0  0  0  0  0  0
  -16.7340  -28.6700   23.0330 C   0  0  0  0  0  3  0  0  0  0  0  0
  -25.9920  -32.3860   23.7620 C   0  0  0  0  0  3  0  0  0  0  0  0
  -25.6050  -33.7750   24.1340 N   0  0  0  0  0  0  0  0  0  0  0  0
  -25.9220  -34.8960   23.4680 C   0  0  0  0  0  0  0  0  0  0  0  0
  -26.6010  -34.8690   22.4420 O   0  0  0  0  0  0  0  0  0  0  0  0
  -24.9960  -33.8630   24.9330 H   0  0  0  0  0  0  0  0  0  0  0  0
  -24.1500  -36.6930   23.2650 C   0  0  0  0  0  1  0  0  0  0  0  0
  -25.4160  -36.2540   24.0200 C   0  0  0  0  0  3  0  0  0  0  0  0
  -27.5520  -37.1590   24.8440 C   0  0  0  0  0  1  0  0  0  0  0  0
  -26.4190  -37.3400   23.9420 N   0  0  0  0  0  0  0  0  0  0  0  0
  -25.9910  -38.2380   24.1450 H   0  0  0  0  0  0  0  0  0  0  0  0
  -26.4790  -31.6320   25.0650 C   0  0  1  0  0  0  0  0  0  0  0  0
  -25.3570  -31.4000   26.1050 C   0  0  0  0  0  1  0  0  0  0  0  0
  -27.0860  -30.2560   24.7210 C   0  0  0  0  0  1  0  0  0  0  0  0
  -27.5960  -32.4480   25.7580 C   0  0  0  0  0  1  0  0  0  0  0  0
  1 49  1  0
  3  4  1  0
  4  2  1  0
  4 46  1  0
  5  8  1  0
  5  2  2  0
  6 48  1  0
  6  3  1  0
  7  1  1  0
  7  6  1  0
  7  5  1  0
  9 15  1  0
 10 15  1  0
 11 12  1  0
 11 10  1  0
 13 12  1  0
 13 20  1  0
 13 14  1  0
 15 14  1  0
 16  9  1  0
 17 42  1  0
 17 18  2  0
 18 37  1  0
 19 18  1  0
 19 22  1  0
 20 21  1  0
 20 17  1  0
 21 19  2  0
 22 23  1  0
 23 24  2  0
 25 28  1  0
 25 24  1  0
 26 25  2  0
 27 26  1  0
 27 22  2  0
 28 29  1  0
 29 30  1  0
 30 31  2  0
 32 31  1  0
 32 36  1  0
 33 32  2  0
 34 29  2  0
 34 33  1  0
 35 34  1  0
 37 38  1  0
 38 41  1  0
 38 40  1  0
 39 37  2  0
 42 44  1  0
 42 43  1  0
 46 45  1  0
 47 48  1  0
 49 54  1  0
 57 68  2  0
 58 56  1  0
 58 63  1  0
 59 67  1  0
 59 69  1  0
 60 62  1  0
 61 67  1  0
 62 63  2  0
 62 61  1  0
 64 58  2  0
 65 64  1  0
 65 60  2  0
 66 60  1  0
 66 59  1  0
 67 57  1  0
 69 71  2  0
 70 69  1  0
 72 70  1  0
 73 82  2  0
 73 78  1  0
 74 70  1  0
 74 78  1  0
 75 74  1  0
 76 77  1  0
 76 75  1  0
 77 73  1  0
 78 79  2  0
 79 80  1  0
 81 80  2  0
 82 81  1  0
 83 57  1  0
 83 84  1  0
 83 93  1  0
 84 87  1  0
 85 89  1  0
 85 84  1  0
 86 85  2  0
 89 88  1  0
 91 89  1  0
 91 92  1  0
 91 90  1  0
 93 96  1  1
 93 94  1  0
 95 93  1  0
M  ISO  4   3 100   9 100  55 101  56 101
M  END
>  <TORSDO>  (22) 
F 21

>  <SCORE>  (22) 
24.347

>  <name>  (22) 
21

>  <ligand_id>  (22) 
21

>  <original_smiles>  (22) 
[H]c1c([H])c([H])c2c(c1[H])C([H])([H])C([H])([H])C([H])([H])C2([H])N([H])C(=O)C1([H])N(C(=O)C([H])(N([H])C(=O)C([H])(N([H])C([H])([H])[H])C([H])([H])[H])C(C([H])([H])[H])(C([H])([H])[H])C([H])([H])[H])C([H])([H])c2c([H])c(OC3([H])C([H])([H])C([H])([H])C([H])(C([H])([H])C([H])([H])c4c(C([H])([H])[H])c([H])c(C([H])([H])C([H])([H])[H])c(C(=O)N5C([H])([H])C([H])([H])C([H])([H])C([H])(n6nc(-c7c([H])c([H])c(Oc8c([H])c([H])c(F)c([H])c8F)c([H])c7[H])c(C(=O)N([H])[H])c6N([H])[H])C5([H])[H])c4C([H])([H])C([H])([H])[H])C([H])([H])C3([H])[H])c([H])c([H])c2C1([H])[H]

>  <smiles>  (22) 
[H]c1c([H])c([H])c2c(c1[H])C([H])([H])C([H])([H])C([H])([H])C2([H])N([H])C(=O)C1([H])N(C(=O)C([H])(N([H])C(=O)C([H])(N([H])C([H])([H])[H])C([H])([H])[H])C(C([H])([H])[H])(C([H])([H])[H])C([H])([H])[H])C([H])([H])c2c([H])c(OC3([H])C([H])([H])C([H])([H])C([H])(C([H])([H])C([H])([H])c4c(C([H])([H])[H])c([H])c(C([H])([H])C([H])([H])[H])c(C(=O)N5C([H])([H])C([H])([H])C([H])([H])C([H])(n6nc(-c7c([H])c([H])c(Oc8c([H])c([H])c(F)c([H])c8F)c([H])c7[H])c(C(=O)N([H])[H])c6N([H])[H])C5([H])[H])c4C([H])([H])C([H])([H])[H])C([H])([H])C3([H])[H])c([H])c([H])c2C1([H])[H]

$$$$
22:0:0
     RDKit          3D

 93101  0  0  1  0  0  0  0  0999 V2000
  -30.4760  -18.7930   21.4670 C   0  0  0  0  0  3  0  0  0  0  0  0
  -28.9960  -19.5790   19.7350 C   0  0  0  0  0  3  0  0  0  0  0  0
  -29.6570  -18.3590   20.4060 C   0  0  0  0  0  0  0  0  0  0  0  0
  -30.6560  -20.1620   21.8250 C   0  0  0  0  0  0  0  0  0  0  0  0
  -29.1290  -21.0800   20.0580 C   0  0  0  0  0  0  0  0  0  0  0  0
  -30.0230  -21.2520   21.1430 C   0  0  0  0  0  0  0  0  0  0  0  0
  -30.3170  -22.5290   21.5210 O   0  0  0  0  0  0  0  0  0  0  0  0
  -30.8990  -22.5570   22.2710 H   0  0  0  0  0  0  0  0  0  0  0  0
  -29.4580  -16.6360   20.2210 C   0  0  0  0  0  2  0  0  0  0  0  0
  -30.4230  -15.1810   20.4500 C   0  0  0  0  0  0  0  0  0  0  0  0
  -30.5720  -12.6840   19.7570 C   0  0  0  0  0  2  0  0  0  0  0  0
  -29.7280  -12.4040   18.4840 C   0  0  0  0  0  2  0  0  0  0  0  0
  -28.2600  -12.1120   18.8490 C   0  0  0  0  0  2  0  0  0  0  0  0
  -27.7150  -13.1170   19.8930 C   0  0  0  0  0  3  0  0  0  0  0  0
  -28.6900  -13.3410   21.0650 C   0  0  0  0  0  2  0  0  0  0  0  0
  -29.9530  -13.8390   20.4990 N   0  0  0  0  0  0  0  0  0  0  0  0
  -31.6560  -15.2370   20.3300 O   0  0  0  0  0  0  0  0  0  0  0  0
  -25.3040  -13.6490   20.5340 C   0  0  0  0  0  0  0  0  0  0  0  0
  -24.2380  -12.8600   20.8640 C   0  0  0  0  0  0  0  0  0  0  0  0
  -24.7270  -11.5160   20.8730 C   0  0  0  0  0  0  0  0  0  0  0  0
  -26.3700  -12.7870   20.3450 N   0  0  0  0  0  0  0  0  0  0  0  0
  -26.0330  -11.4990   20.6200 N   0  0  0  0  0  0  0  0  0  0  0  0
  -24.0110  -10.2460   21.0470 C   0  0  0  0  0  0  0  0  0  0  0  0
  -24.4090   -9.2980   22.0160 C   0  0  0  0  0  3  0  0  0  0  0  0
  -23.6910   -8.0940   22.1770 C   0  0  0  0  0  3  0  0  0  0  0  0
  -22.5590   -7.8280   21.3710 C   0  0  0  0  0  0  0  0  0  0  0  0
  -22.1790   -8.7650   20.3930 C   0  0  0  0  0  3  0  0  0  0  0  0
  -22.8980   -9.9610   20.2300 C   0  0  0  0  0  3  0  0  0  0  0  0
  -21.8150   -6.6750   21.4390 O   0  0  0  0  0  0  0  0  0  0  0  0
  -21.7270   -5.9430   22.5960 C   0  0  0  0  0  0  0  0  0  0  0  0
  -21.2400   -6.5030   23.7970 C   0  0  0  0  0  3  0  0  0  0  0  0
  -21.1010   -5.6970   24.9450 C   0  0  0  0  0  3  0  0  0  0  0  0
  -21.4380   -4.3320   24.8920 C   0  0  0  0  0  0  0  0  0  0  0  0
  -21.9190   -3.7700   23.6960 C   0  0  0  0  0  3  0  0  0  0  0  0
  -22.0600   -4.5740   22.5500 C   0  0  0  0  0  0  0  0  0  0  0  0
  -22.5020   -4.0240   21.3940 F   0  0  0  0  0  0  0  0  0  0  0  0
  -21.2990   -3.5550   25.9920 F   0  0  0  0  0  0  0  0  0  0  0  0
  -22.8230  -13.3170   21.0600 C   0  0  0  0  0  0  0  0  0  0  0  0
  -22.0660  -12.6260   21.9040 N   0  0  0  0  0  0  0  0  0  0  0  0
  -22.3950  -14.3260   20.4990 O   0  0  0  0  0  0  0  0  0  0  0  0
  -22.4260  -11.8130   22.3810 H   0  0  0  0  0  0  0  0  0  0  0  0
  -21.1140  -12.9160   22.0770 H   0  0  0  0  0  0  0  0  0  0  0  0
  -25.4520  -15.0200   20.3470 N   0  0  0  0  0  0  0  0  0  0  0  0
  -24.6700  -15.6600   20.4250 H   0  0  0  0  0  0  0  0  0  0  0  0
  -26.3050  -15.4720   20.0450 H   0  0  0  0  0  0  0  0  0  0  0  0
  -31.6050  -20.4340   22.9910 C   0  0  0  0  0  2  0  0  0  0  0  0
  -30.9430  -21.1410   24.1910 C   0  0  0  0  0  2  0  0  0  0  0  0
  -30.3920  -22.5420   23.8730 C   0  0  0  0  0  2  0  0  0  0  0  0
  -29.1970  -24.6140   24.7570 C   0  0  0  0  0  1  0  0  0  0  0  0
  -29.7350  -23.2160   25.0870 C   0  0  0  0  0  2  0  0  0  0  0  0
  -28.5780  -22.5400   19.2680 C   0  0  0  0  0  2  0  0  0  0  0  0
  -27.9320  -24.1300   19.8110 C   0  0  0  0  0  2  0  0  0  0  0  0
  -27.9770  -25.6880   19.2780 O   0  0  0  0  0  0  0  0  0  0  0  0
  -24.6590  -31.5030   22.8030 C   0  0  0  0  0  0  0  0  0  0  0  0
  -26.9610  -26.7650   19.4100 C   0  0  0  0  0  0  0  0  0  0  0  0
  -23.3560  -30.2290   21.1470 C   0  0  0  0  0  3  0  0  0  0  0  0
  -24.6990  -28.6750   19.5770 C   0  0  0  0  0  0  0  0  0  0  0  0
  -25.9160  -30.4010   20.8860 C   0  0  0  0  0  2  0  0  0  0  0  0
  -25.9240  -29.0280   20.1550 C   0  0  0  0  0  0  0  0  0  0  0  0
  -27.0520  -28.1000   20.0410 C   0  0  0  0  0  3  0  0  0  0  0  0
  -25.7030  -26.5540   18.8050 C   0  0  0  0  0  3  0  0  0  0  0  0
  -24.6110  -27.4580   18.8800 C   0  0  0  0  0  3  0  0  0  0  0  0
  -23.5050  -29.6160   19.7260 C   0  0  0  0  0  2  0  0  0  0  0  0
  -24.6680  -30.7340   21.6660 N   0  0  0  0  0  0  0  0  0  0  0  0
  -23.6020  -31.7850   23.3900 O   0  0  0  0  0  0  0  0  0  0  0  0
  -22.6850  -29.1940   22.0870 C   0  0  0  0  0  0  0  0  0  0  0  0
  -21.3460  -29.0700   22.0210 N   0  0  0  0  0  0  0  0  0  0  0  0
  -23.3720  -28.5040   22.8430 O   0  0  0  0  0  0  0  0  0  0  0  0
  -20.8440  -29.6800   21.3890 H   0  0  0  0  0  0  0  0  0  0  0  0
  -17.9590  -27.9210   22.6320 C   0  0  0  0  0  0  0  0  0  0  0  0
  -20.5370  -28.1080   22.7760 C   0  0  0  0  0  3  0  0  0  0  0  0
  -20.5680  -26.7120   22.1120 C   0  0  0  0  0  2  0  0  0  0  0  0
  -19.4080  -26.4780   21.1400 C   0  0  0  0  0  2  0  0  0  0  0  0
  -18.0640  -26.6140   21.8630 C   0  0  0  0  0  2  0  0  0  0  0  0
  -19.1190  -28.6300   23.0470 C   0  0  0  0  0  0  0  0  0  0  0  0
  -18.9620  -29.8540   23.7320 C   0  0  0  0  0  3  0  0  0  0  0  0
  -17.6810  -30.3700   24.0020 C   0  0  0  0  0  3  0  0  0  0  0  0
  -16.5380  -29.6580   23.6010 C   0  0  0  0  0  3  0  0  0  0  0  0
  -16.6780  -28.4340   22.9220 C   0  0  0  0  0  3  0  0  0  0  0  0
  -25.9720  -32.0800   23.4110 C   0  0  0  0  0  3  0  0  0  0  0  0
  -25.6720  -33.4150   23.9560 N   0  0  0  0  0  0  0  0  0  0  0  0
  -25.9720  -34.5750   23.3550 C   0  0  0  0  0  0  0  0  0  0  0  0
  -26.5950  -34.6330   22.2920 O   0  0  0  0  0  0  0  0  0  0  0  0
  -25.1170  -33.4440   24.7980 H   0  0  0  0  0  0  0  0  0  0  0  0
  -24.2370  -36.4010   23.3620 C   0  0  0  0  0  1  0  0  0  0  0  0
  -25.5130  -35.8790   24.0410 C   0  0  0  0  0  3  0  0  0  0  0  0
  -27.6860  -36.6390   24.8970 C   0  0  0  0  0  1  0  0  0  0  0  0
  -26.5420  -36.9410   24.0410 N   0  0  0  0  0  0  0  0  0  0  0  0
  -26.1460  -37.8260   24.3450 H   0  0  0  0  0  0  0  0  0  0  0  0
  -26.5890  -31.1610   24.5370 C   0  0  1  0  0  0  0  0  0  0  0  0
  -25.5830  -30.7810   25.6500 C   0  0  0  0  0  1  0  0  0  0  0  0
  -27.1430  -29.8490   23.9380 C   0  0  0  0  0  1  0  0  0  0  0  0
  -27.7870  -31.8810   25.2020 C   0  0  0  0  0  1  0  0  0  0  0  0
  1  4  1  0
  2  5  2  0
  2  3  1  0
  3  1  2  0
  4 46  1  0
  5  6  1  0
  6  7  1  0
  6  4  2  0
  7  8  1  0
  9  3  1  0
  9 10  1  0
 10 16  1  0
 11 16  1  0
 12 13  1  0
 12 11  1  0
 14 13  1  0
 14 21  1  0
 14 15  1  0
 16 15  1  0
 17 10  2  0
 18 19  2  0
 19 20  1  0
 19 38  1  0
 20 23  1  0
 21 18  1  0
 21 22  1  0
 22 20  2  0
 23 24  1  0
 24 25  2  0
 26 29  1  0
 26 25  1  0
 27 26  2  0
 28 27  1  0
 28 23  2  0
 29 30  1  0
 30 31  1  0
 31 32  2  0
 33 32  1  0
 33 37  1  0
 34 33  2  0
 35 30  2  0
 35 34  1  0
 36 35  1  0
 38 39  1  0
 39 42  1  0
 39 41  1  0
 40 38  2  0
 43 44  1  0
 43 18  1  0
 45 43  1  0
 46 47  1  0
 48 47  1  0
 48 50  1  0
 49 50  1  0
 51 52  1  0
 51  5  1  0
 53 55  1  0
 53 52  1  0
 54 65  2  0
 55 60  1  0
 56 64  1  0
 56 66  1  0
 57 63  1  0
 57 59  1  0
 58 64  1  0
 59 58  1  0
 60 59  2  0
 61 62  1  0
 61 55  2  0
 62 57  2  0
 63 56  1  0
 64 54  1  0
 66 68  2  0
 67 66  1  0
 69 67  1  0
 70 79  2  0
 70 75  1  0
 71 67  1  0
 71 75  1  0
 72 71  1  0
 73 74  1  0
 73 72  1  0
 74 70  1  0
 75 76  2  0
 76 77  1  0
 78 77  2  0
 79 78  1  0
 80 54  1  0
 80 81  1  0
 80 90  1  0
 81 84  1  0
 82 81  1  0
 82 86  1  0
 83 82  2  0
 86 85  1  0
 86 88  1  0
 88 89  1  0
 88 87  1  0
 90 93  1  1
 90 91  1  0
 92 90  1  0
M  ISO  4   9 100  10 100  52 101  53 101
M  END
>  <TORSDO>  (23) 
F 24

>  <SCORE>  (23) 
-11.646

>  <name>  (23) 
22

>  <ligand_id>  (23) 
22

>  <original_smiles>  (23) 
[H]Oc1c(C([H])([H])C([H])([H])Oc2c([H])c([H])c3c(c2[H])C([H])([H])N(C(=O)C([H])(N([H])C(=O)C([H])(N([H])C([H])([H])[H])C([H])([H])[H])C(C([H])([H])[H])(C([H])([H])[H])C([H])([H])[H])C([H])(C(=O)N([H])C2([H])c4c([H])c([H])c([H])c([H])c4C([H])([H])C([H])([H])C2([H])[H])C3([H])[H])c([H])c(C([H])([H])C(=O)N2C([H])([H])C([H])([H])C([H])([H])C([H])(n3nc(-c4c([H])c([H])c(Oc5c([H])c([H])c(F)c([H])c5F)c([H])c4[H])c(C(=O)N([H])[H])c3N([H])[H])C2([H])[H])c([H])c1C([H])([H])C([H])([H])C([H])([H])C([H])([H])C([H])([H])[H]

>  <smiles>  (23) 
[H]Oc1c(C([H])([H])C([H])([H])Oc2c([H])c([H])c3c(c2[H])C([H])([H])N(C(=O)C([H])(N([H])C(=O)C([H])(N([H])C([H])([H])[H])C([H])([H])[H])C(C([H])([H])[H])(C([H])([H])[H])C([H])([H])[H])C([H])(C(=O)N([H])C2([H])c4c([H])c([H])c([H])c([H])c4C([H])([H])C([H])([H])C2([H])[H])C3([H])[H])c([H])c(C([H])([H])C(=O)N2C([H])([H])C([H])([H])C([H])([H])C([H])(n3nc(-c4c([H])c([H])c(Oc5c([H])c([H])c(F)c([H])c5F)c([H])c4[H])c(C(=O)N([H])[H])c3N([H])[H])C2([H])[H])c([H])c1C([H])([H])C([H])([H])C([H])([H])C([H])([H])C([H])([H])[H]

$$$$
23:0:0
     RDKit          3D

 90 99  0  0  1  0  0  0  0  0999 V2000
  -30.6830  -15.9030   20.0330 C   0  0  0  0  0  0  0  0  0  0  0  0
  -30.8330  -13.2970   19.5410 C   0  0  0  0  0  2  0  0  0  0  0  0
  -30.0080  -12.7310   18.3540 C   0  0  0  0  0  2  0  0  0  0  0  0
  -28.5810  -12.3920   18.8010 C   0  0  0  0  0  2  0  0  0  0  0  0
  -27.9990  -13.4980   19.7140 C   0  0  0  0  0  3  0  0  0  0  0  0
  -28.9740  -13.9910   20.8090 C   0  0  0  0  0  2  0  0  0  0  0  0
  -30.1530  -14.5480   20.1110 N   0  0  0  0  0  0  0  0  0  0  0  0
  -31.9150  -15.8080   19.8690 O   0  0  0  0  0  0  0  0  0  0  0  0
  -29.2280  -23.0300   18.9240 C   0  0  0  0  0  3  0  0  0  0  0  0
  -29.2230  -21.4890   19.2090 C   0  0  0  0  0  0  0  0  0  0  0  0
  -27.9960  -20.8830   19.5130 C   0  0  0  0  0  0  0  0  0  0  0  0
  -26.8900  -21.8440   19.5420 C   0  0  0  0  0  0  0  0  0  0  0  0
  -26.9580  -23.3220   19.3620 C   0  0  0  0  0  0  0  0  0  0  0  0
  -28.1090  -24.1080   18.9350 C   0  0  0  0  0  0  0  0  0  0  0  0
  -30.4350  -20.3320   19.3510 C   0  0  0  0  0  3  0  0  0  0  0  0
  -27.8720  -19.2360   19.6800 C   0  0  0  0  0  3  0  0  0  0  0  0
  -30.5290  -18.5990   19.0230 C   0  0  0  0  0  3  0  0  0  0  0  0
  -28.8290  -18.0670   20.4580 C   0  0  0  0  0  3  0  0  0  0  0  0
  -25.5110  -21.2240   19.7720 C   0  0  0  0  0  1  0  0  0  0  0  0
  -25.7120  -24.1200   19.7310 C   0  0  0  0  0  1  0  0  0  0  0  0
  -30.0050  -17.2910   19.8080 N   0  0  0  0  0  0  0  0  0  0  0  0
  -25.6460  -14.0420   20.4930 C   0  0  0  0  0  0  0  0  0  0  0  0
  -24.5800  -13.2660   20.8500 C   0  0  0  0  0  0  0  0  0  0  0  0
  -25.0390  -11.9140   20.7980 C   0  0  0  0  0  0  0  0  0  0  0  0
  -26.6820  -13.1660   20.2330 N   0  0  0  0  0  0  0  0  0  0  0  0
  -26.3310  -11.8760   20.4830 N   0  0  0  0  0  0  0  0  0  0  0  0
  -24.2990  -10.6540   20.9680 C   0  0  0  0  0  0  0  0  0  0  0  0
  -24.7030   -9.6790   21.9070 C   0  0  0  0  0  3  0  0  0  0  0  0
  -23.9610   -8.4900   22.0690 C   0  0  0  0  0  3  0  0  0  0  0  0
  -22.8010   -8.2650   21.2900 C   0  0  0  0  0  0  0  0  0  0  0  0
  -22.4170   -9.2270   20.3400 C   0  0  0  0  0  3  0  0  0  0  0  0
  -23.1590  -10.4090   20.1770 C   0  0  0  0  0  3  0  0  0  0  0  0
  -22.0330   -7.1280   21.3610 O   0  0  0  0  0  0  0  0  0  0  0  0
  -21.9020   -6.4180   22.5280 C   0  0  0  0  0  0  0  0  0  0  0  0
  -21.3560   -6.9950   23.6940 C   0  0  0  0  0  3  0  0  0  0  0  0
  -21.1760   -6.2110   24.8510 C   0  0  0  0  0  3  0  0  0  0  0  0
  -21.5320   -4.8490   24.8410 C   0  0  0  0  0  0  0  0  0  0  0  0
  -22.0710   -4.2700   23.6780 C   0  0  0  0  0  3  0  0  0  0  0  0
  -22.2520   -5.0530   22.5240 C   0  0  0  0  0  0  0  0  0  0  0  0
  -22.7520   -4.4840   21.4010 F   0  0  0  0  0  0  0  0  0  0  0  0
  -21.3520   -4.0930   25.9490 F   0  0  0  0  0  0  0  0  0  0  0  0
  -23.1880  -13.7520   21.1200 C   0  0  0  0  0  0  0  0  0  0  0  0
  -22.4620  -13.0720   22.0010 N   0  0  0  0  0  0  0  0  0  0  0  0
  -22.7530  -14.7710   20.5860 O   0  0  0  0  0  0  0  0  0  0  0  0
  -22.8290  -12.2490   22.4550 H   0  0  0  0  0  0  0  0  0  0  0  0
  -21.5270  -13.3800   22.2250 H   0  0  0  0  0  0  0  0  0  0  0  0
  -25.8200  -15.4140   20.3350 N   0  0  0  0  0  0  0  0  0  0  0  0
  -25.0560  -16.0710   20.4550 H   0  0  0  0  0  0  0  0  0  0  0  0
  -26.6690  -15.8490   19.9990 H   0  0  0  0  0  0  0  0  0  0  0  0
  -28.1270  -25.7030   18.6780 O   0  0  0  0  0  0  0  0  0  0  0  0
  -25.0800  -31.3880   22.9650 C   0  0  0  0  0  0  0  0  0  0  0  0
  -27.2060  -26.9200   18.9260 C   0  0  0  0  0  0  0  0  0  0  0  0
  -23.7480  -30.3880   21.1560 C   0  0  0  0  0  3  0  0  0  0  0  0
  -25.0440  -28.9990   19.3730 C   0  0  0  0  0  0  0  0  0  0  0  0
  -26.3200  -30.4510   20.9270 C   0  0  0  0  0  2  0  0  0  0  0  0
  -26.2780  -29.1740   20.0090 C   0  0  0  0  0  0  0  0  0  0  0  0
  -27.3420  -28.1630   19.7700 C   0  0  0  0  0  3  0  0  0  0  0  0
  -25.9660  -26.9830   18.2420 C   0  0  0  0  0  3  0  0  0  0  0  0
  -24.9240  -27.9310   18.4680 C   0  0  0  0  0  3  0  0  0  0  0  0
  -23.8880  -29.9660   19.6640 C   0  0  0  0  0  2  0  0  0  0  0  0
  -25.0760  -30.7630   21.7380 N   0  0  0  0  0  0  0  0  0  0  0  0
  -24.0290  -31.6270   23.5840 O   0  0  0  0  0  0  0  0  0  0  0  0
  -23.0320  -29.2670   21.9550 C   0  0  0  0  0  0  0  0  0  0  0  0
  -21.6910  -29.1820   21.8610 N   0  0  0  0  0  0  0  0  0  0  0  0
  -23.6940  -28.4750   22.6320 O   0  0  0  0  0  0  0  0  0  0  0  0
  -21.2090  -29.8720   21.3010 H   0  0  0  0  0  0  0  0  0  0  0  0
  -18.2700  -28.0930   22.4130 C   0  0  0  0  0  0  0  0  0  0  0  0
  -20.8560  -28.1450   22.4820 C   0  0  0  0  0  3  0  0  0  0  0  0
  -20.7970  -26.8760   21.5980 C   0  0  0  0  0  2  0  0  0  0  0  0
  -19.5970  -26.8590   20.6460 C   0  0  0  0  0  2  0  0  0  0  0  0
  -18.2860  -26.9300   21.4350 C   0  0  0  0  0  2  0  0  0  0  0  0
  -19.4740  -28.6740   22.8910 C   0  0  0  0  0  0  0  0  0  0  0  0
  -19.3990  -29.7720   23.7760 C   0  0  0  0  0  3  0  0  0  0  0  0
  -18.1530  -30.2870   24.1800 C   0  0  0  0  0  3  0  0  0  0  0  0
  -16.9640  -29.7010   23.7120 C   0  0  0  0  0  3  0  0  0  0  0  0
  -17.0240  -28.6040   22.8350 C   0  0  0  0  0  3  0  0  0  0  0  0
  -26.4050  -31.8480   23.6460 C   0  0  0  0  0  3  0  0  0  0  0  0
  -26.1750  -33.1740   24.2510 N   0  0  0  0  0  0  0  0  0  0  0  0
  -26.5110  -34.3450   23.6940 C   0  0  0  0  0  0  0  0  0  0  0  0
  -27.1060  -34.4210   22.6170 O   0  0  0  0  0  0  0  0  0  0  0  0
  -25.6420  -33.1880   25.1080 H   0  0  0  0  0  0  0  0  0  0  0  0
  -24.8530  -36.2380   23.8390 C   0  0  0  0  0  1  0  0  0  0  0  0
  -26.1300  -35.6370   24.4480 C   0  0  0  0  0  3  0  0  0  0  0  0
  -28.3520  -36.2900   25.2720 C   0  0  0  0  0  1  0  0  0  0  0  0
  -27.2020  -36.6590   24.4510 N   0  0  0  0  0  0  0  0  0  0  0  0
  -26.8480  -37.5510   24.7850 H   0  0  0  0  0  0  0  0  0  0  0  0
  -26.9150  -30.8380   24.7490 C   0  0  1  0  0  0  0  0  0  0  0  0
  -25.8480  -30.4840   25.8120 C   0  0  0  0  0  1  0  0  0  0  0  0
  -27.3940  -29.5140   24.1130 C   0  0  0  0  0  1  0  0  0  0  0  0
  -28.1380  -31.4380   25.4820 C   0  0  0  0  0  1  0  0  0  0  0  0
  1  7  1  0
  2  7  1  0
  3  4  1  0
  3  2  1  0
  5  4  1  0
  5 25  1  0
  5  6  1  0
  7  6  1  0
  8  1  2  0
  9 14  2  0
  9 10  1  0
 10 15  1  0
 10 11  2  0
 11 12  1  0
 11 16  1  0
 12 19  1  0
 13 12  2  0
 13 20  1  0
 14 13  1  0
 16 18  2  0
 17 15  2  0
 17 21  1  0
 21  1  1  0
 21 18  1  0
 22 23  2  0
 23 42  1  0
 24 23  1  0
 24 27  1  0
 25 26  1  0
 25 22  1  0
 26 24  2  0
 27 28  1  0
 28 29  2  0
 30 33  1  0
 30 29  1  0
 31 30  2  0
 32 31  1  0
 32 27  2  0
 33 34  1  0
 34 35  1  0
 35 36  2  0
 37 36  1  0
 37 41  1  0
 38 37  2  0
 39 34  2  0
 39 38  1  0
 40 39  1  0
 42 43  1  0
 43 46  1  0
 43 45  1  0
 44 42  2  0
 47 48  1  0
 47 22  1  0
 49 47  1  0
 50 52  1  0
 50 14  1  0
 51 62  2  0
 52 57  1  0
 53 61  1  0
 53 63  1  0
 54 60  1  0
 54 56  1  0
 55 61  1  0
 56 55  1  0
 57 56  2  0
 58 59  1  0
 58 52  2  0
 59 54  2  0
 60 53  1  0
 61 51  1  0
 63 65  2  0
 64 63  1  0
 66 64  1  0
 67 76  2  0
 67 72  1  0
 68 64  1  0
 68 72  1  0
 69 68  1  0
 70 71  1  0
 70 69  1  0
 71 67  1  0
 72 73  2  0
 73 74  1  0
 75 74  2  0
 76 75  1  0
 77 51  1  0
 77 78  1  0
 77 87  1  0
 78 81  1  0
 79 78  1  0
 79 83  1  0
 80 79  2  0
 83 82  1  0
 83 85  1  0
 85 86  1  0
 85 84  1  0
 87 90  1  1
 87 88  1  0
 89 87  1  0
M  ISO  4   1 100  14 101  21 100  50 101
M  END
>  <TORSDO>  (24) 
F 15

>  <SCORE>  (24) 
-12.356

>  <name>  (24) 
23

>  <ligand_id>  (24) 
23

>  <original_smiles>  (24) 
[H]c1c([H])c([H])c2c(c1[H])C([H])([H])C([H])([H])C([H])([H])C2([H])N([H])C(=O)C1([H])N(C(=O)C([H])(N([H])C(=O)C([H])(N([H])C([H])([H])[H])C([H])([H])[H])C(C([H])([H])[H])(C([H])([H])[H])C([H])([H])[H])C([H])([H])c2c([H])c(Oc3c([H])c4c(c(C([H])([H])[H])c3C([H])([H])[H])C([H])([H])C([H])([H])N(C(=O)N3C([H])([H])C([H])([H])C([H])([H])C([H])(n5nc(-c6c([H])c([H])c(Oc7c([H])c([H])c(F)c([H])c7F)c([H])c6[H])c(C(=O)N([H])[H])c5N([H])[H])C3([H])[H])C([H])([H])C4([H])[H])c([H])c([H])c2C1([H])[H]

>  <smiles>  (24) 
[H]c1c([H])c([H])c2c(c1[H])C([H])([H])C([H])([H])C([H])([H])C2([H])N([H])C(=O)C1([H])N(C(=O)C([H])(N([H])C(=O)C([H])(N([H])C([H])([H])[H])C([H])([H])[H])C(C([H])([H])[H])(C([H])([H])[H])C([H])([H])[H])C([H])([H])c2c([H])c(Oc3c([H])c4c(c(C([H])([H])[H])c3C([H])([H])[H])C([H])([H])C([H])([H])N(C(=O)N3C([H])([H])C([H])([H])C([H])([H])C([H])(n5nc(-c6c([H])c([H])c(Oc7c([H])c([H])c(F)c([H])c7F)c([H])c6[H])c(C(=O)N([H])[H])c5N([H])[H])C3([H])[H])C([H])([H])C4([H])[H])c([H])c([H])c2C1([H])[H]

$$$$
24:0:0
     RDKit          3D

 97105  0  0  1  0  0  0  0  0999 V2000
  -31.6080  -17.3810   15.8700 C   0  0  0  0  0  2  0  0  0  0  0  0
  -32.6700  -16.4540   16.5420 C   0  0  0  0  0  2  0  0  0  0  0  0
  -32.9590  -15.1670   15.7550 C   0  0  0  0  0  2  0  0  0  0  0  0
  -33.9400  -14.2330   16.4800 C   0  0  0  0  0  2  0  0  0  0  0  0
  -33.3080  -12.9420   17.1420 C   0  0  0  0  0  2  0  0  0  0  0  0
  -34.9850  -12.1350   18.6750 C   0  0  0  0  0  3  0  0  0  0  0  0
  -33.7360  -12.6490   18.6030 C   0  0  0  0  0  0  0  0  0  0  0  0
  -34.7840  -11.6730   21.1360 C   0  0  0  0  0  0  0  0  0  0  0  0
  -33.7990  -12.8320   21.1220 C   0  0  0  0  0  2  0  0  0  0  0  0
  -35.6790  -11.5490   19.8900 C   0  0  0  0  0  3  0  0  0  0  0  0
  -32.8440  -12.6810   19.9130 C   0  0  0  0  0  3  0  0  0  0  0  0
  -36.0570  -10.0810   19.5980 C   0  0  0  0  0  1  0  0  0  0  0  0
  -34.8820  -10.9300   22.1130 O   0  0  0  0  0  0  0  0  0  0  0  0
  -31.6030  -13.6020   20.1960 C   0  0  0  0  0  0  0  0  0  0  0  0
  -30.2580  -13.1620   18.5230 C   0  0  0  0  0  2  0  0  0  0  0  0
  -29.4390  -12.0420   17.9490 C   0  0  0  0  0  2  0  0  0  0  0  0
  -27.9820  -12.3470   18.3570 C   0  0  0  0  0  2  0  0  0  0  0  0
  -27.8490  -13.1770   19.6890 C   0  0  0  0  0  3  0  0  0  0  0  0
  -29.0950  -13.1110   20.6940 C   0  0  0  0  0  2  0  0  0  0  0  0
  -30.3950  -13.0580   19.9530 N   0  0  0  0  0  0  0  0  0  0  0  0
  -31.8470  -14.7970   20.2110 O   0  0  0  0  0  0  0  0  0  0  0  0
  -25.4790  -13.8810   20.4700 C   0  0  0  0  0  0  0  0  0  0  0  0
  -24.3760  -13.1590   20.8270 C   0  0  0  0  0  0  0  0  0  0  0  0
  -24.7740  -11.7870   20.7670 C   0  0  0  0  0  0  0  0  0  0  0  0
  -26.5010  -12.9740   20.2390 N   0  0  0  0  0  0  0  0  0  0  0  0
  -26.0580  -11.7020   20.4570 N   0  0  0  0  0  0  0  0  0  0  0  0
  -23.9940  -10.5490   20.9610 C   0  0  0  0  0  0  0  0  0  0  0  0
  -24.3720   -9.5580   21.9040 C   0  0  0  0  0  3  0  0  0  0  0  0
  -23.6080   -8.3950   22.0730 C   0  0  0  0  0  3  0  0  0  0  0  0
  -22.4270   -8.1960   21.3220 C   0  0  0  0  0  0  0  0  0  0  0  0
  -22.0480   -9.1850   20.3850 C   0  0  0  0  0  3  0  0  0  0  0  0
  -22.8200  -10.3430   20.2120 C   0  0  0  0  0  3  0  0  0  0  0  0
  -21.6200   -7.0990   21.4300 O   0  0  0  0  0  0  0  0  0  0  0  0
  -21.5760   -6.3280   22.5730 C   0  0  0  0  0  0  0  0  0  0  0  0
  -21.2150   -6.8900   23.8190 C   0  0  0  0  0  3  0  0  0  0  0  0
  -21.1220   -6.0610   24.9550 C   0  0  0  0  0  3  0  0  0  0  0  0
  -21.3890   -4.6810   24.8440 C   0  0  0  0  0  0  0  0  0  0  0  0
  -21.7480   -4.1270   23.6040 C   0  0  0  0  0  3  0  0  0  0  0  0
  -21.8270   -4.9560   22.4700 C   0  0  0  0  0  0  0  0  0  0  0  0
  -22.1650   -4.4100   21.2730 F   0  0  0  0  0  0  0  0  0  0  0  0
  -21.2690   -3.8870   25.9340 F   0  0  0  0  0  0  0  0  0  0  0  0
  -22.9770  -13.6680   21.0940 C   0  0  0  0  0  0  0  0  0  0  0  0
  -22.2150  -12.9990   21.9490 N   0  0  0  0  0  0  0  0  0  0  0  0
  -22.5530  -14.7250   20.5940 O   0  0  0  0  0  0  0  0  0  0  0  0
  -22.5040  -12.1310   22.3800 H   0  0  0  0  0  0  0  0  0  0  0  0
  -21.3050  -13.3650   22.1940 H   0  0  0  0  0  0  0  0  0  0  0  0
  -25.6840  -15.2480   20.2530 N   0  0  0  0  0  0  0  0  0  0  0  0
  -24.9450  -15.9100   20.4580 H   0  0  0  0  0  0  0  0  0  0  0  0
  -26.4820  -15.6730   19.7980 H   0  0  0  0  0  0  0  0  0  0  0  0
  -31.5210  -18.7740   16.5450 C   0  0  0  0  0  2  0  0  0  0  0  0
  -30.2290  -19.6360   16.3820 C   0  0  0  0  0  2  0  0  0  0  0  0
  -30.2670  -20.8960   17.3340 C   0  0  0  0  0  2  0  0  0  0  0  0
  -29.2440  -22.1020   17.2400 C   0  0  0  0  0  2  0  0  0  0  0  0
  -29.3000  -22.9830   18.5530 C   0  0  0  0  0  2  0  0  0  0  0  0
  -28.8970  -24.5090   18.5360 C   0  0  0  0  0  2  0  0  0  0  0  0
  -28.4430  -25.0880   19.9300 C   0  0  0  0  0  2  0  0  0  0  0  0
  -28.4740  -26.5380   20.1440 O   0  0  0  0  0  0  0  0  0  0  0  0
  -24.5930  -31.8530   23.2160 C   0  0  0  0  0  0  0  0  0  0  0  0
  -27.2960  -27.2880   20.1940 C   0  0  0  0  0  0  0  0  0  0  0  0
  -23.4150  -30.4130   21.5960 C   0  0  0  0  0  3  0  0  0  0  0  0
  -24.8950  -28.8240   20.2360 C   0  0  0  0  0  0  0  0  0  0  0  0
  -25.9530  -30.7410   21.4410 C   0  0  0  0  0  2  0  0  0  0  0  0
  -26.0580  -29.3430   20.8200 C   0  0  0  0  0  0  0  0  0  0  0  0
  -27.2670  -28.5810   20.7970 C   0  0  0  0  0  3  0  0  0  0  0  0
  -26.1130  -26.8070   19.5970 C   0  0  0  0  0  3  0  0  0  0  0  0
  -24.9230  -27.5540   19.6360 C   0  0  0  0  0  3  0  0  0  0  0  0
  -23.6520  -29.6980   20.2410 C   0  0  0  0  0  2  0  0  0  0  0  0
  -24.6660  -31.0220   22.1380 N   0  0  0  0  0  0  0  0  0  0  0  0
  -23.5030  -32.1440   23.7270 O   0  0  0  0  0  0  0  0  0  0  0  0
  -22.7440  -29.4190   22.5700 C   0  0  0  0  0  0  0  0  0  0  0  0
  -21.4170  -29.2480   22.4380 N   0  0  0  0  0  0  0  0  0  0  0  0
  -23.4130  -28.8050   23.4050 O   0  0  0  0  0  0  0  0  0  0  0  0
  -20.9380  -29.7950   21.7330 H   0  0  0  0  0  0  0  0  0  0  0  0
  -18.0240  -28.1050   22.9620 C   0  0  0  0  0  0  0  0  0  0  0  0
  -20.5890  -28.3300   23.2200 C   0  0  0  0  0  3  0  0  0  0  0  0
  -20.6630  -26.8880   22.6610 C   0  0  0  0  0  2  0  0  0  0  0  0
  -19.5550  -26.5760   21.6500 C   0  0  0  0  0  2  0  0  0  0  0  0
  -18.1780  -26.7470   22.2980 C   0  0  0  0  0  2  0  0  0  0  0  0
  -19.1570  -28.8500   23.3840 C   0  0  0  0  0  0  0  0  0  0  0  0
  -18.9630  -30.1200   23.9660 C   0  0  0  0  0  3  0  0  0  0  0  0
  -17.6670  -30.6440   24.1360 C   0  0  0  0  0  3  0  0  0  0  0  0
  -16.5490  -29.8940   23.7330 C   0  0  0  0  0  3  0  0  0  0  0  0
  -16.7290  -28.6280   23.1470 C   0  0  0  0  0  3  0  0  0  0  0  0
  -25.8670  -32.5030   23.8420 C   0  0  0  0  0  3  0  0  0  0  0  0
  -26.3770  -31.7380   25.1240 C   0  0  1  0  0  0  0  0  0  0  0  0
  -25.2710  -31.4890   26.1810 C   0  0  0  0  0  1  0  0  0  0  0  0
  -26.9780  -30.3650   24.7480 C   0  0  0  0  0  1  0  0  0  0  0  0
  -27.5200  -32.5360   25.7880 C   0  0  0  0  0  1  0  0  0  0  0  0
  -25.5360  -33.8980   24.1730 N   0  0  0  0  0  0  0  0  0  0  0  0
  -25.8430  -34.9530   23.4060 C   0  0  0  0  0  0  0  0  0  0  0  0
  -26.5090  -34.8560   22.3750 O   0  0  0  0  0  0  0  0  0  0  0  0
  -24.9470  -34.0420   24.9810 H   0  0  0  0  0  0  0  0  0  0  0  0
  -24.0860  -36.7050   23.0410 C   0  0  0  0  0  1  0  0  0  0  0  0
  -25.3330  -36.3360   23.8590 C   0  0  0  0  0  3  0  0  0  0  0  0
  -27.4560  -37.2600   24.6760 C   0  0  0  0  0  1  0  0  0  0  0  0
  -26.3490  -37.4020   23.7300 N   0  0  0  0  0  0  0  0  0  0  0  0
  -25.9360  -38.3190   23.8720 H   0  0  0  0  0  0  0  0  0  0  0  0
  1  2  1  0
  1 50  1  0
  3  4  1  0
  3  2  1  0
  4  5  1  0
  5  7  1  0
  6 10  1  0
  7  6  2  0
  7 11  1  0
  8 13  2  0
  9  8  1  0
 10 12  1  0
 10  8  1  0
 11 14  1  0
 11  9  1  0
 14 21  2  0
 15 20  1  0
 16 17  1  0
 16 15  1  0
 18 17  1  0
 18 25  1  0
 18 19  1  0
 20 14  1  0
 20 19  1  0
 22 23  2  0
 23 42  1  0
 24 23  1  0
 24 27  1  0
 25 26  1  0
 25 22  1  0
 26 24  2  0
 27 28  1  0
 28 29  2  0
 30 33  1  0
 30 29  1  0
 31 30  2  0
 32 31  1  0
 32 27  2  0
 33 34  1  0
 34 35  1  0
 35 36  2  0
 37 36  1  0
 37 41  1  0
 38 37  2  0
 39 34  2  0
 39 38  1  0
 40 39  1  0
 42 43  1  0
 43 46  1  0
 43 45  1  0
 44 42  2  0
 47 48  1  0
 47 22  1  0
 49 47  1  0
 51 50  1  0
 51 52  1  0
 53 52  1  0
 53 54  1  0
 55 54  1  0
 55 56  1  0
 56 57  1  0
 57 59  1  0
 58 69  2  0
 59 64  1  0
 60 68  1  0
 60 70  1  0
 61 67  1  0
 61 63  1  0
 62 68  1  0
 63 62  1  0
 64 63  2  0
 65 66  1  0
 65 59  2  0
 66 61  2  0
 67 60  1  0
 68 58  1  0
 70 72  2  0
 71 70  1  0
 73 71  1  0
 74 83  2  0
 74 79  1  0
 75 71  1  0
 75 79  1  0
 76 75  1  0
 77 78  1  0
 77 76  1  0
 78 74  1  0
 79 80  2  0
 80 81  1  0
 82 81  2  0
 83 82  1  0
 84 58  1  0
 84 89  1  0
 84 85  1  0
 85 88  1  1
 85 86  1  0
 87 85  1  0
 89 92  1  0
 90 94  1  0
 90 89  1  0
 91 90  2  0
 94 93  1  0
 96 94  1  0
 96 97  1  0
 96 95  1  0
M  ISO  4  11 100  14 100  56 101  57 101
M  END
>  <TORSDO>  (25) 
F 28

>  <SCORE>  (25) 
-11.352

>  <name>  (25) 
24

>  <ligand_id>  (25) 
24

>  <original_smiles>  (25) 
[H]C1=C(C([H])([H])C([H])([H])C([H])([H])C([H])([H])C([H])([H])C([H])([H])C([H])([H])C([H])([H])C([H])([H])C([H])([H])C([H])([H])C([H])([H])Oc2c([H])c([H])c3c(c2[H])C([H])([H])N(C(=O)C([H])(N([H])C(=O)C([H])(N([H])C([H])([H])[H])C([H])([H])[H])C(C([H])([H])[H])(C([H])([H])[H])C([H])([H])[H])C([H])(C(=O)N([H])C2([H])c4c([H])c([H])c([H])c([H])c4C([H])([H])C([H])([H])C2([H])[H])C3([H])[H])C([H])(C(=O)N2C([H])([H])C([H])([H])C([H])([H])C([H])(n3nc(-c4c([H])c([H])c(Oc5c([H])c([H])c(F)c([H])c5F)c([H])c4[H])c(C(=O)N([H])[H])c3N([H])[H])C2([H])[H])C([H])([H])C(=O)C1([H])C([H])([H])[H]

>  <smiles>  (25) 
[H]C1=C(C([H])([H])C([H])([H])C([H])([H])C([H])([H])C([H])([H])C([H])([H])C([H])([H])C([H])([H])C([H])([H])C([H])([H])C([H])([H])C([H])([H])Oc2c([H])c([H])c3c(c2[H])C([H])([H])N(C(=O)C([H])(N([H])C(=O)C([H])(N([H])C([H])([H])[H])C([H])([H])[H])C(C([H])([H])[H])(C([H])([H])[H])C([H])([H])[H])C([H])(C(=O)N([H])C2([H])c4c([H])c([H])c([H])c([H])c4C([H])([H])C([H])([H])C2([H])[H])C3([H])[H])C([H])(C(=O)N2C([H])([H])C([H])([H])C([H])([H])C([H])(n3nc(-c4c([H])c([H])c(Oc5c([H])c([H])c(F)c([H])c5F)c([H])c4[H])c(C(=O)N([H])[H])c3N([H])[H])C2([H])[H])C([H])([H])C(=O)C1([H])C([H])([H])[H]

$$$$
25:0:0
     RDKit          3D

 90 98  0  0  1  0  0  0  0  0999 V2000
  -27.9760  -22.0790   21.0970 C   0  0  0  0  0  3  0  0  0  0  0  0
  -29.0650  -23.6830   19.2240 C   0  0  0  0  0  3  0  0  0  0  0  0
  -28.7670  -21.2330   20.1930 C   0  0  0  0  0  0  0  0  0  0  0  0
  -27.7480  -23.5540   21.0950 C   0  0  0  0  0  0  0  0  0  0  0  0
  -29.2950  -22.2030   19.2260 C   0  0  0  0  0  0  0  0  0  0  0  0
  -28.2710  -24.5110   20.1310 C   0  0  0  0  0  0  0  0  0  0  0  0
  -26.9020  -24.1250   22.2180 C   0  0  0  0  0  1  0  0  0  0  0  0
  -30.1250  -21.6680   18.0780 C   0  0  0  0  0  1  0  0  0  0  0  0
  -28.8380  -19.5070   20.3820 C   0  0  0  0  0  0  0  0  0  0  0  0
  -27.9120  -19.1250   21.1020 O   0  0  0  0  0  0  0  0  0  0  0  0
  -29.5930  -16.7470   20.1540 C   0  0  0  0  0  3  0  0  0  0  0  0
  -29.7970  -18.1940   19.9230 C   0  0  0  0  0  0  0  0  0  0  0  0
  -31.0420  -18.6620   19.1960 C   0  0  0  0  0  1  0  0  0  0  0  0
  -30.4240  -15.3820   19.8590 C   0  0  0  0  0  0  0  0  0  0  0  0
  -30.3880  -12.9300   19.0130 C   0  0  0  0  0  2  0  0  0  0  0  0
  -29.4040  -12.7380   17.8300 C   0  0  0  0  0  2  0  0  0  0  0  0
  -27.9830  -12.4520   18.3440 C   0  0  0  0  0  2  0  0  0  0  0  0
  -27.5890  -13.3970   19.5060 C   0  0  0  0  0  3  0  0  0  0  0  0
  -28.6950  -13.5480   20.5690 C   0  0  0  0  0  2  0  0  0  0  0  0
  -29.8930  -14.0600   19.8850 N   0  0  0  0  0  0  0  0  0  0  0  0
  -31.6100  -15.3800   19.4970 O   0  0  0  0  0  0  0  0  0  0  0  0
  -25.2760  -13.9170   20.4420 C   0  0  0  0  0  0  0  0  0  0  0  0
  -24.2460  -13.1220   20.8600 C   0  0  0  0  0  0  0  0  0  0  0  0
  -24.7130  -11.7760   20.7520 C   0  0  0  0  0  0  0  0  0  0  0  0
  -26.3010  -13.0570   20.0940 N   0  0  0  0  0  0  0  0  0  0  0  0
  -25.9810  -11.7600   20.3470 N   0  0  0  0  0  0  0  0  0  0  0  0
  -24.0050  -10.5040   20.9520 C   0  0  0  0  0  0  0  0  0  0  0  0
  -24.4710   -9.5340   21.8670 C   0  0  0  0  0  3  0  0  0  0  0  0
  -23.7590   -8.3300   22.0560 C   0  0  0  0  0  3  0  0  0  0  0  0
  -22.5670   -8.0870   21.3320 C   0  0  0  0  0  0  0  0  0  0  0  0
  -22.1210   -9.0470   20.4060 C   0  0  0  0  0  3  0  0  0  0  0  0
  -22.8330  -10.2420   20.2140 C   0  0  0  0  0  3  0  0  0  0  0  0
  -21.8250   -6.9350   21.4310 O   0  0  0  0  0  0  0  0  0  0  0  0
  -21.7640   -6.2150   22.5980 C   0  0  0  0  0  0  0  0  0  0  0  0
  -21.2890   -6.7840   23.7990 C   0  0  0  0  0  3  0  0  0  0  0  0
  -21.1780   -5.9900   24.9580 C   0  0  0  0  0  3  0  0  0  0  0  0
  -21.5310   -4.6270   24.9150 C   0  0  0  0  0  0  0  0  0  0  0  0
  -21.9990   -4.0580   23.7180 C   0  0  0  0  0  3  0  0  0  0  0  0
  -22.1120   -4.8500   22.5620 C   0  0  0  0  0  0  0  0  0  0  0  0
  -22.5420   -4.2910   21.4040 F   0  0  0  0  0  0  0  0  0  0  0  0
  -21.4170   -3.8620   26.0260 F   0  0  0  0  0  0  0  0  0  0  0  0
  -22.8700  -13.5830   21.2400 C   0  0  0  0  0  0  0  0  0  0  0  0
  -22.2090  -12.8640   22.1390 N   0  0  0  0  0  0  0  0  0  0  0  0
  -22.3930  -14.6170   20.7740 O   0  0  0  0  0  0  0  0  0  0  0  0
  -22.6110  -12.0280   22.5360 H   0  0  0  0  0  0  0  0  0  0  0  0
  -21.2870  -13.1530   22.4340 H   0  0  0  0  0  0  0  0  0  0  0  0
  -25.4240  -15.2940   20.3020 N   0  0  0  0  0  0  0  0  0  0  0  0
  -24.6680  -15.9420   20.4960 H   0  0  0  0  0  0  0  0  0  0  0  0
  -26.2480  -15.7490   19.9290 H   0  0  0  0  0  0  0  0  0  0  0  0
  -28.2440  -26.0480   20.1540 O   0  0  0  0  0  0  0  0  0  0  0  0
  -24.6500  -31.9130   23.2240 C   0  0  0  0  0  0  0  0  0  0  0  0
  -27.1800  -27.0800   20.1560 C   0  0  0  0  0  0  0  0  0  0  0  0
  -23.4420  -30.5360   21.5780 C   0  0  0  0  0  3  0  0  0  0  0  0
  -24.8780  -28.9400   20.1350 C   0  0  0  0  0  0  0  0  0  0  0  0
  -26.0050  -30.7510   21.4160 C   0  0  0  0  0  2  0  0  0  0  0  0
  -26.0660  -29.3470   20.7540 C   0  0  0  0  0  0  0  0  0  0  0  0
  -27.2110  -28.4360   20.7390 C   0  0  0  0  0  3  0  0  0  0  0  0
  -25.9650  -26.8150   19.4890 C   0  0  0  0  0  3  0  0  0  0  0  0
  -24.8500  -27.6930   19.4850 C   0  0  0  0  0  3  0  0  0  0  0  0
  -23.6600  -29.8600   20.1950 C   0  0  0  0  0  2  0  0  0  0  0  0
  -24.7200  -31.0940   22.1260 N   0  0  0  0  0  0  0  0  0  0  0  0
  -23.5650  -32.2000   23.7560 O   0  0  0  0  0  0  0  0  0  0  0  0
  -22.7550  -29.5320   22.5390 C   0  0  0  0  0  0  0  0  0  0  0  0
  -21.4250  -29.3610   22.4120 N   0  0  0  0  0  0  0  0  0  0  0  0
  -23.4230  -28.9050   23.3650 O   0  0  0  0  0  0  0  0  0  0  0  0
  -20.9390  -29.9190   21.7240 H   0  0  0  0  0  0  0  0  0  0  0  0
  -18.0480  -28.1360   22.9090 C   0  0  0  0  0  0  0  0  0  0  0  0
  -20.6060  -28.4150   23.1770 C   0  0  0  0  0  3  0  0  0  0  0  0
  -20.7160  -26.9870   22.5960 C   0  0  0  0  0  2  0  0  0  0  0  0
  -19.6170  -26.6630   21.5780 C   0  0  0  0  0  2  0  0  0  0  0  0
  -18.2340  -26.7940   22.2220 C   0  0  0  0  0  2  0  0  0  0  0  0
  -19.1620  -28.9050   23.3430 C   0  0  0  0  0  0  0  0  0  0  0  0
  -18.9310  -30.1590   23.9480 C   0  0  0  0  0  3  0  0  0  0  0  0
  -17.6210  -30.6460   24.1230 C   0  0  0  0  0  3  0  0  0  0  0  0
  -16.5230  -29.8750   23.7030 C   0  0  0  0  0  3  0  0  0  0  0  0
  -16.7380  -28.6220   23.1030 C   0  0  0  0  0  3  0  0  0  0  0  0
  -25.9280  -32.5460   23.8560 C   0  0  0  0  0  3  0  0  0  0  0  0
  -25.6180  -33.9440   24.2050 N   0  0  0  0  0  0  0  0  0  0  0  0
  -25.9220  -35.0090   23.4490 C   0  0  0  0  0  0  0  0  0  0  0  0
  -26.5540  -34.9170   22.3950 O   0  0  0  0  0  0  0  0  0  0  0  0
  -25.0520  -34.0880   25.0280 H   0  0  0  0  0  0  0  0  0  0  0  0
  -24.1630  -36.7950   23.2000 C   0  0  0  0  0  1  0  0  0  0  0  0
  -25.4500  -36.3940   23.9390 C   0  0  0  0  0  3  0  0  0  0  0  0
  -27.6170  -37.3000   24.6590 C   0  0  0  0  0  1  0  0  0  0  0  0
  -26.4660  -37.4560   23.7730 N   0  0  0  0  0  0  0  0  0  0  0  0
  -26.0600  -38.3730   23.9410 H   0  0  0  0  0  0  0  0  0  0  0  0
  -26.4370  -31.7690   25.1330 C   0  0  1  0  0  0  0  0  0  0  0  0
  -25.3400  -31.5340   26.1990 C   0  0  0  0  0  1  0  0  0  0  0  0
  -27.0150  -30.3880   24.7470 C   0  0  0  0  0  1  0  0  0  0  0  0
  -27.5900  -32.5550   25.8010 C   0  0  0  0  0  1  0  0  0  0  0  0
  2  5  2  0
  2  6  1  0
  3  9  1  0
  3  1  2  0
  4  1  1  0
  4  7  1  0
  5  3  1  0
  6 50  1  0
  6  4  2  0
  8  5  1  0
  9 10  2  0
 12 11  2  0
 12  9  1  0
 13 12  1  0
 14 20  1  0
 14 11  1  0
 15 20  1  0
 16 17  1  0
 16 15  1  0
 18 17  1  0
 18 25  1  0
 18 19  1  0
 20 19  1  0
 21 14  2  0
 22 23  2  0
 23 42  1  0
 24 23  1  0
 24 27  1  0
 25 26  1  0
 25 22  1  0
 26 24  2  0
 27 28  1  0
 28 29  2  0
 30 33  1  0
 30 29  1  0
 31 30  2  0
 32 31  1  0
 32 27  2  0
 33 34  1  0
 34 35  1  0
 35 36  2  0
 37 36  1  0
 37 41  1  0
 38 37  2  0
 39 34  2  0
 39 38  1  0
 40 39  1  0
 42 43  1  0
 43 46  1  0
 43 45  1  0
 44 42  2  0
 47 22  1  0
 47 48  1  0
 49 47  1  0
 50 52  1  0
 51 62  2  0
 52 57  1  0
 53 61  1  0
 53 63  1  0
 54 60  1  0
 54 56  1  0
 55 61  1  0
 56 55  1  0
 57 56  2  0
 58 52  2  0
 59 58  1  0
 59 54  2  0
 60 53  1  0
 61 51  1  0
 63 65  2  0
 64 63  1  0
 66 64  1  0
 67 76  2  0
 67 72  1  0
 68 64  1  0
 68 72  1  0
 69 68  1  0
 70 71  1  0
 70 69  1  0
 71 67  1  0
 72 73  2  0
 73 74  1  0
 75 74  2  0
 76 75  1  0
 77 51  1  0
 77 78  1  0
 77 87  1  0
 78 81  1  0
 79 83  1  0
 79 78  1  0
 80 79  2  0
 83 82  1  0
 85 83  1  0
 85 86  1  0
 85 84  1  0
 87 90  1  1
 87 88  1  0
 89 87  1  0
M  ISO  4   6 101  11 100  14 100  50 101
M  END
>  <TORSDO>  (26) 
F 18

>  <SCORE>  (26) 
-14.530

>  <name>  (26) 
25

>  <ligand_id>  (26) 
25

>  <original_smiles>  (26) 
[H]C(C(=O)N1C([H])([H])C([H])([H])C([H])([H])C([H])(n2nc(-c3c([H])c([H])c(Oc4c([H])c([H])c(F)c([H])c4F)c([H])c3[H])c(C(=O)N([H])[H])c2N([H])[H])C1([H])[H])=C(C(=O)c1c([H])c(C([H])([H])[H])c(Oc2c([H])c([H])c3c(c2[H])C([H])([H])N(C(=O)C([H])(N([H])C(=O)C([H])(N([H])C([H])([H])[H])C([H])([H])[H])C(C([H])([H])[H])(C([H])([H])[H])C([H])([H])[H])C([H])(C(=O)N([H])C2([H])c4c([H])c([H])c([H])c([H])c4C([H])([H])C([H])([H])C2([H])[H])C3([H])[H])c([H])c1C([H])([H])[H])C([H])([H])[H]

>  <smiles>  (26) 
[H]C(C(=O)N1C([H])([H])C([H])([H])C([H])([H])C([H])(n2nc(-c3c([H])c([H])c(Oc4c([H])c([H])c(F)c([H])c4F)c([H])c3[H])c(C(=O)N([H])[H])c2N([H])[H])C1([H])[H])=C(C(=O)c1c([H])c(C([H])([H])[H])c(Oc2c([H])c([H])c3c(c2[H])C([H])([H])N(C(=O)C([H])(N([H])C(=O)C([H])(N([H])C([H])([H])[H])C([H])([H])[H])C(C([H])([H])[H])(C([H])([H])[H])C([H])([H])[H])C([H])(C(=O)N([H])C2([H])c4c([H])c([H])c([H])c([H])c4C([H])([H])C([H])([H])C2([H])[H])C3([H])[H])c([H])c1C([H])([H])[H])C([H])([H])[H]

$$$$
26:0:0
     RDKit          3D

 91 99  0  0  1  0  0  0  0  0999 V2000
  -30.4520  -24.4230   22.8390 C   0  0  0  0  0  3  0  0  0  0  0  0
  -30.3820  -25.8100   22.9940 C   0  0  0  0  0  3  0  0  0  0  0  0
  -29.8590  -23.7740   21.7300 C   0  0  0  0  0  0  0  0  0  0  0  0
  -29.7480  -26.6060   22.0250 C   0  0  0  0  0  0  0  0  0  0  0  0
  -29.0510  -24.5660   20.8440 C   0  0  0  0  0  0  0  0  0  0  0  0
  -28.9880  -26.0030   20.9770 C   0  0  0  0  0  0  0  0  0  0  0  0
  -29.9980  -28.1000   22.1200 C   0  0  0  0  0  1  0  0  0  0  0  0
  -28.3220  -23.8740   19.7030 C   0  0  0  0  0  1  0  0  0  0  0  0
  -28.3900  -26.7930   19.9900 O   0  0  0  0  0  0  0  0  0  0  0  0
  -24.5070  -31.9270   23.2020 C   0  0  0  0  0  0  0  0  0  0  0  0
  -27.1920  -27.4900   20.1350 C   0  0  0  0  0  0  0  0  0  0  0  0
  -23.3010  -30.5190   21.5630 C   0  0  0  0  0  3  0  0  0  0  0  0
  -24.7540  -28.9780   20.1430 C   0  0  0  0  0  0  0  0  0  0  0  0
  -25.8210  -30.8970   21.3440 C   0  0  0  0  0  2  0  0  0  0  0  0
  -25.9110  -29.5220   20.7120 C   0  0  0  0  0  0  0  0  0  0  0  0
  -27.1260  -28.8020   20.6750 C   0  0  0  0  0  3  0  0  0  0  0  0
  -26.0100  -26.9660   19.5610 C   0  0  0  0  0  3  0  0  0  0  0  0
  -24.8010  -27.7000   19.5580 C   0  0  0  0  0  3  0  0  0  0  0  0
  -23.5120  -29.8400   20.1810 C   0  0  0  0  0  2  0  0  0  0  0  0
  -24.5590  -31.1290   22.0970 N   0  0  0  0  0  0  0  0  0  0  0  0
  -23.4290  -32.1840   23.7540 O   0  0  0  0  0  0  0  0  0  0  0  0
  -22.6630  -29.4920   22.5270 C   0  0  0  0  0  0  0  0  0  0  0  0
  -21.3370  -29.3030   22.4100 N   0  0  0  0  0  0  0  0  0  0  0  0
  -23.3560  -28.8740   23.3390 O   0  0  0  0  0  0  0  0  0  0  0  0
  -20.8410  -29.8500   21.7220 H   0  0  0  0  0  0  0  0  0  0  0  0
  -17.9780  -28.0780   22.9270 C   0  0  0  0  0  0  0  0  0  0  0  0
  -20.5340  -28.3580   23.1880 C   0  0  0  0  0  3  0  0  0  0  0  0
  -20.6480  -26.9280   22.6130 C   0  0  0  0  0  2  0  0  0  0  0  0
  -19.5470  -26.5960   21.6030 C   0  0  0  0  0  2  0  0  0  0  0  0
  -18.1650  -26.7310   22.2490 C   0  0  0  0  0  2  0  0  0  0  0  0
  -19.0910  -28.8500   23.3530 C   0  0  0  0  0  0  0  0  0  0  0  0
  -18.8620  -30.1130   23.9440 C   0  0  0  0  0  3  0  0  0  0  0  0
  -17.5520  -30.6000   24.1170 C   0  0  0  0  0  3  0  0  0  0  0  0
  -16.4550  -29.8230   23.7070 C   0  0  0  0  0  3  0  0  0  0  0  0
  -16.6690  -28.5650   23.1170 C   0  0  0  0  0  3  0  0  0  0  0  0
  -25.7920  -32.5660   23.8120 C   0  0  0  0  0  3  0  0  0  0  0  0
  -25.4740  -33.9600   24.1580 N   0  0  0  0  0  0  0  0  0  0  0  0
  -25.7980  -35.0210   23.4060 C   0  0  0  0  0  0  0  0  0  0  0  0
  -26.4670  -34.9310   22.3710 O   0  0  0  0  0  0  0  0  0  0  0  0
  -24.8780  -34.1050   24.9620 H   0  0  0  0  0  0  0  0  0  0  0  0
  -24.0580  -36.8010   23.0550 C   0  0  0  0  0  1  0  0  0  0  0  0
  -25.3020  -36.4060   23.8680 C   0  0  0  0  0  3  0  0  0  0  0  0
  -27.4330  -37.2950   24.7000 C   0  0  0  0  0  1  0  0  0  0  0  0
  -26.3280  -37.4650   23.7580 N   0  0  0  0  0  0  0  0  0  0  0  0
  -25.9210  -38.3840   23.9140 H   0  0  0  0  0  0  0  0  0  0  0  0
  -26.3260  -31.7850   25.0760 C   0  0  1  0  0  0  0  0  0  0  0  0
  -25.2500  -31.5190   26.1550 C   0  0  0  0  0  1  0  0  0  0  0  0
  -26.9190  -30.4190   24.6580 C   0  0  0  0  0  1  0  0  0  0  0  0
  -27.4880  -32.5730   25.7270 C   0  0  0  0  0  1  0  0  0  0  0  0
  -30.3480  -22.3080   21.5080 C   0  0  0  0  0  2  0  0  0  0  0  0
  -29.4780  -21.1250   20.9590 C   0  0  0  0  0  2  0  0  0  0  0  0
  -30.2610  -19.7650   21.0120 C   0  0  0  0  0  2  0  0  0  0  0  0
  -29.4860  -18.4340   20.7650 C   0  0  0  0  0  2  0  0  0  0  0  0
  -30.4320  -17.1970   20.6370 C   0  0  0  0  0  2  0  0  0  0  0  0
  -29.8140  -15.7950   20.9280 C   0  0  0  0  0  2  0  0  0  0  0  0
  -30.6210  -14.5900   20.3520 C   0  0  0  0  0  0  0  0  0  0  0  0
  -30.4190  -12.4170   19.1860 C   0  0  0  0  0  2  0  0  0  0  0  0
  -29.4580  -12.5780   17.9850 C   0  0  0  0  0  2  0  0  0  0  0  0
  -27.9870  -12.4210   18.4240 C   0  0  0  0  0  2  0  0  0  0  0  0
  -27.6440  -13.2720   19.6750 C   0  0  0  0  0  3  0  0  0  0  0  0
  -28.6950  -13.0490   20.7800 C   0  0  0  0  0  2  0  0  0  0  0  0
  -30.0110  -13.3840   20.2210 N   0  0  0  0  0  0  0  0  0  0  0  0
  -31.7580  -14.7850   19.9070 O   0  0  0  0  0  0  0  0  0  0  0  0
  -25.2580  -13.8990   20.3910 C   0  0  0  0  0  0  0  0  0  0  0  0
  -24.1880  -13.1310   20.7770 C   0  0  0  0  0  0  0  0  0  0  0  0
  -24.6520  -11.7810   20.7600 C   0  0  0  0  0  0  0  0  0  0  0  0
  -26.2940  -13.0110   20.1630 N   0  0  0  0  0  0  0  0  0  0  0  0
  -25.9380  -11.7340   20.4450 N   0  0  0  0  0  0  0  0  0  0  0  0
  -23.9280  -10.5200   20.9730 C   0  0  0  0  0  0  0  0  0  0  0  0
  -24.3770   -9.5650   21.9110 C   0  0  0  0  0  3  0  0  0  0  0  0
  -23.6650   -8.3610   22.1030 C   0  0  0  0  0  3  0  0  0  0  0  0
  -22.4880   -8.1100   21.3590 C   0  0  0  0  0  0  0  0  0  0  0  0
  -22.0620   -9.0530   20.4080 C   0  0  0  0  0  3  0  0  0  0  0  0
  -22.7730  -10.2480   20.2160 C   0  0  0  0  0  3  0  0  0  0  0  0
  -21.7380   -6.9640   21.4690 O   0  0  0  0  0  0  0  0  0  0  0  0
  -21.7060   -6.2310   22.6280 C   0  0  0  0  0  0  0  0  0  0  0  0
  -21.3030   -6.7940   23.8570 C   0  0  0  0  0  3  0  0  0  0  0  0
  -21.2190   -5.9830   25.0070 C   0  0  0  0  0  3  0  0  0  0  0  0
  -21.5300   -4.6110   24.9280 C   0  0  0  0  0  0  0  0  0  0  0  0
  -21.9310   -4.0510   23.7020 C   0  0  0  0  0  3  0  0  0  0  0  0
  -22.0160   -4.8590   22.5540 C   0  0  0  0  0  0  0  0  0  0  0  0
  -22.3790   -4.3040   21.3710 F   0  0  0  0  0  0  0  0  0  0  0  0
  -21.4420   -3.8320   26.0310 F   0  0  0  0  0  0  0  0  0  0  0  0
  -22.7940  -13.6110   21.0510 C   0  0  0  0  0  0  0  0  0  0  0  0
  -22.0750  -12.9160   21.9300 N   0  0  0  0  0  0  0  0  0  0  0  0
  -22.3480  -14.6290   20.5250 O   0  0  0  0  0  0  0  0  0  0  0  0
  -22.4530  -12.0980   22.3800 H   0  0  0  0  0  0  0  0  0  0  0  0
  -21.1320  -13.2030   22.1510 H   0  0  0  0  0  0  0  0  0  0  0  0
  -25.4410  -15.2630   20.1970 N   0  0  0  0  0  0  0  0  0  0  0  0
  -24.7130  -15.9590   20.2970 H   0  0  0  0  0  0  0  0  0  0  0  0
  -26.3170  -15.6610   19.8780 H   0  0  0  0  0  0  0  0  0  0  0  0
  1  2  1  0
  3  1  2  0
  4  7  1  0
  4  2  2  0
  5  6  2  0
  5  3  1  0
  6  4  1  0
  8  5  1  0
  9 11  1  0
  9  6  1  0
 10 21  2  0
 11 16  1  0
 12 20  1  0
 12 22  1  0
 13 19  1  0
 13 15  1  0
 14 20  1  0
 15 14  1  0
 16 15  2  0
 17 11  2  0
 18 17  1  0
 18 13  2  0
 19 12  1  0
 20 10  1  0
 22 24  2  0
 23 22  1  0
 25 23  1  0
 26 35  2  0
 26 31  1  0
 27 23  1  0
 27 31  1  0
 28 27  1  0
 29 30  1  0
 29 28  1  0
 30 26  1  0
 31 32  2  0
 32 33  1  0
 34 33  2  0
 35 34  1  0
 36 10  1  0
 36 37  1  0
 36 46  1  0
 37 40  1  0
 38 42  1  0
 38 37  1  0
 39 38  2  0
 42 41  1  0
 44 42  1  0
 44 45  1  0
 44 43  1  0
 46 49  1  1
 46 47  1  0
 48 46  1  0
 50  3  1  0
 51 52  1  0
 51 50  1  0
 53 52  1  0
 54 53  1  0
 54 55  1  0
 56 55  1  0
 57 62  1  0
 58 59  1  0
 58 57  1  0
 60 59  1  0
 60 67  1  0
 60 61  1  0
 62 56  1  0
 62 61  1  0
 63 56  2  0
 64 65  2  0
 65 84  1  0
 66 65  1  0
 66 69  1  0
 67 64  1  0
 67 68  1  0
 68 66  2  0
 69 70  1  0
 70 71  2  0
 72 75  1  0
 72 71  1  0
 73 72  2  0
 74 73  1  0
 74 69  2  0
 75 76  1  0
 76 77  1  0
 77 78  2  0
 79 78  1  0
 79 83  1  0
 80 79  2  0
 81 76  2  0
 81 80  1  0
 82 81  1  0
 84 85  1  0
 85 88  1  0
 85 87  1  0
 86 84  2  0
 89 90  1  0
 89 64  1  0
 91 89  1  0
M  ISO  4   6 101   9 101  55 100  56 100
M  END
>  <TORSDO>  (27) 
F 22

>  <SCORE>  (27) 
-12.300

>  <name>  (27) 
26

>  <ligand_id>  (27) 
26

>  <original_smiles>  (27) 
[H]c1c([H])c([H])c2c(c1[H])C([H])([H])C([H])([H])C([H])([H])C2([H])N([H])C(=O)C1([H])N(C(=O)C([H])(N([H])C(=O)C([H])(N([H])C([H])([H])[H])C([H])([H])[H])C(C([H])([H])[H])(C([H])([H])[H])C([H])([H])[H])C([H])([H])c2c([H])c(Oc3c(C([H])([H])[H])c([H])c([H])c(C([H])([H])C([H])([H])C([H])([H])C([H])([H])C([H])([H])C([H])([H])C(=O)N4C([H])([H])C([H])([H])C([H])([H])C([H])(n5nc(-c6c([H])c([H])c(Oc7c([H])c([H])c(F)c([H])c7F)c([H])c6[H])c(C(=O)N([H])[H])c5N([H])[H])C4([H])[H])c3C([H])([H])[H])c([H])c([H])c2C1([H])[H]

>  <smiles>  (27) 
[H]c1c([H])c([H])c2c(c1[H])C([H])([H])C([H])([H])C([H])([H])C2([H])N([H])C(=O)C1([H])N(C(=O)C([H])(N([H])C(=O)C([H])(N([H])C([H])([H])[H])C([H])([H])[H])C(C([H])([H])[H])(C([H])([H])[H])C([H])([H])[H])C([H])([H])c2c([H])c(Oc3c(C([H])([H])[H])c([H])c([H])c(C([H])([H])C([H])([H])C([H])([H])C([H])([H])C([H])([H])C([H])([H])C(=O)N4C([H])([H])C([H])([H])C([H])([H])C([H])(n5nc(-c6c([H])c([H])c(Oc7c([H])c([H])c(F)c([H])c7F)c([H])c6[H])c(C(=O)N([H])[H])c5N([H])[H])C4([H])[H])c3C([H])([H])[H])c([H])c([H])c2C1([H])[H]

$$$$
27:0:0
     RDKit          3D

 92101  0  0  1  0  0  0  0  0999 V2000
  -27.9700  -21.8540   20.8430 C   0  0  0  0  0  3  0  0  0  0  0  0
  -27.6530  -24.2800   20.4350 C   0  0  0  0  0  3  0  0  0  0  0  0
  -29.5360  -23.0710   19.4710 C   0  0  0  0  0  3  0  0  0  0  0  0
  -27.2240  -23.0540   20.9990 C   0  0  0  0  0  0  0  0  0  0  0  0
  -29.1800  -21.7910   20.1210 C   0  0  0  0  0  0  0  0  0  0  0  0
  -28.7830  -24.3400   19.5990 C   0  0  0  0  0  0  0  0  0  0  0  0
  -31.2180  -15.8360   20.5780 C   0  0  0  0  0  0  0  0  0  0  0  0
  -31.1380  -13.4490   19.8030 C   0  0  0  0  0  2  0  0  0  0  0  0
  -30.3080  -13.2830   18.5100 C   0  0  0  0  0  2  0  0  0  0  0  0
  -28.8140  -13.1270   18.8410 C   0  0  0  0  0  2  0  0  0  0  0  0
  -28.3210  -14.1410   19.9070 C   0  0  0  0  0  3  0  0  0  0  0  0
  -29.2810  -14.2440   21.1070 C   0  0  0  0  0  2  0  0  0  0  0  0
  -30.5910  -14.6010   20.5610 N   0  0  0  0  0  0  0  0  0  0  0  0
  -32.4400  -15.8630   20.3980 O   0  0  0  0  0  0  0  0  0  0  0  0
  -30.0440  -19.5560   21.5040 C   0  0  0  0  0  2  0  0  0  0  0  0
  -29.5030  -19.1710   19.2070 C   0  0  0  0  0  2  0  0  0  0  0  0
  -30.7600  -18.1190   21.5720 C   0  0  0  0  0  2  0  0  0  0  0  0
  -30.3390  -17.7970   19.2500 C   0  0  0  0  0  2  0  0  0  0  0  0
  -29.9820  -20.3530   20.1370 C   0  0  0  0  0  3  0  0  0  0  0  0
  -30.4770  -17.0490   20.5490 N   0  0  0  0  0  0  0  0  0  0  0  0
  -25.9150  -14.7650   20.5000 C   0  0  0  0  0  0  0  0  0  0  0  0
  -24.8160  -14.0100   20.7910 C   0  0  0  0  0  0  0  0  0  0  0  0
  -25.2530  -12.6490   20.7790 C   0  0  0  0  0  0  0  0  0  0  0  0
  -26.9520  -13.8680   20.3220 N   0  0  0  0  0  0  0  0  0  0  0  0
  -26.5590  -12.5880   20.5530 N   0  0  0  0  0  0  0  0  0  0  0  0
  -24.4920  -11.4010   20.9150 C   0  0  0  0  0  0  0  0  0  0  0  0
  -24.8340  -10.4280   21.8800 C   0  0  0  0  0  3  0  0  0  0  0  0
  -24.0740   -9.2450   22.0030 C   0  0  0  0  0  3  0  0  0  0  0  0
  -22.9580   -9.0260   21.1600 C   0  0  0  0  0  0  0  0  0  0  0  0
  -22.6370   -9.9870   20.1850 C   0  0  0  0  0  3  0  0  0  0  0  0
  -23.3960  -11.1620   20.0610 C   0  0  0  0  0  3  0  0  0  0  0  0
  -22.1780   -7.8960   21.1890 O   0  0  0  0  0  0  0  0  0  0  0  0
  -21.9990   -7.1760   22.3420 C   0  0  0  0  0  0  0  0  0  0  0  0
  -21.4410   -7.7540   23.5030 C   0  0  0  0  0  3  0  0  0  0  0  0
  -21.2110   -6.9600   24.6440 C   0  0  0  0  0  3  0  0  0  0  0  0
  -21.5300   -5.5890   24.6230 C   0  0  0  0  0  0  0  0  0  0  0  0
  -22.0840   -5.0110   23.4670 C   0  0  0  0  0  3  0  0  0  0  0  0
  -22.3140   -5.8020   22.3290 C   0  0  0  0  0  0  0  0  0  0  0  0
  -22.8280   -5.2390   21.2090 F   0  0  0  0  0  0  0  0  0  0  0  0
  -21.3030   -4.8210   25.7150 F   0  0  0  0  0  0  0  0  0  0  0  0
  -23.4140  -14.5110   20.9790 C   0  0  0  0  0  0  0  0  0  0  0  0
  -22.6230  -13.8160   21.7860 N   0  0  0  0  0  0  0  0  0  0  0  0
  -23.0310  -15.5520   20.4430 O   0  0  0  0  0  0  0  0  0  0  0  0
  -22.9520  -12.9700   22.2280 H   0  0  0  0  0  0  0  0  0  0  0  0
  -21.6790  -14.1310   21.9670 H   0  0  0  0  0  0  0  0  0  0  0  0
  -26.1200  -16.1330   20.3460 N   0  0  0  0  0  0  0  0  0  0  0  0
  -25.3490  -16.7910   20.3530 H   0  0  0  0  0  0  0  0  0  0  0  0
  -27.0080  -16.5590   20.1140 H   0  0  0  0  0  0  0  0  0  0  0  0
  -25.9350  -23.0380   21.7290 C   0  0  0  0  0  3  0  0  0  0  0  0
  -25.6010  -22.1520   22.5240 O   0  0  0  0  0  0  0  0  0  0  0  0
  -29.0190  -25.7000   18.7350 C   0  0  0  0  0  2  0  0  0  0  0  0
  -28.8510  -27.1440   19.2280 O   0  0  0  0  0  0  0  0  0  0  0  0
  -24.5570  -31.6770   23.0060 C   0  0  0  0  0  0  0  0  0  0  0  0
  -27.6480  -27.9120   19.2620 C   0  0  0  0  0  0  0  0  0  0  0  0
  -23.5020  -30.3900   21.1820 C   0  0  0  0  0  3  0  0  0  0  0  0
  -25.1070  -29.2670   19.5160 C   0  0  0  0  0  0  0  0  0  0  0  0
  -25.9870  -31.0430   21.0340 C   0  0  0  0  0  2  0  0  0  0  0  0
  -26.2240  -29.7860   20.1810 C   0  0  0  0  0  0  0  0  0  0  0  0
  -27.4900  -29.1150   20.0500 C   0  0  0  0  0  3  0  0  0  0  0  0
  -26.4960  -27.4800   18.5730 C   0  0  0  0  0  3  0  0  0  0  0  0
  -25.2500  -28.1330   18.7010 C   0  0  0  0  0  3  0  0  0  0  0  0
  -23.7680  -29.9540   19.7140 C   0  0  0  0  0  2  0  0  0  0  0  0
  -24.7010  -31.0520   21.7970 N   0  0  0  0  0  0  0  0  0  0  0  0
  -23.4590  -31.7270   23.5830 O   0  0  0  0  0  0  0  0  0  0  0  0
  -22.9980  -29.1680   21.9910 C   0  0  0  0  0  0  0  0  0  0  0  0
  -21.7120  -28.8130   21.8200 N   0  0  0  0  0  0  0  0  0  0  0  0
  -23.7660  -28.5460   22.7310 O   0  0  0  0  0  0  0  0  0  0  0  0
  -21.1500  -29.3630   21.1870 H   0  0  0  0  0  0  0  0  0  0  0  0
  -18.5690  -27.0310   22.0660 C   0  0  0  0  0  0  0  0  0  0  0  0
  -21.0460  -27.6670   22.4460 C   0  0  0  0  0  3  0  0  0  0  0  0
  -21.3880  -26.3520   21.7080 C   0  0  0  0  0  2  0  0  0  0  0  0
  -20.3710  -25.9860   20.6230 C   0  0  0  0  0  2  0  0  0  0  0  0
  -18.9750  -25.8240   21.2320 C   0  0  0  0  0  2  0  0  0  0  0  0
  -19.5400  -27.9030   22.6230 C   0  0  0  0  0  0  0  0  0  0  0  0
  -19.1080  -29.0280   23.3600 C   0  0  0  0  0  3  0  0  0  0  0  0
  -17.7370  -29.2850   23.5430 C   0  0  0  0  0  3  0  0  0  0  0  0
  -16.7790  -28.4110   23.0040 C   0  0  0  0  0  3  0  0  0  0  0  0
  -17.1950  -27.2830   22.2720 C   0  0  0  0  0  3  0  0  0  0  0  0
  -25.7570  -32.3780   23.7150 C   0  0  0  0  0  3  0  0  0  0  0  0
  -25.3450  -33.7560   24.0260 N   0  0  0  0  0  0  0  0  0  0  0  0
  -25.7160  -34.8410   23.3320 C   0  0  0  0  0  0  0  0  0  0  0  0
  -26.5030  -34.7880   22.3820 O   0  0  0  0  0  0  0  0  0  0  0  0
  -24.6330  -33.8640   24.7340 H   0  0  0  0  0  0  0  0  0  0  0  0
  -23.9540  -36.5690   22.8350 C   0  0  0  0  0  1  0  0  0  0  0  0
  -25.1240  -36.1980   23.7590 C   0  0  0  0  0  3  0  0  0  0  0  0
  -27.1270  -37.1570   24.8120 C   0  0  0  0  0  1  0  0  0  0  0  0
  -26.1160  -37.2940   23.7670 N   0  0  0  0  0  0  0  0  0  0  0  0
  -25.6590  -38.1940   23.8800 H   0  0  0  0  0  0  0  0  0  0  0  0
  -26.2260  -31.6330   25.0230 C   0  0  1  0  0  0  0  0  0  0  0  0
  -25.0800  -31.3530   26.0250 C   0  0  0  0  0  1  0  0  0  0  0  0
  -26.8870  -30.2810   24.6740 C   0  0  0  0  0  1  0  0  0  0  0  0
  -27.3020  -32.4770   25.7450 C   0  0  0  0  0  1  0  0  0  0  0  0
  1  4  1  0
  2  4  2  0
  3  6  2  0
  3  5  1  0
  4 49  1  0
  5  1  2  0
  6  2  1  0
  8 13  1  0
  9 10  1  0
  9  8  1  0
 11 10  1  0
 11 24  1  0
 11 12  1  0
 13  7  1  0
 13 12  1  0
 14  7  2  0
 15 17  1  0
 16 18  1  0
 16 19  1  0
 18 20  1  0
 19  5  1  0
 19 15  1  0
 20  7  1  0
 20 17  1  0
 21 22  2  0
 22 41  1  0
 23 22  1  0
 23 26  1  0
 24 21  1  0
 24 25  1  0
 25 23  2  0
 26 27  1  0
 27 28  2  0
 29 32  1  0
 29 28  1  0
 30 29  2  0
 31 30  1  0
 31 26  2  0
 32 33  1  0
 33 34  1  0
 34 35  2  0
 36 35  1  0
 36 40  1  0
 37 36  2  0
 38 33  2  0
 38 37  1  0
 39 38  1  0
 41 42  1  0
 42 45  1  0
 42 44  1  0
 43 41  2  0
 46 47  1  0
 46 21  1  0
 48 46  1  0
 49 50  2  0
 51 52  1  0
 51  6  1  0
 52 54  1  0
 53 64  2  0
 54 59  1  0
 55 63  1  0
 55 65  1  0
 56 62  1  0
 56 58  1  0
 57 63  1  0
 58 57  1  0
 59 58  2  0
 60 61  1  0
 60 54  2  0
 61 56  2  0
 62 55  1  0
 63 53  1  0
 65 67  2  0
 66 65  1  0
 68 66  1  0
 69 78  2  0
 69 74  1  0
 70 66  1  0
 70 74  1  0
 71 70  1  0
 72 73  1  0
 72 71  1  0
 73 69  1  0
 74 75  2  0
 75 76  1  0
 77 76  2  0
 78 77  1  0
 79 53  1  0
 79 80  1  0
 79 89  1  0
 80 83  1  0
 81 85  1  0
 81 80  1  0
 82 81  2  0
 85 84  1  0
 85 87  1  0
 87 88  1  0
 87 86  1  0
 89 92  1  1
 89 90  1  0
 91 89  1  0
M  ISO  4   7 100  20 100  51 101  52 101
M  END
>  <TORSDO>  (28) 
F 18

>  <SCORE>  (28) 
-8.670

>  <name>  (28) 
27

>  <ligand_id>  (28) 
27

>  <original_smiles>  (28) 
[H]C(=O)c1c([H])c(C([H])([H])Oc2c([H])c([H])c3c(c2[H])C([H])([H])N(C(=O)C([H])(N([H])C(=O)C([H])(N([H])C([H])([H])[H])C([H])([H])[H])C(C([H])([H])[H])(C([H])([H])[H])C([H])([H])[H])C([H])(C(=O)N([H])C2([H])c4c([H])c([H])c([H])c([H])c4C([H])([H])C([H])([H])C2([H])[H])C3([H])[H])c([H])c(C2([H])C([H])([H])C([H])([H])N(C(=O)N3C([H])([H])C([H])([H])C([H])([H])C([H])(n4nc(-c5c([H])c([H])c(Oc6c([H])c([H])c(F)c([H])c6F)c([H])c5[H])c(C(=O)N([H])[H])c4N([H])[H])C3([H])[H])C([H])([H])C2([H])[H])c1[H]

>  <smiles>  (28) 
[H]C(=O)c1c([H])c(C([H])([H])Oc2c([H])c([H])c3c(c2[H])C([H])([H])N(C(=O)C([H])(N([H])C(=O)C([H])(N([H])C([H])([H])[H])C([H])([H])[H])C(C([H])([H])[H])(C([H])([H])[H])C([H])([H])[H])C([H])(C(=O)N([H])C2([H])c4c([H])c([H])c([H])c([H])c4C([H])([H])C([H])([H])C2([H])[H])C3([H])[H])c([H])c(C2([H])C([H])([H])C([H])([H])N(C(=O)N3C([H])([H])C([H])([H])C([H])([H])C([H])(n4nc(-c5c([H])c([H])c(Oc6c([H])c([H])c(F)c([H])c6F)c([H])c5[H])c(C(=O)N([H])[H])c4N([H])[H])C3([H])[H])C([H])([H])C2([H])[H])c1[H]

$$$$
28:0:0
     RDKit          3D

 93102  0  0  1  0  0  0  0  0999 V2000
  -28.5820  -24.1010   17.4570 C   0  0  0  0  0  3  0  0  0  0  0  0
  -29.0360  -22.9830   18.1830 C   0  0  0  0  0  3  0  0  0  0  0  0
  -28.3610  -25.3320   18.1040 C   0  0  0  0  0  3  0  0  0  0  0  0
  -28.9970  -24.3140   20.2210 C   0  0  0  0  0  3  0  0  0  0  0  0
  -29.2600  -23.0700   19.5750 C   0  0  0  0  0  0  0  0  0  0  0  0
  -28.5460  -25.4570   19.4980 C   0  0  0  0  0  0  0  0  0  0  0  0
  -28.4010  -26.6940   20.1190 O   0  0  0  0  0  0  0  0  0  0  0  0
  -24.5980  -31.8890   23.2230 C   0  0  0  0  0  0  0  0  0  0  0  0
  -27.2170  -27.4240   20.1030 C   0  0  0  0  0  0  0  0  0  0  0  0
  -23.3790  -30.4930   21.5860 C   0  0  0  0  0  3  0  0  0  0  0  0
  -24.8200  -28.9550   20.1460 C   0  0  0  0  0  0  0  0  0  0  0  0
  -25.9070  -30.8420   21.3720 C   0  0  0  0  0  2  0  0  0  0  0  0
  -25.9850  -29.4700   20.7250 C   0  0  0  0  0  0  0  0  0  0  0  0
  -27.1830  -28.7130   20.6990 C   0  0  0  0  0  3  0  0  0  0  0  0
  -26.0200  -26.9240   19.5410 C   0  0  0  0  0  3  0  0  0  0  0  0
  -24.8330  -27.6820   19.5530 C   0  0  0  0  0  3  0  0  0  0  0  0
  -23.5790  -29.8190   20.2040 C   0  0  0  0  0  2  0  0  0  0  0  0
  -24.6470  -31.0900   22.1180 N   0  0  0  0  0  0  0  0  0  0  0  0
  -23.5200  -32.1610   23.7710 O   0  0  0  0  0  0  0  0  0  0  0  0
  -22.7320  -29.4710   22.5470 C   0  0  0  0  0  0  0  0  0  0  0  0
  -21.4060  -29.2870   22.4260 N   0  0  0  0  0  0  0  0  0  0  0  0
  -23.4180  -28.8460   23.3610 O   0  0  0  0  0  0  0  0  0  0  0  0
  -20.9120  -29.8430   21.7420 H   0  0  0  0  0  0  0  0  0  0  0  0
  -18.0380  -28.0800   22.9310 C   0  0  0  0  0  0  0  0  0  0  0  0
  -20.5950  -28.3470   23.1980 C   0  0  0  0  0  3  0  0  0  0  0  0
  -20.7030  -26.9160   22.6230 C   0  0  0  0  0  2  0  0  0  0  0  0
  -19.6000  -26.5890   21.6110 C   0  0  0  0  0  2  0  0  0  0  0  0
  -18.2190  -26.7300   22.2560 C   0  0  0  0  0  2  0  0  0  0  0  0
  -19.1550  -28.8460   23.3600 C   0  0  0  0  0  0  0  0  0  0  0  0
  -18.9330  -30.1090   23.9490 C   0  0  0  0  0  3  0  0  0  0  0  0
  -17.6260  -30.6070   24.1140 C   0  0  0  0  0  3  0  0  0  0  0  0
  -16.5240  -29.8370   23.7030 C   0  0  0  0  0  3  0  0  0  0  0  0
  -16.7310  -28.5760   23.1170 C   0  0  0  0  0  3  0  0  0  0  0  0
  -25.8880  -32.5180   23.8340 C   0  0  0  0  0  3  0  0  0  0  0  0
  -26.4210  -31.7370   25.0980 C   0  0  1  0  0  0  0  0  0  0  0  0
  -25.3420  -31.4870   26.1760 C   0  0  0  0  0  1  0  0  0  0  0  0
  -27.0030  -30.3650   24.6870 C   0  0  0  0  0  1  0  0  0  0  0  0
  -27.5790  -32.5290   25.7520 C   0  0  0  0  0  1  0  0  0  0  0  0
  -25.5790  -33.9130   24.1780 N   0  0  0  0  0  0  0  0  0  0  0  0
  -25.9080  -34.9720   23.4260 C   0  0  0  0  0  0  0  0  0  0  0  0
  -26.5720  -34.8780   22.3900 O   0  0  0  0  0  0  0  0  0  0  0  0
  -24.9850  -34.0620   24.9800 H   0  0  0  0  0  0  0  0  0  0  0  0
  -24.1800  -36.7710   23.0900 C   0  0  0  0  0  1  0  0  0  0  0  0
  -25.4210  -36.3560   23.8970 C   0  0  0  0  0  3  0  0  0  0  0  0
  -27.5560  -37.2290   24.7390 C   0  0  0  0  0  1  0  0  0  0  0  0
  -26.4540  -37.4100   23.7970 N   0  0  0  0  0  0  0  0  0  0  0  0
  -26.0490  -38.3280   23.9560 H   0  0  0  0  0  0  0  0  0  0  0  0
  -29.9010  -21.8750   20.3190 C   0  0  0  0  0  2  0  0  0  0  0  0
  -29.2720  -20.4540   20.0970 C   0  0  0  0  0  2  0  0  0  0  0  0
  -31.3060  -17.5790   21.6310 C   0  0  0  0  0  2  0  0  0  0  0  0
  -31.0730  -19.0840   21.4060 C   0  0  0  0  0  2  0  0  0  0  0  0
  -29.4680  -17.8430   20.0650 C   0  0  0  0  0  2  0  0  0  0  0  0
  -29.9560  -16.9730   21.2520 C   0  0  0  0  0  3  0  0  0  0  0  0
  -30.2390  -19.2080   20.1100 C   0  0  1  0  0  0  0  0  0  0  0  0
  -31.1860  -19.2810   18.8900 C   0  0  0  0  0  1  0  0  0  0  0  0
  -30.6380  -14.5490   20.5150 C   0  0  0  0  0  0  0  0  0  0  0  0
  -30.4070  -12.3780   19.3420 C   0  0  0  0  0  2  0  0  0  0  0  0
  -29.4510  -12.5670   18.1440 C   0  0  0  0  0  2  0  0  0  0  0  0
  -27.9770  -12.4160   18.5740 C   0  0  0  0  0  2  0  0  0  0  0  0
  -27.6370  -13.2410   19.8430 C   0  0  0  0  0  3  0  0  0  0  0  0
  -28.6950  -12.9980   20.9430 C   0  0  0  0  0  2  0  0  0  0  0  0
  -30.0150  -13.3420   20.3820 N   0  0  0  0  0  0  0  0  0  0  0  0
  -31.7530  -14.7810   20.0410 O   0  0  0  0  0  0  0  0  0  0  0  0
  -29.8620  -15.5020   21.0810 N   0  0  0  0  0  0  0  0  0  0  0  0
  -28.9880  -15.1190   21.4100 H   0  0  0  0  0  0  0  0  0  0  0  0
  -25.2350  -13.8480   20.5420 C   0  0  0  0  0  0  0  0  0  0  0  0
  -24.1670  -13.0750   20.9120 C   0  0  0  0  0  0  0  0  0  0  0  0
  -24.6310  -11.7240   20.8840 C   0  0  0  0  0  0  0  0  0  0  0  0
  -26.2820  -12.9670   20.3170 N   0  0  0  0  0  0  0  0  0  0  0  0
  -25.9210  -11.6850   20.5780 N   0  0  0  0  0  0  0  0  0  0  0  0
  -23.9070  -10.4600   21.0750 C   0  0  0  0  0  0  0  0  0  0  0  0
  -24.3460   -9.4930   22.0060 C   0  0  0  0  0  3  0  0  0  0  0  0
  -23.6220   -8.2940   22.1840 C   0  0  0  0  0  3  0  0  0  0  0  0
  -22.4480   -8.0540   21.4330 C   0  0  0  0  0  0  0  0  0  0  0  0
  -22.0290   -9.0110   20.4930 C   0  0  0  0  0  3  0  0  0  0  0  0
  -22.7510  -10.2020   20.3110 C   0  0  0  0  0  3  0  0  0  0  0  0
  -21.6960   -6.9060   21.5220 O   0  0  0  0  0  0  0  0  0  0  0  0
  -21.6580   -6.1590   22.6710 C   0  0  0  0  0  0  0  0  0  0  0  0
  -21.2390   -6.7070   23.9030 C   0  0  0  0  0  3  0  0  0  0  0  0
  -21.1480   -5.8840   25.0450 C   0  0  0  0  0  3  0  0  0  0  0  0
  -21.4670   -4.5160   24.9550 C   0  0  0  0  0  0  0  0  0  0  0  0
  -21.8790   -3.9680   23.7270 C   0  0  0  0  0  3  0  0  0  0  0  0
  -21.9720   -4.7870   22.5880 C   0  0  0  0  0  0  0  0  0  0  0  0
  -22.3500   -4.2490   21.4030 F   0  0  0  0  0  0  0  0  0  0  0  0
  -21.3730   -3.7250   26.0490 F   0  0  0  0  0  0  0  0  0  0  0  0
  -22.7680  -13.5490   21.1810 C   0  0  0  0  0  0  0  0  0  0  0  0
  -22.0420  -12.8520   22.0480 N   0  0  0  0  0  0  0  0  0  0  0  0
  -22.3270  -14.5730   20.6610 O   0  0  0  0  0  0  0  0  0  0  0  0
  -22.4110  -12.0230   22.4910 H   0  0  0  0  0  0  0  0  0  0  0  0
  -21.1030  -13.1500   22.2720 H   0  0  0  0  0  0  0  0  0  0  0  0
  -25.3990  -15.2180   20.3600 N   0  0  0  0  0  0  0  0  0  0  0  0
  -24.6320  -15.8740   20.4630 H   0  0  0  0  0  0  0  0  0  0  0  0
  -26.2490  -15.6530   20.0230 H   0  0  0  0  0  0  0  0  0  0  0  0
  1  3  2  0
  1  2  1  0
  2  5  2  0
  3  6  1  0
  5  4  1  0
  5 48  1  0
  6  7  1  0
  6  4  2  0
  8 19  2  0
  9  7  1  0
  9 14  1  0
 10 18  1  0
 10 20  1  0
 11 17  1  0
 11 13  1  0
 12 18  1  0
 13 12  1  0
 14 13  2  0
 15 16  1  0
 15  9  2  0
 16 11  2  0
 17 10  1  0
 18  8  1  0
 20 22  2  0
 21 20  1  0
 23 21  1  0
 24 33  2  0
 24 29  1  0
 25 21  1  0
 25 29  1  0
 26 25  1  0
 27 28  1  0
 27 26  1  0
 28 24  1  0
 29 30  2  0
 30 31  1  0
 32 31  2  0
 33 32  1  0
 34  8  1  0
 34 39  1  0
 34 35  1  0
 35 38  1  1
 35 36  1  0
 37 35  1  0
 39 42  1  0
 40 44  1  0
 40 39  1  0
 41 40  2  0
 44 43  1  0
 46 44  1  0
 46 47  1  0
 46 45  1  0
 49 54  1  0
 49 48  1  0
 51 50  1  0
 52 54  1  0
 52 53  1  0
 53 64  1  0
 53 50  1  0
 54 55  1  6
 54 51  1  0
 56 64  1  0
 57 62  1  0
 58 59  1  0
 58 57  1  0
 60 59  1  0
 60 69  1  0
 60 61  1  0
 62 56  1  0
 62 61  1  0
 63 56  2  0
 64 65  1  0
 66 67  2  0
 67 86  1  0
 68 67  1  0
 68 71  1  0
 69 66  1  0
 69 70  1  0
 70 68  2  0
 71 72  1  0
 72 73  2  0
 74 77  1  0
 74 73  1  0
 75 74  2  0
 76 75  1  0
 76 71  2  0
 77 78  1  0
 78 79  1  0
 79 80  2  0
 81 80  1  0
 81 85  1  0
 82 81  2  0
 83 78  2  0
 83 82  1  0
 84 83  1  0
 86 87  1  0
 87 90  1  0
 87 89  1  0
 88 86  2  0
 91 92  1  0
 91 66  1  0
 93 91  1  0
M  ISO  4   6 101   7 101  56 100  64 100
M  END
>  <TORSDO>  (29) 
F 19

>  <SCORE>  (29) 
-14.539

>  <name>  (29) 
28

>  <ligand_id>  (29) 
28

>  <original_smiles>  (29) 
[H]c1c([H])c([H])c2c(c1[H])C([H])([H])C([H])([H])C([H])([H])C2([H])N([H])C(=O)C1([H])N(C(=O)C([H])(N([H])C(=O)C([H])(N([H])C([H])([H])[H])C([H])([H])[H])C(C([H])([H])[H])(C([H])([H])[H])C([H])([H])[H])C([H])([H])c2c([H])c(Oc3c([H])c([H])c([H])c(C([H])([H])C([H])([H])C4(C([H])([H])[H])C([H])([H])C([H])([H])C([H])(N([H])C(=O)N5C([H])([H])C([H])([H])C([H])([H])C([H])(n6nc(-c7c([H])c([H])c(Oc8c([H])c([H])c(F)c([H])c8F)c([H])c7[H])c(C(=O)N([H])[H])c6N([H])[H])C5([H])[H])C4([H])[H])c3[H])c([H])c([H])c2C1([H])[H]

>  <smiles>  (29) 
[H]c1c([H])c([H])c2c(c1[H])C([H])([H])C([H])([H])C([H])([H])C2([H])N([H])C(=O)C1([H])N(C(=O)C([H])(N([H])C(=O)C([H])(N([H])C([H])([H])[H])C([H])([H])[H])C(C([H])([H])[H])(C([H])([H])[H])C([H])([H])[H])C([H])([H])c2c([H])c(Oc3c([H])c([H])c([H])c(C([H])([H])C([H])([H])C4(C([H])([H])[H])C([H])([H])C([H])([H])C([H])(N([H])C(=O)N5C([H])([H])C([H])([H])C([H])([H])C([H])(n6nc(-c7c([H])c([H])c(Oc8c([H])c([H])c(F)c([H])c8F)c([H])c7[H])c(C(=O)N([H])[H])c6N([H])[H])C5([H])[H])C4([H])[H])c3[H])c([H])c([H])c2C1([H])[H]

$$$$
29:0:0
     RDKit          3D

 93101  0  0  1  0  0  0  0  0999 V2000
  -26.0870  -23.3520   21.8020 C   0  0  0  0  0  3  0  0  0  0  0  0
  -28.1070  -24.1740   20.6970 C   0  0  0  0  0  3  0  0  0  0  0  0
  -26.5750  -25.7110   21.8230 C   0  0  0  0  0  3  0  0  0  0  0  0
  -27.3060  -23.0680   21.1450 C   0  0  0  0  0  0  0  0  0  0  0  0
  -25.6970  -24.6600   22.1170 C   0  0  0  0  0  0  0  0  0  0  0  0
  -27.7110  -25.5340   20.9840 C   0  0  0  0  0  0  0  0  0  0  0  0
  -24.2960  -25.1200   24.1920 C   0  0  0  0  0  1  0  0  0  0  0  0
  -23.2120  -24.0120   22.1670 C   0  0  0  0  0  1  0  0  0  0  0  0
  -24.3060  -24.9780   22.6660 C   0  0  0  0  0  3  0  0  0  0  0  0
  -28.2650  -26.6870   20.3720 O   0  0  0  0  0  0  0  0  0  0  0  0
  -24.6080  -31.9820   23.3530 C   0  0  0  0  0  0  0  0  0  0  0  0
  -27.3150  -27.6710   20.1110 C   0  0  0  0  0  0  0  0  0  0  0  0
  -23.4450  -30.6460   21.6290 C   0  0  0  0  0  3  0  0  0  0  0  0
  -24.9470  -29.2170   20.1290 C   0  0  0  0  0  0  0  0  0  0  0  0
  -25.9780  -31.0260   21.5030 C   0  0  0  0  0  2  0  0  0  0  0  0
  -26.0900  -29.6940   20.7860 C   0  0  0  0  0  0  0  0  0  0  0  0
  -27.2800  -28.9160   20.7920 C   0  0  0  0  0  3  0  0  0  0  0  0
  -26.1860  -27.2800   19.3560 C   0  0  0  0  0  3  0  0  0  0  0  0
  -24.9930  -28.0140   19.4100 C   0  0  0  0  0  3  0  0  0  0  0  0
  -23.6900  -30.0520   20.2180 C   0  0  0  0  0  2  0  0  0  0  0  0
  -24.6940  -31.2310   22.2190 N   0  0  0  0  0  0  0  0  0  0  0  0
  -23.5150  -32.2180   23.8850 O   0  0  0  0  0  0  0  0  0  0  0  0
  -22.7860  -29.5700   22.5350 C   0  0  0  0  0  0  0  0  0  0  0  0
  -21.4680  -29.3640   22.3690 N   0  0  0  0  0  0  0  0  0  0  0  0
  -23.4610  -28.9290   23.3440 O   0  0  0  0  0  0  0  0  0  0  0  0
  -20.9770  -29.9670   21.7190 H   0  0  0  0  0  0  0  0  0  0  0  0
  -18.1080  -28.0750   22.7270 C   0  0  0  0  0  0  0  0  0  0  0  0
  -20.6500  -28.3900   23.0940 C   0  0  0  0  0  3  0  0  0  0  0  0
  -20.7920  -26.9620   22.5090 C   0  0  0  0  0  2  0  0  0  0  0  0
  -19.7610  -26.6640   21.4230 C   0  0  0  0  0  2  0  0  0  0  0  0
  -18.3460  -26.7510   22.0060 C   0  0  0  0  0  2  0  0  0  0  0  0
  -19.1930  -28.8550   23.2120 C   0  0  0  0  0  0  0  0  0  0  0  0
  -18.9290  -30.0990   23.8200 C   0  0  0  0  0  3  0  0  0  0  0  0
  -17.6100  -30.5680   23.9600 C   0  0  0  0  0  3  0  0  0  0  0  0
  -16.5390  -29.7880   23.5010 C   0  0  0  0  0  3  0  0  0  0  0  0
  -16.7840  -28.5390   22.8920 C   0  0  0  0  0  3  0  0  0  0  0  0
  -25.8760  -32.5970   24.0220 C   0  0  0  0  0  3  0  0  0  0  0  0
  -25.5580  -33.9890   24.3690 N   0  0  0  0  0  0  0  0  0  0  0  0
  -25.9050  -35.0540   23.6350 C   0  0  0  0  0  0  0  0  0  0  0  0
  -26.5990  -34.9670   22.6190 O   0  0  0  0  0  0  0  0  0  0  0  0
  -24.9470  -34.1280   25.1620 H   0  0  0  0  0  0  0  0  0  0  0  0
  -24.1830  -36.8530   23.2780 C   0  0  0  0  0  1  0  0  0  0  0  0
  -25.4090  -36.4390   24.1050 C   0  0  0  0  0  3  0  0  0  0  0  0
  -27.5310  -37.3120   24.9840 C   0  0  0  0  0  1  0  0  0  0  0  0
  -26.4430  -37.4930   24.0270 N   0  0  0  0  0  0  0  0  0  0  0  0
  -26.0370  -38.4130   24.1770 H   0  0  0  0  0  0  0  0  0  0  0  0
  -26.3580  -31.7980   25.2950 C   0  0  1  0  0  0  0  0  0  0  0  0
  -25.2370  -31.5340   26.3270 C   0  0  0  0  0  1  0  0  0  0  0  0
  -26.9520  -30.4300   24.8870 C   0  0  0  0  0  1  0  0  0  0  0  0
  -27.4910  -32.5790   26.0010 C   0  0  0  0  0  1  0  0  0  0  0  0
  -27.4970  -21.5400   20.9100 C   0  0  0  0  0  2  0  0  0  0  0  0
  -28.8330  -20.8050   20.5600 C   0  0  0  0  0  2  0  0  0  0  0  0
  -28.6270  -19.2510   20.7370 C   0  0  0  0  0  2  0  0  0  0  0  0
  -29.7950  -18.2320   20.5060 C   0  0  0  0  0  2  0  0  0  0  0  0
  -29.3890  -16.7450   20.8460 C   0  0  0  0  0  2  0  0  0  0  0  0
  -30.9450  -14.7850   20.2900 C   0  0  0  0  0  0  0  0  0  0  0  0
  -30.6470  -12.5420   19.2800 C   0  0  0  0  0  2  0  0  0  0  0  0
  -29.7360  -12.6260   18.0410 C   0  0  0  0  0  2  0  0  0  0  0  0
  -28.2630  -12.4670   18.4570 C   0  0  0  0  0  2  0  0  0  0  0  0
  -27.8800  -13.3890   19.6430 C   0  0  0  0  0  3  0  0  0  0  0  0
  -28.9190  -13.3360   20.7840 C   0  0  0  0  0  2  0  0  0  0  0  0
  -30.2420  -13.6160   20.2120 N   0  0  0  0  0  0  0  0  0  0  0  0
  -32.0450  -14.9140   19.7540 O   0  0  0  0  0  0  0  0  0  0  0  0
  -30.4980  -15.7860   21.0810 N   0  0  0  0  0  0  0  0  0  0  0  0
  -31.2820  -16.2610   21.5090 H   0  0  0  0  0  0  0  0  0  0  0  0
  -25.4880  -13.9920   20.3680 C   0  0  0  0  0  0  0  0  0  0  0  0
  -24.4230  -13.2220   20.7430 C   0  0  0  0  0  0  0  0  0  0  0  0
  -24.8830  -11.8680   20.7140 C   0  0  0  0  0  0  0  0  0  0  0  0
  -26.5310  -13.1130   20.1290 N   0  0  0  0  0  0  0  0  0  0  0  0
  -26.1730  -11.8300   20.3980 N   0  0  0  0  0  0  0  0  0  0  0  0
  -24.1540  -10.6080   20.9110 C   0  0  0  0  0  0  0  0  0  0  0  0
  -24.5410   -9.6740   21.8950 C   0  0  0  0  0  3  0  0  0  0  0  0
  -23.8110   -8.4790   22.0780 C   0  0  0  0  0  3  0  0  0  0  0  0
  -22.6760   -8.2120   21.2740 C   0  0  0  0  0  0  0  0  0  0  0  0
  -22.3090   -9.1340   20.2770 C   0  0  0  0  0  3  0  0  0  0  0  0
  -23.0430  -10.3180   20.0940 C   0  0  0  0  0  3  0  0  0  0  0  0
  -21.9240   -7.0660   21.3600 O   0  0  0  0  0  0  0  0  0  0  0  0
  -21.7620   -6.3990   22.5480 C   0  0  0  0  0  0  0  0  0  0  0  0
  -21.2160   -7.0300   23.6860 C   0  0  0  0  0  3  0  0  0  0  0  0
  -21.0010   -6.2910   24.8660 C   0  0  0  0  0  3  0  0  0  0  0  0
  -21.3250   -4.9220   24.9090 C   0  0  0  0  0  0  0  0  0  0  0  0
  -21.8670   -4.2910   23.7760 C   0  0  0  0  0  3  0  0  0  0  0  0
  -22.0820   -5.0270   22.5980 C   0  0  0  0  0  0  0  0  0  0  0  0
  -22.5840   -4.4120   21.5000 F   0  0  0  0  0  0  0  0  0  0  0  0
  -21.1150   -4.2070   26.0390 F   0  0  0  0  0  0  0  0  0  0  0  0
  -23.0270  -13.7030   21.0180 C   0  0  0  0  0  0  0  0  0  0  0  0
  -22.3010  -13.0090   21.8900 N   0  0  0  0  0  0  0  0  0  0  0  0
  -22.5890  -14.7280   20.4980 O   0  0  0  0  0  0  0  0  0  0  0  0
  -22.6670  -12.1820   22.3350 H   0  0  0  0  0  0  0  0  0  0  0  0
  -21.3640  -13.3140   22.1170 H   0  0  0  0  0  0  0  0  0  0  0  0
  -25.6460  -15.3620   20.1870 N   0  0  0  0  0  0  0  0  0  0  0  0
  -24.8730  -16.0090   20.2990 H   0  0  0  0  0  0  0  0  0  0  0  0
  -26.4900  -15.8070   19.8440 H   0  0  0  0  0  0  0  0  0  0  0  0
  1  5  1  0
  2  6  2  0
  2  4  1  0
  3  5  2  0
  4  1  2  0
  5  9  1  0
  6  3  1  0
  8  9  1  0
  9  7  1  0
 10  6  1  0
 11 22  2  0
 12 10  1  0
 12 17  1  0
 13 21  1  0
 13 23  1  0
 14 20  1  0
 14 16  1  0
 15 21  1  0
 16 17  2  0
 16 15  1  0
 18 19  1  0
 18 12  2  0
 19 14  2  0
 20 13  1  0
 21 11  1  0
 23 25  2  0
 24 23  1  0
 26 24  1  0
 27 36  2  0
 27 32  1  0
 28 24  1  0
 28 32  1  0
 29 28  1  0
 30 31  1  0
 30 29  1  0
 31 27  1  0
 32 33  2  0
 33 34  1  0
 35 34  2  0
 36 35  1  0
 37 11  1  0
 37 38  1  0
 37 47  1  0
 38 41  1  0
 39 43  1  0
 39 38  1  0
 40 39  2  0
 43 42  1  0
 45 43  1  0
 45 46  1  0
 45 44  1  0
 47 50  1  1
 47 48  1  0
 49 47  1  0
 51  4  1  0
 52 53  1  0
 52 51  1  0
 54 53  1  0
 54 55  1  0
 55 64  1  0
 56 64  1  0
 57 62  1  0
 58 59  1  0
 58 57  1  0
 60 59  1  0
 60 69  1  0
 60 61  1  0
 62 56  1  0
 62 61  1  0
 63 56  2  0
 64 65  1  0
 66 67  2  0
 67 86  1  0
 68 67  1  0
 68 71  1  0
 69 66  1  0
 69 70  1  0
 70 68  2  0
 71 72  1  0
 72 73  2  0
 74 77  1  0
 74 73  1  0
 75 74  2  0
 76 75  1  0
 76 71  2  0
 77 78  1  0
 78 83  2  0
 78 79  1  0
 79 80  2  0
 80 81  1  0
 81 85  1  0
 82 81  2  0
 83 82  1  0
 84 83  1  0
 86 87  1  0
 87 90  1  0
 87 89  1  0
 88 86  2  0
 91 92  1  0
 91 66  1  0
 93 91  1  0
M  ISO  4   6 101  10 101  56 100  64 100
M  END
>  <TORSDO>  (30) 
F 22

>  <SCORE>  (30) 
-12.842

>  <name>  (30) 
29

>  <ligand_id>  (30) 
29

>  <original_smiles>  (30) 
[H]c1c([H])c([H])c2c(c1[H])C([H])([H])C([H])([H])C([H])([H])C2([H])N([H])C(=O)C1([H])N(C(=O)C([H])(N([H])C(=O)C([H])(N([H])C([H])([H])[H])C([H])([H])[H])C(C([H])([H])[H])(C([H])([H])[H])C([H])([H])[H])C([H])([H])c2c([H])c(Oc3c([H])c(C([H])([H])C([H])([H])C([H])([H])C([H])([H])C([H])([H])N([H])C(=O)N4C([H])([H])C([H])([H])C([H])([H])C([H])(n5nc(-c6c([H])c([H])c(Oc7c([H])c([H])c(F)c([H])c7F)c([H])c6[H])c(C(=O)N([H])[H])c5N([H])[H])C4([H])[H])c([H])c(C([H])(C([H])([H])[H])C([H])([H])[H])c3[H])c([H])c([H])c2C1([H])[H]

>  <smiles>  (30) 
[H]c1c([H])c([H])c2c(c1[H])C([H])([H])C([H])([H])C([H])([H])C2([H])N([H])C(=O)C1([H])N(C(=O)C([H])(N([H])C(=O)C([H])(N([H])C([H])([H])[H])C([H])([H])[H])C(C([H])([H])[H])(C([H])([H])[H])C([H])([H])[H])C([H])([H])c2c([H])c(Oc3c([H])c(C([H])([H])C([H])([H])C([H])([H])C([H])([H])C([H])([H])N([H])C(=O)N4C([H])([H])C([H])([H])C([H])([H])C([H])(n5nc(-c6c([H])c([H])c(Oc7c([H])c([H])c(F)c([H])c7F)c([H])c6[H])c(C(=O)N([H])[H])c5N([H])[H])C4([H])[H])c([H])c(C([H])(C([H])([H])[H])C([H])([H])[H])c3[H])c([H])c([H])c2C1([H])[H]

$$$$
30:0:0
     RDKit          3D

 90 98  0  0  1  0  0  0  0  0999 V2000
  -28.7410  -18.9530   20.8930 C   0  0  0  0  0  3  0  0  0  0  0  0
  -28.5160  -20.3580   20.8590 C   0  0  0  0  0  3  0  0  0  0  0  0
  -30.1570  -19.1470   18.9560 C   0  0  0  0  0  3  0  0  0  0  0  0
  -29.5270  -18.3070   19.9080 C   0  0  0  0  0  0  0  0  0  0  0  0
  -29.0450  -21.1810   19.8300 C   0  0  0  0  0  0  0  0  0  0  0  0
  -29.9230  -20.5520   18.9040 C   0  0  0  0  0  0  0  0  0  0  0  0
  -30.5460  -21.3480   17.7700 C   0  0  0  0  0  1  0  0  0  0  0  0
  -28.4290  -22.5960   19.5730 C   0  0  0  0  0  2  0  0  0  0  0  0
  -29.1100  -23.9670   19.9720 C   0  0  0  0  0  2  0  0  0  0  0  0
  -28.1610  -25.1680   19.5780 C   0  0  0  0  0  2  0  0  0  0  0  0
  -28.4130  -26.5810   19.9110 O   0  0  0  0  0  0  0  0  0  0  0  0
  -24.6250  -31.7980   23.1240 C   0  0  0  0  0  0  0  0  0  0  0  0
  -27.2890  -27.4230   19.8750 C   0  0  0  0  0  0  0  0  0  0  0  0
  -23.4330  -30.4410   21.4440 C   0  0  0  0  0  3  0  0  0  0  0  0
  -24.8980  -28.9870   19.9450 C   0  0  0  0  0  0  0  0  0  0  0  0
  -25.9650  -30.8150   21.2560 C   0  0  0  0  0  2  0  0  0  0  0  0
  -26.0630  -29.4670   20.5570 C   0  0  0  0  0  0  0  0  0  0  0  0
  -27.2600  -28.6950   20.5200 C   0  0  0  0  0  3  0  0  0  0  0  0
  -26.1010  -27.0090   19.2220 C   0  0  0  0  0  3  0  0  0  0  0  0
  -24.9180  -27.7610   19.2700 C   0  0  0  0  0  3  0  0  0  0  0  0
  -23.6450  -29.8290   20.0370 C   0  0  0  0  0  2  0  0  0  0  0  0
  -24.6930  -31.0320   21.9980 N   0  0  0  0  0  0  0  0  0  0  0  0
  -23.5430  -32.0360   23.6760 O   0  0  0  0  0  0  0  0  0  0  0  0
  -22.8010  -29.3700   22.3670 C   0  0  0  0  0  0  0  0  0  0  0  0
  -21.4800  -29.1620   22.2330 N   0  0  0  0  0  0  0  0  0  0  0  0
  -23.4970  -28.7330   23.1610 O   0  0  0  0  0  0  0  0  0  0  0  0
  -20.9780  -29.7300   21.5650 H   0  0  0  0  0  0  0  0  0  0  0  0
  -18.1300  -27.8880   22.7030 C   0  0  0  0  0  0  0  0  0  0  0  0
  -20.6830  -28.1830   22.9720 C   0  0  0  0  0  3  0  0  0  0  0  0
  -20.8090  -26.7740   22.3440 C   0  0  0  0  0  2  0  0  0  0  0  0
  -19.7060  -26.4700   21.3240 C   0  0  0  0  0  2  0  0  0  0  0  0
  -18.3250  -26.5660   21.9800 C   0  0  0  0  0  2  0  0  0  0  0  0
  -19.2350  -28.6550   23.1550 C   0  0  0  0  0  0  0  0  0  0  0  0
  -18.9960  -29.8930   23.7890 C   0  0  0  0  0  3  0  0  0  0  0  0
  -17.6840  -30.3630   23.9800 C   0  0  0  0  0  3  0  0  0  0  0  0
  -16.5910  -29.5910   23.5460 C   0  0  0  0  0  3  0  0  0  0  0  0
  -16.8150  -28.3570   22.9110 C   0  0  0  0  0  3  0  0  0  0  0  0
  -25.9040  -32.4290   23.7570 C   0  0  0  0  0  3  0  0  0  0  0  0
  -26.4260  -31.6380   25.0190 C   0  0  1  0  0  0  0  0  0  0  0  0
  -25.3290  -31.3590   26.0740 C   0  0  0  0  0  1  0  0  0  0  0  0
  -27.0340  -30.2790   24.6010 C   0  0  0  0  0  1  0  0  0  0  0  0
  -27.5590  -32.4380   25.7050 C   0  0  0  0  0  1  0  0  0  0  0  0
  -25.5810  -33.8170   24.1120 N   0  0  0  0  0  0  0  0  0  0  0  0
  -25.8970  -34.8850   23.3690 C   0  0  0  0  0  0  0  0  0  0  0  0
  -26.5630  -34.8070   22.3330 O   0  0  0  0  0  0  0  0  0  0  0  0
  -24.9900  -33.9530   24.9190 H   0  0  0  0  0  0  0  0  0  0  0  0
  -24.1650  -36.6780   23.0340 C   0  0  0  0  0  1  0  0  0  0  0  0
  -25.3970  -36.2590   23.8530 C   0  0  0  0  0  3  0  0  0  0  0  0
  -27.5070  -37.1440   24.7450 C   0  0  0  0  0  1  0  0  0  0  0  0
  -26.4250  -37.3190   23.7800 N   0  0  0  0  0  0  0  0  0  0  0  0
  -26.0090  -38.2350   23.9320 H   0  0  0  0  0  0  0  0  0  0  0  0
  -29.5040  -16.7520   19.7070 C   0  0  0  0  0  2  0  0  0  0  0  0
  -30.8710  -14.6980   20.0120 C   0  0  0  0  0  0  0  0  0  0  0  0
  -30.5250  -12.4840   18.9420 C   0  0  0  0  0  2  0  0  0  0  0  0
  -29.5300  -12.6100   17.7700 C   0  0  0  0  0  2  0  0  0  0  0  0
  -28.0840  -12.4460   18.2760 C   0  0  0  0  0  2  0  0  0  0  0  0
  -27.7840  -13.3310   19.5150 C   0  0  0  0  0  3  0  0  0  0  0  0
  -28.8940  -13.2130   20.5830 C   0  0  0  0  0  2  0  0  0  0  0  0
  -30.1790  -13.5200   19.9360 N   0  0  0  0  0  0  0  0  0  0  0  0
  -31.9930  -14.8140   19.5100 O   0  0  0  0  0  0  0  0  0  0  0  0
  -30.9060  -16.3920   21.7400 C   0  0  0  0  0  1  0  0  0  0  0  0
  -30.2580  -15.7890   20.5740 N   0  0  0  0  0  0  0  0  0  0  0  0
  -25.4330  -13.9340   20.3570 C   0  0  0  0  0  0  0  0  0  0  0  0
  -24.3840  -13.1610   20.7740 C   0  0  0  0  0  0  0  0  0  0  0  0
  -24.8400  -11.8090   20.7150 C   0  0  0  0  0  0  0  0  0  0  0  0
  -26.4630  -13.0530   20.0680 N   0  0  0  0  0  0  0  0  0  0  0  0
  -26.1140  -11.7690   20.3440 N   0  0  0  0  0  0  0  0  0  0  0  0
  -24.1220  -10.5470   20.9330 C   0  0  0  0  0  0  0  0  0  0  0  0
  -24.5610   -9.6010   21.8850 C   0  0  0  0  0  3  0  0  0  0  0  0
  -23.8420   -8.4030   22.0890 C   0  0  0  0  0  3  0  0  0  0  0  0
  -22.6670   -8.1460   21.3430 C   0  0  0  0  0  0  0  0  0  0  0  0
  -22.2470   -9.0810   20.3810 C   0  0  0  0  0  3  0  0  0  0  0  0
  -22.9680  -10.2690   20.1740 C   0  0  0  0  0  3  0  0  0  0  0  0
  -21.9180   -7.0000   21.4560 O   0  0  0  0  0  0  0  0  0  0  0  0
  -21.8320   -6.3110   22.6390 C   0  0  0  0  0  0  0  0  0  0  0  0
  -21.2840   -6.8940   23.8030 C   0  0  0  0  0  3  0  0  0  0  0  0
  -21.1510   -6.1280   24.9780 C   0  0  0  0  0  3  0  0  0  0  0  0
  -21.5550   -4.7800   24.9900 C   0  0  0  0  0  0  0  0  0  0  0  0
  -22.0960   -4.1960   23.8320 C   0  0  0  0  0  3  0  0  0  0  0  0
  -22.2310   -4.9600   22.6590 C   0  0  0  0  0  0  0  0  0  0  0  0
  -22.7330   -4.3860   21.5390 F   0  0  0  0  0  0  0  0  0  0  0  0
  -21.4200   -4.0410   26.1170 F   0  0  0  0  0  0  0  0  0  0  0  0
  -23.0020  -13.6400   21.1150 C   0  0  0  0  0  0  0  0  0  0  0  0
  -22.3250  -12.9570   22.0310 N   0  0  0  0  0  0  0  0  0  0  0  0
  -22.5350  -14.6580   20.6040 O   0  0  0  0  0  0  0  0  0  0  0  0
  -22.7170  -12.1330   22.4620 H   0  0  0  0  0  0  0  0  0  0  0  0
  -21.4020  -13.2630   22.3040 H   0  0  0  0  0  0  0  0  0  0  0  0
  -25.5910  -15.3050   20.1800 N   0  0  0  0  0  0  0  0  0  0  0  0
  -24.8340  -15.9610   20.3390 H   0  0  0  0  0  0  0  0  0  0  0  0
  -26.4270  -15.7470   19.8190 H   0  0  0  0  0  0  0  0  0  0  0  0
  2  1  1  0
  3  4  1  0
  4  1  2  0
  5  2  2  0
  6  3  2  0
  6  5  1  0
  7  6  1  0
  8  5  1  0
  8  9  1  0
 10 11  1  0
 10  9  1  0
 12 23  2  0
 13 11  1  0
 13 18  1  0
 14 22  1  0
 14 24  1  0
 15 21  1  0
 15 17  1  0
 16 22  1  0
 17 16  1  0
 18 17  2  0
 19 20  1  0
 19 13  2  0
 20 15  2  0
 21 14  1  0
 22 12  1  0
 24 26  2  0
 25 24  1  0
 27 25  1  0
 28 37  2  0
 28 33  1  0
 29 25  1  0
 29 33  1  0
 30 29  1  0
 31 32  1  0
 31 30  1  0
 32 28  1  0
 33 34  2  0
 34 35  1  0
 36 35  2  0
 37 36  1  0
 38 12  1  0
 38 43  1  0
 38 39  1  0
 39 42  1  1
 39 40  1  0
 41 39  1  0
 43 46  1  0
 44 48  1  0
 44 43  1  0
 45 44  2  0
 48 47  1  0
 50 48  1  0
 50 51  1  0
 50 49  1  0
 52  4  1  0
 52 62  1  0
 53 62  1  0
 54 59  1  0
 55 56  1  0
 55 54  1  0
 57 56  1  0
 57 66  1  0
 57 58  1  0
 59 53  1  0
 59 58  1  0
 60 53  2  0
 62 61  1  0
 63 64  2  0
 64 83  1  0
 65 64  1  0
 65 68  1  0
 66 67  1  0
 66 63  1  0
 67 65  2  0
 68 69  1  0
 69 70  2  0
 71 74  1  0
 71 70  1  0
 72 71  2  0
 73 72  1  0
 73 68  2  0
 74 75  1  0
 75 80  2  0
 75 76  1  0
 76 77  2  0
 77 78  1  0
 78 82  1  0
 79 78  2  0
 80 79  1  0
 81 80  1  0
 83 84  1  0
 84 87  1  0
 84 86  1  0
 85 83  2  0
 88 89  1  0
 88 63  1  0
 90 88  1  0
M  ISO  4  10 101  11 101  53 100  62 100
M  END
>  <TORSDO>  (31) 
F 20

>  <SCORE>  (31) 
-13.404

>  <name>  (31) 
30

>  <ligand_id>  (31) 
30

>  <original_smiles>  (31) 
[H]c1c([H])c([H])c2c(c1[H])C([H])([H])C([H])([H])C([H])([H])C2([H])N([H])C(=O)C1([H])N(C(=O)C([H])(N([H])C(=O)C([H])(N([H])C([H])([H])[H])C([H])([H])[H])C(C([H])([H])[H])(C([H])([H])[H])C([H])([H])[H])C([H])([H])c2c([H])c(OC([H])([H])C([H])([H])C([H])([H])c3c([H])c([H])c(C([H])([H])N(C(=O)N4C([H])([H])C([H])([H])C([H])([H])C([H])(n5nc(-c6c([H])c([H])c(Oc7c([H])c([H])c(F)c([H])c7F)c([H])c6[H])c(C(=O)N([H])[H])c5N([H])[H])C4([H])[H])C([H])([H])[H])c([H])c3C([H])([H])[H])c([H])c([H])c2C1([H])[H]

>  <smiles>  (31) 
[H]c1c([H])c([H])c2c(c1[H])C([H])([H])C([H])([H])C([H])([H])C2([H])N([H])C(=O)C1([H])N(C(=O)C([H])(N([H])C(=O)C([H])(N([H])C([H])([H])[H])C([H])([H])[H])C(C([H])([H])[H])(C([H])([H])[H])C([H])([H])[H])C([H])([H])c2c([H])c(OC([H])([H])C([H])([H])C([H])([H])c3c([H])c([H])c(C([H])([H])N(C(=O)N4C([H])([H])C([H])([H])C([H])([H])C([H])(n5nc(-c6c([H])c([H])c(Oc7c([H])c([H])c(F)c([H])c7F)c([H])c6[H])c(C(=O)N([H])[H])c5N([H])[H])C4([H])[H])C([H])([H])[H])c([H])c3C([H])([H])[H])c([H])c([H])c2C1([H])[H]

$$$$
31:0:0
     RDKit          3D

 90 99  0  0  1  0  0  0  0  0999 V2000
  -30.5810  -15.0750   20.4190 C   0  0  0  0  0  0  0  0  0  0  0  0
  -30.4050  -12.7130   19.4740 C   0  0  0  0  0  2  0  0  0  0  0  0
  -29.4980  -12.5950   18.2300 C   0  0  0  0  0  2  0  0  0  0  0  0
  -28.0390  -12.3480   18.6520 C   0  0  0  0  0  2  0  0  0  0  0  0
  -27.5930  -13.3090   19.7790 C   0  0  0  0  0  3  0  0  0  0  0  0
  -28.6340  -13.4140   20.9220 C   0  0  0  0  0  2  0  0  0  0  0  0
  -29.8990  -13.8490   20.3120 N   0  0  0  0  0  0  0  0  0  0  0  0
  -31.8000  -15.0030   20.2200 O   0  0  0  0  0  0  0  0  0  0  0  0
  -28.2780  -20.7690   19.9590 C   0  0  0  0  0  2  0  0  0  0  0  0
  -30.8490  -20.4410   20.8340 C   0  0  0  0  0  3  0  0  0  0  0  0
  -28.9850  -22.0340   20.1510 C   0  0  0  0  0  0  0  0  0  0  0  0
  -28.8180  -19.4190   20.1660 C   0  0  0  0  0  0  0  0  0  0  0  0
  -30.1480  -19.2130   20.5650 C   0  0  0  0  0  0  0  0  0  0  0  0
  -30.3050  -21.7820   20.6550 C   0  0  0  0  0  0  0  0  0  0  0  0
  -28.0500  -18.1050   19.9080 C   0  0  0  0  0  3  0  0  0  0  0  0
  -30.7940  -17.7210   20.6440 C   0  0  0  0  0  2  0  0  0  0  0  0
  -28.5560  -16.7930   20.6660 C   0  0  0  0  0  3  0  0  0  0  0  0
  -31.2050  -22.9730   20.9230 C   0  0  0  0  0  1  0  0  0  0  0  0
  -29.9870  -16.3980   20.5260 N   0  0  0  0  0  0  0  0  0  0  0  0
  -25.2040  -13.8970   20.4830 C   0  0  0  0  0  0  0  0  0  0  0  0
  -24.1350  -13.1260   20.8430 C   0  0  0  0  0  0  0  0  0  0  0  0
  -24.6030  -11.7760   20.8360 C   0  0  0  0  0  0  0  0  0  0  0  0
  -26.2530  -13.0180   20.2700 N   0  0  0  0  0  0  0  0  0  0  0  0
  -25.9000  -11.7380   20.5510 N   0  0  0  0  0  0  0  0  0  0  0  0
  -23.8740  -10.5170   21.0220 C   0  0  0  0  0  0  0  0  0  0  0  0
  -24.2910   -9.5560   21.9680 C   0  0  0  0  0  3  0  0  0  0  0  0
  -23.5600   -8.3600   22.1420 C   0  0  0  0  0  3  0  0  0  0  0  0
  -22.4010   -8.1180   21.3680 C   0  0  0  0  0  0  0  0  0  0  0  0
  -22.0040   -9.0680   20.4100 C   0  0  0  0  0  3  0  0  0  0  0  0
  -22.7350  -10.2540   20.2350 C   0  0  0  0  0  3  0  0  0  0  0  0
  -21.6440   -6.9740   21.4510 O   0  0  0  0  0  0  0  0  0  0  0  0
  -21.5730   -6.2410   22.6080 C   0  0  0  0  0  0  0  0  0  0  0  0
  -21.1280   -6.8070   23.8220 C   0  0  0  0  0  3  0  0  0  0  0  0
  -21.0040   -6.0000   24.9710 C   0  0  0  0  0  3  0  0  0  0  0  0
  -21.3140   -4.6290   24.9060 C   0  0  0  0  0  0  0  0  0  0  0  0
  -21.7510   -4.0630   23.6960 C   0  0  0  0  0  3  0  0  0  0  0  0
  -21.8780   -4.8660   22.5490 C   0  0  0  0  0  0  0  0  0  0  0  0
  -22.2800   -4.3110   21.3800 F   0  0  0  0  0  0  0  0  0  0  0  0
  -21.1870   -3.8520   26.0070 F   0  0  0  0  0  0  0  0  0  0  0  0
  -22.7330  -13.6070   21.0760 C   0  0  0  0  0  0  0  0  0  0  0  0
  -21.9860  -12.9230   21.9360 N   0  0  0  0  0  0  0  0  0  0  0  0
  -22.3060  -14.6240   20.5320 O   0  0  0  0  0  0  0  0  0  0  0  0
  -22.3450  -12.1030   22.4010 H   0  0  0  0  0  0  0  0  0  0  0  0
  -21.0450  -13.2290   22.1360 H   0  0  0  0  0  0  0  0  0  0  0  0
  -25.3560  -15.2650   20.2850 N   0  0  0  0  0  0  0  0  0  0  0  0
  -24.5740  -15.9050   20.3700 H   0  0  0  0  0  0  0  0  0  0  0  0
  -26.1900  -15.7020   19.9180 H   0  0  0  0  0  0  0  0  0  0  0  0
  -28.3860  -23.4230   19.5810 C   0  0  0  0  0  0  0  0  0  0  0  0
  -28.1310  -24.8390   19.5670 C   0  0  0  0  0  3  0  0  0  0  0  0
  -28.2540  -26.1140   20.2880 O   0  0  0  0  0  0  0  0  0  0  0  0
  -24.6210  -31.8800   23.2380 C   0  0  0  0  0  0  0  0  0  0  0  0
  -27.2240  -27.1460   20.2000 C   0  0  0  0  0  0  0  0  0  0  0  0
  -23.4330  -30.4820   21.5980 C   0  0  0  0  0  3  0  0  0  0  0  0
  -24.8910  -28.9180   20.1740 C   0  0  0  0  0  0  0  0  0  0  0  0
  -25.9920  -30.7450   21.4440 C   0  0  0  0  0  2  0  0  0  0  0  0
  -26.0730  -29.3530   20.7860 C   0  0  0  0  0  0  0  0  0  0  0  0
  -27.2370  -28.4840   20.7850 C   0  0  0  0  0  3  0  0  0  0  0  0
  -25.9940  -26.8230   19.5720 C   0  0  0  0  0  3  0  0  0  0  0  0
  -24.8660  -27.6670   19.5520 C   0  0  0  0  0  3  0  0  0  0  0  0
  -23.6610  -29.8130   20.2200 C   0  0  0  0  0  2  0  0  0  0  0  0
  -24.7030  -31.0570   22.1490 N   0  0  0  0  0  0  0  0  0  0  0  0
  -23.5320  -32.1620   23.7600 O   0  0  0  0  0  0  0  0  0  0  0  0
  -22.7530  -29.4700   22.5570 C   0  0  0  0  0  0  0  0  0  0  0  0
  -21.4240  -29.3030   22.4350 N   0  0  0  0  0  0  0  0  0  0  0  0
  -23.4260  -28.8380   23.3760 O   0  0  0  0  0  0  0  0  0  0  0  0
  -20.9370  -29.8620   21.7470 H   0  0  0  0  0  0  0  0  0  0  0  0
  -18.0400  -28.1070   22.9440 C   0  0  0  0  0  0  0  0  0  0  0  0
  -20.6010  -28.3650   23.2060 C   0  0  0  0  0  3  0  0  0  0  0  0
  -20.6990  -26.9340   22.6270 C   0  0  0  0  0  2  0  0  0  0  0  0
  -19.5930  -26.6150   21.6160 C   0  0  0  0  0  2  0  0  0  0  0  0
  -18.2140  -26.7600   22.2640 C   0  0  0  0  0  2  0  0  0  0  0  0
  -19.1610  -28.8680   23.3720 C   0  0  0  0  0  0  0  0  0  0  0  0
  -18.9440  -30.1280   23.9720 C   0  0  0  0  0  3  0  0  0  0  0  0
  -17.6400  -30.6270   24.1460 C   0  0  0  0  0  3  0  0  0  0  0  0
  -16.5340  -29.8630   23.7330 C   0  0  0  0  0  3  0  0  0  0  0  0
  -16.7360  -28.6050   23.1380 C   0  0  0  0  0  3  0  0  0  0  0  0
  -25.8940  -32.5220   23.8690 C   0  0  0  0  0  3  0  0  0  0  0  0
  -25.5730  -33.9200   24.1990 N   0  0  0  0  0  0  0  0  0  0  0  0
  -25.8890  -34.9770   23.4390 C   0  0  0  0  0  0  0  0  0  0  0  0
  -26.5480  -34.8780   22.4000 O   0  0  0  0  0  0  0  0  0  0  0  0
  -24.9850  -34.0690   25.0050 H   0  0  0  0  0  0  0  0  0  0  0  0
  -24.1370  -36.7570   23.1210 C   0  0  0  0  0  1  0  0  0  0  0  0
  -25.4000  -36.3630   23.9040 C   0  0  0  0  0  3  0  0  0  0  0  0
  -27.5440  -37.2710   24.6860 C   0  0  0  0  0  1  0  0  0  0  0  0
  -26.4210  -37.4260   23.7660 N   0  0  0  0  0  0  0  0  0  0  0  0
  -26.0080  -38.3420   23.9170 H   0  0  0  0  0  0  0  0  0  0  0  0
  -26.4000  -31.7580   25.1540 C   0  0  1  0  0  0  0  0  0  0  0  0
  -25.2990  -31.5260   26.2150 C   0  0  0  0  0  1  0  0  0  0  0  0
  -26.9870  -30.3770   24.7800 C   0  0  0  0  0  1  0  0  0  0  0  0
  -27.5450  -32.5560   25.8200 C   0  0  0  0  0  1  0  0  0  0  0  0
  1 19  1  0
  2  7  1  0
  3  4  1  0
  3  2  1  0
  5  4  1  0
  5 23  1  0
  5  6  1  0
  7  1  1  0
  7  6  1  0
  8  1  2  0
  9 11  1  0
  9 12  1  0
 11 14  1  0
 12 13  2  0
 13 16  1  0
 13 10  1  0
 14 10  2  0
 14 18  1  0
 15 12  1  0
 15 17  2  0
 19 16  1  0
 19 17  1  0
 20 21  2  0
 21 40  1  0
 22 21  1  0
 22 25  1  0
 23 20  1  0
 23 24  1  0
 24 22  2  0
 25 26  1  0
 26 27  2  0
 28 31  1  0
 28 27  1  0
 29 28  2  0
 30 29  1  0
 30 25  2  0
 31 32  1  0
 32 33  1  0
 33 34  2  0
 35 34  1  0
 35 39  1  0
 36 35  2  0
 37 32  2  0
 37 36  1  0
 38 37  1  0
 40 41  1  0
 41 44  1  0
 41 43  1  0
 42 40  2  0
 45 46  1  0
 45 20  1  0
 47 45  1  0
 48 11  2  0
 49 48  2  0
 49 50  1  0
 51 62  2  0
 52 50  1  0
 52 57  1  0
 53 61  1  0
 53 63  1  0
 54 60  1  0
 54 56  1  0
 55 61  1  0
 56 55  1  0
 57 56  2  0
 58 52  2  0
 59 58  1  0
 59 54  2  0
 60 53  1  0
 61 51  1  0
 63 65  2  0
 64 63  1  0
 66 64  1  0
 67 76  2  0
 67 72  1  0
 68 64  1  0
 68 72  1  0
 69 68  1  0
 70 71  1  0
 70 69  1  0
 71 67  1  0
 72 73  2  0
 73 74  1  0
 75 74  2  0
 76 75  1  0
 77 51  1  0
 77 78  1  0
 77 87  1  0
 78 81  1  0
 79 83  1  0
 79 78  1  0
 80 79  2  0
 83 82  1  0
 85 83  1  0
 85 86  1  0
 85 84  1  0
 87 90  1  1
 87 88  1  0
 89 87  1  0
M  ISO  4   1 100  19 100  49 101  50 101
M  END
>  <TORSDO>  (32) 
F 16

>  <SCORE>  (32) 
-15.731

>  <name>  (32) 
31

>  <ligand_id>  (32) 
31

>  <original_smiles>  (32) 
[H]C(Oc1c([H])c([H])c2c(c1[H])C([H])([H])N(C(=O)C([H])(N([H])C(=O)C([H])(N([H])C([H])([H])[H])C([H])([H])[H])C(C([H])([H])[H])(C([H])([H])[H])C([H])([H])[H])C([H])(C(=O)N([H])C1([H])c3c([H])c([H])c([H])c([H])c3C([H])([H])C([H])([H])C1([H])[H])C2([H])[H])=C([H])c1c([H])c2c(c([H])c1C([H])([H])[H])C([H])([H])N(C(=O)N1C([H])([H])C([H])([H])C([H])([H])C([H])(n3nc(-c4c([H])c([H])c(Oc5c([H])c([H])c(F)c([H])c5F)c([H])c4[H])c(C(=O)N([H])[H])c3N([H])[H])C1([H])[H])C([H])([H])C2([H])[H]

>  <smiles>  (32) 
[H]C(Oc1c([H])c([H])c2c(c1[H])C([H])([H])N(C(=O)C([H])(N([H])C(=O)C([H])(N([H])C([H])([H])[H])C([H])([H])[H])C(C([H])([H])[H])(C([H])([H])[H])C([H])([H])[H])C([H])(C(=O)N([H])C1([H])c3c([H])c([H])c([H])c([H])c3C([H])([H])C([H])([H])C1([H])[H])C2([H])[H])=C([H])c1c([H])c2c(c([H])c1C([H])([H])[H])C([H])([H])N(C(=O)N1C([H])([H])C([H])([H])C([H])([H])C([H])(n3nc(-c4c([H])c([H])c(Oc5c([H])c([H])c(F)c([H])c5F)c([H])c4[H])c(C(=O)N([H])[H])c3N([H])[H])C1([H])[H])C([H])([H])C2([H])[H]

$$$$
32:0:0
     RDKit          3D

 94102  0  0  1  0  0  0  0  0999 V2000
  -27.8950  -24.3150   21.0740 C   0  0  0  0  0  3  0  0  0  0  0  0
  -30.1420  -23.9950   20.1960 C   0  0  0  0  0  3  0  0  0  0  0  0
  -28.8760  -24.6090   20.1100 C   0  0  0  0  0  0  0  0  0  0  0  0
  -28.2120  -23.5250   22.1930 C   0  0  0  0  0  0  0  0  0  0  0  0
  -30.4700  -23.1780   21.2990 C   0  0  0  0  0  0  0  0  0  0  0  0
  -29.5170  -22.9940   22.3330 C   0  0  0  0  0  0  0  0  0  0  0  0
  -27.1510  -23.2910   23.2500 C   0  0  0  0  0  1  0  0  0  0  0  0
  -29.8600  -22.3380   23.4760 O   0  0  0  0  0  0  0  0  0  0  0  0
  -30.8010  -22.2250   23.5370 H   0  0  0  0  0  0  0  0  0  0  0  0
  -31.8500  -22.5230   21.3570 C   0  0  0  0  0  2  0  0  0  0  0  0
  -31.8180  -20.9810   21.5160 C   0  0  0  0  0  2  0  0  0  0  0  0
  -30.8300  -20.2750   20.5680 C   0  0  0  0  0  2  0  0  0  0  0  0
  -30.8290  -18.7390   20.6680 C   0  0  0  0  0  2  0  0  0  0  0  0
  -29.5440  -18.1310   20.0700 C   0  0  0  0  0  2  0  0  0  0  0  0
  -29.6970  -16.6760   19.6130 C   0  0  0  0  0  2  0  0  0  0  0  0
  -30.0650  -15.6830   20.7350 C   0  0  0  0  0  2  0  0  0  0  0  0
  -30.7180  -14.4460   20.1080 C   0  0  0  0  0  0  0  0  0  0  0  0
  -30.3960  -12.2870   18.9840 C   0  0  0  0  0  2  0  0  0  0  0  0
  -29.4130  -12.4870   17.8130 C   0  0  0  0  0  2  0  0  0  0  0  0
  -27.9510  -12.3430   18.2820 C   0  0  0  0  0  2  0  0  0  0  0  0
  -27.6480  -13.1740   19.5550 C   0  0  0  0  0  3  0  0  0  0  0  0
  -28.7430  -12.9560   20.6230 C   0  0  0  0  0  2  0  0  0  0  0  0
  -30.0480  -13.2660   20.0220 N   0  0  0  0  0  0  0  0  0  0  0  0
  -31.8100  -14.6240   19.5660 O   0  0  0  0  0  0  0  0  0  0  0  0
  -25.2520  -13.7390   20.3110 C   0  0  0  0  0  0  0  0  0  0  0  0
  -24.2150  -12.9510   20.7370 C   0  0  0  0  0  0  0  0  0  0  0  0
  -24.7120  -11.6120   20.7360 C   0  0  0  0  0  0  0  0  0  0  0  0
  -26.3140  -12.8790   20.0790 N   0  0  0  0  0  0  0  0  0  0  0  0
  -25.9940  -11.5960   20.3890 N   0  0  0  0  0  0  0  0  0  0  0  0
  -24.0270  -10.3380   20.9910 C   0  0  0  0  0  0  0  0  0  0  0  0
  -24.4680   -9.4520   22.0000 C   0  0  0  0  0  3  0  0  0  0  0  0
  -23.7790   -8.2430   22.2370 C   0  0  0  0  0  3  0  0  0  0  0  0
  -22.6380   -7.9110   21.4670 C   0  0  0  0  0  0  0  0  0  0  0  0
  -22.2180   -8.7870   20.4520 C   0  0  0  0  0  3  0  0  0  0  0  0
  -22.9070   -9.9880   20.2130 C   0  0  0  0  0  3  0  0  0  0  0  0
  -21.9250   -6.7450   21.6090 O   0  0  0  0  0  0  0  0  0  0  0  0
  -21.8230   -6.1060   22.8190 C   0  0  0  0  0  0  0  0  0  0  0  0
  -21.2690   -6.7430   23.9530 C   0  0  0  0  0  3  0  0  0  0  0  0
  -21.1190   -6.0290   25.1570 C   0  0  0  0  0  3  0  0  0  0  0  0
  -21.5090   -4.6760   25.2280 C   0  0  0  0  0  0  0  0  0  0  0  0
  -22.0540   -4.0410   24.0980 C   0  0  0  0  0  3  0  0  0  0  0  0
  -22.2050   -4.7540   22.8960 C   0  0  0  0  0  0  0  0  0  0  0  0
  -22.7130   -4.1320   21.8030 F   0  0  0  0  0  0  0  0  0  0  0  0
  -21.3580   -3.9840   26.3810 F   0  0  0  0  0  0  0  0  0  0  0  0
  -22.8150  -13.4020   21.0370 C   0  0  0  0  0  0  0  0  0  0  0  0
  -22.1300  -12.7170   21.9460 N   0  0  0  0  0  0  0  0  0  0  0  0
  -22.3370  -14.4020   20.5030 O   0  0  0  0  0  0  0  0  0  0  0  0
  -22.5310  -11.9130   22.4050 H   0  0  0  0  0  0  0  0  0  0  0  0
  -21.1920  -13.0050   22.1850 H   0  0  0  0  0  0  0  0  0  0  0  0
  -25.3720  -15.1070   20.0860 N   0  0  0  0  0  0  0  0  0  0  0  0
  -24.5850  -15.7340   20.2050 H   0  0  0  0  0  0  0  0  0  0  0  0
  -26.2070  -15.5680   19.7540 H   0  0  0  0  0  0  0  0  0  0  0  0
  -28.5860  -25.6480   19.0480 C   0  0  0  0  0  2  0  0  0  0  0  0
  -28.4060  -26.9340   19.6490 O   0  0  0  0  0  0  0  0  0  0  0  0
  -24.5190  -31.7920   23.1140 C   0  0  0  0  0  0  0  0  0  0  0  0
  -27.1670  -27.5360   19.7550 C   0  0  0  0  0  0  0  0  0  0  0  0
  -23.2940  -30.4410   21.4510 C   0  0  0  0  0  3  0  0  0  0  0  0
  -24.7320  -28.9780   19.9330 C   0  0  0  0  0  0  0  0  0  0  0  0
  -25.8140  -30.8370   21.2110 C   0  0  0  0  0  2  0  0  0  0  0  0
  -25.8970  -29.5050   20.4990 C   0  0  0  0  0  0  0  0  0  0  0  0
  -27.1120  -28.7900   20.4040 C   0  0  0  0  0  3  0  0  0  0  0  0
  -25.9680  -27.0020   19.2240 C   0  0  0  0  0  3  0  0  0  0  0  0
  -24.7590  -27.7210   19.3070 C   0  0  0  0  0  3  0  0  0  0  0  0
  -23.4780  -29.8180   20.0420 C   0  0  0  0  0  2  0  0  0  0  0  0
  -24.5620  -31.0350   21.9810 N   0  0  0  0  0  0  0  0  0  0  0  0
  -23.4470  -32.0260   23.6890 O   0  0  0  0  0  0  0  0  0  0  0  0
  -22.6830  -29.3670   22.3790 C   0  0  0  0  0  0  0  0  0  0  0  0
  -21.3660  -29.1420   22.2470 N   0  0  0  0  0  0  0  0  0  0  0  0
  -23.3910  -28.7420   23.1740 O   0  0  0  0  0  0  0  0  0  0  0  0
  -20.8570  -29.6890   21.5670 H   0  0  0  0  0  0  0  0  0  0  0  0
  -18.0440  -27.8010   22.7030 C   0  0  0  0  0  0  0  0  0  0  0  0
  -20.5870  -28.1580   22.9990 C   0  0  0  0  0  3  0  0  0  0  0  0
  -20.7560  -26.7440   22.3950 C   0  0  0  0  0  2  0  0  0  0  0  0
  -19.6750  -26.3960   21.3700 C   0  0  0  0  0  2  0  0  0  0  0  0
  -18.2840  -26.4730   22.0030 C   0  0  0  0  0  2  0  0  0  0  0  0
  -19.1280  -28.5970   23.1560 C   0  0  0  0  0  0  0  0  0  0  0  0
  -18.8530  -29.8410   23.7700 C   0  0  0  0  0  3  0  0  0  0  0  0
  -17.5280  -30.2870   23.9330 C   0  0  0  0  0  3  0  0  0  0  0  0
  -16.4590  -29.4850   23.4990 C   0  0  0  0  0  3  0  0  0  0  0  0
  -16.7180  -28.2430   22.8910 C   0  0  0  0  0  3  0  0  0  0  0  0
  -25.8110  -32.4200   23.7260 C   0  0  0  0  0  3  0  0  0  0  0  0
  -26.3650  -31.6150   24.9640 C   0  0  1  0  0  0  0  0  0  0  0  0
  -25.2980  -31.3230   26.0470 C   0  0  0  0  0  1  0  0  0  0  0  0
  -26.9600  -30.2610   24.5140 C   0  0  0  0  0  1  0  0  0  0  0  0
  -27.5190  -32.4040   25.6230 C   0  0  0  0  0  1  0  0  0  0  0  0
  -25.4910  -33.8010   24.1090 N   0  0  0  0  0  0  0  0  0  0  0  0
  -25.7920  -34.8820   23.3770 C   0  0  0  0  0  0  0  0  0  0  0  0
  -26.4440  -34.8210   22.3310 O   0  0  0  0  0  0  0  0  0  0  0  0
  -24.9130  -33.9200   24.9280 H   0  0  0  0  0  0  0  0  0  0  0  0
  -24.0310  -36.6520   23.1110 C   0  0  0  0  0  1  0  0  0  0  0  0
  -25.2950  -36.2480   23.8870 C   0  0  0  0  0  3  0  0  0  0  0  0
  -27.4280  -37.1350   24.7120 C   0  0  0  0  0  1  0  0  0  0  0  0
  -26.3110  -37.3190   23.7900 N   0  0  0  0  0  0  0  0  0  0  0  0
  -25.8970  -38.2290   23.9700 H   0  0  0  0  0  0  0  0  0  0  0  0
  1  4  1  0
  2  5  2  0
  3  2  1  0
  3  1  2  0
  4  6  2  0
  4  7  1  0
  5 10  1  0
  5  6  1  0
  6  8  1  0
  8  9  1  0
 10 11  1  0
 12 13  1  0
 12 11  1  0
 14 13  1  0
 15 14  1  0
 15 16  1  0
 17 16  1  0
 18 23  1  0
 19 20  1  0
 19 18  1  0
 21 20  1  0
 21 28  1  0
 21 22  1  0
 23 17  1  0
 23 22  1  0
 24 17  2  0
 25 26  2  0
 26 45  1  0
 27 26  1  0
 27 30  1  0
 28 25  1  0
 28 29  1  0
 29 27  2  0
 30 31  1  0
 31 32  2  0
 33 36  1  0
 33 32  1  0
 34 33  2  0
 35 34  1  0
 35 30  2  0
 36 37  1  0
 37 42  2  0
 37 38  1  0
 38 39  2  0
 39 40  1  0
 40 44  1  0
 41 40  2  0
 42 41  1  0
 43 42  1  0
 45 46  1  0
 46 49  1  0
 46 48  1  0
 47 45  2  0
 50 51  1  0
 50 25  1  0
 52 50  1  0
 53 54  1  0
 53  3  1  0
 54 56  1  0
 55 66  2  0
 56 61  1  0
 57 65  1  0
 57 67  1  0
 58 64  1  0
 58 60  1  0
 59 65  1  0
 60 59  1  0
 61 60  2  0
 62 63  1  0
 62 56  2  0
 63 58  2  0
 64 57  1  0
 65 55  1  0
 67 69  2  0
 68 67  1  0
 70 68  1  0
 71 80  2  0
 71 76  1  0
 72 68  1  0
 72 76  1  0
 73 72  1  0
 74 75  1  0
 74 73  1  0
 75 71  1  0
 76 77  2  0
 77 78  1  0
 79 78  2  0
 80 79  1  0
 81 55  1  0
 81 86  1  0
 81 82  1  0
 82 85  1  1
 82 83  1  0
 84 82  1  0
 86 89  1  0
 87 91  1  0
 87 86  1  0
 88 87  2  0
 91 90  1  0
 93 91  1  0
 93 94  1  0
 93 92  1  0
M  ISO  4  16 100  17 100  53 101  54 101
M  END
>  <TORSDO>  (33) 
F 25

>  <SCORE>  (33) 
-9.713

>  <name>  (33) 
32

>  <ligand_id>  (33) 
32

>  <original_smiles>  (33) 
[H]Oc1c(C([H])([H])[H])c([H])c(C([H])([H])Oc2c([H])c([H])c3c(c2[H])C([H])([H])N(C(=O)C([H])(N([H])C(=O)C([H])(N([H])C([H])([H])[H])C([H])([H])[H])C(C([H])([H])[H])(C([H])([H])[H])C([H])([H])[H])C([H])(C(=O)N([H])C2([H])c4c([H])c([H])c([H])c([H])c4C([H])([H])C([H])([H])C2([H])[H])C3([H])[H])c([H])c1C([H])([H])C([H])([H])C([H])([H])C([H])([H])C([H])([H])C([H])([H])C([H])([H])C(=O)N1C([H])([H])C([H])([H])C([H])([H])C([H])(n2nc(-c3c([H])c([H])c(Oc4c([H])c([H])c(F)c([H])c4F)c([H])c3[H])c(C(=O)N([H])[H])c2N([H])[H])C1([H])[H]

>  <smiles>  (33) 
[H]Oc1c(C([H])([H])[H])c([H])c(C([H])([H])Oc2c([H])c([H])c3c(c2[H])C([H])([H])N(C(=O)C([H])(N([H])C(=O)C([H])(N([H])C([H])([H])[H])C([H])([H])[H])C(C([H])([H])[H])(C([H])([H])[H])C([H])([H])[H])C([H])(C(=O)N([H])C2([H])c4c([H])c([H])c([H])c([H])c4C([H])([H])C([H])([H])C2([H])[H])C3([H])[H])c([H])c1C([H])([H])C([H])([H])C([H])([H])C([H])([H])C([H])([H])C([H])([H])C([H])([H])C(=O)N1C([H])([H])C([H])([H])C([H])([H])C([H])(n2nc(-c3c([H])c([H])c(Oc4c([H])c([H])c(F)c([H])c4F)c([H])c3[H])c(C(=O)N([H])[H])c2N([H])[H])C1([H])[H]

$$$$
33:0:0
     RDKit          3D

 91 99  0  0  1  0  0  0  0  0999 V2000
  -27.6800  -21.9400   19.6650 C   0  0  0  0  0  3  0  0  0  0  0  0
  -27.4610  -23.4110   19.6360 C   0  0  0  0  0  3  0  0  0  0  0  0
  -29.4200  -23.6850   20.7870 C   0  0  0  0  0  3  0  0  0  0  0  0
  -28.7820  -21.1870   20.2620 C   0  0  0  0  0  0  0  0  0  0  0  0
  -29.6440  -22.2090   20.8360 C   0  0  0  0  0  0  0  0  0  0  0  0
  -28.3090  -24.4430   20.2170 C   0  0  0  0  0  0  0  0  0  0  0  0
  -28.2510  -25.9760   20.1840 O   0  0  0  0  0  0  0  0  0  0  0  0
  -24.6490  -31.8660   23.2030 C   0  0  0  0  0  0  0  0  0  0  0  0
  -27.1800  -26.9990   20.1820 C   0  0  0  0  0  0  0  0  0  0  0  0
  -23.4400  -30.4660   21.5760 C   0  0  0  0  0  3  0  0  0  0  0  0
  -24.8720  -28.8520   20.1540 C   0  0  0  0  0  0  0  0  0  0  0  0
  -26.0020  -30.6800   21.4090 C   0  0  0  0  0  2  0  0  0  0  0  0
  -26.0620  -29.2680   20.7640 C   0  0  0  0  0  0  0  0  0  0  0  0
  -27.2080  -28.3590   20.7580 C   0  0  0  0  0  3  0  0  0  0  0  0
  -25.9620  -26.7270   19.5230 C   0  0  0  0  0  3  0  0  0  0  0  0
  -24.8450  -27.6010   19.5150 C   0  0  0  0  0  3  0  0  0  0  0  0
  -23.6560  -29.7740   20.2020 C   0  0  0  0  0  2  0  0  0  0  0  0
  -24.7180  -31.0320   22.1160 N   0  0  0  0  0  0  0  0  0  0  0  0
  -23.5630  -32.1580   23.7310 O   0  0  0  0  0  0  0  0  0  0  0  0
  -22.7530  -29.4740   22.5500 C   0  0  0  0  0  0  0  0  0  0  0  0
  -21.4230  -29.3050   22.4300 N   0  0  0  0  0  0  0  0  0  0  0  0
  -23.4230  -28.8580   23.3830 O   0  0  0  0  0  0  0  0  0  0  0  0
  -20.9370  -29.8530   21.7330 H   0  0  0  0  0  0  0  0  0  0  0  0
  -18.0460  -28.0940   22.9570 C   0  0  0  0  0  0  0  0  0  0  0  0
  -20.6050  -28.3700   23.2100 C   0  0  0  0  0  3  0  0  0  0  0  0
  -20.7100  -26.9350   22.6440 C   0  0  0  0  0  2  0  0  0  0  0  0
  -19.6050  -26.6010   21.6350 C   0  0  0  0  0  2  0  0  0  0  0  0
  -18.2250  -26.7430   22.2850 C   0  0  0  0  0  2  0  0  0  0  0  0
  -19.1630  -28.8640   23.3780 C   0  0  0  0  0  0  0  0  0  0  0  0
  -18.9390  -30.1260   23.9710 C   0  0  0  0  0  3  0  0  0  0  0  0
  -17.6320  -30.6180   24.1460 C   0  0  0  0  0  3  0  0  0  0  0  0
  -16.5300  -29.8460   23.7390 C   0  0  0  0  0  3  0  0  0  0  0  0
  -16.7380  -28.5860   23.1510 C   0  0  0  0  0  3  0  0  0  0  0  0
  -25.9260  -32.5080   23.8210 C   0  0  0  0  0  3  0  0  0  0  0  0
  -25.6090  -33.9060   24.1620 N   0  0  0  0  0  0  0  0  0  0  0  0
  -25.9240  -34.9700   23.4120 C   0  0  0  0  0  0  0  0  0  0  0  0
  -26.5740  -34.8770   22.3660 O   0  0  0  0  0  0  0  0  0  0  0  0
  -25.0250  -34.0500   24.9720 H   0  0  0  0  0  0  0  0  0  0  0  0
  -24.1850  -36.7680   23.1140 C   0  0  0  0  0  1  0  0  0  0  0  0
  -25.4450  -36.3560   23.8920 C   0  0  0  0  0  3  0  0  0  0  0  0
  -27.5900  -37.2490   24.6880 C   0  0  0  0  0  1  0  0  0  0  0  0
  -26.4720  -37.4120   23.7630 N   0  0  0  0  0  0  0  0  0  0  0  0
  -26.0650  -38.3310   23.9140 H   0  0  0  0  0  0  0  0  0  0  0  0
  -26.4430  -31.7420   25.1030 C   0  0  1  0  0  0  0  0  0  0  0  0
  -25.3510  -31.5100   26.1730 C   0  0  0  0  0  1  0  0  0  0  0  0
  -27.0300  -30.3640   24.7250 C   0  0  0  0  0  1  0  0  0  0  0  0
  -27.5940  -32.5380   25.7620 C   0  0  0  0  0  1  0  0  0  0  0  0
  -28.8100  -19.4540   20.4700 C   0  0  0  0  0  3  0  0  0  0  0  0
  -29.8940  -18.0970   20.1060 C   0  0  0  0  0  3  0  0  0  0  0  0
  -30.4460  -15.2320   20.1740 C   0  0  0  0  0  0  0  0  0  0  0  0
  -30.3960  -12.8120   19.2710 C   0  0  0  0  0  2  0  0  0  0  0  0
  -29.4480  -12.6600   18.0570 C   0  0  0  0  0  2  0  0  0  0  0  0
  -28.0020  -12.4030   18.5160 C   0  0  0  0  0  2  0  0  0  0  0  0
  -27.5880  -13.3390   19.6800 C   0  0  0  0  0  3  0  0  0  0  0  0
  -28.6620  -13.4390   20.7840 C   0  0  0  0  0  2  0  0  0  0  0  0
  -29.8860  -13.9320   20.1390 N   0  0  0  0  0  0  0  0  0  0  0  0
  -31.6530  -15.2620   19.8910 O   0  0  0  0  0  0  0  0  0  0  0  0
  -29.6670  -16.4690   20.3230 N   0  0  0  0  0  0  0  0  0  0  0  0
  -28.7090  -16.2520   20.5580 H   0  0  0  0  0  0  0  0  0  0  0  0
  -25.2320  -13.8820   20.4980 C   0  0  0  0  0  0  0  0  0  0  0  0
  -24.1820  -13.0960   20.8820 C   0  0  0  0  0  0  0  0  0  0  0  0
  -24.6510  -11.7470   20.8170 C   0  0  0  0  0  0  0  0  0  0  0  0
  -26.2710  -13.0130   20.2130 N   0  0  0  0  0  0  0  0  0  0  0  0
  -25.9360  -11.7230   20.4750 N   0  0  0  0  0  0  0  0  0  0  0  0
  -23.9320  -10.4800   21.0000 C   0  0  0  0  0  0  0  0  0  0  0  0
  -24.3590   -9.5170   21.9410 C   0  0  0  0  0  3  0  0  0  0  0  0
  -23.6370   -8.3150   22.1140 C   0  0  0  0  0  3  0  0  0  0  0  0
  -22.4760   -8.0690   21.3450 C   0  0  0  0  0  0  0  0  0  0  0  0
  -22.0670   -9.0210   20.3940 C   0  0  0  0  0  3  0  0  0  0  0  0
  -22.7890  -10.2140   20.2180 C   0  0  0  0  0  3  0  0  0  0  0  0
  -21.7240   -6.9220   21.4290 O   0  0  0  0  0  0  0  0  0  0  0  0
  -21.6350   -6.2030   22.5940 C   0  0  0  0  0  0  0  0  0  0  0  0
  -21.1120   -6.7650   23.7800 C   0  0  0  0  0  3  0  0  0  0  0  0
  -20.9750   -5.9690   24.9350 C   0  0  0  0  0  3  0  0  0  0  0  0
  -21.3490   -4.6120   24.9050 C   0  0  0  0  0  0  0  0  0  0  0  0
  -21.8620   -4.0500   23.7220 C   0  0  0  0  0  3  0  0  0  0  0  0
  -22.0020   -4.8420   22.5710 C   0  0  0  0  0  0  0  0  0  0  0  0
  -22.4780   -4.2890   21.4290 F   0  0  0  0  0  0  0  0  0  0  0  0
  -21.2080   -3.8450   26.0110 F   0  0  0  0  0  0  0  0  0  0  0  0
  -22.7890  -13.5630   21.1870 C   0  0  0  0  0  0  0  0  0  0  0  0
  -22.0800  -12.8510   22.0540 N   0  0  0  0  0  0  0  0  0  0  0  0
  -22.3390  -14.5940   20.6890 O   0  0  0  0  0  0  0  0  0  0  0  0
  -22.4570  -12.0170   22.4790 H   0  0  0  0  0  0  0  0  0  0  0  0
  -21.1420  -13.1440   22.2970 H   0  0  0  0  0  0  0  0  0  0  0  0
  -25.3850  -15.2570   20.3380 N   0  0  0  0  0  0  0  0  0  0  0  0
  -24.6170  -15.9030   20.4770 H   0  0  0  0  0  0  0  0  0  0  0  0
  -26.2030  -15.6990   19.9400 H   0  0  0  0  0  0  0  0  0  0  0  0
  -30.8690  -21.7310   21.5960 C   0  0  0  0  0  2  0  0  0  0  0  0
  -32.0630  -21.4320   20.6770 C   0  0  0  0  0  2  0  0  0  0  0  0
  -34.5830  -20.9890   20.5980 C   0  0  0  0  0  1  0  0  0  0  0  0
  -33.3300  -21.0850   21.4760 C   0  0  0  0  0  2  0  0  0  0  0  0
  1  4  1  0
  2  1  2  0
  2  6  1  0
  3  5  1  0
  4 48  1  0
  4  5  2  0
  5 88  1  0
  6  3  2  0
  7  6  1  0
  8 19  2  0
  9  7  1  0
  9 14  1  0
 10 18  1  0
 10 20  1  0
 11 17  1  0
 11 13  1  0
 12 18  1  0
 13 12  1  0
 14 13  2  0
 15  9  2  0
 16 15  1  0
 16 11  2  0
 17 10  1  0
 18  8  1  0
 20 22  2  0
 21 20  1  0
 23 21  1  0
 24 33  2  0
 24 29  1  0
 25 21  1  0
 25 29  1  0
 26 25  1  0
 27 28  1  0
 27 26  1  0
 28 24  1  0
 29 30  2  0
 30 31  1  0
 32 31  2  0
 33 32  1  0
 34  8  1  0
 34 35  1  0
 34 44  1  0
 35 38  1  0
 36 40  1  0
 36 35  1  0
 37 36  2  0
 40 39  1  0
 42 40  1  0
 42 43  1  0
 42 41  1  0
 44 47  1  1
 44 45  1  0
 46 44  1  0
 49 58  1  0
 49 48  2  0
 50 58  1  0
 51 56  1  0
 52 53  1  0
 52 51  1  0
 54 53  1  0
 54 63  1  0
 54 55  1  0
 56 50  1  0
 56 55  1  0
 57 50  2  0
 58 59  1  0
 60 61  2  0
 61 80  1  0
 62 61  1  0
 62 65  1  0
 63 64  1  0
 63 60  1  0
 64 62  2  0
 65 66  1  0
 66 67  2  0
 68 71  1  0
 68 67  1  0
 69 68  2  0
 70 69  1  0
 70 65  2  0
 71 72  1  0
 72 73  1  0
 73 74  2  0
 75 74  1  0
 75 79  1  0
 76 75  2  0
 77 72  2  0
 77 76  1  0
 78 77  1  0
 80 81  1  0
 81 84  1  0
 81 83  1  0
 82 80  2  0
 85 86  1  0
 85 60  1  0
 87 85  1  0
 89 91  1  0
 89 88  1  0
 90 91  1  0
M  ISO  4   6 101   7 101  50 100  58 100
M  END
>  <TORSDO>  (34) 
F 21

>  <SCORE>  (34) 
-14.482

>  <name>  (34) 
33

>  <ligand_id>  (34) 
33

>  <original_smiles>  (34) 
[H]c1c([H])c([H])c2c(c1[H])C([H])([H])C([H])([H])C([H])([H])C2([H])N([H])C(=O)C1([H])N(C(=O)C([H])(N([H])C(=O)C([H])(N([H])C([H])([H])[H])C([H])([H])[H])C(C([H])([H])[H])(C([H])([H])[H])C([H])([H])[H])C([H])([H])c2c([H])c(Oc3c([H])c([H])c(C([H])([H])C([H])([H])N([H])C(=O)N4C([H])([H])C([H])([H])C([H])([H])C([H])(n5nc(-c6c([H])c([H])c(Oc7c([H])c([H])c(F)c([H])c7F)c([H])c6[H])c(C(=O)N([H])[H])c5N([H])[H])C4([H])[H])c(C([H])([H])C([H])([H])C([H])([H])C([H])([H])[H])c3[H])c([H])c([H])c2C1([H])[H]

>  <smiles>  (34) 
[H]c1c([H])c([H])c2c(c1[H])C([H])([H])C([H])([H])C([H])([H])C2([H])N([H])C(=O)C1([H])N(C(=O)C([H])(N([H])C(=O)C([H])(N([H])C([H])([H])[H])C([H])([H])[H])C(C([H])([H])[H])(C([H])([H])[H])C([H])([H])[H])C([H])([H])c2c([H])c(Oc3c([H])c([H])c(C([H])([H])C([H])([H])N([H])C(=O)N4C([H])([H])C([H])([H])C([H])([H])C([H])(n5nc(-c6c([H])c([H])c(Oc7c([H])c([H])c(F)c([H])c7F)c([H])c6[H])c(C(=O)N([H])[H])c5N([H])[H])C4([H])[H])c(C([H])([H])C([H])([H])C([H])([H])C([H])([H])[H])c3[H])c([H])c([H])c2C1([H])[H]

$$$$
34:0:0
     RDKit          3D

 95105  0  0  1  0  0  0  0  0999 V2000
  -27.6320  -22.8370   20.7740 C   0  0  0  0  0  0  0  0  0  0  0  0
  -27.8590  -22.5280   19.4160 C   0  0  0  0  0  0  0  0  0  0  0  0
  -27.3820  -24.1360   21.2790 C   0  0  0  0  0  0  0  0  0  0  0  0
  -27.6280  -23.7320   18.5280 C   0  0  0  0  0  0  0  0  0  0  0  0
  -27.3010  -25.2630   20.4200 C   0  0  0  0  0  0  0  0  0  0  0  0
  -27.2540  -25.1360   18.9990 C   0  0  0  0  0  0  0  0  0  0  0  0
  -27.8030  -21.6550   21.6910 C   0  0  0  0  0  2  0  0  0  0  0  0
  -27.9360  -20.4510   20.7830 C   0  0  0  0  0  2  0  0  0  0  0  0
  -30.4120  -19.2520   19.4140 C   0  0  0  0  0  2  0  0  0  0  0  0
  -29.9870  -20.7780   19.3840 C   0  0  0  0  0  2  0  0  0  0  0  0
  -28.1760  -19.5310   18.5110 C   0  0  0  0  0  2  0  0  0  0  0  0
  -29.4080  -18.3840   18.6090 C   0  0  0  0  0  3  0  0  0  0  0  0
  -28.4420  -20.9150   19.3920 C   0  0  2  0  0  0  0  0  0  0  0  0
  -27.2640  -24.3330   22.7910 C   0  0  0  0  0  1  0  0  0  0  0  0
  -27.8350  -23.5380   17.0410 C   0  0  0  0  0  1  0  0  0  0  0  0
  -27.3680  -26.6500   21.0620 C   0  0  0  0  0  1  0  0  0  0  0  0
  -30.2860  -15.7660   19.2030 C   0  0  0  0  0  0  0  0  0  0  0  0
  -30.5490  -13.2440   18.9210 C   0  0  0  0  0  2  0  0  0  0  0  0
  -29.6160  -12.7000   17.8130 C   0  0  0  0  0  2  0  0  0  0  0  0
  -28.2160  -12.3910   18.3790 C   0  0  0  0  0  2  0  0  0  0  0  0
  -27.6850  -13.5270   19.2920 C   0  0  0  0  0  3  0  0  0  0  0  0
  -28.7450  -14.0140   20.3020 C   0  0  0  0  0  2  0  0  0  0  0  0
  -29.9040  -14.4540   19.5160 N   0  0  0  0  0  0  0  0  0  0  0  0
  -31.4680  -15.9160   18.8750 O   0  0  0  0  0  0  0  0  0  0  0  0
  -29.3320  -16.8400   19.0660 N   0  0  0  0  0  0  0  0  0  0  0  0
  -28.4000  -16.5450   19.3160 H   0  0  0  0  0  0  0  0  0  0  0  0
  -25.4250  -14.0220   20.3730 C   0  0  0  0  0  0  0  0  0  0  0  0
  -24.4160  -13.2120   20.8170 C   0  0  0  0  0  0  0  0  0  0  0  0
  -24.8740  -11.8710   20.6280 C   0  0  0  0  0  0  0  0  0  0  0  0
  -26.4270  -13.1740   19.9370 N   0  0  0  0  0  0  0  0  0  0  0  0
  -26.1160  -11.8700   20.1560 N   0  0  0  0  0  0  0  0  0  0  0  0
  -24.1780  -10.5910   20.8140 C   0  0  0  0  0  0  0  0  0  0  0  0
  -24.7570   -9.5350   21.5520 C   0  0  0  0  0  3  0  0  0  0  0  0
  -24.0570   -8.3220   21.7330 C   0  0  0  0  0  3  0  0  0  0  0  0
  -22.7640   -8.1570   21.1800 C   0  0  0  0  0  0  0  0  0  0  0  0
  -22.2030   -9.2030   20.4280 C   0  0  0  0  0  3  0  0  0  0  0  0
  -22.9030  -10.4080   20.2430 C   0  0  0  0  0  3  0  0  0  0  0  0
  -22.0220   -7.0060   21.2830 O   0  0  0  0  0  0  0  0  0  0  0  0
  -21.8580   -6.3610   22.4820 C   0  0  0  0  0  0  0  0  0  0  0  0
  -21.3150   -7.0110   23.6120 C   0  0  0  0  0  3  0  0  0  0  0  0
  -21.1010   -6.2920   24.8040 C   0  0  0  0  0  3  0  0  0  0  0  0
  -21.4180   -4.9220   24.8680 C   0  0  0  0  0  0  0  0  0  0  0  0
  -21.9550   -4.2710   23.7430 C   0  0  0  0  0  3  0  0  0  0  0  0
  -22.1720   -4.9870   22.5530 C   0  0  0  0  0  0  0  0  0  0  0  0
  -22.6680   -4.3510   21.4650 F   0  0  0  0  0  0  0  0  0  0  0  0
  -21.2060   -4.2270   26.0100 F   0  0  0  0  0  0  0  0  0  0  0  0
  -23.0640  -13.6540   21.2930 C   0  0  0  0  0  0  0  0  0  0  0  0
  -22.5420  -13.0140   22.3320 N   0  0  0  0  0  0  0  0  0  0  0  0
  -22.4870  -14.6080   20.7740 O   0  0  0  0  0  0  0  0  0  0  0  0
  -23.0260  -12.2440   22.7700 H   0  0  0  0  0  0  0  0  0  0  0  0
  -21.6430  -13.2970   22.6970 H   0  0  0  0  0  0  0  0  0  0  0  0
  -25.5600  -15.4040   20.2730 N   0  0  0  0  0  0  0  0  0  0  0  0
  -24.8050  -16.0350   20.5150 H   0  0  0  0  0  0  0  0  0  0  0  0
  -26.3370  -15.8720   19.8240 H   0  0  0  0  0  0  0  0  0  0  0  0
  -27.0000  -26.4070   18.2410 O   0  0  0  0  0  0  0  0  0  0  0  0
  -24.6890  -31.2750   23.3710 C   0  0  0  0  0  0  0  0  0  0  0  0
  -26.1350  -27.5090   18.6650 C   0  0  0  0  0  0  0  0  0  0  0  0
  -23.0900  -30.5660   21.6360 C   0  0  0  0  0  3  0  0  0  0  0  0
  -24.0920  -29.4020   19.5650 C   0  0  0  0  0  0  0  0  0  0  0  0
  -25.6050  -30.6480   21.0970 C   0  0  0  0  0  2  0  0  0  0  0  0
  -25.3980  -29.5260   20.0570 C   0  0  0  0  0  0  0  0  0  0  0  0
  -26.4200  -28.6020   19.5930 C   0  0  0  0  0  3  0  0  0  0  0  0
  -24.8170  -27.5180   18.1630 C   0  0  0  0  0  3  0  0  0  0  0  0
  -23.8180  -28.4160   18.6020 C   0  0  0  0  0  3  0  0  0  0  0  0
  -23.0160  -30.3380   20.1000 C   0  0  0  0  0  2  0  0  0  0  0  0
  -24.4930  -30.8330   22.0880 N   0  0  0  0  0  0  0  0  0  0  0  0
  -23.7410  -31.4660   24.1460 O   0  0  0  0  0  0  0  0  0  0  0  0
  -22.4290  -29.3690   22.3640 C   0  0  0  0  0  0  0  0  0  0  0  0
  -21.0960  -29.2380   22.2530 N   0  0  0  0  0  0  0  0  0  0  0  0
  -23.1190  -28.5660   22.9980 O   0  0  0  0  0  0  0  0  0  0  0  0
  -20.5920  -29.9390   21.7260 H   0  0  0  0  0  0  0  0  0  0  0  0
  -17.7390  -27.8860   22.4720 C   0  0  0  0  0  0  0  0  0  0  0  0
  -20.2890  -28.1490   22.8160 C   0  0  0  0  0  3  0  0  0  0  0  0
  -20.4310  -26.8600   21.9750 C   0  0  0  0  0  2  0  0  0  0  0  0
  -19.3450  -26.7160   20.9030 C   0  0  0  0  0  2  0  0  0  0  0  0
  -17.9550  -26.7010   21.5460 C   0  0  0  0  0  2  0  0  0  0  0  0
  -18.8360  -28.5760   23.0550 C   0  0  0  0  0  0  0  0  0  0  0  0
  -18.5800  -29.6890   23.8840 C   0  0  0  0  0  3  0  0  0  0  0  0
  -17.2610  -30.1160   24.1320 C   0  0  0  0  0  3  0  0  0  0  0  0
  -16.1790  -29.4230   23.5620 C   0  0  0  0  0  3  0  0  0  0  0  0
  -16.4190  -28.3070   22.7390 C   0  0  0  0  0  3  0  0  0  0  0  0
  -26.1180  -31.5770   23.9190 C   0  0  0  0  0  3  0  0  0  0  0  0
  -26.1340  -32.9730   24.3860 N   0  0  0  0  0  0  0  0  0  0  0  0
  -26.5950  -34.0130   23.6770 C   0  0  0  0  0  0  0  0  0  0  0  0
  -27.1120  -33.8830   22.5660 O   0  0  0  0  0  0  0  0  0  0  0  0
  -25.6740  -33.1600   25.2660 H   0  0  0  0  0  0  0  0  0  0  0  0
  -25.2830  -36.1610   23.6350 C   0  0  0  0  0  1  0  0  0  0  0  0
  -26.4560  -35.4180   24.2970 C   0  0  0  0  0  3  0  0  0  0  0  0
  -28.7630  -35.7730   25.0610 C   0  0  0  0  0  1  0  0  0  0  0  0
  -27.6860  -36.2360   24.1900 N   0  0  0  0  0  0  0  0  0  0  0  0
  -27.4930  -37.2080   24.4160 H   0  0  0  0  0  0  0  0  0  0  0  0
  -26.5520  -30.6060   25.0850 C   0  0  1  0  0  0  0  0  0  0  0  0
  -25.5550  -30.5670   26.2670 C   0  0  0  0  0  1  0  0  0  0  0  0
  -26.7180  -29.1590   24.5640 C   0  0  0  0  0  1  0  0  0  0  0  0
  -27.9300  -31.0360   25.6380 C   0  0  0  0  0  1  0  0  0  0  0  0
  1  3  1  0
  1  7  1  0
  2  1  2  0
  3 14  1  0
  4  6  2  0
  4  2  1  0
  5 16  1  0
  5  3  2  0
  6  5  1  0
  8  7  1  0
 13 10  1  1
 10  9  1  0
 11 12  1  0
 12 25  1  0
 12  9  1  0
 13 11  1  0
 13  2  1  0
 13  8  1  0
 15  4  1  0
 17 23  1  0
 18 23  1  0
 19 20  1  0
 19 18  1  0
 21 20  1  0
 21 30  1  0
 21 22  1  0
 23 22  1  0
 24 17  2  0
 25 17  1  0
 25 26  1  0
 27 28  2  0
 28 47  1  0
 29 32  1  0
 29 28  1  0
 30 31  1  0
 30 27  1  0
 31 29  2  0
 32 33  1  0
 33 34  2  0
 35 38  1  0
 35 34  1  0
 36 35  2  0
 37 36  1  0
 37 32  2  0
 38 39  1  0
 39 44  2  0
 39 40  1  0
 40 41  2  0
 41 42  1  0
 42 46  1  0
 43 42  2  0
 44 43  1  0
 45 44  1  0
 47 48  1  0
 48 51  1  0
 48 50  1  0
 49 47  2  0
 52 27  1  0
 52 53  1  0
 54 52  1  0
 55 57  1  0
 55  6  1  0
 56 67  2  0
 57 62  1  0
 58 66  1  0
 58 68  1  0
 59 61  1  0
 59 65  1  0
 60 66  1  0
 61 60  1  0
 62 61  2  0
 63 64  1  0
 63 57  2  0
 64 59  2  0
 65 58  1  0
 66 56  1  0
 68 70  2  0
 69 68  1  0
 71 69  1  0
 72 81  2  0
 72 77  1  0
 73 69  1  0
 73 77  1  0
 74 73  1  0
 75 76  1  0
 75 74  1  0
 76 72  1  0
 77 78  2  0
 78 79  1  0
 80 79  2  0
 81 80  1  0
 82 56  1  0
 82 83  1  0
 82 92  1  0
 83 86  1  0
 84 88  1  0
 84 83  1  0
 85 84  2  0
 88 87  1  0
 90 88  1  0
 90 91  1  0
 90 89  1  0
 92 95  1  1
 92 93  1  0
 94 92  1  0
M  ISO  4   6 101  17 100  25 100  55 101
M  END
>  <TORSDO>  (35) 
F 16

>  <SCORE>  (35) 
-12.215

>  <name>  (35) 
34

>  <ligand_id>  (35) 
34

>  <original_smiles>  (35) 
[H]c1c([H])c([H])c2c(c1[H])C([H])([H])C([H])([H])C([H])([H])C2([H])N([H])C(=O)C1([H])N(C(=O)C([H])(N([H])C(=O)C([H])(N([H])C([H])([H])[H])C([H])([H])[H])C(C([H])([H])[H])(C([H])([H])[H])C([H])([H])[H])C([H])([H])c2c([H])c(Oc3c(C([H])([H])[H])c(C([H])([H])[H])c4c(c3C([H])([H])[H])C3(C([H])([H])C4([H])[H])C([H])([H])C([H])([H])C([H])(N([H])C(=O)N4C([H])([H])C([H])([H])C([H])([H])C([H])(n5nc(-c6c([H])c([H])c(Oc7c([H])c([H])c(F)c([H])c7F)c([H])c6[H])c(C(=O)N([H])[H])c5N([H])[H])C4([H])[H])C3([H])[H])c([H])c([H])c2C1([H])[H]

>  <smiles>  (35) 
[H]c1c([H])c([H])c2c(c1[H])C([H])([H])C([H])([H])C([H])([H])C2([H])N([H])C(=O)C1([H])N(C(=O)C([H])(N([H])C(=O)C([H])(N([H])C([H])([H])[H])C([H])([H])[H])C(C([H])([H])[H])(C([H])([H])[H])C([H])([H])[H])C([H])([H])c2c([H])c(Oc3c(C([H])([H])[H])c(C([H])([H])[H])c4c(c3C([H])([H])[H])C3(C([H])([H])C4([H])[H])C([H])([H])C([H])([H])C([H])(N([H])C(=O)N4C([H])([H])C([H])([H])C([H])([H])C([H])(n5nc(-c6c([H])c([H])c(Oc7c([H])c([H])c(F)c([H])c7F)c([H])c6[H])c(C(=O)N([H])[H])c5N([H])[H])C4([H])[H])C3([H])[H])c([H])c([H])c2C1([H])[H]

$$$$
35:0:0
     RDKit          3D

 89 97  0  0  1  0  0  0  0  0999 V2000
  -29.9360  -22.6790   20.0260 C   0  0  0  0  0  3  0  0  0  0  0  0
  -27.6600  -22.4300   20.5830 C   0  0  0  0  0  3  0  0  0  0  0  0
  -29.7260  -24.1170   19.9410 C   0  0  0  0  0  3  0  0  0  0  0  0
  -27.4540  -23.8680   20.5070 C   0  0  0  0  0  3  0  0  0  0  0  0
  -28.9090  -21.7450   20.3680 C   0  0  0  0  0  0  0  0  0  0  0  0
  -28.4880  -24.8080   20.1940 C   0  0  0  0  0  0  0  0  0  0  0  0
  -28.4190  -26.2710   20.1830 O   0  0  0  0  0  0  0  0  0  0  0  0
  -24.6370  -31.8260   23.1540 C   0  0  0  0  0  0  0  0  0  0  0  0
  -27.2860  -27.1460   20.1760 C   0  0  0  0  0  0  0  0  0  0  0  0
  -23.4550  -30.3970   21.5270 C   0  0  0  0  0  3  0  0  0  0  0  0
  -24.9230  -28.8240   20.1230 C   0  0  0  0  0  0  0  0  0  0  0  0
  -26.0000  -30.7010   21.3600 C   0  0  0  0  0  2  0  0  0  0  0  0
  -26.0900  -29.3030   20.7300 C   0  0  0  0  0  0  0  0  0  0  0  0
  -27.2680  -28.4770   20.7420 C   0  0  0  0  0  3  0  0  0  0  0  0
  -26.0960  -26.7520   19.5260 C   0  0  0  0  0  3  0  0  0  0  0  0
  -24.9360  -27.5600   19.5080 C   0  0  0  0  0  3  0  0  0  0  0  0
  -23.6820  -29.7020   20.1570 C   0  0  0  0  0  2  0  0  0  0  0  0
  -24.7160  -30.9980   22.0680 N   0  0  0  0  0  0  0  0  0  0  0  0
  -23.5480  -32.1040   23.6780 O   0  0  0  0  0  0  0  0  0  0  0  0
  -22.7900  -29.3920   22.5010 C   0  0  0  0  0  0  0  0  0  0  0  0
  -21.4610  -29.2240   22.3900 N   0  0  0  0  0  0  0  0  0  0  0  0
  -23.4720  -28.7670   23.3150 O   0  0  0  0  0  0  0  0  0  0  0  0
  -20.9690  -29.7750   21.7000 H   0  0  0  0  0  0  0  0  0  0  0  0
  -18.0830  -28.0430   22.9400 C   0  0  0  0  0  0  0  0  0  0  0  0
  -20.6460  -28.2900   23.1720 C   0  0  0  0  0  3  0  0  0  0  0  0
  -20.7320  -26.8590   22.5930 C   0  0  0  0  0  2  0  0  0  0  0  0
  -19.6140  -26.5450   21.5940 C   0  0  0  0  0  2  0  0  0  0  0  0
  -18.2430  -26.6950   22.2580 C   0  0  0  0  0  2  0  0  0  0  0  0
  -19.2110  -28.8010   23.3540 C   0  0  0  0  0  0  0  0  0  0  0  0
  -19.0060  -30.0620   23.9520 C   0  0  0  0  0  3  0  0  0  0  0  0
  -17.7050  -30.5680   24.1390 C   0  0  0  0  0  3  0  0  0  0  0  0
  -16.5910  -29.8080   23.7410 C   0  0  0  0  0  3  0  0  0  0  0  0
  -16.7810  -28.5480   23.1470 C   0  0  0  0  0  3  0  0  0  0  0  0
  -25.9090  -32.4800   23.7740 C   0  0  0  0  0  3  0  0  0  0  0  0
  -26.4420  -31.7160   25.0480 C   0  0  1  0  0  0  0  0  0  0  0  0
  -25.3550  -31.4550   26.1160 C   0  0  0  0  0  1  0  0  0  0  0  0
  -27.0490  -30.3480   24.6570 C   0  0  0  0  0  1  0  0  0  0  0  0
  -27.5810  -32.5280   25.7100 C   0  0  0  0  0  1  0  0  0  0  0  0
  -25.5760  -33.8720   24.1140 N   0  0  0  0  0  0  0  0  0  0  0  0
  -25.8960  -34.9400   23.3700 C   0  0  0  0  0  0  0  0  0  0  0  0
  -26.5730  -34.8560   22.3400 O   0  0  0  0  0  0  0  0  0  0  0  0
  -24.9760  -34.0110   24.9140 H   0  0  0  0  0  0  0  0  0  0  0  0
  -24.1500  -36.7170   23.0230 C   0  0  0  0  0  1  0  0  0  0  0  0
  -25.3890  -36.3170   23.8390 C   0  0  0  0  0  3  0  0  0  0  0  0
  -27.5030  -37.2210   24.7040 C   0  0  0  0  0  1  0  0  0  0  0  0
  -26.4100  -37.3840   23.7490 N   0  0  0  0  0  0  0  0  0  0  0  0
  -25.9900  -38.2980   23.8990 H   0  0  0  0  0  0  0  0  0  0  0  0
  -29.0950  -20.1640   20.7950 C   0  0  0  0  0  3  0  0  0  0  0  0
  -29.7960  -18.8040   20.0830 C   0  0  0  0  0  3  0  0  0  0  0  0
  -30.0230  -15.9880   20.8350 C   0  0  0  0  0  3  0  0  0  0  0  0
  -29.6970  -17.3750   20.8850 C   0  0  0  0  0  0  0  0  0  0  0  0
  -30.7480  -14.9070   20.0140 C   0  0  0  0  0  0  0  0  0  0  0  0
  -30.5730  -12.6190   18.9210 C   0  0  0  0  0  2  0  0  0  0  0  0
  -29.5540  -12.6810   17.7580 C   0  0  0  0  0  2  0  0  0  0  0  0
  -28.1130  -12.4660   18.2640 C   0  0  0  0  0  2  0  0  0  0  0  0
  -27.8080  -13.3090   19.5290 C   0  0  0  0  0  3  0  0  0  0  0  0
  -28.9310  -13.1700   20.5750 C   0  0  0  0  0  2  0  0  0  0  0  0
  -30.1810  -13.6320   19.9420 N   0  0  0  0  0  0  0  0  0  0  0  0
  -31.8400  -15.0720   19.4580 O   0  0  0  0  0  0  0  0  0  0  0  0
  -25.4690  -13.8820   20.4110 C   0  0  0  0  0  0  0  0  0  0  0  0
  -24.4270  -13.1020   20.8270 C   0  0  0  0  0  0  0  0  0  0  0  0
  -24.8840  -11.7510   20.7360 C   0  0  0  0  0  0  0  0  0  0  0  0
  -26.4940  -13.0080   20.0890 N   0  0  0  0  0  0  0  0  0  0  0  0
  -26.1530  -11.7190   20.3470 N   0  0  0  0  0  0  0  0  0  0  0  0
  -24.1670  -10.4860   20.9430 C   0  0  0  0  0  0  0  0  0  0  0  0
  -24.6050   -9.5330   21.8880 C   0  0  0  0  0  3  0  0  0  0  0  0
  -23.8870   -8.3330   22.0820 C   0  0  0  0  0  3  0  0  0  0  0  0
  -22.7170   -8.0770   21.3290 C   0  0  0  0  0  0  0  0  0  0  0  0
  -22.2960   -9.0190   20.3750 C   0  0  0  0  0  3  0  0  0  0  0  0
  -23.0150  -10.2100   20.1790 C   0  0  0  0  0  3  0  0  0  0  0  0
  -21.9710   -6.9270   21.4300 O   0  0  0  0  0  0  0  0  0  0  0  0
  -21.8660   -6.2390   22.6130 C   0  0  0  0  0  0  0  0  0  0  0  0
  -21.3560   -6.8440   23.7820 C   0  0  0  0  0  3  0  0  0  0  0  0
  -21.1980   -6.0820   24.9570 C   0  0  0  0  0  3  0  0  0  0  0  0
  -21.5410   -4.7160   24.9630 C   0  0  0  0  0  0  0  0  0  0  0  0
  -22.0440   -4.1120   23.7990 C   0  0  0  0  0  3  0  0  0  0  0  0
  -22.2020   -4.8710   22.6260 C   0  0  0  0  0  0  0  0  0  0  0  0
  -22.6680   -4.2790   21.4990 F   0  0  0  0  0  0  0  0  0  0  0  0
  -21.3820   -3.9820   26.0880 F   0  0  0  0  0  0  0  0  0  0  0  0
  -23.0500  -13.5760   21.1950 C   0  0  0  0  0  0  0  0  0  0  0  0
  -22.3750  -12.8650   22.0910 N   0  0  0  0  0  0  0  0  0  0  0  0
  -22.5830  -14.6110   20.7220 O   0  0  0  0  0  0  0  0  0  0  0  0
  -22.7630  -12.0260   22.4970 H   0  0  0  0  0  0  0  0  0  0  0  0
  -21.4540  -13.1660   22.3780 H   0  0  0  0  0  0  0  0  0  0  0  0
  -25.6240  -15.2570   20.2580 N   0  0  0  0  0  0  0  0  0  0  0  0
  -24.8710  -15.9100   20.4490 H   0  0  0  0  0  0  0  0  0  0  0  0
  -26.4670  -15.7120   19.9320 H   0  0  0  0  0  0  0  0  0  0  0  0
  -29.0530  -17.6970   22.0160 O   0  0  0  0  0  0  0  0  0  0  0  0
  -28.9510  -18.6400   22.0280 H   0  0  0  0  0  0  0  0  0  0  0  0
  1  5  1  0
  3  1  2  0
  3  6  1  0
  4  2  1  0
  5  2  2  0
  5 48  1  0
  6  4  2  0
  7  6  1  0
  8 19  2  0
  9  7  1  0
  9 14  1  0
 10 18  1  0
 10 20  1  0
 11 17  1  0
 11 13  1  0
 12 18  1  0
 13 14  2  0
 13 12  1  0
 15  9  2  0
 16 15  1  0
 16 11  2  0
 17 10  1  0
 18  8  1  0
 20 22  2  0
 21 20  1  0
 23 21  1  0
 24 33  2  0
 24 29  1  0
 25 21  1  0
 25 29  1  0
 26 25  1  0
 27 28  1  0
 27 26  1  0
 28 24  1  0
 29 30  2  0
 30 31  1  0
 32 31  2  0
 33 32  1  0
 34  8  1  0
 34 39  1  0
 34 35  1  0
 35 38  1  1
 35 36  1  0
 37 35  1  0
 39 42  1  0
 40 44  1  0
 40 39  1  0
 41 40  2  0
 44 43  1  0
 46 44  1  0
 46 47  1  0
 46 45  1  0
 49 48  2  0
 49 51  1  0
 50 51  2  0
 51 88  1  0
 52 50  1  0
 53 58  1  0
 54 55  1  0
 54 53  1  0
 56 55  1  0
 56 63  1  0
 56 57  1  0
 58 52  1  0
 58 57  1  0
 59 52  2  0
 60 61  2  0
 61 80  1  0
 62 61  1  0
 62 65  1  0
 63 64  1  0
 63 60  1  0
 64 62  2  0
 65 66  1  0
 66 67  2  0
 68 71  1  0
 68 67  1  0
 69 68  2  0
 70 69  1  0
 70 65  2  0
 71 72  1  0
 72 77  2  0
 72 73  1  0
 73 74  2  0
 74 75  1  0
 75 79  1  0
 76 75  2  0
 77 76  1  0
 78 77  1  0
 80 81  1  0
 81 84  1  0
 81 83  1  0
 82 80  2  0
 85 60  1  0
 85 86  1  0
 87 85  1  0
 88 89  1  0
M  ISO  4   6 101   7 101  50 100  52 100
M  END
>  <TORSDO>  (36) 
F 20

>  <SCORE>  (36) 
-13.253

>  <name>  (36) 
35

>  <ligand_id>  (36) 
35

>  <original_smiles>  (36) 
[H]OC(=C([H])C(=O)N1C([H])([H])C([H])([H])C([H])([H])C([H])(n2nc(-c3c([H])c([H])c(Oc4c([H])c([H])c(F)c([H])c4F)c([H])c3[H])c(C(=O)N([H])[H])c2N([H])[H])C1([H])[H])C([H])([H])C([H])([H])c1c([H])c([H])c(Oc2c([H])c([H])c3c(c2[H])C([H])([H])N(C(=O)C([H])(N([H])C(=O)C([H])(N([H])C([H])([H])[H])C([H])([H])[H])C(C([H])([H])[H])(C([H])([H])[H])C([H])([H])[H])C([H])(C(=O)N([H])C2([H])c4c([H])c([H])c([H])c([H])c4C([H])([H])C([H])([H])C2([H])[H])C3([H])[H])c([H])c1[H]

>  <smiles>  (36) 
[H]OC(=C([H])C(=O)N1C([H])([H])C([H])([H])C([H])([H])C([H])(n2nc(-c3c([H])c([H])c(Oc4c([H])c([H])c(F)c([H])c4F)c([H])c3[H])c(C(=O)N([H])[H])c2N([H])[H])C1([H])[H])C([H])([H])C([H])([H])c1c([H])c([H])c(Oc2c([H])c([H])c3c(c2[H])C([H])([H])N(C(=O)C([H])(N([H])C(=O)C([H])(N([H])C([H])([H])[H])C([H])([H])[H])C(C([H])([H])[H])(C([H])([H])[H])C([H])([H])[H])C([H])(C(=O)N([H])C2([H])c4c([H])c([H])c([H])c([H])c4C([H])([H])C([H])([H])C2([H])[H])C3([H])[H])c([H])c1[H]

$$$$
36:0:0
     RDKit          3D

100108  0  0  1  0  0  0  0  0999 V2000
  -29.8390  -17.0710   20.8770 C   0  0  0  0  0  3  0  0  0  0  0  0
  -30.5050  -14.5350   20.4730 C   0  0  0  0  0  0  0  0  0  0  0  0
  -30.3490  -12.2490   19.4610 C   0  0  0  0  0  2  0  0  0  0  0  0
  -29.4270  -12.3110   18.2270 C   0  0  0  0  0  2  0  0  0  0  0  0
  -27.9480  -12.1700   18.6450 C   0  0  0  0  0  2  0  0  0  0  0  0
  -27.5640  -13.0750   19.8410 C   0  0  0  0  0  3  0  0  0  0  0  0
  -28.6150  -12.9780   20.9710 C   0  0  0  0  0  2  0  0  0  0  0  0
  -29.9110  -13.3160   20.3800 N   0  0  0  0  0  0  0  0  0  0  0  0
  -31.6990  -14.7000   20.2110 O   0  0  0  0  0  0  0  0  0  0  0  0
  -29.6400  -15.5940   20.6600 N   0  0  0  0  0  0  0  0  0  0  0  0
  -28.6710  -15.3180   20.7570 H   0  0  0  0  0  0  0  0  0  0  0  0
  -25.1830  -13.6830   20.5800 C   0  0  0  0  0  0  0  0  0  0  0  0
  -24.1030  -12.9160   20.9270 C   0  0  0  0  0  0  0  0  0  0  0  0
  -24.5570  -11.5610   20.8750 C   0  0  0  0  0  0  0  0  0  0  0  0
  -26.2140  -12.7990   20.3280 N   0  0  0  0  0  0  0  0  0  0  0  0
  -25.8440  -11.5180   20.5660 N   0  0  0  0  0  0  0  0  0  0  0  0
  -23.8140  -10.3030   21.0320 C   0  0  0  0  0  0  0  0  0  0  0  0
  -24.2490   -9.2980   21.9210 C   0  0  0  0  0  3  0  0  0  0  0  0
  -23.5150   -8.1030   22.0720 C   0  0  0  0  0  3  0  0  0  0  0  0
  -22.3230   -7.9040   21.3310 C   0  0  0  0  0  0  0  0  0  0  0  0
  -21.9030   -8.9000   20.4310 C   0  0  0  0  0  3  0  0  0  0  0  0
  -22.6400  -10.0880   20.2810 C   0  0  0  0  0  3  0  0  0  0  0  0
  -21.5580   -6.7640   21.3950 O   0  0  0  0  0  0  0  0  0  0  0  0
  -21.5450   -5.9690   22.5120 C   0  0  0  0  0  0  0  0  0  0  0  0
  -21.1760   -6.4680   23.7790 C   0  0  0  0  0  3  0  0  0  0  0  0
  -21.1110   -5.5990   24.8860 C   0  0  0  0  0  3  0  0  0  0  0  0
  -21.3990   -4.2310   24.7260 C   0  0  0  0  0  0  0  0  0  0  0  0
  -21.7570   -3.7300   23.4630 C   0  0  0  0  0  3  0  0  0  0  0  0
  -21.8260   -4.5970   22.3570 C   0  0  0  0  0  0  0  0  0  0  0  0
  -22.1540   -4.1060   21.1370 F   0  0  0  0  0  0  0  0  0  0  0  0
  -21.3260   -3.3930   25.7860 F   0  0  0  0  0  0  0  0  0  0  0  0
  -22.7120  -13.4090   21.2010 C   0  0  0  0  0  0  0  0  0  0  0  0
  -21.9700  -12.7010   22.0500 N   0  0  0  0  0  0  0  0  0  0  0  0
  -22.2830  -14.4430   20.6970 O   0  0  0  0  0  0  0  0  0  0  0  0
  -22.3260  -11.8620   22.4750 H   0  0  0  0  0  0  0  0  0  0  0  0
  -21.0360  -13.0100   22.2780 H   0  0  0  0  0  0  0  0  0  0  0  0
  -25.3770  -15.0550   20.4320 N   0  0  0  0  0  0  0  0  0  0  0  0
  -24.6230  -15.7270   20.5420 H   0  0  0  0  0  0  0  0  0  0  0  0
  -26.2330  -15.4760   20.1180 H   0  0  0  0  0  0  0  0  0  0  0  0
  -28.8000  -17.9090   20.0300 C   0  0  0  0  0  3  0  0  0  0  0  0
  -28.6540  -19.4320   20.3140 C   0  0  0  0  0  3  0  0  0  0  0  0
  -27.5880  -20.2500   19.5440 C   0  0  0  0  0  2  0  0  0  0  0  0
  -27.4640  -21.6790   20.1540 C   0  0  0  0  0  2  0  0  0  0  0  0
  -27.4610  -22.8740   19.1670 C   0  0  0  0  0  2  0  0  0  0  0  0
  -28.2460  -24.0990   19.6930 C   0  0  0  0  0  2  0  0  0  0  0  0
  -28.0730  -25.4170   18.8820 C   0  0  0  0  0  2  0  0  0  0  0  0
  -28.0500  -26.5920   19.7060 O   0  0  0  0  0  0  0  0  0  0  0  0
  -24.4800  -31.7990   23.1230 C   0  0  0  0  0  0  0  0  0  0  0  0
  -26.8790  -27.3270   19.8130 C   0  0  0  0  0  0  0  0  0  0  0  0
  -23.1770  -30.4750   21.5010 C   0  0  0  0  0  3  0  0  0  0  0  0
  -24.5410  -28.9260   19.9950 C   0  0  0  0  0  0  0  0  0  0  0  0
  -25.7250  -30.7300   21.2350 C   0  0  0  0  0  2  0  0  0  0  0  0
  -25.7530  -29.3880   20.5170 C   0  0  0  0  0  0  0  0  0  0  0  0
  -26.9290  -28.6090   20.3990 C   0  0  0  0  0  3  0  0  0  0  0  0
  -25.6090  -26.8380   19.3810 C   0  0  0  0  0  3  0  0  0  0  0  0
  -24.4650  -27.6480   19.4250 C   0  0  0  0  0  3  0  0  0  0  0  0
  -23.3400  -29.8400   20.1020 C   0  0  0  0  0  2  0  0  0  0  0  0
  -24.4770  -31.0140   21.9980 N   0  0  0  0  0  0  0  0  0  0  0  0
  -23.4220  -32.1000   23.6810 O   0  0  0  0  0  0  0  0  0  0  0  0
  -22.5520  -29.4260   22.4540 C   0  0  0  0  0  0  0  0  0  0  0  0
  -21.2320  -29.2640   22.3600 N   0  0  0  0  0  0  0  0  0  0  0  0
  -23.2580  -28.7810   23.2440 O   0  0  0  0  0  0  0  0  0  0  0  0
  -20.7530  -29.8120   21.6620 H   0  0  0  0  0  0  0  0  0  0  0  0
  -17.8370  -28.1170   22.9360 C   0  0  0  0  0  0  0  0  0  0  0  0
  -20.4060  -28.3390   23.1450 C   0  0  0  0  0  3  0  0  0  0  0  0
  -20.4840  -26.9090   22.5570 C   0  0  0  0  0  2  0  0  0  0  0  0
  -19.3490  -26.6050   21.5780 C   0  0  0  0  0  2  0  0  0  0  0  0
  -17.9810  -26.7720   22.2420 C   0  0  0  0  0  2  0  0  0  0  0  0
  -18.9740  -28.8610   23.3410 C   0  0  0  0  0  0  0  0  0  0  0  0
  -18.7810  -30.1240   23.9460 C   0  0  0  0  0  3  0  0  0  0  0  0
  -17.4850  -30.6390   24.1550 C   0  0  0  0  0  3  0  0  0  0  0  0
  -16.3670  -29.8850   23.7720 C   0  0  0  0  0  3  0  0  0  0  0  0
  -16.5380  -28.6270   23.1690 C   0  0  0  0  0  3  0  0  0  0  0  0
  -25.8060  -32.3890   23.7080 C   0  0  0  0  0  3  0  0  0  0  0  0
  -25.5480  -33.7850   24.1030 N   0  0  0  0  0  0  0  0  0  0  0  0
  -25.8570  -34.8570   23.3550 C   0  0  0  0  0  0  0  0  0  0  0  0
  -26.4610  -34.7670   22.2870 O   0  0  0  0  0  0  0  0  0  0  0  0
  -25.0570  -33.9350   24.9690 H   0  0  0  0  0  0  0  0  0  0  0  0
  -24.1510  -36.6600   23.0980 C   0  0  0  0  0  1  0  0  0  0  0  0
  -25.4170  -36.2410   23.8650 C   0  0  0  0  0  3  0  0  0  0  0  0
  -27.6120  -37.0420   24.6180 C   0  0  0  0  0  1  0  0  0  0  0  0
  -26.4760  -37.2680   23.7240 N   0  0  0  0  0  0  0  0  0  0  0  0
  -26.1150  -38.2030   23.8910 H   0  0  0  0  0  0  0  0  0  0  0  0
  -26.3610  -31.5760   24.9460 C   0  0  1  0  0  0  0  0  0  0  0  0
  -25.3160  -31.3340   26.0570 C   0  0  0  0  0  1  0  0  0  0  0  0
  -26.9070  -30.1950   24.5130 C   0  0  0  0  0  1  0  0  0  0  0  0
  -27.5580  -32.3240   25.5850 C   0  0  0  0  0  1  0  0  0  0  0  0
  -31.2870  -17.6700   20.7260 C   0  0  0  0  0  2  0  0  0  0  0  0
  -31.5730  -19.0730   21.3990 C   0  0  0  0  0  2  0  0  0  0  0  0
  -34.0440  -20.7170   18.9390 C   0  0  0  0  0  3  0  0  0  0  0  0
  -33.7490  -22.0930   19.0170 C   0  0  0  0  0  3  0  0  0  0  0  0
  -33.3870  -19.7950   19.7540 C   0  0  0  0  0  3  0  0  0  0  0  0
  -32.7380  -22.5500   19.8910 C   0  0  0  0  0  0  0  0  0  0  0  0
  -32.3180  -20.1820   20.5880 C   0  0  0  0  0  0  0  0  0  0  0  0
  -31.9890  -21.5900   20.6750 C   0  0  0  0  0  0  0  0  0  0  0  0
  -31.5450  -24.6330   18.9010 C   0  0  0  0  0  1  0  0  0  0  0  0
  -32.5980  -24.0940   19.8880 C   0  0  0  0  0  2  0  0  0  0  0  0
  -30.8110  -21.9400   21.6110 C   0  0  0  0  0  2  0  0  0  0  0  0
  -29.2920  -23.5560   22.9080 C   0  0  0  0  0  1  0  0  0  0  0  0
  -30.5790  -23.3780   22.0980 C   0  0  0  0  0  2  0  0  0  0  0  0
  1 40  1  0
  2 10  1  0
  3  8  1  0
  4  5  1  0
  4  3  1  0
  6  5  1  0
  6 15  1  0
  6  7  1  0
  8  2  1  0
  8  7  1  0
  9  2  2  0
 10 11  1  0
 10  1  1  0
 12 13  2  0
 13 32  1  0
 14 13  1  0
 14 17  1  0
 15 16  1  0
 15 12  1  0
 16 14  2  0
 17 18  1  0
 18 19  2  0
 20 23  1  0
 20 19  1  0
 21 20  2  0
 22 21  1  0
 22 17  2  0
 23 24  1  0
 24 25  1  0
 25 26  2  0
 27 26  1  0
 27 31  1  0
 28 27  2  0
 29 24  2  0
 29 28  1  0
 30 29  1  0
 32 33  1  0
 33 36  1  0
 33 35  1  0
 34 32  2  0
 37 38  1  0
 37 12  1  0
 39 37  1  0
 40 41  2  0
 42 43  1  0
 42 41  1  0
 44 45  1  0
 44 43  1  0
 46 45  1  0
 46 47  1  0
 47 49  1  0
 48 59  2  0
 49 54  1  0
 50 58  1  0
 50 60  1  0
 51 57  1  0
 51 53  1  0
 52 58  1  0
 53 52  1  0
 54 53  2  0
 55 56  1  0
 55 49  2  0
 56 51  2  0
 57 50  1  0
 58 48  1  0
 60 62  2  0
 61 60  1  0
 63 61  1  0
 64 73  2  0
 64 69  1  0
 65 61  1  0
 65 69  1  0
 66 65  1  0
 67 68  1  0
 67 66  1  0
 68 64  1  0
 69 70  2  0
 70 71  1  0
 72 71  2  0
 73 72  1  0
 74 48  1  0
 74 75  1  0
 74 84  1  0
 75 78  1  0
 76 80  1  0
 76 75  1  0
 77 76  2  0
 80 79  1  0
 82 80  1  0
 82 83  1  0
 82 81  1  0
 84 87  1  1
 84 85  1  0
 86 84  1  0
 88  1  1  0
 88 89  1  0
 90 91  2  0
 90 92  1  0
 91 93  1  0
 92 94  2  0
 93 95  2  0
 94 95  1  0
 94 89  1  0
 95 98  1  0
 96 97  1  0
 97 93  1  0
 98100  1  0
100 99  1  0
M  ISO  4   2 100  10 100  46 101  47 101
M  END
>  <TORSDO>  (37) 
F 29

>  <SCORE>  (37) 
-10.943

>  <name>  (37) 
36

>  <ligand_id>  (37) 
36

>  <original_smiles>  (37) 
[H]c1c([H])c([H])c2c(c1[H])C([H])([H])C([H])([H])C([H])([H])C2([H])N([H])C(=O)C1([H])N(C(=O)C([H])(N([H])C(=O)C([H])(N([H])C([H])([H])[H])C([H])([H])[H])C(C([H])([H])[H])(C([H])([H])[H])C([H])([H])[H])C([H])([H])c2c([H])c(OC([H])([H])C([H])([H])C([H])([H])C([H])([H])C([H])([H])C([H])([H])C([H])([H])C([H])(N([H])C(=O)N3C([H])([H])C([H])([H])C([H])([H])C([H])(n4nc(-c5c([H])c([H])c(Oc6c([H])c([H])c(F)c([H])c6F)c([H])c5[H])c(C(=O)N([H])[H])c4N([H])[H])C3([H])[H])C([H])([H])C([H])([H])c3c([H])c([H])c([H])c(C([H])([H])C([H])([H])[H])c3C([H])([H])C([H])([H])C([H])([H])[H])c([H])c([H])c2C1([H])[H]

>  <smiles>  (37) 
[H]c1c([H])c([H])c2c(c1[H])C([H])([H])C([H])([H])C([H])([H])C2([H])N([H])C(=O)C1([H])N(C(=O)C([H])(N([H])C(=O)C([H])(N([H])C([H])([H])[H])C([H])([H])[H])C(C([H])([H])[H])(C([H])([H])[H])C([H])([H])[H])C([H])([H])c2c([H])c(OC([H])([H])C([H])([H])C([H])([H])C([H])([H])C([H])([H])C([H])([H])C([H])([H])C([H])(N([H])C(=O)N3C([H])([H])C([H])([H])C([H])([H])C([H])(n4nc(-c5c([H])c([H])c(Oc6c([H])c([H])c(F)c([H])c6F)c([H])c5[H])c(C(=O)N([H])[H])c4N([H])[H])C3([H])[H])C([H])([H])C([H])([H])c3c([H])c([H])c([H])c(C([H])([H])C([H])([H])[H])c3C([H])([H])C([H])([H])C([H])([H])[H])c([H])c([H])c2C1([H])[H]

$$$$
37:0:0
     RDKit          3D

 91 99  0  0  1  0  0  0  0  0999 V2000
  -28.1430  -22.9250   19.2480 C   0  0  0  0  0  3  0  0  0  0  0  0
  -28.1090  -24.3420   19.1480 C   0  0  0  0  0  3  0  0  0  0  0  0
  -28.7970  -24.5130   21.4460 C   0  0  0  0  0  3  0  0  0  0  0  0
  -28.4960  -22.2620   20.4520 C   0  0  0  0  0  0  0  0  0  0  0  0
  -28.3940  -25.1730   20.2570 C   0  0  0  0  0  0  0  0  0  0  0  0
  -28.8570  -23.0830   21.5580 C   0  0  0  0  0  0  0  0  0  0  0  0
  -29.7970  -23.2090   23.7660 C   0  0  0  0  0  1  0  0  0  0  0  0
  -29.2310  -22.4350   22.7150 O   0  0  0  0  0  0  0  0  0  0  0  0
  -28.4020  -26.5760   20.1650 O   0  0  0  0  0  0  0  0  0  0  0  0
  -24.6300  -31.8590   23.2700 C   0  0  0  0  0  0  0  0  0  0  0  0
  -27.2390  -27.3450   20.1860 C   0  0  0  0  0  0  0  0  0  0  0  0
  -23.4230  -30.4810   21.6130 C   0  0  0  0  0  3  0  0  0  0  0  0
  -24.8680  -28.9290   20.1870 C   0  0  0  0  0  0  0  0  0  0  0  0
  -25.9590  -30.7980   21.4360 C   0  0  0  0  0  2  0  0  0  0  0  0
  -26.0330  -29.4220   20.7880 C   0  0  0  0  0  0  0  0  0  0  0  0
  -27.2200  -28.6410   20.7800 C   0  0  0  0  0  3  0  0  0  0  0  0
  -26.0510  -26.8870   19.5770 C   0  0  0  0  0  3  0  0  0  0  0  0
  -24.8750  -27.6630   19.5800 C   0  0  0  0  0  3  0  0  0  0  0  0
  -23.6380  -29.8120   20.2280 C   0  0  0  0  0  2  0  0  0  0  0  0
  -24.6900  -31.0610   22.1630 N   0  0  0  0  0  0  0  0  0  0  0  0
  -23.5480  -32.1380   23.8040 O   0  0  0  0  0  0  0  0  0  0  0  0
  -22.7530  -29.4580   22.5620 C   0  0  0  0  0  0  0  0  0  0  0  0
  -21.4270  -29.2890   22.4280 N   0  0  0  0  0  0  0  0  0  0  0  0
  -23.4260  -28.8210   23.3770 O   0  0  0  0  0  0  0  0  0  0  0  0
  -20.9450  -29.8580   21.7460 H   0  0  0  0  0  0  0  0  0  0  0  0
  -18.0370  -28.1310   22.9170 C   0  0  0  0  0  0  0  0  0  0  0  0
  -20.5980  -28.3520   23.1870 C   0  0  0  0  0  3  0  0  0  0  0  0
  -20.6800  -26.9270   22.5920 C   0  0  0  0  0  2  0  0  0  0  0  0
  -19.5730  -26.6330   21.5760 C   0  0  0  0  0  2  0  0  0  0  0  0
  -18.1930  -26.7880   22.2240 C   0  0  0  0  0  2  0  0  0  0  0  0
  -19.1660  -28.8720   23.3560 C   0  0  0  0  0  0  0  0  0  0  0  0
  -18.9640  -30.1300   23.9650 C   0  0  0  0  0  3  0  0  0  0  0  0
  -17.6670  -30.6470   24.1390 C   0  0  0  0  0  3  0  0  0  0  0  0
  -16.5520  -29.9020   23.7150 C   0  0  0  0  0  3  0  0  0  0  0  0
  -16.7380  -28.6450   23.1110 C   0  0  0  0  0  3  0  0  0  0  0  0
  -25.9170  -32.4760   23.9020 C   0  0  0  0  0  3  0  0  0  0  0  0
  -25.6170  -33.8740   24.2400 N   0  0  0  0  0  0  0  0  0  0  0  0
  -25.9320  -34.9270   23.4720 C   0  0  0  0  0  0  0  0  0  0  0  0
  -26.5730  -34.8210   22.4230 O   0  0  0  0  0  0  0  0  0  0  0  0
  -25.0490  -34.0310   25.0590 H   0  0  0  0  0  0  0  0  0  0  0  0
  -24.1830  -36.7110   23.1800 C   0  0  0  0  0  1  0  0  0  0  0  0
  -25.4590  -36.3160   23.9420 C   0  0  0  0  0  3  0  0  0  0  0  0
  -27.6200  -37.2160   24.6830 C   0  0  0  0  0  1  0  0  0  0  0  0
  -26.4830  -37.3700   23.7790 N   0  0  0  0  0  0  0  0  0  0  0  0
  -26.0800  -38.2910   23.9300 H   0  0  0  0  0  0  0  0  0  0  0  0
  -26.4220  -31.6920   25.1760 C   0  0  1  0  0  0  0  0  0  0  0  0
  -25.3210  -31.4580   26.2390 C   0  0  0  0  0  1  0  0  0  0  0  0
  -26.9940  -30.3120   24.7770 C   0  0  0  0  0  1  0  0  0  0  0  0
  -27.5740  -32.4730   25.8490 C   0  0  0  0  0  1  0  0  0  0  0  0
  -28.3080  -20.7120   20.5830 C   0  0  0  0  0  3  0  0  0  0  0  0
  -29.5250  -19.7070   20.5170 C   0  0  0  0  0  3  0  0  0  0  0  0
  -29.1360  -18.1680   20.6240 C   0  0  0  0  0  3  0  0  0  0  0  0
  -30.2940  -17.0910   20.5730 C   0  0  0  0  0  3  0  0  0  0  0  0
  -30.6130  -14.5640   20.2770 C   0  0  0  0  0  0  0  0  0  0  0  0
  -30.3410  -12.3410   19.2100 C   0  0  0  0  0  2  0  0  0  0  0  0
  -29.3700  -12.4780   18.0180 C   0  0  0  0  0  2  0  0  0  0  0  0
  -27.9060  -12.3320   18.4830 C   0  0  0  0  0  2  0  0  0  0  0  0
  -27.5830  -13.1990   19.7300 C   0  0  0  0  0  3  0  0  0  0  0  0
  -28.6680  -13.0400   20.8200 C   0  0  0  0  0  2  0  0  0  0  0  0
  -29.9630  -13.3630   20.2070 N   0  0  0  0  0  0  0  0  0  0  0  0
  -31.7620  -14.7030   19.8520 O   0  0  0  0  0  0  0  0  0  0  0  0
  -29.8750  -15.6520   20.6500 N   0  0  0  0  0  0  0  0  0  0  0  0
  -28.9350  -15.4610   20.9650 H   0  0  0  0  0  0  0  0  0  0  0  0
  -25.2150  -13.8070   20.5230 C   0  0  0  0  0  0  0  0  0  0  0  0
  -24.1510  -13.0370   20.9110 C   0  0  0  0  0  0  0  0  0  0  0  0
  -24.6020  -11.6820   20.8470 C   0  0  0  0  0  0  0  0  0  0  0  0
  -26.2450  -12.9220   20.2480 N   0  0  0  0  0  0  0  0  0  0  0  0
  -25.8830  -11.6380   20.5010 N   0  0  0  0  0  0  0  0  0  0  0  0
  -23.8700  -10.4220   21.0370 C   0  0  0  0  0  0  0  0  0  0  0  0
  -24.3060   -9.4480   21.9620 C   0  0  0  0  0  3  0  0  0  0  0  0
  -23.5740   -8.2530   22.1420 C   0  0  0  0  0  3  0  0  0  0  0  0
  -22.3940   -8.0250   21.3960 C   0  0  0  0  0  0  0  0  0  0  0  0
  -21.9770   -8.9870   20.4590 C   0  0  0  0  0  3  0  0  0  0  0  0
  -22.7100  -10.1730   20.2780 C   0  0  0  0  0  3  0  0  0  0  0  0
  -21.6340   -6.8830   21.4850 O   0  0  0  0  0  0  0  0  0  0  0  0
  -21.5680   -6.1500   22.6420 C   0  0  0  0  0  0  0  0  0  0  0  0
  -21.0990   -6.7070   23.8520 C   0  0  0  0  0  3  0  0  0  0  0  0
  -20.9830   -5.9010   25.0010 C   0  0  0  0  0  3  0  0  0  0  0  0
  -21.3240   -4.5360   24.9420 C   0  0  0  0  0  0  0  0  0  0  0  0
  -21.7870   -3.9770   23.7380 C   0  0  0  0  0  3  0  0  0  0  0  0
  -21.9050   -4.7830   22.5910 C   0  0  0  0  0  0  0  0  0  0  0  0
  -22.3310   -4.2340   21.4280 F   0  0  0  0  0  0  0  0  0  0  0  0
  -21.2060   -3.7610   26.0440 F   0  0  0  0  0  0  0  0  0  0  0  0
  -22.7660  -13.5200   21.2300 C   0  0  0  0  0  0  0  0  0  0  0  0
  -22.0580  -12.8220   22.1090 N   0  0  0  0  0  0  0  0  0  0  0  0
  -22.3210  -14.5550   20.7340 O   0  0  0  0  0  0  0  0  0  0  0  0
  -22.4300  -11.9850   22.5340 H   0  0  0  0  0  0  0  0  0  0  0  0
  -21.1310  -13.1270   22.3660 H   0  0  0  0  0  0  0  0  0  0  0  0
  -25.3860  -15.1790   20.3600 N   0  0  0  0  0  0  0  0  0  0  0  0
  -24.6300  -15.8390   20.5010 H   0  0  0  0  0  0  0  0  0  0  0  0
  -26.2280  -15.6090   19.9970 H   0  0  0  0  0  0  0  0  0  0  0  0
  1  4  1  0
  2  1  2  0
  2  5  1  0
  3  6  1  0
  4 50  1  0
  4  6  2  0
  5  3  2  0
  6  8  1  0
  8  7  1  0
  9 11  1  0
  9  5  1  0
 10 21  2  0
 11 16  1  0
 12 20  1  0
 12 22  1  0
 13 19  1  0
 13 15  1  0
 14 20  1  0
 15 14  1  0
 16 15  2  0
 17 18  1  0
 17 11  2  0
 18 13  2  0
 19 12  1  0
 20 10  1  0
 22 24  2  0
 23 22  1  0
 25 23  1  0
 26 35  2  0
 26 31  1  0
 27 23  1  0
 27 31  1  0
 28 27  1  0
 29 30  1  0
 29 28  1  0
 30 26  1  0
 31 32  2  0
 32 33  1  0
 34 33  2  0
 35 34  1  0
 36 10  1  0
 36 37  1  0
 36 46  1  0
 37 40  1  0
 38 42  1  0
 38 37  1  0
 39 38  2  0
 42 41  1  0
 44 45  1  0
 44 42  1  0
 44 43  1  0
 46 49  1  1
 46 47  1  0
 48 46  1  0
 51 50  2  0
 51 52  1  0
 53 52  2  0
 53 62  1  0
 54 62  1  0
 55 60  1  0
 56 57  1  0
 56 55  1  0
 58 57  1  0
 58 67  1  0
 58 59  1  0
 60 54  1  0
 60 59  1  0
 61 54  2  0
 62 63  1  0
 64 65  2  0
 65 84  1  0
 66 65  1  0
 66 69  1  0
 67 68  1  0
 67 64  1  0
 68 66  2  0
 69 70  1  0
 70 71  2  0
 72 75  1  0
 72 71  1  0
 73 72  2  0
 74 73  1  0
 74 69  2  0
 75 76  1  0
 76 77  1  0
 77 78  2  0
 79 78  1  0
 79 83  1  0
 80 79  2  0
 81 76  2  0
 81 80  1  0
 82 81  1  0
 84 85  1  0
 85 88  1  0
 85 87  1  0
 86 84  2  0
 89 90  1  0
 89 64  1  0
 91 89  1  0
M  ISO  4   5 101   9 101  54 100  62 100
M  END
>  <TORSDO>  (38) 
F 21

>  <SCORE>  (38) 
-13.408

>  <name>  (38) 
37

>  <ligand_id>  (38) 
37

>  <original_smiles>  (38) 
[H]c1c([H])c([H])c2c(c1[H])C([H])([H])C([H])([H])C([H])([H])C2([H])N([H])C(=O)C1([H])N(C(=O)C([H])(N([H])C(=O)C([H])(N([H])C([H])([H])[H])C([H])([H])[H])C(C([H])([H])[H])(C([H])([H])[H])C([H])([H])[H])C([H])([H])c2c([H])c(Oc3c([H])c([H])c(C([H])([H])C([H])([H])C([H])([H])C([H])([H])N([H])C(=O)N4C([H])([H])C([H])([H])C([H])([H])C([H])(n5nc(-c6c([H])c([H])c(Oc7c([H])c([H])c(F)c([H])c7F)c([H])c6[H])c(C(=O)N([H])[H])c5N([H])[H])C4([H])[H])c(OC([H])([H])[H])c3[H])c([H])c([H])c2C1([H])[H]

>  <smiles>  (38) 
[H]c1c([H])c([H])c2c(c1[H])C([H])([H])C([H])([H])C([H])([H])C2([H])N([H])C(=O)C1([H])N(C(=O)C([H])(N([H])C(=O)C([H])(N([H])C([H])([H])[H])C([H])([H])[H])C(C([H])([H])[H])(C([H])([H])[H])C([H])([H])[H])C([H])([H])c2c([H])c(Oc3c([H])c([H])c(C([H])([H])C([H])([H])C([H])([H])C([H])([H])N([H])C(=O)N4C([H])([H])C([H])([H])C([H])([H])C([H])(n5nc(-c6c([H])c([H])c(Oc7c([H])c([H])c(F)c([H])c7F)c([H])c6[H])c(C(=O)N([H])[H])c5N([H])[H])C4([H])[H])c(OC([H])([H])[H])c3[H])c([H])c([H])c2C1([H])[H]

$$$$
38:0:0
     RDKit          3D

 92101  0  0  1  0  0  0  0  0999 V2000
  -28.2370  -22.2880   21.6960 C   0  0  0  0  0  3  0  0  0  0  0  0
  -27.8950  -23.4260   22.4600 C   0  0  0  0  0  3  0  0  0  0  0  0
  -28.6050  -23.7770   19.8110 C   0  0  0  0  0  3  0  0  0  0  0  0
  -28.6140  -22.3990   20.3460 C   0  0  0  0  0  0  0  0  0  0  0  0
  -27.9070  -24.7390   21.9270 C   0  0  0  0  0  0  0  0  0  0  0  0
  -28.2490  -24.9910   20.5700 C   0  0  0  0  0  0  0  0  0  0  0  0
  -27.6060  -25.7730   22.7650 O   0  0  0  0  0  0  0  0  0  0  0  0
  -27.3670  -25.4860   23.6400 H   0  0  0  0  0  0  0  0  0  0  0  0
  -28.3280  -26.3700   20.1160 O   0  0  0  0  0  0  0  0  0  0  0  0
  -24.6120  -31.9130   23.1870 C   0  0  0  0  0  0  0  0  0  0  0  0
  -27.2410  -27.2920   20.1340 C   0  0  0  0  0  0  0  0  0  0  0  0
  -23.4260  -30.5130   21.5390 C   0  0  0  0  0  3  0  0  0  0  0  0
  -24.8900  -28.9650   20.1100 C   0  0  0  0  0  0  0  0  0  0  0  0
  -25.9720  -30.8210   21.3750 C   0  0  0  0  0  2  0  0  0  0  0  0
  -26.0600  -29.4370   20.7200 C   0  0  0  0  0  0  0  0  0  0  0  0
  -27.2390  -28.6140   20.7170 C   0  0  0  0  0  3  0  0  0  0  0  0
  -26.0500  -26.9020   19.4920 C   0  0  0  0  0  3  0  0  0  0  0  0
  -24.8910  -27.7070   19.4850 C   0  0  0  0  0  3  0  0  0  0  0  0
  -23.6530  -29.8470   20.1570 C   0  0  0  0  0  2  0  0  0  0  0  0
  -24.6890  -31.1030   22.0890 N   0  0  0  0  0  0  0  0  0  0  0  0
  -23.5230  -32.1820   23.7170 O   0  0  0  0  0  0  0  0  0  0  0  0
  -22.7600  -29.4900   22.4930 C   0  0  0  0  0  0  0  0  0  0  0  0
  -21.4360  -29.3050   22.3600 N   0  0  0  0  0  0  0  0  0  0  0  0
  -23.4390  -28.8680   23.3150 O   0  0  0  0  0  0  0  0  0  0  0  0
  -20.9500  -29.8540   21.6660 H   0  0  0  0  0  0  0  0  0  0  0  0
  -18.0640  -28.0850   22.8630 C   0  0  0  0  0  0  0  0  0  0  0  0
  -20.6220  -28.3570   23.1260 C   0  0  0  0  0  3  0  0  0  0  0  0
  -20.7290  -26.9300   22.5390 C   0  0  0  0  0  2  0  0  0  0  0  0
  -19.6270  -26.6120   21.5220 C   0  0  0  0  0  2  0  0  0  0  0  0
  -18.2460  -26.7430   22.1720 C   0  0  0  0  0  2  0  0  0  0  0  0
  -19.1800  -28.8490   23.2970 C   0  0  0  0  0  0  0  0  0  0  0  0
  -18.9540  -30.1040   23.9050 C   0  0  0  0  0  3  0  0  0  0  0  0
  -17.6460  -30.5940   24.0800 C   0  0  0  0  0  3  0  0  0  0  0  0
  -16.5450  -29.8270   23.6630 C   0  0  0  0  0  3  0  0  0  0  0  0
  -16.7560  -28.5730   23.0590 C   0  0  0  0  0  3  0  0  0  0  0  0
  -25.8850  -32.5540   23.8200 C   0  0  0  0  0  3  0  0  0  0  0  0
  -25.5630  -33.9490   24.1510 N   0  0  0  0  0  0  0  0  0  0  0  0
  -25.8960  -35.0090   23.4010 C   0  0  0  0  0  0  0  0  0  0  0  0
  -26.5790  -34.9150   22.3770 O   0  0  0  0  0  0  0  0  0  0  0  0
  -24.9530  -34.0950   24.9420 H   0  0  0  0  0  0  0  0  0  0  0  0
  -24.1710  -36.8020   23.0290 C   0  0  0  0  0  1  0  0  0  0  0  0
  -25.3980  -36.3940   23.8610 C   0  0  0  0  0  3  0  0  0  0  0  0
  -27.5140  -37.2770   24.7420 C   0  0  0  0  0  1  0  0  0  0  0  0
  -26.4320  -37.4500   23.7760 N   0  0  0  0  0  0  0  0  0  0  0  0
  -26.0220  -38.3670   23.9240 H   0  0  0  0  0  0  0  0  0  0  0  0
  -26.3940  -31.7870   25.1030 C   0  0  1  0  0  0  0  0  0  0  0  0
  -25.2910  -31.5450   26.1600 C   0  0  0  0  0  1  0  0  0  0  0  0
  -26.9870  -30.4100   24.7240 C   0  0  0  0  0  1  0  0  0  0  0  0
  -27.5330  -32.5890   25.7770 C   0  0  0  0  0  1  0  0  0  0  0  0
  -28.9200  -21.0360   19.5190 C   0  0  0  0  0  2  0  0  0  0  0  0
  -30.7780  -14.9880   20.0150 C   0  0  0  0  0  0  0  0  0  0  0  0
  -30.4770  -12.6860   19.0440 C   0  0  0  0  0  2  0  0  0  0  0  0
  -29.4900  -12.6710   17.8610 C   0  0  0  0  0  2  0  0  0  0  0  0
  -28.0510  -12.4760   18.3690 C   0  0  0  0  0  2  0  0  0  0  0  0
  -27.7150  -13.3840   19.5830 C   0  0  0  0  0  3  0  0  0  0  0  0
  -28.8360  -13.3980   20.6450 C   0  0  0  0  0  2  0  0  0  0  0  0
  -30.0600  -13.7990   19.9430 N   0  0  0  0  0  0  0  0  0  0  0  0
  -31.9820  -14.8960   19.7520 O   0  0  0  0  0  0  0  0  0  0  0  0
  -30.5070  -18.8610   19.1940 C   0  0  0  0  0  2  0  0  0  0  0  0
  -28.4640  -18.3450   20.2730 C   0  0  0  0  0  2  0  0  0  0  0  0
  -31.1120  -17.4630   19.6550 C   0  0  0  0  0  2  0  0  0  0  0  0
  -29.0230  -16.8840   20.7060 C   0  0  0  0  0  2  0  0  0  0  0  0
  -29.4610  -19.5690   20.1190 C   0  0  0  0  0  3  0  0  0  0  0  0
  -30.2060  -16.3010   19.9850 N   0  0  0  0  0  0  0  0  0  0  0  0
  -25.3820  -13.9330   20.4790 C   0  0  0  0  0  0  0  0  0  0  0  0
  -24.3420  -13.1440   20.8870 C   0  0  0  0  0  0  0  0  0  0  0  0
  -24.8080  -11.7960   20.7920 C   0  0  0  0  0  0  0  0  0  0  0  0
  -26.4130  -13.0670   20.1570 N   0  0  0  0  0  0  0  0  0  0  0  0
  -26.0800  -11.7750   20.4110 N   0  0  0  0  0  0  0  0  0  0  0  0
  -24.0930  -10.5270   20.9830 C   0  0  0  0  0  0  0  0  0  0  0  0
  -24.5360   -9.5620   21.9150 C   0  0  0  0  0  3  0  0  0  0  0  0
  -23.8190   -8.3590   22.0950 C   0  0  0  0  0  3  0  0  0  0  0  0
  -22.6450   -8.1130   21.3450 C   0  0  0  0  0  0  0  0  0  0  0  0
  -22.2210   -9.0660   20.4020 C   0  0  0  0  0  3  0  0  0  0  0  0
  -22.9390  -10.2600   20.2190 C   0  0  0  0  0  3  0  0  0  0  0  0
  -21.9000   -6.9610   21.4350 O   0  0  0  0  0  0  0  0  0  0  0  0
  -21.8180   -6.2470   22.6040 C   0  0  0  0  0  0  0  0  0  0  0  0
  -21.3140   -6.8190   23.7920 C   0  0  0  0  0  3  0  0  0  0  0  0
  -21.1810   -6.0290   24.9520 C   0  0  0  0  0  3  0  0  0  0  0  0
  -21.5430   -4.6690   24.9240 C   0  0  0  0  0  0  0  0  0  0  0  0
  -22.0390   -4.0960   23.7400 C   0  0  0  0  0  3  0  0  0  0  0  0
  -22.1720   -4.8830   22.5830 C   0  0  0  0  0  0  0  0  0  0  0  0
  -22.6320   -4.3220   21.4380 F   0  0  0  0  0  0  0  0  0  0  0  0
  -21.4080   -3.9090   26.0350 F   0  0  0  0  0  0  0  0  0  0  0  0
  -22.9620  -13.6090   21.2460 C   0  0  0  0  0  0  0  0  0  0  0  0
  -22.2790  -12.8850   22.1240 N   0  0  0  0  0  0  0  0  0  0  0  0
  -22.4990  -14.6500   20.7810 O   0  0  0  0  0  0  0  0  0  0  0  0
  -22.6700  -12.0440   22.5240 H   0  0  0  0  0  0  0  0  0  0  0  0
  -21.3520  -13.1760   22.4010 H   0  0  0  0  0  0  0  0  0  0  0  0
  -25.5270  -15.3090   20.3270 N   0  0  0  0  0  0  0  0  0  0  0  0
  -24.7570  -15.9490   20.4900 H   0  0  0  0  0  0  0  0  0  0  0  0
  -26.3420  -15.7630   19.9350 H   0  0  0  0  0  0  0  0  0  0  0  0
  1  2  1  0
  3  4  1  0
  3  6  2  0
  4  1  2  0
  5  2  2  0
  5  7  1  0
  6  5  1  0
  7  8  1  0
  9 11  1  0
  9  6  1  0
 10 21  2  0
 11 16  1  0
 12 20  1  0
 12 22  1  0
 13 19  1  0
 13 15  1  0
 14 20  1  0
 15 14  1  0
 16 15  2  0
 17 11  2  0
 18 17  1  0
 18 13  2  0
 19 12  1  0
 20 10  1  0
 22 24  2  0
 23 22  1  0
 25 23  1  0
 26 35  2  0
 26 31  1  0
 27 23  1  0
 27 31  1  0
 28 27  1  0
 29 30  1  0
 29 28  1  0
 30 26  1  0
 31 32  2  0
 32 33  1  0
 34 33  2  0
 35 34  1  0
 36 10  1  0
 36 37  1  0
 36 46  1  0
 37 40  1  0
 38 42  1  0
 38 37  1  0
 39 38  2  0
 42 41  1  0
 44 42  1  0
 44 45  1  0
 44 43  1  0
 46 49  1  1
 46 47  1  0
 48 46  1  0
 50  4  1  0
 52 57  1  0
 53 54  1  0
 53 52  1  0
 55 54  1  0
 55 68  1  0
 55 56  1  0
 57 51  1  0
 57 56  1  0
 58 51  2  0
 59 61  1  0
 59 63  1  0
 60 62  1  0
 61 64  1  0
 63 50  1  0
 63 60  1  0
 64 51  1  0
 64 62  1  0
 65 66  2  0
 66 85  1  0
 67 66  1  0
 67 70  1  0
 68 69  1  0
 68 65  1  0
 69 67  2  0
 70 71  1  0
 71 72  2  0
 73 76  1  0
 73 72  1  0
 74 73  2  0
 75 74  1  0
 75 70  2  0
 76 77  1  0
 77 78  1  0
 78 79  2  0
 80 79  1  0
 80 84  1  0
 81 80  2  0
 82 77  2  0
 82 81  1  0
 83 82  1  0
 85 86  1  0
 86 89  1  0
 86 88  1  0
 87 85  2  0
 90 65  1  0
 90 91  1  0
 92 90  1  0
M  ISO  4   6 101   9 101  51 100  64 100
M  END
>  <TORSDO>  (39) 
F 18

>  <SCORE>  (39) 
-14.656

>  <name>  (39) 
38

>  <ligand_id>  (39) 
38

>  <original_smiles>  (39) 
[H]Oc1c([H])c([H])c(C([H])([H])C2([H])C([H])([H])C([H])([H])N(C(=O)N3C([H])([H])C([H])([H])C([H])([H])C([H])(n4nc(-c5c([H])c([H])c(Oc6c([H])c([H])c(F)c([H])c6F)c([H])c5[H])c(C(=O)N([H])[H])c4N([H])[H])C3([H])[H])C([H])([H])C2([H])[H])c([H])c1Oc1c([H])c([H])c2c(c1[H])C([H])([H])N(C(=O)C([H])(N([H])C(=O)C([H])(N([H])C([H])([H])[H])C([H])([H])[H])C(C([H])([H])[H])(C([H])([H])[H])C([H])([H])[H])C([H])(C(=O)N([H])C1([H])c3c([H])c([H])c([H])c([H])c3C([H])([H])C([H])([H])C1([H])[H])C2([H])[H]

>  <smiles>  (39) 
[H]Oc1c([H])c([H])c(C([H])([H])C2([H])C([H])([H])C([H])([H])N(C(=O)N3C([H])([H])C([H])([H])C([H])([H])C([H])(n4nc(-c5c([H])c([H])c(Oc6c([H])c([H])c(F)c([H])c6F)c([H])c5[H])c(C(=O)N([H])[H])c4N([H])[H])C3([H])[H])C([H])([H])C2([H])[H])c([H])c1Oc1c([H])c([H])c2c(c1[H])C([H])([H])N(C(=O)C([H])(N([H])C(=O)C([H])(N([H])C([H])([H])[H])C([H])([H])[H])C(C([H])([H])[H])(C([H])([H])[H])C([H])([H])[H])C([H])(C(=O)N([H])C1([H])c3c([H])c([H])c([H])c([H])c3C([H])([H])C([H])([H])C1([H])[H])C2([H])[H]

$$$$
39:0:0
     RDKit          3D

 91 99  0  0  1  0  0  0  0  0999 V2000
  -28.7220  -22.8310   19.7140 C   0  0  0  0  0  3  0  0  0  0  0  0
  -28.5310  -24.2110   19.4220 C   0  0  0  0  0  3  0  0  0  0  0  0
  -28.9240  -22.3670   21.0360 C   0  0  0  0  0  0  0  0  0  0  0  0
  -28.6310  -24.7420   21.7790 C   0  0  0  0  0  0  0  0  0  0  0  0
  -28.4980  -25.2020   20.4360 C   0  0  0  0  0  0  0  0  0  0  0  0
  -28.8600  -23.3560   22.0670 C   0  0  0  0  0  0  0  0  0  0  0  0
  -28.5320  -25.7410   22.9300 C   0  0  0  0  0  1  0  0  0  0  0  0
  -30.3250  -23.0100   23.8790 C   0  0  0  0  0  1  0  0  0  0  0  0
  -28.9930  -22.9600   23.3760 O   0  0  0  0  0  0  0  0  0  0  0  0
  -28.4760  -26.5680   20.0930 O   0  0  0  0  0  0  0  0  0  0  0  0
  -24.6580  -31.8130   23.1690 C   0  0  0  0  0  0  0  0  0  0  0  0
  -27.3140  -27.3350   20.1040 C   0  0  0  0  0  0  0  0  0  0  0  0
  -23.4630  -30.4120   21.5210 C   0  0  0  0  0  3  0  0  0  0  0  0
  -24.9260  -28.8820   20.0880 C   0  0  0  0  0  0  0  0  0  0  0  0
  -25.9910  -30.7750   21.3250 C   0  0  0  0  0  2  0  0  0  0  0  0
  -26.0830  -29.3990   20.6840 C   0  0  0  0  0  0  0  0  0  0  0  0
  -27.2790  -28.6350   20.6810 C   0  0  0  0  0  3  0  0  0  0  0  0
  -26.1420  -26.8530   19.4880 C   0  0  0  0  0  3  0  0  0  0  0  0
  -24.9550  -27.6150   19.4810 C   0  0  0  0  0  3  0  0  0  0  0  0
  -23.6780  -29.7400   20.1360 C   0  0  0  0  0  2  0  0  0  0  0  0
  -24.7220  -31.0170   22.0620 N   0  0  0  0  0  0  0  0  0  0  0  0
  -23.5740  -32.0760   23.7090 O   0  0  0  0  0  0  0  0  0  0  0  0
  -22.8170  -29.3820   22.4780 C   0  0  0  0  0  0  0  0  0  0  0  0
  -21.4940  -29.1850   22.3470 N   0  0  0  0  0  0  0  0  0  0  0  0
  -23.5030  -28.7630   23.2940 O   0  0  0  0  0  0  0  0  0  0  0  0
  -21.0000  -29.7390   21.6620 H   0  0  0  0  0  0  0  0  0  0  0  0
  -18.1380  -27.9270   22.8180 C   0  0  0  0  0  0  0  0  0  0  0  0
  -20.6870  -28.2360   23.1140 C   0  0  0  0  0  3  0  0  0  0  0  0
  -20.8240  -26.8040   22.5450 C   0  0  0  0  0  2  0  0  0  0  0  0
  -19.7390  -26.4580   21.5200 C   0  0  0  0  0  2  0  0  0  0  0  0
  -18.3480  -26.5800   22.1490 C   0  0  0  0  0  2  0  0  0  0  0  0
  -19.2380  -28.7110   23.2580 C   0  0  0  0  0  0  0  0  0  0  0  0
  -18.9890  -29.9730   23.8420 C   0  0  0  0  0  3  0  0  0  0  0  0
  -17.6740  -30.4490   23.9930 C   0  0  0  0  0  3  0  0  0  0  0  0
  -16.5890  -29.6630   23.5690 C   0  0  0  0  0  3  0  0  0  0  0  0
  -16.8210  -28.4040   22.9880 C   0  0  0  0  0  3  0  0  0  0  0  0
  -25.9390  -32.4530   23.7900 C   0  0  0  0  0  3  0  0  0  0  0  0
  -25.6120  -33.8400   24.1460 N   0  0  0  0  0  0  0  0  0  0  0  0
  -25.9160  -34.9100   23.3990 C   0  0  0  0  0  0  0  0  0  0  0  0
  -26.5740  -34.8340   22.3570 O   0  0  0  0  0  0  0  0  0  0  0  0
  -25.0300  -33.9720   24.9590 H   0  0  0  0  0  0  0  0  0  0  0  0
  -24.1500  -36.6770   23.1020 C   0  0  0  0  0  1  0  0  0  0  0  0
  -25.4110  -36.2830   23.8860 C   0  0  0  0  0  3  0  0  0  0  0  0
  -27.5430  -37.1950   24.6940 C   0  0  0  0  0  1  0  0  0  0  0  0
  -26.4210  -37.3560   23.7720 N   0  0  0  0  0  0  0  0  0  0  0  0
  -26.0000  -38.2650   23.9440 H   0  0  0  0  0  0  0  0  0  0  0  0
  -26.4770  -31.6690   25.0500 C   0  0  1  0  0  0  0  0  0  0  0  0
  -25.3990  -31.4040   26.1250 C   0  0  0  0  0  1  0  0  0  0  0  0
  -27.0740  -30.3050   24.6330 C   0  0  0  0  0  1  0  0  0  0  0  0
  -27.6210  -32.4680   25.7170 C   0  0  0  0  0  1  0  0  0  0  0  0
  -29.2280  -20.8610   21.3930 C   0  0  0  0  0  2  0  0  0  0  0  0
  -29.4630  -19.7780   20.2620 C   0  0  0  0  0  2  0  0  0  0  0  0
  -30.4920  -18.5890   20.5070 C   0  0  0  0  0  2  0  0  0  0  0  0
  -30.1200  -17.1980   21.1720 C   0  0  0  0  0  2  0  0  0  0  0  0
  -29.7130  -15.9610   20.2690 C   0  0  0  0  0  2  0  0  0  0  0  0
  -30.6060  -14.6490   20.1720 C   0  0  0  0  0  0  0  0  0  0  0  0
  -30.3930  -12.4050   19.1410 C   0  0  0  0  0  2  0  0  0  0  0  0
  -29.4350  -12.5710   17.9390 C   0  0  0  0  0  2  0  0  0  0  0  0
  -27.9670  -12.4120   18.3870 C   0  0  0  0  0  2  0  0  0  0  0  0
  -27.6330  -13.2650   19.6400 C   0  0  0  0  0  3  0  0  0  0  0  0
  -28.7070  -13.0960   20.7360 C   0  0  0  0  0  2  0  0  0  0  0  0
  -30.0120  -13.4160   20.1460 N   0  0  0  0  0  0  0  0  0  0  0  0
  -31.7910  -14.7780   19.8450 O   0  0  0  0  0  0  0  0  0  0  0  0
  -25.2660  -13.9000   20.4050 C   0  0  0  0  0  0  0  0  0  0  0  0
  -24.1980  -13.1420   20.8000 C   0  0  0  0  0  0  0  0  0  0  0  0
  -24.6450  -11.7860   20.7670 C   0  0  0  0  0  0  0  0  0  0  0  0
  -26.2940  -13.0030   20.1510 N   0  0  0  0  0  0  0  0  0  0  0  0
  -25.9270  -11.7280   20.4300 N   0  0  0  0  0  0  0  0  0  0  0  0
  -23.9120  -10.5330   20.9790 C   0  0  0  0  0  0  0  0  0  0  0  0
  -24.3610   -9.5610   21.9010 C   0  0  0  0  0  3  0  0  0  0  0  0
  -23.6280   -8.3700   22.0990 C   0  0  0  0  0  3  0  0  0  0  0  0
  -22.4320   -8.1460   21.3760 C   0  0  0  0  0  0  0  0  0  0  0  0
  -22.0020   -9.1070   20.4440 C   0  0  0  0  0  3  0  0  0  0  0  0
  -22.7350  -10.2890   20.2440 C   0  0  0  0  0  3  0  0  0  0  0  0
  -21.6660   -7.0090   21.4860 O   0  0  0  0  0  0  0  0  0  0  0  0
  -21.6490   -6.2600   22.6350 C   0  0  0  0  0  0  0  0  0  0  0  0
  -21.2830   -6.8170   23.8800 C   0  0  0  0  0  3  0  0  0  0  0  0
  -21.2130   -5.9950   25.0240 C   0  0  0  0  0  3  0  0  0  0  0  0
  -21.4930   -4.6190   24.9220 C   0  0  0  0  0  0  0  0  0  0  0  0
  -21.8510   -4.0630   23.6790 C   0  0  0  0  0  3  0  0  0  0  0  0
  -21.9260   -4.8820   22.5390 C   0  0  0  0  0  0  0  0  0  0  0  0
  -22.2480   -4.3370   21.3410 F   0  0  0  0  0  0  0  0  0  0  0  0
  -21.4190   -3.8280   26.0170 F   0  0  0  0  0  0  0  0  0  0  0  0
  -22.8090  -13.6360   21.0920 C   0  0  0  0  0  0  0  0  0  0  0  0
  -22.0880  -12.9550   21.9760 N   0  0  0  0  0  0  0  0  0  0  0  0
  -22.3720  -14.6640   20.5750 O   0  0  0  0  0  0  0  0  0  0  0  0
  -22.4560  -12.1250   22.4190 H   0  0  0  0  0  0  0  0  0  0  0  0
  -21.1570  -13.2660   22.2140 H   0  0  0  0  0  0  0  0  0  0  0  0
  -25.4440  -15.2660   20.2120 N   0  0  0  0  0  0  0  0  0  0  0  0
  -24.6900  -15.9330   20.3430 H   0  0  0  0  0  0  0  0  0  0  0  0
  -26.2920  -15.6930   19.8620 H   0  0  0  0  0  0  0  0  0  0  0  0
  1  3  1  0
  2  1  2  0
  2  5  1  0
  3 51  1  0
  3  6  2  0
  4  6  1  0
  4  7  1  0
  5  4  2  0
  6  9  1  0
  9  8  1  0
 10 12  1  0
 10  5  1  0
 11 22  2  0
 12 17  1  0
 13 21  1  0
 13 23  1  0
 14 20  1  0
 14 16  1  0
 15 21  1  0
 16 15  1  0
 17 16  2  0
 18 12  2  0
 19 18  1  0
 19 14  2  0
 20 13  1  0
 21 11  1  0
 23 25  2  0
 24 23  1  0
 26 24  1  0
 27 36  2  0
 27 32  1  0
 28 24  1  0
 28 32  1  0
 29 28  1  0
 30 31  1  0
 30 29  1  0
 31 27  1  0
 32 33  2  0
 33 34  1  0
 35 34  2  0
 36 35  1  0
 37 11  1  0
 37 38  1  0
 37 47  1  0
 38 41  1  0
 39 43  1  0
 39 38  1  0
 40 39  2  0
 43 42  1  0
 45 43  1  0
 45 46  1  0
 45 44  1  0
 47 50  1  1
 47 48  1  0
 49 47  1  0
 52 53  1  0
 52 51  1  0
 53 54  1  0
 55 54  1  0
 56 55  1  0
 57 62  1  0
 58 59  1  0
 58 57  1  0
 60 59  1  0
 60 67  1  0
 60 61  1  0
 62 56  1  0
 62 61  1  0
 63 56  2  0
 64 65  2  0
 65 84  1  0
 66 65  1  0
 66 69  1  0
 67 64  1  0
 67 68  1  0
 68 66  2  0
 69 70  1  0
 70 71  2  0
 72 75  1  0
 72 71  1  0
 73 72  2  0
 74 73  1  0
 74 69  2  0
 75 76  1  0
 76 77  1  0
 77 78  2  0
 79 78  1  0
 79 83  1  0
 80 79  2  0
 81 76  2  0
 81 80  1  0
 82 81  1  0
 84 85  1  0
 85 88  1  0
 85 87  1  0
 86 84  2  0
 89 90  1  0
 89 64  1  0
 91 89  1  0
M  ISO  4   5 101  10 101  55 100  56 100
M  END
>  <TORSDO>  (40) 
F 22

>  <SCORE>  (40) 
-12.729

>  <name>  (40) 
39

>  <ligand_id>  (40) 
39

>  <original_smiles>  (40) 
[H]c1c([H])c([H])c2c(c1[H])C([H])([H])C([H])([H])C([H])([H])C2([H])N([H])C(=O)C1([H])N(C(=O)C([H])(N([H])C(=O)C([H])(N([H])C([H])([H])[H])C([H])([H])[H])C(C([H])([H])[H])(C([H])([H])[H])C([H])([H])[H])C([H])([H])c2c([H])c(Oc3c([H])c([H])c(C([H])([H])C([H])([H])C([H])([H])C([H])([H])C([H])([H])C(=O)N4C([H])([H])C([H])([H])C([H])([H])C([H])(n5nc(-c6c([H])c([H])c(Oc7c([H])c([H])c(F)c([H])c7F)c([H])c6[H])c(C(=O)N([H])[H])c5N([H])[H])C4([H])[H])c(OC([H])([H])[H])c3C([H])([H])[H])c([H])c([H])c2C1([H])[H]

>  <smiles>  (40) 
[H]c1c([H])c([H])c2c(c1[H])C([H])([H])C([H])([H])C([H])([H])C2([H])N([H])C(=O)C1([H])N(C(=O)C([H])(N([H])C(=O)C([H])(N([H])C([H])([H])[H])C([H])([H])[H])C(C([H])([H])[H])(C([H])([H])[H])C([H])([H])[H])C([H])([H])c2c([H])c(Oc3c([H])c([H])c(C([H])([H])C([H])([H])C([H])([H])C([H])([H])C([H])([H])C(=O)N4C([H])([H])C([H])([H])C([H])([H])C([H])(n5nc(-c6c([H])c([H])c(Oc7c([H])c([H])c(F)c([H])c7F)c([H])c6[H])c(C(=O)N([H])[H])c5N([H])[H])C4([H])[H])c(OC([H])([H])[H])c3C([H])([H])[H])c([H])c([H])c2C1([H])[H]

$$$$
40:0:0
     RDKit          3D

 94102  0  0  1  0  0  0  0  0999 V2000
  -29.4530  -24.1280   20.9880 C   0  0  0  0  0  3  0  0  0  0  0  0
  -27.2420  -25.0510   21.4170 C   0  0  0  0  0  3  0  0  0  0  0  0
  -28.9530  -22.8130   21.1320 C   0  0  0  0  0  0  0  0  0  0  0  0
  -28.6080  -25.2460   21.1430 C   0  0  0  0  0  0  0  0  0  0  0  0
  -26.7180  -23.7470   21.5330 C   0  0  0  0  0  0  0  0  0  0  0  0
  -27.5680  -22.6240   21.3890 C   0  0  0  0  0  0  0  0  0  0  0  0
  -25.2320  -23.5680   21.7960 C   0  0  0  0  0  1  0  0  0  0  0  0
  -27.0230  -21.3740   21.4780 O   0  0  0  0  0  0  0  0  0  0  0  0
  -26.0850  -21.3910   21.6350 H   0  0  0  0  0  0  0  0  0  0  0  0
  -29.9090  -21.6830   20.9430 C   0  0  0  0  0  0  0  0  0  0  0  0
  -30.4670  -21.4570   19.8640 O   0  0  0  0  0  0  0  0  0  0  0  0
  -30.2780  -20.8750   22.2000 C   0  0  0  0  0  2  0  0  0  0  0  0
  -31.1050  -19.5900   21.9550 C   0  0  0  0  0  2  0  0  0  0  0  0
  -30.2530  -18.3390   21.6670 C   0  0  0  0  0  2  0  0  0  0  0  0
  -31.1070  -17.1220   21.2630 C   0  0  0  0  0  2  0  0  0  0  0  0
  -30.3250  -15.7880   21.3020 C   0  0  0  0  0  2  0  0  0  0  0  0
  -30.9660  -14.6450   20.4860 C   0  0  0  0  0  0  0  0  0  0  0  0
  -30.6690  -12.4850   19.3210 C   0  0  0  0  0  2  0  0  0  0  0  0
  -29.7250  -12.6640   18.1160 C   0  0  0  0  0  2  0  0  0  0  0  0
  -28.2530  -12.5230   18.5490 C   0  0  0  0  0  2  0  0  0  0  0  0
  -27.9100  -13.3880   19.7900 C   0  0  0  0  0  3  0  0  0  0  0  0
  -28.9620  -13.1890   20.9040 C   0  0  0  0  0  2  0  0  0  0  0  0
  -30.2900  -13.4760   20.3390 N   0  0  0  0  0  0  0  0  0  0  0  0
  -32.0480  -14.8520   19.9280 O   0  0  0  0  0  0  0  0  0  0  0  0
  -25.5150  -14.0060   20.5060 C   0  0  0  0  0  0  0  0  0  0  0  0
  -24.4430  -13.2370   20.8740 C   0  0  0  0  0  0  0  0  0  0  0  0
  -24.8980  -11.8820   20.8340 C   0  0  0  0  0  0  0  0  0  0  0  0
  -26.5550  -13.1210   20.2700 N   0  0  0  0  0  0  0  0  0  0  0  0
  -26.1860  -11.8380   20.5220 N   0  0  0  0  0  0  0  0  0  0  0  0
  -24.1670  -10.6220   21.0190 C   0  0  0  0  0  0  0  0  0  0  0  0
  -24.5910   -9.6540   21.9550 C   0  0  0  0  0  3  0  0  0  0  0  0
  -23.8620   -8.4580   22.1280 C   0  0  0  0  0  3  0  0  0  0  0  0
  -22.6940   -8.2220   21.3640 C   0  0  0  0  0  0  0  0  0  0  0  0
  -22.2900   -9.1790   20.4180 C   0  0  0  0  0  3  0  0  0  0  0  0
  -23.0190  -10.3670   20.2430 C   0  0  0  0  0  3  0  0  0  0  0  0
  -21.9370   -7.0780   21.4460 O   0  0  0  0  0  0  0  0  0  0  0  0
  -21.8620   -6.3450   22.6040 C   0  0  0  0  0  0  0  0  0  0  0  0
  -21.4140   -6.9140   23.8160 C   0  0  0  0  0  3  0  0  0  0  0  0
  -21.2860   -6.1080   24.9650 C   0  0  0  0  0  3  0  0  0  0  0  0
  -21.5950   -4.7360   24.9030 C   0  0  0  0  0  0  0  0  0  0  0  0
  -22.0360   -4.1680   23.6950 C   0  0  0  0  0  3  0  0  0  0  0  0
  -22.1660   -4.9700   22.5470 C   0  0  0  0  0  0  0  0  0  0  0  0
  -22.5700   -4.4140   21.3800 F   0  0  0  0  0  0  0  0  0  0  0  0
  -21.4640   -3.9600   26.0040 F   0  0  0  0  0  0  0  0  0  0  0  0
  -23.0490  -13.7180   21.1550 C   0  0  0  0  0  0  0  0  0  0  0  0
  -22.3260  -13.0250   22.0280 N   0  0  0  0  0  0  0  0  0  0  0  0
  -22.6090  -14.7430   20.6370 O   0  0  0  0  0  0  0  0  0  0  0  0
  -22.6940  -12.1950   22.4690 H   0  0  0  0  0  0  0  0  0  0  0  0
  -21.3900  -13.3290   22.2590 H   0  0  0  0  0  0  0  0  0  0  0  0
  -25.6860  -15.3770   20.3370 N   0  0  0  0  0  0  0  0  0  0  0  0
  -24.9270  -16.0380   20.4580 H   0  0  0  0  0  0  0  0  0  0  0  0
  -26.5460  -15.8120   20.0270 H   0  0  0  0  0  0  0  0  0  0  0  0
  -29.1700  -26.6540   21.0170 C   0  0  0  0  0  2  0  0  0  0  0  0
  -28.7040  -27.3100   19.8410 O   0  0  0  0  0  0  0  0  0  0  0  0
  -24.5430  -32.0030   23.2550 C   0  0  0  0  0  0  0  0  0  0  0  0
  -27.5020  -27.9660   19.9440 C   0  0  0  0  0  0  0  0  0  0  0  0
  -23.4520  -30.6640   21.4810 C   0  0  0  0  0  3  0  0  0  0  0  0
  -25.0210  -29.3090   19.9960 C   0  0  0  0  0  0  0  0  0  0  0  0
  -25.9530  -31.1730   21.3810 C   0  0  0  0  0  2  0  0  0  0  0  0
  -26.1290  -29.8560   20.6570 C   0  0  0  0  0  0  0  0  0  0  0  0
  -27.3720  -29.1900   20.6360 C   0  0  0  0  0  3  0  0  0  0  0  0
  -26.3850  -27.4270   19.2760 C   0  0  0  0  0  3  0  0  0  0  0  0
  -25.1420  -28.0870   19.3070 C   0  0  0  0  0  3  0  0  0  0  0  0
  -23.7310  -30.0930   20.0640 C   0  0  0  0  0  2  0  0  0  0  0  0
  -24.6650  -31.2900   22.0990 N   0  0  0  0  0  0  0  0  0  0  0  0
  -23.4360  -32.1790   23.7840 O   0  0  0  0  0  0  0  0  0  0  0  0
  -22.8320  -29.5440   22.3480 C   0  0  0  0  0  0  0  0  0  0  0  0
  -21.5120  -29.3430   22.2080 N   0  0  0  0  0  0  0  0  0  0  0  0
  -23.5360  -28.8620   23.0980 O   0  0  0  0  0  0  0  0  0  0  0  0
  -21.0060  -29.9500   21.5790 H   0  0  0  0  0  0  0  0  0  0  0  0
  -18.1540  -28.1000   22.6850 C   0  0  0  0  0  0  0  0  0  0  0  0
  -20.7220  -28.3210   22.8910 C   0  0  0  0  0  3  0  0  0  0  0  0
  -20.7960  -26.9690   22.1440 C   0  0  0  0  0  2  0  0  0  0  0  0
  -19.6560  -26.7710   21.1400 C   0  0  0  0  0  2  0  0  0  0  0  0
  -18.3000  -26.8390   21.8470 C   0  0  0  0  0  2  0  0  0  0  0  0
  -19.2920  -28.8030   23.1620 C   0  0  0  0  0  0  0  0  0  0  0  0
  -19.1030  -29.9880   23.9060 C   0  0  0  0  0  3  0  0  0  0  0  0
  -17.8090  -30.4690   24.1770 C   0  0  0  0  0  3  0  0  0  0  0  0
  -16.6860  -29.7600   23.7170 C   0  0  0  0  0  3  0  0  0  0  0  0
  -16.8590  -28.5760   22.9780 C   0  0  0  0  0  3  0  0  0  0  0  0
  -25.7800  -32.6480   23.9550 C   0  0  0  0  0  3  0  0  0  0  0  0
  -25.4380  -34.0430   24.2590 N   0  0  0  0  0  0  0  0  0  0  0  0
  -25.8010  -35.0940   23.5120 C   0  0  0  0  0  0  0  0  0  0  0  0
  -26.5290  -34.9920   22.5210 O   0  0  0  0  0  0  0  0  0  0  0  0
  -24.7970  -34.1950   25.0240 H   0  0  0  0  0  0  0  0  0  0  0  0
  -24.0620  -36.8530   23.0580 C   0  0  0  0  0  1  0  0  0  0  0  0
  -25.2700  -36.4780   23.9300 C   0  0  0  0  0  3  0  0  0  0  0  0
  -27.3520  -37.4030   24.8450 C   0  0  0  0  0  1  0  0  0  0  0  0
  -26.2900  -37.5470   23.8530 N   0  0  0  0  0  0  0  0  0  0  0  0
  -25.8630  -38.4610   23.9750 H   0  0  0  0  0  0  0  0  0  0  0  0
  -26.2250  -31.8810   25.2610 C   0  0  1  0  0  0  0  0  0  0  0  0
  -25.0710  -31.6290   26.2570 C   0  0  0  0  0  1  0  0  0  0  0  0
  -26.8510  -30.5130   24.9040 C   0  0  0  0  0  1  0  0  0  0  0  0
  -27.3200  -32.6920   25.9950 C   0  0  0  0  0  1  0  0  0  0  0  0
  1  3  2  0
  1  4  1  0
  2  5  1  0
  3  6  1  0
  4  2  2  0
  5  7  1  0
  6  8  1  0
  6  5  2  0
  8  9  1  0
 10  3  1  0
 10 12  1  0
 11 10  2  0
 13 12  1  0
 14 13  1  0
 15 16  1  0
 15 14  1  0
 17 16  1  0
 18 23  1  0
 19 20  1  0
 19 18  1  0
 21 20  1  0
 21 28  1  0
 21 22  1  0
 23 17  1  0
 23 22  1  0
 24 17  2  0
 25 26  2  0
 26 45  1  0
 27 26  1  0
 27 30  1  0
 28 25  1  0
 28 29  1  0
 29 27  2  0
 30 31  1  0
 31 32  2  0
 33 36  1  0
 33 32  1  0
 34 33  2  0
 35 34  1  0
 35 30  2  0
 36 37  1  0
 37 38  1  0
 38 39  2  0
 40 39  1  0
 40 44  1  0
 41 40  2  0
 42 37  2  0
 42 41  1  0
 43 42  1  0
 45 46  1  0
 46 49  1  0
 46 48  1  0
 47 45  2  0
 50 51  1  0
 50 25  1  0
 52 50  1  0
 53  4  1  0
 54 56  1  0
 54 53  1  0
 55 66  2  0
 56 61  1  0
 57 65  1  0
 57 67  1  0
 58 64  1  0
 58 60  1  0
 59 65  1  0
 60 59  1  0
 61 60  2  0
 62 63  1  0
 62 56  2  0
 63 58  2  0
 64 57  1  0
 65 55  1  0
 67 69  2  0
 68 67  1  0
 70 68  1  0
 71 80  2  0
 71 76  1  0
 72 68  1  0
 72 76  1  0
 73 72  1  0
 74 75  1  0
 74 73  1  0
 75 71  1  0
 76 77  2  0
 77 78  1  0
 79 78  2  0
 80 79  1  0
 81 55  1  0
 81 82  1  0
 81 91  1  0
 82 85  1  0
 83 87  1  0
 83 82  1  0
 84 83  2  0
 87 86  1  0
 89 87  1  0
 89 90  1  0
 89 88  1  0
 91 94  1  1
 91 92  1  0
 93 91  1  0
M  ISO  4  16 100  17 100  53 101  54 101
M  END
>  <TORSDO>  (41) 
F 24

>  <SCORE>  (41) 
-11.930

>  <name>  (41) 
40

>  <ligand_id>  (41) 
40

>  <original_smiles>  (41) 
[H]Oc1c(C(=O)C([H])([H])C([H])([H])C([H])([H])C([H])([H])C([H])([H])C(=O)N2C([H])([H])C([H])([H])C([H])([H])C([H])(n3nc(-c4c([H])c([H])c(Oc5c([H])c([H])c(F)c([H])c5F)c([H])c4[H])c(C(=O)N([H])[H])c3N([H])[H])C2([H])[H])c([H])c(C([H])([H])Oc2c([H])c([H])c3c(c2[H])C([H])([H])N(C(=O)C([H])(N([H])C(=O)C([H])(N([H])C([H])([H])[H])C([H])([H])[H])C(C([H])([H])[H])(C([H])([H])[H])C([H])([H])[H])C([H])(C(=O)N([H])C2([H])c4c([H])c([H])c([H])c([H])c4C([H])([H])C([H])([H])C2([H])[H])C3([H])[H])c([H])c1C([H])([H])[H]

>  <smiles>  (41) 
[H]Oc1c(C(=O)C([H])([H])C([H])([H])C([H])([H])C([H])([H])C([H])([H])C(=O)N2C([H])([H])C([H])([H])C([H])([H])C([H])(n3nc(-c4c([H])c([H])c(Oc5c([H])c([H])c(F)c([H])c5F)c([H])c4[H])c(C(=O)N([H])[H])c3N([H])[H])C2([H])[H])c([H])c(C([H])([H])Oc2c([H])c([H])c3c(c2[H])C([H])([H])N(C(=O)C([H])(N([H])C(=O)C([H])(N([H])C([H])([H])[H])C([H])([H])[H])C(C([H])([H])[H])(C([H])([H])[H])C([H])([H])[H])C([H])(C(=O)N([H])C2([H])c4c([H])c([H])c([H])c([H])c4C([H])([H])C([H])([H])C2([H])[H])C3([H])[H])c([H])c1C([H])([H])[H]

$$$$
41:0:0
     RDKit          3D

 95104  0  0  1  0  0  0  0  0999 V2000
  -29.6650  -24.5890   22.9010 C   0  0  0  0  0  3  0  0  0  0  0  0
  -29.6340  -25.6170   21.9380 C   0  0  0  0  0  3  0  0  0  0  0  0
  -28.0700  -24.3120   20.6320 C   0  0  0  0  0  3  0  0  0  0  0  0
  -28.8710  -23.4270   22.7620 C   0  0  0  0  0  0  0  0  0  0  0  0
  -28.8160  -25.5040   20.7980 C   0  0  0  0  0  0  0  0  0  0  0  0
  -28.0600  -23.2830   21.6080 C   0  0  0  0  0  0  0  0  0  0  0  0
  -26.5100  -21.9680   20.3040 C   0  0  0  0  0  1  0  0  0  0  0  0
  -27.2590  -22.1670   21.4980 O   0  0  0  0  0  0  0  0  0  0  0  0
  -28.7660  -26.5430   19.8850 O   0  0  0  0  0  0  0  0  0  0  0  0
  -24.7520  -31.5480   22.9670 C   0  0  0  0  0  0  0  0  0  0  0  0
  -27.6080  -27.2870   19.8410 C   0  0  0  0  0  0  0  0  0  0  0  0
  -23.6370  -30.1660   21.2450 C   0  0  0  0  0  3  0  0  0  0  0  0
  -25.1780  -28.7240   19.8110 C   0  0  0  0  0  0  0  0  0  0  0  0
  -26.1560  -30.6000   21.1410 C   0  0  0  0  0  2  0  0  0  0  0  0
  -26.2980  -29.2540   20.4660 C   0  0  0  0  0  0  0  0  0  0  0  0
  -27.5160  -28.5370   20.4910 C   0  0  0  0  0  3  0  0  0  0  0  0
  -26.4890  -26.7940   19.1390 C   0  0  0  0  0  3  0  0  0  0  0  0
  -25.2670  -27.4890   19.1470 C   0  0  0  0  0  3  0  0  0  0  0  0
  -23.9070  -29.5410   19.8500 C   0  0  0  0  0  2  0  0  0  0  0  0
  -24.8630  -30.7850   21.8430 N   0  0  0  0  0  0  0  0  0  0  0  0
  -23.6490  -31.7720   23.4810 O   0  0  0  0  0  0  0  0  0  0  0  0
  -22.9910  -29.0930   22.1520 C   0  0  0  0  0  0  0  0  0  0  0  0
  -21.6610  -28.9400   22.0410 N   0  0  0  0  0  0  0  0  0  0  0  0
  -23.6810  -28.4090   22.9130 O   0  0  0  0  0  0  0  0  0  0  0  0
  -21.1680  -29.5490   21.4050 H   0  0  0  0  0  0  0  0  0  0  0  0
  -18.2680  -27.8310   22.6000 C   0  0  0  0  0  0  0  0  0  0  0  0
  -20.8430  -27.9690   22.7690 C   0  0  0  0  0  3  0  0  0  0  0  0
  -20.8610  -26.5910   22.0690 C   0  0  0  0  0  2  0  0  0  0  0  0
  -19.7020  -26.3970   21.0870 C   0  0  0  0  0  2  0  0  0  0  0  0
  -18.3570  -26.5380   21.8060 C   0  0  0  0  0  2  0  0  0  0  0  0
  -19.4350  -28.5100   23.0380 C   0  0  0  0  0  0  0  0  0  0  0  0
  -19.2950  -29.7250   23.7430 C   0  0  0  0  0  3  0  0  0  0  0  0
  -18.0220  -30.2600   24.0120 C   0  0  0  0  0  3  0  0  0  0  0  0
  -16.8690  -29.5750   23.5900 C   0  0  0  0  0  3  0  0  0  0  0  0
  -16.9940  -28.3620   22.8900 C   0  0  0  0  0  3  0  0  0  0  0  0
  -26.0030  -32.1940   23.6420 C   0  0  0  0  0  3  0  0  0  0  0  0
  -25.6220  -33.5450   24.0740 N   0  0  0  0  0  0  0  0  0  0  0  0
  -25.8710  -34.6640   23.3780 C   0  0  0  0  0  0  0  0  0  0  0  0
  -26.5180  -34.6690   22.3270 O   0  0  0  0  0  0  0  0  0  0  0  0
  -25.0420  -33.6090   24.8970 H   0  0  0  0  0  0  0  0  0  0  0  0
  -23.9740  -36.3100   23.2550 C   0  0  0  0  0  1  0  0  0  0  0  0
  -25.3140  -35.9870   23.9360 C   0  0  0  0  0  3  0  0  0  0  0  0
  -27.4460  -37.0110   24.5950 C   0  0  0  0  0  1  0  0  0  0  0  0
  -26.2410  -37.1290   23.7780 N   0  0  0  0  0  0  0  0  0  0  0  0
  -25.7800  -38.0020   24.0160 H   0  0  0  0  0  0  0  0  0  0  0  0
  -26.5560  -31.3530   24.8580 C   0  0  1  0  0  0  0  0  0  0  0  0
  -25.4750  -30.9760   25.8990 C   0  0  0  0  0  1  0  0  0  0  0  0
  -27.2100  -30.0420   24.3620 C   0  0  0  0  0  1  0  0  0  0  0  0
  -27.6640  -32.1510   25.5860 C   0  0  0  0  0  1  0  0  0  0  0  0
  -28.8380  -22.4400   23.9370 C   0  0  0  0  0  2  0  0  0  0  0  0
  -28.8570  -20.9160   23.6620 C   0  0  0  0  0  2  0  0  0  0  0  0
  -29.8090  -20.4280   22.5560 C   0  0  0  0  0  2  0  0  0  0  0  0
  -30.0180  -18.8970   22.6280 C   0  0  0  0  0  2  0  0  0  0  0  0
  -32.8100  -15.7010   18.7150 C   0  0  0  0  0  0  0  0  0  0  0  0
  -32.9670  -13.6060   17.4230 C   0  0  0  0  0  2  0  0  0  0  0  0
  -31.6880  -13.4060   16.5860 C   0  0  0  0  0  2  0  0  0  0  0  0
  -30.6040  -12.6870   17.4110 C   0  0  0  0  0  2  0  0  0  0  0  0
  -30.3960  -13.3250   18.8120 C   0  0  0  0  0  3  0  0  0  0  0  0
  -31.7470  -13.5520   19.5220 C   0  0  0  0  0  2  0  0  0  0  0  0
  -32.6030  -14.3580   18.6340 N   0  0  0  0  0  0  0  0  0  0  0  0
  -33.4720  -16.3190   17.8730 O   0  0  0  0  0  0  0  0  0  0  0  0
  -30.3700  -18.1260   20.1980 C   0  0  0  0  0  2  0  0  0  0  0  0
  -31.6200  -16.9910   22.0230 C   0  0  0  0  0  2  0  0  0  0  0  0
  -31.4200  -17.6130   19.1950 C   0  0  0  0  0  2  0  0  0  0  0  0
  -32.6550  -16.4900   20.9960 C   0  0  0  0  0  2  0  0  0  0  0  0
  -31.0030  -18.3310   21.5830 C   0  0  0  0  0  3  0  0  0  0  0  0
  -32.0860  -16.3740   19.6420 N   0  0  0  0  0  0  0  0  0  0  0  0
  -28.2610  -12.8790   20.1790 C   0  0  0  0  0  0  0  0  0  0  0  0
  -27.7880  -11.7510   20.7940 C   0  0  0  0  0  0  0  0  0  0  0  0
  -28.7750  -10.7400   20.5760 C   0  0  0  0  0  0  0  0  0  0  0  0
  -29.4850  -12.5280   19.6310 N   0  0  0  0  0  0  0  0  0  0  0  0
  -29.8130  -11.2430   19.9210 N   0  0  0  0  0  0  0  0  0  0  0  0
  -28.7640   -9.3080   20.9050 C   0  0  0  0  0  0  0  0  0  0  0  0
  -29.8330   -8.7040   21.6030 C   0  0  0  0  0  3  0  0  0  0  0  0
  -29.7910   -7.3290   21.9230 C   0  0  0  0  0  3  0  0  0  0  0  0
  -28.6730   -6.5470   21.5480 C   0  0  0  0  0  0  0  0  0  0  0  0
  -27.6240   -7.1490   20.8320 C   0  0  0  0  0  3  0  0  0  0  0  0
  -27.6690   -8.5160   20.5090 C   0  0  0  0  0  3  0  0  0  0  0  0
  -28.5580   -5.1990   21.7930 O   0  0  0  0  0  0  0  0  0  0  0  0
  -29.2010   -4.6020   22.8470 C   0  0  0  0  0  0  0  0  0  0  0  0
  -29.0070   -5.0300   24.1780 C   0  0  0  0  0  3  0  0  0  0  0  0
  -29.6340   -4.3430   25.2370 C   0  0  0  0  0  3  0  0  0  0  0  0
  -30.4460   -3.2250   24.9690 C   0  0  0  0  0  0  0  0  0  0  0  0
  -30.6380   -2.7950   23.6450 C   0  0  0  0  0  3  0  0  0  0  0  0
  -30.0150   -3.4800   22.5870 C   0  0  0  0  0  0  0  0  0  0  0  0
  -30.1850   -3.0480   21.3140 F   0  0  0  0  0  0  0  0  0  0  0  0
  -31.0430   -2.5610   25.9870 F   0  0  0  0  0  0  0  0  0  0  0  0
  -26.4540  -11.5890   21.4640 C   0  0  0  0  0  0  0  0  0  0  0  0
  -26.3760  -10.7250   22.4700 N   0  0  0  0  0  0  0  0  0  0  0  0
  -25.4840  -12.2680   21.1300 O   0  0  0  0  0  0  0  0  0  0  0  0
  -27.1780  -10.1840   22.7590 H   0  0  0  0  0  0  0  0  0  0  0  0
  -25.5010  -10.6020   22.9600 H   0  0  0  0  0  0  0  0  0  0  0  0
  -27.7480  -14.1620   20.0230 N   0  0  0  0  0  0  0  0  0  0  0  0
  -26.8350  -14.4290   20.3750 H   0  0  0  0  0  0  0  0  0  0  0  0
  -28.2140  -14.9090   19.5230 H   0  0  0  0  0  0  0  0  0  0  0  0
  2  1  2  0
  3  5  2  0
  3  6  1  0
  4  1  1  0
  4 50  1  0
  5  2  1  0
  6  4  2  0
  7  8  1  0
  8  6  1  0
  9  5  1  0
 10 21  2  0
 11  9  1  0
 11 16  1  0
 12 20  1  0
 12 22  1  0
 13 19  1  0
 13 15  1  0
 14 20  1  0
 15 16  2  0
 15 14  1  0
 17 18  1  0
 17 11  2  0
 18 13  2  0
 19 12  1  0
 20 10  1  0
 22 24  2  0
 23 22  1  0
 25 23  1  0
 26 35  2  0
 26 31  1  0
 27 23  1  0
 27 31  1  0
 28 27  1  0
 29 30  1  0
 29 28  1  0
 30 26  1  0
 31 32  2  0
 32 33  1  0
 34 33  2  0
 35 34  1  0
 36 10  1  0
 36 37  1  0
 36 46  1  0
 37 40  1  0
 38 42  1  0
 38 37  1  0
 39 38  2  0
 42 41  1  0
 44 42  1  0
 44 45  1  0
 44 43  1  0
 46 49  1  1
 46 47  1  0
 48 46  1  0
 51 50  1  0
 52 53  1  0
 52 51  1  0
 54 67  1  0
 55 60  1  0
 56 57  1  0
 56 55  1  0
 58 57  1  0
 58 59  1  0
 58 71  1  0
 60 54  1  0
 60 59  1  0
 61 54  2  0
 62 66  1  0
 64 67  1  0
 64 62  1  0
 65 63  1  0
 66 63  1  0
 66 53  1  0
 67 65  1  0
 68 69  2  0
 69 88  1  0
 70 69  1  0
 70 73  1  0
 71 72  1  0
 71 68  1  0
 72 70  2  0
 73 74  1  0
 74 75  2  0
 76 79  1  0
 76 75  1  0
 77 76  2  0
 78 77  1  0
 78 73  2  0
 79 80  1  0
 80 81  1  0
 81 82  2  0
 83 82  1  0
 83 87  1  0
 84 83  2  0
 85 80  2  0
 85 84  1  0
 86 85  1  0
 88 89  1  0
 89 91  1  0
 89 92  1  0
 90 88  2  0
 93 68  1  0
 93 94  1  0
 95 93  1  0
M  ISO  4   5 101   9 101  54 100  67 100
M  END
>  <TORSDO>  (42) 
F 21

>  <SCORE>  (42) 
4.518

>  <name>  (42) 
41

>  <ligand_id>  (42) 
41

>  <original_smiles>  (42) 
[H]c1c([H])c([H])c2c(c1[H])C([H])([H])C([H])([H])C([H])([H])C2([H])N([H])C(=O)C1([H])N(C(=O)C([H])(N([H])C(=O)C([H])(N([H])C([H])([H])[H])C([H])([H])[H])C(C([H])([H])[H])(C([H])([H])[H])C([H])([H])[H])C([H])([H])c2c([H])c(Oc3c([H])c([H])c(C([H])([H])C([H])([H])C([H])([H])C([H])([H])C4([H])C([H])([H])C([H])([H])N(C(=O)N5C([H])([H])C([H])([H])C([H])([H])C([H])(n6nc(-c7c([H])c([H])c(Oc8c([H])c([H])c(F)c([H])c8F)c([H])c7[H])c(C(=O)N([H])[H])c6N([H])[H])C5([H])[H])C([H])([H])C4([H])[H])c(OC([H])([H])[H])c3[H])c([H])c([H])c2C1([H])[H]

>  <smiles>  (42) 
[H]c1c([H])c([H])c2c(c1[H])C([H])([H])C([H])([H])C([H])([H])C2([H])N([H])C(=O)C1([H])N(C(=O)C([H])(N([H])C(=O)C([H])(N([H])C([H])([H])[H])C([H])([H])[H])C(C([H])([H])[H])(C([H])([H])[H])C([H])([H])[H])C([H])([H])c2c([H])c(Oc3c([H])c([H])c(C([H])([H])C([H])([H])C([H])([H])C([H])([H])C4([H])C([H])([H])C([H])([H])N(C(=O)N5C([H])([H])C([H])([H])C([H])([H])C([H])(n6nc(-c7c([H])c([H])c(Oc8c([H])c([H])c(F)c([H])c8F)c([H])c7[H])c(C(=O)N([H])[H])c6N([H])[H])C5([H])[H])C([H])([H])C4([H])[H])c(OC([H])([H])[H])c3[H])c([H])c([H])c2C1([H])[H]

$$$$
42:0:0
     RDKit          3D

 95104  0  0  1  0  0  0  0  0999 V2000
  -29.4210  -21.1500   20.7420 C   0  0  0  0  0  2  0  0  0  0  0  0
  -28.9840  -23.3870   21.8970 C   0  0  0  0  0  2  0  0  0  0  0  0
  -29.1660  -23.3640   19.4080 C   0  0  0  0  0  2  0  0  0  0  0  0
  -29.0720  -24.9310   21.8360 C   0  0  0  0  0  2  0  0  0  0  0  0
  -29.3000  -24.9010   19.4790 C   0  0  0  0  0  2  0  0  0  0  0  0
  -29.6700  -22.6850   20.7000 C   0  0  0  0  0  3  0  0  0  0  0  0
  -28.4910  -25.4200   20.5840 N   0  0  0  0  0  0  0  0  0  0  0  0
  -28.6950  -26.8610   20.5880 O   0  0  0  0  0  0  0  0  0  0  0  0
  -24.6270  -32.0340   23.3770 C   0  0  0  0  0  0  0  0  0  0  0  0
  -27.5000  -27.5500   20.5680 C   0  0  0  0  0  0  0  0  0  0  0  0
  -23.5250  -30.5530   21.7320 C   0  0  0  0  0  3  0  0  0  0  0  0
  -25.0730  -29.0000   20.4290 C   0  0  0  0  0  0  0  0  0  0  0  0
  -26.0490  -30.9580   21.6350 C   0  0  0  0  0  2  0  0  0  0  0  0
  -26.1910  -29.5660   21.0530 C   0  0  0  0  0  0  0  0  0  0  0  0
  -27.4070  -28.8460   21.1270 C   0  0  0  0  0  3  0  0  0  0  0  0
  -26.3620  -27.0000   19.9360 C   0  0  0  0  0  3  0  0  0  0  0  0
  -25.1510  -27.7130   19.8720 C   0  0  0  0  0  3  0  0  0  0  0  0
  -23.8100  -29.8310   20.3880 C   0  0  0  0  0  2  0  0  0  0  0  0
  -24.7500  -31.1990   22.3060 N   0  0  0  0  0  0  0  0  0  0  0  0
  -23.5180  -32.3010   23.8590 O   0  0  0  0  0  0  0  0  0  0  0  0
  -22.8540  -29.5500   22.6970 C   0  0  0  0  0  0  0  0  0  0  0  0
  -21.5410  -29.3270   22.5120 N   0  0  0  0  0  0  0  0  0  0  0  0
  -23.5100  -28.9720   23.5680 O   0  0  0  0  0  0  0  0  0  0  0  0
  -21.0720  -29.8460   21.7820 H   0  0  0  0  0  0  0  0  0  0  0  0
  -18.1660  -28.1100   22.9280 C   0  0  0  0  0  0  0  0  0  0  0  0
  -20.7110  -28.3960   23.2750 C   0  0  0  0  0  3  0  0  0  0  0  0
  -20.8450  -26.9560   22.7300 C   0  0  0  0  0  2  0  0  0  0  0  0
  -19.7780  -26.6030   21.6890 C   0  0  0  0  0  2  0  0  0  0  0  0
  -18.3760  -26.7490   22.2860 C   0  0  0  0  0  2  0  0  0  0  0  0
  -19.2640  -28.8900   23.3780 C   0  0  0  0  0  0  0  0  0  0  0  0
  -19.0160  -30.1640   23.9350 C   0  0  0  0  0  3  0  0  0  0  0  0
  -17.7020  -30.6560   24.0500 C   0  0  0  0  0  3  0  0  0  0  0  0
  -16.6180  -29.8730   23.6170 C   0  0  0  0  0  3  0  0  0  0  0  0
  -16.8510  -28.6020   23.0620 C   0  0  0  0  0  3  0  0  0  0  0  0
  -25.8720  -32.7130   24.0300 C   0  0  0  0  0  3  0  0  0  0  0  0
  -25.5200  -34.1130   24.3030 N   0  0  0  0  0  0  0  0  0  0  0  0
  -25.8520  -35.1460   23.5190 C   0  0  0  0  0  0  0  0  0  0  0  0
  -26.5590  -35.0260   22.5140 O   0  0  0  0  0  0  0  0  0  0  0  0
  -24.8960  -34.2790   25.0790 H   0  0  0  0  0  0  0  0  0  0  0  0
  -24.0870  -36.8750   23.0530 C   0  0  0  0  0  1  0  0  0  0  0  0
  -25.3160  -36.5360   23.9110 C   0  0  0  0  0  3  0  0  0  0  0  0
  -27.4100  -37.5010   24.7560 C   0  0  0  0  0  1  0  0  0  0  0  0
  -26.3220  -37.6120   23.7860 N   0  0  0  0  0  0  0  0  0  0  0  0
  -25.8890  -38.5250   23.8980 H   0  0  0  0  0  0  0  0  0  0  0  0
  -26.3550  -31.9900   25.3470 C   0  0  1  0  0  0  0  0  0  0  0  0
  -25.2090  -31.6700   26.3350 C   0  0  0  0  0  1  0  0  0  0  0  0
  -27.0730  -30.6620   25.0110 C   0  0  0  0  0  1  0  0  0  0  0  0
  -27.3880  -32.8770   26.0830 C   0  0  0  0  0  1  0  0  0  0  0  0
  -30.0580  -20.3000   19.6070 C   0  0  0  0  0  2  0  0  0  0  0  0
  -28.3240  -16.3000   19.3800 C   0  0  0  0  0  3  0  0  0  0  0  0
  -27.7140  -17.3680   18.7040 C   0  0  0  0  0  3  0  0  0  0  0  0
  -30.0940  -17.7910   20.1210 C   0  0  0  0  0  3  0  0  0  0  0  0
  -29.5390  -16.4830   20.0720 C   0  0  0  0  0  0  0  0  0  0  0  0
  -28.2810  -18.6550   18.7230 C   0  0  0  0  0  0  0  0  0  0  0  0
  -29.4610  -18.8900   19.4790 C   0  0  0  0  0  0  0  0  0  0  0  0
  -27.5770  -19.7420   17.9240 C   0  0  0  0  0  1  0  0  0  0  0  0
  -30.1490  -15.2930   20.8420 C   0  0  0  0  0  3  0  0  0  0  0  0
  -30.5450  -14.0790   19.9430 C   0  0  0  0  0  0  0  0  0  0  0  0
  -30.4090  -11.6630   19.3890 C   0  0  0  0  0  2  0  0  0  0  0  0
  -29.4780  -11.3770   18.1960 C   0  0  0  0  0  2  0  0  0  0  0  0
  -28.0150  -11.2430   18.6590 C   0  0  0  0  0  2  0  0  0  0  0  0
  -27.5790  -12.4090   19.5840 C   0  0  0  0  0  3  0  0  0  0  0  0
  -28.6190  -12.6270   20.7060 C   0  0  0  0  0  2  0  0  0  0  0  0
  -29.9280  -12.8710   20.0800 N   0  0  0  0  0  0  0  0  0  0  0  0
  -31.5080  -14.2200   19.1790 O   0  0  0  0  0  0  0  0  0  0  0  0
  -25.2160  -13.1030   20.3390 C   0  0  0  0  0  0  0  0  0  0  0  0
  -24.1450  -12.3740   20.7820 C   0  0  0  0  0  0  0  0  0  0  0  0
  -24.5740  -11.0110   20.7880 C   0  0  0  0  0  0  0  0  0  0  0  0
  -26.2360  -12.1900   20.1190 N   0  0  0  0  0  0  0  0  0  0  0  0
  -25.8510  -10.9270   20.4380 N   0  0  0  0  0  0  0  0  0  0  0  0
  -23.8230   -9.7780   21.0550 C   0  0  0  0  0  0  0  0  0  0  0  0
  -24.2560   -8.8460   22.0240 C   0  0  0  0  0  3  0  0  0  0  0  0
  -23.5090   -7.6750   22.2740 C   0  0  0  0  0  3  0  0  0  0  0  0
  -22.3150   -7.4280   21.5550 C   0  0  0  0  0  0  0  0  0  0  0  0
  -21.9010   -8.3480   20.5750 C   0  0  0  0  0  3  0  0  0  0  0  0
  -22.6490   -9.5100   20.3240 C   0  0  0  0  0  3  0  0  0  0  0  0
  -21.5370   -6.3070   21.7140 O   0  0  0  0  0  0  0  0  0  0  0  0
  -21.5110   -5.6110   22.8940 C   0  0  0  0  0  0  0  0  0  0  0  0
  -21.0970   -6.2090   24.1050 C   0  0  0  0  0  3  0  0  0  0  0  0
  -21.0190   -5.4370   25.2810 C   0  0  0  0  0  3  0  0  0  0  0  0
  -21.3460   -4.0680   25.2490 C   0  0  0  0  0  0  0  0  0  0  0  0
  -21.7540   -3.4690   24.0440 C   0  0  0  0  0  3  0  0  0  0  0  0
  -21.8340   -4.2390   22.8700 C   0  0  0  0  0  0  0  0  0  0  0  0
  -22.2060   -3.6520   21.7060 F   0  0  0  0  0  0  0  0  0  0  0  0
  -21.2630   -3.3250   26.3770 F   0  0  0  0  0  0  0  0  0  0  0  0
  -22.7730  -12.8990   21.0910 C   0  0  0  0  0  0  0  0  0  0  0  0
  -22.0680  -12.2630   22.0200 N   0  0  0  0  0  0  0  0  0  0  0  0
  -22.3350  -13.9090   20.5440 O   0  0  0  0  0  0  0  0  0  0  0  0
  -22.4350  -11.4460   22.4860 H   0  0  0  0  0  0  0  0  0  0  0  0
  -21.1490  -12.5990   22.2710 H   0  0  0  0  0  0  0  0  0  0  0  0
  -25.3950  -14.4570   20.0900 N   0  0  0  0  0  0  0  0  0  0  0  0
  -24.6510  -15.1320   20.2230 H   0  0  0  0  0  0  0  0  0  0  0  0
  -26.2780  -14.8830   19.8370 H   0  0  0  0  0  0  0  0  0  0  0  0
  -30.9930  -16.9190   22.6770 C   0  0  0  0  0  1  0  0  0  0  0  0
  -31.3210  -15.7270   21.7600 C   0  0  0  0  0  2  0  0  0  0  0  0
  3  5  1  0
  3  6  1  0
  4  2  1  0
  5  7  1  0
  6  1  1  0
  6  2  1  0
  7  8  1  0
  7  4  1  0
  9 20  2  0
 10  8  1  0
 10 15  1  0
 11 19  1  0
 11 21  1  0
 12 14  1  0
 13 19  1  0
 14 15  2  0
 14 13  1  0
 16 10  2  0
 17 16  1  0
 17 12  2  0
 18 12  1  0
 18 11  1  0
 19  9  1  0
 21 23  2  0
 22 21  1  0
 24 22  1  0
 25 34  2  0
 25 30  1  0
 26 22  1  0
 26 30  1  0
 27 26  1  0
 28 29  1  0
 28 27  1  0
 29 25  1  0
 30 31  2  0
 31 32  1  0
 33 32  2  0
 34 33  1  0
 35  9  1  0
 35 36  1  0
 35 45  1  0
 36 39  1  0
 37 41  1  0
 37 36  1  0
 38 37  2  0
 41 40  1  0
 43 44  1  0
 43 41  1  0
 43 42  1  0
 45 48  1  1
 45 46  1  0
 47 45  1  0
 49  1  1  0
 50 53  1  0
 51 54  1  0
 51 50  2  0
 53 52  2  0
 53 57  1  0
 54 55  2  0
 55 49  1  0
 55 52  1  0
 56 54  1  0
 57 95  1  0
 58 64  1  0
 58 57  1  0
 59 64  1  0
 60 61  1  0
 60 59  1  0
 62 61  1  0
 62 69  1  0
 62 63  1  0
 64 63  1  0
 65 58  2  0
 66 67  2  0
 67 68  1  0
 67 86  1  0
 68 71  1  0
 69 66  1  0
 69 70  1  0
 70 68  2  0
 71 72  1  0
 72 73  2  0
 74 77  1  0
 74 73  1  0
 75 74  2  0
 76 75  1  0
 76 71  2  0
 77 78  1  0
 78 79  1  0
 79 80  2  0
 81 80  1  0
 81 85  1  0
 82 81  2  0
 83 78  2  0
 83 82  1  0
 84 83  1  0
 86 87  1  0
 87 90  1  0
 87 89  1  0
 88 86  2  0
 91 92  1  0
 91 66  1  0
 93 91  1  0
 95 94  1  0
M  ISO  4   7 101   8 101  57 100  58 100
M  END
>  <TORSDO>  (43) 
F 21

>  <SCORE>  (43) 
-12.593

>  <name>  (43) 
42

>  <ligand_id>  (43) 
42

>  <original_smiles>  (43) 
[H]c1c([H])c([H])c2c(c1[H])C([H])([H])C([H])([H])C([H])([H])C2([H])N([H])C(=O)C1([H])N(C(=O)C([H])(N([H])C(=O)C([H])(N([H])C([H])([H])[H])C([H])([H])[H])C(C([H])([H])[H])(C([H])([H])[H])C([H])([H])[H])C([H])([H])c2c([H])c(ON3C([H])([H])C([H])([H])C([H])(C([H])([H])C([H])([H])c4c([H])c(C([H])(C(=O)N5C([H])([H])C([H])([H])C([H])([H])C([H])(n6nc(-c7c([H])c([H])c(Oc8c([H])c([H])c(F)c([H])c8F)c([H])c7[H])c(C(=O)N([H])[H])c6N([H])[H])C5([H])[H])C([H])([H])C([H])([H])[H])c([H])c([H])c4C([H])([H])[H])C([H])([H])C3([H])[H])c([H])c([H])c2C1([H])[H]

>  <smiles>  (43) 
[H]c1c([H])c([H])c2c(c1[H])C([H])([H])C([H])([H])C([H])([H])C2([H])N([H])C(=O)C1([H])N(C(=O)C([H])(N([H])C(=O)C([H])(N([H])C([H])([H])[H])C([H])([H])[H])C(C([H])([H])[H])(C([H])([H])[H])C([H])([H])[H])C([H])([H])c2c([H])c(ON3C([H])([H])C([H])([H])C([H])(C([H])([H])C([H])([H])c4c([H])c(C([H])(C(=O)N5C([H])([H])C([H])([H])C([H])([H])C([H])(n6nc(-c7c([H])c([H])c(Oc8c([H])c([H])c(F)c([H])c8F)c([H])c7[H])c(C(=O)N([H])[H])c6N([H])[H])C5([H])[H])C([H])([H])C([H])([H])[H])c([H])c([H])c4C([H])([H])[H])C([H])([H])C3([H])[H])c([H])c([H])c2C1([H])[H]

$$$$
43:0:0
     RDKit          3D

 93102  0  0  1  0  0  0  0  0999 V2000
  -30.5090  -22.9390   18.9570 C   0  0  0  0  0  3  0  0  0  0  0  0
  -30.9610  -24.2460   18.7120 C   0  0  0  0  0  3  0  0  0  0  0  0
  -28.4820  -23.8790   19.9390 C   0  0  0  0  0  3  0  0  0  0  0  0
  -29.2570  -22.6920   19.5460 C   0  0  0  0  0  0  0  0  0  0  0  0
  -30.1970  -25.3770   19.0650 C   0  0  0  0  0  0  0  0  0  0  0  0
  -28.9350  -25.2530   19.7040 C   0  0  0  0  0  0  0  0  0  0  0  0
  -30.8210  -26.7370   18.7940 C   0  0  0  0  0  1  0  0  0  0  0  0
  -28.4630  -26.4800   20.2680 O   0  0  0  0  0  0  0  0  0  0  0  0
  -24.6630  -31.8480   23.1270 C   0  0  0  0  0  0  0  0  0  0  0  0
  -27.3170  -27.2800   20.0720 C   0  0  0  0  0  0  0  0  0  0  0  0
  -23.4640  -30.4360   21.4880 C   0  0  0  0  0  3  0  0  0  0  0  0
  -24.9270  -28.8820   20.0500 C   0  0  0  0  0  0  0  0  0  0  0  0
  -25.9970  -30.7720   21.2940 C   0  0  0  0  0  2  0  0  0  0  0  0
  -26.0860  -29.3890   20.6460 C   0  0  0  0  0  0  0  0  0  0  0  0
  -27.2740  -28.5970   20.6440 C   0  0  0  0  0  3  0  0  0  0  0  0
  -26.1400  -26.8270   19.4430 C   0  0  0  0  0  3  0  0  0  0  0  0
  -24.9590  -27.6120   19.4350 C   0  0  0  0  0  3  0  0  0  0  0  0
  -23.6810  -29.7510   20.1080 C   0  0  0  0  0  2  0  0  0  0  0  0
  -24.7270  -31.0390   22.0290 N   0  0  0  0  0  0  0  0  0  0  0  0
  -23.5790  -32.1180   23.6670 O   0  0  0  0  0  0  0  0  0  0  0  0
  -22.8110  -29.4230   22.4580 C   0  0  0  0  0  0  0  0  0  0  0  0
  -21.4810  -29.2580   22.3560 N   0  0  0  0  0  0  0  0  0  0  0  0
  -23.4980  -28.7910   23.2640 O   0  0  0  0  0  0  0  0  0  0  0  0
  -20.9840  -29.8200   21.6800 H   0  0  0  0  0  0  0  0  0  0  0  0
  -18.1040  -28.0900   22.9230 C   0  0  0  0  0  0  0  0  0  0  0  0
  -20.6710  -28.3180   23.1350 C   0  0  0  0  0  3  0  0  0  0  0  0
  -20.7450  -26.8950   22.5370 C   0  0  0  0  0  2  0  0  0  0  0  0
  -19.6160  -26.5980   21.5450 C   0  0  0  0  0  2  0  0  0  0  0  0
  -18.2510  -26.7480   22.2220 C   0  0  0  0  0  2  0  0  0  0  0  0
  -19.2410  -28.8340   23.3360 C   0  0  0  0  0  0  0  0  0  0  0  0
  -19.0490  -30.0890   23.9540 C   0  0  0  0  0  3  0  0  0  0  0  0
  -17.7540  -30.6000   24.1610 C   0  0  0  0  0  3  0  0  0  0  0  0
  -16.6330  -29.8540   23.7590 C   0  0  0  0  0  3  0  0  0  0  0  0
  -16.8080  -28.6000   23.1460 C   0  0  0  0  0  3  0  0  0  0  0  0
  -25.9440  -32.4910   23.7460 C   0  0  0  0  0  3  0  0  0  0  0  0
  -25.6150  -33.8780   24.1130 N   0  0  0  0  0  0  0  0  0  0  0  0
  -25.9260  -34.9550   23.3810 C   0  0  0  0  0  0  0  0  0  0  0  0
  -26.5860  -34.8870   22.3410 O   0  0  0  0  0  0  0  0  0  0  0  0
  -25.0230  -34.0040   24.9210 H   0  0  0  0  0  0  0  0  0  0  0  0
  -24.1780  -36.7410   23.0820 C   0  0  0  0  0  1  0  0  0  0  0  0
  -25.4250  -36.3250   23.8780 C   0  0  0  0  0  3  0  0  0  0  0  0
  -27.5460  -37.2180   24.7380 C   0  0  0  0  0  1  0  0  0  0  0  0
  -26.4450  -37.3930   23.7940 N   0  0  0  0  0  0  0  0  0  0  0  0
  -26.0260  -38.3040   23.9610 H   0  0  0  0  0  0  0  0  0  0  0  0
  -26.4900  -31.7030   25.0000 C   0  0  1  0  0  0  0  0  0  0  0  0
  -25.4150  -31.4260   26.0770 C   0  0  0  0  0  1  0  0  0  0  0  0
  -27.0930  -30.3450   24.5740 C   0  0  0  0  0  1  0  0  0  0  0  0
  -27.6330  -32.5050   25.6680 C   0  0  0  0  0  1  0  0  0  0  0  0
  -28.7660  -21.1740   19.4370 C   0  0  0  0  0  2  0  0  0  0  0  0
  -28.2130  -17.4910   20.3950 C   0  0  0  0  0  2  0  0  0  0  0  0
  -27.8640  -18.9900   20.3570 C   0  0  0  0  0  2  0  0  0  0  0  0
  -30.2310  -18.7170   19.9860 C   0  0  0  0  0  2  0  0  0  0  0  0
  -29.6030  -17.2370   19.8040 C   0  0  0  0  0  3  0  0  0  0  0  0
  -29.1400  -19.8730   20.3730 C   0  0  1  0  0  0  0  0  0  0  0  0
  -29.4270  -20.3870   21.7950 C   0  0  0  0  0  1  0  0  0  0  0  0
  -30.8280  -14.8240   19.9290 C   0  0  0  0  0  0  0  0  0  0  0  0
  -30.5920  -12.5350   18.9430 C   0  0  0  0  0  2  0  0  0  0  0  0
  -29.5810  -12.6250   17.7780 C   0  0  0  0  0  2  0  0  0  0  0  0
  -28.1410  -12.4440   18.2930 C   0  0  0  0  0  2  0  0  0  0  0  0
  -27.8440  -13.3080   19.5470 C   0  0  0  0  0  3  0  0  0  0  0  0
  -28.9740  -13.2050   20.5990 C   0  0  0  0  0  2  0  0  0  0  0  0
  -30.2380  -13.5740   19.9420 N   0  0  0  0  0  0  0  0  0  0  0  0
  -31.9230  -14.9770   19.3800 O   0  0  0  0  0  0  0  0  0  0  0  0
  -30.1000  -15.9060   20.4150 N   0  0  0  0  0  0  0  0  0  0  0  0
  -29.4350  -15.5710   21.0960 H   0  0  0  0  0  0  0  0  0  0  0  0
  -25.5140  -13.8820   20.4600 C   0  0  0  0  0  0  0  0  0  0  0  0
  -24.4700  -13.1070   20.8750 C   0  0  0  0  0  0  0  0  0  0  0  0
  -24.9140  -11.7550   20.7560 C   0  0  0  0  0  0  0  0  0  0  0  0
  -26.5330  -13.0080   20.1160 N   0  0  0  0  0  0  0  0  0  0  0  0
  -26.1800  -11.7170   20.3510 N   0  0  0  0  0  0  0  0  0  0  0  0
  -24.1820  -10.4970   20.9440 C   0  0  0  0  0  0  0  0  0  0  0  0
  -24.5990   -9.5370   21.8910 C   0  0  0  0  0  3  0  0  0  0  0  0
  -23.8680   -8.3450   22.0720 C   0  0  0  0  0  3  0  0  0  0  0  0
  -22.7050   -8.1030   21.3020 C   0  0  0  0  0  0  0  0  0  0  0  0
  -22.3070   -9.0510   20.3430 C   0  0  0  0  0  3  0  0  0  0  0  0
  -23.0390  -10.2360   20.1630 C   0  0  0  0  0  3  0  0  0  0  0  0
  -21.9480   -6.9600   21.3910 O   0  0  0  0  0  0  0  0  0  0  0  0
  -21.8090   -6.2760   22.5700 C   0  0  0  0  0  0  0  0  0  0  0  0
  -21.2460   -6.8760   23.7180 C   0  0  0  0  0  3  0  0  0  0  0  0
  -21.0610   -6.1160   24.8900 C   0  0  0  0  0  3  0  0  0  0  0  0
  -21.4260   -4.7570   24.9130 C   0  0  0  0  0  0  0  0  0  0  0  0
  -21.9770   -4.1560   23.7680 C   0  0  0  0  0  3  0  0  0  0  0  0
  -22.1670   -4.9140   22.6000 C   0  0  0  0  0  0  0  0  0  0  0  0
  -22.6800   -4.3250   21.4930 F   0  0  0  0  0  0  0  0  0  0  0  0
  -21.2380   -4.0240   26.0350 F   0  0  0  0  0  0  0  0  0  0  0  0
  -23.1040  -13.5900   21.2650 C   0  0  0  0  0  0  0  0  0  0  0  0
  -22.4290  -12.8670   22.1510 N   0  0  0  0  0  0  0  0  0  0  0  0
  -22.6460  -14.6430   20.8240 O   0  0  0  0  0  0  0  0  0  0  0  0
  -22.8160  -12.0180   22.5330 H   0  0  0  0  0  0  0  0  0  0  0  0
  -21.5130  -13.1670   22.4500 H   0  0  0  0  0  0  0  0  0  0  0  0
  -25.6650  -15.2550   20.3250 N   0  0  0  0  0  0  0  0  0  0  0  0
  -24.9020  -15.8990   20.5060 H   0  0  0  0  0  0  0  0  0  0  0  0
  -26.4780  -15.7040   19.9290 H   0  0  0  0  0  0  0  0  0  0  0  0
  1  4  1  0
  2  1  2  0
  2  5  1  0
  4  3  2  0
  5  6  2  0
  6  3  1  0
  6  8  1  0
  7  5  1  0
  9 20  2  0
 10  8  1  0
 10 15  1  0
 11 19  1  0
 11 21  1  0
 12 18  1  0
 12 14  1  0
 13 19  1  0
 14 13  1  0
 15 14  2  0
 16 10  2  0
 17 16  1  0
 17 12  2  0
 18 11  1  0
 19  9  1  0
 21 23  2  0
 22 21  1  0
 24 22  1  0
 25 34  2  0
 25 30  1  0
 26 22  1  0
 26 30  1  0
 27 26  1  0
 28 29  1  0
 28 27  1  0
 29 25  1  0
 30 31  2  0
 31 32  1  0
 33 32  2  0
 34 33  1  0
 35  9  1  0
 35 36  1  0
 35 45  1  0
 36 39  1  0
 37 41  1  0
 37 36  1  0
 38 37  2  0
 41 40  1  0
 43 41  1  0
 43 44  1  0
 43 42  1  0
 45 48  1  1
 45 46  1  0
 47 45  1  0
 49  4  1  0
 49 54  1  0
 51 54  1  0
 51 50  1  0
 52 54  1  0
 53 52  1  0
 53 50  1  0
 53 64  1  0
 54 55  1  1
 56 62  1  0
 56 64  1  0
 57 62  1  0
 58 59  1  0
 58 57  1  0
 60 59  1  0
 60 69  1  0
 60 61  1  0
 62 61  1  0
 63 56  2  0
 64 65  1  0
 66 67  2  0
 67 86  1  0
 68 67  1  0
 68 71  1  0
 69 70  1  0
 69 66  1  0
 70 68  2  0
 71 72  1  0
 72 73  2  0
 74 77  1  0
 74 73  1  0
 75 74  2  0
 76 75  1  0
 76 71  2  0
 77 78  1  0
 78 83  2  0
 78 79  1  0
 79 80  2  0
 80 81  1  0
 81 85  1  0
 82 81  2  0
 83 82  1  0
 84 83  1  0
 86 87  1  0
 87 90  1  0
 87 89  1  0
 88 86  2  0
 91 66  1  0
 91 92  1  0
 93 91  1  0
M  ISO  4   6 101   8 101  56 100  64 100
M  END
>  <TORSDO>  (44) 
F 18

>  <SCORE>  (44) 
-14.096

>  <name>  (44) 
43

>  <ligand_id>  (44) 
43

>  <original_smiles>  (44) 
[H]c1c([H])c([H])c2c(c1[H])C([H])([H])C([H])([H])C([H])([H])C2([H])N([H])C(=O)C1([H])N(C(=O)C([H])(N([H])C(=O)C([H])(N([H])C([H])([H])[H])C([H])([H])[H])C(C([H])([H])[H])(C([H])([H])[H])C([H])([H])[H])C([H])([H])c2c([H])c(Oc3c([H])c(C([H])([H])C4(C([H])([H])[H])C([H])([H])C([H])([H])C([H])(N([H])C(=O)N5C([H])([H])C([H])([H])C([H])([H])C([H])(n6nc(-c7c([H])c([H])c(Oc8c([H])c([H])c(F)c([H])c8F)c([H])c7[H])c(C(=O)N([H])[H])c6N([H])[H])C5([H])[H])C4([H])[H])c([H])c([H])c3C([H])([H])[H])c([H])c([H])c2C1([H])[H]

>  <smiles>  (44) 
[H]c1c([H])c([H])c2c(c1[H])C([H])([H])C([H])([H])C([H])([H])C2([H])N([H])C(=O)C1([H])N(C(=O)C([H])(N([H])C(=O)C([H])(N([H])C([H])([H])[H])C([H])([H])[H])C(C([H])([H])[H])(C([H])([H])[H])C([H])([H])[H])C([H])([H])c2c([H])c(Oc3c([H])c(C([H])([H])C4(C([H])([H])[H])C([H])([H])C([H])([H])C([H])(N([H])C(=O)N5C([H])([H])C([H])([H])C([H])([H])C([H])(n6nc(-c7c([H])c([H])c(Oc8c([H])c([H])c(F)c([H])c8F)c([H])c7[H])c(C(=O)N([H])[H])c6N([H])[H])C5([H])[H])C4([H])[H])c([H])c([H])c3C([H])([H])[H])c([H])c([H])c2C1([H])[H]

$$$$
44:0:0
     RDKit          3D

 96104  0  0  1  0  0  0  0  0999 V2000
  -28.7140  -25.4720   21.9230 C   0  0  0  0  0  3  0  0  0  0  0  0
  -28.7500  -24.5600   19.6810 C   0  0  0  0  0  3  0  0  0  0  0  0
  -29.2040  -24.2470   22.4240 C   0  0  0  0  0  0  0  0  0  0  0  0
  -29.2510  -23.3170   20.1430 C   0  0  0  0  0  0  0  0  0  0  0  0
  -29.5300  -23.1770   21.5380 C   0  0  0  0  0  0  0  0  0  0  0  0
  -28.5320  -25.6520   20.5420 C   0  0  0  0  0  0  0  0  0  0  0  0
  -29.4420  -24.1380   23.9230 C   0  0  0  0  0  1  0  0  0  0  0  0
  -29.6150  -22.3180   19.0230 C   0  0  0  0  0  2  0  0  0  0  0  0
  -29.9700  -20.8260   19.2660 C   0  0  0  0  0  2  0  0  0  0  0  0
  -28.8620  -19.8990   19.8200 C   0  0  0  0  0  2  0  0  0  0  0  0
  -28.8880  -18.4630   19.2330 C   0  0  0  0  0  2  0  0  0  0  0  0
  -30.2370  -17.7040   19.2990 C   0  0  0  0  0  2  0  0  0  0  0  0
  -30.6260  -17.1190   20.6750 C   0  0  0  0  0  2  0  0  0  0  0  0
  -30.0980  -15.6910   20.9890 C   0  0  0  0  0  2  0  0  0  0  0  0
  -30.7740  -14.5140   20.2420 C   0  0  0  0  0  0  0  0  0  0  0  0
  -30.4920  -12.2940   19.1810 C   0  0  0  0  0  2  0  0  0  0  0  0
  -29.5330  -12.4070   17.9770 C   0  0  0  0  0  2  0  0  0  0  0  0
  -28.0610  -12.2930   18.4260 C   0  0  0  0  0  2  0  0  0  0  0  0
  -27.7340  -13.2140   19.6300 C   0  0  0  0  0  3  0  0  0  0  0  0
  -28.7950  -13.0540   20.7420 C   0  0  0  0  0  2  0  0  0  0  0  0
  -30.1150  -13.3280   20.1550 N   0  0  0  0  0  0  0  0  0  0  0  0
  -31.8640  -14.6980   19.6890 O   0  0  0  0  0  0  0  0  0  0  0  0
  -25.3650  -13.8890   20.3780 C   0  0  0  0  0  0  0  0  0  0  0  0
  -24.2800  -13.1490   20.7660 C   0  0  0  0  0  0  0  0  0  0  0  0
  -24.7040  -11.7840   20.7330 C   0  0  0  0  0  0  0  0  0  0  0  0
  -26.3810  -12.9790   20.1320 N   0  0  0  0  0  0  0  0  0  0  0  0
  -25.9860  -11.7080   20.3990 N   0  0  0  0  0  0  0  0  0  0  0  0
  -23.9490  -10.5430   20.9400 C   0  0  0  0  0  0  0  0  0  0  0  0
  -24.3640   -9.5710   21.8790 C   0  0  0  0  0  3  0  0  0  0  0  0
  -23.6090   -8.3940   22.0700 C   0  0  0  0  0  3  0  0  0  0  0  0
  -22.4260   -8.1790   21.3220 C   0  0  0  0  0  0  0  0  0  0  0  0
  -22.0330   -9.1380   20.3720 C   0  0  0  0  0  3  0  0  0  0  0  0
  -22.7880  -10.3070   20.1790 C   0  0  0  0  0  3  0  0  0  0  0  0
  -21.6460   -7.0540   21.4230 O   0  0  0  0  0  0  0  0  0  0  0  0
  -21.5860   -6.3190   22.5810 C   0  0  0  0  0  0  0  0  0  0  0  0
  -21.1420   -6.8820   23.7970 C   0  0  0  0  0  3  0  0  0  0  0  0
  -21.0290   -6.0750   24.9460 C   0  0  0  0  0  3  0  0  0  0  0  0
  -21.3520   -4.7070   24.8810 C   0  0  0  0  0  0  0  0  0  0  0  0
  -21.7910   -4.1430   23.6700 C   0  0  0  0  0  3  0  0  0  0  0  0
  -21.9040   -4.9470   22.5220 C   0  0  0  0  0  0  0  0  0  0  0  0
  -22.3070   -4.3930   21.3520 F   0  0  0  0  0  0  0  0  0  0  0  0
  -21.2400   -3.9290   25.9830 F   0  0  0  0  0  0  0  0  0  0  0  0
  -22.9020  -13.6640   21.0650 C   0  0  0  0  0  0  0  0  0  0  0  0
  -22.1770  -12.9940   21.9540 N   0  0  0  0  0  0  0  0  0  0  0  0
  -22.4780  -14.6960   20.5460 O   0  0  0  0  0  0  0  0  0  0  0  0
  -22.5330  -12.1580   22.3910 H   0  0  0  0  0  0  0  0  0  0  0  0
  -21.2530  -13.3200   22.1990 H   0  0  0  0  0  0  0  0  0  0  0  0
  -25.5690  -15.2540   20.1960 N   0  0  0  0  0  0  0  0  0  0  0  0
  -24.8340  -15.9420   20.3140 H   0  0  0  0  0  0  0  0  0  0  0  0
  -26.4350  -15.6570   19.8640 H   0  0  0  0  0  0  0  0  0  0  0  0
  -30.2640  -21.9570   22.1040 C   0  0  0  0  0  2  0  0  0  0  0  0
  -31.6890  -21.7870   21.5540 C   0  0  0  0  0  0  0  0  0  0  0  0
  -32.1990  -22.5940   20.7680 O   0  0  0  0  0  0  0  0  0  0  0  0
  -33.9620  -20.8530   22.2240 C   0  0  0  0  0  1  0  0  0  0  0  0
  -32.4670  -20.5560   22.0150 C   0  0  0  0  0  2  0  0  0  0  0  0
  -28.3110  -26.8920   19.9910 O   0  0  0  0  0  0  0  0  0  0  0  0
  -24.5410  -31.9960   23.2790 C   0  0  0  0  0  0  0  0  0  0  0  0
  -27.1230  -27.5600   20.1540 C   0  0  0  0  0  0  0  0  0  0  0  0
  -23.3000  -30.5920   21.6610 C   0  0  0  0  0  3  0  0  0  0  0  0
  -24.7230  -29.0440   20.2190 C   0  0  0  0  0  0  0  0  0  0  0  0
  -25.8180  -30.9500   21.4150 C   0  0  0  0  0  2  0  0  0  0  0  0
  -25.8900  -29.5750   20.7840 C   0  0  0  0  0  0  0  0  0  0  0  0
  -27.0940  -28.8390   20.7510 C   0  0  0  0  0  3  0  0  0  0  0  0
  -25.9440  -27.0310   19.5930 C   0  0  0  0  0  3  0  0  0  0  0  0
  -24.7430  -27.7680   19.6240 C   0  0  0  0  0  3  0  0  0  0  0  0
  -23.4810  -29.9050   20.2800 C   0  0  0  0  0  2  0  0  0  0  0  0
  -24.5710  -31.1940   22.1760 N   0  0  0  0  0  0  0  0  0  0  0  0
  -23.4720  -32.2680   23.8420 O   0  0  0  0  0  0  0  0  0  0  0  0
  -22.6680  -29.5730   22.6370 C   0  0  0  0  0  0  0  0  0  0  0  0
  -21.3600  -29.3190   22.4710 N   0  0  0  0  0  0  0  0  0  0  0  0
  -23.3530  -29.0120   23.4970 O   0  0  0  0  0  0  0  0  0  0  0  0
  -20.8680  -29.8270   21.7510 H   0  0  0  0  0  0  0  0  0  0  0  0
  -18.0530  -27.9140   22.8410 C   0  0  0  0  0  0  0  0  0  0  0  0
  -20.5650  -28.3660   23.2440 C   0  0  0  0  0  3  0  0  0  0  0  0
  -20.8000  -26.9170   22.7550 C   0  0  0  0  0  2  0  0  0  0  0  0
  -19.7860  -26.4660   21.6990 C   0  0  0  0  0  2  0  0  0  0  0  0
  -18.3610  -26.5470   22.2540 C   0  0  0  0  0  2  0  0  0  0  0  0
  -19.0890  -28.7740   23.2900 C   0  0  0  0  0  0  0  0  0  0  0  0
  -18.7490  -30.0500   23.7950 C   0  0  0  0  0  3  0  0  0  0  0  0
  -17.4070  -30.4650   23.8580 C   0  0  0  0  0  3  0  0  0  0  0  0
  -16.3840  -29.6030   23.4240 C   0  0  0  0  0  3  0  0  0  0  0  0
  -16.7070  -28.3290   22.9230 C   0  0  0  0  0  3  0  0  0  0  0  0
  -25.8410  -32.6220   23.8720 C   0  0  0  0  0  3  0  0  0  0  0  0
  -26.3780  -31.8580   25.1440 C   0  0  1  0  0  0  0  0  0  0  0  0
  -25.2990  -31.6130   26.2240 C   0  0  0  0  0  1  0  0  0  0  0  0
  -26.9700  -30.4850   24.7470 C   0  0  0  0  0  1  0  0  0  0  0  0
  -27.5250  -32.6650   25.7970 C   0  0  0  0  0  1  0  0  0  0  0  0
  -25.5490  -34.0250   24.1940 N   0  0  0  0  0  0  0  0  0  0  0  0
  -25.8570  -35.0650   23.4080 C   0  0  0  0  0  0  0  0  0  0  0  0
  -26.4900  -34.9460   22.3570 O   0  0  0  0  0  0  0  0  0  0  0  0
  -24.9830  -34.1930   25.0130 H   0  0  0  0  0  0  0  0  0  0  0  0
  -24.1180  -36.8550   23.0910 C   0  0  0  0  0  1  0  0  0  0  0  0
  -25.3870  -36.4610   23.8630 C   0  0  0  0  0  3  0  0  0  0  0  0
  -27.5490  -37.3580   24.6070 C   0  0  0  0  0  1  0  0  0  0  0  0
  -26.4150  -37.5110   23.6970 N   0  0  0  0  0  0  0  0  0  0  0  0
  -26.0150  -38.4340   23.8440 H   0  0  0  0  0  0  0  0  0  0  0  0
  1  3  1  0
  2  4  2  0
  2  6  1  0
  3  7  1  0
  4  5  1  0
  5 51  1  0
  5  3  2  0
  6  1  2  0
  8  9  1  0
  8  4  1  0
  9 10  1  0
 11 12  1  0
 11 10  1  0
 12 13  1  0
 13 14  1  0
 15 14  1  0
 16 21  1  0
 17 18  1  0
 17 16  1  0
 19 18  1  0
 19 26  1  0
 19 20  1  0
 21 15  1  0
 21 20  1  0
 22 15  2  0
 23 24  2  0
 24 43  1  0
 25 24  1  0
 25 28  1  0
 26 23  1  0
 26 27  1  0
 27 25  2  0
 28 29  1  0
 29 30  2  0
 31 34  1  0
 31 30  1  0
 32 31  2  0
 33 32  1  0
 33 28  2  0
 34 35  1  0
 35 36  1  0
 36 37  2  0
 38 37  1  0
 38 42  1  0
 39 38  2  0
 40 35  2  0
 40 39  1  0
 41 40  1  0
 43 44  1  0
 44 47  1  0
 44 46  1  0
 45 43  2  0
 48 49  1  0
 48 23  1  0
 50 48  1  0
 52 55  1  0
 52 51  1  0
 53 52  2  0
 55 54  1  0
 56 58  1  0
 56  6  1  0
 57 68  2  0
 58 63  1  0
 59 67  1  0
 59 69  1  0
 60 66  1  0
 60 62  1  0
 61 67  1  0
 62 61  1  0
 63 62  2  0
 64 65  1  0
 64 58  2  0
 65 60  2  0
 66 59  1  0
 67 57  1  0
 69 71  2  0
 70 69  1  0
 72 70  1  0
 73 82  2  0
 73 78  1  0
 74 70  1  0
 74 78  1  0
 75 74  1  0
 76 77  1  0
 76 75  1  0
 77 73  1  0
 78 79  2  0
 79 80  1  0
 81 80  2  0
 82 81  1  0
 83 57  1  0
 83 88  1  0
 83 84  1  0
 84 87  1  1
 84 85  1  0
 86 84  1  0
 88 91  1  0
 89 93  1  0
 89 88  1  0
 90 89  2  0
 93 92  1  0
 95 96  1  0
 95 93  1  0
 95 94  1  0
M  ISO  4   6 101  14 100  15 100  56 101
M  END
>  <TORSDO>  (45) 
F 26

>  <SCORE>  (45) 
-11.879

>  <name>  (45) 
44

>  <ligand_id>  (45) 
44

>  <original_smiles>  (45) 
[H]c1c([H])c([H])c2c(c1[H])C([H])([H])C([H])([H])C([H])([H])C2([H])N([H])C(=O)C1([H])N(C(=O)C([H])(N([H])C(=O)C([H])(N([H])C([H])([H])[H])C([H])([H])[H])C(C([H])([H])[H])(C([H])([H])[H])C([H])([H])[H])C([H])([H])c2c([H])c(Oc3c([H])c(C([H])([H])[H])c(C([H])([H])C(=O)C([H])([H])C([H])([H])[H])c(C([H])([H])C([H])([H])C([H])([H])C([H])([H])C([H])([H])C([H])([H])C([H])([H])C(=O)N4C([H])([H])C([H])([H])C([H])([H])C([H])(n5nc(-c6c([H])c([H])c(Oc7c([H])c([H])c(F)c([H])c7F)c([H])c6[H])c(C(=O)N([H])[H])c5N([H])[H])C4([H])[H])c3[H])c([H])c([H])c2C1([H])[H]

>  <smiles>  (45) 
[H]c1c([H])c([H])c2c(c1[H])C([H])([H])C([H])([H])C([H])([H])C2([H])N([H])C(=O)C1([H])N(C(=O)C([H])(N([H])C(=O)C([H])(N([H])C([H])([H])[H])C([H])([H])[H])C(C([H])([H])[H])(C([H])([H])[H])C([H])([H])[H])C([H])([H])c2c([H])c(Oc3c([H])c(C([H])([H])[H])c(C([H])([H])C(=O)C([H])([H])C([H])([H])[H])c(C([H])([H])C([H])([H])C([H])([H])C([H])([H])C([H])([H])C([H])([H])C([H])([H])C(=O)N4C([H])([H])C([H])([H])C([H])([H])C([H])(n5nc(-c6c([H])c([H])c(Oc7c([H])c([H])c(F)c([H])c7F)c([H])c6[H])c(C(=O)N([H])[H])c5N([H])[H])C4([H])[H])c3[H])c([H])c([H])c2C1([H])[H]

$$$$
45:0:0
     RDKit          3D

 93101  0  0  1  0  0  0  0  0999 V2000
  -27.9050  -24.9310   21.6850 C   0  0  0  0  0  3  0  0  0  0  0  0
  -27.4870  -23.6010   21.8830 C   0  0  0  0  0  3  0  0  0  0  0  0
  -28.1370  -24.4860   19.3100 C   0  0  0  0  0  3  0  0  0  0  0  0
  -27.7210  -23.1410   19.4810 C   0  0  0  0  0  0  0  0  0  0  0  0
  -28.1900  -25.4010   20.3920 C   0  0  0  0  0  0  0  0  0  0  0  0
  -27.3530  -22.7170   20.7900 C   0  0  0  0  0  0  0  0  0  0  0  0
  -26.8460  -21.4790   21.0440 O   0  0  0  0  0  0  0  0  0  0  0  0
  -26.8730  -21.2340   21.9620 H   0  0  0  0  0  0  0  0  0  0  0  0
  -28.4170  -26.7530   20.1790 O   0  0  0  0  0  0  0  0  0  0  0  0
  -24.5790  -31.9310   23.2880 C   0  0  0  0  0  0  0  0  0  0  0  0
  -27.2850  -27.5450   20.1590 C   0  0  0  0  0  0  0  0  0  0  0  0
  -23.4040  -30.5250   21.6320 C   0  0  0  0  0  3  0  0  0  0  0  0
  -24.8840  -29.0400   20.1860 C   0  0  0  0  0  0  0  0  0  0  0  0
  -25.9280  -30.9170   21.4550 C   0  0  0  0  0  2  0  0  0  0  0  0
  -26.0340  -29.5570   20.7930 C   0  0  0  0  0  0  0  0  0  0  0  0
  -27.2420  -28.8160   20.7820 C   0  0  0  0  0  3  0  0  0  0  0  0
  -26.1190  -27.0630   19.5220 C   0  0  0  0  0  3  0  0  0  0  0  0
  -24.9200  -27.7930   19.5440 C   0  0  0  0  0  3  0  0  0  0  0  0
  -23.6290  -29.8790   20.2420 C   0  0  0  0  0  2  0  0  0  0  0  0
  -24.6540  -31.1410   22.1820 N   0  0  0  0  0  0  0  0  0  0  0  0
  -23.4910  -32.1780   23.8270 O   0  0  0  0  0  0  0  0  0  0  0  0
  -22.7730  -29.4760   22.5780 C   0  0  0  0  0  0  0  0  0  0  0  0
  -21.4540  -29.2670   22.4440 N   0  0  0  0  0  0  0  0  0  0  0  0
  -23.4690  -28.8530   23.3840 O   0  0  0  0  0  0  0  0  0  0  0  0
  -20.9530  -29.8240   21.7640 H   0  0  0  0  0  0  0  0  0  0  0  0
  -18.1030  -28.0060   22.9290 C   0  0  0  0  0  0  0  0  0  0  0  0
  -20.6540  -28.3090   23.2040 C   0  0  0  0  0  3  0  0  0  0  0  0
  -20.7830  -26.8850   22.6130 C   0  0  0  0  0  2  0  0  0  0  0  0
  -19.6880  -26.5540   21.5920 C   0  0  0  0  0  2  0  0  0  0  0  0
  -18.3040  -26.6660   22.2360 C   0  0  0  0  0  2  0  0  0  0  0  0
  -19.2060  -28.7840   23.3670 C   0  0  0  0  0  0  0  0  0  0  0  0
  -18.9630  -30.0380   23.9710 C   0  0  0  0  0  3  0  0  0  0  0  0
  -17.6500  -30.5110   24.1410 C   0  0  0  0  0  3  0  0  0  0  0  0
  -16.5590  -29.7320   23.7170 C   0  0  0  0  0  3  0  0  0  0  0  0
  -16.7880  -28.4810   23.1160 C   0  0  0  0  0  3  0  0  0  0  0  0
  -25.8500  -32.5830   23.9160 C   0  0  0  0  0  3  0  0  0  0  0  0
  -26.3560  -31.8380   25.2120 C   0  0  1  0  0  0  0  0  0  0  0  0
  -25.2500  -31.5990   26.2670 C   0  0  0  0  0  1  0  0  0  0  0  0
  -26.9620  -30.4610   24.8490 C   0  0  0  0  0  1  0  0  0  0  0  0
  -27.4890  -32.6570   25.8750 C   0  0  0  0  0  1  0  0  0  0  0  0
  -25.5240  -33.9830   24.2170 N   0  0  0  0  0  0  0  0  0  0  0  0
  -25.8620  -35.0250   23.4430 C   0  0  0  0  0  0  0  0  0  0  0  0
  -26.5500  -34.9080   22.4250 O   0  0  0  0  0  0  0  0  0  0  0  0
  -24.9090  -34.1440   25.0000 H   0  0  0  0  0  0  0  0  0  0  0  0
  -24.1150  -36.7910   23.0380 C   0  0  0  0  0  1  0  0  0  0  0  0
  -25.3530  -36.4170   23.8690 C   0  0  0  0  0  3  0  0  0  0  0  0
  -27.4680  -37.3380   24.7070 C   0  0  0  0  0  1  0  0  0  0  0  0
  -26.3770  -37.4780   23.7470 N   0  0  0  0  0  0  0  0  0  0  0  0
  -25.9610  -38.3970   23.8690 H   0  0  0  0  0  0  0  0  0  0  0  0
  -27.6510  -22.2620   18.2130 C   0  0  0  0  0  2  0  0  0  0  0  0
  -27.6990  -20.7170   18.3350 C   0  0  0  0  0  2  0  0  0  0  0  0
  -28.9640  -20.1380   19.0020 C   0  0  0  0  0  2  0  0  0  0  0  0
  -28.6590  -18.8800   19.8330 C   0  0  0  0  0  2  0  0  0  0  0  0
  -29.7900  -18.4620   20.7830 C   0  0  0  0  0  2  0  0  0  0  0  0
  -30.9860  -17.7510   20.1230 C   0  0  0  0  0  2  0  0  0  0  0  0
  -31.6920  -16.7890   21.0980 C   0  0  0  0  0  2  0  0  0  0  0  0
  -30.9410  -15.4370   21.2670 C   0  0  0  0  0  2  0  0  0  0  0  0
  -31.1550  -14.4390   20.1100 C   0  0  0  0  0  0  0  0  0  0  0  0
  -30.6360  -12.3210   18.9540 C   0  0  0  0  0  2  0  0  0  0  0  0
  -29.6730  -12.5190   17.7730 C   0  0  0  0  0  2  0  0  0  0  0  0
  -28.2210  -12.4100   18.2700 C   0  0  0  0  0  2  0  0  0  0  0  0
  -27.9470  -13.3370   19.4820 C   0  0  0  0  0  3  0  0  0  0  0  0
  -29.0290  -13.1490   20.5740 C   0  0  0  0  0  2  0  0  0  0  0  0
  -30.3530  -13.3520   19.9610 N   0  0  0  0  0  0  0  0  0  0  0  0
  -32.1200  -14.6360   19.3660 O   0  0  0  0  0  0  0  0  0  0  0  0
  -25.6070  -14.0640   20.2800 C   0  0  0  0  0  0  0  0  0  0  0  0
  -24.5150  -13.3410   20.6900 C   0  0  0  0  0  0  0  0  0  0  0  0
  -24.9120  -11.9700   20.6450 C   0  0  0  0  0  0  0  0  0  0  0  0
  -26.5990  -13.1330   20.0130 N   0  0  0  0  0  0  0  0  0  0  0  0
  -26.1860  -11.8710   20.2890 N   0  0  0  0  0  0  0  0  0  0  0  0
  -24.1380  -10.7410   20.8640 C   0  0  0  0  0  0  0  0  0  0  0  0
  -24.5440   -9.7690   21.8050 C   0  0  0  0  0  3  0  0  0  0  0  0
  -23.7720   -8.6060   22.0130 C   0  0  0  0  0  3  0  0  0  0  0  0
  -22.5800   -8.4050   21.2770 C   0  0  0  0  0  0  0  0  0  0  0  0
  -22.1960   -9.3620   20.3250 C   0  0  0  0  0  3  0  0  0  0  0  0
  -22.9660  -10.5180   20.1150 C   0  0  0  0  0  3  0  0  0  0  0  0
  -21.7720   -7.3010   21.3940 O   0  0  0  0  0  0  0  0  0  0  0  0
  -21.6950   -6.5900   22.5640 C   0  0  0  0  0  0  0  0  0  0  0  0
  -21.3090   -7.1960   23.7800 C   0  0  0  0  0  3  0  0  0  0  0  0
  -21.1770   -6.4150   24.9440 C   0  0  0  0  0  3  0  0  0  0  0  0
  -21.4170   -5.0290   24.8940 C   0  0  0  0  0  0  0  0  0  0  0  0
  -21.7960   -4.4220   23.6840 C   0  0  0  0  0  3  0  0  0  0  0  0
  -21.9340   -5.2010   22.5220 C   0  0  0  0  0  0  0  0  0  0  0  0
  -22.2850   -4.6110   21.3520 F   0  0  0  0  0  0  0  0  0  0  0  0
  -21.2790   -4.2760   26.0110 F   0  0  0  0  0  0  0  0  0  0  0  0
  -23.1500  -13.8820   21.0070 C   0  0  0  0  0  0  0  0  0  0  0  0
  -22.4280  -13.2210   21.9060 N   0  0  0  0  0  0  0  0  0  0  0  0
  -22.7350  -14.9190   20.4950 O   0  0  0  0  0  0  0  0  0  0  0  0
  -21.5040  -13.5540   22.1470 H   0  0  0  0  0  0  0  0  0  0  0  0
  -22.7770  -12.3820   22.3440 H   0  0  0  0  0  0  0  0  0  0  0  0
  -25.8380  -15.4220   20.0930 N   0  0  0  0  0  0  0  0  0  0  0  0
  -25.1180  -16.1250   20.2260 H   0  0  0  0  0  0  0  0  0  0  0  0
  -26.7140  -15.8010   19.7470 H   0  0  0  0  0  0  0  0  0  0  0  0
  1  2  1  0
  3  4  2  0
  3  5  1  0
  4  6  1  0
  5  1  2  0
  6  7  1  0
  6  2  2  0
  7  8  1  0
  9  5  1  0
 10 21  2  0
 11  9  1  0
 11 16  1  0
 12 20  1  0
 12 22  1  0
 13 19  1  0
 13 15  1  0
 14 20  1  0
 15 14  1  0
 16 15  2  0
 17 18  1  0
 17 11  2  0
 18 13  2  0
 19 12  1  0
 20 10  1  0
 22 24  2  0
 23 22  1  0
 25 23  1  0
 26 35  2  0
 26 31  1  0
 27 23  1  0
 27 31  1  0
 28 27  1  0
 29 30  1  0
 29 28  1  0
 30 26  1  0
 31 32  2  0
 32 33  1  0
 34 33  2  0
 35 34  1  0
 36 10  1  0
 36 41  1  0
 36 37  1  0
 37 40  1  1
 37 38  1  0
 39 37  1  0
 41 44  1  0
 42 46  1  0
 42 41  1  0
 43 42  2  0
 46 45  1  0
 48 46  1  0
 48 49  1  0
 48 47  1  0
 50 51  1  0
 50  4  1  0
 51 52  1  0
 52 53  1  0
 53 54  1  0
 55 54  1  0
 55 56  1  0
 56 57  1  0
 58 57  1  0
 59 64  1  0
 60 61  1  0
 60 59  1  0
 62 61  1  0
 62 69  1  0
 62 63  1  0
 64 58  1  0
 64 63  1  0
 65 58  2  0
 66 67  2  0
 67 86  1  0
 68 67  1  0
 68 71  1  0
 69 66  1  0
 69 70  1  0
 70 68  2  0
 71 72  1  0
 72 73  2  0
 74 77  1  0
 74 73  1  0
 75 74  2  0
 76 75  1  0
 76 71  2  0
 77 78  1  0
 78 79  1  0
 79 80  2  0
 81 80  1  0
 81 85  1  0
 82 81  2  0
 83 78  2  0
 83 82  1  0
 84 83  1  0
 86 87  1  0
 87 89  1  0
 87 90  1  0
 88 86  2  0
 91 92  1  0
 91 66  1  0
 93 91  1  0
M  ISO  4   5 101   9 101  57 100  58 100
M  END
>  <TORSDO>  (46) 
F 25

>  <SCORE>  (46) 
-11.880

>  <name>  (46) 
45

>  <ligand_id>  (46) 
45

>  <original_smiles>  (46) 
[H]Oc1c([H])c([H])c(Oc2c([H])c([H])c3c(c2[H])C([H])([H])N(C(=O)C([H])(N([H])C(=O)C([H])(N([H])C([H])([H])[H])C([H])([H])[H])C(C([H])([H])[H])(C([H])([H])[H])C([H])([H])[H])C([H])(C(=O)N([H])C2([H])c4c([H])c([H])c([H])c([H])c4C([H])([H])C([H])([H])C2([H])[H])C3([H])[H])c([H])c1C([H])([H])C([H])([H])C([H])([H])C([H])([H])C([H])([H])C([H])([H])C([H])([H])C([H])([H])C(=O)N1C([H])([H])C([H])([H])C([H])([H])C([H])(n2nc(-c3c([H])c([H])c(Oc4c([H])c([H])c(F)c([H])c4F)c([H])c3[H])c(C(=O)N([H])[H])c2N([H])[H])C1([H])[H]

>  <smiles>  (46) 
[H]Oc1c([H])c([H])c(Oc2c([H])c([H])c3c(c2[H])C([H])([H])N(C(=O)C([H])(N([H])C(=O)C([H])(N([H])C([H])([H])[H])C([H])([H])[H])C(C([H])([H])[H])(C([H])([H])[H])C([H])([H])[H])C([H])(C(=O)N([H])C2([H])c4c([H])c([H])c([H])c([H])c4C([H])([H])C([H])([H])C2([H])[H])C3([H])[H])c([H])c1C([H])([H])C([H])([H])C([H])([H])C([H])([H])C([H])([H])C([H])([H])C([H])([H])C([H])([H])C(=O)N1C([H])([H])C([H])([H])C([H])([H])C([H])(n2nc(-c3c([H])c([H])c(Oc4c([H])c([H])c(F)c([H])c4F)c([H])c3[H])c(C(=O)N([H])[H])c2N([H])[H])C1([H])[H]

$$$$
46:0:0
     RDKit          3D

 90 99  0  0  1  0  0  0  0  0999 V2000
  -28.2080  -18.9350   18.9240 C   0  0  0  0  0  3  0  0  0  0  0  0
  -29.7180  -17.3070   20.2920 C   0  0  0  0  0  0  0  0  0  0  0  0
  -28.4260  -20.1880   19.5980 C   0  0  0  0  0  0  0  0  0  0  0  0
  -29.3540  -20.0830   20.6500 C   0  0  0  0  0  0  0  0  0  0  0  0
  -28.8020  -17.6270   19.2060 C   0  0  0  0  0  0  0  0  0  0  0  0
  -29.9620  -18.6810   20.9660 C   0  0  0  0  0  0  0  0  0  0  0  0
  -27.5000  -21.5160   19.3640 C   0  0  0  0  0  2  0  0  0  0  0  0
  -29.4370  -21.5480   21.4430 C   0  0  0  0  0  2  0  0  0  0  0  0
  -27.8750  -23.1270   19.1120 C   0  0  0  0  0  2  0  0  0  0  0  0
  -29.3690  -23.2070   20.9110 C   0  0  0  0  0  2  0  0  0  0  0  0
  -28.1230  -24.2080   20.3120 C   0  0  0  0  0  3  0  0  0  0  0  0
  -28.4060  -16.5630   18.1970 C   0  0  0  0  0  1  0  0  0  0  0  0
  -30.9330  -18.6680   22.1330 C   0  0  0  0  0  1  0  0  0  0  0  0
  -30.4660  -15.7340   20.4630 C   0  0  0  0  0  0  0  0  0  0  0  0
  -30.6010  -13.2140   19.6960 C   0  0  0  0  0  2  0  0  0  0  0  0
  -29.7580  -12.8240   18.4500 C   0  0  0  0  0  2  0  0  0  0  0  0
  -28.3070  -12.4980   18.8430 C   0  0  0  0  0  2  0  0  0  0  0  0
  -27.7520  -13.4920   19.8890 C   0  0  0  0  0  3  0  0  0  0  0  0
  -28.7370  -13.8060   21.0320 C   0  0  0  0  0  2  0  0  0  0  0  0
  -29.9480  -14.3830   20.4190 N   0  0  0  0  0  0  0  0  0  0  0  0
  -31.7070  -15.6830   20.4120 O   0  0  0  0  0  0  0  0  0  0  0  0
  -25.3570  -13.9870   20.5820 C   0  0  0  0  0  0  0  0  0  0  0  0
  -24.3010  -13.1840   20.9080 C   0  0  0  0  0  0  0  0  0  0  0  0
  -24.8000  -11.8450   20.8880 C   0  0  0  0  0  0  0  0  0  0  0  0
  -26.4250  -13.1360   20.3670 N   0  0  0  0  0  0  0  0  0  0  0  0
  -26.1030  -11.8410   20.6230 N   0  0  0  0  0  0  0  0  0  0  0  0
  -24.0950  -10.5660   21.0470 C   0  0  0  0  0  0  0  0  0  0  0  0
  -24.4720   -9.6320   22.0360 C   0  0  0  0  0  3  0  0  0  0  0  0
  -23.7630   -8.4200   22.1830 C   0  0  0  0  0  3  0  0  0  0  0  0
  -22.6640   -8.1320   21.3380 C   0  0  0  0  0  0  0  0  0  0  0  0
  -22.3080   -9.0560   20.3400 C   0  0  0  0  0  3  0  0  0  0  0  0
  -23.0180  -10.2590   20.1910 C   0  0  0  0  0  3  0  0  0  0  0  0
  -21.9340   -6.9700   21.3910 O   0  0  0  0  0  0  0  0  0  0  0  0
  -21.7440   -6.2920   22.5680 C   0  0  0  0  0  0  0  0  0  0  0  0
  -21.0960   -6.8850   23.6730 C   0  0  0  0  0  3  0  0  0  0  0  0
  -20.8600   -6.1290   24.8390 C   0  0  0  0  0  3  0  0  0  0  0  0
  -21.2610   -4.7820   24.9000 C   0  0  0  0  0  0  0  0  0  0  0  0
  -21.9020   -4.1870   23.7980 C   0  0  0  0  0  3  0  0  0  0  0  0
  -22.1390   -4.9400   22.6340 C   0  0  0  0  0  0  0  0  0  0  0  0
  -22.7380   -4.3570   21.5670 F   0  0  0  0  0  0  0  0  0  0  0  0
  -21.0280   -4.0530   26.0160 F   0  0  0  0  0  0  0  0  0  0  0  0
  -22.8850  -13.6280   21.1230 C   0  0  0  0  0  0  0  0  0  0  0  0
  -22.1430  -12.9220   21.9680 N   0  0  0  0  0  0  0  0  0  0  0  0
  -22.4430  -14.6400   20.5790 O   0  0  0  0  0  0  0  0  0  0  0  0
  -22.5140  -12.1040   22.4290 H   0  0  0  0  0  0  0  0  0  0  0  0
  -21.1920  -13.2020   22.1570 H   0  0  0  0  0  0  0  0  0  0  0  0
  -25.4970  -15.3620   20.4190 N   0  0  0  0  0  0  0  0  0  0  0  0
  -24.7160  -16.0010   20.5270 H   0  0  0  0  0  0  0  0  0  0  0  0
  -26.3600  -15.8310   20.1750 H   0  0  0  0  0  0  0  0  0  0  0  0
  -28.2020  -25.9100   20.1340 O   0  0  0  0  0  0  0  0  0  0  0  0
  -24.6350  -31.9380   23.2430 C   0  0  0  0  0  0  0  0  0  0  0  0
  -27.1770  -27.0330   20.1330 C   0  0  0  0  0  0  0  0  0  0  0  0
  -23.4370  -30.5680   21.5880 C   0  0  0  0  0  3  0  0  0  0  0  0
  -24.8800  -28.9730   20.1320 C   0  0  0  0  0  0  0  0  0  0  0  0
  -26.0070  -30.7630   21.4350 C   0  0  0  0  0  2  0  0  0  0  0  0
  -26.0750  -29.3530   20.7540 C   0  0  0  0  0  0  0  0  0  0  0  0
  -27.2140  -28.4100   20.7200 C   0  0  0  0  0  3  0  0  0  0  0  0
  -25.9450  -26.8280   19.4700 C   0  0  0  0  0  3  0  0  0  0  0  0
  -24.8460  -27.7350   19.4670 C   0  0  0  0  0  3  0  0  0  0  0  0
  -23.6640  -29.9030   20.2010 C   0  0  0  0  0  2  0  0  0  0  0  0
  -24.7170  -31.1190   22.1420 N   0  0  0  0  0  0  0  0  0  0  0  0
  -23.5470  -32.2180   23.7730 O   0  0  0  0  0  0  0  0  0  0  0  0
  -22.7450  -29.5600   22.5440 C   0  0  0  0  0  0  0  0  0  0  0  0
  -21.4190  -29.3660   22.3980 N   0  0  0  0  0  0  0  0  0  0  0  0
  -23.4080  -28.9510   23.3860 O   0  0  0  0  0  0  0  0  0  0  0  0
  -20.9330  -29.9100   21.6990 H   0  0  0  0  0  0  0  0  0  0  0  0
  -18.0630  -28.0550   22.8470 C   0  0  0  0  0  0  0  0  0  0  0  0
  -20.6080  -28.4050   23.1550 C   0  0  0  0  0  3  0  0  0  0  0  0
  -20.7640  -26.9750   22.5830 C   0  0  0  0  0  2  0  0  0  0  0  0
  -19.6930  -26.6180   21.5500 C   0  0  0  0  0  2  0  0  0  0  0  0
  -18.2950  -26.7150   22.1680 C   0  0  0  0  0  2  0  0  0  0  0  0
  -19.1490  -28.8550   23.2950 C   0  0  0  0  0  0  0  0  0  0  0  0
  -18.8740  -30.1050   23.8920 C   0  0  0  0  0  3  0  0  0  0  0  0
  -17.5490  -30.5570   24.0420 C   0  0  0  0  0  3  0  0  0  0  0  0
  -16.4790  -29.7570   23.6070 C   0  0  0  0  0  3  0  0  0  0  0  0
  -16.7370  -28.5070   23.0160 C   0  0  0  0  0  3  0  0  0  0  0  0
  -25.9040  -32.5770   23.8850 C   0  0  0  0  0  3  0  0  0  0  0  0
  -25.5820  -33.9710   24.2460 N   0  0  0  0  0  0  0  0  0  0  0  0
  -25.9120  -35.0500   23.5250 C   0  0  0  0  0  0  0  0  0  0  0  0
  -26.5820  -34.9780   22.4910 O   0  0  0  0  0  0  0  0  0  0  0  0
  -24.9860  -34.0990   25.0510 H   0  0  0  0  0  0  0  0  0  0  0  0
  -24.1930  -36.8680   23.2250 C   0  0  0  0  0  1  0  0  0  0  0  0
  -25.4290  -36.4280   24.0260 C   0  0  0  0  0  3  0  0  0  0  0  0
  -27.5570  -37.2890   24.9020 C   0  0  0  0  0  1  0  0  0  0  0  0
  -26.4650  -37.4820   23.9520 N   0  0  0  0  0  0  0  0  0  0  0  0
  -26.0590  -38.3990   24.1170 H   0  0  0  0  0  0  0  0  0  0  0  0
  -26.4140  -31.7960   25.1600 C   0  0  1  0  0  0  0  0  0  0  0  0
  -25.3160  -31.5500   26.2220 C   0  0  0  0  0  1  0  0  0  0  0  0
  -27.0020  -30.4220   24.7680 C   0  0  0  0  0  1  0  0  0  0  0  0
  -27.5610  -32.5860   25.8330 C   0  0  0  0  0  1  0  0  0  0  0  0
  1  5  2  0
  1  3  1  0
  2 14  1  0
  2  6  2  0
  3  4  2  0
  4  6  1  0
  4  8  1  0
  5  2  1  0
  6 13  1  0
  7  3  1  0
  9  7  1  0
  9 11  1  0
 10  8  1  0
 11 50  1  0
 11 10  1  0
 12  5  1  0
 15 20  1  0
 16 17  1  0
 16 15  1  0
 18 17  1  0
 18 25  1  0
 18 19  1  0
 20 14  1  0
 20 19  1  0
 21 14  2  0
 22 23  2  0
 23 42  1  0
 24 23  1  0
 24 27  1  0
 25 22  1  0
 25 26  1  0
 26 24  2  0
 27 28  1  0
 28 29  2  0
 30 33  1  0
 30 29  1  0
 31 30  2  0
 32 31  1  0
 32 27  2  0
 33 34  1  0
 34 39  2  0
 34 35  1  0
 35 36  2  0
 36 37  1  0
 37 41  1  0
 38 37  2  0
 39 38  1  0
 40 39  1  0
 42 43  1  0
 43 46  1  0
 43 45  1  0
 44 42  2  0
 47 48  1  0
 47 22  1  0
 49 47  1  0
 51 62  2  0
 52 50  1  0
 52 57  1  0
 53 61  1  0
 53 63  1  0
 54 60  1  0
 54 56  1  0
 55 61  1  0
 56 55  1  0
 57 56  2  0
 58 52  2  0
 59 58  1  0
 59 54  2  0
 60 53  1  0
 61 51  1  0
 63 65  2  0
 64 63  1  0
 66 64  1  0
 67 76  2  0
 67 72  1  0
 68 64  1  0
 68 72  1  0
 69 68  1  0
 70 71  1  0
 70 69  1  0
 71 67  1  0
 72 73  2  0
 73 74  1  0
 75 74  2  0
 76 75  1  0
 77 51  1  0
 77 78  1  0
 77 87  1  0
 78 81  1  0
 79 83  1  0
 79 78  1  0
 80 79  2  0
 83 82  1  0
 85 83  1  0
 85 86  1  0
 85 84  1  0
 87 90  1  1
 87 88  1  0
 89 87  1  0
M  ISO  4   2 100  11 101  14 100  50 101
M  END
>  <TORSDO>  (47) 
F 16

>  <SCORE>  (47) 
-16.078

>  <name>  (47) 
46

>  <ligand_id>  (47) 
46

>  <original_smiles>  (47) 
[H]c1c([H])c([H])c2c(c1[H])C([H])([H])C([H])([H])C([H])([H])C2([H])N([H])C(=O)C1([H])N(C(=O)C([H])(N([H])C(=O)C([H])(N([H])C([H])([H])[H])C([H])([H])[H])C(C([H])([H])[H])(C([H])([H])[H])C([H])([H])[H])C([H])([H])c2c([H])c(OC3([H])C([H])([H])C([H])([H])c4c([H])c(C([H])([H])[H])c(C(=O)N5C([H])([H])C([H])([H])C([H])([H])C([H])(n6nc(-c7c([H])c([H])c(Oc8c([H])c([H])c(F)c([H])c8F)c([H])c7[H])c(C(=O)N([H])[H])c6N([H])[H])C5([H])[H])c(C([H])([H])[H])c4C([H])([H])C3([H])[H])c([H])c([H])c2C1([H])[H]

>  <smiles>  (47) 
[H]c1c([H])c([H])c2c(c1[H])C([H])([H])C([H])([H])C([H])([H])C2([H])N([H])C(=O)C1([H])N(C(=O)C([H])(N([H])C(=O)C([H])(N([H])C([H])([H])[H])C([H])([H])[H])C(C([H])([H])[H])(C([H])([H])[H])C([H])([H])[H])C([H])([H])c2c([H])c(OC3([H])C([H])([H])C([H])([H])c4c([H])c(C([H])([H])[H])c(C(=O)N5C([H])([H])C([H])([H])C([H])([H])C([H])(n6nc(-c7c([H])c([H])c(Oc8c([H])c([H])c(F)c([H])c8F)c([H])c7[H])c(C(=O)N([H])[H])c6N([H])[H])C5([H])[H])c(C([H])([H])[H])c4C([H])([H])C3([H])[H])c([H])c([H])c2C1([H])[H]

$$$$
47:0:0
     RDKit          3D

 93102  0  0  1  0  0  0  0  0999 V2000
  -31.7630  -22.8000   18.2580 C   0  0  0  0  0  3  0  0  0  0  0  0
  -31.6930  -24.1920   18.2390 C   0  0  0  0  0  3  0  0  0  0  0  0
  -30.7940  -22.0800   18.9590 C   0  0  0  0  0  3  0  0  0  0  0  0
  -30.6450  -24.8780   18.8840 C   0  0  0  0  0  0  0  0  0  0  0  0
  -29.7440  -22.7100   19.6630 C   0  0  0  0  0  0  0  0  0  0  0  0
  -29.6170  -24.1740   19.6050 C   0  0  0  0  0  0  0  0  0  0  0  0
  -30.6990  -26.3930   18.7330 C   0  0  0  0  0  1  0  0  0  0  0  0
  -28.8200  -21.6750   20.3800 C   0  0  0  0  0  2  0  0  0  0  0  0
  -29.5130  -20.3590   21.0050 C   0  0  0  0  0  2  0  0  0  0  0  0
  -30.7510  -14.6350   20.0400 C   0  0  0  0  0  0  0  0  0  0  0  0
  -30.4330  -12.4330   18.9350 C   0  0  0  0  0  2  0  0  0  0  0  0
  -29.4290  -12.5990   17.7760 C   0  0  0  0  0  2  0  0  0  0  0  0
  -27.9840  -12.4380   18.2830 C   0  0  0  0  0  2  0  0  0  0  0  0
  -27.6990  -13.2680   19.5640 C   0  0  0  0  0  3  0  0  0  0  0  0
  -28.8190  -13.1010   20.6150 C   0  0  0  0  0  2  0  0  0  0  0  0
  -30.0850  -13.4400   19.9580 N   0  0  0  0  0  0  0  0  0  0  0  0
  -31.9150  -14.7320   19.6360 O   0  0  0  0  0  0  0  0  0  0  0  0
  -29.1810  -17.7860   21.6780 C   0  0  0  0  0  2  0  0  0  0  0  0
  -30.0410  -18.2610   19.3910 C   0  0  0  0  0  2  0  0  0  0  0  0
  -30.1240  -16.5300   21.5230 C   0  0  0  0  0  2  0  0  0  0  0  0
  -29.7840  -16.7290   19.1140 C   0  0  0  0  0  2  0  0  0  0  0  0
  -29.1740  -18.8600   20.5310 C   0  0  0  0  0  3  0  0  0  0  0  0
  -30.0040  -15.7830   20.2490 N   0  0  0  0  0  0  0  0  0  0  0  0
  -25.3520  -13.8470   20.4240 C   0  0  0  0  0  0  0  0  0  0  0  0
  -24.3050  -13.0660   20.8330 C   0  0  0  0  0  0  0  0  0  0  0  0
  -24.7650  -11.7160   20.7540 C   0  0  0  0  0  0  0  0  0  0  0  0
  -26.3820  -12.9720   20.1190 N   0  0  0  0  0  0  0  0  0  0  0  0
  -26.0380  -11.6850   20.3770 N   0  0  0  0  0  0  0  0  0  0  0  0
  -24.0500  -10.4510   20.9600 C   0  0  0  0  0  0  0  0  0  0  0  0
  -24.4940   -9.4940   21.8990 C   0  0  0  0  0  3  0  0  0  0  0  0
  -23.7780   -8.2920   22.0910 C   0  0  0  0  0  3  0  0  0  0  0  0
  -22.6020   -8.0400   21.3440 C   0  0  0  0  0  0  0  0  0  0  0  0
  -22.1770   -8.9850   20.3940 C   0  0  0  0  0  3  0  0  0  0  0  0
  -22.8940  -10.1780   20.2010 C   0  0  0  0  0  3  0  0  0  0  0  0
  -21.8550   -6.8910   21.4470 O   0  0  0  0  0  0  0  0  0  0  0  0
  -21.7720   -6.1880   22.6210 C   0  0  0  0  0  0  0  0  0  0  0  0
  -21.3000   -6.7830   23.8120 C   0  0  0  0  0  3  0  0  0  0  0  0
  -21.1640   -6.0060   24.9810 C   0  0  0  0  0  3  0  0  0  0  0  0
  -21.4920   -4.6380   24.9590 C   0  0  0  0  0  0  0  0  0  0  0  0
  -21.9570   -4.0430   23.7730 C   0  0  0  0  0  3  0  0  0  0  0  0
  -22.0950   -4.8170   22.6080 C   0  0  0  0  0  0  0  0  0  0  0  0
  -22.5230   -4.2350   21.4620 F   0  0  0  0  0  0  0  0  0  0  0  0
  -21.3540   -3.8890   26.0780 F   0  0  0  0  0  0  0  0  0  0  0  0
  -22.9240  -13.5380   21.1870 C   0  0  0  0  0  0  0  0  0  0  0  0
  -22.2490  -12.8330   22.0860 N   0  0  0  0  0  0  0  0  0  0  0  0
  -22.4560  -14.5660   20.7000 O   0  0  0  0  0  0  0  0  0  0  0  0
  -22.6440  -12.0030   22.5010 H   0  0  0  0  0  0  0  0  0  0  0  0
  -21.3240  -13.1280   22.3650 H   0  0  0  0  0  0  0  0  0  0  0  0
  -25.5100  -15.2210   20.2650 N   0  0  0  0  0  0  0  0  0  0  0  0
  -24.7590  -15.8790   20.4380 H   0  0  0  0  0  0  0  0  0  0  0  0
  -26.3590  -15.6650   19.9350 H   0  0  0  0  0  0  0  0  0  0  0  0
  -28.4060  -24.9900   20.2120 C   0  0  0  0  0  2  0  0  0  0  0  0
  -28.4650  -26.4800   20.2150 O   0  0  0  0  0  0  0  0  0  0  0  0
  -24.6690  -31.8470   23.2010 C   0  0  0  0  0  0  0  0  0  0  0  0
  -27.3160  -27.2840   20.1840 C   0  0  0  0  0  0  0  0  0  0  0  0
  -23.4790  -30.4340   21.5620 C   0  0  0  0  0  3  0  0  0  0  0  0
  -24.9430  -28.8840   20.1510 C   0  0  0  0  0  0  0  0  0  0  0  0
  -26.0160  -30.7670   21.3870 C   0  0  0  0  0  2  0  0  0  0  0  0
  -26.1050  -29.3840   20.7490 C   0  0  0  0  0  0  0  0  0  0  0  0
  -27.2940  -28.5970   20.7520 C   0  0  0  0  0  3  0  0  0  0  0  0
  -26.1300  -26.8380   19.5590 C   0  0  0  0  0  3  0  0  0  0  0  0
  -24.9580  -27.6170   19.5470 C   0  0  0  0  0  3  0  0  0  0  0  0
  -23.7010  -29.7530   20.1860 C   0  0  0  0  0  2  0  0  0  0  0  0
  -24.7400  -31.0340   22.1070 N   0  0  0  0  0  0  0  0  0  0  0  0
  -23.5820  -32.1190   23.7310 O   0  0  0  0  0  0  0  0  0  0  0  0
  -22.8200  -29.4180   22.5230 C   0  0  0  0  0  0  0  0  0  0  0  0
  -21.4920  -29.2500   22.4080 N   0  0  0  0  0  0  0  0  0  0  0  0
  -23.5010  -28.7810   23.3310 O   0  0  0  0  0  0  0  0  0  0  0  0
  -21.0010  -29.8140   21.7280 H   0  0  0  0  0  0  0  0  0  0  0  0
  -18.1080  -28.0930   22.9460 C   0  0  0  0  0  0  0  0  0  0  0  0
  -20.6730  -28.3170   23.1830 C   0  0  0  0  0  3  0  0  0  0  0  0
  -20.7480  -26.8890   22.5930 C   0  0  0  0  0  2  0  0  0  0  0  0
  -19.6280  -26.5890   21.5920 C   0  0  0  0  0  2  0  0  0  0  0  0
  -18.2580  -26.7470   22.2570 C   0  0  0  0  0  2  0  0  0  0  0  0
  -19.2420  -28.8370   23.3670 C   0  0  0  0  0  0  0  0  0  0  0  0
  -19.0490  -30.0970   23.9720 C   0  0  0  0  0  3  0  0  0  0  0  0
  -17.7530  -30.6140   24.1610 C   0  0  0  0  0  3  0  0  0  0  0  0
  -16.6330  -29.8660   23.7570 C   0  0  0  0  0  3  0  0  0  0  0  0
  -16.8120  -28.6090   23.1550 C   0  0  0  0  0  3  0  0  0  0  0  0
  -25.9460  -32.4890   23.8240 C   0  0  0  0  0  3  0  0  0  0  0  0
  -26.4700  -31.7180   25.0980 C   0  0  1  0  0  0  0  0  0  0  0  0
  -25.3790  -31.4660   26.1650 C   0  0  0  0  0  1  0  0  0  0  0  0
  -27.0650  -30.3480   24.7010 C   0  0  0  0  0  1  0  0  0  0  0  0
  -27.6110  -32.5210   25.7630 C   0  0  0  0  0  1  0  0  0  0  0  0
  -25.6210  -33.8830   24.1620 N   0  0  0  0  0  0  0  0  0  0  0  0
  -25.9400  -34.9430   23.4070 C   0  0  0  0  0  0  0  0  0  0  0  0
  -26.6070  -34.8520   22.3730 O   0  0  0  0  0  0  0  0  0  0  0  0
  -25.0280  -34.0250   24.9660 H   0  0  0  0  0  0  0  0  0  0  0  0
  -24.1910  -36.7190   23.0680 C   0  0  0  0  0  1  0  0  0  0  0  0
  -25.4390  -36.3250   23.8740 C   0  0  0  0  0  3  0  0  0  0  0  0
  -27.5660  -37.2290   24.7010 C   0  0  0  0  0  1  0  0  0  0  0  0
  -26.4610  -37.3890   23.7620 N   0  0  0  0  0  0  0  0  0  0  0  0
  -26.0440  -38.3050   23.9150 H   0  0  0  0  0  0  0  0  0  0  0  0
  1  3  1  0
  2  1  2  0
  2  4  1  0
  3  5  2  0
  4  6  2  0
  5  8  1  0
  6  5  1  0
  6 52  1  0
  7  4  1  0
  8  9  1  0
 10 23  1  0
 11 16  1  0
 12 13  1  0
 12 11  1  0
 14 13  1  0
 14 27  1  0
 14 15  1  0
 16 10  1  0
 16 15  1  0
 17 10  2  0
 19 22  1  0
 20 18  1  0
 21 19  1  0
 21 23  1  0
 22  9  1  0
 22 18  1  0
 23 20  1  0
 24 25  2  0
 25 44  1  0
 26 25  1  0
 26 29  1  0
 27 28  1  0
 27 24  1  0
 28 26  2  0
 29 30  1  0
 30 31  2  0
 32 35  1  0
 32 31  1  0
 33 32  2  0
 34 33  1  0
 34 29  2  0
 35 36  1  0
 36 37  1  0
 37 38  2  0
 39 38  1  0
 39 43  1  0
 40 39  2  0
 41 36  2  0
 41 40  1  0
 42 41  1  0
 44 45  1  0
 45 48  1  0
 45 47  1  0
 46 44  2  0
 49 24  1  0
 49 50  1  0
 51 49  1  0
 52 53  1  0
 54 65  2  0
 55 53  1  0
 55 60  1  0
 56 64  1  0
 56 66  1  0
 57 63  1  0
 57 59  1  0
 58 64  1  0
 59 60  2  0
 59 58  1  0
 61 55  2  0
 62 61  1  0
 62 57  2  0
 63 56  1  0
 64 54  1  0
 66 68  2  0
 67 66  1  0
 69 67  1  0
 70 79  2  0
 70 75  1  0
 71 67  1  0
 71 75  1  0
 72 71  1  0
 73 74  1  0
 73 72  1  0
 74 70  1  0
 75 76  2  0
 76 77  1  0
 78 77  2  0
 79 78  1  0
 80 54  1  0
 80 85  1  0
 80 81  1  0
 81 84  1  1
 81 82  1  0
 83 81  1  0
 85 88  1  0
 86 90  1  0
 86 85  1  0
 87 86  2  0
 90 89  1  0
 92 90  1  0
 92 93  1  0
 92 91  1  0
M  ISO  4  10 100  23 100  52 101  53 101
M  END
>  <TORSDO>  (48) 
F 19

>  <SCORE>  (48) 
-13.455

>  <name>  (48) 
47

>  <ligand_id>  (48) 
47

>  <original_smiles>  (48) 
[H]c1c([H])c([H])c2c(c1[H])C([H])([H])C([H])([H])C([H])([H])C2([H])N([H])C(=O)C1([H])N(C(=O)C([H])(N([H])C(=O)C([H])(N([H])C([H])([H])[H])C([H])([H])[H])C(C([H])([H])[H])(C([H])([H])[H])C([H])([H])[H])C([H])([H])c2c([H])c(OC([H])([H])c3c(C([H])([H])[H])c([H])c([H])c([H])c3C([H])([H])C([H])([H])C3([H])C([H])([H])C([H])([H])N(C(=O)N4C([H])([H])C([H])([H])C([H])([H])C([H])(n5nc(-c6c([H])c([H])c(Oc7c([H])c([H])c(F)c([H])c7F)c([H])c6[H])c(C(=O)N([H])[H])c5N([H])[H])C4([H])[H])C([H])([H])C3([H])[H])c([H])c([H])c2C1([H])[H]

>  <smiles>  (48) 
[H]c1c([H])c([H])c2c(c1[H])C([H])([H])C([H])([H])C([H])([H])C2([H])N([H])C(=O)C1([H])N(C(=O)C([H])(N([H])C(=O)C([H])(N([H])C([H])([H])[H])C([H])([H])[H])C(C([H])([H])[H])(C([H])([H])[H])C([H])([H])[H])C([H])([H])c2c([H])c(OC([H])([H])c3c(C([H])([H])[H])c([H])c([H])c([H])c3C([H])([H])C([H])([H])C3([H])C([H])([H])C([H])([H])N(C(=O)N4C([H])([H])C([H])([H])C([H])([H])C([H])(n5nc(-c6c([H])c([H])c(Oc7c([H])c([H])c(F)c([H])c7F)c([H])c6[H])c(C(=O)N([H])[H])c5N([H])[H])C4([H])[H])C([H])([H])C3([H])[H])c([H])c([H])c2C1([H])[H]

$$$$
48:0:0
     RDKit          3D

 91100  0  0  1  0  0  0  0  0999 V2000
  -27.6990  -22.5220   20.9370 C   0  0  0  0  0  3  0  0  0  0  0  0
  -29.7200  -22.7430   19.7540 C   0  0  0  0  0  3  0  0  0  0  0  0
  -27.4690  -23.9590   20.8490 C   0  0  0  0  0  3  0  0  0  0  0  0
  -29.4890  -24.1760   19.6640 C   0  0  0  0  0  3  0  0  0  0  0  0
  -28.8460  -21.8180   20.4150 C   0  0  0  0  0  0  0  0  0  0  0  0
  -28.3660  -24.8850   20.2160 C   0  0  0  0  0  0  0  0  0  0  0  0
  -28.9750  -18.8810   19.9280 C   0  0  0  0  0  0  0  0  0  0  0  0
  -30.6200  -19.9290   21.3070 C   0  0  0  0  0  2  0  0  0  0  0  0
  -30.8200  -18.3700   21.4130 C   0  0  0  0  0  2  0  0  0  0  0  0
  -29.1950  -20.2370   20.7750 C   0  0  0  0  0  3  0  0  0  0  0  0
  -30.0750  -17.7100   20.2330 C   0  0  0  0  0  3  0  0  0  0  0  0
  -28.0380  -18.7520   19.1380 O   0  0  0  0  0  0  0  0  0  0  0  0
  -30.5290  -15.0050   20.1970 C   0  0  0  0  0  0  0  0  0  0  0  0
  -30.3860  -12.6610   19.2580 C   0  0  0  0  0  2  0  0  0  0  0  0
  -29.4210  -12.6330   18.0510 C   0  0  0  0  0  2  0  0  0  0  0  0
  -27.9680  -12.4250   18.5200 C   0  0  0  0  0  2  0  0  0  0  0  0
  -27.5940  -13.3440   19.7140 C   0  0  0  0  0  3  0  0  0  0  0  0
  -28.6790  -13.3430   20.8120 C   0  0  0  0  0  2  0  0  0  0  0  0
  -29.9360  -13.7480   20.1710 N   0  0  0  0  0  0  0  0  0  0  0  0
  -31.7190  -15.0810   19.8720 O   0  0  0  0  0  0  0  0  0  0  0  0
  -29.7510  -16.1740   20.3820 N   0  0  0  0  0  0  0  0  0  0  0  0
  -28.7810  -15.9850   20.5860 H   0  0  0  0  0  0  0  0  0  0  0  0
  -25.2410  -13.9190   20.5400 C   0  0  0  0  0  0  0  0  0  0  0  0
  -24.1860  -13.1410   20.9260 C   0  0  0  0  0  0  0  0  0  0  0  0
  -24.6420  -11.7880   20.8500 C   0  0  0  0  0  0  0  0  0  0  0  0
  -26.2710  -13.0410   20.2470 N   0  0  0  0  0  0  0  0  0  0  0  0
  -25.9220  -11.7540   20.4980 N   0  0  0  0  0  0  0  0  0  0  0  0
  -23.9140  -10.5250   21.0330 C   0  0  0  0  0  0  0  0  0  0  0  0
  -24.3460   -9.5510   21.9590 C   0  0  0  0  0  3  0  0  0  0  0  0
  -23.6180   -8.3540   22.1310 C   0  0  0  0  0  3  0  0  0  0  0  0
  -22.4430   -8.1230   21.3750 C   0  0  0  0  0  0  0  0  0  0  0  0
  -22.0300   -9.0860   20.4390 C   0  0  0  0  0  3  0  0  0  0  0  0
  -22.7590  -10.2740   20.2640 C   0  0  0  0  0  3  0  0  0  0  0  0
  -21.6860   -6.9790   21.4570 O   0  0  0  0  0  0  0  0  0  0  0  0
  -21.6040   -6.2510   22.6170 C   0  0  0  0  0  0  0  0  0  0  0  0
  -21.1100   -6.8110   23.8150 C   0  0  0  0  0  3  0  0  0  0  0  0
  -20.9770   -6.0080   24.9650 C   0  0  0  0  0  3  0  0  0  0  0  0
  -21.3300   -4.6470   24.9190 C   0  0  0  0  0  0  0  0  0  0  0  0
  -21.8190   -4.0850   23.7260 C   0  0  0  0  0  3  0  0  0  0  0  0
  -21.9520   -4.8860   22.5770 C   0  0  0  0  0  0  0  0  0  0  0  0
  -22.4030   -4.3360   21.4240 F   0  0  0  0  0  0  0  0  0  0  0  0
  -21.1970   -3.8730   26.0220 F   0  0  0  0  0  0  0  0  0  0  0  0
  -22.8000  -13.6180   21.2500 C   0  0  0  0  0  0  0  0  0  0  0  0
  -22.0920  -12.9040   22.1170 N   0  0  0  0  0  0  0  0  0  0  0  0
  -22.3550  -14.6590   20.7690 O   0  0  0  0  0  0  0  0  0  0  0  0
  -22.4660  -12.0610   22.5280 H   0  0  0  0  0  0  0  0  0  0  0  0
  -21.1630  -13.2040   22.3750 H   0  0  0  0  0  0  0  0  0  0  0  0
  -25.4040  -15.2930   20.3870 N   0  0  0  0  0  0  0  0  0  0  0  0
  -24.6350  -15.9390   20.5260 H   0  0  0  0  0  0  0  0  0  0  0  0
  -26.2200  -15.7350   19.9830 H   0  0  0  0  0  0  0  0  0  0  0  0
  -28.3140  -26.3530   20.2050 O   0  0  0  0  0  0  0  0  0  0  0  0
  -24.6060  -31.9430   23.2230 C   0  0  0  0  0  0  0  0  0  0  0  0
  -27.1920  -27.2440   20.2100 C   0  0  0  0  0  0  0  0  0  0  0  0
  -23.4010  -30.5350   21.5930 C   0  0  0  0  0  3  0  0  0  0  0  0
  -24.8470  -28.9510   20.1760 C   0  0  0  0  0  0  0  0  0  0  0  0
  -25.9490  -30.8150   21.4140 C   0  0  0  0  0  2  0  0  0  0  0  0
  -26.0220  -29.4170   20.7770 C   0  0  0  0  0  0  0  0  0  0  0  0
  -27.1930  -28.5770   20.7790 C   0  0  0  0  0  3  0  0  0  0  0  0
  -25.9930  -26.8630   19.5740 C   0  0  0  0  0  3  0  0  0  0  0  0
  -24.8410  -27.6860   19.5610 C   0  0  0  0  0  3  0  0  0  0  0  0
  -23.6180  -29.8450   20.2190 C   0  0  0  0  0  2  0  0  0  0  0  0
  -24.6720  -31.1200   22.1320 N   0  0  0  0  0  0  0  0  0  0  0  0
  -23.5220  -32.2260   23.7560 O   0  0  0  0  0  0  0  0  0  0  0  0
  -22.7320  -29.5310   22.5640 C   0  0  0  0  0  0  0  0  0  0  0  0
  -21.4040  -29.3540   22.4400 N   0  0  0  0  0  0  0  0  0  0  0  0
  -23.4080  -28.9150   23.3920 O   0  0  0  0  0  0  0  0  0  0  0  0
  -20.9170  -29.9020   21.7450 H   0  0  0  0  0  0  0  0  0  0  0  0
  -18.0280  -28.1540   22.9620 C   0  0  0  0  0  0  0  0  0  0  0  0
  -20.5880  -28.4180   23.2170 C   0  0  0  0  0  3  0  0  0  0  0  0
  -20.6870  -26.9850   22.6460 C   0  0  0  0  0  2  0  0  0  0  0  0
  -19.5820  -26.6590   21.6370 C   0  0  0  0  0  2  0  0  0  0  0  0
  -18.2030  -26.8030   22.2870 C   0  0  0  0  0  2  0  0  0  0  0  0
  -19.1470  -28.9190   23.3830 C   0  0  0  0  0  0  0  0  0  0  0  0
  -18.9290  -30.1820   23.9760 C   0  0  0  0  0  3  0  0  0  0  0  0
  -17.6240  -30.6800   24.1490 C   0  0  0  0  0  3  0  0  0  0  0  0
  -16.5190  -29.9120   23.7410 C   0  0  0  0  0  3  0  0  0  0  0  0
  -16.7210  -28.6510   23.1530 C   0  0  0  0  0  3  0  0  0  0  0  0
  -25.8850  -32.5820   23.8420 C   0  0  0  0  0  3  0  0  0  0  0  0
  -25.5700  -33.9800   24.1770 N   0  0  0  0  0  0  0  0  0  0  0  0
  -25.8910  -35.0390   23.4210 C   0  0  0  0  0  0  0  0  0  0  0  0
  -26.5510  -34.9420   22.3830 O   0  0  0  0  0  0  0  0  0  0  0  0
  -24.9810  -34.1300   24.9830 H   0  0  0  0  0  0  0  0  0  0  0  0
  -24.1560  -36.8320   23.0910 C   0  0  0  0  0  1  0  0  0  0  0  0
  -25.4050  -36.4250   23.8890 C   0  0  0  0  0  3  0  0  0  0  0  0
  -27.5410  -37.3170   24.7090 C   0  0  0  0  0  1  0  0  0  0  0  0
  -26.4340  -37.4810   23.7710 N   0  0  0  0  0  0  0  0  0  0  0  0
  -26.0270  -38.4010   23.9190 H   0  0  0  0  0  0  0  0  0  0  0  0
  -26.4070  -31.8160   25.1210 C   0  0  1  0  0  0  0  0  0  0  0  0
  -25.3160  -31.5740   26.1900 C   0  0  0  0  0  1  0  0  0  0  0  0
  -26.9970  -30.4400   24.7340 C   0  0  0  0  0  1  0  0  0  0  0  0
  -27.5540  -32.6160   25.7820 C   0  0  0  0  0  1  0  0  0  0  0  0
  2  5  1  0
  3  1  1  0
  4  2  2  0
  4  6  1  0
  5  1  2  0
  6  3  2  0
  7 11  1  0
  7 10  1  0
  8  9  1  0
 10  5  1  0
 10  8  1  0
 11 21  1  0
 11  9  1  0
 12  7  2  0
 13 21  1  0
 14 19  1  0
 15 16  1  0
 15 14  1  0
 17 16  1  0
 17 26  1  0
 17 18  1  0
 19 13  1  0
 19 18  1  0
 20 13  2  0
 21 22  1  0
 23 24  2  0
 24 43  1  0
 25 24  1  0
 25 28  1  0
 26 27  1  0
 26 23  1  0
 27 25  2  0
 28 29  1  0
 29 30  2  0
 31 34  1  0
 31 30  1  0
 32 31  2  0
 33 32  1  0
 33 28  2  0
 34 35  1  0
 35 36  1  0
 36 37  2  0
 38 37  1  0
 38 42  1  0
 39 38  2  0
 40 35  2  0
 40 39  1  0
 41 40  1  0
 43 44  1  0
 44 47  1  0
 44 46  1  0
 45 43  2  0
 48 49  1  0
 48 23  1  0
 50 48  1  0
 51 53  1  0
 51  6  1  0
 52 63  2  0
 53 58  1  0
 54 62  1  0
 54 64  1  0
 55 61  1  0
 55 57  1  0
 56 62  1  0
 57 58  2  0
 57 56  1  0
 59 53  2  0
 60 59  1  0
 60 55  2  0
 61 54  1  0
 62 52  1  0
 64 66  2  0
 65 64  1  0
 67 65  1  0
 68 77  2  0
 68 73  1  0
 69 65  1  0
 69 73  1  0
 70 69  1  0
 71 72  1  0
 71 70  1  0
 72 68  1  0
 73 74  2  0
 74 75  1  0
 76 75  2  0
 77 76  1  0
 78 52  1  0
 78 79  1  0
 78 88  1  0
 79 82  1  0
 80 84  1  0
 80 79  1  0
 81 80  2  0
 84 83  1  0
 86 84  1  0
 86 87  1  0
 86 85  1  0
 88 91  1  1
 88 89  1  0
 90 88  1  0
M  ISO  4   6 101  13 100  21 100  51 101
M  END
>  <TORSDO>  (49) 
F 17

>  <SCORE>  (49) 
-15.338

>  <name>  (49) 
48

>  <ligand_id>  (49) 
48

>  <original_smiles>  (49) 
[H]c1c([H])c([H])c2c(c1[H])C([H])([H])C([H])([H])C([H])([H])C2([H])N([H])C(=O)C1([H])N(C(=O)C([H])(N([H])C(=O)C([H])(N([H])C([H])([H])[H])C([H])([H])[H])C(C([H])([H])[H])(C([H])([H])[H])C([H])([H])[H])C([H])([H])c2c([H])c(Oc3c([H])c([H])c(C4([H])C(=O)C([H])(N([H])C(=O)N5C([H])([H])C([H])([H])C([H])([H])C([H])(n6nc(-c7c([H])c([H])c(Oc8c([H])c([H])c(F)c([H])c8F)c([H])c7[H])c(C(=O)N([H])[H])c6N([H])[H])C5([H])[H])C([H])([H])C4([H])[H])c([H])c3[H])c([H])c([H])c2C1([H])[H]

>  <smiles>  (49) 
[H]c1c([H])c([H])c2c(c1[H])C([H])([H])C([H])([H])C([H])([H])C2([H])N([H])C(=O)C1([H])N(C(=O)C([H])(N([H])C(=O)C([H])(N([H])C([H])([H])[H])C([H])([H])[H])C(C([H])([H])[H])(C([H])([H])[H])C([H])([H])[H])C([H])([H])c2c([H])c(Oc3c([H])c([H])c(C4([H])C(=O)C([H])(N([H])C(=O)N5C([H])([H])C([H])([H])C([H])([H])C([H])(n6nc(-c7c([H])c([H])c(Oc8c([H])c([H])c(F)c([H])c8F)c([H])c7[H])c(C(=O)N([H])[H])c6N([H])[H])C5([H])[H])C([H])([H])C4([H])[H])c([H])c3[H])c([H])c([H])c2C1([H])[H]

$$$$
49:0:0
     RDKit          3D

 89 97  0  0  1  0  0  0  0  0999 V2000
  -28.8890  -22.2080   21.3800 C   0  0  0  0  0  3  0  0  0  0  0  0
  -28.6270  -22.1420   19.0980 C   0  0  0  0  0  3  0  0  0  0  0  0
  -28.9160  -21.2920   20.2480 C   0  0  0  0  0  0  0  0  0  0  0  0
  -28.6400  -23.6720   21.3830 C   0  0  0  0  0  0  0  0  0  0  0  0
  -28.3460  -24.5140   20.2300 C   0  0  0  0  0  0  0  0  0  0  0  0
  -28.3830  -23.6120   19.0810 C   0  0  0  0  0  0  0  0  0  0  0  0
  -28.6990  -24.3560   22.7350 C   0  0  0  0  0  1  0  0  0  0  0  0
  -28.1800  -24.1740   17.8650 F   0  0  0  0  0  0  0  0  0  0  0  0
  -28.3060  -26.0410   20.2200 O   0  0  0  0  0  0  0  0  0  0  0  0
  -24.6510  -31.8850   23.2210 C   0  0  0  0  0  0  0  0  0  0  0  0
  -27.2250  -27.0450   20.2190 C   0  0  0  0  0  0  0  0  0  0  0  0
  -23.4550  -30.4790   21.5900 C   0  0  0  0  0  3  0  0  0  0  0  0
  -24.9040  -28.8720   20.1750 C   0  0  0  0  0  0  0  0  0  0  0  0
  -26.0160  -30.7110   21.4320 C   0  0  0  0  0  2  0  0  0  0  0  0
  -26.0870  -29.3000   20.7890 C   0  0  0  0  0  0  0  0  0  0  0  0
  -27.2410  -28.4050   20.7890 C   0  0  0  0  0  3  0  0  0  0  0  0
  -26.0120  -26.7500   19.5610 C   0  0  0  0  0  3  0  0  0  0  0  0
  -24.8850  -27.6150   19.5430 C   0  0  0  0  0  3  0  0  0  0  0  0
  -23.6810  -29.7860   20.2170 C   0  0  0  0  0  2  0  0  0  0  0  0
  -24.7290  -31.0510   22.1350 N   0  0  0  0  0  0  0  0  0  0  0  0
  -23.5650  -32.1730   23.7460 O   0  0  0  0  0  0  0  0  0  0  0  0
  -22.7700  -29.4850   22.5620 C   0  0  0  0  0  0  0  0  0  0  0  0
  -21.4400  -29.3170   22.4430 N   0  0  0  0  0  0  0  0  0  0  0  0
  -23.4400  -28.8640   23.3900 O   0  0  0  0  0  0  0  0  0  0  0  0
  -20.9520  -29.8700   21.7500 H   0  0  0  0  0  0  0  0  0  0  0  0
  -18.0610  -28.1100   22.9670 C   0  0  0  0  0  0  0  0  0  0  0  0
  -20.6220  -28.3810   23.2200 C   0  0  0  0  0  3  0  0  0  0  0  0
  -20.7230  -26.9480   22.6490 C   0  0  0  0  0  2  0  0  0  0  0  0
  -19.6170  -26.6210   21.6400 C   0  0  0  0  0  2  0  0  0  0  0  0
  -18.2380  -26.7620   22.2900 C   0  0  0  0  0  2  0  0  0  0  0  0
  -19.1800  -28.8780   23.3900 C   0  0  0  0  0  0  0  0  0  0  0  0
  -18.9580  -30.1380   23.9860 C   0  0  0  0  0  3  0  0  0  0  0  0
  -17.6510  -30.6330   24.1620 C   0  0  0  0  0  3  0  0  0  0  0  0
  -16.5490  -29.8640   23.7530 C   0  0  0  0  0  3  0  0  0  0  0  0
  -16.7540  -28.6050   23.1620 C   0  0  0  0  0  3  0  0  0  0  0  0
  -25.9250  -32.5310   23.8470 C   0  0  0  0  0  3  0  0  0  0  0  0
  -25.6030  -33.9270   24.1900 N   0  0  0  0  0  0  0  0  0  0  0  0
  -25.9150  -34.9930   23.4410 C   0  0  0  0  0  0  0  0  0  0  0  0
  -26.5690  -34.9050   22.3980 O   0  0  0  0  0  0  0  0  0  0  0  0
  -25.0190  -34.0680   25.0010 H   0  0  0  0  0  0  0  0  0  0  0  0
  -24.1650  -36.7800   23.1470 C   0  0  0  0  0  1  0  0  0  0  0  0
  -25.4290  -36.3760   23.9220 C   0  0  0  0  0  3  0  0  0  0  0  0
  -27.5740  -37.2780   24.7090 C   0  0  0  0  0  1  0  0  0  0  0  0
  -26.4490  -37.4390   23.7910 N   0  0  0  0  0  0  0  0  0  0  0  0
  -26.0390  -38.3550   23.9490 H   0  0  0  0  0  0  0  0  0  0  0  0
  -26.4430  -31.7640   25.1270 C   0  0  1  0  0  0  0  0  0  0  0  0
  -25.3510  -31.5230   26.1950 C   0  0  0  0  0  1  0  0  0  0  0  0
  -27.0350  -30.3880   24.7440 C   0  0  0  0  0  1  0  0  0  0  0  0
  -27.5900  -32.5650   25.7890 C   0  0  0  0  0  1  0  0  0  0  0  0
  -28.9210  -19.5570   20.3720 C   0  0  0  0  0  3  0  0  0  0  0  0
  -29.9690  -18.1720   19.9640 C   0  0  0  0  0  3  0  0  0  0  0  0
  -30.4800  -15.2880   19.9560 C   0  0  0  0  0  0  0  0  0  0  0  0
  -30.3930  -12.9000   18.9430 C   0  0  0  0  0  2  0  0  0  0  0  0
  -29.3760  -12.7640   17.7780 C   0  0  0  0  0  2  0  0  0  0  0  0
  -27.9570  -12.4800   18.3050 C   0  0  0  0  0  2  0  0  0  0  0  0
  -27.6060  -13.3720   19.5210 C   0  0  0  0  0  3  0  0  0  0  0  0
  -28.7410  -13.3820   20.5640 C   0  0  0  0  0  2  0  0  0  0  0  0
  -29.9170  -13.9760   19.8920 N   0  0  0  0  0  0  0  0  0  0  0  0
  -31.6420  -15.3260   19.5220 O   0  0  0  0  0  0  0  0  0  0  0  0
  -28.7740  -16.4410   21.3570 C   0  0  0  0  0  1  0  0  0  0  0  0
  -29.7480  -16.5500   20.2720 N   0  0  0  0  0  0  0  0  0  0  0  0
  -25.2790  -13.9030   20.4340 C   0  0  0  0  0  0  0  0  0  0  0  0
  -24.2500  -13.1110   20.8580 C   0  0  0  0  0  0  0  0  0  0  0  0
  -24.7190  -11.7650   20.7540 C   0  0  0  0  0  0  0  0  0  0  0  0
  -26.3110  -13.0410   20.1020 N   0  0  0  0  0  0  0  0  0  0  0  0
  -25.9870  -11.7470   20.3570 N   0  0  0  0  0  0  0  0  0  0  0  0
  -24.0100  -10.4940   20.9530 C   0  0  0  0  0  0  0  0  0  0  0  0
  -24.4770   -9.5220   21.8640 C   0  0  0  0  0  3  0  0  0  0  0  0
  -23.7650   -8.3180   22.0540 C   0  0  0  0  0  3  0  0  0  0  0  0
  -22.5720   -8.0780   21.3310 C   0  0  0  0  0  0  0  0  0  0  0  0
  -22.1250   -9.0390   20.4080 C   0  0  0  0  0  3  0  0  0  0  0  0
  -22.8370  -10.2350   20.2170 C   0  0  0  0  0  3  0  0  0  0  0  0
  -21.8290   -6.9270   21.4300 O   0  0  0  0  0  0  0  0  0  0  0  0
  -21.7770   -6.2020   22.5940 C   0  0  0  0  0  0  0  0  0  0  0  0
  -21.3400   -6.7740   23.8090 C   0  0  0  0  0  3  0  0  0  0  0  0
  -21.2360   -5.9750   24.9650 C   0  0  0  0  0  3  0  0  0  0  0  0
  -21.5590   -4.6060   24.9080 C   0  0  0  0  0  0  0  0  0  0  0  0
  -21.9910   -4.0340   23.6970 C   0  0  0  0  0  3  0  0  0  0  0  0
  -22.0960   -4.8300   22.5430 C   0  0  0  0  0  0  0  0  0  0  0  0
  -22.4910   -4.2700   21.3750 F   0  0  0  0  0  0  0  0  0  0  0  0
  -21.4530   -3.8370   26.0160 F   0  0  0  0  0  0  0  0  0  0  0  0
  -22.8740  -13.5730   21.2370 C   0  0  0  0  0  0  0  0  0  0  0  0
  -22.2110  -12.8550   22.1350 N   0  0  0  0  0  0  0  0  0  0  0  0
  -22.3980  -14.6080   20.7710 O   0  0  0  0  0  0  0  0  0  0  0  0
  -22.6110  -12.0170   22.5320 H   0  0  0  0  0  0  0  0  0  0  0  0
  -21.2910  -13.1450   22.4320 H   0  0  0  0  0  0  0  0  0  0  0  0
  -25.4080  -15.2780   20.2750 N   0  0  0  0  0  0  0  0  0  0  0  0
  -24.6350  -15.9120   20.4480 H   0  0  0  0  0  0  0  0  0  0  0  0
  -26.2110  -15.7360   19.8650 H   0  0  0  0  0  0  0  0  0  0  0  0
  1  4  1  0
  2  3  1  0
  3 50  1  0
  3  1  2  0
  4  7  1  0
  5  4  2  0
  6  2  2  0
  6  5  1  0
  8  6  1  0
  9  5  1  0
 10 21  2  0
 11  9  1  0
 11 16  1  0
 12 20  1  0
 12 22  1  0
 13 19  1  0
 13 15  1  0
 14 20  1  0
 15 16  2  0
 15 14  1  0
 17 11  2  0
 18 17  1  0
 18 13  2  0
 19 12  1  0
 20 10  1  0
 22 24  2  0
 23 22  1  0
 25 23  1  0
 26 35  2  0
 26 31  1  0
 27 23  1  0
 27 31  1  0
 28 27  1  0
 29 30  1  0
 29 28  1  0
 30 26  1  0
 31 32  2  0
 32 33  1  0
 34 33  2  0
 35 34  1  0
 36 10  1  0
 36 37  1  0
 36 46  1  0
 37 40  1  0
 38 42  1  0
 38 37  1  0
 39 38  2  0
 42 41  1  0
 44 42  1  0
 44 45  1  0
 44 43  1  0
 46 49  1  1
 46 47  1  0
 48 46  1  0
 51 61  1  0
 51 50  2  0
 52 61  1  0
 53 58  1  0
 54 55  1  0
 54 53  1  0
 56 55  1  0
 56 65  1  0
 56 57  1  0
 58 52  1  0
 58 57  1  0
 59 52  2  0
 61 60  1  0
 62 63  2  0
 63 82  1  0
 64 63  1  0
 64 67  1  0
 65 66  1  0
 65 62  1  0
 66 64  2  0
 67 68  1  0
 68 69  2  0
 70 73  1  0
 70 69  1  0
 71 70  2  0
 72 71  1  0
 72 67  2  0
 73 74  1  0
 74 75  1  0
 75 76  2  0
 77 76  1  0
 77 81  1  0
 78 77  2  0
 79 74  2  0
 79 78  1  0
 80 79  1  0
 82 83  1  0
 83 86  1  0
 83 85  1  0
 84 82  2  0
 87 62  1  0
 87 88  1  0
 89 87  1  0
M  ISO  4   5 101   9 101  52 100  61 100
M  END
>  <TORSDO>  (50) 
F 18

>  <SCORE>  (50) 
-15.064

>  <name>  (50) 
49

>  <ligand_id>  (50) 
49

>  <original_smiles>  (50) 
[H]c1c([H])c([H])c2c(c1[H])C([H])([H])C([H])([H])C([H])([H])C2([H])N([H])C(=O)C1([H])N(C(=O)C([H])(N([H])C(=O)C([H])(N([H])C([H])([H])[H])C([H])([H])[H])C(C([H])([H])[H])(C([H])([H])[H])C([H])([H])[H])C([H])([H])c2c([H])c(Oc3c(F)c([H])c(C([H])([H])C([H])([H])N(C(=O)N4C([H])([H])C([H])([H])C([H])([H])C([H])(n5nc(-c6c([H])c([H])c(Oc7c([H])c([H])c(F)c([H])c7F)c([H])c6[H])c(C(=O)N([H])[H])c5N([H])[H])C4([H])[H])C([H])([H])[H])c([H])c3C([H])([H])[H])c([H])c([H])c2C1([H])[H]

>  <smiles>  (50) 
[H]c1c([H])c([H])c2c(c1[H])C([H])([H])C([H])([H])C([H])([H])C2([H])N([H])C(=O)C1([H])N(C(=O)C([H])(N([H])C(=O)C([H])(N([H])C([H])([H])[H])C([H])([H])[H])C(C([H])([H])[H])(C([H])([H])[H])C([H])([H])[H])C([H])([H])c2c([H])c(Oc3c(F)c([H])c(C([H])([H])C([H])([H])N(C(=O)N4C([H])([H])C([H])([H])C([H])([H])C([H])(n5nc(-c6c([H])c([H])c(Oc7c([H])c([H])c(F)c([H])c7F)c([H])c6[H])c(C(=O)N([H])[H])c5N([H])[H])C4([H])[H])C([H])([H])[H])c([H])c3C([H])([H])[H])c([H])c([H])c2C1([H])[H]

$$$$
50:0:0
     RDKit          3D

100109  0  0  1  0  0  0  0  0999 V2000
  -28.5980  -24.4830   18.9780 C   0  0  0  0  0  3  0  0  0  0  0  0
  -27.0910  -23.1650   20.9390 C   0  0  0  0  0  3  0  0  0  0  0  0
  -28.2740  -23.1120   18.8090 C   0  0  0  0  0  0  0  0  0  0  0  0
  -28.1420  -25.2090   20.1030 C   0  0  0  0  0  0  0  0  0  0  0  0
  -27.4960  -22.4550   19.7930 C   0  0  0  0  0  0  0  0  0  0  0  0
  -27.4120  -24.5260   21.1020 C   0  0  0  0  0  0  0  0  0  0  0  0
  -26.9850  -25.1840   22.2060 F   0  0  0  0  0  0  0  0  0  0  0  0
  -26.0520  -20.8960   18.7990 C   0  0  0  0  0  1  0  0  0  0  0  0
  -27.1510  -21.1310   19.6740 O   0  0  0  0  0  0  0  0  0  0  0  0
  -28.3260  -26.5810   20.1750 O   0  0  0  0  0  0  0  0  0  0  0  0
  -24.5150  -31.7880   23.2780 C   0  0  0  0  0  0  0  0  0  0  0  0
  -27.1850  -27.3610   20.1670 C   0  0  0  0  0  0  0  0  0  0  0  0
  -23.3320  -30.4110   21.5990 C   0  0  0  0  0  3  0  0  0  0  0  0
  -24.8040  -28.8930   20.1700 C   0  0  0  0  0  0  0  0  0  0  0  0
  -25.8660  -30.7530   21.4560 C   0  0  0  0  0  2  0  0  0  0  0  0
  -25.9570  -29.3910   20.7910 C   0  0  0  0  0  0  0  0  0  0  0  0
  -27.1510  -28.6310   20.7960 C   0  0  0  0  0  3  0  0  0  0  0  0
  -26.0130  -26.8910   19.5320 C   0  0  0  0  0  3  0  0  0  0  0  0
  -24.8280  -27.6420   19.5360 C   0  0  0  0  0  3  0  0  0  0  0  0
  -23.5630  -29.7560   20.2130 C   0  0  0  0  0  2  0  0  0  0  0  0
  -24.5880  -30.9980   22.1690 N   0  0  0  0  0  0  0  0  0  0  0  0
  -23.4270  -32.0550   23.8020 O   0  0  0  0  0  0  0  0  0  0  0  0
  -22.6630  -29.3750   22.5300 C   0  0  0  0  0  0  0  0  0  0  0  0
  -21.3340  -29.2210   22.4010 N   0  0  0  0  0  0  0  0  0  0  0  0
  -23.3340  -28.7190   23.3310 O   0  0  0  0  0  0  0  0  0  0  0  0
  -20.8580  -29.8000   21.7240 H   0  0  0  0  0  0  0  0  0  0  0  0
  -17.9310  -28.1100   22.8960 C   0  0  0  0  0  0  0  0  0  0  0  0
  -20.4980  -28.2800   23.1470 C   0  0  0  0  0  3  0  0  0  0  0  0
  -20.5510  -26.8690   22.5190 C   0  0  0  0  0  2  0  0  0  0  0  0
  -19.4280  -26.6140   21.5090 C   0  0  0  0  0  2  0  0  0  0  0  0
  -18.0590  -26.7790   22.1730 C   0  0  0  0  0  2  0  0  0  0  0  0
  -19.0780  -28.8210   23.3370 C   0  0  0  0  0  0  0  0  0  0  0  0
  -18.9020  -30.0700   23.9730 C   0  0  0  0  0  3  0  0  0  0  0  0
  -17.6140  -30.6030   24.1720 C   0  0  0  0  0  3  0  0  0  0  0  0
  -16.4820  -29.8860   23.7450 C   0  0  0  0  0  3  0  0  0  0  0  0
  -16.6430  -28.6410   23.1120 C   0  0  0  0  0  3  0  0  0  0  0  0
  -25.7930  -32.4040   23.9280 C   0  0  0  0  0  3  0  0  0  0  0  0
  -26.2560  -31.6430   25.2290 C   0  0  1  0  0  0  0  0  0  0  0  0
  -25.1240  -31.4370   26.2630 C   0  0  0  0  0  1  0  0  0  0  0  0
  -26.8340  -30.2520   24.8760 C   0  0  0  0  0  1  0  0  0  0  0  0
  -27.3980  -32.4310   25.9120 C   0  0  0  0  0  1  0  0  0  0  0  0
  -25.4990  -33.8120   24.2280 N   0  0  0  0  0  0  0  0  0  0  0  0
  -25.8770  -34.8440   23.4610 C   0  0  0  0  0  0  0  0  0  0  0  0
  -26.5770  -34.7100   22.4540 O   0  0  0  0  0  0  0  0  0  0  0  0
  -24.8840  -33.9910   25.0090 H   0  0  0  0  0  0  0  0  0  0  0  0
  -24.1930  -36.6580   23.0160 C   0  0  0  0  0  1  0  0  0  0  0  0
  -25.4000  -36.2490   23.8780 C   0  0  0  0  0  3  0  0  0  0  0  0
  -27.5200  -37.1100   24.7680 C   0  0  0  0  0  1  0  0  0  0  0  0
  -26.4560  -37.2800   23.7810 N   0  0  0  0  0  0  0  0  0  0  0  0
  -26.0640  -38.2120   23.8910 H   0  0  0  0  0  0  0  0  0  0  0  0
  -28.7280  -22.3790   17.5500 C   0  0  0  0  0  2  0  0  0  0  0  0
  -29.6380  -21.1460   17.7840 C   0  0  0  0  0  2  0  0  0  0  0  0
  -30.7510  -21.3400   18.8360 C   0  0  0  0  0  2  0  0  0  0  0  0
  -31.5620  -20.0600   19.1560 C   0  0  0  0  0  2  0  0  0  0  0  0
  -29.8240  -18.3240   20.2630 C   0  0  0  0  0  2  0  0  0  0  0  0
  -31.8550  -17.8580   20.5710 C   0  0  0  0  0  2  0  0  0  0  0  0
  -30.7070  -17.1390   19.8390 C   0  0  0  0  0  3  0  0  0  0  0  0
  -31.1060  -19.1990   20.3660 C   0  0  1  0  0  0  0  0  0  0  0  0
  -30.9960  -14.6970   20.2210 C   0  0  0  0  0  0  0  0  0  0  0  0
  -30.6230  -12.5180   19.1750 C   0  0  0  0  0  2  0  0  0  0  0  0
  -29.6990  -12.7190   17.9600 C   0  0  0  0  0  2  0  0  0  0  0  0
  -28.2200  -12.6170   18.3690 C   0  0  0  0  0  2  0  0  0  0  0  0
  -27.8790  -13.4830   19.6090 C   0  0  0  0  0  3  0  0  0  0  0  0
  -28.9320  -13.3240   20.7350 C   0  0  0  0  0  2  0  0  0  0  0  0
  -30.2710  -13.5510   20.1610 N   0  0  0  0  0  0  0  0  0  0  0  0
  -32.1720  -14.7700   19.8550 O   0  0  0  0  0  0  0  0  0  0  0  0
  -30.2980  -15.8320   20.4040 N   0  0  0  0  0  0  0  0  0  0  0  0
  -29.3320  -15.7170   20.6820 H   0  0  0  0  0  0  0  0  0  0  0  0
  -25.4770  -14.1130   20.3100 C   0  0  0  0  0  0  0  0  0  0  0  0
  -24.4050  -13.3440   20.6930 C   0  0  0  0  0  0  0  0  0  0  0  0
  -24.8650  -11.9910   20.6900 C   0  0  0  0  0  0  0  0  0  0  0  0
  -26.5200  -13.2230   20.0930 N   0  0  0  0  0  0  0  0  0  0  0  0
  -26.1570  -11.9480   20.3910 N   0  0  0  0  0  0  0  0  0  0  0  0
  -24.1340  -10.7320   20.9090 C   0  0  0  0  0  0  0  0  0  0  0  0
  -24.5530   -9.7870   21.8710 C   0  0  0  0  0  3  0  0  0  0  0  0
  -23.8260   -8.5940   22.0670 C   0  0  0  0  0  3  0  0  0  0  0  0
  -22.6640   -8.3360   21.2980 C   0  0  0  0  0  0  0  0  0  0  0  0
  -22.2640   -9.2700   20.3220 C   0  0  0  0  0  3  0  0  0  0  0  0
  -22.9950  -10.4550   20.1260 C   0  0  0  0  0  3  0  0  0  0  0  0
  -21.9010   -7.1970   21.4080 O   0  0  0  0  0  0  0  0  0  0  0  0
  -21.8310   -6.4890   22.5810 C   0  0  0  0  0  0  0  0  0  0  0  0
  -21.3720   -7.0760   23.7800 C   0  0  0  0  0  3  0  0  0  0  0  0
  -21.2450   -6.2920   24.9440 C   0  0  0  0  0  3  0  0  0  0  0  0
  -21.5740   -4.9230   24.9120 C   0  0  0  0  0  0  0  0  0  0  0  0
  -22.0260   -4.3340   23.7190 C   0  0  0  0  0  3  0  0  0  0  0  0
  -22.1540   -5.1160   22.5550 C   0  0  0  0  0  0  0  0  0  0  0  0
  -22.5690   -4.5400   21.4020 F   0  0  0  0  0  0  0  0  0  0  0  0
  -21.4410   -4.1700   26.0300 F   0  0  0  0  0  0  0  0  0  0  0  0
  -23.0070  -13.8250   20.9520 C   0  0  0  0  0  0  0  0  0  0  0  0
  -22.2740  -13.1540   21.8370 N   0  0  0  0  0  0  0  0  0  0  0  0
  -22.5690  -14.8300   20.3970 O   0  0  0  0  0  0  0  0  0  0  0  0
  -22.6390  -12.3420   22.3120 H   0  0  0  0  0  0  0  0  0  0  0  0
  -21.3340  -13.4590   22.0390 H   0  0  0  0  0  0  0  0  0  0  0  0
  -25.6480  -15.4790   20.1050 N   0  0  0  0  0  0  0  0  0  0  0  0
  -24.8960  -16.1500   20.2100 H   0  0  0  0  0  0  0  0  0  0  0  0
  -26.5010  -15.8950   19.7540 H   0  0  0  0  0  0  0  0  0  0  0  0
  -31.1550  -20.0090   21.6130 N   0  0  0  0  0  4  0  0  0  0  0  0
  -30.4160  -20.6910   21.6340 H   0  0  0  0  0  0  0  0  0  0  0  0
  -32.0340  -20.4970   21.6910 H   0  0  0  0  0  0  0  0  0  0  0  0
  -31.0600  -19.4370   22.4330 H   0  0  0  0  0  0  0  0  0  0  0  0
  1  4  1  0
  2  6  1  0
  3  1  2  0
  3  5  1  0
  4 10  1  0
  4  6  2  0
  5  2  2  0
  6  7  1  0
  8  9  1  0
  9  5  1  0
 11 22  2  0
 12 10  1  0
 12 17  1  0
 13 21  1  0
 13 23  1  0
 14 20  1  0
 14 16  1  0
 15 21  1  0
 16 17  2  0
 16 15  1  0
 18 19  1  0
 18 12  2  0
 19 14  2  0
 20 13  1  0
 21 11  1  0
 23 25  2  0
 24 23  1  0
 26 24  1  0
 27 36  2  0
 27 32  1  0
 28 24  1  0
 28 32  1  0
 29 28  1  0
 30 31  1  0
 30 29  1  0
 31 27  1  0
 32 33  2  0
 33 34  1  0
 35 34  2  0
 36 35  1  0
 37 11  1  0
 37 42  1  0
 37 38  1  0
 38 41  1  1
 38 39  1  0
 40 38  1  0
 42 45  1  0
 43 47  1  0
 43 42  1  0
 44 43  2  0
 47 46  1  0
 49 47  1  0
 49 50  1  0
 49 48  1  0
 51 52  1  0
 51  3  1  0
 52 53  1  0
 53 54  1  0
 55 58  1  0
 57 55  1  0
 57 67  1  0
 57 56  1  0
 58 54  1  6
 58 56  1  0
 58 97  1  0
 59 67  1  0
 60 65  1  0
 61 62  1  0
 61 60  1  0
 63 62  1  0
 63 72  1  0
 63 64  1  0
 65 59  1  0
 65 64  1  0
 66 59  2  0
 67 68  1  0
 69 70  2  0
 70 89  1  0
 71 70  1  0
 71 74  1  0
 72 69  1  0
 72 73  1  0
 73 71  2  0
 74 75  1  0
 75 76  2  0
 77 80  1  0
 77 76  1  0
 78 77  2  0
 79 78  1  0
 79 74  2  0
 80 81  1  0
 81 82  1  0
 82 83  2  0
 84 83  1  0
 84 88  1  0
 85 84  2  0
 86 81  2  0
 86 85  1  0
 87 86  1  0
 89 90  1  0
 90 93  1  0
 90 92  1  0
 91 89  2  0
 94 95  1  0
 94 69  1  0
 96 94  1  0
 97 98  1  0
 97 99  1  0
 97100  1  0
M  ISO  4   4 101  10 101  59 100  67 100
M  END
>  <TORSDO>  (51) 
F 23

>  <SCORE>  (51) 
-12.834

>  <name>  (51) 
50

>  <ligand_id>  (51) 
50

>  <original_smiles>  (51) 
[H]c1c([H])c([H])c2c(c1[H])C([H])([H])C([H])([H])C([H])([H])C2([H])N([H])C(=O)C1([H])N(C(=O)C([H])(N([H])C(=O)C([H])(N([H])C([H])([H])[H])C([H])([H])[H])C(C([H])([H])[H])(C([H])([H])[H])C([H])([H])[H])C([H])([H])c2c([H])c(Oc3c([H])c(C([H])([H])C([H])([H])C([H])([H])C([H])([H])C4([N+]([H])([H])[H])C([H])([H])C([H])(N([H])C(=O)N5C([H])([H])C([H])([H])C([H])([H])C([H])(n6nc(-c7c([H])c([H])c(Oc8c([H])c([H])c(F)c([H])c8F)c([H])c7[H])c(C(=O)N([H])[H])c6N([H])[H])C5([H])[H])C4([H])[H])c(OC([H])([H])[H])c([H])c3F)c([H])c([H])c2C1([H])[H]

>  <smiles>  (51) 
[H]c1c([H])c([H])c2c(c1[H])C([H])([H])C([H])([H])C([H])([H])C2([H])N([H])C(=O)C1([H])N(C(=O)C([H])(N([H])C(=O)C([H])(N([H])C([H])([H])[H])C([H])([H])[H])C(C([H])([H])[H])(C([H])([H])[H])C([H])([H])[H])C([H])([H])c2c([H])c(Oc3c([H])c(C([H])([H])C([H])([H])C([H])([H])C([H])([H])C4([N+]([H])([H])[H])C([H])([H])C([H])(N([H])C(=O)N5C([H])([H])C([H])([H])C([H])([H])C([H])(n6nc(-c7c([H])c([H])c(Oc8c([H])c([H])c(F)c([H])c8F)c([H])c7[H])c(C(=O)N([H])[H])c6N([H])[H])C5([H])[H])C4([H])[H])c(OC([H])([H])[H])c([H])c3F)c([H])c([H])c2C1([H])[H]

$$$$
51:0:0
     RDKit          3D

 96104  0  0  1  0  0  0  0  0999 V2000
  -28.5910  -25.1790   16.7330 C   0  0  0  0  0  3  0  0  0  0  0  0
  -28.0900  -23.8880   16.9530 C   0  0  0  0  0  3  0  0  0  0  0  0
  -28.7570  -26.0490   17.8190 C   0  0  0  0  0  3  0  0  0  0  0  0
  -27.8670  -23.4040   18.2600 C   0  0  0  0  0  0  0  0  0  0  0  0
  -28.2590  -24.2080   19.3880 C   0  0  0  0  0  0  0  0  0  0  0  0
  -28.5160  -25.6130   19.1390 C   0  0  0  0  0  0  0  0  0  0  0  0
  -28.4360  -26.6360   20.0970 O   0  0  0  0  0  0  0  0  0  0  0  0
  -24.6100  -31.9200   23.2180 C   0  0  0  0  0  0  0  0  0  0  0  0
  -27.2970  -27.4530   20.1110 C   0  0  0  0  0  0  0  0  0  0  0  0
  -23.4260  -30.5180   21.5690 C   0  0  0  0  0  3  0  0  0  0  0  0
  -24.8990  -29.0050   20.1380 C   0  0  0  0  0  0  0  0  0  0  0  0
  -25.9580  -30.8840   21.3810 C   0  0  0  0  0  2  0  0  0  0  0  0
  -26.0640  -29.5130   20.7320 C   0  0  0  0  0  0  0  0  0  0  0  0
  -27.2650  -28.7460   20.7110 C   0  0  0  0  0  3  0  0  0  0  0  0
  -26.0940  -26.9790   19.5410 C   0  0  0  0  0  3  0  0  0  0  0  0
  -24.9120  -27.7380   19.5390 C   0  0  0  0  0  3  0  0  0  0  0  0
  -23.6530  -29.8620   20.1850 C   0  0  0  0  0  2  0  0  0  0  0  0
  -24.6850  -31.1220   22.1160 N   0  0  0  0  0  0  0  0  0  0  0  0
  -23.5230  -32.1810   23.7520 O   0  0  0  0  0  0  0  0  0  0  0  0
  -22.7790  -29.4830   22.5160 C   0  0  0  0  0  0  0  0  0  0  0  0
  -21.4570  -29.2700   22.3640 N   0  0  0  0  0  0  0  0  0  0  0  0
  -23.4600  -28.8770   23.3470 O   0  0  0  0  0  0  0  0  0  0  0  0
  -20.9670  -29.8130   21.6670 H   0  0  0  0  0  0  0  0  0  0  0  0
  -18.1130  -27.9630   22.7810 C   0  0  0  0  0  0  0  0  0  0  0  0
  -20.6500  -28.3140   23.1240 C   0  0  0  0  0  3  0  0  0  0  0  0
  -20.8190  -26.8770   22.5750 C   0  0  0  0  0  2  0  0  0  0  0  0
  -19.7590  -26.5030   21.5330 C   0  0  0  0  0  2  0  0  0  0  0  0
  -18.3540  -26.6120   22.1310 C   0  0  0  0  0  2  0  0  0  0  0  0
  -19.1900  -28.7680   23.2340 C   0  0  0  0  0  0  0  0  0  0  0  0
  -18.9110  -30.0300   23.8010 C   0  0  0  0  0  3  0  0  0  0  0  0
  -17.5850  -30.4900   23.9170 C   0  0  0  0  0  3  0  0  0  0  0  0
  -16.5200  -29.6850   23.4780 C   0  0  0  0  0  3  0  0  0  0  0  0
  -16.7860  -28.4230   22.9160 C   0  0  0  0  0  3  0  0  0  0  0  0
  -25.8840  -32.5630   23.8490 C   0  0  0  0  0  3  0  0  0  0  0  0
  -26.4020  -31.7900   25.1210 C   0  0  1  0  0  0  0  0  0  0  0  0
  -25.3080  -31.5530   26.1870 C   0  0  0  0  0  1  0  0  0  0  0  0
  -26.9920  -30.4150   24.7230 C   0  0  0  0  0  1  0  0  0  0  0  0
  -27.5450  -32.5910   25.7920 C   0  0  0  0  0  1  0  0  0  0  0  0
  -25.5610  -33.9560   24.1790 N   0  0  0  0  0  0  0  0  0  0  0  0
  -25.8880  -35.0120   23.4210 C   0  0  0  0  0  0  0  0  0  0  0  0
  -26.5690  -34.9150   22.3970 O   0  0  0  0  0  0  0  0  0  0  0  0
  -24.9550  -34.1050   24.9730 H   0  0  0  0  0  0  0  0  0  0  0  0
  -24.1530  -36.7910   23.0410 C   0  0  0  0  0  1  0  0  0  0  0  0
  -25.3840  -36.3960   23.8730 C   0  0  0  0  0  3  0  0  0  0  0  0
  -27.5020  -37.2910   24.7380 C   0  0  0  0  0  1  0  0  0  0  0  0
  -26.4120  -37.4560   23.7800 N   0  0  0  0  0  0  0  0  0  0  0  0
  -25.9970  -38.3710   23.9350 H   0  0  0  0  0  0  0  0  0  0  0  0
  -28.3400  -23.6610   20.8460 C   0  0  0  0  0  2  0  0  0  0  0  0
  -28.6900  -22.1570   21.2780 C   0  0  0  0  0  3  0  0  0  0  0  0
  -29.7520  -21.2210   20.5820 C   0  0  0  0  0  3  0  0  0  0  0  0
  -30.1500  -19.8710   21.3250 C   0  0  0  0  0  2  0  0  0  0  0  0
  -29.6970  -18.4460   20.7770 C   0  0  0  0  0  2  0  0  0  0  0  0
  -30.5280  -17.2180   21.3540 C   0  0  0  0  0  2  0  0  0  0  0  0
  -30.8730  -14.7700   20.5790 C   0  0  0  0  0  0  0  0  0  0  0  0
  -30.6760  -12.5770   19.4200 C   0  0  0  0  0  2  0  0  0  0  0  0
  -29.7720  -12.7450   18.1790 C   0  0  0  0  0  2  0  0  0  0  0  0
  -28.2860  -12.5860   18.5560 C   0  0  0  0  0  2  0  0  0  0  0  0
  -27.8960  -13.4260   19.8000 C   0  0  0  0  0  3  0  0  0  0  0  0
  -28.9070  -13.2250   20.9470 C   0  0  0  0  0  2  0  0  0  0  0  0
  -30.2370  -13.5680   20.4220 N   0  0  0  0  0  0  0  0  0  0  0  0
  -32.0430  -14.9300   20.2220 O   0  0  0  0  0  0  0  0  0  0  0  0
  -30.1050  -15.8200   21.0080 N   0  0  0  0  0  0  0  0  0  0  0  0
  -29.1480  -15.5770   21.2270 H   0  0  0  0  0  0  0  0  0  0  0  0
  -25.4760  -14.0390   20.4110 C   0  0  0  0  0  0  0  0  0  0  0  0
  -24.3980  -13.2730   20.7570 C   0  0  0  0  0  0  0  0  0  0  0  0
  -24.8620  -11.9210   20.7690 C   0  0  0  0  0  0  0  0  0  0  0  0
  -26.5280  -13.1540   20.2330 N   0  0  0  0  0  0  0  0  0  0  0  0
  -26.1620  -11.8770   20.5090 N   0  0  0  0  0  0  0  0  0  0  0  0
  -24.1300  -10.6620   20.9560 C   0  0  0  0  0  0  0  0  0  0  0  0
  -24.5320   -9.7130   21.9190 C   0  0  0  0  0  3  0  0  0  0  0  0
  -23.8030   -8.5170   22.0940 C   0  0  0  0  0  3  0  0  0  0  0  0
  -22.6550   -8.2640   21.3050 C   0  0  0  0  0  0  0  0  0  0  0  0
  -22.2740   -9.2020   20.3300 C   0  0  0  0  0  3  0  0  0  0  0  0
  -23.0040  -10.3890   20.1540 C   0  0  0  0  0  3  0  0  0  0  0  0
  -21.9010   -7.1190   21.3850 O   0  0  0  0  0  0  0  0  0  0  0  0
  -21.8110   -6.3970   22.5490 C   0  0  0  0  0  0  0  0  0  0  0  0
  -21.3390   -6.9730   23.7480 C   0  0  0  0  0  3  0  0  0  0  0  0
  -21.1970   -6.1770   24.9020 C   0  0  0  0  0  3  0  0  0  0  0  0
  -21.5150   -4.8070   24.8570 C   0  0  0  0  0  0  0  0  0  0  0  0
  -21.9790   -4.2300   23.6610 C   0  0  0  0  0  3  0  0  0  0  0  0
  -22.1240   -5.0230   22.5110 C   0  0  0  0  0  0  0  0  0  0  0  0
  -22.5510   -4.4590   21.3560 F   0  0  0  0  0  0  0  0  0  0  0  0
  -21.3710   -4.0400   25.9620 F   0  0  0  0  0  0  0  0  0  0  0  0
  -22.9920  -13.7530   20.9660 C   0  0  0  0  0  0  0  0  0  0  0  0
  -22.2370  -13.0760   21.8240 N   0  0  0  0  0  0  0  0  0  0  0  0
  -22.5710  -14.7640   20.4040 O   0  0  0  0  0  0  0  0  0  0  0  0
  -22.5950  -12.2630   22.3050 H   0  0  0  0  0  0  0  0  0  0  0  0
  -21.2890  -13.3760   22.0050 H   0  0  0  0  0  0  0  0  0  0  0  0
  -25.6490  -15.4060   20.2150 N   0  0  0  0  0  0  0  0  0  0  0  0
  -24.8700  -16.0540   20.2600 H   0  0  0  0  0  0  0  0  0  0  0  0
  -26.5030  -15.8370   19.8830 H   0  0  0  0  0  0  0  0  0  0  0  0
  -27.0710  -22.0880   18.3630 C   0  0  0  0  0  3  0  0  0  0  0  0
  -24.8280  -23.4180   18.4660 C   0  0  0  0  0  1  0  0  0  0  0  0
  -25.6110  -22.2430   17.8590 C   0  0  0  0  0  2  0  0  0  0  0  0
  -27.4180  -19.5370   18.2430 C   0  0  0  0  0  1  0  0  0  0  0  0
  -27.7270  -20.9070   17.6060 C   0  0  0  0  0  2  0  0  0  0  0  0
  1  2  2  0
  1  3  1  0
  2  4  1  0
  3  6  2  0
  4 92  1  0
  4  5  2  0
  5 48  1  0
  6  5  1  0
  6  7  1  0
  7  9  1  0
  8 19  2  0
  9 14  1  0
 10 18  1  0
 10 20  1  0
 11 17  1  0
 11 13  1  0
 12 18  1  0
 13 12  1  0
 14 13  2  0
 15  9  2  0
 16 15  1  0
 16 11  2  0
 17 10  1  0
 18  8  1  0
 20 22  2  0
 21 20  1  0
 23 21  1  0
 24 33  2  0
 24 29  1  0
 25 21  1  0
 25 29  1  0
 26 25  1  0
 27 28  1  0
 27 26  1  0
 28 24  1  0
 29 30  2  0
 30 31  1  0
 32 31  2  0
 33 32  1  0
 34  8  1  0
 34 39  1  0
 34 35  1  0
 35 38  1  1
 35 36  1  0
 37 35  1  0
 39 42  1  0
 40 44  1  0
 40 39  1  0
 41 40  2  0
 44 43  1  0
 46 44  1  0
 46 47  1  0
 46 45  1  0
 48 49  1  0
 50 49  2  0
 50 51  1  0
 52 51  1  0
 52 53  1  0
 54 62  1  0
 55 60  1  0
 56 57  1  0
 56 55  1  0
 58 57  1  0
 58 67  1  0
 58 59  1  0
 60 54  1  0
 60 59  1  0
 61 54  2  0
 62 63  1  0
 62 53  1  0
 64 65  2  0
 65 66  1  0
 65 84  1  0
 66 69  1  0
 67 64  1  0
 67 68  1  0
 68 66  2  0
 69 70  1  0
 70 71  2  0
 72 75  1  0
 72 71  1  0
 73 72  2  0
 74 73  1  0
 74 69  2  0
 75 76  1  0
 76 77  1  0
 77 78  2  0
 79 78  1  0
 79 83  1  0
 80 79  2  0
 81 76  2  0
 81 80  1  0
 82 81  1  0
 84 85  1  0
 85 88  1  0
 85 87  1  0
 86 84  2  0
 89 90  1  0
 89 64  1  0
 91 89  1  0
 94 92  1  0
 94 93  1  0
 96 95  1  0
 96 92  1  0
M  ISO  4   6 101   7 101  54 100  62 100
M  END
>  <TORSDO>  (52) 
F 25

>  <SCORE>  (52) 
-12.275

>  <name>  (52) 
51

>  <ligand_id>  (52) 
51

>  <original_smiles>  (52) 
[H]c1c([H])c([H])c2c(c1[H])C([H])([H])C([H])([H])C([H])([H])C2([H])N([H])C(=O)C1([H])N(C(=O)C([H])(N([H])C(=O)C([H])(N([H])C([H])([H])[H])C([H])([H])[H])C(C([H])([H])[H])(C([H])([H])[H])C([H])([H])[H])C([H])([H])c2c([H])c(Oc3c([H])c([H])c([H])c(C([H])(C([H])([H])C([H])([H])[H])C([H])([H])C([H])([H])[H])c3C([H])([H])C([H])([H])C([H])([H])C([H])([H])C([H])([H])C([H])([H])N([H])C(=O)N3C([H])([H])C([H])([H])C([H])([H])C([H])(n4nc(-c5c([H])c([H])c(Oc6c([H])c([H])c(F)c([H])c6F)c([H])c5[H])c(C(=O)N([H])[H])c4N([H])[H])C3([H])[H])c([H])c([H])c2C1([H])[H]

>  <smiles>  (52) 
[H]c1c([H])c([H])c2c(c1[H])C([H])([H])C([H])([H])C([H])([H])C2([H])N([H])C(=O)C1([H])N(C(=O)C([H])(N([H])C(=O)C([H])(N([H])C([H])([H])[H])C([H])([H])[H])C(C([H])([H])[H])(C([H])([H])[H])C([H])([H])[H])C([H])([H])c2c([H])c(Oc3c([H])c([H])c([H])c(C([H])(C([H])([H])C([H])([H])[H])C([H])([H])C([H])([H])[H])c3C([H])([H])C([H])([H])C([H])([H])C([H])([H])C([H])([H])C([H])([H])N([H])C(=O)N3C([H])([H])C([H])([H])C([H])([H])C([H])(n4nc(-c5c([H])c([H])c(Oc6c([H])c([H])c(F)c([H])c6F)c([H])c5[H])c(C(=O)N([H])[H])c4N([H])[H])C3([H])[H])c([H])c([H])c2C1([H])[H]

$$$$
52:0:0
     RDKit          3D

 96104  0  0  1  0  0  0  0  0999 V2000
  -27.4620  -25.0210   22.5550 C   0  0  0  0  0  3  0  0  0  0  0  0
  -27.9390  -26.8540   21.0870 C   0  0  0  0  0  3  0  0  0  0  0  0
  -27.4890  -24.6310   20.1270 C   0  0  0  0  0  0  0  0  0  0  0  0
  -28.0560  -26.2830   22.3650 C   0  0  0  0  0  0  0  0  0  0  0  0
  -27.0880  -24.2330   21.4440 C   0  0  0  0  0  0  0  0  0  0  0  0
  -27.5020  -26.1440   19.9450 C   0  0  0  0  0  0  0  0  0  0  0  0
  -29.1750  -28.4810   23.1420 C   0  0  0  0  0  1  0  0  0  0  0  0
  -29.8370  -26.3020   24.1830 C   0  0  0  0  0  1  0  0  0  0  0  0
  -28.6720  -27.0710   23.5300 C   0  0  0  0  0  3  0  0  0  0  0  0
  -27.8260  -23.3140   19.2550 C   0  0  0  0  0  0  0  0  0  0  0  0
  -27.4130  -23.1970   18.0960 O   0  0  0  0  0  0  0  0  0  0  0  0
  -28.7160  -22.0360   19.8720 C   0  0  0  0  0  3  0  0  0  0  0  0
  -28.7160  -20.4280   19.3330 C   0  0  0  0  0  3  0  0  0  0  0  0
  -29.7440  -19.1580   19.8090 C   0  0  0  0  0  2  0  0  0  0  0  0
  -29.3570  -17.5270   20.0510 C   0  0  0  0  0  2  0  0  0  0  0  0
  -30.3660  -16.2060   19.9520 C   0  0  0  0  0  0  0  0  0  0  0  0
  -30.5260  -13.8070   19.1620 C   0  0  0  0  0  2  0  0  0  0  0  0
  -29.5970  -13.6020   17.9360 C   0  0  0  0  0  2  0  0  0  0  0  0
  -28.1590  -13.2670   18.3740 C   0  0  0  0  0  2  0  0  0  0  0  0
  -27.6540  -14.2060   19.5020 C   0  0  0  0  0  3  0  0  0  0  0  0
  -28.7040  -14.3760   20.6210 C   0  0  0  0  0  2  0  0  0  0  0  0
  -29.9380  -14.8830   20.0090 N   0  0  0  0  0  0  0  0  0  0  0  0
  -31.5500  -16.3970   19.6450 O   0  0  0  0  0  0  0  0  0  0  0  0
  -25.2770  -14.5910   20.3870 C   0  0  0  0  0  0  0  0  0  0  0  0
  -24.2690  -13.7340   20.7190 C   0  0  0  0  0  0  0  0  0  0  0  0
  -24.7910  -12.4160   20.5360 C   0  0  0  0  0  0  0  0  0  0  0  0
  -26.3480  -13.7940   20.0170 N   0  0  0  0  0  0  0  0  0  0  0  0
  -26.0680  -12.4760   20.1720 N   0  0  0  0  0  0  0  0  0  0  0  0
  -24.1340  -11.1060   20.6270 C   0  0  0  0  0  0  0  0  0  0  0  0
  -24.5530  -10.1270   21.5570 C   0  0  0  0  0  3  0  0  0  0  0  0
  -23.8890   -8.8840   21.6310 C   0  0  0  0  0  3  0  0  0  0  0  0
  -22.7930   -8.6110   20.7810 C   0  0  0  0  0  0  0  0  0  0  0  0
  -22.3950   -9.5810   19.8420 C   0  0  0  0  0  3  0  0  0  0  0  0
  -23.0580  -10.8140   19.7640 C   0  0  0  0  0  3  0  0  0  0  0  0
  -22.1050   -7.4220   20.7650 O   0  0  0  0  0  0  0  0  0  0  0  0
  -21.8740   -6.7090   21.9120 C   0  0  0  0  0  0  0  0  0  0  0  0
  -21.1610   -7.2570   22.9980 C   0  0  0  0  0  3  0  0  0  0  0  0
  -20.8900   -6.4670   24.1340 C   0  0  0  0  0  3  0  0  0  0  0  0
  -21.3250   -5.1300   24.1810 C   0  0  0  0  0  0  0  0  0  0  0  0
  -22.0300   -4.5800   23.0970 C   0  0  0  0  0  3  0  0  0  0  0  0
  -22.3010   -5.3670   21.9630 C   0  0  0  0  0  0  0  0  0  0  0  0
  -22.9630   -4.8250   20.9120 F   0  0  0  0  0  0  0  0  0  0  0  0
  -21.0590   -4.3650   25.2670 F   0  0  0  0  0  0  0  0  0  0  0  0
  -22.8610  -14.1110   21.0880 C   0  0  0  0  0  0  0  0  0  0  0  0
  -22.1990  -13.3050   21.9080 N   0  0  0  0  0  0  0  0  0  0  0  0
  -22.3530  -15.1600   20.6800 O   0  0  0  0  0  0  0  0  0  0  0  0
  -22.6090  -12.4430   22.2410 H   0  0  0  0  0  0  0  0  0  0  0  0
  -21.2520  -13.5290   22.1800 H   0  0  0  0  0  0  0  0  0  0  0  0
  -25.3600  -15.9800   20.3480 N   0  0  0  0  0  0  0  0  0  0  0  0
  -26.1770  -16.5160   20.0840 H   0  0  0  0  0  0  0  0  0  0  0  0
  -24.5560  -16.5630   20.5560 H   0  0  0  0  0  0  0  0  0  0  0  0
  -27.1780  -27.1220   18.9050 O   0  0  0  0  0  0  0  0  0  0  0  0
  -24.2830  -32.5010   23.1020 C   0  0  0  0  0  0  0  0  0  0  0  0
  -26.1990  -28.1510   19.1650 C   0  0  0  0  0  0  0  0  0  0  0  0
  -22.7940  -31.3360   21.5170 C   0  0  0  0  0  3  0  0  0  0  0  0
  -23.9530  -29.9180   19.7100 C   0  0  0  0  0  0  0  0  0  0  0  0
  -25.3030  -31.5740   20.9860 C   0  0  0  0  0  2  0  0  0  0  0  0
  -25.2300  -30.2670   20.1720 C   0  0  0  0  0  0  0  0  0  0  0  0
  -26.3510  -29.4000   19.8900 C   0  0  0  0  0  3  0  0  0  0  0  0
  -24.8980  -27.9070   18.6770 C   0  0  0  0  0  3  0  0  0  0  0  0
  -23.7970  -28.7480   18.9490 C   0  0  0  0  0  3  0  0  0  0  0  0
  -22.7800  -30.8250   20.0520 C   0  0  0  0  0  2  0  0  0  0  0  0
  -24.1570  -31.8190   21.9230 N   0  0  0  0  0  0  0  0  0  0  0  0
  -23.3010  -32.7400   23.8220 O   0  0  0  0  0  0  0  0  0  0  0  0
  -22.2330  -30.2360   22.4540 C   0  0  0  0  0  0  0  0  0  0  0  0
  -20.9110  -29.9890   22.3900 N   0  0  0  0  0  0  0  0  0  0  0  0
  -22.9870  -29.6060   23.2010 O   0  0  0  0  0  0  0  0  0  0  0  0
  -20.3530  -30.5550   21.7660 H   0  0  0  0  0  0  0  0  0  0  0  0
  -17.6590  -28.4840   22.9360 C   0  0  0  0  0  0  0  0  0  0  0  0
  -20.1930  -28.9570   23.1460 C   0  0  0  0  0  3  0  0  0  0  0  0
  -20.3980  -27.5580   22.5170 C   0  0  0  0  0  2  0  0  0  0  0  0
  -19.2980  -27.1790   21.5190 C   0  0  0  0  0  2  0  0  0  0  0  0
  -17.9290  -27.1810   22.2040 C   0  0  0  0  0  2  0  0  0  0  0  0
  -18.7200  -29.3260   23.3640 C   0  0  0  0  0  0  0  0  0  0  0  0
  -18.4080  -30.5410   24.0110 C   0  0  0  0  0  3  0  0  0  0  0  0
  -17.0680  -30.9180   24.2340 C   0  0  0  0  0  3  0  0  0  0  0  0
  -16.0220  -30.0740   23.8190 C   0  0  0  0  0  3  0  0  0  0  0  0
  -16.3190  -28.8590   23.1750 C   0  0  0  0  0  3  0  0  0  0  0  0
  -25.6650  -33.0340   23.5900 C   0  0  0  0  0  3  0  0  0  0  0  0
  -26.3220  -32.1250   24.7010 C   0  0  1  0  0  0  0  0  0  0  0  0
  -25.3830  -31.8240   25.8930 C   0  0  0  0  0  1  0  0  0  0  0  0
  -26.7790  -30.7690   24.1120 C   0  0  0  0  0  1  0  0  0  0  0  0
  -27.5950  -32.8120   25.2500 C   0  0  0  0  0  1  0  0  0  0  0  0
  -25.4590  -34.3990   24.1030 N   0  0  0  0  0  0  0  0  0  0  0  0
  -25.8110  -35.5200   23.4560 C   0  0  0  0  0  0  0  0  0  0  0  0
  -26.4050  -35.5070   22.3750 O   0  0  0  0  0  0  0  0  0  0  0  0
  -24.9220  -34.4850   24.9510 H   0  0  0  0  0  0  0  0  0  0  0  0
  -24.2130  -37.4700   23.4190 C   0  0  0  0  0  1  0  0  0  0  0  0
  -25.4470  -36.8670   24.1120 C   0  0  0  0  0  3  0  0  0  0  0  0
  -27.6670  -37.4890   24.9630 C   0  0  0  0  0  1  0  0  0  0  0  0
  -26.5500  -37.8510   24.0910 N   0  0  0  0  0  0  0  0  0  0  0  0
  -26.2190  -38.7700   24.3640 H   0  0  0  0  0  0  0  0  0  0  0  0
  -26.0920  -23.0660   21.6590 C   0  0  0  0  0  2  0  0  0  0  0  0
  -25.2430  -23.0470   22.9510 C   0  0  0  0  0  2  0  0  0  0  0  0
  -23.5090  -24.4000   24.3020 C   0  0  0  0  0  1  0  0  0  0  0  0
  -24.1320  -24.1180   22.9220 C   0  0  0  0  0  2  0  0  0  0  0  0
  2  4  2  0
  3  5  1  0
  4  1  1  0
  4  9  1  0
  5 93  1  0
  5  1  2  0
  6  3  2  0
  6  2  1  0
  7  9  1  0
  9  8  1  0
 10 12  1  0
 10  3  1  0
 11 10  2  0
 13 14  1  0
 13 12  2  0
 14 15  1  0
 16 22  1  0
 16 15  1  0
 17 22  1  0
 18 19  1  0
 18 17  1  0
 20 19  1  0
 20 27  1  0
 20 21  1  0
 22 21  1  0
 23 16  2  0
 24 25  2  0
 25 44  1  0
 26 29  1  0
 26 25  1  0
 27 28  1  0
 27 24  1  0
 28 26  2  0
 29 30  1  0
 30 31  2  0
 32 31  1  0
 33 32  2  0
 34 33  1  0
 34 29  2  0
 35 32  1  0
 35 36  1  0
 36 41  2  0
 36 37  1  0
 37 38  2  0
 38 39  1  0
 39 43  1  0
 40 39  2  0
 41 40  1  0
 42 41  1  0
 44 45  1  0
 45 48  1  0
 45 47  1  0
 46 44  2  0
 49 24  1  0
 49 51  1  0
 50 49  1  0
 52 54  1  0
 52  6  1  0
 53 64  2  0
 54 59  1  0
 55 63  1  0
 55 65  1  0
 56 62  1  0
 56 58  1  0
 57 63  1  0
 58 57  1  0
 59 58  2  0
 60 61  1  0
 60 54  2  0
 61 56  2  0
 62 55  1  0
 63 53  1  0
 65 67  2  0
 66 65  1  0
 68 66  1  0
 69 78  2  0
 69 74  1  0
 70 66  1  0
 70 74  1  0
 71 70  1  0
 72 73  1  0
 72 71  1  0
 73 69  1  0
 74 75  2  0
 75 76  1  0
 77 76  2  0
 78 77  1  0
 79 53  1  0
 79 84  1  0
 79 80  1  0
 80 83  1  1
 80 81  1  0
 82 80  1  0
 84 87  1  0
 85 84  1  0
 85 89  1  0
 86 85  2  0
 89 88  1  0
 91 89  1  0
 91 92  1  0
 91 90  1  0
 93 94  1  0
 96 94  1  0
 96 95  1  0
M  ISO  4   6 101  15 100  16 100  52 101
M  END
>  <TORSDO>  (53) 
F 25

>  <SCORE>  (53) 
-5.864

>  <name>  (53) 
52

>  <ligand_id>  (53) 
52

>  <original_smiles>  (53) 
[H]c1c([H])c([H])c2c(c1[H])C([H])([H])C([H])([H])C([H])([H])C2([H])N([H])C(=O)C1([H])N(C(=O)C([H])(N([H])C(=O)C([H])(N([H])C([H])([H])[H])C([H])([H])[H])C(C([H])([H])[H])(C([H])([H])[H])C([H])([H])[H])C([H])([H])c2c([H])c(Oc3c([H])c(C([H])(C([H])([H])[H])C([H])([H])[H])c([H])c(C([H])([H])C([H])([H])C([H])([H])C([H])([H])[H])c3C(=O)C([H])([H])C([H])([H])C([H])([H])C([H])([H])C(=O)N3C([H])([H])C([H])([H])C([H])([H])C([H])(n4nc(-c5c([H])c([H])c(Oc6c([H])c([H])c(F)c([H])c6F)c([H])c5[H])c(C(=O)N([H])[H])c4N([H])[H])C3([H])[H])c([H])c([H])c2C1([H])[H]

>  <smiles>  (53) 
[H]c1c([H])c([H])c2c(c1[H])C([H])([H])C([H])([H])C([H])([H])C2([H])N([H])C(=O)C1([H])N(C(=O)C([H])(N([H])C(=O)C([H])(N([H])C([H])([H])[H])C([H])([H])[H])C(C([H])([H])[H])(C([H])([H])[H])C([H])([H])[H])C([H])([H])c2c([H])c(Oc3c([H])c(C([H])(C([H])([H])[H])C([H])([H])[H])c([H])c(C([H])([H])C([H])([H])C([H])([H])C([H])([H])[H])c3C(=O)C([H])([H])C([H])([H])C([H])([H])C([H])([H])C(=O)N3C([H])([H])C([H])([H])C([H])([H])C([H])(n4nc(-c5c([H])c([H])c(Oc6c([H])c([H])c(F)c([H])c6F)c([H])c5[H])c(C(=O)N([H])[H])c4N([H])[H])C3([H])[H])c([H])c([H])c2C1([H])[H]

$$$$
53:0:0
     RDKit          3D

 96106  0  0  1  0  0  0  0  0999 V2000
  -25.4920  -19.4650   17.8660 C   0  0  0  0  0  2  0  0  0  0  0  0
  -24.6340  -20.5110   18.5990 C   0  0  0  0  0  2  0  0  0  0  0  0
  -27.7850  -20.4490   19.0190 C   0  0  0  0  0  2  0  0  0  0  0  0
  -26.3180  -22.6170   18.4100 C   0  0  0  0  0  2  0  0  0  0  0  0
  -26.7160  -18.9200   18.6160 C   0  0  0  0  0  3  0  0  0  0  0  0
  -25.3490  -21.7210   19.2810 C   0  0  0  0  0  3  0  0  0  0  0  0
  -27.8660  -22.2710   18.4260 C   0  0  2  0  0  0  0  0  0  0  0  0
  -28.3900  -22.1060   16.9910 C   0  0  0  0  0  1  0  0  0  0  0  0
  -26.7840  -16.5000   20.7580 C   0  0  0  0  0  2  0  0  0  0  0  0
  -27.6920  -16.3570   17.6870 C   0  0  0  0  0  3  0  0  0  0  0  0
  -29.7290  -15.1310   19.9980 C   0  0  0  0  0  3  0  0  0  0  0  0
  -26.5440  -17.0850   18.9570 C   0  0  0  0  0  3  0  0  0  0  0  0
  -28.3770  -15.5520   21.2950 C   0  0  2  0  0  0  0  0  0  0  0  0
  -29.2830  -15.4830   18.1490 C   0  0  0  0  0  0  0  0  0  0  0  0
  -28.5810  -15.2200   22.7600 C   0  0  0  0  0  1  0  0  0  0  0  0
  -30.3040  -15.3440   17.0410 C   0  0  0  0  0  1  0  0  0  0  0  0
  -31.2560  -14.6000   20.3330 C   0  0  0  0  0  0  0  0  0  0  0  0
  -31.8420  -12.1920   20.6860 C   0  0  0  0  0  2  0  0  0  0  0  0
  -30.9180  -11.3670   19.7150 C   0  0  0  0  0  2  0  0  0  0  0  0
  -29.3760  -11.3850   20.0880 C   0  0  0  0  0  2  0  0  0  0  0  0
  -29.0500  -12.7740   20.5820 C   0  0  0  0  0  3  0  0  0  0  0  0
  -29.9700  -13.2230   21.7330 C   0  0  0  0  0  2  0  0  0  0  0  0
  -31.2140  -13.4780   21.0710 N   0  0  0  0  0  0  0  0  0  0  0  0
  -32.3610  -14.8840   19.7920 O   0  0  0  0  0  0  0  0  0  0  0  0
  -27.3640  -14.9820   20.5470 C   0  0  2  0  0  0  0  0  0  0  0  0
  -25.9380  -14.3410   20.5910 C   0  0  0  0  0  0  0  0  0  0  0  0
  -25.8220  -12.8500   20.8300 C   0  0  0  0  0  0  0  0  0  0  0  0
  -27.7780  -13.4930   20.5490 N   0  0  0  0  0  0  0  0  0  0  0  0
  -26.9990  -12.4340   20.8280 N   0  0  0  0  0  2  0  0  0  0  0  0
  -24.7990  -11.6570   20.9890 C   0  0  0  0  0  0  0  0  0  0  0  0
  -25.1920  -10.3100   21.3130 C   0  0  0  0  0  3  0  0  0  0  0  0
  -24.2750   -9.2160   21.4340 C   0  0  0  0  0  3  0  0  0  0  0  0
  -22.8880   -9.4030   21.2150 C   0  0  0  0  0  0  0  0  0  0  0  0
  -22.4880  -10.7000   20.8320 C   0  0  0  0  0  3  0  0  0  0  0  0
  -23.4080  -11.7830   20.7180 C   0  0  0  0  0  3  0  0  0  0  0  0
  -21.9200   -8.4060   21.2840 O   0  0  0  0  0  0  0  0  0  0  0  0
  -22.1820   -7.1010   21.6610 C   0  0  0  0  0  0  0  0  0  0  0  0
  -22.9230   -6.7900   22.8240 C   0  0  0  0  0  3  0  0  0  0  0  0
  -23.1160   -5.4490   23.2120 C   0  0  0  0  0  3  0  0  0  0  0  0
  -22.5680   -4.4000   22.4480 C   0  0  0  0  0  0  0  0  0  0  0  0
  -21.8110   -4.6980   21.3030 C   0  0  0  0  0  3  0  0  0  0  0  0
  -21.6100   -6.0410   20.9180 C   0  0  0  0  0  0  0  0  0  0  0  0
  -20.8490   -6.3030   19.8290 F   0  0  0  0  0  0  0  0  0  0  0  0
  -22.7640   -3.1110   22.8160 F   0  0  0  0  0  0  0  0  0  0  0  0
  -24.5220  -14.8890   20.3730 C   0  0  0  0  0  0  0  0  0  0  0  0
  -23.5590  -14.6530   21.2870 N   0  0  0  0  0  0  0  0  0  0  0  0
  -24.1970  -15.4450   19.3370 O   0  0  0  0  0  0  0  0  0  0  0  0
  -23.7610  -14.1650   22.1450 H   0  0  0  0  0  0  0  0  0  0  0  0
  -22.6230  -14.9920   21.1130 H   0  0  0  0  0  0  0  0  0  0  0  0
  -28.8790  -17.1220   20.7330 N   0  0  0  0  0  0  0  0  0  0  0  0
  -28.3280  -17.8840   20.3710 H   0  0  0  0  0  0  0  0  0  0  0  0
  -29.6950  -16.9480   20.1590 H   0  0  0  0  0  0  0  0  0  0  0  0
  -24.2920  -22.5100   19.7870 O   0  0  0  0  0  0  0  0  0  0  0  0
  -23.9240  -22.0430   20.5370 H   0  0  0  0  0  0  0  0  0  0  0  0
  -28.7410  -23.9340   18.9070 C   0  0  0  0  0  2  0  0  0  0  0  0
  -28.8870  -25.6700   18.6420 O   0  0  0  0  0  0  0  0  0  0  0  0
  -25.0860  -29.8440   23.6830 C   0  0  0  0  0  0  0  0  0  0  0  0
  -28.0350  -26.8390   19.0400 C   0  0  0  0  0  0  0  0  0  0  0  0
  -24.1120  -29.1150   21.5590 C   0  0  0  0  0  3  0  0  0  0  0  0
  -25.7240  -28.5250   19.6500 C   0  0  0  0  0  0  0  0  0  0  0  0
  -26.6300  -29.6820   21.6440 C   0  0  0  0  0  2  0  0  0  0  0  0
  -26.8620  -28.6980   20.4460 C   0  0  0  0  0  0  0  0  0  0  0  0
  -28.0510  -27.8900   20.1100 C   0  0  0  0  0  3  0  0  0  0  0  0
  -26.9300  -26.9550   18.2040 C   0  0  0  0  0  3  0  0  0  0  0  0
  -25.7990  -27.7190   18.5100 C   0  0  0  0  0  3  0  0  0  0  0  0
  -24.4090  -29.1790   20.0420 C   0  0  0  0  0  2  0  0  0  0  0  0
  -25.2980  -29.5610   22.3560 N   0  0  0  0  0  0  0  0  0  0  0  0
  -23.9690  -29.7120   24.2090 O   0  0  0  0  0  0  0  0  0  0  0  0
  -23.6290  -27.6920   21.9530 C   0  0  0  0  0  0  0  0  0  0  0  0
  -22.3700  -27.3470   21.6240 N   0  0  0  0  0  0  0  0  0  0  0  0
  -24.3890  -26.9160   22.5380 O   0  0  0  0  0  0  0  0  0  0  0  0
  -21.7980  -28.0390   21.1580 H   0  0  0  0  0  0  0  0  0  0  0  0
  -19.3450  -25.3980   21.1550 C   0  0  0  0  0  0  0  0  0  0  0  0
  -21.7440  -26.0430   21.8740 C   0  0  0  0  0  3  0  0  0  0  0  0
  -22.2230  -24.9920   20.8450 C   0  0  0  0  0  2  0  0  0  0  0  0
  -21.2980  -24.8740   19.6300 C   0  0  0  0  0  2  0  0  0  0  0  0
  -19.8830  -24.4810   20.0690 C   0  0  0  0  0  2  0  0  0  0  0  0
  -20.2180  -26.1420   21.9920 C   0  0  0  0  0  0  0  0  0  0  0  0
  -19.6650  -27.0000   22.9680 C   0  0  0  0  0  3  0  0  0  0  0  0
  -18.2710  -27.1200   23.1160 C   0  0  0  0  0  3  0  0  0  0  0  0
  -17.4110  -26.3710   22.2920 C   0  0  0  0  0  3  0  0  0  0  0  0
  -17.9470  -25.5100   21.3190 C   0  0  0  0  0  3  0  0  0  0  0  0
  -26.2300  -30.3650   24.6020 C   0  0  0  0  0  3  0  0  0  0  0  0
  -26.2450  -29.6760   26.0230 C   0  0  1  0  0  0  0  0  0  0  0  0
  -24.8810  -29.7140   26.7520 C   0  0  0  0  0  1  0  0  0  0  0  0
  -26.6740  -28.1970   25.9230 C   0  0  0  0  0  1  0  0  0  0  0  0
  -27.2980  -30.3670   26.9230 C   0  0  0  0  0  1  0  0  0  0  0  0
  -26.0560  -31.8230   24.7570 N   0  0  0  0  0  0  0  0  0  0  0  0
  -26.9350  -32.7530   24.3600 C   0  0  0  0  0  0  0  0  0  0  0  0
  -28.0270  -32.4660   23.8640 O   0  0  0  0  0  0  0  0  0  0  0  0
  -25.1590  -32.1320   25.1010 H   0  0  0  0  0  0  0  0  0  0  0  0
  -26.3300  -34.8900   23.1680 C   0  0  0  0  0  1  0  0  0  0  0  0
  -26.5460  -34.2370   24.5440 C   0  0  0  0  0  3  0  0  0  0  0  0
  -27.5930  -34.6530   26.7270 C   0  0  0  0  0  1  0  0  0  0  0  0
  -27.5420  -35.0170   25.3140 N   0  0  0  0  0  0  0  0  0  0  0  0
  -27.3500  -36.0140   25.2500 H   0  0  0  0  0  0  0  0  0  0  0  0
  1  2  1  0
  2  6  1  0
  4  7  1  0
  4  6  1  0
  5  1  1  0
  5 12  1  0
  5  3  1  0
  6 53  1  0
  7  8  1  6
  7 55  1  0
  7  3  1  0
 10 14  2  0
 11 14  1  0
 11 17  1  0
 11 13  1  0
 12 10  1  0
 12  9  1  0
 13 15  1  1
 16 14  1  0
 17 23  1  0
 18 23  1  0
 19 20  1  0
 19 18  1  0
 21 20  1  0
 21 22  1  0
 23 22  1  0
 24 17  2  0
 25 28  1  0
 25 26  1  0
 25  9  1  1
 25 13  1  0
 26 27  2  0
 27 30  1  0
 28 21  1  0
 28 29  1  0
 29 27  1  0
 30 31  1  0
 31 32  2  0
 33 36  1  0
 33 32  1  0
 34 33  2  0
 35 34  1  0
 35 30  2  0
 36 37  1  0
 37 38  1  0
 38 39  2  0
 40 44  1  0
 40 39  1  0
 41 40  2  0
 42 41  1  0
 42 37  2  0
 43 42  1  0
 45 26  1  0
 45 46  1  0
 46 48  1  0
 47 45  2  0
 49 46  1  0
 50 13  1  0
 51 50  1  0
 52 50  1  0
 53 54  1  0
 56 55  1  0
 56 58  1  0
 57 68  2  0
 58 63  1  0
 59 69  1  0
 59 67  1  0
 60 66  1  0
 60 62  1  0
 61 67  1  0
 62 61  1  0
 63 62  2  0
 64 65  1  0
 64 58  2  0
 65 60  2  0
 66 59  1  0
 67 57  1  0
 69 71  2  0
 70 69  1  0
 72 70  1  0
 73 82  2  0
 73 78  1  0
 74 70  1  0
 74 78  1  0
 75 74  1  0
 76 77  1  0
 76 75  1  0
 77 73  1  0
 78 79  2  0
 79 80  1  0
 81 80  2  0
 82 81  1  0
 83 57  1  0
 83 88  1  0
 83 84  1  0
 84 85  1  1
 84 87  1  0
 86 84  1  0
 88 91  1  0
 89 93  1  0
 89 88  1  0
 90 89  2  0
 93 92  1  0
 93 95  1  0
 95 94  1  0
 96 95  1  0
M  ISO  4  11 100  17 100  55 101  56 101
M  END
>  <TORSDO>  (54) 
F 19

>  <SCORE>  (54) 
5.069

>  <name>  (54) 
53

>  <ligand_id>  (54) 
53

>  <original_smiles>  (54) 
[H]OC1([H])C([H])([H])C([H])([H])C([H])(c2c([H])c(C([H])([H])[H])c(C(=O)N3C([H])([H])C([H])([H])C([H])([H])C([H])(n4nc(-c5c([H])c([H])c(Oc6c([H])c([H])c(F)c([H])c6F)c([H])c5[H])c(C(=O)N([H])[H])c4N([H])[H])C3([H])[H])c(C([H])([H])[H])c2[H])C([H])([H])C(C([H])([H])[H])(C([H])([H])Oc2c([H])c([H])c3c(c2[H])C([H])([H])N(C(=O)C([H])(N([H])C(=O)C([H])(N([H])C([H])([H])[H])C([H])([H])[H])C(C([H])([H])[H])(C([H])([H])[H])C([H])([H])[H])C([H])(C(=O)N([H])C2([H])c4c([H])c([H])c([H])c([H])c4C([H])([H])C([H])([H])C2([H])[H])C3([H])[H])C1([H])[H]

>  <smiles>  (54) 
[H]OC1([H])C([H])([H])C([H])([H])C([H])(c2c([H])c(C([H])([H])[H])c(C(=O)N3C([H])([H])C([H])([H])C([H])([H])C([H])(n4nc(-c5c([H])c([H])c(Oc6c([H])c([H])c(F)c([H])c6F)c([H])c5[H])c(C(=O)N([H])[H])c4N([H])[H])C3([H])[H])c(C([H])([H])[H])c2[H])C([H])([H])C(C([H])([H])[H])(C([H])([H])Oc2c([H])c([H])c3c(c2[H])C([H])([H])N(C(=O)C([H])(N([H])C(=O)C([H])(N([H])C([H])([H])[H])C([H])([H])[H])C(C([H])([H])[H])(C([H])([H])[H])C([H])([H])[H])C([H])(C(=O)N([H])C2([H])c4c([H])c([H])c([H])c([H])c4C([H])([H])C([H])([H])C2([H])[H])C3([H])[H])C1([H])[H]

$$$$
54:0:0
     RDKit          3D

 92100  0  0  1  0  0  0  0  0999 V2000
  -30.4170  -18.9570   22.2330 C   0  0  0  0  0  3  0  0  0  0  0  0
  -29.4390  -19.0290   20.0830 C   0  0  0  0  0  3  0  0  0  0  0  0
  -30.2810  -16.7760   20.9470 C   0  0  0  0  0  0  0  0  0  0  0  0
  -29.8510  -19.7840   21.2160 C   0  0  0  0  0  0  0  0  0  0  0  0
  -30.6320  -17.5340   22.1150 C   0  0  0  0  0  0  0  0  0  0  0  0
  -29.6250  -17.5960   19.9460 C   0  0  0  0  0  0  0  0  0  0  0  0
  -31.3290  -16.8420   23.2750 C   0  0  0  0  0  1  0  0  0  0  0  0
  -30.9080  -15.3380   20.6600 C   0  0  0  0  0  0  0  0  0  0  0  0
  -30.7210  -13.1050   19.5290 C   0  0  0  0  0  2  0  0  0  0  0  0
  -29.8630  -13.1950   18.2490 C   0  0  0  0  0  2  0  0  0  0  0  0
  -28.3660  -13.0390   18.5780 C   0  0  0  0  0  2  0  0  0  0  0  0
  -27.9210  -13.8470   19.8280 C   0  0  0  0  0  3  0  0  0  0  0  0
  -28.9220  -13.7470   20.9950 C   0  0  0  0  0  2  0  0  0  0  0  0
  -30.2370  -14.1390   20.4850 N   0  0  0  0  0  0  0  0  0  0  0  0
  -32.1150  -15.3490   20.4120 O   0  0  0  0  0  0  0  0  0  0  0  0
  -25.4720  -14.3420   20.3780 C   0  0  0  0  0  0  0  0  0  0  0  0
  -24.4170  -13.5320   20.6940 C   0  0  0  0  0  0  0  0  0  0  0  0
  -24.9410  -12.2030   20.7500 C   0  0  0  0  0  0  0  0  0  0  0  0
  -26.5660  -13.5060   20.2440 N   0  0  0  0  0  0  0  0  0  0  0  0
  -26.2520  -12.2160   20.5380 N   0  0  0  0  0  0  0  0  0  0  0  0
  -24.2560  -10.9160   20.9320 C   0  0  0  0  0  0  0  0  0  0  0  0
  -24.5740  -10.0540   22.0030 C   0  0  0  0  0  3  0  0  0  0  0  0
  -23.8850   -8.8330   22.1700 C   0  0  0  0  0  3  0  0  0  0  0  0
  -22.8640   -8.4640   21.2630 C   0  0  0  0  0  0  0  0  0  0  0  0
  -22.5650   -9.3160   20.1830 C   0  0  0  0  0  3  0  0  0  0  0  0
  -23.2570  -10.5270   20.0170 C   0  0  0  0  0  3  0  0  0  0  0  0
  -22.1570   -7.2880   21.3330 O   0  0  0  0  0  0  0  0  0  0  0  0
  -21.8600   -6.6950   22.5330 C   0  0  0  0  0  0  0  0  0  0  0  0
  -21.1100   -7.3620   23.5280 C   0  0  0  0  0  3  0  0  0  0  0  0
  -20.7700   -6.6920   24.7200 C   0  0  0  0  0  3  0  0  0  0  0  0
  -21.1680   -5.3560   24.9150 C   0  0  0  0  0  0  0  0  0  0  0  0
  -21.9060   -4.6880   23.9240 C   0  0  0  0  0  3  0  0  0  0  0  0
  -22.2500   -5.3560   22.7350 C   0  0  0  0  0  0  0  0  0  0  0  0
  -22.9460   -4.7020   21.7740 F   0  0  0  0  0  0  0  0  0  0  0  0
  -20.8320   -4.7090   26.0570 F   0  0  0  0  0  0  0  0  0  0  0  0
  -22.9850  -13.9530   20.8410 C   0  0  0  0  0  0  0  0  0  0  0  0
  -22.2220  -13.2600   21.6810 N   0  0  0  0  0  0  0  0  0  0  0  0
  -22.5450  -14.9350   20.2440 O   0  0  0  0  0  0  0  0  0  0  0  0
  -22.5860  -12.4670   22.1900 H   0  0  0  0  0  0  0  0  0  0  0  0
  -21.2590  -13.5280   21.8220 H   0  0  0  0  0  0  0  0  0  0  0  0
  -25.5900  -15.7130   20.1700 N   0  0  0  0  0  0  0  0  0  0  0  0
  -24.7950  -16.3430   20.2130 H   0  0  0  0  0  0  0  0  0  0  0  0
  -26.4560  -16.1860   19.9490 H   0  0  0  0  0  0  0  0  0  0  0  0
  -29.9290  -21.4030   21.3310 C   0  0  0  0  0  3  0  0  0  0  0  0
  -28.8820  -22.5320   20.7760 C   0  0  0  0  0  3  0  0  0  0  0  0
  -29.2080  -24.1150   20.9710 C   0  0  0  0  0  0  0  0  0  0  0  0
  -30.2570  -24.4350   21.5380 O   0  0  0  0  0  0  0  0  0  0  0  0
  -28.2190  -25.2830   20.4480 C   0  0  0  0  0  2  0  0  0  0  0  0
  -28.5170  -26.7570   20.7160 O   0  0  0  0  0  0  0  0  0  0  0  0
  -24.7810  -32.3080   23.6350 C   0  0  0  0  0  0  0  0  0  0  0  0
  -27.4440  -27.6910   20.6220 C   0  0  0  0  0  0  0  0  0  0  0  0
  -23.6140  -30.9110   21.9710 C   0  0  0  0  0  3  0  0  0  0  0  0
  -25.0950  -29.3640   20.5640 C   0  0  0  0  0  0  0  0  0  0  0  0
  -26.1620  -31.2170   21.8400 C   0  0  0  0  0  2  0  0  0  0  0  0
  -26.2570  -29.8330   21.1890 C   0  0  0  0  0  0  0  0  0  0  0  0
  -27.4340  -29.0080   21.2090 C   0  0  0  0  0  3  0  0  0  0  0  0
  -26.2590  -27.3100   19.9510 C   0  0  0  0  0  3  0  0  0  0  0  0
  -25.1030  -28.1130   19.9330 C   0  0  0  0  0  3  0  0  0  0  0  0
  -23.8590  -30.2430   20.5930 C   0  0  0  0  0  2  0  0  0  0  0  0
  -24.8710  -31.4970   22.5390 N   0  0  0  0  0  0  0  0  0  0  0  0
  -23.6870  -32.5810   24.1500 O   0  0  0  0  0  0  0  0  0  0  0  0
  -22.9330  -29.8910   22.9180 C   0  0  0  0  0  0  0  0  0  0  0  0
  -21.6440  -29.5990   22.6770 N   0  0  0  0  0  0  0  0  0  0  0  0
  -23.5720  -29.3630   23.8330 O   0  0  0  0  0  0  0  0  0  0  0  0
  -21.1840  -30.0800   21.9160 H   0  0  0  0  0  0  0  0  0  0  0  0
  -18.3560  -28.0970   22.8770 C   0  0  0  0  0  0  0  0  0  0  0  0
  -20.8270  -28.6330   23.4160 C   0  0  0  0  0  3  0  0  0  0  0  0
  -21.1320  -27.1850   22.9660 C   0  0  0  0  0  2  0  0  0  0  0  0
  -20.1960  -26.6880   21.8590 C   0  0  0  0  0  2  0  0  0  0  0  0
  -18.7390  -26.7320   22.3290 C   0  0  0  0  0  2  0  0  0  0  0  0
  -19.3390  -28.9950   23.3740 C   0  0  0  0  0  0  0  0  0  0  0  0
  -18.9320  -30.2620   23.8430 C   0  0  0  0  0  3  0  0  0  0  0  0
  -17.5750  -30.6370   23.8230 C   0  0  0  0  0  3  0  0  0  0  0  0
  -16.6060  -29.7400   23.3430 C   0  0  0  0  0  3  0  0  0  0  0  0
  -16.9960  -28.4720   22.8760 C   0  0  0  0  0  3  0  0  0  0  0  0
  -26.0480  -32.9460   24.2820 C   0  0  0  0  0  3  0  0  0  0  0  0
  -25.7610  -34.3700   24.5140 N   0  0  0  0  0  0  0  0  0  0  0  0
  -26.1240  -35.3640   23.6910 C   0  0  0  0  0  0  0  0  0  0  0  0
  -26.8030  -35.1790   22.6780 O   0  0  0  0  0  0  0  0  0  0  0  0
  -25.1600  -34.5880   25.2940 H   0  0  0  0  0  0  0  0  0  0  0  0
  -24.4240  -37.1570   23.2130 C   0  0  0  0  0  1  0  0  0  0  0  0
  -25.6610  -36.7900   24.0490 C   0  0  0  0  0  3  0  0  0  0  0  0
  -27.8080  -37.7040   24.8150 C   0  0  0  0  0  1  0  0  0  0  0  0
  -26.7090  -37.8160   23.8590 N   0  0  0  0  0  0  0  0  0  0  0  0
  -26.3180  -38.7510   23.9340 H   0  0  0  0  0  0  0  0  0  0  0  0
  -26.4780  -32.2430   25.6290 C   0  0  1  0  0  0  0  0  0  0  0  0
  -25.3150  -32.0500   26.6310 C   0  0  0  0  0  1  0  0  0  0  0  0
  -27.0940  -30.8530   25.3500 C   0  0  0  0  0  1  0  0  0  0  0  0
  -27.5760  -33.0790   26.3290 C   0  0  0  0  0  1  0  0  0  0  0  0
  -29.1560  -16.9910   18.6270 C   0  0  0  0  0  2  0  0  0  0  0  0
  -27.2960  -16.8840   16.8710 C   0  0  0  0  0  1  0  0  0  0  0  0
  -27.8060  -17.5580   18.1480 C   0  0  0  0  0  2  0  0  0  0  0  0
  2  4  1  0
  3  5  2  0
  4 44  1  0
  4  1  2  0
  5  1  1  0
  5  7  1  0
  6  2  2  0
  6  3  1  0
  8  3  1  0
  9 14  1  0
 10 11  1  0
 10  9  1  0
 12 11  1  0
 12 19  1  0
 12 13  1  0
 14  8  1  0
 14 13  1  0
 15  8  2  0
 16 17  2  0
 17 18  1  0
 17 36  1  0
 18 21  1  0
 19 16  1  0
 19 20  1  0
 20 18  2  0
 21 22  1  0
 22 23  2  0
 24 27  1  0
 24 23  1  0
 25 24  2  0
 26 25  1  0
 26 21  2  0
 27 28  1  0
 28 33  2  0
 28 29  1  0
 29 30  2  0
 30 31  1  0
 31 35  1  0
 32 31  2  0
 33 32  1  0
 34 33  1  0
 36 37  1  0
 37 40  1  0
 37 39  1  0
 38 36  2  0
 41 42  1  0
 41 16  1  0
 43 41  1  0
 45 46  1  0
 45 44  2  0
 46 47  2  0
 48 49  1  0
 48 46  1  0
 50 61  2  0
 51 49  1  0
 51 56  1  0
 52 60  1  0
 52 62  1  0
 53 59  1  0
 53 55  1  0
 54 60  1  0
 55 56  2  0
 55 54  1  0
 57 51  2  0
 58 57  1  0
 58 53  2  0
 59 52  1  0
 60 50  1  0
 62 64  2  0
 63 62  1  0
 65 63  1  0
 66 71  1  0
 67 63  1  0
 68 67  1  0
 69 70  1  0
 69 68  1  0
 70 66  1  0
 71 67  1  0
 71 72  2  0
 73 72  1  0
 74 73  2  0
 75 66  2  0
 75 74  1  0
 76 50  1  0
 76 77  1  0
 76 86  1  0
 77 80  1  0
 78 82  1  0
 78 77  1  0
 79 78  2  0
 82 81  1  0
 84 85  1  0
 84 82  1  0
 84 83  1  0
 86 89  1  1
 86 87  1  0
 88 86  1  0
 90  6  1  0
 91 92  1  0
 92 90  1  0
M  ISO  4   3 100   8 100  48 101  49 101
M  END
>  <TORSDO>  (55) 
F 22

>  <SCORE>  (55) 
-6.413

>  <name>  (55) 
54

>  <ligand_id>  (55) 
54

>  <original_smiles>  (55) 
[H]c1c([H])c([H])c2c(c1[H])C([H])([H])C([H])([H])C([H])([H])C2([H])N([H])C(=O)C1([H])N(C(=O)C([H])(N([H])C(=O)C([H])(N([H])C([H])([H])[H])C([H])([H])[H])C(C([H])([H])[H])(C([H])([H])[H])C([H])([H])[H])C([H])([H])c2c([H])c(OC([H])([H])C(=O)C([H])([H])C([H])([H])c3c([H])c(C([H])([H])[H])c(C(=O)N4C([H])([H])C([H])([H])C([H])([H])C([H])(n5nc(-c6c([H])c([H])c(Oc7c([H])c([H])c(F)c([H])c7F)c([H])c6[H])c(C(=O)N([H])[H])c5N([H])[H])C4([H])[H])c(C([H])([H])C([H])([H])C([H])([H])[H])c3[H])c([H])c([H])c2C1([H])[H]

>  <smiles>  (55) 
[H]c1c([H])c([H])c2c(c1[H])C([H])([H])C([H])([H])C([H])([H])C2([H])N([H])C(=O)C1([H])N(C(=O)C([H])(N([H])C(=O)C([H])(N([H])C([H])([H])[H])C([H])([H])[H])C(C([H])([H])[H])(C([H])([H])[H])C([H])([H])[H])C([H])([H])c2c([H])c(OC([H])([H])C(=O)C([H])([H])C([H])([H])c3c([H])c(C([H])([H])[H])c(C(=O)N4C([H])([H])C([H])([H])C([H])([H])C([H])(n5nc(-c6c([H])c([H])c(Oc7c([H])c([H])c(F)c([H])c7F)c([H])c6[H])c(C(=O)N([H])[H])c5N([H])[H])C4([H])[H])c(C([H])([H])C([H])([H])C([H])([H])[H])c3[H])c([H])c([H])c2C1([H])[H]

$$$$
55:0:0
     RDKit          3D

 94102  0  0  1  0  0  0  0  0999 V2000
  -28.5650  -24.5860   19.4870 C   0  0  0  0  0  3  0  0  0  0  0  0
  -27.5140  -23.0010   21.0140 C   0  0  0  0  0  3  0  0  0  0  0  0
  -26.9010  -25.3540   21.0800 C   0  0  0  0  0  3  0  0  0  0  0  0
  -28.4440  -23.2570   19.9690 C   0  0  0  0  0  0  0  0  0  0  0  0
  -27.7940  -25.6300   20.0260 C   0  0  0  0  0  0  0  0  0  0  0  0
  -26.7270  -24.0370   21.5600 C   0  0  0  0  0  0  0  0  0  0  0  0
  -24.8610  -24.7130   22.9140 C   0  0  0  0  0  1  0  0  0  0  0  0
  -25.7950  -23.7050   22.5240 O   0  0  0  0  0  0  0  0  0  0  0  0
  -29.2930  -22.1970   19.3270 C   0  0  0  0  0  0  0  0  0  0  0  0
  -30.1310  -22.4680   18.4600 O   0  0  0  0  0  0  0  0  0  0  0  0
  -29.1320  -20.7180   19.7140 C   0  0  0  0  0  2  0  0  0  0  0  0
  -30.4490  -20.0660   20.1810 C   0  0  0  0  0  2  0  0  0  0  0  0
  -30.2500  -18.6030   20.6240 C   0  0  0  0  0  2  0  0  0  0  0  0
  -31.5210  -17.9890   21.2360 C   0  0  0  0  0  2  0  0  0  0  0  0
  -31.2750  -16.7650   22.1490 C   0  0  0  0  0  2  0  0  0  0  0  0
  -31.0310  -14.8460   20.5660 C   0  0  0  0  0  0  0  0  0  0  0  0
  -30.6950  -12.7770   19.2610 C   0  0  0  0  0  2  0  0  0  0  0  0
  -29.7350  -13.0190   18.0850 C   0  0  0  0  0  2  0  0  0  0  0  0
  -28.2740  -12.8280   18.5280 C   0  0  0  0  0  2  0  0  0  0  0  0
  -27.9350  -13.6130   19.8210 C   0  0  0  0  0  3  0  0  0  0  0  0
  -29.0030  -13.3730   20.9100 C   0  0  0  0  0  2  0  0  0  0  0  0
  -30.3260  -13.7040   20.3440 N   0  0  0  0  0  0  0  0  0  0  0  0
  -32.0650  -15.1300   19.9560 O   0  0  0  0  0  0  0  0  0  0  0  0
  -30.5550  -15.6480   21.5270 N   0  0  0  0  0  0  0  0  0  0  0  0
  -29.6970  -15.3570   21.9710 H   0  0  0  0  0  0  0  0  0  0  0  0
  -25.5260  -14.1370   20.5640 C   0  0  0  0  0  0  0  0  0  0  0  0
  -24.4820  -13.3280   20.9200 C   0  0  0  0  0  0  0  0  0  0  0  0
  -24.9780  -11.9900   20.8480 C   0  0  0  0  0  0  0  0  0  0  0  0
  -26.5930  -13.2920   20.3000 N   0  0  0  0  0  0  0  0  0  0  0  0
  -26.2650  -11.9920   20.5270 N   0  0  0  0  0  0  0  0  0  0  0  0
  -24.2850  -10.7050   21.0080 C   0  0  0  0  0  0  0  0  0  0  0  0
  -24.6830   -9.7670   21.9860 C   0  0  0  0  0  3  0  0  0  0  0  0
  -23.9900   -8.5470   22.1310 C   0  0  0  0  0  3  0  0  0  0  0  0
  -22.8820   -8.2570   21.3000 C   0  0  0  0  0  0  0  0  0  0  0  0
  -22.5070   -9.1830   20.3110 C   0  0  0  0  0  3  0  0  0  0  0  0
  -23.2010  -10.3940   20.1640 C   0  0  0  0  0  3  0  0  0  0  0  0
  -22.1650   -7.0860   21.3520 O   0  0  0  0  0  0  0  0  0  0  0  0
  -21.9880   -6.4030   22.5290 C   0  0  0  0  0  0  0  0  0  0  0  0
  -21.3340   -6.9850   23.6370 C   0  0  0  0  0  3  0  0  0  0  0  0
  -21.1100   -6.2260   24.8030 C   0  0  0  0  0  3  0  0  0  0  0  0
  -21.5290   -4.8830   24.8590 C   0  0  0  0  0  0  0  0  0  0  0  0
  -22.1750   -4.2990   23.7550 C   0  0  0  0  0  3  0  0  0  0  0  0
  -22.3990   -5.0570   22.5920 C   0  0  0  0  0  0  0  0  0  0  0  0
  -23.0030   -4.4840   21.5230 F   0  0  0  0  0  0  0  0  0  0  0  0
  -21.3090   -4.1490   25.9760 F   0  0  0  0  0  0  0  0  0  0  0  0
  -23.0760  -13.7610   21.2170 C   0  0  0  0  0  0  0  0  0  0  0  0
  -22.3760  -13.0250   22.0750 N   0  0  0  0  0  0  0  0  0  0  0  0
  -22.6050  -14.7880   20.7300 O   0  0  0  0  0  0  0  0  0  0  0  0
  -22.7670  -12.1950   22.4900 H   0  0  0  0  0  0  0  0  0  0  0  0
  -21.4340  -13.2990   22.3180 H   0  0  0  0  0  0  0  0  0  0  0  0
  -25.6550  -15.5170   20.4260 N   0  0  0  0  0  0  0  0  0  0  0  0
  -24.8740  -16.1500   20.5610 H   0  0  0  0  0  0  0  0  0  0  0  0
  -26.4990  -15.9870   20.1210 H   0  0  0  0  0  0  0  0  0  0  0  0
  -27.8820  -26.9010   19.4990 O   0  0  0  0  0  0  0  0  0  0  0  0
  -24.4040  -31.7330   23.4000 C   0  0  0  0  0  0  0  0  0  0  0  0
  -26.7670  -27.6960   19.6280 C   0  0  0  0  0  0  0  0  0  0  0  0
  -23.0900  -30.6220   21.6250 C   0  0  0  0  0  3  0  0  0  0  0  0
  -24.4360  -29.2560   19.9410 C   0  0  0  0  0  0  0  0  0  0  0  0
  -25.6200  -30.9190   21.3830 C   0  0  0  0  0  2  0  0  0  0  0  0
  -25.6330  -29.6520   20.5540 C   0  0  0  0  0  0  0  0  0  0  0  0
  -26.8040  -28.8780   20.4000 C   0  0  0  0  0  3  0  0  0  0  0  0
  -25.5580  -27.3100   19.0120 C   0  0  0  0  0  3  0  0  0  0  0  0
  -24.3920  -28.0810   19.1690 C   0  0  0  0  0  3  0  0  0  0  0  0
  -23.2260  -30.1340   20.1590 C   0  0  0  0  0  2  0  0  0  0  0  0
  -24.3920  -31.0910   22.1980 N   0  0  0  0  0  0  0  0  0  0  0  0
  -23.3530  -31.9680   24.0130 O   0  0  0  0  0  0  0  0  0  0  0  0
  -22.4230  -29.5020   22.4550 C   0  0  0  0  0  0  0  0  0  0  0  0
  -21.0960  -29.3620   22.3100 N   0  0  0  0  0  0  0  0  0  0  0  0
  -23.0960  -28.7670   23.1800 O   0  0  0  0  0  0  0  0  0  0  0  0
  -20.6180  -30.0030   21.6930 H   0  0  0  0  0  0  0  0  0  0  0  0
  -17.6880  -28.2430   22.7570 C   0  0  0  0  0  0  0  0  0  0  0  0
  -20.2620  -28.3550   22.9650 C   0  0  0  0  0  3  0  0  0  0  0  0
  -20.2840  -27.0230   22.1820 C   0  0  0  0  0  2  0  0  0  0  0  0
  -19.1380  -26.8970   21.1740 C   0  0  0  0  0  2  0  0  0  0  0  0
  -17.7830  -27.0040   21.8820 C   0  0  0  0  0  2  0  0  0  0  0  0
  -18.8540  -28.8860   23.2510 C   0  0  0  0  0  0  0  0  0  0  0  0
  -18.7120  -30.0520   24.0330 C   0  0  0  0  0  3  0  0  0  0  0  0
  -17.4400  -30.5790   24.3210 C   0  0  0  0  0  3  0  0  0  0  0  0
  -16.2880  -29.9290   23.8430 C   0  0  0  0  0  3  0  0  0  0  0  0
  -16.4140  -28.7620   23.0670 C   0  0  0  0  0  3  0  0  0  0  0  0
  -25.7340  -32.2200   24.0530 C   0  0  0  0  0  3  0  0  0  0  0  0
  -25.5200  -33.6010   24.5070 N   0  0  0  0  0  0  0  0  0  0  0  0
  -25.9070  -34.6900   23.8300 C   0  0  0  0  0  0  0  0  0  0  0  0
  -26.5520  -34.6350   22.7810 O   0  0  0  0  0  0  0  0  0  0  0  0
  -24.9460  -33.7200   25.3310 H   0  0  0  0  0  0  0  0  0  0  0  0
  -24.2900  -36.6070   23.6670 C   0  0  0  0  0  1  0  0  0  0  0  0
  -25.5160  -36.0600   24.4130 C   0  0  0  0  0  3  0  0  0  0  0  0
  -27.7100  -36.7440   25.2750 C   0  0  0  0  0  1  0  0  0  0  0  0
  -26.6110  -37.0530   24.3640 N   0  0  0  0  0  0  0  0  0  0  0  0
  -26.2630  -37.9820   24.5870 H   0  0  0  0  0  0  0  0  0  0  0  0
  -26.2140  -31.3020   25.2450 C   0  0  1  0  0  0  0  0  0  0  0  0
  -25.1190  -31.0320   26.3030 C   0  0  0  0  0  1  0  0  0  0  0  0
  -26.7010  -29.9330   24.7180 C   0  0  0  0  0  1  0  0  0  0  0  0
  -27.4180  -31.9610   25.9590 C   0  0  0  0  0  1  0  0  0  0  0  0
  1  4  2  0
  1  5  1  0
  2  6  2  0
  3  6  1  0
  4  2  1  0
  5  3  2  0
  6  8  1  0
  8  7  1  0
  9 11  1  0
  9  4  1  0
 10  9  2  0
 11 12  1  0
 12 13  1  0
 13 14  1  0
 14 15  1  0
 16 24  1  0
 17 22  1  0
 18 19  1  0
 18 17  1  0
 20 19  1  0
 20 29  1  0
 20 21  1  0
 22 16  1  0
 22 21  1  0
 23 16  2  0
 24 25  1  0
 24 15  1  0
 26 27  2  0
 27 46  1  0
 28 27  1  0
 28 31  1  0
 29 30  1  0
 29 26  1  0
 30 28  2  0
 31 32  1  0
 32 33  2  0
 34 37  1  0
 34 33  1  0
 35 34  2  0
 36 35  1  0
 36 31  2  0
 37 38  1  0
 38 43  2  0
 38 39  1  0
 39 40  2  0
 40 41  1  0
 41 45  1  0
 42 41  2  0
 43 42  1  0
 44 43  1  0
 46 47  1  0
 47 50  1  0
 47 49  1  0
 48 46  2  0
 51 52  1  0
 51 26  1  0
 53 51  1  0
 54 56  1  0
 54  5  1  0
 55 66  2  0
 56 61  1  0
 57 65  1  0
 57 67  1  0
 58 64  1  0
 58 60  1  0
 59 65  1  0
 60 59  1  0
 61 60  2  0
 62 63  1  0
 62 56  2  0
 63 58  2  0
 64 57  1  0
 65 55  1  0
 67 69  2  0
 68 67  1  0
 70 68  1  0
 71 80  2  0
 71 76  1  0
 72 68  1  0
 72 76  1  0
 73 72  1  0
 74 75  1  0
 74 73  1  0
 75 71  1  0
 76 77  2  0
 77 78  1  0
 79 78  2  0
 80 79  1  0
 81 55  1  0
 81 82  1  0
 81 91  1  0
 82 85  1  0
 83 87  1  0
 83 82  1  0
 84 83  2  0
 87 86  1  0
 89 87  1  0
 89 90  1  0
 89 88  1  0
 91 94  1  1
 91 92  1  0
 93 91  1  0
M  ISO  4   5 101  16 100  24 100  54 101
M  END
>  <TORSDO>  (56) 
F 23

>  <SCORE>  (56) 
-11.663

>  <name>  (56) 
55

>  <ligand_id>  (56) 
55

>  <original_smiles>  (56) 
[H]c1c([H])c([H])c2c(c1[H])C([H])([H])C([H])([H])C([H])([H])C2([H])N([H])C(=O)C1([H])N(C(=O)C([H])(N([H])C(=O)C([H])(N([H])C([H])([H])[H])C([H])([H])[H])C(C([H])([H])[H])(C([H])([H])[H])C([H])([H])[H])C([H])([H])c2c([H])c(Oc3c([H])c(OC([H])([H])[H])c([H])c(C(=O)C([H])([H])C([H])([H])C([H])([H])C([H])([H])C([H])([H])N([H])C(=O)N4C([H])([H])C([H])([H])C([H])([H])C([H])(n5nc(-c6c([H])c([H])c(Oc7c([H])c([H])c(F)c([H])c7F)c([H])c6[H])c(C(=O)N([H])[H])c5N([H])[H])C4([H])[H])c3[H])c([H])c([H])c2C1([H])[H]

>  <smiles>  (56) 
[H]c1c([H])c([H])c2c(c1[H])C([H])([H])C([H])([H])C([H])([H])C2([H])N([H])C(=O)C1([H])N(C(=O)C([H])(N([H])C(=O)C([H])(N([H])C([H])([H])[H])C([H])([H])[H])C(C([H])([H])[H])(C([H])([H])[H])C([H])([H])[H])C([H])([H])c2c([H])c(Oc3c([H])c(OC([H])([H])[H])c([H])c(C(=O)C([H])([H])C([H])([H])C([H])([H])C([H])([H])C([H])([H])N([H])C(=O)N4C([H])([H])C([H])([H])C([H])([H])C([H])(n5nc(-c6c([H])c([H])c(Oc7c([H])c([H])c(F)c([H])c7F)c([H])c6[H])c(C(=O)N([H])[H])c5N([H])[H])C4([H])[H])c3[H])c([H])c([H])c2C1([H])[H]

$$$$
56:0:0
     RDKit          3D

 91100  0  0  1  0  0  0  0  0999 V2000
  -28.5810  -17.1670   19.6070 C   0  0  0  0  0  3  0  0  0  0  0  0
  -29.8000  -16.7940   20.2810 C   0  0  0  0  0  0  0  0  0  0  0  0
  -28.6290  -19.7390   19.9790 C   0  0  0  0  0  0  0  0  0  0  0  0
  -29.8540  -19.4600   20.6340 C   0  0  0  0  0  0  0  0  0  0  0  0
  -28.0240  -18.5210   19.4760 C   0  0  0  0  0  0  0  0  0  0  0  0
  -30.4220  -18.0650   20.7640 C   0  0  0  0  0  0  0  0  0  0  0  0
  -30.4540  -20.7830   21.2300 C   0  0  0  0  0  2  0  0  0  0  0  0
  -27.9940  -21.2780   19.8130 C   0  0  0  0  0  2  0  0  0  0  0  0
  -30.1000  -22.2290   20.5670 C   0  0  0  0  0  2  0  0  0  0  0  0
  -28.5810  -22.7230   20.4690 C   0  0  2  0  0  0  0  0  0  0  0  0
  -26.6830  -18.6560   18.7740 C   0  0  0  0  0  1  0  0  0  0  0  0
  -31.7890  -17.9450   21.4280 C   0  0  0  0  0  1  0  0  0  0  0  0
  -27.9940  -22.8070   21.8960 C   0  0  0  0  0  1  0  0  0  0  0  0
  -30.4660  -15.2470   20.2650 C   0  0  0  0  0  0  0  0  0  0  0  0
  -30.3840  -12.7950   19.4620 C   0  0  0  0  0  2  0  0  0  0  0  0
  -29.4870  -12.5900   18.2160 C   0  0  0  0  0  2  0  0  0  0  0  0
  -28.0250  -12.3670   18.6310 C   0  0  0  0  0  2  0  0  0  0  0  0
  -27.5710  -13.3480   19.7400 C   0  0  0  0  0  3  0  0  0  0  0  0
  -28.6030  -13.5200   20.8730 C   0  0  0  0  0  2  0  0  0  0  0  0
  -29.8560  -13.9660   20.2530 N   0  0  0  0  0  0  0  0  0  0  0  0
  -31.6890  -15.1690   20.0990 O   0  0  0  0  0  0  0  0  0  0  0  0
  -25.2010  -13.9250   20.4670 C   0  0  0  0  0  0  0  0  0  0  0  0
  -24.1320  -13.1540   20.8200 C   0  0  0  0  0  0  0  0  0  0  0  0
  -24.5950  -11.8020   20.8140 C   0  0  0  0  0  0  0  0  0  0  0  0
  -26.2420  -13.0440   20.2440 N   0  0  0  0  0  0  0  0  0  0  0  0
  -25.8910  -11.7610   20.5260 N   0  0  0  0  0  0  0  0  0  0  0  0
  -23.8620  -10.5440   21.0010 C   0  0  0  0  0  0  0  0  0  0  0  0
  -24.2780   -9.5780   21.9450 C   0  0  0  0  0  3  0  0  0  0  0  0
  -23.5430   -8.3850   22.1230 C   0  0  0  0  0  3  0  0  0  0  0  0
  -22.3750   -8.1510   21.3570 C   0  0  0  0  0  0  0  0  0  0  0  0
  -21.9800   -9.1040   20.4000 C   0  0  0  0  0  3  0  0  0  0  0  0
  -22.7170  -10.2860   20.2220 C   0  0  0  0  0  3  0  0  0  0  0  0
  -21.6120   -7.0110   21.4430 O   0  0  0  0  0  0  0  0  0  0  0  0
  -21.5480   -6.2720   22.5970 C   0  0  0  0  0  0  0  0  0  0  0  0
  -21.1270   -6.8340   23.8220 C   0  0  0  0  0  3  0  0  0  0  0  0
  -21.0120   -6.0220   24.9670 C   0  0  0  0  0  3  0  0  0  0  0  0
  -21.3060   -4.6460   24.8890 C   0  0  0  0  0  0  0  0  0  0  0  0
  -21.7210   -4.0840   23.6700 C   0  0  0  0  0  3  0  0  0  0  0  0
  -21.8400   -4.8930   22.5270 C   0  0  0  0  0  0  0  0  0  0  0  0
  -22.2180   -4.3400   21.3490 F   0  0  0  0  0  0  0  0  0  0  0  0
  -21.1890   -3.8650   25.9900 F   0  0  0  0  0  0  0  0  0  0  0  0
  -22.7290  -13.6360   21.0550 C   0  0  0  0  0  0  0  0  0  0  0  0
  -21.9830  -12.9520   21.9120 N   0  0  0  0  0  0  0  0  0  0  0  0
  -22.3050  -14.6560   20.5120 O   0  0  0  0  0  0  0  0  0  0  0  0
  -22.3400  -12.1270   22.3710 H   0  0  0  0  0  0  0  0  0  0  0  0
  -21.0380  -13.2550   22.1120 H   0  0  0  0  0  0  0  0  0  0  0  0
  -25.3790  -15.2950   20.2890 N   0  0  0  0  0  0  0  0  0  0  0  0
  -24.6290  -15.9660   20.4240 H   0  0  0  0  0  0  0  0  0  0  0  0
  -26.2650  -15.7340   20.0770 H   0  0  0  0  0  0  0  0  0  0  0  0
  -28.1410  -24.3260   19.7720 C   0  0  0  0  0  2  0  0  0  0  0  0
  -28.2460  -25.9190   20.1570 O   0  0  0  0  0  0  0  0  0  0  0  0
  -24.5840  -31.7890   23.0660 C   0  0  0  0  0  0  0  0  0  0  0  0
  -27.2250  -26.9940   20.0320 C   0  0  0  0  0  0  0  0  0  0  0  0
  -23.4150  -30.3800   21.4190 C   0  0  0  0  0  3  0  0  0  0  0  0
  -24.8980  -28.8220   19.9760 C   0  0  0  0  0  0  0  0  0  0  0  0
  -25.9730  -30.6490   21.2710 C   0  0  0  0  0  2  0  0  0  0  0  0
  -26.0730  -29.2460   20.6080 C   0  0  0  0  0  0  0  0  0  0  0  0
  -27.2280  -28.3510   20.6210 C   0  0  0  0  0  3  0  0  0  0  0  0
  -26.0280  -26.7220   19.3350 C   0  0  0  0  0  3  0  0  0  0  0  0
  -24.9010  -27.5830   19.3130 C   0  0  0  0  0  3  0  0  0  0  0  0
  -23.6550  -29.7100   20.0380 C   0  0  0  0  0  2  0  0  0  0  0  0
  -24.6790  -30.9640   21.9740 N   0  0  0  0  0  0  0  0  0  0  0  0
  -23.4900  -32.0650   23.5820 O   0  0  0  0  0  0  0  0  0  0  0  0
  -22.7400  -29.3660   22.3810 C   0  0  0  0  0  0  0  0  0  0  0  0
  -21.4070  -29.2000   22.2800 N   0  0  0  0  0  0  0  0  0  0  0  0
  -23.4240  -28.7280   23.1840 O   0  0  0  0  0  0  0  0  0  0  0  0
  -20.9060  -29.7780   21.6210 H   0  0  0  0  0  0  0  0  0  0  0  0
  -18.0330  -27.9890   22.8290 C   0  0  0  0  0  0  0  0  0  0  0  0
  -20.5990  -28.2440   23.0460 C   0  0  0  0  0  3  0  0  0  0  0  0
  -20.6860  -26.8260   22.4340 C   0  0  0  0  0  2  0  0  0  0  0  0
  -19.5640  -26.5290   21.4360 C   0  0  0  0  0  2  0  0  0  0  0  0
  -18.1960  -26.6590   22.1130 C   0  0  0  0  0  2  0  0  0  0  0  0
  -19.1620  -28.7410   23.2520 C   0  0  0  0  0  0  0  0  0  0  0  0
  -18.9540  -29.9870   23.8810 C   0  0  0  0  0  3  0  0  0  0  0  0
  -17.6530  -30.4800   24.0940 C   0  0  0  0  0  3  0  0  0  0  0  0
  -16.5400  -29.7240   23.6880 C   0  0  0  0  0  3  0  0  0  0  0  0
  -16.7320  -28.4810   23.0600 C   0  0  0  0  0  3  0  0  0  0  0  0
  -25.8460  -32.4470   23.7030 C   0  0  0  0  0  3  0  0  0  0  0  0
  -25.4990  -33.8300   24.0710 N   0  0  0  0  0  0  0  0  0  0  0  0
  -25.8070  -34.9170   23.3500 C   0  0  0  0  0  0  0  0  0  0  0  0
  -26.4810  -34.8610   22.3170 O   0  0  0  0  0  0  0  0  0  0  0  0
  -24.8850  -33.9420   24.8650 H   0  0  0  0  0  0  0  0  0  0  0  0
  -24.0390  -36.6890   23.0770 C   0  0  0  0  0  1  0  0  0  0  0  0
  -25.2960  -36.2810   23.8590 C   0  0  0  0  0  3  0  0  0  0  0  0
  -27.4190  -37.1860   24.7020 C   0  0  0  0  0  1  0  0  0  0  0  0
  -26.3060  -37.3590   23.7730 N   0  0  0  0  0  0  0  0  0  0  0  0
  -25.8790  -38.2650   23.9490 H   0  0  0  0  0  0  0  0  0  0  0  0
  -26.3800  -31.6680   24.9680 C   0  0  1  0  0  0  0  0  0  0  0  0
  -25.2910  -31.3800   26.0290 C   0  0  0  0  0  1  0  0  0  0  0  0
  -26.9930  -30.3100   24.5540 C   0  0  0  0  0  1  0  0  0  0  0  0
  -27.5230  -32.4720   25.6350 C   0  0  0  0  0  1  0  0  0  0  0  0
  1  2  1  0
  2  6  2  0
  3  4  2  0
  4  6  1  0
  4  7  1  0
  5  1  2  0
  5  3  1  0
  6 12  1  0
  8  3  1  0
  8 10  1  0
  9  7  1  0
 10  9  1  0
 10 13  1  1
 11  5  1  0
 14  2  1  0
 15 20  1  0
 16 17  1  0
 16 15  1  0
 18 17  1  0
 18 25  1  0
 18 19  1  0
 20 14  1  0
 20 19  1  0
 21 14  2  0
 22 23  2  0
 23 42  1  0
 24 23  1  0
 24 27  1  0
 25 22  1  0
 25 26  1  0
 26 24  2  0
 27 28  1  0
 28 29  2  0
 30 33  1  0
 30 29  1  0
 31 30  2  0
 32 31  1  0
 32 27  2  0
 33 34  1  0
 34 35  1  0
 35 36  2  0
 37 36  1  0
 37 41  1  0
 38 37  2  0
 39 34  2  0
 39 38  1  0
 40 39  1  0
 42 43  1  0
 43 46  1  0
 43 45  1  0
 44 42  2  0
 47 48  1  0
 47 22  1  0
 49 47  1  0
 50 51  1  0
 50 10  1  0
 52 63  2  0
 53 51  1  0
 53 58  1  0
 54 62  1  0
 54 64  1  0
 55 61  1  0
 55 57  1  0
 56 62  1  0
 57 58  2  0
 57 56  1  0
 59 53  2  0
 60 59  1  0
 60 55  2  0
 61 54  1  0
 62 52  1  0
 64 66  2  0
 65 64  1  0
 67 65  1  0
 68 77  2  0
 68 73  1  0
 69 65  1  0
 69 73  1  0
 70 69  1  0
 71 72  1  0
 71 70  1  0
 72 68  1  0
 73 74  2  0
 74 75  1  0
 76 75  2  0
 77 76  1  0
 78 52  1  0
 78 79  1  0
 78 88  1  0
 79 82  1  0
 80 84  1  0
 80 79  1  0
 81 80  2  0
 84 83  1  0
 86 84  1  0
 86 87  1  0
 86 85  1  0
 88 91  1  1
 88 89  1  0
 90 88  1  0
M  ISO  4   2 100  14 100  50 101  51 101
M  END
>  <TORSDO>  (57) 
F 17

>  <SCORE>  (57) 
-15.819

>  <name>  (57) 
56

>  <ligand_id>  (57) 
56

>  <original_smiles>  (57) 
[H]c1c([H])c([H])c2c(c1[H])C([H])([H])C([H])([H])C([H])([H])C2([H])N([H])C(=O)C1([H])N(C(=O)C([H])(N([H])C(=O)C([H])(N([H])C([H])([H])[H])C([H])([H])[H])C(C([H])([H])[H])(C([H])([H])[H])C([H])([H])[H])C([H])([H])c2c([H])c(OC([H])([H])C3(C([H])([H])[H])C([H])([H])c4c(C([H])([H])[H])c([H])c(C(=O)N5C([H])([H])C([H])([H])C([H])([H])C([H])(n6nc(-c7c([H])c([H])c(Oc8c([H])c([H])c(F)c([H])c8F)c([H])c7[H])c(C(=O)N([H])[H])c6N([H])[H])C5([H])[H])c(C([H])([H])[H])c4C([H])([H])C3([H])[H])c([H])c([H])c2C1([H])[H]

>  <smiles>  (57) 
[H]c1c([H])c([H])c2c(c1[H])C([H])([H])C([H])([H])C([H])([H])C2([H])N([H])C(=O)C1([H])N(C(=O)C([H])(N([H])C(=O)C([H])(N([H])C([H])([H])[H])C([H])([H])[H])C(C([H])([H])[H])(C([H])([H])[H])C([H])([H])[H])C([H])([H])c2c([H])c(OC([H])([H])C3(C([H])([H])[H])C([H])([H])c4c(C([H])([H])[H])c([H])c(C(=O)N5C([H])([H])C([H])([H])C([H])([H])C([H])(n6nc(-c7c([H])c([H])c(Oc8c([H])c([H])c(F)c([H])c8F)c([H])c7[H])c(C(=O)N([H])[H])c6N([H])[H])C5([H])[H])c(C([H])([H])[H])c4C([H])([H])C3([H])[H])c([H])c([H])c2C1([H])[H]

$$$$
57:0:0
     RDKit          3D

 94100  0  0  1  0  0  0  0  0999 V2000
  -20.9550  -25.4570   21.8770 C   0  0  0  0  0  2  0  0  0  0  0  0
  -22.0240  -24.3960   22.4480 C   0  0  0  0  0  2  0  0  0  0  0  0
  -21.8450  -26.6660   20.2610 C   0  0  0  0  0  3  0  0  0  0  0  0
  -23.4870  -24.3080   21.8790 C   0  0  0  0  0  0  0  0  0  0  0  0
  -23.6230  -26.5040   20.0970 C   0  0  0  0  0  3  0  0  0  0  0  0
  -24.1000  -25.2340   20.8070 C   0  0  0  0  0  0  0  0  0  0  0  0
  -21.1440  -27.2780   19.0130 C   0  0  0  0  0  1  0  0  0  0  0  0
  -25.6290  -24.2670   19.3180 C   0  0  0  0  0  1  0  0  0  0  0  0
  -25.4130  -24.9770   20.5240 O   0  0  0  0  0  0  0  0  0  0  0  0
  -25.0380  -27.4230   20.2710 O   0  0  0  0  0  0  0  0  0  0  0  0
  -24.5030  -32.0940   22.9900 C   0  0  0  0  0  0  0  0  0  0  0  0
  -26.3500  -27.8150   19.7000 C   0  0  0  0  0  3  0  0  0  0  0  0
  -23.4980  -30.9970   21.0660 C   0  0  0  0  0  3  0  0  0  0  0  0
  -25.0210  -29.9470   19.2870 C   0  0  0  0  0  0  0  0  0  0  0  0
  -26.0230  -31.3090   21.1440 C   0  0  0  0  0  2  0  0  0  0  0  0
  -26.0580  -30.0970   20.2170 C   0  0  0  0  0  3  0  0  0  0  0  0
  -26.9230  -28.9880   20.3240 C   0  0  0  0  0  2  0  0  0  0  0  0
  -26.1390  -27.9940   18.3610 C   0  0  0  0  0  2  0  0  0  0  0  0
  -25.1260  -28.9630   18.2630 C   0  0  0  0  0  3  0  0  0  0  0  0
  -23.8070  -30.7820   19.5450 C   0  0  0  0  0  2  0  0  0  0  0  0
  -24.6900  -31.5410   21.7600 N   0  0  0  0  0  0  0  0  0  0  0  0
  -23.3710  -32.2160   23.4870 O   0  0  0  0  0  0  0  0  0  0  0  0
  -23.0760  -29.7810   21.9200 C   0  0  0  0  0  0  0  0  0  0  0  0
  -21.8990  -29.7780   22.5040 N   0  0  0  0  0  0  0  0  0  0  0  0
  -23.8860  -28.9090   22.2070 O   0  0  0  0  0  0  0  0  0  0  0  0
  -21.2790  -30.5620   22.3800 H   0  0  0  0  0  0  0  0  0  0  0  0
  -18.3590  -28.9260   22.3970 C   0  0  0  0  0  0  0  0  0  0  0  0
  -21.3210  -28.5620   23.0610 C   0  0  0  0  0  2  0  0  0  0  0  0
  -21.9610  -26.9350   22.1050 C   0  0  0  0  0  2  0  0  0  0  0  0
  -19.3930  -26.6600   20.0430 C   0  0  0  0  0 15  0  0  0  0  0  0
  -18.0740  -27.8780   20.9360 C   0  0  0  0  0  1  0  0  0  0  0  0
  -19.6820  -29.2040   23.1740 C   0  0  0  0  0  0  0  0  0  0  0  0
  -19.6200  -30.1910   24.2170 C   0  0  0  0  0  3  0  0  0  0  0  0
  -18.4470  -30.7960   24.7070 C   0  0  0  0  0  3  0  0  0  0  0  0
  -17.2200  -30.3820   24.1840 C   0  0  0  0  0  3  0  0  0  0  0  0
  -17.1920  -29.4770   23.0790 C   0  0  0  0  0  3  0  0  0  0  0  0
  -25.7010  -32.6280   23.8060 C   0  0  0  0  0  3  0  0  0  0  0  0
  -26.0350  -31.7600   25.0790 C   0  0  1  0  0  0  0  0  0  0  0  0
  -24.7970  -31.3430   25.9040 C   0  0  0  0  0  1  0  0  0  0  0  0
  -26.7900  -30.4690   24.6920 C   0  0  0  0  0  1  0  0  0  0  0  0
  -26.9820  -32.5590   26.0010 C   0  0  0  0  0  1  0  0  0  0  0  0
  -25.3350  -33.9940   24.1920 N   0  0  0  0  0  0  0  0  0  0  0  0
  -25.6520  -35.0860   23.4890 C   0  0  0  0  0  0  0  0  0  0  0  0
  -26.3770  -35.0500   22.4910 O   0  0  0  0  0  0  0  0  0  0  0  0
  -24.6960  -34.0900   24.9680 H   0  0  0  0  0  0  0  0  0  0  0  0
  -23.8420  -36.7980   23.1520 C   0  0  0  0  0  1  0  0  0  0  0  0
  -25.0850  -36.4310   23.9770 C   0  0  0  0  0  3  0  0  0  0  0  0
  -27.1620  -37.3730   24.8760 C   0  0  0  0  0  1  0  0  0  0  0  0
  -26.0690  -37.5310   23.9220 N   0  0  0  0  0  0  0  0  0  0  0  0
  -25.6180  -38.4250   24.1030 H   0  0  0  0  0  0  0  0  0  0  0  0
  -24.4140  -23.0500   22.2990 C   0  0  0  0  0  2  0  0  0  0  0  0
  -26.0570  -23.0290   22.4140 C   0  0  0  0  0  2  0  0  0  0  0  0
  -26.9940  -22.5660   21.1600 C   0  0  0  0  0  3  0  0  0  0  0  0
  -28.6220  -22.6910   21.2010 C   0  0  0  0  0  3  0  0  0  0  0  0
  -29.5340  -22.4880   19.8650 C   0  0  0  0  0  3  0  0  0  0  0  0
  -31.1610  -22.4150   19.9400 C   0  0  0  0  0  3  0  0  0  0  0  0
  -32.1280  -22.0400   18.6800 C   0  0  0  0  0  3  0  0  0  0  0  0
  -33.7190  -21.9330   18.9530 C   0  0  0  0  0  3  0  0  0  0  0  0
  -34.8830  -21.3390   17.9940 C   0  0  0  0  0  0  0  0  0  0  0  0
  -37.0610  -22.1470   17.1030 C   0  0  0  0  0  2  0  0  0  0  0  0
  -37.5330  -23.3070   18.0130 C   0  0  0  0  0  2  0  0  0  0  0  0
  -36.8820  -24.6440   17.5990 C   0  0  0  0  0  2  0  0  0  0  0  0
  -35.3500  -24.5160   17.3770 C   0  0  0  0  0  3  0  0  0  0  0  0
  -35.0250  -23.3070   16.4850 C   0  0  0  0  0  2  0  0  0  0  0  0
  -35.5830  -22.1310   17.1310 N   0  0  0  0  0  0  0  0  0  0  0  0
  -35.3610  -20.2320   18.2980 O   0  0  0  0  0  0  0  0  0  0  0  0
  -33.5200  -26.2880   17.0980 C   0  0  0  0  0  0  0  0  0  0  0  0
  -33.4780  -27.4480   16.3780 C   0  0  0  0  0  0  0  0  0  0  0  0
  -34.7300  -27.5350   15.6980 C   0  0  0  0  0  0  0  0  0  0  0  0
  -34.7590  -25.7250   16.8330 N   0  0  0  0  0  0  0  0  0  0  0  0
  -35.4630  -26.4580   15.9360 N   0  0  0  0  0  0  0  0  0  0  0  0
  -35.3030  -28.6160   14.8920 C   0  0  0  0  0  0  0  0  0  0  0  0
  -35.7530  -28.3980   13.5720 C   0  0  0  0  0  3  0  0  0  0  0  0
  -36.2830  -29.4640   12.8150 C   0  0  0  0  0  3  0  0  0  0  0  0
  -36.3630  -30.7610   13.3740 C   0  0  0  0  0  0  0  0  0  0  0  0
  -35.9360  -30.9650   14.6970 C   0  0  0  0  0  3  0  0  0  0  0  0
  -35.4150  -29.9030   15.4530 C   0  0  0  0  0  3  0  0  0  0  0  0
  -36.8850  -31.8510   12.7200 O   0  0  0  0  0  0  0  0  0  0  0  0
  -36.9740  -31.8930   11.3530 C   0  0  0  0  0  0  0  0  0  0  0  0
  -35.8270  -31.8690   10.5300 C   0  0  0  0  0  3  0  0  0  0  0  0
  -35.9610  -31.9850    9.1310 C   0  0  0  0  0  3  0  0  0  0  0  0
  -37.2370  -32.1360    8.5570 C   0  0  0  0  0  0  0  0  0  0  0  0
  -38.3800  -32.1670    9.3750 C   0  0  0  0  0  3  0  0  0  0  0  0
  -38.2480  -32.0480   10.7690 C   0  0  0  0  0  0  0  0  0  0  0  0
  -39.3510  -32.0990   11.5540 F   0  0  0  0  0  0  0  0  0  0  0  0
  -37.3650  -32.2570    7.2140 F   0  0  0  0  0  0  0  0  0  0  0  0
  -32.3780  -28.4680   16.4050 C   0  0  0  0  0  0  0  0  0  0  0  0
  -32.0920  -29.0940   15.2700 N   0  0  0  0  0  0  0  0  0  0  0  0
  -31.7300  -28.6820   17.4290 O   0  0  0  0  0  0  0  0  0  0  0  0
  -32.6040  -28.9070   14.4210 H   0  0  0  0  0  0  0  0  0  0  0  0
  -31.3410  -29.7710   15.2490 H   0  0  0  0  0  0  0  0  0  0  0  0
  -32.6200  -25.6910   17.9750 N   0  0  0  0  0  0  0  0  0  0  0  0
  -31.7260  -26.1160   18.1970 H   0  0  0  0  0  0  0  0  0  0  0  0
  -32.7770  -24.8210   18.4650 H   0  0  0  0  0  0  0  0  0  0  0  0
  1 29  1  0
  1  2  1  0
  3  7  1  0
  3 29  1  0
  4 51  1  0
  4  2  1  0
  5  3  1  0
  5 10  1  0
  5  6  1  0
  6  4  2  0
  8  9  1  0
  9  6  1  0
 11 22  2  0
 12 10  1  0
 12 17  1  0
 13 21  1  0
 13 23  1  0
 14 20  1  0
 14 16  1  0
 15 21  1  0
 16 17  1  0
 16 15  1  0
 18 12  1  0
 19 18  1  0
 19 14  2  0
 20 13  1  0
 21 11  1  0
 23 25  2  0
 23 24  1  0
 24 28  1  0
 26 24  1  0
 27 36  2  0
 27 32  1  0
 28 32  1  0
 31 27  1  0
 32 33  2  0
 33 34  1  0
 35 34  2  0
 36 35  1  0
 37 11  1  0
 37 42  1  0
 37 38  1  0
 38 39  1  1
 38 41  1  0
 40 38  1  0
 42 45  1  0
 43 47  1  0
 43 42  1  0
 44 43  2  0
 47 46  1  0
 49 47  1  0
 49 50  1  0
 49 48  1  0
 51 52  1  0
 53 54  2  0
 53 52  1  0
 55 56  2  0
 55 54  1  0
 57 58  2  0
 57 56  1  0
 59 66  2  0
 59 58  1  0
 60 65  1  0
 60 61  1  0
 62 61  1  0
 63 64  1  0
 63 62  1  0
 64 65  1  0
 65 59  1  0
 67 92  1  0
 68 87  1  0
 68 67  2  0
 69 71  2  0
 69 68  1  0
 70 67  1  0
 70 63  1  0
 71 70  1  0
 72 77  1  0
 72 69  1  0
 73 72  2  0
 74 75  2  0
 74 73  1  0
 75 76  1  0
 76 77  2  0
 78 75  1  0
 79 78  1  0
 80 79  2  0
 81 80  1  0
 82 81  2  0
 82 83  1  0
 83 84  2  0
 84 79  1  0
 84 85  1  0
 86 82  1  0
 87 89  2  0
 88 87  1  0
 90 88  1  0
 91 88  1  0
 92 93  1  0
 92 94  1  0
M  ISO  4   5 101  10 101  58 100  59 100
M  END
>  <TORSDO>  (58) 
F 25

>  <SCORE>  (58) 
-3.340

>  <name>  (58) 
57

>  <ligand_id>  (58) 
57

>  <original_smiles>  (58) 
[H]c1c([H])c([H])c2c(c1[H])C([H])([H])C([H])([H])C([H])([H])C2([H])N([H])C(=O)C1([H])N(C(=O)C([H])(N([H])C(=O)C([H])(N([H])C([H])([H])[H])C([H])([H])[H])C(C([H])([H])[H])(C([H])([H])[H])C([H])([H])[H])C([H])([H])c2c([H])c(Oc3c(OC([H])([H])[H])c(C([H])([H])C([H])([H])C([H])([H])C([H])([H])C([H])([H])C([H])([H])C([H])([H])C([H])([H])C(=O)N4C([H])([H])C([H])([H])C([H])([H])C([H])(n5nc(-c6c([H])c([H])c(Oc7c([H])c([H])c(F)c([H])c7F)c([H])c6[H])c(C(=O)N([H])[H])c5N([H])[H])C4([H])[H])c([H])c([H])c3C([H])([H])[H])c([H])c([H])c2C1([H])[H]

>  <smiles>  (58) 
[H]c1c([H])c([H])c2c(c1[H])C([H])([H])C([H])([H])C([H])([H])C2([H])N([H])C(=O)C1([H])N(C(=O)C([H])(N([H])C(=O)C([H])(N([H])C([H])([H])[H])C([H])([H])[H])C(C([H])([H])[H])(C([H])([H])[H])C([H])([H])[H])C([H])([H])c2c([H])c(Oc3c(OC([H])([H])[H])c(C([H])([H])C([H])([H])C([H])([H])C([H])([H])C([H])([H])C([H])([H])C([H])([H])C([H])([H])C(=O)N4C([H])([H])C([H])([H])C([H])([H])C([H])(n5nc(-c6c([H])c([H])c(Oc7c([H])c([H])c(F)c([H])c7F)c([H])c6[H])c(C(=O)N([H])[H])c5N([H])[H])C4([H])[H])c([H])c([H])c3C([H])([H])[H])c([H])c([H])c2C1([H])[H]

$$$$
58:0:0
     RDKit          3D

 90 98  0  0  1  0  0  0  0  0999 V2000
  -29.1020  -23.8230   22.6300 C   0  0  0  0  0  3  0  0  0  0  0  0
  -27.7770  -24.2450   22.8590 C   0  0  0  0  0  3  0  0  0  0  0  0
  -29.4290  -23.2610   21.3770 C   0  0  0  0  0  0  0  0  0  0  0  0
  -26.9080  -24.4370   21.7630 C   0  0  0  0  0  0  0  0  0  0  0  0
  -28.3980  -23.1800   20.4110 C   0  0  0  0  0  3  0  0  0  0  0  0
  -27.4810  -24.4350   20.4640 C   0  0  0  0  0  3  0  0  0  0  0  0
  -25.4690  -24.8270   22.0330 C   0  0  0  0  0  1  0  0  0  0  0  0
  -31.8450  -23.5660   20.6990 C   0  0  0  0  0  1  0  0  0  0  0  0
  -30.7780  -22.5840   21.1950 C   0  0  0  0  0  2  0  0  0  0  0  0
  -27.7360  -25.8910   20.0660 O   0  0  0  0  0  0  0  0  0  0  0  0
  -24.5370  -31.9590   23.2000 C   0  0  0  0  0  0  0  0  0  0  0  0
  -26.7810  -27.0290   20.0700 C   0  0  0  0  0  0  0  0  0  0  0  0
  -23.2200  -30.6050   21.6220 C   0  0  0  0  0  3  0  0  0  0  0  0
  -24.5480  -28.9660   20.1260 C   0  0  0  0  0  0  0  0  0  0  0  0
  -25.7800  -30.7360   21.3560 C   0  0  0  0  0  2  0  0  0  0  0  0
  -25.7700  -29.3280   20.7050 C   0  0  0  0  0  0  0  0  0  0  0  0
  -26.8790  -28.3740   20.6690 C   0  0  0  0  0  3  0  0  0  0  0  0
  -25.5540  -26.8410   19.3940 C   0  0  0  0  0  3  0  0  0  0  0  0
  -24.4600  -27.7390   19.4500 C   0  0  0  0  0  3  0  0  0  0  0  0
  -23.3620  -29.9230   20.2330 C   0  0  0  0  0  2  0  0  0  0  0  0
  -24.5380  -31.1260   22.1120 N   0  0  0  0  0  0  0  0  0  0  0  0
  -23.4860  -32.2850   23.7720 O   0  0  0  0  0  0  0  0  0  0  0  0
  -22.5440  -29.6290   22.6190 C   0  0  0  0  0  0  0  0  0  0  0  0
  -21.2130  -29.4540   22.5120 N   0  0  0  0  0  0  0  0  0  0  0  0
  -23.2200  -29.0310   23.4580 O   0  0  0  0  0  0  0  0  0  0  0  0
  -20.7190  -29.9900   21.8140 H   0  0  0  0  0  0  0  0  0  0  0  0
  -17.8580  -28.1750   23.0220 C   0  0  0  0  0  0  0  0  0  0  0  0
  -20.4040  -28.5340   23.3170 C   0  0  0  0  0  3  0  0  0  0  0  0
  -20.5590  -27.0770   22.8230 C   0  0  0  0  0  2  0  0  0  0  0  0
  -19.4860  -26.6660   21.8100 C   0  0  0  0  0  2  0  0  0  0  0  0
  -18.0890  -26.8000   22.4200 C   0  0  0  0  0  2  0  0  0  0  0  0
  -18.9450  -28.9960   23.4300 C   0  0  0  0  0  0  0  0  0  0  0  0
  -18.6740  -30.2770   23.9560 C   0  0  0  0  0  3  0  0  0  0  0  0
  -17.3500  -30.7410   24.0770 C   0  0  0  0  0  3  0  0  0  0  0  0
  -16.2790  -29.9210   23.6840 C   0  0  0  0  0  3  0  0  0  0  0  0
  -16.5330  -28.6400   23.1620 C   0  0  0  0  0  3  0  0  0  0  0  0
  -25.8610  -32.5590   23.7660 C   0  0  0  0  0  3  0  0  0  0  0  0
  -25.6010  -33.9620   24.1330 N   0  0  0  0  0  0  0  0  0  0  0  0
  -25.9310  -35.0240   23.3850 C   0  0  0  0  0  0  0  0  0  0  0  0
  -26.5470  -34.9220   22.3210 O   0  0  0  0  0  0  0  0  0  0  0  0
  -25.0520  -34.1160   24.9650 H   0  0  0  0  0  0  0  0  0  0  0  0
  -24.2430  -36.8790   23.1600 C   0  0  0  0  0  1  0  0  0  0  0  0
  -25.5110  -36.4170   23.8960 C   0  0  0  0  0  3  0  0  0  0  0  0
  -27.7110  -37.2250   24.6310 C   0  0  0  0  0  1  0  0  0  0  0  0
  -26.5680  -37.4430   23.7490 N   0  0  0  0  0  0  0  0  0  0  0  0
  -26.1970  -38.3710   23.9360 H   0  0  0  0  0  0  0  0  0  0  0  0
  -26.4130  -31.7640   25.0140 C   0  0  1  0  0  0  0  0  0  0  0  0
  -25.3630  -31.5380   26.1250 C   0  0  0  0  0  1  0  0  0  0  0  0
  -26.9530  -30.3790   24.5900 C   0  0  0  0  0  1  0  0  0  0  0  0
  -27.6090  -32.5280   25.6320 C   0  0  0  0  0  1  0  0  0  0  0  0
  -28.2050  -21.5590   19.8340 C   0  0  0  0  0  2  0  0  0  0  0  0
  -28.6830  -19.9760   20.5210 C   0  0  0  0  0  3  0  0  0  0  0  0
  -29.0800  -18.3850   19.8060 C   0  0  0  0  0  3  0  0  0  0  0  0
  -29.2730  -16.7500   20.4980 C   0  0  0  0  0  2  0  0  0  0  0  0
  -30.0730  -15.2850   19.9930 C   0  0  0  0  0  0  0  0  0  0  0  0
  -30.1200  -12.8600   19.0800 C   0  0  0  0  0  2  0  0  0  0  0  0
  -29.1180  -12.6560   17.9150 C   0  0  0  0  0  2  0  0  0  0  0  0
  -27.7190  -12.3070   18.4500 C   0  0  0  0  0  2  0  0  0  0  0  0
  -27.3100  -13.2150   19.6360 C   0  0  0  0  0  3  0  0  0  0  0  0
  -28.4310  -13.3830   20.6830 C   0  0  0  0  0  2  0  0  0  0  0  0
  -29.6040  -13.9430   19.9910 N   0  0  0  0  0  0  0  0  0  0  0  0
  -31.2260  -15.3780   19.5500 O   0  0  0  0  0  0  0  0  0  0  0  0
  -24.9790  -13.6160   20.5940 C   0  0  0  0  0  0  0  0  0  0  0  0
  -23.9920  -12.7700   21.0170 C   0  0  0  0  0  0  0  0  0  0  0  0
  -24.5250  -11.4490   20.8960 C   0  0  0  0  0  0  0  0  0  0  0  0
  -26.0430  -12.8090   20.2340 N   0  0  0  0  0  0  0  0  0  0  0  0
  -25.7870  -11.4970   20.4820 N   0  0  0  0  0  0  0  0  0  0  0  0
  -23.8810  -10.1430   21.0950 C   0  0  0  0  0  0  0  0  0  0  0  0
  -24.3750   -9.2090   22.0340 C   0  0  0  0  0  3  0  0  0  0  0  0
  -23.7240   -7.9710   22.2230 C   0  0  0  0  0  3  0  0  0  0  0  0
  -22.5660   -7.6560   21.4730 C   0  0  0  0  0  0  0  0  0  0  0  0
  -22.0910   -8.5780   20.5260 C   0  0  0  0  0  3  0  0  0  0  0  0
  -22.7430   -9.8090   20.3350 C   0  0  0  0  0  3  0  0  0  0  0  0
  -21.8840   -6.4660   21.5710 O   0  0  0  0  0  0  0  0  0  0  0  0
  -21.8250   -5.7650   22.7480 C   0  0  0  0  0  0  0  0  0  0  0  0
  -21.2650   -6.3210   23.9190 C   0  0  0  0  0  3  0  0  0  0  0  0
  -21.1600   -5.5410   25.0890 C   0  0  0  0  0  3  0  0  0  0  0  0
  -21.6050   -4.2050   25.0870 C   0  0  0  0  0  0  0  0  0  0  0  0
  -22.1580   -3.6480   23.9210 C   0  0  0  0  0  3  0  0  0  0  0  0
  -22.2640   -4.4250   22.7540 C   0  0  0  0  0  0  0  0  0  0  0  0
  -22.7770   -3.8760   21.6270 F   0  0  0  0  0  0  0  0  0  0  0  0
  -21.4980   -3.4540   26.2080 F   0  0  0  0  0  0  0  0  0  0  0  0
  -22.5990  -13.1600   21.4150 C   0  0  0  0  0  0  0  0  0  0  0  0
  -21.9830  -12.3990   22.3130 N   0  0  0  0  0  0  0  0  0  0  0  0
  -22.0680  -14.1750   20.9670 O   0  0  0  0  0  0  0  0  0  0  0  0
  -22.4290  -11.5790   22.6940 H   0  0  0  0  0  0  0  0  0  0  0  0
  -21.0540  -12.6430   22.6260 H   0  0  0  0  0  0  0  0  0  0  0  0
  -25.0530  -15.0000   20.4600 N   0  0  0  0  0  0  0  0  0  0  0  0
  -24.2660  -15.6040   20.6680 H   0  0  0  0  0  0  0  0  0  0  0  0
  -25.8530  -15.5030   20.0950 H   0  0  0  0  0  0  0  0  0  0  0  0
  1  2  1  0
  3  1  2  0
  4  7  1  0
  4  2  2  0
  5 51  1  0
  5  6  1  0
  5  3  1  0
  6 10  1  0
  6  4  1  0
  8  9  1  0
  9  3  1  0
 10 12  1  0
 11 22  2  0
 12 17  1  0
 13 21  1  0
 13 23  1  0
 14 20  1  0
 14 16  1  0
 15 21  1  0
 16 15  1  0
 17 16  2  0
 18 19  1  0
 18 12  2  0
 19 14  2  0
 20 13  1  0
 21 11  1  0
 23 25  2  0
 24 23  1  0
 26 24  1  0
 27 36  2  0
 27 32  1  0
 28 24  1  0
 28 32  1  0
 29 28  1  0
 30 31  1  0
 30 29  1  0
 31 27  1  0
 32 33  2  0
 33 34  1  0
 35 34  2  0
 36 35  1  0
 37 11  1  0
 37 38  1  0
 37 47  1  0
 38 41  1  0
 39 43  1  0
 39 38  1  0
 40 39  2  0
 43 42  1  0
 45 43  1  0
 45 46  1  0
 45 44  1  0
 47 50  1  1
 47 48  1  0
 49 47  1  0
 51 52  1  0
 53 54  1  0
 53 52  2  0
 55 54  1  0
 56 61  1  0
 57 58  1  0
 57 56  1  0
 59 58  1  0
 59 66  1  0
 59 60  1  0
 61 55  1  0
 61 60  1  0
 62 55  2  0
 63 64  2  0
 64 83  1  0
 65 64  1  0
 65 68  1  0
 66 67  1  0
 66 63  1  0
 67 65  2  0
 68 69  1  0
 69 70  2  0
 71 74  1  0
 71 70  1  0
 72 71  2  0
 73 72  1  0
 73 68  2  0
 74 75  1  0
 75 80  2  0
 75 76  1  0
 76 77  2  0
 78 77  1  0
 78 82  1  0
 79 78  2  0
 80 79  1  0
 81 80  1  0
 83 84  1  0
 84 87  1  0
 84 86  1  0
 85 83  2  0
 88 63  1  0
 88 89  1  0
 90 88  1  0
M  ISO  4   6 101  10 101  54 100  55 100
M  END
>  <TORSDO>  (59) 
F 21

>  <SCORE>  (59) 
-14.194

>  <name>  (59) 
58

>  <ligand_id>  (59) 
58

>  <original_smiles>  (59) 
[H]c1c([H])c([H])c2c(c1[H])C([H])([H])C([H])([H])C([H])([H])C2([H])N([H])C(=O)C1([H])N(C(=O)C([H])(N([H])C(=O)C([H])(N([H])C([H])([H])[H])C([H])([H])[H])C(C([H])([H])[H])(C([H])([H])[H])C([H])([H])[H])C([H])([H])c2c([H])c(Oc3c(C([H])([H])[H])c([H])c([H])c(C([H])([H])C([H])([H])[H])c3C([H])([H])C([H])([H])C([H])([H])C([H])([H])C(=O)N3C([H])([H])C([H])([H])C([H])([H])C([H])(n4nc(-c5c([H])c([H])c(Oc6c([H])c([H])c(F)c([H])c6F)c([H])c5[H])c(C(=O)N([H])[H])c4N([H])[H])C3([H])[H])c([H])c([H])c2C1([H])[H]

>  <smiles>  (59) 
[H]c1c([H])c([H])c2c(c1[H])C([H])([H])C([H])([H])C([H])([H])C2([H])N([H])C(=O)C1([H])N(C(=O)C([H])(N([H])C(=O)C([H])(N([H])C([H])([H])[H])C([H])([H])[H])C(C([H])([H])[H])(C([H])([H])[H])C([H])([H])[H])C([H])([H])c2c([H])c(Oc3c(C([H])([H])[H])c([H])c([H])c(C([H])([H])C([H])([H])[H])c3C([H])([H])C([H])([H])C([H])([H])C([H])([H])C(=O)N3C([H])([H])C([H])([H])C([H])([H])C([H])(n4nc(-c5c([H])c([H])c(Oc6c([H])c([H])c(F)c([H])c6F)c([H])c5[H])c(C(=O)N([H])[H])c4N([H])[H])C3([H])[H])c([H])c([H])c2C1([H])[H]

$$$$
59:0:0
     RDKit          3D

 89 98  0  0  1  0  0  0  0  0999 V2000
  -29.1700  -23.4920   20.1680 C   0  0  0  0  0  3  0  0  0  0  0  0
  -27.0810  -23.9420   19.8360 C   0  0  0  0  0  3  0  0  0  0  0  0
  -28.2220  -24.6830   20.0300 C   0  0  0  0  0  0  0  0  0  0  0  0
  -28.6340  -22.1370   20.0770 C   0  0  0  0  0  0  0  0  0  0  0  0
  -26.1800  -21.6120   19.6980 C   0  0  0  0  0  1  0  0  0  0  0  0
  -27.2930  -22.5330   19.8620 N   0  0  0  0  0  0  0  0  0  0  0  0
  -30.8510  -18.1830   20.2870 C   0  0  0  0  0  3  0  0  0  0  0  0
  -30.0760  -17.0560   20.0110 C   0  0  0  0  0  0  0  0  0  0  0  0
  -30.5200  -19.7910   20.3680 C   0  0  0  0  0  3  0  0  0  0  0  0
  -28.6250  -17.6070   19.7300 C   0  0  0  0  0  3  0  0  0  0  0  0
  -28.3860  -19.2220   19.3800 C   0  0  0  0  0  3  0  0  0  0  0  0
  -29.0330  -20.4360   20.2500 C   0  0  0  0  0  0  0  0  0  0  0  0
  -30.7250  -15.5630   19.8770 C   0  0  0  0  0  0  0  0  0  0  0  0
  -30.6320  -13.1020   19.0840 C   0  0  0  0  0  2  0  0  0  0  0  0
  -29.6750  -12.8560   17.8930 C   0  0  0  0  0  2  0  0  0  0  0  0
  -28.2560  -12.5680   18.4050 C   0  0  0  0  0  2  0  0  0  0  0  0
  -27.8300  -13.5660   19.5100 C   0  0  0  0  0  3  0  0  0  0  0  0
  -28.9140  -13.7990   20.5820 C   0  0  0  0  0  2  0  0  0  0  0  0
  -30.1180  -14.2760   19.8900 N   0  0  0  0  0  0  0  0  0  0  0  0
  -31.9290  -15.4660   19.5890 O   0  0  0  0  0  0  0  0  0  0  0  0
  -25.5260  -14.1000   20.4500 C   0  0  0  0  0  0  0  0  0  0  0  0
  -24.4840  -13.3110   20.8540 C   0  0  0  0  0  0  0  0  0  0  0  0
  -24.9400  -11.9630   20.7340 C   0  0  0  0  0  0  0  0  0  0  0  0
  -26.5420  -13.2320   20.0980 N   0  0  0  0  0  0  0  0  0  0  0  0
  -26.2080  -11.9360   20.3400 N   0  0  0  0  0  0  0  0  0  0  0  0
  -24.2180  -10.6960   20.9210 C   0  0  0  0  0  0  0  0  0  0  0  0
  -24.6300   -9.7420   21.8760 C   0  0  0  0  0  3  0  0  0  0  0  0
  -23.9050   -8.5430   22.0490 C   0  0  0  0  0  3  0  0  0  0  0  0
  -22.7540   -8.2910   21.2670 C   0  0  0  0  0  0  0  0  0  0  0  0
  -22.3620   -9.2330   20.3000 C   0  0  0  0  0  3  0  0  0  0  0  0
  -23.0880  -10.4230   20.1260 C   0  0  0  0  0  3  0  0  0  0  0  0
  -22.0020   -7.1430   21.3480 O   0  0  0  0  0  0  0  0  0  0  0  0
  -21.8370   -6.4720   22.5340 C   0  0  0  0  0  0  0  0  0  0  0  0
  -21.2230   -7.0770   23.6530 C   0  0  0  0  0  3  0  0  0  0  0  0
  -21.0110   -6.3300   24.8280 C   0  0  0  0  0  3  0  0  0  0  0  0
  -21.4020   -4.9790   24.8850 C   0  0  0  0  0  0  0  0  0  0  0  0
  -22.0070   -4.3730   23.7690 C   0  0  0  0  0  3  0  0  0  0  0  0
  -22.2220   -5.1180   22.5970 C   0  0  0  0  0  0  0  0  0  0  0  0
  -22.7870   -4.5240   21.5180 F   0  0  0  0  0  0  0  0  0  0  0  0
  -21.1920   -4.2580   26.0110 F   0  0  0  0  0  0  0  0  0  0  0  0
  -23.1120  -13.7840   21.2280 C   0  0  0  0  0  0  0  0  0  0  0  0
  -22.4360  -13.0620   22.1140 N   0  0  0  0  0  0  0  0  0  0  0  0
  -22.6500  -14.8290   20.7720 O   0  0  0  0  0  0  0  0  0  0  0  0
  -22.8260  -12.2160   22.5030 H   0  0  0  0  0  0  0  0  0  0  0  0
  -21.5180  -13.3580   22.4090 H   0  0  0  0  0  0  0  0  0  0  0  0
  -25.6870  -15.4760   20.3270 N   0  0  0  0  0  0  0  0  0  0  0  0
  -24.9440  -16.1280   20.5550 H   0  0  0  0  0  0  0  0  0  0  0  0
  -26.5300  -15.9310   20.0030 H   0  0  0  0  0  0  0  0  0  0  0  0
  -28.3550  -26.2050   20.1030 O   0  0  0  0  0  0  0  0  0  0  0  0
  -24.6850  -31.9490   23.2920 C   0  0  0  0  0  0  0  0  0  0  0  0
  -27.3210  -27.2660   20.1020 C   0  0  0  0  0  0  0  0  0  0  0  0
  -23.5220  -30.6110   21.5830 C   0  0  0  0  0  3  0  0  0  0  0  0
  -25.0030  -29.0980   20.1040 C   0  0  0  0  0  0  0  0  0  0  0  0
  -26.0830  -30.8710   21.4680 C   0  0  0  0  0  2  0  0  0  0  0  0
  -26.1750  -29.4930   20.7600 C   0  0  0  0  0  0  0  0  0  0  0  0
  -27.3280  -28.5950   20.7440 C   0  0  0  0  0  3  0  0  0  0  0  0
  -26.1300  -27.0290   19.3820 C   0  0  0  0  0  3  0  0  0  0  0  0
  -25.0030  -27.8860   19.3950 C   0  0  0  0  0  3  0  0  0  0  0  0
  -23.7700  -29.9960   20.1790 C   0  0  0  0  0  2  0  0  0  0  0  0
  -24.7840  -31.1690   22.1690 N   0  0  0  0  0  0  0  0  0  0  0  0
  -23.5890  -32.2000   23.8180 O   0  0  0  0  0  0  0  0  0  0  0  0
  -22.8380  -29.5620   22.4950 C   0  0  0  0  0  0  0  0  0  0  0  0
  -21.5130  -29.3780   22.3450 N   0  0  0  0  0  0  0  0  0  0  0  0
  -23.5050  -28.9180   23.3090 O   0  0  0  0  0  0  0  0  0  0  0  0
  -21.0270  -29.9530   21.6720 H   0  0  0  0  0  0  0  0  0  0  0  0
  -18.1390  -28.1280   22.7960 C   0  0  0  0  0  0  0  0  0  0  0  0
  -20.6990  -28.3940   23.0670 C   0  0  0  0  0  3  0  0  0  0  0  0
  -20.8060  -26.9970   22.4120 C   0  0  0  0  0  2  0  0  0  0  0  0
  -19.7010  -26.7250   21.3850 C   0  0  0  0  0  2  0  0  0  0  0  0
  -18.3220  -26.8220   22.0410 C   0  0  0  0  0  2  0  0  0  0  0  0
  -19.2540  -28.8740   23.2630 C   0  0  0  0  0  0  0  0  0  0  0  0
  -19.0270  -30.0950   23.9320 C   0  0  0  0  0  3  0  0  0  0  0  0
  -17.7190  -30.5730   24.1370 C   0  0  0  0  0  3  0  0  0  0  0  0
  -16.6190  -29.8230   23.6850 C   0  0  0  0  0  3  0  0  0  0  0  0
  -16.8300  -28.6030   23.0190 C   0  0  0  0  0  3  0  0  0  0  0  0
  -25.9440  -32.5780   23.9630 C   0  0  0  0  0  3  0  0  0  0  0  0
  -25.6340  -33.9850   24.2760 N   0  0  0  0  0  0  0  0  0  0  0  0
  -25.9580  -35.0310   23.5030 C   0  0  0  0  0  0  0  0  0  0  0  0
  -26.6130  -34.9140   22.4650 O   0  0  0  0  0  0  0  0  0  0  0  0
  -25.0500  -34.1480   25.0820 H   0  0  0  0  0  0  0  0  0  0  0  0
  -24.2060  -36.8120   23.1970 C   0  0  0  0  0  1  0  0  0  0  0  0
  -25.4850  -36.4280   23.9560 C   0  0  0  0  0  3  0  0  0  0  0  0
  -27.6400  -37.3580   24.6820 C   0  0  0  0  0  1  0  0  0  0  0  0
  -26.5040  -37.4840   23.7720 N   0  0  0  0  0  0  0  0  0  0  0  0
  -26.0970  -38.4060   23.9010 H   0  0  0  0  0  0  0  0  0  0  0  0
  -26.3930  -31.8170   25.2720 C   0  0  1  0  0  0  0  0  0  0  0  0
  -25.2510  -31.6040   26.2920 C   0  0  0  0  0  1  0  0  0  0  0  0
  -26.9810  -30.4270   24.9300 C   0  0  0  0  0  1  0  0  0  0  0  0
  -27.5210  -32.6080   25.9760 C   0  0  0  0  0  1  0  0  0  0  0  0
  2  6  1  0
  2  3  2  0
  3 49  1  0
  3  1  1  0
  4  1  2  0
  4 12  1  0
  5  6  1  0
  6  4  1  0
  7  9  1  0
  8  7  2  0
 10  8  1  0
 11 10  2  0
 11 12  1  0
 12  9  2  0
 13 19  1  0
 13  8  1  0
 14 19  1  0
 15 16  1  0
 15 14  1  0
 17 16  1  0
 17 24  1  0
 17 18  1  0
 19 18  1  0
 20 13  2  0
 21 22  2  0
 22 41  1  0
 23 22  1  0
 23 26  1  0
 24 25  1  0
 24 21  1  0
 25 23  2  0
 26 27  1  0
 27 28  2  0
 29 32  1  0
 29 28  1  0
 30 29  2  0
 31 30  1  0
 31 26  2  0
 32 33  1  0
 33 38  2  0
 33 34  1  0
 34 35  2  0
 35 36  1  0
 36 40  1  0
 37 36  2  0
 38 37  1  0
 39 38  1  0
 41 42  1  0
 42 45  1  0
 42 44  1  0
 43 41  2  0
 46 21  1  0
 46 47  1  0
 48 46  1  0
 50 61  2  0
 51 49  1  0
 51 56  1  0
 52 60  1  0
 52 62  1  0
 53 59  1  0
 53 55  1  0
 54 60  1  0
 55 54  1  0
 56 55  2  0
 57 58  1  0
 57 51  2  0
 58 53  2  0
 59 52  1  0
 60 50  1  0
 62 64  2  0
 63 62  1  0
 65 63  1  0
 66 75  2  0
 66 71  1  0
 67 63  1  0
 67 71  1  0
 68 67  1  0
 69 70  1  0
 69 68  1  0
 70 66  1  0
 71 72  2  0
 72 73  1  0
 74 73  2  0
 75 74  1  0
 76 50  1  0
 76 77  1  0
 76 86  1  0
 77 80  1  0
 78 82  1  0
 78 77  1  0
 79 78  2  0
 82 81  1  0
 84 85  1  0
 84 82  1  0
 84 83  1  0
 86 89  1  1
 86 87  1  0
 88 86  1  0
M  ISO  4   3 101   8 100  13 100  49 101
M  END
>  <TORSDO>  (60) 
F 17

>  <SCORE>  (60) 
-14.683

>  <name>  (60) 
59

>  <ligand_id>  (60) 
59

>  <original_smiles>  (60) 
[H]C1=C(C(=O)N2C([H])([H])C([H])([H])C([H])([H])C([H])(n3nc(-c4c([H])c([H])c(Oc5c([H])c([H])c(F)c([H])c5F)c([H])c4[H])c(C(=O)N([H])[H])c3N([H])[H])C2([H])[H])C([H])([H])C([H])([H])C([H])(c2c([H])c(Oc3c([H])c([H])c4c(c3[H])C([H])([H])N(C(=O)C([H])(N([H])C(=O)C([H])(N([H])C([H])([H])[H])C([H])([H])[H])C(C([H])([H])[H])(C([H])([H])[H])C([H])([H])[H])C([H])(C(=O)N([H])C3([H])c5c([H])c([H])c([H])c([H])c5C([H])([H])C([H])([H])C3([H])[H])C4([H])[H])c([H])n2C([H])([H])[H])C1([H])[H]

>  <smiles>  (60) 
[H]C1=C(C(=O)N2C([H])([H])C([H])([H])C([H])([H])C([H])(n3nc(-c4c([H])c([H])c(Oc5c([H])c([H])c(F)c([H])c5F)c([H])c4[H])c(C(=O)N([H])[H])c3N([H])[H])C2([H])[H])C([H])([H])C([H])([H])C([H])(c2c([H])c(Oc3c([H])c([H])c4c(c3[H])C([H])([H])N(C(=O)C([H])(N([H])C(=O)C([H])(N([H])C([H])([H])[H])C([H])([H])[H])C(C([H])([H])[H])(C([H])([H])[H])C([H])([H])[H])C([H])(C(=O)N([H])C3([H])c5c([H])c([H])c([H])c([H])c5C([H])([H])C([H])([H])C3([H])[H])C4([H])[H])c([H])n2C([H])([H])[H])C1([H])[H]

$$$$
60:0:0
     RDKit          3D

106114  0  0  1  0  0  0  0  0999 V2000
  -30.2260  -17.2230   20.1820 C   0  0  0  0  0  3  0  0  0  0  0  0
  -30.6620  -14.6580   20.4590 C   0  0  0  0  0  0  0  0  0  0  0  0
  -30.5630  -12.2050   20.2090 C   0  0  0  0  0  2  0  0  0  0  0  0
  -29.8100  -11.8820   18.9010 C   0  0  0  0  0  2  0  0  0  0  0  0
  -28.2960  -11.7930   19.1670 C   0  0  0  0  0  2  0  0  0  0  0  0
  -27.7530  -12.9980   19.9860 C   0  0  0  0  0  3  0  0  0  0  0  0
  -28.6510  -13.3050   21.2060 C   0  0  0  0  0  2  0  0  0  0  0  0
  -30.0270  -13.4800   20.7210 N   0  0  0  0  0  0  0  0  0  0  0  0
  -31.8380  -14.6740   20.0970 O   0  0  0  0  0  0  0  0  0  0  0  0
  -29.9010  -15.7830   20.4720 N   0  0  0  0  0  0  0  0  0  0  0  0
  -28.9430  -15.6150   20.7370 H   0  0  0  0  0  0  0  0  0  0  0  0
  -25.3530  -13.7340   20.5530 C   0  0  0  0  0  0  0  0  0  0  0  0
  -24.2220  -13.0270   20.8460 C   0  0  0  0  0  0  0  0  0  0  0  0
  -24.6020  -11.6480   20.8300 C   0  0  0  0  0  0  0  0  0  0  0  0
  -26.3600  -12.7970   20.3780 N   0  0  0  0  0  0  0  0  0  0  0  0
  -25.9070  -11.5360   20.6050 N   0  0  0  0  0  0  0  0  0  0  0  0
  -23.7900  -10.4310   20.9630 C   0  0  0  0  0  0  0  0  0  0  0  0
  -24.0600   -9.4680   21.9600 C   0  0  0  0  0  3  0  0  0  0  0  0
  -23.2570   -8.3130   22.0760 C   0  0  0  0  0  3  0  0  0  0  0  0
  -22.1710   -8.1130   21.1940 C   0  0  0  0  0  0  0  0  0  0  0  0
  -21.9180   -9.0620   20.1880 C   0  0  0  0  0  3  0  0  0  0  0  0
  -22.7210  -10.2080   20.0700 C   0  0  0  0  0  3  0  0  0  0  0  0
  -21.3490   -7.0110   21.2170 O   0  0  0  0  0  0  0  0  0  0  0  0
  -21.0680   -6.3440   22.3820 C   0  0  0  0  0  0  0  0  0  0  0  0
  -20.4680   -6.9920   23.4840 C   0  0  0  0  0  3  0  0  0  0  0  0
  -20.1360   -6.2540   24.6390 C   0  0  0  0  0  3  0  0  0  0  0  0
  -20.3940   -4.8710   24.6890 C   0  0  0  0  0  0  0  0  0  0  0  0
  -20.9870   -4.2240   23.5910 C   0  0  0  0  0  3  0  0  0  0  0  0
  -21.3220   -4.9590   22.4410 C   0  0  0  0  0  0  0  0  0  0  0  0
  -21.8760   -4.3290   21.3770 F   0  0  0  0  0  0  0  0  0  0  0  0
  -20.0650   -4.1590   25.7940 F   0  0  0  0  0  0  0  0  0  0  0  0
  -22.8390  -13.5840   21.0290 C   0  0  0  0  0  0  0  0  0  0  0  0
  -22.0150  -12.9330   21.8410 N   0  0  0  0  0  0  0  0  0  0  0  0
  -22.4980  -14.6350   20.4850 O   0  0  0  0  0  0  0  0  0  0  0  0
  -22.3000  -12.0880   22.3110 H   0  0  0  0  0  0  0  0  0  0  0  0
  -21.0850  -13.2930   22.0020 H   0  0  0  0  0  0  0  0  0  0  0  0
  -25.6100  -15.0950   20.4050 N   0  0  0  0  0  0  0  0  0  0  0  0
  -24.8710  -15.7890   20.4590 H   0  0  0  0  0  0  0  0  0  0  0  0
  -26.4980  -15.4750   20.1080 H   0  0  0  0  0  0  0  0  0  0  0  0
  -28.9270  -18.1270   20.2460 C   0  0  0  0  0  2  0  0  0  0  0  0
  -28.3230  -18.7980   18.9650 C   0  0  0  0  0  2  0  0  0  0  0  0
  -28.6150  -20.3140   18.6700 C   0  0  0  0  0  2  0  0  0  0  0  0
  -27.5640  -21.3910   19.0940 C   0  0  0  0  0  2  0  0  0  0  0  0
  -28.1940  -22.7830   19.4390 C   0  0  0  0  0  2  0  0  0  0  0  0
  -27.4020  -24.0850   19.0940 C   0  0  0  0  0  2  0  0  0  0  0  0
  -27.8540  -25.3260   19.9310 C   0  0  0  0  0  2  0  0  0  0  0  0
  -27.8280  -26.6220   19.2960 O   0  0  0  0  0  0  0  0  0  0  0  0
  -24.7660  -31.7020   23.3190 C   0  0  0  0  0  0  0  0  0  0  0  0
  -26.7360  -27.4340   19.5300 C   0  0  0  0  0  0  0  0  0  0  0  0
  -23.3150  -30.6190   21.6360 C   0  0  0  0  0  3  0  0  0  0  0  0
  -24.5060  -29.1340   19.9330 C   0  0  0  0  0  0  0  0  0  0  0  0
  -25.8400  -30.7740   21.2650 C   0  0  0  0  0  2  0  0  0  0  0  0
  -25.7500  -29.4820   20.4730 C   0  0  0  0  0  0  0  0  0  0  0  0
  -26.8710  -28.6410   20.2650 C   0  0  0  0  0  3  0  0  0  0  0  0
  -25.4730  -27.0980   19.0030 C   0  0  0  0  0  3  0  0  0  0  0  0
  -24.3610  -27.9410   19.2010 C   0  0  0  0  0  3  0  0  0  0  0  0
  -23.3590  -30.0940   20.1760 C   0  0  0  0  0  2  0  0  0  0  0  0
  -24.6660  -31.0370   22.1320 N   0  0  0  0  0  0  0  0  0  0  0  0
  -23.7570  -32.0000   23.9730 O   0  0  0  0  0  0  0  0  0  0  0  0
  -22.6380  -29.5500   22.5250 C   0  0  0  0  0  0  0  0  0  0  0  0
  -21.3080  -29.4260   22.4050 N   0  0  0  0  0  0  0  0  0  0  0  0
  -23.3110  -28.8380   23.2760 O   0  0  0  0  0  0  0  0  0  0  0  0
  -20.8290  -30.0600   21.7790 H   0  0  0  0  0  0  0  0  0  0  0  0
  -17.9150  -28.2270   22.7670 C   0  0  0  0  0  0  0  0  0  0  0  0
  -20.4690  -28.4570   23.1110 C   0  0  0  0  0  3  0  0  0  0  0  0
  -20.5760  -27.0540   22.4720 C   0  0  0  0  0  2  0  0  0  0  0  0
  -19.4960  -26.7850   21.4190 C   0  0  0  0  0  2  0  0  0  0  0  0
  -18.1000  -26.9100   22.0350 C   0  0  0  0  0  2  0  0  0  0  0  0
  -19.0280  -28.9620   23.2590 C   0  0  0  0  0  0  0  0  0  0  0  0
  -18.8020  -30.1980   23.9030 C   0  0  0  0  0  3  0  0  0  0  0  0
  -17.4980  -30.6990   24.0630 C   0  0  0  0  0  3  0  0  0  0  0  0
  -16.3980  -29.9630   23.5880 C   0  0  0  0  0  3  0  0  0  0  0  0
  -16.6100  -28.7290   22.9450 C   0  0  0  0  0  3  0  0  0  0  0  0
  -26.1480  -32.1390   23.9020 C   0  0  0  0  0  3  0  0  0  0  0  0
  -25.9950  -33.5060   24.4160 N   0  0  0  0  0  0  0  0  0  0  0  0
  -26.3940  -34.6120   23.7740 C   0  0  0  0  0  0  0  0  0  0  0  0
  -27.0040  -34.5790   22.7020 O   0  0  0  0  0  0  0  0  0  0  0  0
  -25.4650  -33.6060   25.2700 H   0  0  0  0  0  0  0  0  0  0  0  0
  -24.8400  -36.5930   23.7380 C   0  0  0  0  0  1  0  0  0  0  0  0
  -26.0680  -35.9710   24.4240 C   0  0  0  0  0  3  0  0  0  0  0  0
  -28.3130  -36.5370   25.2450 C   0  0  0  0  0  1  0  0  0  0  0  0
  -27.1960  -36.9290   24.3880 N   0  0  0  0  0  0  0  0  0  0  0  0
  -26.8910  -37.8530   24.6770 H   0  0  0  0  0  0  0  0  0  0  0  0
  -26.6820  -31.1780   25.0350 C   0  0  1  0  0  0  0  0  0  0  0  0
  -25.6550  -30.9100   26.1610 C   0  0  0  0  0  1  0  0  0  0  0  0
  -27.1000  -29.8140   24.4380 C   0  0  0  0  0  1  0  0  0  0  0  0
  -27.9510  -31.7820   25.6840 C   0  0  0  0  0  1  0  0  0  0  0  0
  -31.2010  -17.4490   18.9800 C   0  0  0  0  0  2  0  0  0  0  0  0
  -31.4350  -18.8780   18.4280 C   0  0  0  0  0  2  0  0  0  0  0  0
  -34.9520  -20.1890   19.2830 C   0  0  0  0  0  3  0  0  0  0  0  0
  -33.8970  -19.5670   18.5960 C   0  0  0  0  0  0  0  0  0  0  0  0
  -34.7350  -20.9010   20.4720 C   0  0  0  0  0  0  0  0  0  0  0  0
  -32.5780  -19.6380   19.1210 C   0  0  0  0  0  0  0  0  0  0  0  0
  -33.4250  -21.0340   20.9850 C   0  0  0  0  0  0  0  0  0  0  0  0
  -32.3450  -20.4060   20.3040 C   0  0  0  0  0  0  0  0  0  0  0  0
  -34.2580  -18.8240   17.3130 C   0  0  0  0  0  1  0  0  0  0  0  0
  -30.1920  -21.7470   20.2560 C   0  0  0  0  0  1  0  0  0  0  0  0
  -30.9380  -20.5530   20.8620 C   0  0  0  0  0  2  0  0  0  0  0  0
  -33.1820  -21.8020   22.2930 C   0  0  0  0  0  2  0  0  0  0  0  0
  -33.2390  -20.8710   23.5190 C   0  0  0  0  0  2  0  0  0  0  0  0
  -31.0940  -20.8830   24.9420 C   0  0  0  0  0  1  0  0  0  0  0  0
  -32.5180  -21.4260   24.7620 C   0  0  0  0  0  2  0  0  0  0  0  0
  -35.9450  -21.5140   21.1590 C   0  0  0  0  0  2  0  0  0  0  0  0
  -36.5450  -22.6760   20.3470 C   0  0  0  0  0  2  0  0  0  0  0  0
  -38.5150  -21.5550   19.1590 C   0  0  0  0  0  1  0  0  0  0  0  0
  -38.0710  -22.5810   20.2090 C   0  0  0  0  0  2  0  0  0  0  0  0
  1 88  1  0
  1 40  1  0
  1 10  1  0
  2 10  1  0
  2  8  1  0
  3  8  1  0
  4  5  1  0
  4  3  1  0
  6  5  1  0
  6 15  1  0
  6  7  1  0
  8  7  1  0
  9  2  2  0
 10 11  1  0
 12 13  2  0
 13 32  1  0
 14 13  1  0
 14 17  1  0
 15 12  1  0
 15 16  1  0
 16 14  2  0
 17 18  1  0
 18 19  2  0
 20 23  1  0
 20 19  1  0
 21 20  2  0
 22 21  1  0
 22 17  2  0
 23 24  1  0
 24 29  2  0
 24 25  1  0
 25 26  2  0
 26 27  1  0
 27 31  1  0
 28 27  2  0
 29 28  1  0
 30 29  1  0
 32 33  1  0
 33 36  1  0
 33 35  1  0
 34 32  2  0
 37 38  1  0
 37 12  1  0
 39 37  1  0
 41 40  1  0
 42 41  1  0
 42 43  1  0
 43 44  1  0
 45 44  1  0
 45 46  1  0
 47 49  1  0
 47 46  1  0
 48 59  2  0
 49 54  1  0
 50 58  1  0
 50 60  1  0
 51 57  1  0
 51 53  1  0
 52 58  1  0
 53 52  1  0
 54 53  2  0
 55 56  1  0
 55 49  2  0
 56 51  2  0
 57 50  1  0
 58 48  1  0
 60 62  2  0
 61 60  1  0
 63 61  1  0
 64 73  2  0
 64 69  1  0
 65 61  1  0
 65 69  1  0
 66 65  1  0
 67 68  1  0
 67 66  1  0
 68 64  1  0
 69 70  2  0
 70 71  1  0
 72 71  2  0
 73 72  1  0
 74 48  1  0
 74 75  1  0
 74 84  1  0
 75 78  1  0
 76 75  1  0
 76 80  1  0
 77 76  2  0
 80 79  1  0
 82 80  1  0
 82 83  1  0
 82 81  1  0
 84 87  1  1
 84 85  1  0
 86 84  1  0
 89 88  1  0
 89 93  1  0
 90 92  1  0
 91 93  1  0
 91 90  2  0
 92 94  2  0
 92103  1  0
 93 95  2  0
 94 99  1  0
 95 98  1  0
 95 94  1  0
 96 91  1  0
 97 98  1  0
 99100  1  0
100102  1  0
102101  1  0
104103  1  0
105106  1  0
106104  1  0
M  ISO  4   2 100  10 100  46 101  47 101
M  END
>  <TORSDO>  (61) 
F 33

>  <SCORE>  (61) 
-8.342

>  <name>  (61) 
60

>  <ligand_id>  (61) 
60

>  <original_smiles>  (61) 
[H]c1c([H])c([H])c2c(c1[H])C([H])([H])C([H])([H])C([H])([H])C2([H])N([H])C(=O)C1([H])N(C(=O)C([H])(N([H])C(=O)C([H])(N([H])C([H])([H])[H])C([H])([H])[H])C(C([H])([H])[H])(C([H])([H])[H])C([H])([H])[H])C([H])([H])c2c([H])c(OC([H])([H])C([H])([H])C([H])([H])C([H])([H])C([H])([H])C([H])([H])C([H])([H])C([H])(N([H])C(=O)N3C([H])([H])C([H])([H])C([H])([H])C([H])(n4nc(-c5c([H])c([H])c(Oc6c([H])c([H])c(F)c([H])c6F)c([H])c5[H])c(C(=O)N([H])[H])c4N([H])[H])C3([H])[H])C([H])([H])C([H])([H])c3c(C([H])([H])[H])c([H])c(C([H])([H])C([H])([H])C([H])([H])C([H])([H])[H])c(C([H])([H])C([H])([H])C([H])([H])C([H])([H])[H])c3C([H])([H])C([H])([H])[H])c([H])c([H])c2C1([H])[H]

>  <smiles>  (61) 
[H]c1c([H])c([H])c2c(c1[H])C([H])([H])C([H])([H])C([H])([H])C2([H])N([H])C(=O)C1([H])N(C(=O)C([H])(N([H])C(=O)C([H])(N([H])C([H])([H])[H])C([H])([H])[H])C(C([H])([H])[H])(C([H])([H])[H])C([H])([H])[H])C([H])([H])c2c([H])c(OC([H])([H])C([H])([H])C([H])([H])C([H])([H])C([H])([H])C([H])([H])C([H])([H])C([H])(N([H])C(=O)N3C([H])([H])C([H])([H])C([H])([H])C([H])(n4nc(-c5c([H])c([H])c(Oc6c([H])c([H])c(F)c([H])c6F)c([H])c5[H])c(C(=O)N([H])[H])c4N([H])[H])C3([H])[H])C([H])([H])C([H])([H])c3c(C([H])([H])[H])c([H])c(C([H])([H])C([H])([H])C([H])([H])C([H])([H])[H])c(C([H])([H])C([H])([H])C([H])([H])C([H])([H])[H])c3C([H])([H])C([H])([H])[H])c([H])c([H])c2C1([H])[H]

$$$$
61:0:0
     RDKit          3D

 95103  0  0  1  0  0  0  0  0999 V2000
  -28.9960  -23.5210   18.7300 C   0  0  0  0  0  3  0  0  0  0  0  0
  -28.9770  -24.9180   18.5150 C   0  0  0  0  0  3  0  0  0  0  0  0
  -26.7260  -25.0180   19.3980 C   0  0  0  0  0  3  0  0  0  0  0  0
  -27.8770  -22.8450   19.2680 C   0  0  0  0  0  0  0  0  0  0  0  0
  -26.7370  -23.6180   19.6250 C   0  0  0  0  0  0  0  0  0  0  0  0
  -27.8330  -25.6800   18.8290 C   0  0  0  0  0  0  0  0  0  0  0  0
  -27.8240  -27.0500   18.6100 O   0  0  0  0  0  0  0  0  0  0  0  0
  -24.5150  -31.5820   23.0290 C   0  0  0  0  0  0  0  0  0  0  0  0
  -26.6900  -27.7850   18.8900 C   0  0  0  0  0  0  0  0  0  0  0  0
  -23.1150  -30.5890   21.2470 C   0  0  0  0  0  3  0  0  0  0  0  0
  -24.3750  -29.3300   19.4190 C   0  0  0  0  0  0  0  0  0  0  0  0
  -25.6310  -30.9010   20.9050 C   0  0  0  0  0  2  0  0  0  0  0  0
  -25.6000  -29.6860   20.0000 C   0  0  0  0  0  0  0  0  0  0  0  0
  -26.7590  -28.9180   19.7370 C   0  0  0  0  0  3  0  0  0  0  0  0
  -25.4480  -27.4510   18.3060 C   0  0  0  0  0  3  0  0  0  0  0  0
  -24.2930  -28.2120   18.5730 C   0  0  0  0  0  3  0  0  0  0  0  0
  -23.1800  -30.1990   19.7460 C   0  0  0  0  0  2  0  0  0  0  0  0
  -24.4430  -31.0260   21.7860 N   0  0  0  0  0  0  0  0  0  0  0  0
  -23.4950  -31.7690   23.7060 O   0  0  0  0  0  0  0  0  0  0  0  0
  -22.4940  -29.4130   22.0340 C   0  0  0  0  0  0  0  0  0  0  0  0
  -21.1560  -29.3080   21.9980 N   0  0  0  0  0  0  0  0  0  0  0  0
  -23.2090  -28.6060   22.6340 O   0  0  0  0  0  0  0  0  0  0  0  0
  -20.6390  -30.0150   21.4940 H   0  0  0  0  0  0  0  0  0  0  0  0
  -17.7740  -28.2260   22.6650 C   0  0  0  0  0  0  0  0  0  0  0  0
  -20.3580  -28.2560   22.6290 C   0  0  0  0  0  3  0  0  0  0  0  0
  -20.2600  -27.0090   21.7200 C   0  0  0  0  0  2  0  0  0  0  0  0
  -19.0190  -27.0140   20.8230 C   0  0  0  0  0  2  0  0  0  0  0  0
  -17.7450  -27.0770   21.6690 C   0  0  0  0  0  2  0  0  0  0  0  0
  -19.0010  -28.7900   23.1020 C   0  0  0  0  0  0  0  0  0  0  0  0
  -18.9730  -29.8810   23.9980 C   0  0  0  0  0  3  0  0  0  0  0  0
  -17.7490  -30.4020   24.4600 C   0  0  0  0  0  3  0  0  0  0  0  0
  -16.5380  -29.8290   24.0360 C   0  0  0  0  0  3  0  0  0  0  0  0
  -16.5510  -28.7410   23.1430 C   0  0  0  0  0  3  0  0  0  0  0  0
  -25.8770  -32.0310   23.6480 C   0  0  0  0  0  3  0  0  0  0  0  0
  -26.4480  -31.0050   24.7030 C   0  0  1  0  0  0  0  0  0  0  0  0
  -25.4310  -30.6110   25.8000 C   0  0  0  0  0  1  0  0  0  0  0  0
  -26.9150  -29.7060   24.0040 C   0  0  0  0  0  1  0  0  0  0  0  0
  -27.6950  -31.6040   25.3990 C   0  0  0  0  0  1  0  0  0  0  0  0
  -25.6710  -33.3490   24.2630 N   0  0  0  0  0  0  0  0  0  0  0  0
  -26.0090  -34.5140   23.6950 C   0  0  0  0  0  0  0  0  0  0  0  0
  -26.6020  -34.5860   22.6150 O   0  0  0  0  0  0  0  0  0  0  0  0
  -25.1490  -33.3690   25.1260 H   0  0  0  0  0  0  0  0  0  0  0  0
  -24.3690  -36.4160   23.8170 C   0  0  0  0  0  1  0  0  0  0  0  0
  -25.6300  -35.8040   24.4460 C   0  0  0  0  0  3  0  0  0  0  0  0
  -27.8560  -36.4160   25.2840 C   0  0  0  0  0  1  0  0  0  0  0  0
  -26.7110  -36.8130   24.4690 N   0  0  0  0  0  0  0  0  0  0  0  0
  -26.3650  -37.7010   24.8210 H   0  0  0  0  0  0  0  0  0  0  0  0
  -27.9150  -21.3080   19.3810 C   0  0  0  0  0  2  0  0  0  0  0  0
  -29.1030  -20.7280   20.1880 C   0  0  0  0  0  2  0  0  0  0  0  0
  -29.0270  -19.1940   20.4410 C   0  0  0  0  0  2  0  0  0  0  0  0
  -30.3980  -18.5630   20.7940 C   0  0  0  0  0  2  0  0  0  0  0  0
  -30.3870  -17.3140   21.7190 C   0  0  0  0  0  2  0  0  0  0  0  0
  -30.5040  -15.1490   20.4450 C   0  0  0  0  0  0  0  0  0  0  0  0
  -30.3690  -12.9310   19.3550 C   0  0  0  0  0  2  0  0  0  0  0  0
  -29.4140  -12.9630   18.1440 C   0  0  0  0  0  2  0  0  0  0  0  0
  -27.9570  -12.7290   18.5870 C   0  0  0  0  0  2  0  0  0  0  0  0
  -27.5460  -13.6200   19.7900 C   0  0  0  0  0  3  0  0  0  0  0  0
  -28.6070  -13.5480   20.9090 C   0  0  0  0  0  2  0  0  0  0  0  0
  -29.9040  -13.9340   20.3260 N   0  0  0  0  0  0  0  0  0  0  0  0
  -31.5860  -15.4170   19.9130 O   0  0  0  0  0  0  0  0  0  0  0  0
  -29.8290  -16.0720   21.1600 N   0  0  0  0  0  0  0  0  0  0  0  0
  -28.9240  -15.7850   21.5030 H   0  0  0  0  0  0  0  0  0  0  0  0
  -25.1340  -14.0950   20.5450 C   0  0  0  0  0  0  0  0  0  0  0  0
  -24.1090  -13.2630   20.9130 C   0  0  0  0  0  0  0  0  0  0  0  0
  -24.6360  -11.9360   20.8470 C   0  0  0  0  0  0  0  0  0  0  0  0
  -26.2160  -13.2710   20.2810 N   0  0  0  0  0  0  0  0  0  0  0  0
  -25.9210  -11.9680   20.5220 N   0  0  0  0  0  0  0  0  0  0  0  0
  -23.9770  -10.6360   21.0220 C   0  0  0  0  0  0  0  0  0  0  0  0
  -24.4370   -9.6960   21.9690 C   0  0  0  0  0  3  0  0  0  0  0  0
  -23.7750   -8.4590   22.1290 C   0  0  0  0  0  3  0  0  0  0  0  0
  -22.6390   -8.1550   21.3420 C   0  0  0  0  0  0  0  0  0  0  0  0
  -22.1990   -9.0850   20.3830 C   0  0  0  0  0  3  0  0  0  0  0  0
  -22.8630  -10.3130   20.2210 C   0  0  0  0  0  3  0  0  0  0  0  0
  -21.9480   -6.9700   21.4110 O   0  0  0  0  0  0  0  0  0  0  0  0
  -21.8540   -6.2580   22.5810 C   0  0  0  0  0  0  0  0  0  0  0  0
  -21.3050   -6.8220   23.7530 C   0  0  0  0  0  3  0  0  0  0  0  0
  -21.1630   -6.0340   24.9120 C   0  0  0  0  0  3  0  0  0  0  0  0
  -21.5610   -4.6840   24.9000 C   0  0  0  0  0  0  0  0  0  0  0  0
  -22.1030   -4.1190   23.7330 C   0  0  0  0  0  3  0  0  0  0  0  0
  -22.2460   -4.9040   22.5750 C   0  0  0  0  0  0  0  0  0  0  0  0
  -22.7500   -4.3500   21.4460 F   0  0  0  0  0  0  0  0  0  0  0  0
  -21.4180   -3.9240   26.0110 F   0  0  0  0  0  0  0  0  0  0  0  0
  -22.6950  -13.6650   21.2140 C   0  0  0  0  0  0  0  0  0  0  0  0
  -22.0210  -12.9250   22.0900 N   0  0  0  0  0  0  0  0  0  0  0  0
  -22.1920  -14.6680   20.7100 O   0  0  0  0  0  0  0  0  0  0  0  0
  -22.4390  -12.1130   22.5190 H   0  0  0  0  0  0  0  0  0  0  0  0
  -21.0720  -13.1740   22.3340 H   0  0  0  0  0  0  0  0  0  0  0  0
  -25.2300  -15.4740   20.3970 N   0  0  0  0  0  0  0  0  0  0  0  0
  -24.4400  -16.0940   20.5400 H   0  0  0  0  0  0  0  0  0  0  0  0
  -26.0610  -15.9600   20.0830 H   0  0  0  0  0  0  0  0  0  0  0  0
  -25.4890  -23.0020   20.2380 C   0  0  0  0  0  2  0  0  0  0  0  0
  -24.2330  -23.2900   19.4010 C   0  0  0  0  0  2  0  0  0  0  0  0
  -22.9550  -23.3240   20.2500 C   0  0  0  0  0  2  0  0  0  0  0  0
  -20.4900  -23.9590   20.3330 C   0  0  0  0  0  1  0  0  0  0  0  0
  -21.7630  -23.9130   19.4830 C   0  0  0  0  0  2  0  0  0  0  0  0
  1  4  1  0
  2  1  2  0
  2  6  1  0
  3  5  1  0
  4 48  1  0
  4  5  2  0
  5 91  1  0
  6  3  2  0
  7  6  1  0
  7  9  1  0
  8 19  2  0
  9 14  1  0
 10 18  1  0
 10 20  1  0
 11 17  1  0
 11 13  1  0
 12 18  1  0
 13 12  1  0
 14 13  2  0
 15 16  1  0
 15  9  2  0
 16 11  2  0
 17 10  1  0
 18  8  1  0
 20 22  2  0
 21 20  1  0
 23 21  1  0
 24 29  2  0
 24 33  1  0
 25 21  1  0
 25 29  1  0
 26 25  1  0
 27 28  1  0
 27 26  1  0
 28 24  1  0
 29 30  1  0
 30 31  2  0
 32 31  1  0
 33 32  2  0
 34  8  1  0
 34 39  1  0
 34 35  1  0
 35 38  1  1
 35 36  1  0
 37 35  1  0
 39 42  1  0
 40 39  1  0
 40 44  1  0
 41 40  2  0
 44 43  1  0
 44 46  1  0
 46 47  1  0
 46 45  1  0
 48 49  1  0
 49 50  1  0
 50 51  1  0
 51 52  1  0
 53 61  1  0
 54 59  1  0
 55 56  1  0
 55 54  1  0
 57 56  1  0
 57 66  1  0
 57 58  1  0
 59 53  1  0
 59 58  1  0
 60 53  2  0
 61 62  1  0
 61 52  1  0
 63 64  2  0
 64 83  1  0
 65 64  1  0
 65 68  1  0
 66 67  1  0
 66 63  1  0
 67 65  2  0
 68 69  1  0
 69 70  2  0
 71 74  1  0
 71 70  1  0
 72 71  2  0
 73 72  1  0
 73 68  2  0
 74 75  1  0
 75 76  1  0
 76 77  2  0
 78 77  1  0
 78 82  1  0
 79 78  2  0
 80 75  2  0
 80 79  1  0
 81 80  1  0
 83 84  1  0
 84 87  1  0
 84 86  1  0
 85 83  2  0
 88 89  1  0
 88 63  1  0
 90 88  1  0
 92 91  1  0
 92 93  1  0
 95 93  1  0
 95 94  1  0
M  ISO  4   6 101   7 101  53 100  61 100
M  END
>  <TORSDO>  (62) 
F 25

>  <SCORE>  (62) 
-11.036

>  <name>  (62) 
61

>  <ligand_id>  (62) 
61

>  <original_smiles>  (62) 
[H]c1c([H])c([H])c2c(c1[H])C([H])([H])C([H])([H])C([H])([H])C2([H])N([H])C(=O)C1([H])N(C(=O)C([H])(N([H])C(=O)C([H])(N([H])C([H])([H])[H])C([H])([H])[H])C(C([H])([H])[H])(C([H])([H])[H])C([H])([H])[H])C([H])([H])c2c([H])c(Oc3c([H])c([H])c(C([H])([H])C([H])([H])C([H])([H])C([H])([H])C([H])([H])N([H])C(=O)N4C([H])([H])C([H])([H])C([H])([H])C([H])(n5nc(-c6c([H])c([H])c(Oc7c([H])c([H])c(F)c([H])c7F)c([H])c6[H])c(C(=O)N([H])[H])c5N([H])[H])C4([H])[H])c(C([H])([H])C([H])([H])C([H])([H])C([H])([H])C([H])([H])[H])c3[H])c([H])c([H])c2C1([H])[H]

>  <smiles>  (62) 
[H]c1c([H])c([H])c2c(c1[H])C([H])([H])C([H])([H])C([H])([H])C2([H])N([H])C(=O)C1([H])N(C(=O)C([H])(N([H])C(=O)C([H])(N([H])C([H])([H])[H])C([H])([H])[H])C(C([H])([H])[H])(C([H])([H])[H])C([H])([H])[H])C([H])([H])c2c([H])c(Oc3c([H])c([H])c(C([H])([H])C([H])([H])C([H])([H])C([H])([H])C([H])([H])N([H])C(=O)N4C([H])([H])C([H])([H])C([H])([H])C([H])(n5nc(-c6c([H])c([H])c(Oc7c([H])c([H])c(F)c([H])c7F)c([H])c6[H])c(C(=O)N([H])[H])c5N([H])[H])C4([H])[H])c(C([H])([H])C([H])([H])C([H])([H])C([H])([H])C([H])([H])[H])c3[H])c([H])c([H])c2C1([H])[H]

$$$$
62:0:0
     RDKit          3D

 91101  0  0  1  0  0  0  0  0999 V2000
  -30.4260  -15.3890   20.3040 C   0  0  0  0  0  0  0  0  0  0  0  0
  -30.4450  -12.9200   19.4560 C   0  0  0  0  0  2  0  0  0  0  0  0
  -29.5530  -12.6300   18.2230 C   0  0  0  0  0  2  0  0  0  0  0  0
  -28.1070  -12.3310   18.6500 C   0  0  0  0  0  2  0  0  0  0  0  0
  -27.6130  -13.3150   19.7380 C   0  0  0  0  0  3  0  0  0  0  0  0
  -28.6400  -13.5280   20.8720 C   0  0  0  0  0  2  0  0  0  0  0  0
  -29.8520  -14.0770   20.2360 N   0  0  0  0  0  0  0  0  0  0  0  0
  -31.6570  -15.3390   20.1350 O   0  0  0  0  0  0  0  0  0  0  0  0
  -28.6420  -23.6080   21.4690 C   0  0  0  0  0  3  0  0  0  0  0  0
  -28.5470  -21.8260   19.4020 C   0  0  0  0  0  0  0  0  0  0  0  0
  -28.9310  -21.1790   20.6380 C   0  0  0  0  0  0  0  0  0  0  0  0
  -28.2420  -23.2770   19.1670 C   0  0  0  0  0  0  0  0  0  0  0  0
  -28.2720  -24.3240   20.2340 C   0  0  0  0  0  0  0  0  0  0  0  0
  -28.9330  -22.1590   21.6980 C   0  0  0  0  0  0  0  0  0  0  0  0
  -28.5990  -20.3920   18.7690 C   0  0  0  0  0  2  0  0  0  0  0  0
  -27.9390  -18.5720   20.7630 C   0  0  0  0  0  2  0  0  0  0  0  0
  -28.2780  -17.0210   20.4920 C   0  0  0  0  0  2  0  0  0  0  0  0
  -30.1700  -18.2910   20.2200 C   0  0  0  0  0  2  0  0  0  0  0  0
  -28.9780  -19.5480   20.1570 C   0  0  2  0  0  0  0  0  0  0  0  0
  -27.8950  -23.7100   17.7580 C   0  0  0  0  0  1  0  0  0  0  0  0
  -29.7260  -16.7280   20.3310 N   0  0  0  0  0  0  0  0  0  0  0  0
  -29.1970  -21.7430   22.9580 F   0  0  0  0  0  0  0  0  0  0  0  0
  -25.2240  -13.8440   20.4430 C   0  0  0  0  0  0  0  0  0  0  0  0
  -24.1680  -13.0580   20.8070 C   0  0  0  0  0  0  0  0  0  0  0  0
  -24.6570  -11.7160   20.8070 C   0  0  0  0  0  0  0  0  0  0  0  0
  -26.2850  -12.9840   20.2340 N   0  0  0  0  0  0  0  0  0  0  0  0
  -25.9560  -11.6970   20.5210 N   0  0  0  0  0  0  0  0  0  0  0  0
  -23.9440  -10.4460   20.9990 C   0  0  0  0  0  0  0  0  0  0  0  0
  -24.3730   -9.4930   21.9490 C   0  0  0  0  0  3  0  0  0  0  0  0
  -23.6570   -8.2910   22.1310 C   0  0  0  0  0  3  0  0  0  0  0  0
  -22.4960   -8.0330   21.3650 C   0  0  0  0  0  0  0  0  0  0  0  0
  -22.0870   -8.9730   20.4040 C   0  0  0  0  0  3  0  0  0  0  0  0
  -22.8040  -10.1670   20.2200 C   0  0  0  0  0  3  0  0  0  0  0  0
  -21.7510   -6.8820   21.4560 O   0  0  0  0  0  0  0  0  0  0  0  0
  -21.6970   -6.1500   22.6140 C   0  0  0  0  0  0  0  0  0  0  0  0
  -21.2560   -6.7130   23.8320 C   0  0  0  0  0  3  0  0  0  0  0  0
  -21.1490   -5.9070   24.9830 C   0  0  0  0  0  3  0  0  0  0  0  0
  -21.4730   -4.5380   24.9170 C   0  0  0  0  0  0  0  0  0  0  0  0
  -21.9070   -3.9750   23.7050 C   0  0  0  0  0  3  0  0  0  0  0  0
  -22.0170   -4.7780   22.5560 C   0  0  0  0  0  0  0  0  0  0  0  0
  -22.4160   -4.2250   21.3860 F   0  0  0  0  0  0  0  0  0  0  0  0
  -21.3640   -3.7620   26.0210 F   0  0  0  0  0  0  0  0  0  0  0  0
  -22.7590  -13.5200   21.0350 C   0  0  0  0  0  0  0  0  0  0  0  0
  -22.0250  -12.8370   21.9070 N   0  0  0  0  0  0  0  0  0  0  0  0
  -22.3170  -14.5230   20.4760 O   0  0  0  0  0  0  0  0  0  0  0  0
  -22.3950  -12.0280   22.3830 H   0  0  0  0  0  0  0  0  0  0  0  0
  -21.0790  -13.1320   22.1020 H   0  0  0  0  0  0  0  0  0  0  0  0
  -25.3590  -15.2140   20.2380 N   0  0  0  0  0  0  0  0  0  0  0  0
  -24.5650  -15.8410   20.2950 H   0  0  0  0  0  0  0  0  0  0  0  0
  -26.1860  -15.6550   19.8630 H   0  0  0  0  0  0  0  0  0  0  0  0
  -28.2260  -25.8720   20.1130 O   0  0  0  0  0  0  0  0  0  0  0  0
  -24.6480  -31.8310   23.1730 C   0  0  0  0  0  0  0  0  0  0  0  0
  -27.1720  -26.9340   20.1340 C   0  0  0  0  0  0  0  0  0  0  0  0
  -23.4450  -30.4500   21.5280 C   0  0  0  0  0  3  0  0  0  0  0  0
  -24.8810  -28.8360   20.1000 C   0  0  0  0  0  0  0  0  0  0  0  0
  -26.0110  -30.6420   21.3800 C   0  0  0  0  0  2  0  0  0  0  0  0
  -26.0710  -29.2310   20.7230 C   0  0  0  0  0  0  0  0  0  0  0  0
  -27.2080  -28.3010   20.7140 C   0  0  0  0  0  3  0  0  0  0  0  0
  -25.9520  -26.6950   19.4630 C   0  0  0  0  0  3  0  0  0  0  0  0
  -24.8460  -27.5880   19.4520 C   0  0  0  0  0  3  0  0  0  0  0  0
  -23.6700  -29.7680   20.1490 C   0  0  0  0  0  2  0  0  0  0  0  0
  -24.7240  -31.0030   22.0800 N   0  0  0  0  0  0  0  0  0  0  0  0
  -23.5620  -32.1260   23.6970 O   0  0  0  0  0  0  0  0  0  0  0  0
  -22.7460  -29.4550   22.4910 C   0  0  0  0  0  0  0  0  0  0  0  0
  -21.4120  -29.3110   22.3800 N   0  0  0  0  0  0  0  0  0  0  0  0
  -23.4110  -28.8110   23.3070 O   0  0  0  0  0  0  0  0  0  0  0  0
  -20.9280  -29.8820   21.7000 H   0  0  0  0  0  0  0  0  0  0  0  0
  -18.0180  -28.1480   22.9200 C   0  0  0  0  0  0  0  0  0  0  0  0
  -20.5860  -28.3750   23.1480 C   0  0  0  0  0  3  0  0  0  0  0  0
  -20.6570  -26.9500   22.5510 C   0  0  0  0  0  2  0  0  0  0  0  0
  -19.5350  -26.6570   21.5480 C   0  0  0  0  0  2  0  0  0  0  0  0
  -18.1670  -26.8090   22.2170 C   0  0  0  0  0  2  0  0  0  0  0  0
  -19.1540  -28.8900   23.3430 C   0  0  0  0  0  0  0  0  0  0  0  0
  -18.9580  -30.1420   23.9660 C   0  0  0  0  0  3  0  0  0  0  0  0
  -17.6630  -30.6530   24.1660 C   0  0  0  0  0  3  0  0  0  0  0  0
  -16.5430  -29.9080   23.7560 C   0  0  0  0  0  3  0  0  0  0  0  0
  -16.7210  -28.6570   23.1400 C   0  0  0  0  0  3  0  0  0  0  0  0
  -25.9240  -32.4660   23.8080 C   0  0  0  0  0  3  0  0  0  0  0  0
  -25.5990  -33.8520   24.1920 N   0  0  0  0  0  0  0  0  0  0  0  0
  -25.9050  -34.9410   23.4730 C   0  0  0  0  0  0  0  0  0  0  0  0
  -26.5510  -34.8830   22.4240 O   0  0  0  0  0  0  0  0  0  0  0  0
  -25.0210  -33.9680   25.0110 H   0  0  0  0  0  0  0  0  0  0  0  0
  -24.1490  -36.7320   23.2440 C   0  0  0  0  0  1  0  0  0  0  0  0
  -25.4190  -36.3070   23.9980 C   0  0  0  0  0  3  0  0  0  0  0  0
  -27.5700  -37.1900   24.7950 C   0  0  0  0  0  1  0  0  0  0  0  0
  -26.4370  -37.3760   23.8910 N   0  0  0  0  0  0  0  0  0  0  0  0
  -26.0260  -38.2860   24.0830 H   0  0  0  0  0  0  0  0  0  0  0  0
  -26.4530  -31.6660   25.0640 C   0  0  1  0  0  0  0  0  0  0  0  0
  -25.3700  -31.4000   26.1350 C   0  0  0  0  0  1  0  0  0  0  0  0
  -27.0380  -30.3000   24.6420 C   0  0  0  0  0  1  0  0  0  0  0  0
  -27.6050  -32.4500   25.7340 C   0  0  0  0  0  1  0  0  0  0  0  0
  1 21  1  0
  2  7  1  0
  3  4  1  0
  3  2  1  0
  5  4  1  0
  5 26  1  0
  5  6  1  0
  7  1  1  0
  7  6  1  0
  8  1  2  0
  9 14  1  0
 10 11  1  0
 11 14  2  0
 12 10  2  0
 12 13  1  0
 13  9  2  0
 14 22  1  0
 15 10  1  0
 17 16  1  0
 18 21  1  0
 19 15  1  6
 19 18  1  0
 19 11  1  0
 19 16  1  0
 20 12  1  0
 21 17  1  0
 23 24  2  0
 24 43  1  0
 25 24  1  0
 25 28  1  0
 26 23  1  0
 26 27  1  0
 27 25  2  0
 28 29  1  0
 29 30  2  0
 31 34  1  0
 31 30  1  0
 32 31  2  0
 33 32  1  0
 33 28  2  0
 34 35  1  0
 35 36  1  0
 36 37  2  0
 38 37  1  0
 38 42  1  0
 39 38  2  0
 40 35  2  0
 40 39  1  0
 41 40  1  0
 43 44  1  0
 44 47  1  0
 44 46  1  0
 45 43  2  0
 48 49  1  0
 48 23  1  0
 50 48  1  0
 51 53  1  0
 51 13  1  0
 52 63  2  0
 53 58  1  0
 54 62  1  0
 54 64  1  0
 55 61  1  0
 55 57  1  0
 56 62  1  0
 57 56  1  0
 58 57  2  0
 59 53  2  0
 60 59  1  0
 60 55  2  0
 61 54  1  0
 62 52  1  0
 64 66  2  0
 65 64  1  0
 67 65  1  0
 68 77  2  0
 68 73  1  0
 69 65  1  0
 69 73  1  0
 70 69  1  0
 71 72  1  0
 71 70  1  0
 72 68  1  0
 73 74  2  0
 74 75  1  0
 76 75  2  0
 77 76  1  0
 78 52  1  0
 78 79  1  0
 78 88  1  0
 79 82  1  0
 80 84  1  0
 80 79  1  0
 81 80  2  0
 84 83  1  0
 86 84  1  0
 86 87  1  0
 86 85  1  0
 88 91  1  1
 88 89  1  0
 90 88  1  0
M  ISO  4   1 100  13 101  21 100  51 101
M  END
>  <TORSDO>  (63) 
F 15

>  <SCORE>  (63) 
-15.931

>  <name>  (63) 
62

>  <ligand_id>  (63) 
62

>  <original_smiles>  (63) 
[H]c1c([H])c([H])c2c(c1[H])C([H])([H])C([H])([H])C([H])([H])C2([H])N([H])C(=O)C1([H])N(C(=O)C([H])(N([H])C(=O)C([H])(N([H])C([H])([H])[H])C([H])([H])[H])C(C([H])([H])[H])(C([H])([H])[H])C([H])([H])[H])C([H])([H])c2c([H])c(Oc3c([H])c(F)c4c(c3C([H])([H])[H])C([H])([H])C43C([H])([H])N(C(=O)N4C([H])([H])C([H])([H])C([H])([H])C([H])(n5nc(-c6c([H])c([H])c(Oc7c([H])c([H])c(F)c([H])c7F)c([H])c6[H])c(C(=O)N([H])[H])c5N([H])[H])C4([H])[H])C([H])([H])C3([H])[H])c([H])c([H])c2C1([H])[H]

>  <smiles>  (63) 
[H]c1c([H])c([H])c2c(c1[H])C([H])([H])C([H])([H])C([H])([H])C2([H])N([H])C(=O)C1([H])N(C(=O)C([H])(N([H])C(=O)C([H])(N([H])C([H])([H])[H])C([H])([H])[H])C(C([H])([H])[H])(C([H])([H])[H])C([H])([H])[H])C([H])([H])c2c([H])c(Oc3c([H])c(F)c4c(c3C([H])([H])[H])C([H])([H])C43C([H])([H])N(C(=O)N4C([H])([H])C([H])([H])C([H])([H])C([H])(n5nc(-c6c([H])c([H])c(Oc7c([H])c([H])c(F)c([H])c7F)c([H])c6[H])c(C(=O)N([H])[H])c5N([H])[H])C4([H])[H])C([H])([H])C3([H])[H])c([H])c([H])c2C1([H])[H]

$$$$
63:0:0
     RDKit          3D

 95 98  0  0  1  0  0  0  0  0999 V2000
  -40.0280   -7.6330   23.8510 C   0  0  0  0  0 15  0  0  0  0  0  0
  -40.6080  -11.0170   24.0740 C   0  0  0  0  0  3  0  0  0  0  0  0
  -40.6130   -9.3780   24.8970 C   0  0  0  0  0  3  0  0  0  0  0  0
  -39.4710   -8.6250   22.2140 C   0  0  0  0  0  2  0  0  0  0  0  0
  -40.4240  -11.9860   22.5830 C   0  0  0  0  0  2  0  0  0  0  0  0
  -39.9050  -10.4040   21.9130 C   0  0  0  0  0  3  0  0  0  0  0  0
  -40.9330   -9.3030   26.3880 C   0  0  0  0  0  1  0  0  0  0  0  0
  -38.5000   -7.8880   21.2020 C   0  0  0  0  0  2  0  0  0  0  0  0
  -38.9810   -6.9200   20.0570 C   0  0  0  0  0  2  0  0  0  0  0  0
  -36.9900   -5.4370   20.7030 C   0  0  0  0  0  1  0  0  0  0  0  0
  -38.2790   -5.5350   19.8550 C   0  0  0  0  0  2  0  0  0  0  0  0
  -40.4340  -10.4480   20.4680 C   0  0  0  0  0  2  0  0  0  0  0  0
  -41.7930  -11.2480   20.1300 C   0  0  0  0  0  2  0  0  0  0  0  0
  -42.0780  -12.1700   18.8240 C   0  0  0  0  0  2  0  0  0  0  0  0
  -42.8970  -12.9530   16.4340 C   0  0  0  0  0  1  0  0  0  0  0  0
  -42.8370  -10.5790   17.1420 C   0  0  0  0  0  1  0  0  0  0  0  0
  -42.0010  -11.9120   17.1520 C   0  0  1  0  0  0  0  0  0  0  0  0
  -40.7710  -11.5550   16.0790 C   0  0  0  0  0  0  0  0  0  0  0  0
  -39.4460  -13.1390   14.6480 C   0  0  0  0  0  2  0  0  0  0  0  0
  -40.0710  -14.3580   15.2300 C   0  0  0  0  0  2  0  0  0  0  0  0
  -39.9190  -14.4400   16.7960 C   0  0  0  0  0  2  0  0  0  0  0  0
  -39.2990  -13.1480   18.0320 C   0  0  0  0  0  2  0  0  0  0  0  0
  -38.7680  -12.1620   16.7110 C   0  0  0  0  0  2  0  0  0  0  0  0
  -39.6460  -12.1680   15.7040 N   0  0  0  0  0  0  0  0  0  0  0  0
  -40.9720  -10.5990   15.3620 O   0  0  0  0  0  0  0  0  0  0  0  0
  -36.2230  -15.4260   19.9170 C   0  0  0  0  0  3  0  0  0  0  0  0
  -35.0970  -15.9720   19.3470 C   0  0  2  0  0  0  0  0  0  0  0  0
  -34.7490  -15.5530   18.0650 C   0  0  0  0  0  3  0  0  0  0  0  0
  -36.5940  -14.2890   19.4620 N   0  0  0  0  0  2  0  0  0  0  0  0
  -35.2930  -14.3480   18.4420 N   0  0  0  0  0  0  0  0  0  0  0  0
  -33.6180  -16.1360   17.0700 C   0  0  0  0  0  0  0  0  0  0  0  0
  -32.2580  -15.7220   16.8690 C   0  0  0  0  0  3  0  0  0  0  0  0
  -31.2860  -16.4750   16.1020 C   0  0  0  0  0  3  0  0  0  0  0  0
  -31.6180  -17.6940   15.4530 C   0  0  0  0  0  0  0  0  0  0  0  0
  -32.9710  -18.0710   15.5370 C   0  0  0  0  0  3  0  0  0  0  0  0
  -33.9190  -17.3090   16.2830 C   0  0  0  0  0  3  0  0  0  0  0  0
  -30.7480  -18.4850   14.6970 O   0  0  0  0  0  0  0  0  0  0  0  0
  -30.3880  -19.7900   15.0060 C   0  0  0  0  0  0  0  0  0  0  0  0
  -31.0150  -20.8980   14.4000 C   0  0  0  0  0  3  0  0  0  0  0  0
  -30.6140  -22.2190   14.7070 C   0  0  0  0  0  3  0  0  0  0  0  0
  -29.5490  -22.4450   15.6000 C   0  0  0  0  0  0  0  0  0  0  0  0
  -28.8790  -21.3500   16.1730 C   0  0  0  0  0  3  0  0  0  0  0  0
  -29.2860  -20.0320   15.8700 C   0  0  0  0  0  0  0  0  0  0  0  0
  -28.6140  -18.9940   16.4270 F   0  0  0  0  0  0  0  0  0  0  0  0
  -29.1550  -23.7090   15.9060 F   0  0  0  0  0  0  0  0  0  0  0  0
  -34.1730  -16.6390   20.2150 C   0  0  0  0  0  0  0  0  0  0  0  0
  -33.5810  -15.8930   21.1400 N   0  0  0  0  0  0  0  0  0  0  0  0
  -34.1390  -17.8550   20.1860 O   0  0  0  0  0  0  0  0  0  0  0  0
  -33.7140  -14.8960   21.1110 H   0  0  0  0  0  0  0  0  0  0  0  0
  -32.9820  -16.3040   21.8390 H   0  0  0  0  0  0  0  0  0  0  0  0
  -36.9880  -15.6110   21.0020 N   0  0  0  0  0  0  0  0  0  0  0  0
  -37.0570  -16.5740   21.3050 H   0  0  0  0  0  0  0  0  0  0  0  0
  -37.8340  -15.0500   21.0800 H   0  0  0  0  0  0  0  0  0  0  0  0
  -40.5700  -14.4620   21.7210 C   0  0  0  0  0 15  0  0  0  0  0  0
  -40.6930  -16.5300   20.3200 O   0  0  0  0  0 15  0  0  0  0  0  0
  -41.7370  -24.7380   16.6370 C   0  0  0  0  0  0  0  0  0  0  0  0
  -41.5310  -18.1520   19.5890 C   0  0  0  0  0  3  0  0  0  0  0  0
  -42.6100  -22.6220   15.7860 C   0  0  0  0  0  3  0  0  0  0  0  0
  -42.9790  -20.5090   17.4720 C   0  0  0  0  0  0  0  0  0  0  0  0
  -42.3890  -22.7180   18.3750 C   0  0  0  0  0  2  0  0  0  0  0  0
  -42.2940  -21.0170   18.5660 C   0  0  0  0  0  0  0  0  0  0  0  0
  -41.6560  -19.8710   19.5640 C   0  0  0  0  0  3  0  0  0  0  0  0
  -42.5730  -18.1330   18.5320 C   0  0  0  0  0  3  0  0  0  0  0  0
  -43.1660  -19.1030   17.5790 C   0  0  0  0  0  3  0  0  0  0  0  0
  -43.4890  -21.3950   16.2650 C   0  0  0  0  0  2  0  0  0  0  0  0
  -42.2280  -23.4540   16.9740 N   0  0  0  0  0  0  0  0  0  0  0  0
  -41.5130  -25.0810   15.4540 O   0  0  0  0  0  0  0  0  0  0  0  0
  -41.3430  -22.1360   15.0260 C   0  0  0  0  0  0  0  0  0  0  0  0
  -41.4550  -21.6700   13.7640 N   0  0  0  0  0  0  0  0  0  0  0  0
  -40.2540  -22.1800   15.6040 O   0  0  0  0  0  0  0  0  0  0  0  0
  -42.3590  -21.6950   13.3110 H   0  0  0  0  0  0  0  0  0  0  0  0
  -39.8930  -21.2970   10.4820 C   0  0  0  0  0  0  0  0  0  0  0  0
  -40.3530  -21.0330   13.0180 C   0  0  0  0  0  3  0  0  0  0  0  0
  -40.6920  -19.5590   12.6820 C   0  0  0  0  0  2  0  0  0  0  0  0
  -41.3370  -19.3880   11.3030 C   0  0  0  0  0  2  0  0  0  0  0  0
  -40.3910  -19.8880   10.2060 C   0  0  0  0  0  2  0  0  0  0  0  0
  -39.8910  -21.8420   11.7960 C   0  0  0  0  0  0  0  0  0  0  0  0
  -39.4370  -23.1640   11.9820 C   0  0  0  0  0  3  0  0  0  0  0  0
  -39.0020  -23.9390   10.8900 C   0  0  0  0  0  3  0  0  0  0  0  0
  -39.0010  -23.3900    9.5940 C   0  0  0  0  0  3  0  0  0  0  0  0
  -39.4390  -22.0690    9.3920 C   0  0  0  0  0  3  0  0  0  0  0  0
  -41.4160  -25.8690   17.6800 C   0  0  0  0  0  3  0  0  0  0  0  0
  -42.5750  -26.0660   18.6000 N   0  0  0  0  0  0  0  0  0  0  0  0
  -42.8470  -25.3670   19.7130 C   0  0  0  0  0  0  0  0  0  0  0  0
  -42.1290  -24.4410   20.0930 O   0  0  0  0  0  0  0  0  0  0  0  0
  -43.2360  -26.7750   18.3210 H   0  0  0  0  0  0  0  0  0  0  0  0
  -45.1780  -24.6490   20.4010 C   0  0  0  0  0  1  0  0  0  0  0  0
  -44.1050  -25.7420   20.5440 C   0  0  0  0  0  3  0  0  0  0  0  0
  -43.2430  -27.2550   22.2860 C   0  0  0  0  0  1  0  0  0  0  0  0
  -43.8310  -25.9530   21.9850 N   0  0  0  0  0  0  0  0  0  0  0  0
  -44.6860  -25.8600   22.5280 H   0  0  0  0  0  0  0  0  0  0  0  0
  -41.0980  -27.2540   16.9930 C   0  0  1  0  0  0  0  0  0  0  0  0
  -42.0120  -27.5910   15.7870 C   0  0  0  0  0  1  0  0  0  0  0  0
  -39.6400  -27.2990   16.4980 C   0  0  0  0  0  1  0  0  0  0  0  0
  -41.2410  -28.4020   18.0230 C   0  0  0  0  0  1  0  0  0  0  0  0
  2  3  2  0
  3  7  1  0
  5  2  1  0
  6 12  1  0
  6  4  1  0
  6  5  1  0
  8  4  1  0
  9  8  1  0
 11  9  1  0
 11 10  1  0
 13 12  1  0
 14 13  1  0
 17 15  1  6
 16 17  1  0
 17 14  1  0
 18 17  1  0
 19 20  1  0
 19 24  1  0
 20 21  1  0
 21 22  1  0
 23 22  1  0
 24 18  1  0
 24 23  1  0
 25 18  2  0
 26 51  1  0
 27 26  1  0
 27 46  1  6
 28 31  1  0
 28 30  1  0
 28 27  1  0
 29 26  1  0
 30 27  1  0
 30 29  1  0
 32 31  1  0
 33 32  2  0
 34 35  2  0
 34 33  1  0
 35 36  1  0
 36 31  2  0
 37 38  1  0
 37 34  1  0
 38 43  1  0
 39 40  1  0
 39 38  2  0
 40 41  2  0
 41 45  1  0
 41 42  1  0
 43 42  2  0
 43 44  1  0
 46 47  1  0
 47 50  1  0
 48 46  2  0
 49 47  1  0
 51 53  1  0
 51 52  1  0
 56 66  1  0
 58 68  1  0
 58 65  1  0
 58 66  1  0
 59 64  2  0
 59 61  1  0
 60 61  1  0
 61 62  2  0
 62 57  1  0
 63 57  2  0
 64 63  1  0
 65 59  1  0
 66 60  1  0
 67 56  2  0
 68 70  2  0
 69 68  1  0
 71 69  1  0
 72 77  1  0
 73 69  1  0
 74 73  1  0
 75 74  1  0
 76 72  1  0
 76 75  1  0
 77 78  2  0
 77 73  1  0
 79 78  1  0
 80 79  2  0
 81 80  1  0
 81 72  2  0
 82 56  1  0
 82 83  1  0
 83 84  1  0
 84 85  2  0
 84 88  1  0
 86 83  1  0
 88 87  1  0
 88 90  1  0
 90 89  1  0
 90 91  1  0
 92 82  1  0
 92 95  1  1
 93 92  1  0
 94 92  1  0
M  ISO  4  17 100  18 100  54 101  55 101
M  END
>  <TORSDO>  (64) 
F 24

>  <SCORE>  (64) 
3.760

>  <name>  (64) 
63

>  <ligand_id>  (64) 
63

>  <original_smiles>  (64) 
[H]c1c([H])c([H])c2c(c1[H])C([H])([H])C([H])([H])C([H])([H])C2([H])N([H])C(=O)C1([H])N(C(=O)C([H])(N([H])C(=O)C([H])(N([H])C([H])([H])[H])C([H])([H])[H])C(C([H])([H])[H])(C([H])([H])[H])C([H])([H])[H])C([H])([H])c2c([H])c(OC([H])([H])c3c([H])c(C([H])([H])[H])c([H])c(C([H])([H])C([H])([H])C([H])([H])C([H])([H])[H])c3C([H])([H])C([H])([H])C([H])([H])C(C(=O)N3C([H])([H])C([H])([H])C([H])([H])C([H])(n4nc(-c5c([H])c([H])c(Oc6c([H])c([H])c(F)c([H])c6F)c([H])c5[H])c(C(=O)N([H])[H])c4N([H])[H])C3([H])[H])(C([H])([H])[H])C([H])([H])[H])c([H])c([H])c2C1([H])[H]

>  <smiles>  (64) 
[H]c1c([H])c([H])c2c(c1[H])C([H])([H])C([H])([H])C([H])([H])C2([H])N([H])C(=O)C1([H])N(C(=O)C([H])(N([H])C(=O)C([H])(N([H])C([H])([H])[H])C([H])([H])[H])C(C([H])([H])[H])(C([H])([H])[H])C([H])([H])[H])C([H])([H])c2c([H])c(OC([H])([H])c3c([H])c(C([H])([H])[H])c([H])c(C([H])([H])C([H])([H])C([H])([H])C([H])([H])[H])c3C([H])([H])C([H])([H])C([H])([H])C(C(=O)N3C([H])([H])C([H])([H])C([H])([H])C([H])(n4nc(-c5c([H])c([H])c(Oc6c([H])c([H])c(F)c([H])c6F)c([H])c5[H])c(C(=O)N([H])[H])c4N([H])[H])C3([H])[H])(C([H])([H])[H])C([H])([H])[H])c([H])c([H])c2C1([H])[H]

$$$$
64:0:0
     RDKit          3D

 91 99  0  0  1  0  0  0  0  0999 V2000
  -26.7610  -23.1180   21.7290 C   0  0  0  0  0  3  0  0  0  0  0  0
  -27.6170  -22.0490   21.3750 C   0  0  0  0  0  3  0  0  0  0  0  0
  -26.9970  -24.4530   21.3320 C   0  0  0  0  0  3  0  0  0  0  0  0
  -28.7710  -22.2400   20.5880 C   0  0  0  0  0  0  0  0  0  0  0  0
  -28.9710  -23.6690   20.1640 C   0  0  0  0  0  0  0  0  0  0  0  0
  -28.0950  -24.8270   20.5250 C   0  0  0  0  0  0  0  0  0  0  0  0
  -30.1690  -24.0100   19.2980 C   0  0  0  0  0  1  0  0  0  0  0  0
  -31.0930  -21.1720   21.0060 C   0  0  0  0  0  1  0  0  0  0  0  0
  -29.7370  -20.9040   20.3260 C   0  0  0  0  0  3  0  0  0  0  0  0
  -29.3080  -19.3950   20.6320 N   0  0  0  0  0  4  0  0  0  0  0  0
  -29.0560  -19.3680   21.6060 H   0  0  0  0  0  0  0  0  0  0  0  0
  -28.4560  -19.2470   20.1160 H   0  0  0  0  0  0  0  0  0  0  0  0
  -30.2250  -18.1080   20.3700 C   0  0  0  0  0  3  0  0  0  0  0  0
  -29.7750  -16.5110   20.7250 C   0  0  0  0  0  3  0  0  0  0  0  0
  -30.6240  -15.1140   20.3840 C   0  0  0  0  0  0  0  0  0  0  0  0
  -30.5380  -12.7760   19.3830 C   0  0  0  0  0  2  0  0  0  0  0  0
  -29.6000  -12.7720   18.1510 C   0  0  0  0  0  2  0  0  0  0  0  0
  -28.1360  -12.5460   18.5760 C   0  0  0  0  0  2  0  0  0  0  0  0
  -27.7300  -13.4350   19.7790 C   0  0  0  0  0  3  0  0  0  0  0  0
  -28.7860  -13.4120   20.9030 C   0  0  0  0  0  2  0  0  0  0  0  0
  -30.0650  -13.8350   20.3200 N   0  0  0  0  0  0  0  0  0  0  0  0
  -31.8110  -15.2030   20.0510 O   0  0  0  0  0  0  0  0  0  0  0  0
  -25.3440  -13.9880   20.5230 C   0  0  0  0  0  0  0  0  0  0  0  0
  -24.2840  -13.2020   20.8840 C   0  0  0  0  0  0  0  0  0  0  0  0
  -24.7600  -11.8560   20.8420 C   0  0  0  0  0  0  0  0  0  0  0  0
  -26.3940  -13.1210   20.2740 N   0  0  0  0  0  0  0  0  0  0  0  0
  -26.0520  -11.8330   20.5320 N   0  0  0  0  0  0  0  0  0  0  0  0
  -24.0420  -10.5860   21.0200 C   0  0  0  0  0  0  0  0  0  0  0  0
  -24.4540   -9.6320   21.9760 C   0  0  0  0  0  3  0  0  0  0  0  0
  -23.7340   -8.4290   22.1420 C   0  0  0  0  0  3  0  0  0  0  0  0
  -22.5900   -8.1700   21.3510 C   0  0  0  0  0  0  0  0  0  0  0  0
  -22.1980   -9.1140   20.3840 C   0  0  0  0  0  3  0  0  0  0  0  0
  -22.9180  -10.3080   20.2160 C   0  0  0  0  0  3  0  0  0  0  0  0
  -21.8450   -7.0180   21.4240 O   0  0  0  0  0  0  0  0  0  0  0  0
  -21.7310   -6.3090   22.5920 C   0  0  0  0  0  0  0  0  0  0  0  0
  -21.1970   -6.8860   23.7650 C   0  0  0  0  0  3  0  0  0  0  0  0
  -21.0320   -6.1010   24.9230 C   0  0  0  0  0  3  0  0  0  0  0  0
  -21.3900   -4.7400   24.9090 C   0  0  0  0  0  0  0  0  0  0  0  0
  -21.9170   -4.1620   23.7410 C   0  0  0  0  0  3  0  0  0  0  0  0
  -22.0830   -4.9430   22.5850 C   0  0  0  0  0  0  0  0  0  0  0  0
  -22.5710   -4.3770   21.4550 F   0  0  0  0  0  0  0  0  0  0  0  0
  -21.2250   -3.9830   26.0210 F   0  0  0  0  0  0  0  0  0  0  0  0
  -22.8830  -13.6670   21.1550 C   0  0  0  0  0  0  0  0  0  0  0  0
  -22.1580  -12.9580   22.0130 N   0  0  0  0  0  0  0  0  0  0  0  0
  -22.4410  -14.6930   20.6420 O   0  0  0  0  0  0  0  0  0  0  0  0
  -22.5290  -12.1270   22.4500 H   0  0  0  0  0  0  0  0  0  0  0  0
  -21.2180  -13.2510   22.2370 H   0  0  0  0  0  0  0  0  0  0  0  0
  -25.4960  -15.3620   20.3580 N   0  0  0  0  0  0  0  0  0  0  0  0
  -24.7220  -16.0080   20.4730 H   0  0  0  0  0  0  0  0  0  0  0  0
  -26.3390  -15.8100   20.0210 H   0  0  0  0  0  0  0  0  0  0  0  0
  -28.2650  -26.2610   20.2100 O   0  0  0  0  0  0  0  0  0  0  0  0
  -24.6200  -31.9510   23.2250 C   0  0  0  0  0  0  0  0  0  0  0  0
  -27.2050  -27.2430   20.1930 C   0  0  0  0  0  0  0  0  0  0  0  0
  -23.4180  -30.5450   21.5940 C   0  0  0  0  0  3  0  0  0  0  0  0
  -24.8670  -28.9740   20.1650 C   0  0  0  0  0  0  0  0  0  0  0  0
  -25.9690  -30.8220   21.4160 C   0  0  0  0  0  2  0  0  0  0  0  0
  -26.0460  -29.4270   20.7720 C   0  0  0  0  0  0  0  0  0  0  0  0
  -27.2150  -28.5750   20.7750 C   0  0  0  0  0  3  0  0  0  0  0  0
  -26.0070  -26.8990   19.5330 C   0  0  0  0  0  3  0  0  0  0  0  0
  -24.8590  -27.7220   19.5300 C   0  0  0  0  0  3  0  0  0  0  0  0
  -23.6350  -29.8640   20.2160 C   0  0  0  0  0  2  0  0  0  0  0  0
  -24.6890  -31.1280   22.1330 N   0  0  0  0  0  0  0  0  0  0  0  0
  -23.5370  -32.2310   23.7590 O   0  0  0  0  0  0  0  0  0  0  0  0
  -22.7510  -29.5360   22.5630 C   0  0  0  0  0  0  0  0  0  0  0  0
  -21.4250  -29.3480   22.4360 N   0  0  0  0  0  0  0  0  0  0  0  0
  -23.4290  -28.9260   23.3930 O   0  0  0  0  0  0  0  0  0  0  0  0
  -20.9330  -29.8930   21.7410 H   0  0  0  0  0  0  0  0  0  0  0  0
  -18.0570  -28.1130   22.9450 C   0  0  0  0  0  0  0  0  0  0  0  0
  -20.6140  -28.4070   23.2130 C   0  0  0  0  0  3  0  0  0  0  0  0
  -20.7330  -26.9720   22.6490 C   0  0  0  0  0  2  0  0  0  0  0  0
  -19.6350  -26.6290   21.6360 C   0  0  0  0  0  2  0  0  0  0  0  0
  -18.2510  -26.7620   22.2780 C   0  0  0  0  0  2  0  0  0  0  0  0
  -19.1670  -28.8920   23.3710 C   0  0  0  0  0  0  0  0  0  0  0  0
  -18.9310  -30.1550   23.9570 C   0  0  0  0  0  3  0  0  0  0  0  0
  -17.6200  -30.6380   24.1220 C   0  0  0  0  0  3  0  0  0  0  0  0
  -16.5250  -29.8560   23.7120 C   0  0  0  0  0  3  0  0  0  0  0  0
  -16.7450  -28.5960   23.1290 C   0  0  0  0  0  3  0  0  0  0  0  0
  -25.9000  -32.5950   23.8420 C   0  0  0  0  0  3  0  0  0  0  0  0
  -26.4130  -31.8390   25.1300 C   0  0  1  0  0  0  0  0  0  0  0  0
  -25.3170  -31.6170   26.1990 C   0  0  0  0  0  1  0  0  0  0  0  0
  -26.9970  -30.4560   24.7620 C   0  0  0  0  0  1  0  0  0  0  0  0
  -27.5620  -32.6430   25.7840 C   0  0  0  0  0  1  0  0  0  0  0  0
  -25.5870  -33.9960   24.1600 N   0  0  0  0  0  0  0  0  0  0  0  0
  -25.9060  -35.0450   23.3900 C   0  0  0  0  0  0  0  0  0  0  0  0
  -26.5630  -34.9340   22.3510 O   0  0  0  0  0  0  0  0  0  0  0  0
  -25.0020  -34.1550   24.9670 H   0  0  0  0  0  0  0  0  0  0  0  0
  -24.1690  -36.8350   23.0480 C   0  0  0  0  0  1  0  0  0  0  0  0
  -25.4240  -36.4380   23.8420 C   0  0  0  0  0  3  0  0  0  0  0  0
  -27.5660  -37.3400   24.6340 C   0  0  0  0  0  1  0  0  0  0  0  0
  -26.4520  -37.4920   23.7020 N   0  0  0  0  0  0  0  0  0  0  0  0
  -26.0460  -38.4140   23.8430 H   0  0  0  0  0  0  0  0  0  0  0  0
  2  1  1  0
  3  1  2  0
  4  2  2  0
  5  6  2  0
  5  4  1  0
  6  3  1  0
  7  5  1  0
  9  4  1  0
  9 10  1  0
  9  8  1  0
 10 11  1  0
 12 10  1  0
 13 10  1  0
 13 14  2  0
 15 14  1  0
 16 21  1  0
 17 18  1  0
 17 16  1  0
 19 18  1  0
 19 26  1  0
 19 20  1  0
 21 15  1  0
 21 20  1  0
 22 15  2  0
 23 24  2  0
 24 43  1  0
 25 24  1  0
 25 28  1  0
 26 23  1  0
 26 27  1  0
 27 25  2  0
 28 29  1  0
 29 30  2  0
 31 34  1  0
 31 30  1  0
 32 31  2  0
 33 32  1  0
 33 28  2  0
 34 35  1  0
 35 36  1  0
 36 37  2  0
 38 37  1  0
 38 42  1  0
 39 38  2  0
 40 35  2  0
 40 39  1  0
 41 40  1  0
 43 44  1  0
 44 47  1  0
 44 46  1  0
 45 43  2  0
 48 49  1  0
 48 23  1  0
 50 48  1  0
 51  6  1  0
 52 63  2  0
 53 51  1  0
 53 58  1  0
 54 62  1  0
 54 64  1  0
 55 61  1  0
 55 57  1  0
 56 62  1  0
 57 58  2  0
 57 56  1  0
 59 53  2  0
 60 59  1  0
 60 55  2  0
 61 54  1  0
 62 52  1  0
 64 66  2  0
 65 64  1  0
 67 65  1  0
 68 77  2  0
 68 73  1  0
 69 65  1  0
 69 73  1  0
 70 69  1  0
 71 72  1  0
 71 70  1  0
 72 68  1  0
 73 74  2  0
 74 75  1  0
 76 75  2  0
 77 76  1  0
 78 52  1  0
 78 83  1  0
 78 79  1  0
 79 82  1  1
 79 80  1  0
 81 79  1  0
 83 86  1  0
 84 88  1  0
 84 83  1  0
 85 84  2  0
 88 87  1  0
 90 88  1  0
 90 91  1  0
 90 89  1  0
M  ISO  4   6 101  14 100  15 100  51 101
M  END
>  <TORSDO>  (65) 
F 20

>  <SCORE>  (65) 
-14.658

>  <name>  (65) 
64

>  <ligand_id>  (65) 
64

>  <original_smiles>  (65) 
[H]c1c([H])c([H])c2c(c1[H])C([H])([H])C([H])([H])C([H])([H])C2([H])N([H])C(=O)C1([H])N(C(=O)C([H])(N([H])C(=O)C([H])(N([H])C([H])([H])[H])C([H])([H])[H])C(C([H])([H])[H])(C([H])([H])[H])C([H])([H])[H])C([H])([H])c2c([H])c(Oc3c([H])c([H])c([H])c(C([H])(C([H])([H])[H])[N+]([H])([H])C([H])([H])C([H])([H])C(=O)N4C([H])([H])C([H])([H])C([H])([H])C([H])(n5nc(-c6c([H])c([H])c(Oc7c([H])c([H])c(F)c([H])c7F)c([H])c6[H])c(C(=O)N([H])[H])c5N([H])[H])C4([H])[H])c3C([H])([H])[H])c([H])c([H])c2C1([H])[H]

>  <smiles>  (65) 
[H]c1c([H])c([H])c2c(c1[H])C([H])([H])C([H])([H])C([H])([H])C2([H])N([H])C(=O)C1([H])N(C(=O)C([H])(N([H])C(=O)C([H])(N([H])C([H])([H])[H])C([H])([H])[H])C(C([H])([H])[H])(C([H])([H])[H])C([H])([H])[H])C([H])([H])c2c([H])c(Oc3c([H])c([H])c([H])c(C([H])(C([H])([H])[H])[N+]([H])([H])C([H])([H])C([H])([H])C(=O)N4C([H])([H])C([H])([H])C([H])([H])C([H])(n5nc(-c6c([H])c([H])c(Oc7c([H])c([H])c(F)c([H])c7F)c([H])c6[H])c(C(=O)N([H])[H])c5N([H])[H])C4([H])[H])c3C([H])([H])[H])c([H])c([H])c2C1([H])[H]

$$$$
65:0:0
     RDKit          3D

 93102  0  0  1  0  0  0  0  0999 V2000
  -29.3590  -20.0980   20.5110 C   0  0  0  0  0  0  0  0  0  0  0  0
  -29.9580  -17.3820   19.9920 C   0  0  0  0  0  0  0  0  0  0  0  0
  -29.1630  -20.4080   19.1370 C   0  0  0  0  0  0  0  0  0  0  0  0
  -29.7980  -18.6360   20.8830 C   0  0  0  0  0  0  0  0  0  0  0  0
  -29.6760  -17.8780   18.6560 C   0  0  0  0  0  0  0  0  0  0  0  0
  -29.4040  -19.2750   18.2570 C   0  0  0  0  0  0  0  0  0  0  0  0
  -29.2030  -21.4740   21.4100 C   0  0  0  0  0  0  0  0  0  0  0  0
  -28.5470  -21.8540   18.6160 C   0  0  0  0  0  2  0  0  0  0  0  0
  -28.3140  -22.9170   21.1680 C   0  0  0  0  0  2  0  0  0  0  0  0
  -28.9850  -23.4450   18.8940 C   0  0  0  0  0  2  0  0  0  0  0  0
  -28.7130  -24.3050   20.2580 C   0  0  2  0  0  0  0  0  0  0  0  0
  -30.0970  -18.3930   22.3550 C   0  0  0  0  0  1  0  0  0  0  0  0
  -29.6510  -16.8230   17.5530 C   0  0  0  0  0  1  0  0  0  0  0  0
  -29.4220  -19.6080   16.7620 C   0  0  0  0  0  1  0  0  0  0  0  0
  -30.1280  -24.6040   20.8040 C   0  0  0  0  0  1  0  0  0  0  0  0
  -29.7960  -21.4750   22.4930 O   0  0  0  0  0  0  0  0  0  0  0  0
  -30.6450  -15.7790   20.2020 C   0  0  0  0  0  0  0  0  0  0  0  0
  -30.7160  -13.2720   19.3630 C   0  0  0  0  0  2  0  0  0  0  0  0
  -29.8110  -12.9130   18.1530 C   0  0  0  0  0  2  0  0  0  0  0  0
  -28.3780  -12.5930   18.6070 C   0  0  0  0  0  2  0  0  0  0  0  0
  -27.8860  -13.5590   19.7100 C   0  0  0  0  0  3  0  0  0  0  0  0
  -28.9320  -13.8410   20.8070 C   0  0  0  0  0  2  0  0  0  0  0  0
  -30.1080  -14.4350   20.1380 N   0  0  0  0  0  0  0  0  0  0  0  0
  -31.8820  -15.7020   20.0920 O   0  0  0  0  0  0  0  0  0  0  0  0
  -25.5400  -14.0180   20.5630 C   0  0  0  0  0  0  0  0  0  0  0  0
  -24.5050  -13.2010   20.9270 C   0  0  0  0  0  0  0  0  0  0  0  0
  -25.0020  -11.8650   20.8410 C   0  0  0  0  0  0  0  0  0  0  0  0
  -26.5930  -13.1750   20.2570 N   0  0  0  0  0  0  0  0  0  0  0  0
  -26.2870  -11.8720   20.4930 N   0  0  0  0  0  0  0  0  0  0  0  0
  -24.3060  -10.5810   21.0050 C   0  0  0  0  0  0  0  0  0  0  0  0
  -24.7130   -9.6300   21.9680 C   0  0  0  0  0  3  0  0  0  0  0  0
  -24.0080   -8.4160   22.1170 C   0  0  0  0  0  3  0  0  0  0  0  0
  -22.8820   -8.1440   21.3040 C   0  0  0  0  0  0  0  0  0  0  0  0
  -22.4960   -9.0810   20.3280 C   0  0  0  0  0  3  0  0  0  0  0  0
  -23.2040  -10.2870   20.1780 C   0  0  0  0  0  3  0  0  0  0  0  0
  -22.1510   -6.9820   21.3610 O   0  0  0  0  0  0  0  0  0  0  0  0
  -21.9480   -6.3180   22.5440 C   0  0  0  0  0  0  0  0  0  0  0  0
  -21.2740   -6.9200   23.6290 C   0  0  0  0  0  3  0  0  0  0  0  0
  -21.0240   -6.1790   24.8010 C   0  0  0  0  0  3  0  0  0  0  0  0
  -21.4380   -4.8360   24.8880 C   0  0  0  0  0  0  0  0  0  0  0  0
  -22.1060   -4.2340   23.8060 C   0  0  0  0  0  3  0  0  0  0  0  0
  -22.3570   -4.9720   22.6380 C   0  0  0  0  0  0  0  0  0  0  0  0
  -22.9800   -4.3790   21.5910 F   0  0  0  0  0  0  0  0  0  0  0  0
  -21.1930   -4.1210   26.0110 F   0  0  0  0  0  0  0  0  0  0  0  0
  -23.1040  -13.6370   21.2410 C   0  0  0  0  0  0  0  0  0  0  0  0
  -22.4180  -12.9050   22.1110 N   0  0  0  0  0  0  0  0  0  0  0  0
  -22.6280  -14.6600   20.7510 O   0  0  0  0  0  0  0  0  0  0  0  0
  -22.8210  -12.0800   22.5290 H   0  0  0  0  0  0  0  0  0  0  0  0
  -21.4770  -13.1750   22.3620 H   0  0  0  0  0  0  0  0  0  0  0  0
  -25.6680  -15.3970   20.4310 N   0  0  0  0  0  0  0  0  0  0  0  0
  -24.8960  -16.0340   20.5930 H   0  0  0  0  0  0  0  0  0  0  0  0
  -26.5060  -15.8680   20.1150 H   0  0  0  0  0  0  0  0  0  0  0  0
  -28.3980  -26.0010   20.3360 O   0  0  0  0  0  0  0  0  0  0  0  0
  -24.7110  -31.9790   23.2910 C   0  0  0  0  0  0  0  0  0  0  0  0
  -27.3190  -27.0660   20.2580 C   0  0  0  0  0  0  0  0  0  0  0  0
  -23.5360  -30.5970   21.6240 C   0  0  0  0  0  3  0  0  0  0  0  0
  -25.0040  -28.9870   20.2010 C   0  0  0  0  0  0  0  0  0  0  0  0
  -26.1020  -30.7980   21.5080 C   0  0  0  0  0  2  0  0  0  0  0  0
  -26.1850  -29.3830   20.8410 C   0  0  0  0  0  0  0  0  0  0  0  0
  -27.3220  -28.4440   20.8440 C   0  0  0  0  0  3  0  0  0  0  0  0
  -26.1020  -26.8400   19.5720 C   0  0  0  0  0  3  0  0  0  0  0  0
  -24.9920  -27.7390   19.5490 C   0  0  0  0  0  3  0  0  0  0  0  0
  -23.7810  -29.9110   20.2460 C   0  0  0  0  0  2  0  0  0  0  0  0
  -24.8040  -31.1550   22.1940 N   0  0  0  0  0  0  0  0  0  0  0  0
  -23.6170  -32.2600   23.8090 O   0  0  0  0  0  0  0  0  0  0  0  0
  -22.8370  -29.5950   22.5800 C   0  0  0  0  0  0  0  0  0  0  0  0
  -21.5170  -29.3890   22.4180 N   0  0  0  0  0  0  0  0  0  0  0  0
  -23.4930  -29.0000   23.4380 O   0  0  0  0  0  0  0  0  0  0  0  0
  -21.0330  -29.9250   21.7110 H   0  0  0  0  0  0  0  0  0  0  0  0
  -18.1730  -28.0390   22.8140 C   0  0  0  0  0  0  0  0  0  0  0  0
  -20.7050  -28.4270   23.1710 C   0  0  0  0  0  3  0  0  0  0  0  0
  -20.8930  -26.9920   22.6290 C   0  0  0  0  0  2  0  0  0  0  0  0
  -19.8500  -26.6040   21.5750 C   0  0  0  0  0  2  0  0  0  0  0  0
  -18.4380  -26.6910   22.1620 C   0  0  0  0  0  2  0  0  0  0  0  0
  -19.2370  -28.8590   23.2730 C   0  0  0  0  0  0  0  0  0  0  0  0
  -18.9350  -30.1140   23.8450 C   0  0  0  0  0  3  0  0  0  0  0  0
  -17.6030  -30.5520   23.9600 C   0  0  0  0  0  3  0  0  0  0  0  0
  -16.5520  -29.7310   23.5150 C   0  0  0  0  0  3  0  0  0  0  0  0
  -16.8380  -28.4760   22.9490 C   0  0  0  0  0  3  0  0  0  0  0  0
  -25.9730  -32.6270   23.9380 C   0  0  0  0  0  3  0  0  0  0  0  0
  -25.6510  -34.0290   24.2660 N   0  0  0  0  0  0  0  0  0  0  0  0
  -25.9480  -35.0890   23.5020 C   0  0  0  0  0  0  0  0  0  0  0  0
  -26.5800  -34.9910   22.4480 O   0  0  0  0  0  0  0  0  0  0  0  0
  -25.0880  -34.1780   25.0910 H   0  0  0  0  0  0  0  0  0  0  0  0
  -24.1760  -36.8620   23.2400 C   0  0  0  0  0  1  0  0  0  0  0  0
  -25.4660  -36.4750   23.9790 C   0  0  0  0  0  3  0  0  0  0  0  0
  -27.6200  -37.4200   24.6910 C   0  0  0  0  0  1  0  0  0  0  0  0
  -26.4710  -37.5450   23.7990 N   0  0  0  0  0  0  0  0  0  0  0  0
  -26.0530  -38.4590   23.9520 H   0  0  0  0  0  0  0  0  0  0  0  0
  -26.4620  -31.8720   25.2380 C   0  0  1  0  0  0  0  0  0  0  0  0
  -25.3450  -31.6420   26.2820 C   0  0  0  0  0  1  0  0  0  0  0  0
  -27.0670  -30.4940   24.8870 C   0  0  0  0  0  1  0  0  0  0  0  0
  -27.5880  -32.6800   25.9230 C   0  0  0  0  0  1  0  0  0  0  0  0
  1  4  1  0
  1  7  1  0
  2 17  1  0
  2  4  2  0
  3  1  2  0
  4 12  1  0
  5  2  1  0
  6  5  2  0
  6  3  1  0
  7 16  2  0
  8 10  1  0
  8  3  1  0
  9  7  1  0
 10 11  1  0
 11 53  1  0
 11 15  1  1
 11  9  1  0
 13  5  1  0
 14  6  1  0
 18 23  1  0
 19 20  1  0
 19 18  1  0
 21 20  1  0
 21 28  1  0
 21 22  1  0
 23 17  1  0
 23 22  1  0
 24 17  2  0
 25 26  2  0
 26 45  1  0
 27 26  1  0
 27 30  1  0
 28 29  1  0
 28 25  1  0
 29 27  2  0
 30 31  1  0
 31 32  2  0
 33 36  1  0
 33 32  1  0
 34 33  2  0
 35 34  1  0
 35 30  2  0
 36 37  1  0
 37 42  2  0
 37 38  1  0
 38 39  2  0
 39 40  1  0
 40 44  1  0
 41 40  2  0
 42 41  1  0
 43 42  1  0
 45 46  1  0
 46 49  1  0
 46 48  1  0
 47 45  2  0
 50 25  1  0
 50 51  1  0
 52 50  1  0
 54 65  2  0
 55 53  1  0
 55 60  1  0
 56 64  1  0
 56 66  1  0
 57 63  1  0
 57 59  1  0
 58 64  1  0
 59 60  2  0
 59 58  1  0
 61 55  2  0
 62 61  1  0
 62 57  2  0
 63 56  1  0
 64 54  1  0
 66 68  2  0
 67 66  1  0
 69 67  1  0
 70 79  2  0
 70 75  1  0
 71 67  1  0
 71 75  1  0
 72 71  1  0
 73 74  1  0
 73 72  1  0
 74 70  1  0
 75 76  2  0
 76 77  1  0
 78 77  2  0
 79 78  1  0
 80 54  1  0
 80 81  1  0
 80 90  1  0
 81 84  1  0
 82 86  1  0
 82 81  1  0
 83 82  2  0
 86 85  1  0
 88 89  1  0
 88 86  1  0
 88 87  1  0
 90 93  1  1
 90 91  1  0
 92 90  1  0
M  ISO  4   2 100  11 101  17 100  53 101
M  END
>  <TORSDO>  (66) 
F 16

>  <SCORE>  (66) 
-14.904

>  <name>  (66) 
65

>  <ligand_id>  (66) 
65

>  <original_smiles>  (66) 
[H]c1c([H])c([H])c2c(c1[H])C([H])([H])C([H])([H])C([H])([H])C2([H])N([H])C(=O)C1([H])N(C(=O)C([H])(N([H])C(=O)C([H])(N([H])C([H])([H])[H])C([H])([H])[H])C(C([H])([H])[H])(C([H])([H])[H])C([H])([H])[H])C([H])([H])c2c([H])c(OC3(C([H])([H])[H])C([H])([H])C(=O)c4c(C([H])([H])[H])c(C(=O)N5C([H])([H])C([H])([H])C([H])([H])C([H])(n6nc(-c7c([H])c([H])c(Oc8c([H])c([H])c(F)c([H])c8F)c([H])c7[H])c(C(=O)N([H])[H])c6N([H])[H])C5([H])[H])c(C([H])([H])[H])c(C([H])([H])[H])c4C([H])([H])C3([H])[H])c([H])c([H])c2C1([H])[H]

>  <smiles>  (66) 
[H]c1c([H])c([H])c2c(c1[H])C([H])([H])C([H])([H])C([H])([H])C2([H])N([H])C(=O)C1([H])N(C(=O)C([H])(N([H])C(=O)C([H])(N([H])C([H])([H])[H])C([H])([H])[H])C(C([H])([H])[H])(C([H])([H])[H])C([H])([H])[H])C([H])([H])c2c([H])c(OC3(C([H])([H])[H])C([H])([H])C(=O)c4c(C([H])([H])[H])c(C(=O)N5C([H])([H])C([H])([H])C([H])([H])C([H])(n6nc(-c7c([H])c([H])c(Oc8c([H])c([H])c(F)c([H])c8F)c([H])c7[H])c(C(=O)N([H])[H])c6N([H])[H])C5([H])[H])c(C([H])([H])[H])c(C([H])([H])[H])c4C([H])([H])C3([H])[H])c([H])c([H])c2C1([H])[H]

$$$$
66:0:0
     RDKit          3D

 95104  0  0  1  0  0  0  0  0999 V2000
  -29.4610  -23.3010   17.6290 C   0  0  0  0  0  3  0  0  0  0  0  0
  -29.5030  -24.6430   17.2180 C   0  0  0  0  0  3  0  0  0  0  0  0
  -28.9950  -22.9030   18.9030 C   0  0  0  0  0  0  0  0  0  0  0  0
  -28.5520  -23.9750   19.7820 C   0  0  0  0  0  0  0  0  0  0  0  0
  -29.0890  -25.6710   18.0780 C   0  0  0  0  0  0  0  0  0  0  0  0
  -28.5950  -25.3740   19.3660 C   0  0  0  0  0  0  0  0  0  0  0  0
  -28.0270  -23.6510   21.1700 C   0  0  0  0  0  1  0  0  0  0  0  0
  -30.5170  -27.4760   17.6420 C   0  0  0  0  0  1  0  0  0  0  0  0
  -29.1860  -26.9750   17.6700 O   0  0  0  0  0  0  0  0  0  0  0  0
  -28.3430  -26.4920   20.1900 O   0  0  0  0  0  0  0  0  0  0  0  0
  -24.6290  -31.8650   23.2100 C   0  0  0  0  0  0  0  0  0  0  0  0
  -27.2200  -27.3260   20.1000 C   0  0  0  0  0  0  0  0  0  0  0  0
  -23.4100  -30.4680   21.5780 C   0  0  0  0  0  3  0  0  0  0  0  0
  -24.8470  -28.9170   20.1330 C   0  0  0  0  0  0  0  0  0  0  0  0
  -25.9460  -30.7940   21.3660 C   0  0  0  0  0  2  0  0  0  0  0  0
  -26.0210  -29.4190   20.7100 C   0  0  0  0  0  0  0  0  0  0  0  0
  -27.2100  -28.6320   20.6820 C   0  0  0  0  0  3  0  0  0  0  0  0
  -26.0220  -26.8630   19.5190 C   0  0  0  0  0  3  0  0  0  0  0  0
  -24.8490  -27.6460   19.5310 C   0  0  0  0  0  3  0  0  0  0  0  0
  -23.6060  -29.7870   20.1980 C   0  0  0  0  0  2  0  0  0  0  0  0
  -24.6810  -31.0590   22.1080 N   0  0  0  0  0  0  0  0  0  0  0  0
  -23.5490  -32.1420   23.7530 O   0  0  0  0  0  0  0  0  0  0  0  0
  -22.7540  -29.4530   22.5440 C   0  0  0  0  0  0  0  0  0  0  0  0
  -21.4280  -29.2770   22.4270 N   0  0  0  0  0  0  0  0  0  0  0  0
  -23.4390  -28.8250   23.3570 O   0  0  0  0  0  0  0  0  0  0  0  0
  -20.9350  -29.8330   21.7400 H   0  0  0  0  0  0  0  0  0  0  0  0
  -18.0530  -28.0870   22.9460 C   0  0  0  0  0  0  0  0  0  0  0  0
  -20.6130  -28.3410   23.2020 C   0  0  0  0  0  3  0  0  0  0  0  0
  -20.7090  -26.9100   22.6250 C   0  0  0  0  0  2  0  0  0  0  0  0
  -19.6000  -26.5890   21.6180 C   0  0  0  0  0  2  0  0  0  0  0  0
  -18.2220  -26.7370   22.2700 C   0  0  0  0  0  2  0  0  0  0  0  0
  -19.1760  -28.8470   23.3700 C   0  0  0  0  0  0  0  0  0  0  0  0
  -18.9620  -30.1090   23.9650 C   0  0  0  0  0  3  0  0  0  0  0  0
  -17.6580  -30.6130   24.1400 C   0  0  0  0  0  3  0  0  0  0  0  0
  -16.5500  -29.8500   23.7300 C   0  0  0  0  0  3  0  0  0  0  0  0
  -16.7500  -28.5890   23.1380 C   0  0  0  0  0  3  0  0  0  0  0  0
  -25.9170  -32.4960   23.8230 C   0  0  0  0  0  3  0  0  0  0  0  0
  -26.4490  -31.7160   25.0880 C   0  0  1  0  0  0  0  0  0  0  0  0
  -25.3700  -31.4680   26.1670 C   0  0  0  0  0  1  0  0  0  0  0  0
  -27.0280  -30.3420   24.6750 C   0  0  0  0  0  1  0  0  0  0  0  0
  -27.6040  -32.5100   25.7450 C   0  0  0  0  0  1  0  0  0  0  0  0
  -25.6080  -33.8890   24.1720 N   0  0  0  0  0  0  0  0  0  0  0  0
  -25.9270  -34.9520   23.4190 C   0  0  0  0  0  0  0  0  0  0  0  0
  -26.5840  -34.8620   22.3790 O   0  0  0  0  0  0  0  0  0  0  0  0
  -25.0370  -34.0330   24.9920 H   0  0  0  0  0  0  0  0  0  0  0  0
  -24.1930  -36.7400   23.0990 C   0  0  0  0  0  1  0  0  0  0  0  0
  -25.4420  -36.3330   23.8970 C   0  0  0  0  0  3  0  0  0  0  0  0
  -27.5810  -37.2110   24.7230 C   0  0  0  0  0  1  0  0  0  0  0  0
  -26.4730  -37.3880   23.7880 N   0  0  0  0  0  0  0  0  0  0  0  0
  -26.0650  -38.3060   23.9470 H   0  0  0  0  0  0  0  0  0  0  0  0
  -28.9760  -21.3150   19.0690 C   0  0  0  0  0  2  0  0  0  0  0  0
  -29.3080  -20.4870   20.3790 C   0  0  0  0  0  2  0  0  0  0  0  0
  -30.6450  -14.6900   20.3570 C   0  0  0  0  0  0  0  0  0  0  0  0
  -30.3600  -12.4280   19.3790 C   0  0  0  0  0  2  0  0  0  0  0  0
  -29.4410  -12.5300   18.1470 C   0  0  0  0  0  2  0  0  0  0  0  0
  -27.9660  -12.3810   18.5710 C   0  0  0  0  0  2  0  0  0  0  0  0
  -27.5940  -13.2700   19.7900 C   0  0  0  0  0  3  0  0  0  0  0  0
  -28.6510  -13.1930   20.9120 C   0  0  0  0  0  2  0  0  0  0  0  0
  -29.9490  -13.5040   20.3040 N   0  0  0  0  0  0  0  0  0  0  0  0
  -31.8470  -14.7000   20.0760 O   0  0  0  0  0  0  0  0  0  0  0  0
  -29.5130  -16.6190   19.2800 C   0  0  0  0  0  2  0  0  0  0  0  0
  -30.6580  -16.9020   21.3900 C   0  0  0  0  0  2  0  0  0  0  0  0
  -28.8730  -18.0660   19.4350 C   0  0  0  0  0  2  0  0  0  0  0  0
  -30.0220  -18.3340   21.5210 C   0  0  0  0  0  2  0  0  0  0  0  0
  -29.9810  -15.9040   20.5110 N   0  0  0  0  0  0  0  0  0  0  0  0
  -29.7170  -19.0080   20.2260 N   0  0  2  0  0  4  0  0  0  0  0  0
  -30.5920  -19.0430   19.7280 H   0  0  0  0  0  0  0  0  0  0  0  0
  -25.2090  -13.8720   20.5200 C   0  0  0  0  0  0  0  0  0  0  0  0
  -24.1370  -13.1060   20.8840 C   0  0  0  0  0  0  0  0  0  0  0  0
  -24.5930  -11.7520   20.8560 C   0  0  0  0  0  0  0  0  0  0  0  0
  -26.2490  -12.9860   20.2830 N   0  0  0  0  0  0  0  0  0  0  0  0
  -25.8840  -11.7040   20.5500 N   0  0  0  0  0  0  0  0  0  0  0  0
  -23.8590  -10.4940   21.0470 C   0  0  0  0  0  0  0  0  0  0  0  0
  -24.2840   -9.5250   21.9820 C   0  0  0  0  0  3  0  0  0  0  0  0
  -23.5500   -8.3330   22.1630 C   0  0  0  0  0  3  0  0  0  0  0  0
  -22.3760   -8.1010   21.4070 C   0  0  0  0  0  0  0  0  0  0  0  0
  -21.9700   -9.0570   20.4590 C   0  0  0  0  0  3  0  0  0  0  0  0
  -22.7060  -10.2410   20.2760 C   0  0  0  0  0  3  0  0  0  0  0  0
  -21.6130   -6.9610   21.4930 O   0  0  0  0  0  0  0  0  0  0  0  0
  -21.5580   -6.2180   22.6450 C   0  0  0  0  0  0  0  0  0  0  0  0
  -21.1350   -6.7740   23.8720 C   0  0  0  0  0  3  0  0  0  0  0  0
  -21.0220   -5.9560   25.0130 C   0  0  0  0  0  3  0  0  0  0  0  0
  -21.3260   -4.5830   24.9310 C   0  0  0  0  0  0  0  0  0  0  0  0
  -21.7450   -4.0280   23.7100 C   0  0  0  0  0  3  0  0  0  0  0  0
  -21.8570   -4.8430   22.5690 C   0  0  0  0  0  0  0  0  0  0  0  0
  -22.2390   -4.2980   21.3890 F   0  0  0  0  0  0  0  0  0  0  0  0
  -21.2130   -3.7970   26.0270 F   0  0  0  0  0  0  0  0  0  0  0  0
  -22.7430  -13.5940   21.1440 C   0  0  0  0  0  0  0  0  0  0  0  0
  -22.0040  -12.9050   22.0070 N   0  0  0  0  0  0  0  0  0  0  0  0
  -22.3150  -14.6190   20.6170 O   0  0  0  0  0  0  0  0  0  0  0  0
  -22.3660  -12.0830   22.4630 H   0  0  0  0  0  0  0  0  0  0  0  0
  -21.0650  -13.2140   22.2180 H   0  0  0  0  0  0  0  0  0  0  0  0
  -25.3840  -15.2410   20.3410 N   0  0  0  0  0  0  0  0  0  0  0  0
  -24.6210  -15.9010   20.4490 H   0  0  0  0  0  0  0  0  0  0  0  0
  -26.2350  -15.6680   20.0010 H   0  0  0  0  0  0  0  0  0  0  0  0
  1  3  1  0
  2  1  2  0
  2  5  1  0
  3 51  1  0
  3  4  2  0
  4  7  1  0
  5  6  2  0
  6  4  1  0
  6 10  1  0
  8  9  1  0
  9  5  1  0
 11 22  2  0
 12 10  1  0
 12 17  1  0
 13 21  1  0
 13 23  1  0
 14 20  1  0
 14 16  1  0
 15 21  1  0
 16 15  1  0
 17 16  2  0
 18 19  1  0
 18 12  2  0
 19 14  2  0
 20 13  1  0
 21 11  1  0
 23 25  2  0
 24 23  1  0
 26 24  1  0
 27 36  2  0
 27 32  1  0
 28 24  1  0
 28 32  1  0
 29 28  1  0
 30 31  1  0
 30 29  1  0
 31 27  1  0
 32 33  2  0
 33 34  1  0
 35 34  2  0
 36 35  1  0
 37 11  1  0
 37 42  1  0
 37 38  1  0
 38 41  1  1
 38 39  1  0
 40 38  1  0
 42 45  1  0
 43 47  1  0
 43 42  1  0
 44 43  2  0
 47 46  1  0
 49 47  1  0
 49 50  1  0
 49 48  1  0
 51 52  1  0
 53 65  1  0
 54 59  1  0
 55 56  1  0
 55 54  1  0
 57 56  1  0
 57 71  1  0
 57 58  1  0
 59 53  1  0
 59 58  1  0
 60 53  2  0
 61 63  1  0
 61 65  1  0
 62 64  1  0
 63 66  1  0
 65 62  1  0
 66 52  1  0
 66 64  1  0
 66 67  1  6
 68 69  2  0
 69 88  1  0
 70 69  1  0
 70 73  1  0
 71 68  1  0
 71 72  1  0
 72 70  2  0
 73 74  1  0
 74 75  2  0
 76 79  1  0
 76 75  1  0
 77 76  2  0
 78 77  1  0
 78 73  2  0
 79 80  1  0
 80 81  1  0
 81 82  2  0
 83 82  1  0
 83 87  1  0
 84 83  2  0
 85 80  2  0
 85 84  1  0
 86 85  1  0
 88 89  1  0
 89 92  1  0
 89 91  1  0
 90 88  2  0
 93 94  1  0
 93 68  1  0
 95 93  1  0
M  ISO  4   6 101  10 101  53 100  65 100
M  END
>  <TORSDO>  (67) 
F 19

>  <SCORE>  (67) 
-14.219

>  <name>  (67) 
66

>  <ligand_id>  (67) 
66

>  <original_smiles>  (67) 
[H]c1c([H])c([H])c2c(c1[H])C([H])([H])C([H])([H])C([H])([H])C2([H])N([H])C(=O)C1([H])N(C(=O)C([H])(N([H])C(=O)C([H])(N([H])C([H])([H])[H])C([H])([H])[H])C(C([H])([H])[H])(C([H])([H])[H])C([H])([H])[H])C([H])([H])c2c([H])c(Oc3c(OC([H])([H])[H])c([H])c([H])c(C([H])([H])C([H])([H])[N+]4([H])C([H])([H])C([H])([H])N(C(=O)N5C([H])([H])C([H])([H])C([H])([H])C([H])(n6nc(-c7c([H])c([H])c(Oc8c([H])c([H])c(F)c([H])c8F)c([H])c7[H])c(C(=O)N([H])[H])c6N([H])[H])C5([H])[H])C([H])([H])C4([H])[H])c3C([H])([H])[H])c([H])c([H])c2C1([H])[H]

>  <smiles>  (67) 
[H]c1c([H])c([H])c2c(c1[H])C([H])([H])C([H])([H])C([H])([H])C2([H])N([H])C(=O)C1([H])N(C(=O)C([H])(N([H])C(=O)C([H])(N([H])C([H])([H])[H])C([H])([H])[H])C(C([H])([H])[H])(C([H])([H])[H])C([H])([H])[H])C([H])([H])c2c([H])c(Oc3c(OC([H])([H])[H])c([H])c([H])c(C([H])([H])C([H])([H])[N+]4([H])C([H])([H])C([H])([H])N(C(=O)N5C([H])([H])C([H])([H])C([H])([H])C([H])(n6nc(-c7c([H])c([H])c(Oc8c([H])c([H])c(F)c([H])c8F)c([H])c7[H])c(C(=O)N([H])[H])c6N([H])[H])C5([H])[H])C([H])([H])C4([H])[H])c3C([H])([H])[H])c([H])c([H])c2C1([H])[H]

$$$$
67:0:0
     RDKit          3D

 89 97  0  0  1  0  0  0  0  0999 V2000
  -26.6870  -22.0300   20.5720 C   0  0  0  0  0  3  0  0  0  0  0  0
  -29.1740  -22.6960   19.9540 C   0  0  0  0  0  3  0  0  0  0  0  0
  -27.5610  -20.9330   20.2890 C   0  0  0  0  0  0  0  0  0  0  0  0
  -26.9720  -23.4350   20.5800 C   0  0  0  0  0  0  0  0  0  0  0  0
  -28.9490  -21.0890   20.0070 C   0  0  0  0  0  0  0  0  0  0  0  0
  -28.2310  -24.0000   20.1900 C   0  0  0  0  0  0  0  0  0  0  0  0
  -26.9160  -19.5560   20.2890 C   0  0  0  0  0  1  0  0  0  0  0  0
  -25.8140  -24.2960   21.0760 C   0  0  0  0  0  1  0  0  0  0  0  0
  -28.3860  -25.6310   20.1810 O   0  0  0  0  0  0  0  0  0  0  0  0
  -24.8190  -31.8270   23.3010 C   0  0  0  0  0  0  0  0  0  0  0  0
  -27.4420  -26.8800   20.1680 C   0  0  0  0  0  0  0  0  0  0  0  0
  -23.6870  -30.5020   21.5650 C   0  0  0  0  0  3  0  0  0  0  0  0
  -25.1930  -28.9430   20.1040 C   0  0  0  0  0  0  0  0  0  0  0  0
  -26.2620  -30.6450   21.5430 C   0  0  0  0  0  2  0  0  0  0  0  0
  -26.3500  -29.2430   20.8240 C   0  0  0  0  0  0  0  0  0  0  0  0
  -27.4570  -28.2360   20.8400 C   0  0  0  0  0  3  0  0  0  0  0  0
  -26.2920  -26.8390   19.3340 C   0  0  0  0  0  3  0  0  0  0  0  0
  -25.2130  -27.7800   19.3190 C   0  0  0  0  0  3  0  0  0  0  0  0
  -23.9740  -29.8820   20.1650 C   0  0  0  0  0  2  0  0  0  0  0  0
  -24.9420  -31.0180   22.1920 N   0  0  0  0  0  0  0  0  0  0  0  0
  -23.7090  -32.1070   23.7960 O   0  0  0  0  0  0  0  0  0  0  0  0
  -22.9510  -29.4750   22.4690 C   0  0  0  0  0  0  0  0  0  0  0  0
  -21.6210  -29.3300   22.3130 N   0  0  0  0  0  0  0  0  0  0  0  0
  -23.5900  -28.8110   23.2870 O   0  0  0  0  0  0  0  0  0  0  0  0
  -21.1530  -29.9260   21.6430 H   0  0  0  0  0  0  0  0  0  0  0  0
  -18.2130  -28.1700   22.7620 C   0  0  0  0  0  0  0  0  0  0  0  0
  -20.7780  -28.3570   23.0200 C   0  0  0  0  0  3  0  0  0  0  0  0
  -20.8450  -26.9720   22.3360 C   0  0  0  0  0  2  0  0  0  0  0  0
  -19.7250  -26.7490   21.3160 C   0  0  0  0  0  2  0  0  0  0  0  0
  -18.3510  -26.8750   21.9790 C   0  0  0  0  0  2  0  0  0  0  0  0
  -19.3530  -28.8730   23.2360 C   0  0  0  0  0  0  0  0  0  0  0  0
  -19.1680  -30.0870   23.9300 C   0  0  0  0  0  3  0  0  0  0  0  0
  -17.8750  -30.5970   24.1600 C   0  0  0  0  0  3  0  0  0  0  0  0
  -16.7490  -29.8880   23.7000 C   0  0  0  0  0  3  0  0  0  0  0  0
  -16.9190  -28.6760   23.0060 C   0  0  0  0  0  3  0  0  0  0  0  0
  -26.0630  -32.4520   23.9960 C   0  0  0  0  0  3  0  0  0  0  0  0
  -26.4920  -31.6710   25.3020 C   0  0  1  0  0  0  0  0  0  0  0  0
  -25.3270  -31.4510   26.2970 C   0  0  0  0  0  1  0  0  0  0  0  0
  -27.0840  -30.2840   24.9580 C   0  0  0  0  0  1  0  0  0  0  0  0
  -27.6110  -32.4450   26.0430 C   0  0  0  0  0  1  0  0  0  0  0  0
  -25.7430  -33.8540   24.3330 N   0  0  0  0  0  0  0  0  0  0  0  0
  -26.0920  -34.9210   23.6050 C   0  0  0  0  0  0  0  0  0  0  0  0
  -26.7810  -34.8310   22.5880 O   0  0  0  0  0  0  0  0  0  0  0  0
  -25.1340  -33.9990   25.1250 H   0  0  0  0  0  0  0  0  0  0  0  0
  -24.3640  -36.7300   23.2920 C   0  0  0  0  0  1  0  0  0  0  0  0
  -25.6120  -36.3080   24.0840 C   0  0  0  0  0  3  0  0  0  0  0  0
  -27.7480  -37.2090   24.9100 C   0  0  0  0  0  1  0  0  0  0  0  0
  -26.6410  -37.3660   23.9700 N   0  0  0  0  0  0  0  0  0  0  0  0
  -26.2300  -38.2840   24.1150 H   0  0  0  0  0  0  0  0  0  0  0  0
  -29.9710  -19.5160   19.8270 C   0  0  0  0  0  3  0  0  0  0  0  0
  -32.4510  -19.9070   18.9230 C   0  0  0  0  0  1  0  0  0  0  0  0
  -30.9330  -19.7660   18.6250 C   0  0  0  0  0  2  0  0  0  0  0  0
  -29.7280  -17.5720   19.9340 C   0  0  0  0  0  2  0  0  0  0  0  0
  -30.6400  -15.9170   19.8160 C   0  0  0  0  0  0  0  0  0  0  0  0
  -30.8290  -13.3410   19.0890 C   0  0  0  0  0  2  0  0  0  0  0  0
  -29.8940  -12.8860   17.9290 C   0  0  0  0  0  2  0  0  0  0  0  0
  -28.5060  -12.4810   18.4610 C   0  0  0  0  0  2  0  0  0  0  0  0
  -28.0120  -13.4880   19.5240 C   0  0  0  0  0  3  0  0  0  0  0  0
  -29.0840  -13.8640   20.5700 C   0  0  0  0  0  2  0  0  0  0  0  0
  -30.2120  -14.5140   19.8580 N   0  0  0  0  0  0  0  0  0  0  0  0
  -31.8570  -15.8940   19.5350 O   0  0  0  0  0  0  0  0  0  0  0  0
  -25.7230  -13.9880   20.5080 C   0  0  0  0  0  0  0  0  0  0  0  0
  -24.6900  -13.1900   20.9030 C   0  0  0  0  0  0  0  0  0  0  0  0
  -25.1410  -11.8440   20.7550 C   0  0  0  0  0  0  0  0  0  0  0  0
  -26.7360  -13.1270   20.1230 N   0  0  0  0  0  0  0  0  0  0  0  0
  -26.4040  -11.8250   20.3330 N   0  0  0  0  0  0  0  0  0  0  0  0
  -24.4210  -10.5770   20.9260 C   0  0  0  0  0  0  0  0  0  0  0  0
  -24.8310   -9.6190   21.8780 C   0  0  0  0  0  3  0  0  0  0  0  0
  -24.1110   -8.4180   22.0460 C   0  0  0  0  0  3  0  0  0  0  0  0
  -22.9600   -8.1630   21.2610 C   0  0  0  0  0  0  0  0  0  0  0  0
  -22.5620   -9.1120   20.3010 C   0  0  0  0  0  3  0  0  0  0  0  0
  -23.2850  -10.3080   20.1350 C   0  0  0  0  0  3  0  0  0  0  0  0
  -22.2120   -7.0110   21.3300 O   0  0  0  0  0  0  0  0  0  0  0  0
  -21.9970   -6.3660   22.5220 C   0  0  0  0  0  0  0  0  0  0  0  0
  -21.3530   -7.0000   23.6090 C   0  0  0  0  0  3  0  0  0  0  0  0
  -21.0930   -6.2790   24.7910 C   0  0  0  0  0  3  0  0  0  0  0  0
  -21.4590   -4.9210   24.8790 C   0  0  0  0  0  0  0  0  0  0  0  0
  -22.0980   -4.2880   23.7960 C   0  0  0  0  0  3  0  0  0  0  0  0
  -22.3620   -5.0100   22.6190 C   0  0  0  0  0  0  0  0  0  0  0  0
  -22.9520   -4.3890   21.5690 F   0  0  0  0  0  0  0  0  0  0  0  0
  -21.2040   -4.2260   26.0110 F   0  0  0  0  0  0  0  0  0  0  0  0
  -23.3230  -13.6520   21.3060 C   0  0  0  0  0  0  0  0  0  0  0  0
  -22.6550  -12.9240   22.1900 N   0  0  0  0  0  0  0  0  0  0  0  0
  -22.8550  -14.7060   20.8730 O   0  0  0  0  0  0  0  0  0  0  0  0
  -23.0420  -12.0770   22.5830 H   0  0  0  0  0  0  0  0  0  0  0  0
  -21.7420  -13.2310   22.4920 H   0  0  0  0  0  0  0  0  0  0  0  0
  -25.8830  -15.3670   20.4120 N   0  0  0  0  0  0  0  0  0  0  0  0
  -25.1360  -16.0030   20.6760 H   0  0  0  0  0  0  0  0  0  0  0  0
  -26.7100  -15.8410   20.0740 H   0  0  0  0  0  0  0  0  0  0  0  0
  1  4  1  0
  2  5  2  0
  2  6  1  0
  3  7  1  0
  3  1  2  0
  4  8  1  0
  5  3  1  0
  6  4  2  0
  9  6  1  0
 10 21  2  0
 11  9  1  0
 11 16  1  0
 12 20  1  0
 12 22  1  0
 13 19  1  0
 13 15  1  0
 14 20  1  0
 15 16  2  0
 15 14  1  0
 17 11  2  0
 18 17  1  0
 18 13  2  0
 19 12  1  0
 20 10  1  0
 22 24  2  0
 23 22  1  0
 25 23  1  0
 26 35  2  0
 26 31  1  0
 27 23  1  0
 27 31  1  0
 28 27  1  0
 29 30  1  0
 29 28  1  0
 30 26  1  0
 31 32  2  0
 32 33  1  0
 34 33  2  0
 35 34  1  0
 36 10  1  0
 36 41  1  0
 36 37  1  0
 37 40  1  1
 37 38  1  0
 39 37  1  0
 41 44  1  0
 42 46  1  0
 42 41  1  0
 43 42  2  0
 46 45  1  0
 48 46  1  0
 48 49  1  0
 48 47  1  0
 50 52  1  0
 50 53  1  0
 50  5  1  0
 52 51  1  0
 54 60  1  0
 54 53  1  0
 55 60  1  0
 56 57  1  0
 56 55  1  0
 58 57  1  0
 58 65  1  0
 58 59  1  0
 60 59  1  0
 61 54  2  0
 62 63  2  0
 63 82  1  0
 64 63  1  0
 64 67  1  0
 65 66  1  0
 65 62  1  0
 66 64  2  0
 67 68  1  0
 68 69  2  0
 70 73  1  0
 70 69  1  0
 71 70  2  0
 72 71  1  0
 72 67  2  0
 73 74  1  0
 74 79  2  0
 74 75  1  0
 75 76  2  0
 76 77  1  0
 77 81  1  0
 78 77  2  0
 79 78  1  0
 80 79  1  0
 82 83  1  0
 83 86  1  0
 83 85  1  0
 84 82  2  0
 87 62  1  0
 87 88  1  0
 89 87  1  0
M  ISO  4   6 101   9 101  53 100  54 100
M  END
>  <TORSDO>  (68) 
F 19

>  <SCORE>  (68) 
-13.338

>  <name>  (68) 
67

>  <ligand_id>  (68) 
67

>  <original_smiles>  (68) 
[H]c1c([H])c([H])c2c(c1[H])C([H])([H])C([H])([H])C([H])([H])C2([H])N([H])C(=O)C1([H])N(C(=O)C([H])(N([H])C(=O)C([H])(N([H])C([H])([H])[H])C([H])([H])[H])C(C([H])([H])[H])(C([H])([H])[H])C([H])([H])[H])C([H])([H])c2c([H])c(Oc3c([H])c(C([H])(C([H])([H])C(=O)N4C([H])([H])C([H])([H])C([H])([H])C([H])(n5nc(-c6c([H])c([H])c(Oc7c([H])c([H])c(F)c([H])c7F)c([H])c6[H])c(C(=O)N([H])[H])c5N([H])[H])C4([H])[H])C([H])([H])C([H])([H])[H])c(C([H])([H])[H])c([H])c3C([H])([H])[H])c([H])c([H])c2C1([H])[H]

>  <smiles>  (68) 
[H]c1c([H])c([H])c2c(c1[H])C([H])([H])C([H])([H])C([H])([H])C2([H])N([H])C(=O)C1([H])N(C(=O)C([H])(N([H])C(=O)C([H])(N([H])C([H])([H])[H])C([H])([H])[H])C(C([H])([H])[H])(C([H])([H])[H])C([H])([H])[H])C([H])([H])c2c([H])c(Oc3c([H])c(C([H])(C([H])([H])C(=O)N4C([H])([H])C([H])([H])C([H])([H])C([H])(n5nc(-c6c([H])c([H])c(Oc7c([H])c([H])c(F)c([H])c7F)c([H])c6[H])c(C(=O)N([H])[H])c5N([H])[H])C4([H])[H])C([H])([H])C([H])([H])[H])c(C([H])([H])[H])c([H])c3C([H])([H])[H])c([H])c([H])c2C1([H])[H]

$$$$
68:0:0
     RDKit          3D

 93 95  0  0  1  0  0  0  0  0999 V2000
  -30.9330  -12.2220   17.7970 C   0  0  0  0  0  2  0  0  0  0  0  0
  -32.0450  -13.3370   17.5450 C   0  0  0  0  0  3  0  0  0  0  0  0
  -29.5220  -12.6480   18.5240 C   0  0  0  0  0  3  0  0  0  0  0  0
  -31.9550  -14.8850   17.9270 C   0  0  0  0  0  0  0  0  0  0  0  0
  -29.3710  -14.9160   18.9790 C   0  0  0  0  0  1  0  0  0  0  0  0
  -30.7500  -15.6140   18.6860 C   0  0  0  0  0  3  0  0  0  0  0  0
  -29.0080  -11.2200   18.9980 C   0  0  0  0  0  1  0  0  0  0  0  0
  -33.1570  -15.7520   17.5730 C   0  0  0  0  0  2  0  0  0  0  0  0
  -34.6760  -14.9850   19.5510 C   0  0  0  0  0  1  0  0  0  0  0  0
  -34.5340  -15.2410   18.0410 C   0  0  0  0  0  2  0  0  0  0  0  0
  -31.0480  -16.4220   19.9870 C   0  0  0  0  0  2  0  0  0  0  0  0
  -30.2830  -15.8740   21.3200 C   0  0  0  0  0  2  0  0  0  0  0  0
  -30.5710  -14.4040   21.8300 C   0  0  0  0  0  0  0  0  0  0  0  0
  -30.6210  -13.3280   20.0110 C   0  0  0  0  0  1  0  0  0  0  0  0
  -28.3930  -13.3450   17.7930 C   0  0  0  0  0  2  0  0  0  0  0  0
  -26.7990  -13.0590   18.7300 C   0  0  0  0  0  3  0  0  0  0  0  0
  -26.7730  -12.9030   20.5490 C   0  0  0  0  0  0  0  0  0  0  0  0
  -28.1450  -13.1500   21.7900 C   0  0  0  0  0  2  0  0  0  0  0  0
  -29.8310  -13.3440   21.5000 N   0  0  0  0  0  0  0  0  0  0  0  0
  -31.7640  -14.2230   22.0120 O   0  0  0  0  0  0  0  0  0  0  0  0
  -24.4760  -13.2890   21.2360 C   0  0  0  0  0  0  0  0  0  0  0  0
  -23.4570  -12.4510   21.5620 C   0  0  0  0  0  0  0  0  0  0  0  0
  -23.9890  -11.1230   21.6090 C   0  0  0  0  0  0  0  0  0  0  0  0
  -25.5490  -12.4880   21.1280 N   0  0  0  0  0  0  0  0  0  0  0  0
  -25.2890  -11.1690   21.4460 N   0  0  0  0  0  0  0  0  0  0  0  0
  -23.3330   -9.8170   21.7580 C   0  0  0  0  0  0  0  0  0  0  0  0
  -23.8420   -8.8210   22.6210 C   0  0  0  0  0  3  0  0  0  0  0  0
  -23.1530   -7.6030   22.7960 C   0  0  0  0  0  3  0  0  0  0  0  0
  -21.9420   -7.3690   22.1070 C   0  0  0  0  0  0  0  0  0  0  0  0
  -21.4610   -8.3420   21.2120 C   0  0  0  0  0  3  0  0  0  0  0  0
  -22.1490   -9.5520   21.0340 C   0  0  0  0  0  3  0  0  0  0  0  0
  -21.2020   -6.2150   22.2170 O   0  0  0  0  0  0  0  0  0  0  0  0
  -21.3620   -5.3520   23.2700 C   0  0  0  0  0  0  0  0  0  0  0  0
  -21.0780   -5.7320   24.5990 C   0  0  0  0  0  3  0  0  0  0  0  0
  -21.1930   -4.7900   25.6400 C   0  0  0  0  0  3  0  0  0  0  0  0
  -21.5790   -3.4670   25.3540 C   0  0  0  0  0  0  0  0  0  0  0  0
  -21.8560   -3.0850   24.0310 C   0  0  0  0  0  3  0  0  0  0  0  0
  -21.7450   -4.0250   22.9900 C   0  0  0  0  0  0  0  0  0  0  0  0
  -21.9940   -3.6470   21.7140 F   0  0  0  0  0  0  0  0  0  0  0  0
  -21.6810   -2.5600   26.3530 F   0  0  0  0  0  0  0  0  0  0  0  0
  -22.0440  -12.8650   21.7100 C   0  0  0  0  0  0  0  0  0  0  0  0
  -21.3070  -12.1630   22.5580 N   0  0  0  0  0  0  0  0  0  0  0  0
  -21.6140  -13.8590   21.1280 O   0  0  0  0  0  0  0  0  0  0  0  0
  -21.6880  -11.3640   23.0410 H   0  0  0  0  0  0  0  0  0  0  0  0
  -20.3420  -12.4180   22.7210 H   0  0  0  0  0  0  0  0  0  0  0  0
  -24.6120  -14.6450   20.9740 N   0  0  0  0  0  0  0  0  0  0  0  0
  -23.8310  -15.2900   20.9570 H   0  0  0  0  0  0  0  0  0  0  0  0
  -25.4840  -15.0500   20.6630 H   0  0  0  0  0  0  0  0  0  0  0  0
  -28.3890  -16.6660   19.3080 C   0  0  0  0  0 15  0  0  0  0  0  0
  -28.4730  -18.7620   19.8540 C   0  0  0  0  0 15  0  0  0  0  0  0
  -28.4870  -20.8890   19.5630 C   0  0  0  0  0 15  0  0  0  0  0  0
  -27.8250  -22.8690   20.0600 C   0  0  0  0  0 15  0  0  0  0  0  0
  -28.1150  -24.7630   20.2300 O   0  0  0  0  0  1  0  0  0  0  0  0
  -24.9360  -31.6770   23.1190 C   0  0  0  0  0  0  0  0  0  0  0  0
  -27.2900  -26.1790   20.2570 C   0  0  0  0  0  0  0  0  0  0  0  0
  -23.7650  -30.2500   21.5150 C   0  0  0  0  0  3  0  0  0  0  0  0
  -25.1740  -28.4810   20.1830 C   0  0  0  0  0  0  0  0  0  0  0  0
  -26.3630  -30.2260   21.4740 C   0  0  0  0  0  2  0  0  0  0  0  0
  -26.3840  -28.7460   20.8320 C   0  0  0  0  0  0  0  0  0  0  0  0
  -27.4280  -27.6300   20.8210 C   0  0  0  0  0  3  0  0  0  0  0  0
  -26.0620  -26.2150   19.5510 C   0  0  0  0  0  3  0  0  0  0  0  0
  -25.0700  -27.2490   19.5190 C   0  0  0  0  0  3  0  0  0  0  0  0
  -24.0190  -29.5020   20.1770 C   0  0  0  0  0  2  0  0  0  0  0  0
  -25.0530  -30.7630   22.0840 N   0  0  0  0  0  0  0  0  0  0  0  0
  -23.8290  -32.0190   23.5800 O   0  0  0  0  0  0  0  0  0  0  0  0
  -22.9940  -29.3310   22.5020 C   0  0  0  0  0  0  0  0  0  0  0  0
  -21.6540  -29.2470   22.3870 N   0  0  0  0  0  0  0  0  0  0  0  0
  -23.6160  -28.6920   23.3530 O   0  0  0  0  0  0  0  0  0  0  0  0
  -21.2010  -29.8060   21.6790 H   0  0  0  0  0  0  0  0  0  0  0  0
  -18.2070  -28.2520   22.9940 C   0  0  0  0  0  0  0  0  0  0  0  0
  -20.7850  -28.3600   23.1760 C   0  0  0  0  0  3  0  0  0  0  0  0
  -20.7760  -26.9280   22.5900 C   0  0  0  0  0  2  0  0  0  0  0  0
  -19.6240  -26.6860   21.6080 C   0  0  0  0  0  2  0  0  0  0  0  0
  -18.2760  -26.9060   22.2940 C   0  0  0  0  0  2  0  0  0  0  0  0
  -19.3820  -28.9440   23.3930 C   0  0  0  0  0  0  0  0  0  0  0  0
  -19.2490  -30.2050   24.0160 C   0  0  0  0  0  3  0  0  0  0  0  0
  -17.9780  -30.7680   24.2390 C   0  0  0  0  0  3  0  0  0  0  0  0
  -16.8210  -30.0720   23.8500 C   0  0  0  0  0  3  0  0  0  0  0  0
  -16.9360  -28.8150   23.2320 C   0  0  0  0  0  3  0  0  0  0  0  0
  -26.1770  -32.3510   23.7750 C   0  0  0  0  0  3  0  0  0  0  0  0
  -25.8040  -33.7250   24.1810 N   0  0  0  0  0  0  0  0  0  0  0  0
  -26.0840  -34.8440   23.4990 C   0  0  0  0  0  0  0  0  0  0  0  0
  -26.7310  -34.8320   22.4510 O   0  0  0  0  0  0  0  0  0  0  0  0
  -25.2150  -33.7960   24.9980 H   0  0  0  0  0  0  0  0  0  0  0  0
  -24.2890  -36.6110   23.3310 C   0  0  0  0  0  1  0  0  0  0  0  0
  -25.5720  -36.1890   24.0640 C   0  0  0  0  0  3  0  0  0  0  0  0
  -27.7010  -37.1090   24.8790 C   0  0  0  0  0  1  0  0  0  0  0  0
  -26.5640  -37.2840   23.9810 N   0  0  0  0  0  0  0  0  0  0  0  0
  -26.1300  -38.1770   24.1920 H   0  0  0  0  0  0  0  0  0  0  0  0
  -26.7050  -31.5630   25.0370 C   0  0  1  0  0  0  0  0  0  0  0  0
  -25.6080  -31.2410   26.0820 C   0  0  0  0  0  1  0  0  0  0  0  0
  -27.3500  -30.2240   24.6260 C   0  0  0  0  0  1  0  0  0  0  0  0
  -27.8140  -32.3840   25.7380 C   0  0  0  0  0  1  0  0  0  0  0  0
  1  3  1  0
  2  1  1  0
  2  4  2  0
  3  7  1  0
  4  6  1  0
  6  5  1  0
  6 11  1  0
  8  4  1  0
  8 10  1  0
 10  9  1  0
 11 12  1  0
 12 13  1  0
 13 20  2  0
 14 19  1  0
 15  3  1  0
 15 16  1  0
 16 17  2  0
 17 24  1  0
 17 18  1  0
 19 18  1  0
 19 13  1  0
 21 22  2  0
 22 23  1  0
 22 41  1  0
 23 26  1  0
 24 21  1  0
 24 25  1  0
 25 23  2  0
 26 27  1  0
 27 28  2  0
 29 32  1  0
 29 28  1  0
 30 29  2  0
 31 30  1  0
 31 26  2  0
 32 33  1  0
 33 34  1  0
 34 35  2  0
 36 35  1  0
 36 40  1  0
 37 36  2  0
 38 33  2  0
 38 37  1  0
 39 38  1  0
 41 42  1  0
 42 45  1  0
 42 44  1  0
 43 41  2  0
 46 21  1  0
 47 46  1  0
 48 46  1  0
 53 55  1  0
 54 65  2  0
 55 60  1  0
 56 64  1  0
 56 66  1  0
 57 59  1  0
 58 64  1  0
 59 58  1  0
 60 59  2  0
 61 55  2  0
 62 61  1  0
 62 57  2  0
 63 57  1  0
 63 56  1  0
 64 54  1  0
 66 68  2  0
 67 66  1  0
 69 67  1  0
 70 79  2  0
 70 75  1  0
 71 67  1  0
 71 75  1  0
 72 71  1  0
 73 74  1  0
 73 72  1  0
 74 70  1  0
 75 76  2  0
 76 77  1  0
 78 77  2  0
 79 78  1  0
 80 54  1  0
 80 81  1  0
 80 90  1  0
 81 84  1  0
 82 86  1  0
 82 81  1  0
 83 82  2  0
 86 85  1  0
 88 86  1  0
 88 89  1  0
 88 87  1  0
 90 93  1  1
 90 91  1  0
 92 90  1  0
M  ISO  4  12 100  13 100  52 101  53 101
M  END
>  <TORSDO>  (69) 
F 24

>  <SCORE>  (69) 
-9.735

>  <name>  (69) 
68

>  <ligand_id>  (69) 
68

>  <original_smiles>  (69) 
[H]c1c([H])c([H])c2c(c1[H])C([H])([H])C([H])([H])C([H])([H])C2([H])N([H])C(=O)C1([H])N(C(=O)C([H])(N([H])C(=O)C([H])(N([H])C([H])([H])[H])C([H])([H])[H])C(C([H])([H])[H])(C([H])([H])[H])C([H])([H])[H])C([H])([H])c2c([H])c(OC([H])([H])C([H])([H])C([H])([H])C([H])([H])c3c(C([H])([H])[H])c([H])c([H])c(C([H])([H])C([H])([H])C([H])([H])[H])c3C([H])([H])C([H])([H])C(=O)N3C([H])([H])C([H])([H])C([H])([H])C([H])(n4nc(-c5c([H])c([H])c(Oc6c([H])c([H])c(F)c([H])c6F)c([H])c5[H])c(C(=O)N([H])[H])c4N([H])[H])C3([H])[H])c([H])c([H])c2C1([H])[H]

>  <smiles>  (69) 
[H]c1c([H])c([H])c2c(c1[H])C([H])([H])C([H])([H])C([H])([H])C2([H])N([H])C(=O)C1([H])N(C(=O)C([H])(N([H])C(=O)C([H])(N([H])C([H])([H])[H])C([H])([H])[H])C(C([H])([H])[H])(C([H])([H])[H])C([H])([H])[H])C([H])([H])c2c([H])c(OC([H])([H])C([H])([H])C([H])([H])C([H])([H])c3c(C([H])([H])[H])c([H])c([H])c(C([H])([H])C([H])([H])C([H])([H])[H])c3C([H])([H])C([H])([H])C(=O)N3C([H])([H])C([H])([H])C([H])([H])C([H])(n4nc(-c5c([H])c([H])c(Oc6c([H])c([H])c(F)c([H])c6F)c([H])c5[H])c(C(=O)N([H])[H])c4N([H])[H])C3([H])[H])c([H])c([H])c2C1([H])[H]

$$$$
69:0:0
     RDKit          3D

 90 98  0  0  1  0  0  0  0  0999 V2000
  -29.1740  -23.4920   19.2120 C   0  0  0  0  0  3  0  0  0  0  0  0
  -29.4730  -22.1260   19.8700 C   0  0  0  0  0  0  0  0  0  0  0  0
  -29.3480  -22.2360   21.2850 C   0  0  0  0  0  0  0  0  0  0  0  0
  -29.0800  -23.4850   21.9430 C   0  0  0  0  0  0  0  0  0  0  0  0
  -28.7980  -24.8480   19.8490 C   0  0  0  0  0  0  0  0  0  0  0  0
  -28.7930  -24.7090   21.2580 C   0  0  0  0  0  0  0  0  0  0  0  0
  -29.4520  -20.9710   22.1410 C   0  0  0  0  0  1  0  0  0  0  0  0
  -29.1000  -23.5230   23.4740 C   0  0  0  0  0  1  0  0  0  0  0  0
  -28.5120  -25.8170   22.0050 O   0  0  0  0  0  0  0  0  0  0  0  0
  -28.3780  -25.6040   22.9200 H   0  0  0  0  0  0  0  0  0  0  0  0
  -28.5920  -26.2750   19.3120 O   0  0  0  0  0  0  0  0  0  0  0  0
  -24.6470  -31.6090   23.0000 C   0  0  0  0  0  0  0  0  0  0  0  0
  -27.4710  -27.2440   19.4890 C   0  0  0  0  0  0  0  0  0  0  0  0
  -23.4930  -30.2120   21.3350 C   0  0  0  0  0  3  0  0  0  0  0  0
  -24.9970  -28.8660   19.7180 C   0  0  0  0  0  0  0  0  0  0  0  0
  -26.0100  -30.7000   21.0530 C   0  0  0  0  0  2  0  0  0  0  0  0
  -26.1780  -29.3510   20.2970 C   0  0  0  0  0  0  0  0  0  0  0  0
  -27.4060  -28.5610   20.1610 C   0  0  0  0  0  3  0  0  0  0  0  0
  -26.2430  -26.9090   18.8760 C   0  0  0  0  0  3  0  0  0  0  0  0
  -25.0510  -27.6670   18.9890 C   0  0  0  0  0  3  0  0  0  0  0  0
  -23.6980  -29.6480   19.9030 C   0  0  0  0  0  2  0  0  0  0  0  0
  -24.7400  -30.8650   21.8500 N   0  0  0  0  0  0  0  0  0  0  0  0
  -23.5710  -31.7480   23.6020 O   0  0  0  0  0  0  0  0  0  0  0  0
  -22.9650  -29.0860   22.2610 C   0  0  0  0  0  0  0  0  0  0  0  0
  -21.6830  -28.7030   22.1060 N   0  0  0  0  0  0  0  0  0  0  0  0
  -23.7130  -28.5600   23.0870 O   0  0  0  0  0  0  0  0  0  0  0  0
  -21.1220  -29.1850   21.4170 H   0  0  0  0  0  0  0  0  0  0  0  0
  -18.5940  -26.8240   22.4140 C   0  0  0  0  0  0  0  0  0  0  0  0
  -21.0210  -27.6180   22.8380 C   0  0  0  0  0  3  0  0  0  0  0  0
  -21.4540  -26.2350   22.2960 C   0  0  0  0  0  2  0  0  0  0  0  0
  -20.5140  -25.6870   21.2200 C   0  0  0  0  0  2  0  0  0  0  0  0
  -19.0930  -25.5410   21.7710 C   0  0  0  0  0  2  0  0  0  0  0  0
  -19.4980  -27.8060   22.9010 C   0  0  0  0  0  0  0  0  0  0  0  0
  -18.9810  -28.9920   23.4640 C   0  0  0  0  0  3  0  0  0  0  0  0
  -17.5920  -29.2080   23.5410 C   0  0  0  0  0  3  0  0  0  0  0  0
  -16.7010  -28.2270   23.0700 C   0  0  0  0  0  3  0  0  0  0  0  0
  -17.2020  -27.0370   22.5140 C   0  0  0  0  0  3  0  0  0  0  0  0
  -25.8870  -32.3350   23.6050 C   0  0  0  0  0  3  0  0  0  0  0  0
  -26.5220  -31.5600   24.8250 C   0  0  1  0  0  0  0  0  0  0  0  0
  -25.5020  -31.1850   25.9260 C   0  0  0  0  0  1  0  0  0  0  0  0
  -27.2010  -30.2540   24.3550 C   0  0  0  0  0  1  0  0  0  0  0  0
  -27.6340  -32.4230   25.4700 C   0  0  0  0  0  1  0  0  0  0  0  0
  -25.4650  -33.6840   24.0250 N   0  0  0  0  0  0  0  0  0  0  0  0
  -25.6910  -34.8090   23.3330 C   0  0  0  0  0  0  0  0  0  0  0  0
  -26.3380  -34.8250   22.2820 O   0  0  0  0  0  0  0  0  0  0  0  0
  -24.8780  -33.7380   24.8440 H   0  0  0  0  0  0  0  0  0  0  0  0
  -23.8120  -36.4730   23.1450 C   0  0  0  0  0  1  0  0  0  0  0  0
  -25.1090  -36.1240   23.8910 C   0  0  0  0  0  3  0  0  0  0  0  0
  -27.1880  -37.1390   24.7170 C   0  0  0  0  0  1  0  0  0  0  0  0
  -26.0490  -37.2650   23.8110 N   0  0  0  0  0  0  0  0  0  0  0  0
  -25.5740  -38.1390   24.0180 H   0  0  0  0  0  0  0  0  0  0  0  0
  -29.7320  -20.5170   19.2220 C   0  0  0  0  0  2  0  0  0  0  0  0
  -30.5860  -19.0120   19.7520 C   0  0  0  0  0  3  0  0  0  0  0  0
  -30.2220  -17.2540   19.5880 C   0  0  0  0  0  3  0  0  0  0  0  0
  -31.0920  -15.7290   19.7180 C   0  0  0  0  0  0  0  0  0  0  0  0
  -31.0510  -13.2330   19.0080 C   0  0  0  0  0  2  0  0  0  0  0  0
  -30.1010  -12.9950   17.8050 C   0  0  0  0  0  2  0  0  0  0  0  0
  -28.6540  -12.7750   18.2800 C   0  0  0  0  0  2  0  0  0  0  0  0
  -28.2380  -13.8040   19.3590 C   0  0  0  0  0  3  0  0  0  0  0  0
  -29.3090  -13.9810   20.4550 C   0  0  0  0  0  2  0  0  0  0  0  0
  -30.5490  -14.4160   19.7950 N   0  0  0  0  0  0  0  0  0  0  0  0
  -32.3140  -15.7160   19.5060 O   0  0  0  0  0  0  0  0  0  0  0  0
  -25.9320  -14.4500   20.2370 C   0  0  0  0  0  0  0  0  0  0  0  0
  -24.8460  -13.7120   20.6190 C   0  0  0  0  0  0  0  0  0  0  0  0
  -25.2410  -12.3430   20.5160 C   0  0  0  0  0  0  0  0  0  0  0  0
  -26.9160  -13.5350   19.9130 N   0  0  0  0  0  0  0  0  0  0  0  0
  -26.5160  -12.2580   20.1500 N   0  0  0  0  0  0  0  0  0  0  0  0
  -24.4580  -11.1120   20.6860 C   0  0  0  0  0  0  0  0  0  0  0  0
  -24.8310  -10.1180   21.6170 C   0  0  0  0  0  3  0  0  0  0  0  0
  -24.0480   -8.9540   21.7760 C   0  0  0  0  0  3  0  0  0  0  0  0
  -22.8760   -8.7760   21.0050 C   0  0  0  0  0  0  0  0  0  0  0  0
  -22.5210   -9.7580   20.0630 C   0  0  0  0  0  3  0  0  0  0  0  0
  -23.3040  -10.9120   19.9010 C   0  0  0  0  0  3  0  0  0  0  0  0
  -22.0680   -7.6660   21.0740 O   0  0  0  0  0  0  0  0  0  0  0  0
  -21.9010   -6.9680   22.2430 C   0  0  0  0  0  0  0  0  0  0  0  0
  -21.3820   -7.5780   23.4060 C   0  0  0  0  0  3  0  0  0  0  0  0
  -21.1610   -6.8080   24.5660 C   0  0  0  0  0  3  0  0  0  0  0  0
  -21.4500   -5.4290   24.5620 C   0  0  0  0  0  0  0  0  0  0  0  0
  -21.9620   -4.8200   23.4030 C   0  0  0  0  0  3  0  0  0  0  0  0
  -22.1840   -5.5870   22.2450 C   0  0  0  0  0  0  0  0  0  0  0  0
  -22.6570   -4.9920   21.1250 F   0  0  0  0  0  0  0  0  0  0  0  0
  -21.2310   -4.6870   25.6730 F   0  0  0  0  0  0  0  0  0  0  0  0
  -23.4860  -14.2470   20.9600 C   0  0  0  0  0  0  0  0  0  0  0  0
  -22.7600  -13.5640   21.8380 N   0  0  0  0  0  0  0  0  0  0  0  0
  -23.0780  -15.3060   20.4820 O   0  0  0  0  0  0  0  0  0  0  0  0
  -23.1040  -12.7050   22.2440 H   0  0  0  0  0  0  0  0  0  0  0  0
  -21.8490  -13.9060   22.1090 H   0  0  0  0  0  0  0  0  0  0  0  0
  -26.1580  -15.8180   20.1080 N   0  0  0  0  0  0  0  0  0  0  0  0
  -25.4360  -16.5070   20.2840 H   0  0  0  0  0  0  0  0  0  0  0  0
  -27.0190  -16.2250   19.7670 H   0  0  0  0  0  0  0  0  0  0  0  0
  1  5  2  0
  1  2  1  0
  2  3  2  0
  3  4  1  0
  3  7  1  0
  4  8  1  0
  5  6  1  0
  6  4  2  0
  6  9  1  0
  9 10  1  0
 11 13  1  0
 11  5  1  0
 12 23  2  0
 13 18  1  0
 14 22  1  0
 14 24  1  0
 15 21  1  0
 15 17  1  0
 16 22  1  0
 17 16  1  0
 18 17  2  0
 19 20  1  0
 19 13  2  0
 20 15  2  0
 21 14  1  0
 22 12  1  0
 24 26  2  0
 25 24  1  0
 27 25  1  0
 28 37  2  0
 28 33  1  0
 29 25  1  0
 29 33  1  0
 30 29  1  0
 31 32  1  0
 31 30  1  0
 32 28  1  0
 33 34  2  0
 34 35  1  0
 36 35  2  0
 37 36  1  0
 38 12  1  0
 38 43  1  0
 38 39  1  0
 39 42  1  1
 39 40  1  0
 41 39  1  0
 43 46  1  0
 44 48  1  0
 44 43  1  0
 45 44  2  0
 48 47  1  0
 50 48  1  0
 50 51  1  0
 50 49  1  0
 52 53  1  0
 52  2  1  0
 54 55  1  0
 54 53  2  0
 55 61  1  0
 56 61  1  0
 57 58  1  0
 57 56  1  0
 59 58  1  0
 59 66  1  0
 59 60  1  0
 61 60  1  0
 62 55  2  0
 63 64  2  0
 64 83  1  0
 65 64  1  0
 65 68  1  0
 66 67  1  0
 66 63  1  0
 67 65  2  0
 68 69  1  0
 69 70  2  0
 71 74  1  0
 71 70  1  0
 72 71  2  0
 73 72  1  0
 73 68  2  0
 74 75  1  0
 75 80  2  0
 75 76  1  0
 76 77  2  0
 78 77  1  0
 78 82  1  0
 79 78  2  0
 80 79  1  0
 81 80  1  0
 83 84  1  0
 84 87  1  0
 84 86  1  0
 85 83  2  0
 88 63  1  0
 88 89  1  0
 90 88  1  0
M  ISO  4   5 101  11 101  54 100  55 100
M  END
>  <TORSDO>  (70) 
F 20

>  <SCORE>  (70) 
-12.802

>  <name>  (70) 
69

>  <ligand_id>  (70) 
69

>  <original_smiles>  (70) 
[H]Oc1c(Oc2c([H])c([H])c3c(c2[H])C([H])([H])N(C(=O)C([H])(N([H])C(=O)C([H])(N([H])C([H])([H])[H])C([H])([H])[H])C(C([H])([H])[H])(C([H])([H])[H])C([H])([H])[H])C([H])(C(=O)N([H])C2([H])c4c([H])c([H])c([H])c([H])c4C([H])([H])C([H])([H])C2([H])[H])C3([H])[H])c([H])c(C([H])([H])C([H])([H])C([H])([H])C(=O)N2C([H])([H])C([H])([H])C([H])([H])C([H])(n3nc(-c4c([H])c([H])c(Oc5c([H])c([H])c(F)c([H])c5F)c([H])c4[H])c(C(=O)N([H])[H])c3N([H])[H])C2([H])[H])c(C([H])([H])[H])c1C([H])([H])[H]

>  <smiles>  (70) 
[H]Oc1c(Oc2c([H])c([H])c3c(c2[H])C([H])([H])N(C(=O)C([H])(N([H])C(=O)C([H])(N([H])C([H])([H])[H])C([H])([H])[H])C(C([H])([H])[H])(C([H])([H])[H])C([H])([H])[H])C([H])(C(=O)N([H])C2([H])c4c([H])c([H])c([H])c([H])c4C([H])([H])C([H])([H])C2([H])[H])C3([H])[H])c([H])c(C([H])([H])C([H])([H])C([H])([H])C(=O)N2C([H])([H])C([H])([H])C([H])([H])C([H])(n3nc(-c4c([H])c([H])c(Oc5c([H])c([H])c(F)c([H])c5F)c([H])c4[H])c(C(=O)N([H])[H])c3N([H])[H])C2([H])[H])c(C([H])([H])[H])c1C([H])([H])[H]

$$$$
70:0:0
     RDKit          3D

 88 96  0  0  1  0  0  0  0  0999 V2000
  -29.5240  -20.5260   20.9890 C   0  0  0  0  0  3  0  0  0  0  0  0
  -28.6940  -18.7680   19.3140 C   0  0  0  0  0  3  0  0  0  0  0  0
  -28.6870  -17.5230   18.6760 C   0  0  0  0  0  3  0  0  0  0  0  0
  -29.9810  -17.7260   21.1030 C   0  0  0  0  0  3  0  0  0  0  0  0
  -29.9260  -16.3600   20.5100 C   0  0  0  0  0  0  0  0  0  0  0  0
  -29.4070  -18.9680   20.5030 C   0  0  0  0  0  0  0  0  0  0  0  0
  -29.3590  -16.3940   19.1920 C   0  0  0  0  0  0  0  0  0  0  0  0
  -29.5820  -15.3080   18.1610 C   0  0  0  0  0  1  0  0  0  0  0  0
  -30.6580  -15.0110   21.0210 C   0  0  0  0  0  0  0  0  0  0  0  0
  -30.7010  -12.5610   20.3660 C   0  0  0  0  0  2  0  0  0  0  0  0
  -29.9400  -12.2290   19.0600 C   0  0  0  0  0  2  0  0  0  0  0  0
  -28.4120  -12.1650   19.2670 C   0  0  0  0  0  2  0  0  0  0  0  0
  -27.8420  -13.1900   20.2880 C   0  0  0  0  0  3  0  0  0  0  0  0
  -28.7470  -13.3660   21.5160 C   0  0  0  0  0  2  0  0  0  0  0  0
  -30.0770  -13.7420   21.0220 N   0  0  0  0  0  0  0  0  0  0  0  0
  -31.8900  -15.0500   21.0950 O   0  0  0  0  0  0  0  0  0  0  0  0
  -25.3840  -13.7560   20.7190 C   0  0  0  0  0  0  0  0  0  0  0  0
  -24.2930  -12.9740   20.9840 C   0  0  0  0  0  0  0  0  0  0  0  0
  -24.7800  -11.6340   21.0750 C   0  0  0  0  0  0  0  0  0  0  0  0
  -26.4620  -12.8900   20.6490 N   0  0  0  0  0  0  0  0  0  0  0  0
  -26.1000  -11.6140   20.9370 N   0  0  0  0  0  0  0  0  0  0  0  0
  -24.0580  -10.3630   21.2230 C   0  0  0  0  0  0  0  0  0  0  0  0
  -24.4230   -9.4190   22.2080 C   0  0  0  0  0  3  0  0  0  0  0  0
  -23.7000   -8.2140   22.3450 C   0  0  0  0  0  3  0  0  0  0  0  0
  -22.6010   -7.9440   21.4950 C   0  0  0  0  0  0  0  0  0  0  0  0
  -22.2590   -8.8770   20.5010 C   0  0  0  0  0  3  0  0  0  0  0  0
  -22.9820  -10.0740   20.3620 C   0  0  0  0  0  3  0  0  0  0  0  0
  -21.8570   -6.7900   21.5400 O   0  0  0  0  0  0  0  0  0  0  0  0
  -21.7550   -6.0430   22.6870 C   0  0  0  0  0  0  0  0  0  0  0  0
  -21.2640   -6.5910   23.8910 C   0  0  0  0  0  3  0  0  0  0  0  0
  -21.1110   -5.7700   25.0260 C   0  0  0  0  0  3  0  0  0  0  0  0
  -21.4390   -4.4020   24.9570 C   0  0  0  0  0  0  0  0  0  0  0  0
  -21.9230   -3.8540   23.7560 C   0  0  0  0  0  3  0  0  0  0  0  0
  -22.0770   -4.6720   22.6230 C   0  0  0  0  0  0  0  0  0  0  0  0
  -22.5240   -4.1350   21.4630 F   0  0  0  0  0  0  0  0  0  0  0  0
  -21.2840   -3.6120   26.0450 F   0  0  0  0  0  0  0  0  0  0  0  0
  -22.8650  -13.4300   21.0500 C   0  0  0  0  0  0  0  0  0  0  0  0
  -22.0440  -12.7580   21.8500 N   0  0  0  0  0  0  0  0  0  0  0  0
  -22.4800  -14.4170   20.4260 O   0  0  0  0  0  0  0  0  0  0  0  0
  -22.3660  -11.9600   22.3780 H   0  0  0  0  0  0  0  0  0  0  0  0
  -21.0800  -13.0470   21.9360 H   0  0  0  0  0  0  0  0  0  0  0  0
  -25.5470  -15.1210   20.5020 N   0  0  0  0  0  0  0  0  0  0  0  0
  -24.7660  -15.7670   20.4990 H   0  0  0  0  0  0  0  0  0  0  0  0
  -26.4320  -15.5680   20.2880 H   0  0  0  0  0  0  0  0  0  0  0  0
  -28.7670  -21.8090   20.2130 C   0  0  0  0  0  3  0  0  0  0  0  0
  -29.0310  -23.4410   20.4770 C   0  0  0  0  0  3  0  0  0  0  0  0
  -28.0820  -24.6650   19.8470 C   0  0  0  0  0  3  0  0  0  0  0  0
  -28.3290  -26.1880   19.9220 O   0  0  0  0  0  0  0  0  0  0  0  0
  -24.6520  -31.7470   22.9650 C   0  0  0  0  0  0  0  0  0  0  0  0
  -27.2510  -27.1330   19.8510 C   0  0  0  0  0  0  0  0  0  0  0  0
  -23.4430  -30.3470   21.3340 C   0  0  0  0  0  3  0  0  0  0  0  0
  -24.8890  -28.8170   19.8660 C   0  0  0  0  0  0  0  0  0  0  0  0
  -25.9850  -30.6670   21.1220 C   0  0  0  0  0  2  0  0  0  0  0  0
  -26.0690  -29.2850   20.4580 C   0  0  0  0  0  0  0  0  0  0  0  0
  -27.2490  -28.4580   20.4360 C   0  0  0  0  0  3  0  0  0  0  0  0
  -26.0470  -26.7630   19.2080 C   0  0  0  0  0  3  0  0  0  0  0  0
  -24.8900  -27.5690   19.2250 C   0  0  0  0  0  3  0  0  0  0  0  0
  -23.6470  -29.6870   19.9450 C   0  0  0  0  0  2  0  0  0  0  0  0
  -24.7130  -30.9410   21.8620 N   0  0  0  0  0  0  0  0  0  0  0  0
  -23.5720  -32.0090   23.5180 O   0  0  0  0  0  0  0  0  0  0  0  0
  -22.8010  -29.3190   22.3000 C   0  0  0  0  0  0  0  0  0  0  0  0
  -21.4670  -29.1600   22.2270 N   0  0  0  0  0  0  0  0  0  0  0  0
  -23.5040  -28.6670   23.0760 O   0  0  0  0  0  0  0  0  0  0  0  0
  -20.9570  -29.7370   21.5740 H   0  0  0  0  0  0  0  0  0  0  0  0
  -18.0990  -27.9910   22.8620 C   0  0  0  0  0  0  0  0  0  0  0  0
  -20.6720  -28.2110   23.0090 C   0  0  0  0  0  3  0  0  0  0  0  0
  -20.7230  -26.7960   22.3890 C   0  0  0  0  0  2  0  0  0  0  0  0
  -19.5680  -26.5180   21.4210 C   0  0  0  0  0  2  0  0  0  0  0  0
  -18.2220  -26.6620   22.1370 C   0  0  0  0  0  2  0  0  0  0  0  0
  -19.2480  -28.7260   23.2570 C   0  0  0  0  0  0  0  0  0  0  0  0
  -19.0760  -29.9720   23.8990 C   0  0  0  0  0  3  0  0  0  0  0  0
  -17.7890  -30.4830   24.1470 C   0  0  0  0  0  3  0  0  0  0  0  0
  -16.6550  -29.7450   23.7660 C   0  0  0  0  0  3  0  0  0  0  0  0
  -16.8110  -28.5010   23.1290 C   0  0  0  0  0  3  0  0  0  0  0  0
  -25.9320  -32.3970   23.5720 C   0  0  0  0  0  3  0  0  0  0  0  0
  -26.5290  -31.5770   24.7830 C   0  0  1  0  0  0  0  0  0  0  0  0
  -25.4930  -31.2490   25.8840 C   0  0  0  0  0  1  0  0  0  0  0  0
  -27.1340  -30.2400   24.2970 C   0  0  0  0  0  1  0  0  0  0  0  0
  -27.6840  -32.3720   25.4350 C   0  0  0  0  0  1  0  0  0  0  0  0
  -25.5830  -33.7610   23.9990 N   0  0  0  0  0  0  0  0  0  0  0  0
  -25.8860  -34.8740   23.3180 C   0  0  0  0  0  0  0  0  0  0  0  0
  -26.5560  -34.8630   22.2820 O   0  0  0  0  0  0  0  0  0  0  0  0
  -24.9860  -33.8410   24.8090 H   0  0  0  0  0  0  0  0  0  0  0  0
  -24.1150  -36.6480   23.0930 C   0  0  0  0  0  1  0  0  0  0  0  0
  -25.3650  -36.2140   23.8760 C   0  0  0  0  0  3  0  0  0  0  0  0
  -27.4770  -37.0890   24.7740 C   0  0  0  0  0  1  0  0  0  0  0  0
  -26.3720  -37.2980   23.8430 N   0  0  0  0  0  0  0  0  0  0  0  0
  -25.9430  -38.1950   24.0550 H   0  0  0  0  0  0  0  0  0  0  0  0
  2  6  1  0
  3  7  1  0
  3  2  2  0
  5  9  1  0
  5  4  1  0
  6  1  1  0
  6  4  2  0
  7  5  2  0
  8  7  1  0
  9 15  1  0
  9 16  2  0
 10 15  1  0
 11 12  1  0
 11 10  1  0
 13 12  1  0
 13 20  1  0
 13 14  1  0
 15 14  1  0
 17 18  2  0
 18 37  1  0
 18 19  1  0
 19 22  1  0
 20 17  1  0
 20 21  1  0
 21 19  2  0
 22 23  1  0
 23 24  2  0
 25 28  1  0
 25 24  1  0
 26 25  2  0
 27 26  1  0
 27 22  2  0
 28 29  1  0
 29 30  1  0
 30 31  2  0
 32 31  1  0
 32 36  1  0
 33 32  2  0
 34 29  2  0
 34 33  1  0
 35 34  1  0
 37 38  1  0
 38 41  1  0
 38 40  1  0
 39 37  2  0
 42 17  1  0
 43 42  1  0
 44 42  1  0
 45 46  1  0
 45  1  2  0
 47 48  1  0
 47 46  2  0
 49 60  2  0
 50 48  1  0
 50 55  1  0
 51 59  1  0
 51 61  1  0
 52 58  1  0
 52 54  1  0
 53 59  1  0
 54 53  1  0
 55 54  2  0
 56 57  1  0
 56 50  2  0
 57 52  2  0
 58 51  1  0
 59 49  1  0
 61 63  2  0
 62 61  1  0
 64 62  1  0
 65 74  2  0
 65 70  1  0
 66 62  1  0
 66 70  1  0
 67 66  1  0
 68 69  1  0
 68 67  1  0
 69 65  1  0
 70 71  2  0
 71 72  1  0
 73 72  2  0
 74 73  1  0
 75 49  1  0
 75 80  1  0
 75 76  1  0
 76 79  1  1
 76 77  1  0
 78 76  1  0
 80 83  1  0
 81 85  1  0
 81 80  1  0
 82 81  2  0
 85 84  1  0
 87 85  1  0
 87 88  1  0
 87 86  1  0
M  ISO  4   5 100   9 100  47 101  48 101
M  END
>  <TORSDO>  (71) 
F 20

>  <SCORE>  (71) 
-12.200

>  <name>  (71) 
70

>  <ligand_id>  (71) 
70

>  <original_smiles>  (71) 
[H]c1c([H])c([H])c2c(c1[H])C([H])([H])C([H])([H])C([H])([H])C2([H])N([H])C(=O)C1([H])N(C(=O)C([H])(N([H])C(=O)C([H])(N([H])C([H])([H])[H])C([H])([H])[H])C(C([H])([H])[H])(C([H])([H])[H])C([H])([H])[H])C([H])([H])c2c([H])c(OC([H])([H])C([H])([H])C([H])([H])C([H])([H])c3c([H])c([H])c(C([H])([H])[H])c(C(=O)N4C([H])([H])C([H])([H])C([H])([H])C([H])(n5nc(-c6c([H])c([H])c(Oc7c([H])c([H])c(F)c([H])c7F)c([H])c6[H])c(C(=O)N([H])[H])c5N([H])[H])C4([H])[H])c3[H])c([H])c([H])c2C1([H])[H]

>  <smiles>  (71) 
[H]c1c([H])c([H])c2c(c1[H])C([H])([H])C([H])([H])C([H])([H])C2([H])N([H])C(=O)C1([H])N(C(=O)C([H])(N([H])C(=O)C([H])(N([H])C([H])([H])[H])C([H])([H])[H])C(C([H])([H])[H])(C([H])([H])[H])C([H])([H])[H])C([H])([H])c2c([H])c(OC([H])([H])C([H])([H])C([H])([H])C([H])([H])c3c([H])c([H])c(C([H])([H])[H])c(C(=O)N4C([H])([H])C([H])([H])C([H])([H])C([H])(n5nc(-c6c([H])c([H])c(Oc7c([H])c([H])c(F)c([H])c7F)c([H])c6[H])c(C(=O)N([H])[H])c5N([H])[H])C4([H])[H])c3[H])c([H])c([H])c2C1([H])[H]

$$$$
71:0:0
     RDKit          3D

 94103  0  0  1  0  0  0  0  0999 V2000
  -28.5180  -25.2420   21.9470 C   0  0  0  0  0  3  0  0  0  0  0  0
  -28.8190  -24.1460   22.7660 C   0  0  0  0  0  3  0  0  0  0  0  0
  -28.7160  -23.7460   20.0280 C   0  0  0  0  0  3  0  0  0  0  0  0
  -28.9810  -22.5380   20.8630 C   0  0  0  0  0  0  0  0  0  0  0  0
  -28.4830  -25.1280   20.5500 C   0  0  0  0  0  0  0  0  0  0  0  0
  -29.0730  -22.8570   22.2540 C   0  0  0  0  0  0  0  0  0  0  0  0
  -30.0140  -20.3940   19.5660 C   0  0  0  0  0  3  0  0  0  0  0  0
  -29.1960  -20.9670   20.5100 C   0  0  0  0  0  0  0  0  0  0  0  0
  -30.3050  -18.8320   19.3000 C   0  0  0  0  0  2  0  0  0  0  0  0
  -28.4730  -19.8500   21.3320 C   0  0  0  0  0  2  0  0  0  0  0  0
  -28.5130  -18.3400   20.8240 C   0  0  0  0  0  2  0  0  0  0  0  0
  -29.9030  -17.7370   20.4030 C   0  0  2  0  0  0  0  0  0  0  0  0
  -30.8770  -17.8270   21.5950 C   0  0  0  0  0  1  0  0  0  0  0  0
  -30.5980  -15.0840   19.7730 C   0  0  0  0  0  0  0  0  0  0  0  0
  -30.4280  -12.7750   18.7470 C   0  0  0  0  0  2  0  0  0  0  0  0
  -29.3840  -12.7660   17.6060 C   0  0  0  0  0  2  0  0  0  0  0  0
  -27.9600  -12.5470   18.1590 C   0  0  0  0  0  2  0  0  0  0  0  0
  -27.6590  -13.4250   19.4000 C   0  0  0  0  0  3  0  0  0  0  0  0
  -28.8110  -13.3810   20.4250 C   0  0  0  0  0  2  0  0  0  0  0  0
  -30.0230  -13.8210   19.7210 N   0  0  0  0  0  0  0  0  0  0  0  0
  -31.7740  -15.2020   19.4130 O   0  0  0  0  0  0  0  0  0  0  0  0
  -29.7720  -16.1990   20.0550 N   0  0  0  0  0  0  0  0  0  0  0  0
  -28.8250  -15.8820   20.1920 H   0  0  0  0  0  0  0  0  0  0  0  0
  -25.3710  -13.9730   20.4090 C   0  0  0  0  0  0  0  0  0  0  0  0
  -24.3370  -13.1810   20.8280 C   0  0  0  0  0  0  0  0  0  0  0  0
  -24.7770  -11.8320   20.6570 C   0  0  0  0  0  0  0  0  0  0  0  0
  -26.3730  -13.1060   20.0050 N   0  0  0  0  0  0  0  0  0  0  0  0
  -26.0300  -11.8090   20.2190 N   0  0  0  0  0  0  0  0  0  0  0  0
  -24.0530  -10.5660   20.8300 C   0  0  0  0  0  0  0  0  0  0  0  0
  -24.5060   -9.5720   21.7250 C   0  0  0  0  0  3  0  0  0  0  0  0
  -23.7830   -8.3710   21.8880 C   0  0  0  0  0  3  0  0  0  0  0  0
  -22.5910   -8.1550   21.1540 C   0  0  0  0  0  0  0  0  0  0  0  0
  -22.1570   -9.1370   20.2470 C   0  0  0  0  0  3  0  0  0  0  0  0
  -22.8810  -10.3300   20.0830 C   0  0  0  0  0  3  0  0  0  0  0  0
  -21.8370   -7.0080   21.2270 O   0  0  0  0  0  0  0  0  0  0  0  0
  -21.7480   -6.2780   22.3850 C   0  0  0  0  0  0  0  0  0  0  0  0
  -21.2630   -6.8430   23.5850 C   0  0  0  0  0  3  0  0  0  0  0  0
  -21.1210   -6.0400   24.7340 C   0  0  0  0  0  3  0  0  0  0  0  0
  -21.4540   -4.6730   24.6840 C   0  0  0  0  0  0  0  0  0  0  0  0
  -21.9320   -4.1080   23.4880 C   0  0  0  0  0  3  0  0  0  0  0  0
  -22.0760   -4.9080   22.3410 C   0  0  0  0  0  0  0  0  0  0  0  0
  -22.5160   -4.3550   21.1860 F   0  0  0  0  0  0  0  0  0  0  0  0
  -21.3110   -3.8980   25.7850 F   0  0  0  0  0  0  0  0  0  0  0  0
  -22.9790  -13.6470   21.2660 C   0  0  0  0  0  0  0  0  0  0  0  0
  -22.3370  -12.9050   22.1580 N   0  0  0  0  0  0  0  0  0  0  0  0
  -22.5020  -14.7030   20.8510 O   0  0  0  0  0  0  0  0  0  0  0  0
  -22.7400  -12.0520   22.5160 H   0  0  0  0  0  0  0  0  0  0  0  0
  -21.4290  -13.1960   22.4930 H   0  0  0  0  0  0  0  0  0  0  0  0
  -25.5350  -15.3530   20.3110 N   0  0  0  0  0  0  0  0  0  0  0  0
  -24.7820  -15.9950   20.5360 H   0  0  0  0  0  0  0  0  0  0  0  0
  -26.3270  -15.8110   19.8830 H   0  0  0  0  0  0  0  0  0  0  0  0
  -29.4640  -21.9420   23.1860 O   0  0  0  0  0  0  0  0  0  0  0  0
  -29.5000  -22.2990   24.0670 H   0  0  0  0  0  0  0  0  0  0  0  0
  -28.3680  -26.4060   19.8620 O   0  0  0  0  0  0  0  0  0  0  0  0
  -24.5770  -31.8420   23.1370 C   0  0  0  0  0  0  0  0  0  0  0  0
  -27.2640  -27.3150   19.9640 C   0  0  0  0  0  0  0  0  0  0  0  0
  -23.3990  -30.4560   21.4710 C   0  0  0  0  0  3  0  0  0  0  0  0
  -24.8780  -28.9580   19.9980 C   0  0  0  0  0  0  0  0  0  0  0  0
  -25.9400  -30.8060   21.2890 C   0  0  0  0  0  2  0  0  0  0  0  0
  -26.0470  -29.4340   20.6070 C   0  0  0  0  0  0  0  0  0  0  0  0
  -27.2430  -28.6280   20.5760 C   0  0  0  0  0  3  0  0  0  0  0  0
  -26.0690  -26.9260   19.3270 C   0  0  0  0  0  3  0  0  0  0  0  0
  -24.8970  -27.7150   19.3450 C   0  0  0  0  0  3  0  0  0  0  0  0
  -23.6260  -29.8170   20.0750 C   0  0  0  0  0  2  0  0  0  0  0  0
  -24.6580  -31.0570   22.0200 N   0  0  0  0  0  0  0  0  0  0  0  0
  -23.4900  -32.0800   23.6840 O   0  0  0  0  0  0  0  0  0  0  0  0
  -22.7590  -29.4050   22.4130 C   0  0  0  0  0  0  0  0  0  0  0  0
  -21.4430  -29.1760   22.2700 N   0  0  0  0  0  0  0  0  0  0  0  0
  -23.4520  -28.7990   23.2340 O   0  0  0  0  0  0  0  0  0  0  0  0
  -20.9400  -29.7190   21.5810 H   0  0  0  0  0  0  0  0  0  0  0  0
  -18.1200  -27.7990   22.7000 C   0  0  0  0  0  0  0  0  0  0  0  0
  -20.6570  -28.1940   23.0200 C   0  0  0  0  0  3  0  0  0  0  0  0
  -20.8450  -26.7720   22.4390 C   0  0  0  0  0  2  0  0  0  0  0  0
  -19.7820  -26.3980   21.4030 C   0  0  0  0  0  2  0  0  0  0  0  0
  -18.3820  -26.4660   22.0190 C   0  0  0  0  0  2  0  0  0  0  0  0
  -19.1880  -28.6180   23.1550 C   0  0  0  0  0  0  0  0  0  0  0  0
  -18.8900  -29.8610   23.7520 C   0  0  0  0  0  3  0  0  0  0  0  0
  -17.5570  -30.2900   23.8980 C   0  0  0  0  0  3  0  0  0  0  0  0
  -16.5040  -29.4680   23.4580 C   0  0  0  0  0  3  0  0  0  0  0  0
  -16.7860  -28.2260   22.8650 C   0  0  0  0  0  3  0  0  0  0  0  0
  -25.8470  -32.4920   23.7690 C   0  0  0  0  0  3  0  0  0  0  0  0
  -25.5110  -33.8810   24.1210 N   0  0  0  0  0  0  0  0  0  0  0  0
  -25.8350  -34.9540   23.3880 C   0  0  0  0  0  0  0  0  0  0  0  0
  -26.5160  -34.8810   22.3610 O   0  0  0  0  0  0  0  0  0  0  0  0
  -24.9100  -34.0110   24.9220 H   0  0  0  0  0  0  0  0  0  0  0  0
  -24.0990  -36.7400   23.0340 C   0  0  0  0  0  1  0  0  0  0  0  0
  -25.3220  -36.3270   23.8670 C   0  0  0  0  0  3  0  0  0  0  0  0
  -27.4220  -37.2130   24.7810 C   0  0  0  0  0  1  0  0  0  0  0  0
  -26.3470  -37.3910   23.8080 N   0  0  0  0  0  0  0  0  0  0  0  0
  -25.9290  -38.3050   23.9630 H   0  0  0  0  0  0  0  0  0  0  0  0
  -26.3760  -31.7150   25.0380 C   0  0  1  0  0  0  0  0  0  0  0  0
  -25.2860  -31.4420   26.1000 C   0  0  0  0  0  1  0  0  0  0  0  0
  -26.9900  -30.3540   24.6350 C   0  0  0  0  0  1  0  0  0  0  0  0
  -27.5080  -32.5240   25.7130 C   0  0  0  0  0  1  0  0  0  0  0  0
  1  2  1  0
  3  5  1  0
  3  4  2  0
  4  6  1  0
  5  1  2  0
  6  2  2  0
  6 52  1  0
  7  8  2  0
  8  4  1  0
  8 10  1  0
  9  7  1  0
  9 12  1  0
 11 10  1  0
 12 11  1  0
 12 13  1  1
 14 22  1  0
 15 20  1  0
 16 17  1  0
 16 15  1  0
 18 17  1  0
 18 27  1  0
 18 19  1  0
 20 14  1  0
 20 19  1  0
 21 14  2  0
 22 23  1  0
 22 12  1  0
 24 25  2  0
 25 44  1  0
 26 25  1  0
 26 29  1  0
 27 28  1  0
 27 24  1  0
 28 26  2  0
 29 30  1  0
 30 31  2  0
 32 35  1  0
 32 31  1  0
 33 32  2  0
 34 33  1  0
 34 29  2  0
 35 36  1  0
 36 37  1  0
 37 38  2  0
 39 38  1  0
 39 43  1  0
 40 39  2  0
 41 36  2  0
 41 40  1  0
 42 41  1  0
 44 45  1  0
 45 48  1  0
 45 47  1  0
 46 44  2  0
 49 24  1  0
 49 50  1  0
 51 49  1  0
 52 53  1  0
 54 56  1  0
 54  5  1  0
 55 66  2  0
 56 61  1  0
 57 65  1  0
 57 67  1  0
 58 64  1  0
 58 60  1  0
 59 65  1  0
 60 59  1  0
 61 60  2  0
 62 63  1  0
 62 56  2  0
 63 58  2  0
 64 57  1  0
 65 55  1  0
 67 69  2  0
 68 67  1  0
 70 68  1  0
 71 80  2  0
 71 76  1  0
 72 68  1  0
 72 76  1  0
 73 72  1  0
 74 75  1  0
 74 73  1  0
 75 71  1  0
 76 77  2  0
 77 78  1  0
 79 78  2  0
 80 79  1  0
 81 55  1  0
 81 82  1  0
 81 91  1  0
 82 85  1  0
 83 87  1  0
 83 82  1  0
 84 83  2  0
 87 86  1  0
 89 87  1  0
 89 90  1  0
 89 88  1  0
 91 94  1  1
 91 92  1  0
 93 91  1  0
M  ISO  4   5 101  14 100  22 100  54 101
M  END
>  <TORSDO>  (72) 
F 18

>  <SCORE>  (72) 
-13.739

>  <name>  (72) 
71

>  <ligand_id>  (72) 
71

>  <original_smiles>  (72) 
[H]Oc1c([H])c([H])c(Oc2c([H])c([H])c3c(c2[H])C([H])([H])N(C(=O)C([H])(N([H])C(=O)C([H])(N([H])C([H])([H])[H])C([H])([H])[H])C(C([H])([H])[H])(C([H])([H])[H])C([H])([H])[H])C([H])(C(=O)N([H])C2([H])c4c([H])c([H])c([H])c([H])c4C([H])([H])C([H])([H])C2([H])[H])C3([H])[H])c([H])c1C1=C([H])C([H])([H])C(N([H])C(=O)N2C([H])([H])C([H])([H])C([H])([H])C([H])(n3nc(-c4c([H])c([H])c(Oc5c([H])c([H])c(F)c([H])c5F)c([H])c4[H])c(C(=O)N([H])[H])c3N([H])[H])C2([H])[H])(C([H])([H])[H])C([H])([H])C1([H])[H]

>  <smiles>  (72) 
[H]Oc1c([H])c([H])c(Oc2c([H])c([H])c3c(c2[H])C([H])([H])N(C(=O)C([H])(N([H])C(=O)C([H])(N([H])C([H])([H])[H])C([H])([H])[H])C(C([H])([H])[H])(C([H])([H])[H])C([H])([H])[H])C([H])(C(=O)N([H])C2([H])c4c([H])c([H])c([H])c([H])c4C([H])([H])C([H])([H])C2([H])[H])C3([H])[H])c([H])c1C1=C([H])C([H])([H])C(N([H])C(=O)N2C([H])([H])C([H])([H])C([H])([H])C([H])(n3nc(-c4c([H])c([H])c(Oc5c([H])c([H])c(F)c([H])c5F)c([H])c4[H])c(C(=O)N([H])[H])c3N([H])[H])C2([H])[H])(C([H])([H])[H])C([H])([H])C1([H])[H]

$$$$
72:0:0
     RDKit          3D

 92100  0  0  1  0  0  0  0  0999 V2000
  -26.1770  -23.1980   22.1540 C   0  0  0  0  0  2  0  0  0  0  0  0
  -25.3790  -24.0630   21.3970 C   0  0  0  0  0  2  0  0  0  0  0  0
  -27.5090  -23.0940   21.7150 C   0  0  0  0  0  3  0  0  0  0  0  0
  -25.9830  -24.9080   20.4310 C   0  0  0  0  0  3  0  0  0  0  0  0
  -28.1170  -24.3410   21.3100 C   0  0  0  0  0  3  0  0  0  0  0  0
  -27.3860  -25.3310   20.5660 C   0  0  0  0  0  3  0  0  0  0  0  0
  -25.2100  -24.8310   19.1070 C   0  0  0  0  0  1  0  0  0  0  0  0
  -29.3770  -24.6420   22.0970 C   0  0  0  0  0  1  0  0  0  0  0  0
  -28.0090  -26.5620   20.0830 O   0  0  0  0  0  0  0  0  0  0  0  0
  -24.7340  -31.9720   23.4030 C   0  0  0  0  0  0  0  0  0  0  0  0
  -27.2030  -27.6920   19.9460 C   0  0  0  0  0  0  0  0  0  0  0  0
  -23.5090  -30.7310   21.6660 C   0  0  0  0  0  3  0  0  0  0  0  0
  -24.9600  -29.3960   20.0350 C   0  0  0  0  0  0  0  0  0  0  0  0
  -26.0520  -31.0650   21.4980 C   0  0  0  0  0  2  0  0  0  0  0  0
  -26.1130  -29.7590   20.7320 C   0  0  0  0  0  0  0  0  0  0  0  0
  -27.2390  -28.8790   20.7380 C   0  0  0  0  0  3  0  0  0  0  0  0
  -26.1750  -27.5780   19.0270 C   0  0  0  0  0  3  0  0  0  0  0  0
  -24.9930  -28.3230   19.1600 C   0  0  0  0  0  3  0  0  0  0  0  0
  -23.7150  -30.2400   20.2060 C   0  0  0  0  0  2  0  0  0  0  0  0
  -24.7780  -31.2700   22.2450 N   0  0  0  0  0  0  0  0  0  0  0  0
  -23.6630  -32.1870   23.9760 O   0  0  0  0  0  0  0  0  0  0  0  0
  -22.8780  -29.6070   22.5310 C   0  0  0  0  0  0  0  0  0  0  0  0
  -21.5880  -29.3240   22.2870 N   0  0  0  0  0  0  0  0  0  0  0  0
  -23.5520  -29.0030   23.3800 O   0  0  0  0  0  0  0  0  0  0  0  0
  -21.1330  -29.8320   21.5420 H   0  0  0  0  0  0  0  0  0  0  0  0
  -18.2680  -27.8800   22.5740 C   0  0  0  0  0  0  0  0  0  0  0  0
  -20.7860  -28.3370   23.0020 C   0  0  0  0  0  3  0  0  0  0  0  0
  -21.0420  -26.9130   22.4480 C   0  0  0  0  0  2  0  0  0  0  0  0
  -20.0120  -26.4320   21.4150 C   0  0  0  0  0  2  0  0  0  0  0  0
  -18.5600  -26.5440   21.9170 C   0  0  0  0  0  2  0  0  0  0  0  0
  -19.2940  -28.7210   23.0990 C   0  0  0  0  0  0  0  0  0  0  0  0
  -18.9120  -29.9150   23.7430 C   0  0  0  0  0  3  0  0  0  0  0  0
  -17.5570  -30.3050   23.8290 C   0  0  0  0  0  3  0  0  0  0  0  0
  -16.5540  -29.4930   23.2930 C   0  0  0  0  0  3  0  0  0  0  0  0
  -16.9200  -28.2840   22.6520 C   0  0  0  0  0  3  0  0  0  0  0  0
  -26.0140  -32.5710   24.0490 C   0  0  0  0  0  3  0  0  0  0  0  0
  -25.7050  -33.9580   24.4370 N   0  0  0  0  0  0  0  0  0  0  0  0
  -26.0660  -35.0420   23.7390 C   0  0  0  0  0  0  0  0  0  0  0  0
  -26.7640  -34.9790   22.7260 O   0  0  0  0  0  0  0  0  0  0  0  0
  -25.0940  -34.0790   25.2280 H   0  0  0  0  0  0  0  0  0  0  0  0
  -24.3700  -36.8750   23.4250 C   0  0  0  0  0  1  0  0  0  0  0  0
  -25.5790  -36.4120   24.2570 C   0  0  0  0  0  3  0  0  0  0  0  0
  -27.6950  -37.2250   25.1960 C   0  0  0  0  0  1  0  0  0  0  0  0
  -26.6220  -37.4580   24.2340 N   0  0  0  0  0  0  0  0  0  0  0  0
  -26.2270  -38.3780   24.4070 H   0  0  0  0  0  0  0  0  0  0  0  0
  -26.5320  -31.7390   25.2860 C   0  0  1  0  0  0  0  0  0  0  0  0
  -25.4480  -31.4380   26.3470 C   0  0  0  0  0  1  0  0  0  0  0  0
  -27.1160  -30.3850   24.8200 C   0  0  0  0  0  1  0  0  0  0  0  0
  -27.6880  -32.5040   25.9760 C   0  0  0  0  0  1  0  0  0  0  0  0
  -27.7480  -21.7370   20.9970 C   0  0  0  0  0  2  0  0  0  0  0  0
  -29.0820  -20.9590   21.0900 C   0  0  0  0  0  2  0  0  0  0  0  0
  -28.9240  -19.5020   20.5410 C   0  0  0  0  0  2  0  0  0  0  0  0
  -29.8840  -18.3860   21.0660 C   0  0  0  0  0  2  0  0  0  0  0  0
  -30.1310  -17.2660   20.0110 C   0  0  0  0  0  2  0  0  0  0  0  0
  -31.0260  -14.9080   20.0130 C   0  0  0  0  0  0  0  0  0  0  0  0
  -30.8160  -12.6620   18.9910 C   0  0  0  0  0  2  0  0  0  0  0  0
  -29.8420  -12.7600   17.8010 C   0  0  0  0  0  2  0  0  0  0  0  0
  -28.3690  -12.6670   18.2430 C   0  0  0  0  0  2  0  0  0  0  0  0
  -28.0600  -13.5460   19.4770 C   0  0  0  0  0  3  0  0  0  0  0  0
  -29.1220  -13.3680   20.5790 C   0  0  0  0  0  2  0  0  0  0  0  0
  -30.4350  -13.6800   19.9880 N   0  0  0  0  0  0  0  0  0  0  0  0
  -32.1060  -15.1340   19.4580 O   0  0  0  0  0  0  0  0  0  0  0  0
  -30.2440  -15.8940   20.5360 N   0  0  0  0  0  0  0  0  0  0  0  0
  -29.4320  -15.5450   21.0310 H   0  0  0  0  0  0  0  0  0  0  0  0
  -25.7100  -14.2120   20.2760 C   0  0  0  0  0  0  0  0  0  0  0  0
  -24.6310  -13.4650   20.6740 C   0  0  0  0  0  0  0  0  0  0  0  0
  -25.0500  -12.1020   20.5990 C   0  0  0  0  0  0  0  0  0  0  0  0
  -26.7190  -13.3030   19.9910 N   0  0  0  0  0  0  0  0  0  0  0  0
  -26.3260  -12.0290   20.2410 N   0  0  0  0  0  0  0  0  0  0  0  0
  -24.2970  -10.8560   20.8000 C   0  0  0  0  0  0  0  0  0  0  0  0
  -24.6810   -9.9100   21.7750 C   0  0  0  0  0  3  0  0  0  0  0  0
  -23.9300   -8.7290   21.9590 C   0  0  0  0  0  3  0  0  0  0  0  0
  -22.7820   -8.4880   21.1680 C   0  0  0  0  0  0  0  0  0  0  0  0
  -22.4210   -9.4210   20.1820 C   0  0  0  0  0  3  0  0  0  0  0  0
  -23.1720  -10.5940   19.9960 C   0  0  0  0  0  3  0  0  0  0  0  0
  -22.0080   -7.3560   21.2560 O   0  0  0  0  0  0  0  0  0  0  0  0
  -21.8140   -6.7080   22.4490 C   0  0  0  0  0  0  0  0  0  0  0  0
  -21.2600   -7.3620   23.5710 C   0  0  0  0  0  3  0  0  0  0  0  0
  -21.0170   -6.6410   24.7570 C   0  0  0  0  0  3  0  0  0  0  0  0
  -21.3150   -5.2660   24.8190 C   0  0  0  0  0  0  0  0  0  0  0  0
  -21.8660   -4.6140   23.7020 C   0  0  0  0  0  3  0  0  0  0  0  0
  -22.1110   -5.3320   22.5190 C   0  0  0  0  0  0  0  0  0  0  0  0
  -22.6200   -4.6940   21.4380 F   0  0  0  0  0  0  0  0  0  0  0  0
  -21.0740   -4.5690   25.9550 F   0  0  0  0  0  0  0  0  0  0  0  0
  -23.2620  -13.9760   21.0110 C   0  0  0  0  0  0  0  0  0  0  0  0
  -22.5580  -13.2970   21.9110 N   0  0  0  0  0  0  0  0  0  0  0  0
  -22.8370  -15.0190   20.5170 O   0  0  0  0  0  0  0  0  0  0  0  0
  -22.9260  -12.4600   22.3340 H   0  0  0  0  0  0  0  0  0  0  0  0
  -21.6380  -13.6270   22.1760 H   0  0  0  0  0  0  0  0  0  0  0  0
  -25.9200  -15.5810   20.1130 N   0  0  0  0  0  0  0  0  0  0  0  0
  -25.1890  -16.2710   20.2490 H   0  0  0  0  0  0  0  0  0  0  0  0
  -26.7970  -15.9800   19.8060 H   0  0  0  0  0  0  0  0  0  0  0  0
  2  1  1  0
  3 50  1  0
  3  1  1  0
  4  7  1  0
  4  6  1  0
  4  2  1  0
  5  3  1  0
  5  8  1  0
  6  9  1  0
  6  5  1  0
 10 21  2  0
 11  9  1  0
 11 16  1  0
 12 20  1  0
 12 22  1  0
 13 19  1  0
 13 15  1  0
 14 20  1  0
 15 16  2  0
 15 14  1  0
 17 18  1  0
 17 11  2  0
 18 13  2  0
 19 12  1  0
 20 10  1  0
 22 24  2  0
 23 22  1  0
 25 23  1  0
 26 35  2  0
 26 31  1  0
 27 23  1  0
 27 31  1  0
 28 27  1  0
 29 30  1  0
 29 28  1  0
 30 26  1  0
 31 32  2  0
 32 33  1  0
 34 33  2  0
 35 34  1  0
 36 10  1  0
 36 37  1  0
 36 46  1  0
 37 40  1  0
 38 42  1  0
 38 37  1  0
 39 38  2  0
 42 41  1  0
 44 42  1  0
 44 45  1  0
 44 43  1  0
 46 49  1  1
 46 47  1  0
 48 46  1  0
 50 51  1  0
 52 53  1  0
 52 51  1  0
 54 63  1  0
 54 53  1  0
 55 63  1  0
 56 61  1  0
 57 58  1  0
 57 56  1  0
 59 58  1  0
 59 68  1  0
 59 60  1  0
 61 55  1  0
 61 60  1  0
 62 55  2  0
 63 64  1  0
 65 66  2  0
 66 85  1  0
 67 66  1  0
 67 70  1  0
 68 69  1  0
 68 65  1  0
 69 67  2  0
 70 71  1  0
 71 72  2  0
 73 76  1  0
 73 72  1  0
 74 73  2  0
 75 74  1  0
 75 70  2  0
 76 77  1  0
 77 82  2  0
 77 78  1  0
 78 79  2  0
 79 80  1  0
 80 84  1  0
 81 80  2  0
 82 81  1  0
 83 82  1  0
 85 86  1  0
 86 89  1  0
 86 88  1  0
 87 85  2  0
 90 91  1  0
 90 65  1  0
 92 90  1  0
M  ISO  4   6 101   9 101  55 100  63 100
M  END
>  <TORSDO>  (73) 
F 21

>  <SCORE>  (73) 
-12.602

>  <name>  (73) 
72

>  <ligand_id>  (73) 
72

>  <original_smiles>  (73) 
[H]c1c([H])c([H])c2c(c1[H])C([H])([H])C([H])([H])C([H])([H])C2([H])N([H])C(=O)C1([H])N(C(=O)C([H])(N([H])C(=O)C([H])(N([H])C([H])([H])[H])C([H])([H])[H])C(C([H])([H])[H])(C([H])([H])[H])C([H])([H])[H])C([H])([H])c2c([H])c(Oc3c(C([H])([H])[H])c([H])c([H])c(C([H])([H])C([H])([H])C([H])([H])C([H])([H])C([H])([H])N([H])C(=O)N4C([H])([H])C([H])([H])C([H])([H])C([H])(n5nc(-c6c([H])c([H])c(Oc7c([H])c([H])c(F)c([H])c7F)c([H])c6[H])c(C(=O)N([H])[H])c5N([H])[H])C4([H])[H])c3C([H])([H])[H])c([H])c([H])c2C1([H])[H]

>  <smiles>  (73) 
[H]c1c([H])c([H])c2c(c1[H])C([H])([H])C([H])([H])C([H])([H])C2([H])N([H])C(=O)C1([H])N(C(=O)C([H])(N([H])C(=O)C([H])(N([H])C([H])([H])[H])C([H])([H])[H])C(C([H])([H])[H])(C([H])([H])[H])C([H])([H])[H])C([H])([H])c2c([H])c(Oc3c(C([H])([H])[H])c([H])c([H])c(C([H])([H])C([H])([H])C([H])([H])C([H])([H])C([H])([H])N([H])C(=O)N4C([H])([H])C([H])([H])C([H])([H])C([H])(n5nc(-c6c([H])c([H])c(Oc7c([H])c([H])c(F)c([H])c7F)c([H])c6[H])c(C(=O)N([H])[H])c5N([H])[H])C4([H])[H])c3C([H])([H])[H])c([H])c([H])c2C1([H])[H]

$$$$
73:0:0
     RDKit          3D

 92101  0  0  1  0  0  0  0  0999 V2000
  -29.0980  -22.6760   19.0240 C   0  0  0  0  0  3  0  0  0  0  0  0
  -28.7580  -24.0850   18.9990 C   0  0  0  0  0  3  0  0  0  0  0  0
  -28.6580  -24.0940   21.3510 C   0  0  0  0  0  3  0  0  0  0  0  0
  -29.2840  -21.8890   20.2100 C   0  0  0  0  0  0  0  0  0  0  0  0
  -29.0070  -22.6760   21.3870 C   0  0  0  0  0  0  0  0  0  0  0  0
  -28.5470  -24.8920   20.1620 C   0  0  0  0  0  0  0  0  0  0  0  0
  -29.1510  -22.0270   22.7520 C   0  0  0  0  0  1  0  0  0  0  0  0
  -28.5120  -26.3520   20.1180 O   0  0  0  0  0  0  0  0  0  0  0  0
  -24.7320  -31.7920   23.2470 C   0  0  0  0  0  0  0  0  0  0  0  0
  -27.3880  -27.2350   20.1120 C   0  0  0  0  0  0  0  0  0  0  0  0
  -23.5640  -30.4530   21.5340 C   0  0  0  0  0  3  0  0  0  0  0  0
  -25.0420  -28.9300   20.0860 C   0  0  0  0  0  0  0  0  0  0  0  0
  -26.1130  -30.7450   21.4220 C   0  0  0  0  0  2  0  0  0  0  0  0
  -26.2010  -29.3770   20.7310 C   0  0  0  0  0  0  0  0  0  0  0  0
  -27.3720  -28.5430   20.7290 C   0  0  0  0  0  3  0  0  0  0  0  0
  -26.2080  -26.8700   19.4330 C   0  0  0  0  0  3  0  0  0  0  0  0
  -25.0550  -27.6890   19.4240 C   0  0  0  0  0  3  0  0  0  0  0  0
  -23.8100  -29.8200   20.1370 C   0  0  0  0  0  2  0  0  0  0  0  0
  -24.8220  -31.0170   22.1250 N   0  0  0  0  0  0  0  0  0  0  0  0
  -23.6370  -32.0530   23.7690 O   0  0  0  0  0  0  0  0  0  0  0  0
  -22.8750  -29.4110   22.4500 C   0  0  0  0  0  0  0  0  0  0  0  0
  -21.5520  -29.2340   22.2860 N   0  0  0  0  0  0  0  0  0  0  0  0
  -23.5330  -28.7630   23.2680 O   0  0  0  0  0  0  0  0  0  0  0  0
  -21.0790  -29.8070   21.6020 H   0  0  0  0  0  0  0  0  0  0  0  0
  -18.1720  -27.9940   22.6640 C   0  0  0  0  0  0  0  0  0  0  0  0
  -20.7210  -28.2670   23.0070 C   0  0  0  0  0  3  0  0  0  0  0  0
  -20.8490  -26.8540   22.3910 C   0  0  0  0  0  2  0  0  0  0  0  0
  -19.7770  -26.5550   21.3390 C   0  0  0  0  0  2  0  0  0  0  0  0
  -18.3780  -26.6680   21.9510 C   0  0  0  0  0  2  0  0  0  0  0  0
  -19.2720  -28.7520   23.1470 C   0  0  0  0  0  0  0  0  0  0  0  0
  -19.0260  -29.9930   23.7740 C   0  0  0  0  0  3  0  0  0  0  0  0
  -17.7130  -30.4760   23.9220 C   0  0  0  0  0  3  0  0  0  0  0  0
  -16.6260  -29.7160   23.4560 C   0  0  0  0  0  3  0  0  0  0  0  0
  -16.8570  -28.4760   22.8330 C   0  0  0  0  0  3  0  0  0  0  0  0
  -25.9990  -32.4070   23.9180 C   0  0  0  0  0  3  0  0  0  0  0  0
  -25.6760  -33.7890   24.3060 N   0  0  0  0  0  0  0  0  0  0  0  0
  -25.9840  -34.8760   23.5870 C   0  0  0  0  0  0  0  0  0  0  0  0
  -26.6380  -34.8230   22.5430 O   0  0  0  0  0  0  0  0  0  0  0  0
  -25.0900  -33.9030   25.1200 H   0  0  0  0  0  0  0  0  0  0  0  0
  -24.2120  -36.6480   23.3600 C   0  0  0  0  0  1  0  0  0  0  0  0
  -25.4900  -36.2410   24.1090 C   0  0  0  0  0  3  0  0  0  0  0  0
  -27.6360  -37.1410   24.8910 C   0  0  0  0  0  1  0  0  0  0  0  0
  -26.4970  -37.3180   23.9950 N   0  0  0  0  0  0  0  0  0  0  0  0
  -26.0790  -38.2230   24.1900 H   0  0  0  0  0  0  0  0  0  0  0  0
  -26.4950  -31.5870   25.1730 C   0  0  1  0  0  0  0  0  0  0  0  0
  -25.3840  -31.3030   26.2120 C   0  0  0  0  0  1  0  0  0  0  0  0
  -27.0900  -30.2270   24.7400 C   0  0  0  0  0  1  0  0  0  0  0  0
  -27.6320  -32.3560   25.8860 C   0  0  0  0  0  1  0  0  0  0  0  0
  -30.0710  -20.4380   20.1430 C   0  0  0  0  0  2  0  0  0  0  0  0
  -30.7860  -15.0120   19.9300 C   0  0  0  0  0  0  0  0  0  0  0  0
  -30.5440  -12.7000   18.9310 C   0  0  0  0  0  2  0  0  0  0  0  0
  -29.5250  -12.6670   17.7730 C   0  0  0  0  0  2  0  0  0  0  0  0
  -28.1050  -12.4140   18.3130 C   0  0  0  0  0  2  0  0  0  0  0  0
  -27.7730  -13.3150   19.5290 C   0  0  0  0  0  3  0  0  0  0  0  0
  -28.9130  -13.3550   20.5710 C   0  0  0  0  0  2  0  0  0  0  0  0
  -30.1280  -13.7840   19.8640 N   0  0  0  0  0  0  0  0  0  0  0  0
  -31.9890  -15.0090   19.6500 O   0  0  0  0  0  0  0  0  0  0  0  0
  -28.5570  -18.1720   19.6600 C   0  0  0  0  0  2  0  0  0  0  0  0
  -28.7390  -16.6160   19.7890 C   0  0  0  0  0  2  0  0  0  0  0  0
  -30.7320  -17.6490   20.3840 C   0  0  0  0  0  2  0  0  0  0  0  0
  -29.6400  -18.8570   20.4910 C   0  0  1  0  0  0  0  0  0  0  0  0
  -30.1240  -16.2610   20.1450 N   0  0  0  0  0  0  0  0  0  0  0  0
  -25.4680  -13.8830   20.4800 C   0  0  0  0  0  0  0  0  0  0  0  0
  -24.4310  -13.0980   20.8980 C   0  0  0  0  0  0  0  0  0  0  0  0
  -24.8820  -11.7500   20.7670 C   0  0  0  0  0  0  0  0  0  0  0  0
  -26.4810  -13.0090   20.1220 N   0  0  0  0  0  0  0  0  0  0  0  0
  -26.1450  -11.7200   20.3610 N   0  0  0  0  0  0  0  0  0  0  0  0
  -24.1630  -10.4850   20.9470 C   0  0  0  0  0  0  0  0  0  0  0  0
  -24.5980   -9.5150   21.8770 C   0  0  0  0  0  3  0  0  0  0  0  0
  -23.8780   -8.3140   22.0440 C   0  0  0  0  0  3  0  0  0  0  0  0
  -22.7120   -8.0730   21.2800 C   0  0  0  0  0  0  0  0  0  0  0  0
  -22.2980   -9.0310   20.3370 C   0  0  0  0  0  3  0  0  0  0  0  0
  -23.0180  -10.2250   20.1670 C   0  0  0  0  0  3  0  0  0  0  0  0
  -21.9620   -6.9240   21.3590 O   0  0  0  0  0  0  0  0  0  0  0  0
  -21.8140   -6.2410   22.5410 C   0  0  0  0  0  0  0  0  0  0  0  0
  -21.2590   -6.8480   23.6880 C   0  0  0  0  0  3  0  0  0  0  0  0
  -21.0630   -6.0890   24.8590 C   0  0  0  0  0  3  0  0  0  0  0  0
  -21.4120   -4.7250   24.8820 C   0  0  0  0  0  0  0  0  0  0  0  0
  -21.9600   -4.1190   23.7390 C   0  0  0  0  0  3  0  0  0  0  0  0
  -22.1580   -4.8740   22.5700 C   0  0  0  0  0  0  0  0  0  0  0  0
  -22.6680   -4.2810   21.4640 F   0  0  0  0  0  0  0  0  0  0  0  0
  -21.2160   -3.9950   26.0040 F   0  0  0  0  0  0  0  0  0  0  0  0
  -23.0640  -13.5710   21.2950 C   0  0  0  0  0  0  0  0  0  0  0  0
  -22.4040  -12.8480   22.1930 N   0  0  0  0  0  0  0  0  0  0  0  0
  -22.5920  -14.6140   20.8430 O   0  0  0  0  0  0  0  0  0  0  0  0
  -22.8000  -12.0040   22.5780 H   0  0  0  0  0  0  0  0  0  0  0  0
  -21.4880  -13.1430   22.5010 H   0  0  0  0  0  0  0  0  0  0  0  0
  -25.6190  -15.2590   20.3410 N   0  0  0  0  0  0  0  0  0  0  0  0
  -24.8520  -15.9000   20.5150 H   0  0  0  0  0  0  0  0  0  0  0  0
  -26.4180  -15.7060   19.9150 H   0  0  0  0  0  0  0  0  0  0  0  0
  -29.2440  -18.8350   21.8470 O   0  0  0  0  0  0  0  0  0  0  0  0
  -28.4910  -19.4070   21.9330 H   0  0  0  0  0  0  0  0  0  0  0  0
  1  4  1  0
  2  1  2  0
  2  6  1  0
  3  5  1  0
  4  5  2  0
  5  7  1  0
  6  3  2  0
  8  6  1  0
  9 20  2  0
 10  8  1  0
 10 15  1  0
 11 19  1  0
 11 21  1  0
 12 18  1  0
 12 14  1  0
 13 19  1  0
 14 13  1  0
 15 14  2  0
 16 10  2  0
 17 16  1  0
 17 12  2  0
 18 11  1  0
 19  9  1  0
 21 23  2  0
 22 21  1  0
 24 22  1  0
 25 34  2  0
 25 30  1  0
 26 22  1  0
 26 30  1  0
 27 26  1  0
 28 29  1  0
 28 27  1  0
 29 25  1  0
 30 31  2  0
 31 32  1  0
 33 32  2  0
 34 33  1  0
 35  9  1  0
 35 36  1  0
 35 45  1  0
 36 39  1  0
 37 41  1  0
 37 36  1  0
 38 37  2  0
 41 40  1  0
 43 41  1  0
 43 44  1  0
 43 42  1  0
 45 48  1  1
 45 46  1  0
 47 45  1  0
 49  4  1  0
 50 62  1  0
 51 56  1  0
 52 53  1  0
 52 51  1  0
 54 53  1  0
 54 66  1  0
 54 55  1  0
 56 50  1  0
 56 55  1  0
 57 50  2  0
 58 59  1  0
 58 61  1  0
 59 62  1  0
 60 61  1  0
 61 49  1  6
 61 91  1  0
 62 60  1  0
 63 64  2  0
 64 83  1  0
 65 64  1  0
 65 68  1  0
 66 67  1  0
 66 63  1  0
 67 65  2  0
 68 69  1  0
 69 70  2  0
 71 74  1  0
 71 70  1  0
 72 71  2  0
 73 72  1  0
 73 68  2  0
 74 75  1  0
 75 80  2  0
 75 76  1  0
 76 77  2  0
 77 78  1  0
 78 82  1  0
 79 78  2  0
 80 79  1  0
 81 80  1  0
 83 84  1  0
 84 87  1  0
 84 86  1  0
 85 83  2  0
 88 63  1  0
 88 89  1  0
 90 88  1  0
 91 92  1  0
M  ISO  4   6 101   8 101  50 100  62 100
M  END
>  <TORSDO>  (74) 
F 18

>  <SCORE>  (74) 
-13.995

>  <name>  (74) 
73

>  <ligand_id>  (74) 
73

>  <original_smiles>  (74) 
[H]OC1(C([H])([H])c2c([H])c([H])c(Oc3c([H])c([H])c4c(c3[H])C([H])([H])N(C(=O)C([H])(N([H])C(=O)C([H])(N([H])C([H])([H])[H])C([H])([H])[H])C(C([H])([H])[H])(C([H])([H])[H])C([H])([H])[H])C([H])(C(=O)N([H])C3([H])c5c([H])c([H])c([H])c([H])c5C([H])([H])C([H])([H])C3([H])[H])C4([H])[H])c([H])c2C([H])([H])[H])C([H])([H])N(C(=O)N2C([H])([H])C([H])([H])C([H])([H])C([H])(n3nc(-c4c([H])c([H])c(Oc5c([H])c([H])c(F)c([H])c5F)c([H])c4[H])c(C(=O)N([H])[H])c3N([H])[H])C2([H])[H])C([H])([H])C1([H])[H]

>  <smiles>  (74) 
[H]OC1(C([H])([H])c2c([H])c([H])c(Oc3c([H])c([H])c4c(c3[H])C([H])([H])N(C(=O)C([H])(N([H])C(=O)C([H])(N([H])C([H])([H])[H])C([H])([H])[H])C(C([H])([H])[H])(C([H])([H])[H])C([H])([H])[H])C([H])(C(=O)N([H])C3([H])c5c([H])c([H])c([H])c([H])c5C([H])([H])C([H])([H])C3([H])[H])C4([H])[H])c([H])c2C([H])([H])[H])C([H])([H])N(C(=O)N2C([H])([H])C([H])([H])C([H])([H])C([H])(n3nc(-c4c([H])c([H])c(Oc5c([H])c([H])c(F)c([H])c5F)c([H])c4[H])c(C(=O)N([H])[H])c3N([H])[H])C2([H])[H])C([H])([H])C1([H])[H]

$$$$
74:0:0
     RDKit          3D

 89 97  0  0  1  0  0  0  0  0999 V2000
  -28.5330  -24.6520   21.2930 C   0  0  0  0  0  3  0  0  0  0  0  0
  -28.8740  -23.4750   22.0170 C   0  0  0  0  0  0  0  0  0  0  0  0
  -29.1810  -22.2140   21.3990 C   0  0  0  0  0  0  0  0  0  0  0  0
  -29.1580  -22.0260   19.9820 C   0  0  0  0  0  0  0  0  0  0  0  0
  -28.8060  -23.3570   19.2750 C   0  0  0  0  0  0  0  0  0  0  0  0
  -28.4900  -24.7380   19.8900 C   0  0  0  0  0  0  0  0  0  0  0  0
  -28.9210  -23.6190   23.5360 C   0  0  0  0  0  1  0  0  0  0  0  0
  -29.5330  -21.0210   22.2850 C   0  0  0  0  0  1  0  0  0  0  0  0
  -28.7510  -23.3000   17.7610 C   0  0  0  0  0  1  0  0  0  0  0  0
  -28.3000  -26.1550   19.3340 O   0  0  0  0  0  0  0  0  0  0  0  0
  -24.6940  -31.6240   23.1440 C   0  0  0  0  0  0  0  0  0  0  0  0
  -27.2330  -27.1690   19.5550 C   0  0  0  0  0  0  0  0  0  0  0  0
  -23.4460  -30.3180   21.4710 C   0  0  0  0  0  3  0  0  0  0  0  0
  -24.8590  -28.9220   19.8170 C   0  0  0  0  0  0  0  0  0  0  0  0
  -25.9770  -30.6850   21.1610 C   0  0  0  0  0  2  0  0  0  0  0  0
  -26.0670  -29.3350   20.3930 C   0  0  0  0  0  0  0  0  0  0  0  0
  -27.2500  -28.4830   20.2380 C   0  0  0  0  0  3  0  0  0  0  0  0
  -25.9860  -26.9060   18.9500 C   0  0  0  0  0  3  0  0  0  0  0  0
  -24.8390  -27.7300   19.0730 C   0  0  0  0  0  3  0  0  0  0  0  0
  -23.6050  -29.7730   20.0250 C   0  0  0  0  0  2  0  0  0  0  0  0
  -24.7300  -30.8980   21.9800 N   0  0  0  0  0  0  0  0  0  0  0  0
  -23.6330  -31.8050   23.7640 O   0  0  0  0  0  0  0  0  0  0  0  0
  -22.8740  -29.2030   22.3830 C   0  0  0  0  0  0  0  0  0  0  0  0
  -21.5700  -28.8980   22.2480 N   0  0  0  0  0  0  0  0  0  0  0  0
  -23.6100  -28.6160   23.1800 O   0  0  0  0  0  0  0  0  0  0  0  0
  -21.0250  -29.4280   21.5810 H   0  0  0  0  0  0  0  0  0  0  0  0
  -18.3970  -27.1690   22.5470 C   0  0  0  0  0  0  0  0  0  0  0  0
  -20.8600  -27.8390   22.9720 C   0  0  0  0  0  3  0  0  0  0  0  0
  -21.2240  -26.4450   22.4110 C   0  0  0  0  0  2  0  0  0  0  0  0
  -20.2530  -25.9580   21.3300 C   0  0  0  0  0  2  0  0  0  0  0  0
  -18.8280  -25.8720   21.8860 C   0  0  0  0  0  2  0  0  0  0  0  0
  -19.3480  -28.0990   23.0430 C   0  0  0  0  0  0  0  0  0  0  0  0
  -18.8910  -29.3030   23.6210 C   0  0  0  0  0  3  0  0  0  0  0  0
  -17.5140  -29.5830   23.7100 C   0  0  0  0  0  3  0  0  0  0  0  0
  -16.5760  -28.6530   23.2280 C   0  0  0  0  0  3  0  0  0  0  0  0
  -17.0190  -27.4490   22.6520 C   0  0  0  0  0  3  0  0  0  0  0  0
  -25.9750  -32.2720   23.7430 C   0  0  0  0  0  3  0  0  0  0  0  0
  -26.5720  -31.4520   24.9540 C   0  0  1  0  0  0  0  0  0  0  0  0
  -25.5340  -31.1220   26.0520 C   0  0  0  0  0  1  0  0  0  0  0  0
  -27.1790  -30.1160   24.4660 C   0  0  0  0  0  1  0  0  0  0  0  0
  -27.7240  -32.2470   25.6090 C   0  0  0  0  0  1  0  0  0  0  0  0
  -25.6330  -33.6390   24.1760 N   0  0  0  0  0  0  0  0  0  0  0  0
  -25.9820  -34.7590   23.5280 C   0  0  0  0  0  0  0  0  0  0  0  0
  -26.6910  -34.7470   22.5200 O   0  0  0  0  0  0  0  0  0  0  0  0
  -25.0080  -33.7170   24.9640 H   0  0  0  0  0  0  0  0  0  0  0  0
  -24.2710  -36.5830   23.2480 C   0  0  0  0  0  1  0  0  0  0  0  0
  -25.4680  -36.1020   24.0850 C   0  0  0  0  0  3  0  0  0  0  0  0
  -27.5580  -36.8980   25.1010 C   0  0  0  0  0  1  0  0  0  0  0  0
  -26.5000  -37.1610   24.1270 N   0  0  0  0  0  0  0  0  0  0  0  0
  -26.0840  -38.0630   24.3460 H   0  0  0  0  0  0  0  0  0  0  0  0
  -29.3400  -20.3800   19.3870 C   0  0  0  0  0  2  0  0  0  0  0  0
  -30.2840  -18.9000   19.8400 C   0  0  0  0  0  3  0  0  0  0  0  0
  -29.9780  -17.1270   19.6930 C   0  0  0  0  0  3  0  0  0  0  0  0
  -30.9030  -15.6350   19.8300 C   0  0  0  0  0  0  0  0  0  0  0  0
  -30.9400  -13.1270   19.1660 C   0  0  0  0  0  2  0  0  0  0  0  0
  -30.0030  -12.8400   17.9650 C   0  0  0  0  0  2  0  0  0  0  0  0
  -28.5550  -12.5990   18.4320 C   0  0  0  0  0  2  0  0  0  0  0  0
  -28.1120  -13.6430   19.4860 C   0  0  0  0  0  3  0  0  0  0  0  0
  -29.1680  -13.8520   20.5880 C   0  0  0  0  0  2  0  0  0  0  0  0
  -30.4010  -14.3090   19.9300 N   0  0  0  0  0  0  0  0  0  0  0  0
  -32.1230  -15.6550   19.6070 O   0  0  0  0  0  0  0  0  0  0  0  0
  -25.8050  -14.2730   20.3780 C   0  0  0  0  0  0  0  0  0  0  0  0
  -24.7200  -13.5290   20.7490 C   0  0  0  0  0  0  0  0  0  0  0  0
  -25.1170  -12.1610   20.6260 C   0  0  0  0  0  0  0  0  0  0  0  0
  -26.7910  -13.3640   20.0350 N   0  0  0  0  0  0  0  0  0  0  0  0
  -26.3900  -12.0840   20.2520 N   0  0  0  0  0  0  0  0  0  0  0  0
  -24.3360  -10.9260   20.7760 C   0  0  0  0  0  0  0  0  0  0  0  0
  -24.6880   -9.9360   21.7200 C   0  0  0  0  0  3  0  0  0  0  0  0
  -23.9050   -8.7700   21.8590 C   0  0  0  0  0  3  0  0  0  0  0  0
  -22.7560   -8.5840   21.0540 C   0  0  0  0  0  0  0  0  0  0  0  0
  -22.4260   -9.5600   20.0990 C   0  0  0  0  0  3  0  0  0  0  0  0
  -23.2090  -10.7180   19.9550 C   0  0  0  0  0  3  0  0  0  0  0  0
  -21.9530   -7.4690   21.1000 O   0  0  0  0  0  0  0  0  0  0  0  0
  -21.7360   -6.7880   22.2720 C   0  0  0  0  0  0  0  0  0  0  0  0
  -21.1640   -7.4130   23.4010 C   0  0  0  0  0  3  0  0  0  0  0  0
  -20.8880   -6.6580   24.5600 C   0  0  0  0  0  3  0  0  0  0  0  0
  -21.1800   -5.2820   24.5910 C   0  0  0  0  0  0  0  0  0  0  0  0
  -21.7500   -4.6570   23.4660 C   0  0  0  0  0  3  0  0  0  0  0  0
  -22.0230   -5.4100   22.3080 C   0  0  0  0  0  0  0  0  0  0  0  0
  -22.5480   -4.7980   21.2210 F   0  0  0  0  0  0  0  0  0  0  0  0
  -20.9120   -4.5550   25.7010 F   0  0  0  0  0  0  0  0  0  0  0  0
  -23.3600  -14.0560   21.1040 C   0  0  0  0  0  0  0  0  0  0  0  0
  -22.6370  -13.3580   21.9740 N   0  0  0  0  0  0  0  0  0  0  0  0
  -22.9510  -15.1240   20.6480 O   0  0  0  0  0  0  0  0  0  0  0  0
  -22.9810  -12.4940   22.3680 H   0  0  0  0  0  0  0  0  0  0  0  0
  -21.7270  -13.6950   22.2540 H   0  0  0  0  0  0  0  0  0  0  0  0
  -26.0310  -15.6430   20.2750 N   0  0  0  0  0  0  0  0  0  0  0  0
  -25.3070  -16.3270   20.4620 H   0  0  0  0  0  0  0  0  0  0  0  0
  -26.8910  -16.0620   19.9430 H   0  0  0  0  0  0  0  0  0  0  0  0
  1  2  1  0
  2  7  1  0
  3  2  2  0
  3  8  1  0
  4  3  1  0
  5  6  1  0
  5  4  2  0
  6  1  2  0
  9  5  1  0
 10 12  1  0
 10  6  1  0
 11 22  2  0
 12 17  1  0
 13 21  1  0
 13 23  1  0
 14 20  1  0
 14 16  1  0
 15 21  1  0
 16 15  1  0
 17 16  2  0
 18 19  1  0
 18 12  2  0
 19 14  2  0
 20 13  1  0
 21 11  1  0
 23 25  2  0
 24 23  1  0
 26 24  1  0
 27 36  2  0
 27 32  1  0
 28 24  1  0
 28 32  1  0
 29 28  1  0
 30 31  1  0
 30 29  1  0
 31 27  1  0
 32 33  2  0
 33 34  1  0
 35 34  2  0
 36 35  1  0
 37 11  1  0
 37 42  1  0
 37 38  1  0
 38 41  1  1
 38 39  1  0
 40 38  1  0
 42 45  1  0
 43 47  1  0
 43 42  1  0
 44 43  2  0
 47 46  1  0
 47 49  1  0
 49 50  1  0
 49 48  1  0
 51 52  1  0
 51  4  1  0
 53 54  1  0
 53 52  2  0
 54 60  1  0
 55 60  1  0
 56 57  1  0
 56 55  1  0
 58 57  1  0
 58 65  1  0
 58 59  1  0
 60 59  1  0
 61 54  2  0
 62 63  2  0
 63 82  1  0
 64 63  1  0
 64 67  1  0
 65 66  1  0
 65 62  1  0
 66 64  2  0
 67 68  1  0
 68 69  2  0
 70 73  1  0
 70 69  1  0
 71 70  2  0
 72 71  1  0
 72 67  2  0
 73 74  1  0
 74 79  2  0
 74 75  1  0
 75 76  2  0
 76 77  1  0
 77 81  1  0
 78 77  2  0
 79 78  1  0
 80 79  1  0
 82 83  1  0
 83 86  1  0
 83 85  1  0
 84 82  2  0
 87 62  1  0
 87 88  1  0
 89 87  1  0
M  ISO  4   6 101  10 101  53 100  54 100
M  END
>  <TORSDO>  (75) 
F 19

>  <SCORE>  (75) 
-13.454

>  <name>  (75) 
74

>  <ligand_id>  (75) 
74

>  <original_smiles>  (75) 
[H]c1c([H])c([H])c2c(c1[H])C([H])([H])C([H])([H])C([H])([H])C2([H])N([H])C(=O)C1([H])N(C(=O)C([H])(N([H])C(=O)C([H])(N([H])C([H])([H])[H])C([H])([H])[H])C(C([H])([H])[H])(C([H])([H])[H])C([H])([H])[H])C([H])([H])c2c([H])c(Oc3c([H])c(C([H])([H])[H])c(C([H])([H])[H])c(C([H])([H])C([H])([H])C([H])([H])C(=O)N4C([H])([H])C([H])([H])C([H])([H])C([H])(n5nc(-c6c([H])c([H])c(Oc7c([H])c([H])c(F)c([H])c7F)c([H])c6[H])c(C(=O)N([H])[H])c5N([H])[H])C4([H])[H])c3C([H])([H])[H])c([H])c([H])c2C1([H])[H]

>  <smiles>  (75) 
[H]c1c([H])c([H])c2c(c1[H])C([H])([H])C([H])([H])C([H])([H])C2([H])N([H])C(=O)C1([H])N(C(=O)C([H])(N([H])C(=O)C([H])(N([H])C([H])([H])[H])C([H])([H])[H])C(C([H])([H])[H])(C([H])([H])[H])C([H])([H])[H])C([H])([H])c2c([H])c(Oc3c([H])c(C([H])([H])[H])c(C([H])([H])[H])c(C([H])([H])C([H])([H])C([H])([H])C(=O)N4C([H])([H])C([H])([H])C([H])([H])C([H])(n5nc(-c6c([H])c([H])c(Oc7c([H])c([H])c(F)c([H])c7F)c([H])c6[H])c(C(=O)N([H])[H])c5N([H])[H])C4([H])[H])c3C([H])([H])[H])c([H])c([H])c2C1([H])[H]

$$$$
75:0:0
     RDKit          3D

 91 99  0  0  1  0  0  0  0  0999 V2000
  -26.9160  -23.1400   18.4610 C   0  0  0  0  0  3  0  0  0  0  0  0
  -28.2770  -23.4940   18.3390 C   0  0  0  0  0  3  0  0  0  0  0  0
  -26.7910  -24.4310   20.5340 C   0  0  0  0  0  3  0  0  0  0  0  0
  -26.2080  -23.5070   19.6270 C   0  0  0  0  0  0  0  0  0  0  0  0
  -28.8980  -24.0230   19.4880 C   0  0  0  0  0  0  0  0  0  0  0  0
  -28.0660  -24.9690   20.2160 C   0  0  0  0  0  0  0  0  0  0  0  0
  -24.7860  -23.0080   19.8220 C   0  0  0  0  0  1  0  0  0  0  0  0
  -28.2600  -26.3970   20.2220 O   0  0  0  0  0  0  0  0  0  0  0  0
  -24.5980  -31.8960   23.2660 C   0  0  0  0  0  0  0  0  0  0  0  0
  -27.1780  -27.3220   20.1680 C   0  0  0  0  0  0  0  0  0  0  0  0
  -23.3810  -30.5170   21.6190 C   0  0  0  0  0  3  0  0  0  0  0  0
  -24.8240  -28.9840   20.1620 C   0  0  0  0  0  0  0  0  0  0  0  0
  -25.9250  -30.8170   21.4350 C   0  0  0  0  0  2  0  0  0  0  0  0
  -25.9940  -29.4380   20.7880 C   0  0  0  0  0  0  0  0  0  0  0  0
  -27.1620  -28.6120   20.8060 C   0  0  0  0  0  3  0  0  0  0  0  0
  -26.0120  -26.9900   19.4390 C   0  0  0  0  0  3  0  0  0  0  0  0
  -24.8380  -27.7640   19.4750 C   0  0  0  0  0  3  0  0  0  0  0  0
  -23.5910  -29.8660   20.2260 C   0  0  0  0  0  2  0  0  0  0  0  0
  -24.6550  -31.0940   22.1640 N   0  0  0  0  0  0  0  0  0  0  0  0
  -23.5180  -32.1760   23.8070 O   0  0  0  0  0  0  0  0  0  0  0  0
  -22.7200  -29.4900   22.5700 C   0  0  0  0  0  0  0  0  0  0  0  0
  -21.3950  -29.3150   22.4410 N   0  0  0  0  0  0  0  0  0  0  0  0
  -23.3980  -28.8650   23.3890 O   0  0  0  0  0  0  0  0  0  0  0  0
  -20.9060  -29.8670   21.7520 H   0  0  0  0  0  0  0  0  0  0  0  0
  -18.0230  -28.1020   22.9200 C   0  0  0  0  0  0  0  0  0  0  0  0
  -20.5780  -28.3750   23.2110 C   0  0  0  0  0  3  0  0  0  0  0  0
  -20.6960  -26.9450   22.6380 C   0  0  0  0  0  2  0  0  0  0  0  0
  -19.6020  -26.6120   21.6200 C   0  0  0  0  0  2  0  0  0  0  0  0
  -18.2130  -26.7520   22.2510 C   0  0  0  0  0  2  0  0  0  0  0  0
  -19.1330  -28.8690   23.3590 C   0  0  0  0  0  0  0  0  0  0  0  0
  -18.9030  -30.1320   23.9480 C   0  0  0  0  0  3  0  0  0  0  0  0
  -17.5950  -30.6230   24.1100 C   0  0  0  0  0  3  0  0  0  0  0  0
  -16.4980  -29.8530   23.6890 C   0  0  0  0  0  3  0  0  0  0  0  0
  -16.7120  -28.5970   23.0950 C   0  0  0  0  0  3  0  0  0  0  0  0
  -25.8880  -32.5200   23.8810 C   0  0  0  0  0  3  0  0  0  0  0  0
  -25.5930  -33.9230   24.2100 N   0  0  0  0  0  0  0  0  0  0  0  0
  -25.9170  -34.9710   23.4400 C   0  0  0  0  0  0  0  0  0  0  0  0
  -26.5680  -34.8600   22.4000 O   0  0  0  0  0  0  0  0  0  0  0  0
  -25.0330  -34.0890   25.0320 H   0  0  0  0  0  0  0  0  0  0  0  0
  -24.1860  -36.7640   23.1070 C   0  0  0  0  0  1  0  0  0  0  0  0
  -25.4390  -36.3630   23.9010 C   0  0  0  0  0  3  0  0  0  0  0  0
  -27.5890  -37.2440   24.6980 C   0  0  0  0  0  1  0  0  0  0  0  0
  -26.4730  -37.4140   23.7700 N   0  0  0  0  0  0  0  0  0  0  0  0
  -26.0710  -38.3350   23.9250 H   0  0  0  0  0  0  0  0  0  0  0  0
  -26.3970  -31.7490   25.1600 C   0  0  1  0  0  0  0  0  0  0  0  0
  -25.2960  -31.5310   26.2240 C   0  0  0  0  0  1  0  0  0  0  0  0
  -26.9680  -30.3640   24.7790 C   0  0  0  0  0  1  0  0  0  0  0  0
  -27.5500  -32.5380   25.8210 C   0  0  0  0  0  1  0  0  0  0  0  0
  -29.7780  -22.8850   20.1800 C   0  0  0  0  0  3  0  0  0  0  0  0
  -29.3790  -21.3240   19.9250 C   0  0  0  0  0  3  0  0  0  0  0  0
  -30.2270  -20.0810   20.4940 C   0  0  0  0  0  2  0  0  0  0  0  0
  -29.6180  -18.5860   20.3860 C   0  0  0  0  0  3  0  0  0  0  0  0
  -30.5750  -17.3000   20.6150 C   0  0  0  0  0  3  0  0  0  0  0  0
  -30.6670  -14.7260   20.4000 C   0  0  0  0  0  0  0  0  0  0  0  0
  -30.3880  -12.4990   19.3580 C   0  0  0  0  0  2  0  0  0  0  0  0
  -29.4510  -12.6150   18.1390 C   0  0  0  0  0  2  0  0  0  0  0  0
  -27.9780  -12.4470   18.5670 C   0  0  0  0  0  2  0  0  0  0  0  0
  -27.6140  -13.3040   19.8150 C   0  0  0  0  0  3  0  0  0  0  0  0
  -28.6790  -13.2060   20.9250 C   0  0  0  0  0  2  0  0  0  0  0  0
  -29.9800  -13.5380   20.3250 N   0  0  0  0  0  0  0  0  0  0  0  0
  -31.8370  -14.7890   20.0380 O   0  0  0  0  0  0  0  0  0  0  0  0
  -29.9920  -15.8920   20.6770 N   0  0  0  0  0  0  0  0  0  0  0  0
  -29.0370  -15.7890   20.9840 H   0  0  0  0  0  0  0  0  0  0  0  0
  -25.2160  -13.8750   20.5420 C   0  0  0  0  0  0  0  0  0  0  0  0
  -24.1600  -13.0920   20.9130 C   0  0  0  0  0  0  0  0  0  0  0  0
  -24.6310  -11.7420   20.8760 C   0  0  0  0  0  0  0  0  0  0  0  0
  -26.2680  -13.0050   20.3020 N   0  0  0  0  0  0  0  0  0  0  0  0
  -25.9220  -11.7170   20.5670 N   0  0  0  0  0  0  0  0  0  0  0  0
  -23.9180  -10.4710   21.0660 C   0  0  0  0  0  0  0  0  0  0  0  0
  -24.3680   -9.4990   21.9890 C   0  0  0  0  0  3  0  0  0  0  0  0
  -23.6510   -8.2950   22.1690 C   0  0  0  0  0  3  0  0  0  0  0  0
  -22.4710   -8.0510   21.4230 C   0  0  0  0  0  0  0  0  0  0  0  0
  -22.0400   -9.0120   20.4910 C   0  0  0  0  0  3  0  0  0  0  0  0
  -22.7580  -10.2090   20.3090 C   0  0  0  0  0  3  0  0  0  0  0  0
  -21.7280   -6.8970   21.5050 O   0  0  0  0  0  0  0  0  0  0  0  0
  -21.7000   -6.1440   22.6520 C   0  0  0  0  0  0  0  0  0  0  0  0
  -21.2720   -6.6800   23.8880 C   0  0  0  0  0  3  0  0  0  0  0  0
  -21.1850   -5.8500   25.0240 C   0  0  0  0  0  3  0  0  0  0  0  0
  -21.5250   -4.4870   24.9280 C   0  0  0  0  0  0  0  0  0  0  0  0
  -21.9460   -3.9500   23.6970 C   0  0  0  0  0  3  0  0  0  0  0  0
  -22.0320   -4.7770   22.5630 C   0  0  0  0  0  0  0  0  0  0  0  0
  -22.4160   -4.2520   21.3750 F   0  0  0  0  0  0  0  0  0  0  0  0
  -21.4410   -3.6880   26.0160 F   0  0  0  0  0  0  0  0  0  0  0  0
  -22.7540  -13.5490   21.1830 C   0  0  0  0  0  0  0  0  0  0  0  0
  -22.0360  -12.8480   22.0490 N   0  0  0  0  0  0  0  0  0  0  0  0
  -22.3030  -14.5690   20.6610 O   0  0  0  0  0  0  0  0  0  0  0  0
  -22.4180  -12.0220   22.4870 H   0  0  0  0  0  0  0  0  0  0  0  0
  -21.0940  -13.1350   22.2700 H   0  0  0  0  0  0  0  0  0  0  0  0
  -25.3760  -15.2510   20.3660 N   0  0  0  0  0  0  0  0  0  0  0  0
  -24.6050  -15.9040   20.4660 H   0  0  0  0  0  0  0  0  0  0  0  0
  -26.2230  -15.6890   20.0280 H   0  0  0  0  0  0  0  0  0  0  0  0
  1  4  1  0
  2  1  2  0
  2  5  1  0
  4  7  1  0
  4  3  2  0
  5 49  1  0
  5  6  2  3
  6  8  1  0
  6  3  1  0
  9 20  2  0
 10  8  1  0
 10 15  1  0
 11 19  1  0
 11 21  1  0
 12 18  1  0
 12 14  1  0
 13 19  1  0
 14 15  2  0
 14 13  1  0
 16 17  1  0
 16 10  2  0
 17 12  2  0
 18 11  1  0
 19  9  1  0
 21 23  2  0
 22 21  1  0
 24 22  1  0
 25 34  2  0
 25 30  1  0
 26 22  1  0
 26 30  1  0
 27 26  1  0
 28 29  1  0
 28 27  1  0
 29 25  1  0
 30 31  2  0
 31 32  1  0
 33 32  2  0
 34 33  1  0
 35  9  1  0
 35 36  1  0
 35 45  1  0
 36 39  1  0
 37 41  1  0
 37 36  1  0
 38 37  2  0
 41 40  1  0
 43 41  1  0
 43 44  1  0
 43 42  1  0
 45 48  1  1
 45 46  1  0
 47 45  1  0
 50 49  2  0
 50 51  1  0
 52 51  1  0
 52 53  2  0
 53 62  1  0
 54 62  1  0
 55 60  1  0
 56 57  1  0
 56 55  1  0
 58 57  1  0
 58 67  1  0
 58 59  1  0
 60 54  1  0
 60 59  1  0
 61 54  2  0
 62 63  1  0
 64 65  2  0
 65 84  1  0
 66 65  1  0
 66 69  1  0
 67 64  1  0
 67 68  1  0
 68 66  2  0
 69 70  1  0
 70 71  2  0
 72 75  1  0
 72 71  1  0
 73 72  2  0
 74 73  1  0
 74 69  2  0
 75 76  1  0
 76 77  1  0
 77 78  2  0
 79 78  1  0
 79 83  1  0
 80 79  2  0
 81 76  2  0
 81 80  1  0
 82 81  1  0
 84 85  1  0
 85 88  1  0
 85 87  1  0
 86 84  2  0
 89 90  1  0
 89 64  1  0
 91 89  1  0
M  ISO  4   6 101   8 101  54 100  62 100
M  END
>  <TORSDO>  (76) 
F 21

>  <SCORE>  (76) 
-13.512

>  <name>  (76) 
75

>  <ligand_id>  (76) 
75

>  <original_smiles>  (76) 
[H]c1c([H])c([H])c2c(c1[H])C([H])([H])C([H])([H])C([H])([H])C2([H])N([H])C(=O)C1([H])N(C(=O)C([H])(N([H])C(=O)C([H])(N([H])C([H])([H])[H])C([H])([H])[H])C(C([H])([H])[H])(C([H])([H])[H])C([H])([H])[H])C([H])([H])c2c([H])c(Oc3c([H])c(C([H])([H])[H])c([H])c([H])c3C([H])([H])C([H])([H])C([H])([H])C([H])([H])C([H])([H])N([H])C(=O)N3C([H])([H])C([H])([H])C([H])([H])C([H])(n4nc(-c5c([H])c([H])c(Oc6c([H])c([H])c(F)c([H])c6F)c([H])c5[H])c(C(=O)N([H])[H])c4N([H])[H])C3([H])[H])c([H])c([H])c2C1([H])[H]

>  <smiles>  (76) 
[H]c1c([H])c([H])c2c(c1[H])C([H])([H])C([H])([H])C([H])([H])C2([H])N([H])C(=O)C1([H])N(C(=O)C([H])(N([H])C(=O)C([H])(N([H])C([H])([H])[H])C([H])([H])[H])C(C([H])([H])[H])(C([H])([H])[H])C([H])([H])[H])C([H])([H])c2c([H])c(Oc3c([H])c(C([H])([H])[H])c([H])c([H])c3C([H])([H])C([H])([H])C([H])([H])C([H])([H])C([H])([H])N([H])C(=O)N3C([H])([H])C([H])([H])C([H])([H])C([H])(n4nc(-c5c([H])c([H])c(Oc6c([H])c([H])c(F)c([H])c6F)c([H])c5[H])c(C(=O)N([H])[H])c4N([H])[H])C3([H])[H])c([H])c([H])c2C1([H])[H]

$$$$
76:0:0
     RDKit          3D

 94104  0  0  1  0  0  0  0  0999 V2000
  -27.8140  -18.5180   18.0740 C   0  0  0  0  0  3  0  0  0  0  0  0
  -28.3260  -17.2460   17.9080 C   0  0  0  0  0  3  0  0  0  0  0  0
  -29.8180  -17.3600   19.9480 C   0  0  0  0  0  0  0  0  0  0  0  0
  -28.4510  -19.3710   18.9680 C   0  0  0  0  0  0  0  0  0  0  0  0
  -29.4470  -18.9120   19.8910 C   0  0  0  0  0  0  0  0  0  0  0  0
  -29.3800  -16.7680   18.7060 C   0  0  0  0  0  0  0  0  0  0  0  0
  -27.8520  -21.8440   21.1360 C   0  0  0  0  0  0  0  0  0  0  0  0
  -28.0820  -20.8770   18.8520 C   0  0  0  0  0  2  0  0  0  0  0  0
  -28.2010  -20.8840   22.2620 C   0  0  0  0  0  2  0  0  0  0  0  0
  -29.6390  -20.4360   21.9930 C   0  0  0  0  0  2  0  0  0  0  0  0
  -29.8220  -20.4320   20.4670 C   0  0  2  0  0  0  0  0  0  0  0  0
  -28.7830  -21.7420   19.9180 C   0  0  2  0  0  0  0  0  0  0  0  0
  -30.1520  -15.6930   17.9570 C   0  0  0  0  0  1  0  0  0  0  0  0
  -31.2790  -20.7380   20.0960 C   0  0  0  0  0  1  0  0  0  0  0  0
  -26.8930  -22.6170   21.2020 O   0  0  0  0  0  0  0  0  0  0  0  0
  -30.7070  -16.2090   20.8220 C   0  0  0  0  0  0  0  0  0  0  0  0
  -31.1430  -13.6520   20.4810 C   0  0  0  0  0  2  0  0  0  0  0  0
  -30.4630  -12.9590   19.2660 C   0  0  0  0  0  2  0  0  0  0  0  0
  -28.9530  -12.7240   19.4590 C   0  0  0  0  0  2  0  0  0  0  0  0
  -28.2430  -13.7960   20.3230 C   0  0  0  0  0  3  0  0  0  0  0  0
  -29.0920  -14.2770   21.5110 C   0  0  0  0  0  2  0  0  0  0  0  0
  -30.3350  -14.8340   20.9550 N   0  0  0  0  0  0  0  0  0  0  0  0
  -31.9290  -16.3800   20.9590 O   0  0  0  0  0  0  0  0  0  0  0  0
  -25.7890  -14.1830   20.9110 C   0  0  0  0  0  0  0  0  0  0  0  0
  -24.7540  -13.3260   21.1720 C   0  0  0  0  0  0  0  0  0  0  0  0
  -25.3110  -12.0110   21.1500 C   0  0  0  0  0  0  0  0  0  0  0  0
  -26.9030  -13.3840   20.7300 N   0  0  0  0  0  0  0  0  0  0  0  0
  -26.6230  -12.0720   20.9520 N   0  0  0  0  0  0  0  0  0  0  0  0
  -24.6600  -10.6970   21.2420 C   0  0  0  0  0  0  0  0  0  0  0  0
  -24.9800   -9.7830   22.2680 C   0  0  0  0  0  3  0  0  0  0  0  0
  -24.3240   -8.5350   22.3470 C   0  0  0  0  0  3  0  0  0  0  0  0
  -23.3350   -8.1910   21.3950 C   0  0  0  0  0  0  0  0  0  0  0  0
  -23.0370   -9.0960   20.3600 C   0  0  0  0  0  3  0  0  0  0  0  0
  -23.6930  -10.3350   20.2810 C   0  0  0  0  0  3  0  0  0  0  0  0
  -22.6650   -6.9920   21.3780 O   0  0  0  0  0  0  0  0  0  0  0  0
  -22.3050   -6.3500   22.5360 C   0  0  0  0  0  0  0  0  0  0  0  0
  -21.5010   -6.9740   23.5150 C   0  0  0  0  0  3  0  0  0  0  0  0
  -21.0990   -6.2540   24.6590 C   0  0  0  0  0  3  0  0  0  0  0  0
  -21.4910   -4.9130   24.8210 C   0  0  0  0  0  0  0  0  0  0  0  0
  -22.2880   -4.2880   23.8450 C   0  0  0  0  0  3  0  0  0  0  0  0
  -22.6910   -5.0050   22.7050 C   0  0  0  0  0  0  0  0  0  0  0  0
  -23.4410   -4.3920   21.7570 F   0  0  0  0  0  0  0  0  0  0  0  0
  -21.0990   -4.2190   25.9160 F   0  0  0  0  0  0  0  0  0  0  0  0
  -23.3090  -13.7010   21.3270 C   0  0  0  0  0  0  0  0  0  0  0  0
  -22.5630  -12.9450   22.1260 N   0  0  0  0  0  0  0  0  0  0  0  0
  -22.8450  -14.6990   20.7770 O   0  0  0  0  0  0  0  0  0  0  0  0
  -22.9490  -12.1390   22.5930 H   0  0  0  0  0  0  0  0  0  0  0  0
  -21.5900  -13.1750   22.2710 H   0  0  0  0  0  0  0  0  0  0  0  0
  -25.8780  -15.5670   20.7820 N   0  0  0  0  0  0  0  0  0  0  0  0
  -25.0710  -16.1740   20.8510 H   0  0  0  0  0  0  0  0  0  0  0  0
  -26.7240  -16.0620   20.5290 H   0  0  0  0  0  0  0  0  0  0  0  0
  -29.0470  -23.4530   19.3960 C   0  0  0  0  0  2  0  0  0  0  0  0
  -27.9930  -24.9070   19.2530 C   0  0  0  0  0  2  0  0  0  0  0  0
  -28.2230  -26.5370   19.2080 O   0  0  0  0  0  0  0  0  0  0  0  0
  -24.7840  -31.9460   23.1740 C   0  0  0  0  0  0  0  0  0  0  0  0
  -27.1970  -27.6070   19.3580 C   0  0  0  0  0  0  0  0  0  0  0  0
  -23.5120  -30.8060   21.4010 C   0  0  0  0  0  3  0  0  0  0  0  0
  -24.8940  -29.4460   19.6890 C   0  0  0  0  0  0  0  0  0  0  0  0
  -26.0660  -31.0610   21.1670 C   0  0  0  0  0  2  0  0  0  0  0  0
  -26.1060  -29.7680   20.3080 C   0  0  0  0  0  0  0  0  0  0  0  0
  -27.2530  -28.8750   20.1190 C   0  0  0  0  0  3  0  0  0  0  0  0
  -25.9490  -27.4360   18.7170 C   0  0  0  0  0  3  0  0  0  0  0  0
  -24.8370  -28.3040   18.8720 C   0  0  0  0  0  3  0  0  0  0  0  0
  -23.6770  -30.3400   19.9270 C   0  0  0  0  0  2  0  0  0  0  0  0
  -24.8110  -31.2900   21.9690 N   0  0  0  0  0  0  0  0  0  0  0  0
  -23.7220  -32.1460   23.7850 O   0  0  0  0  0  0  0  0  0  0  0  0
  -22.8640  -29.6710   22.2370 C   0  0  0  0  0  0  0  0  0  0  0  0
  -21.5300  -29.5170   22.1480 N   0  0  0  0  0  0  0  0  0  0  0  0
  -23.5670  -28.9360   22.9330 O   0  0  0  0  0  0  0  0  0  0  0  0
  -21.0140  -30.1650   21.5690 H   0  0  0  0  0  0  0  0  0  0  0  0
  -18.1740  -28.2210   22.6240 C   0  0  0  0  0  0  0  0  0  0  0  0
  -20.7430  -28.4690   22.8080 C   0  0  0  0  0  3  0  0  0  0  0  0
  -20.8210  -27.1390   22.0220 C   0  0  0  0  0  2  0  0  0  0  0  0
  -19.6750  -26.9600   21.0220 C   0  0  0  0  0  2  0  0  0  0  0  0
  -18.3240  -26.9910   21.7420 C   0  0  0  0  0  2  0  0  0  0  0  0
  -19.3090  -28.9240   23.1100 C   0  0  0  0  0  0  0  0  0  0  0  0
  -19.1130  -30.0750   23.9010 C   0  0  0  0  0  3  0  0  0  0  0  0
  -17.8160  -30.5280   24.2050 C   0  0  0  0  0  3  0  0  0  0  0  0
  -16.6960  -29.8220   23.7330 C   0  0  0  0  0  3  0  0  0  0  0  0
  -16.8760  -28.6700   22.9470 C   0  0  0  0  0  3  0  0  0  0  0  0
  -26.0850  -32.4940   23.8350 C   0  0  0  0  0  3  0  0  0  0  0  0
  -25.7860  -33.8260   24.3900 N   0  0  0  0  0  0  0  0  0  0  0  0
  -26.0930  -34.9900   23.8010 C   0  0  0  0  0  0  0  0  0  0  0  0
  -26.7210  -35.0540   22.7420 O   0  0  0  0  0  0  0  0  0  0  0  0
  -25.2220  -33.8470   25.2270 H   0  0  0  0  0  0  0  0  0  0  0  0
  -24.3600  -36.8190   23.8180 C   0  0  0  0  0  1  0  0  0  0  0  0
  -25.6320  -36.2880   24.4970 C   0  0  0  0  0  3  0  0  0  0  0  0
  -27.8050  -37.0360   25.3660 C   0  0  0  0  0  1  0  0  0  0  0  0
  -26.6640  -37.3490   24.5110 N   0  0  0  0  0  0  0  0  0  0  0  0
  -26.2680  -38.2320   24.8230 H   0  0  0  0  0  0  0  0  0  0  0  0
  -26.6500  -31.5490   24.9680 C   0  0  1  0  0  0  0  0  0  0  0  0
  -25.6030  -31.1660   26.0410 C   0  0  0  0  0  1  0  0  0  0  0  0
  -27.2030  -30.2350   24.3680 C   0  0  0  0  0  1  0  0  0  0  0  0
  -27.8360  -32.2390   25.6820 C   0  0  0  0  0  1  0  0  0  0  0  0
  1  4  1  0
  2  1  2  0
  2  6  1  0
  3 16  1  0
  4  5  2  0
  5  3  1  0
  5 11  1  0
  6  3  2  0
  7 15  2  0
  7  9  1  0
  8  4  1  0
  8 12  1  0
 10  9  1  0
 11 14  1  1
 11 10  1  0
 12 52  1  6
 12 11  1  0
 12  7  1  0
 13  6  1  0
 16 22  1  0
 16 23  2  0
 17 22  1  0
 18 19  1  0
 18 17  1  0
 20 19  1  0
 20 27  1  0
 20 21  1  0
 22 21  1  0
 24 25  2  0
 25 44  1  0
 26 25  1  0
 26 29  1  0
 27 24  1  0
 27 28  1  0
 28 26  2  0
 29 30  1  0
 30 31  2  0
 32 31  1  0
 33 32  2  0
 34 33  1  0
 34 29  2  0
 35 32  1  0
 35 36  1  0
 36 41  2  0
 36 37  1  0
 37 38  2  0
 38 39  1  0
 39 43  1  0
 40 39  2  0
 41 40  1  0
 42 41  1  0
 44 45  1  0
 45 48  1  0
 45 47  1  0
 46 44  2  0
 49 50  1  0
 49 24  1  0
 51 49  1  0
 53 52  1  0
 54 53  1  0
 54 56  1  0
 55 66  2  0
 56 61  1  0
 57 65  1  0
 57 67  1  0
 58 64  1  0
 58 60  1  0
 59 65  1  0
 60 59  1  0
 61 60  2  0
 62 63  1  0
 62 56  2  0
 63 58  2  0
 64 57  1  0
 65 55  1  0
 67 69  2  0
 68 67  1  0
 70 68  1  0
 71 80  2  0
 71 76  1  0
 72 68  1  0
 72 76  1  0
 73 72  1  0
 74 75  1  0
 74 73  1  0
 75 71  1  0
 76 77  2  0
 77 78  1  0
 79 78  2  0
 80 79  1  0
 81 55  1  0
 81 82  1  0
 81 91  1  0
 82 85  1  0
 83 82  1  0
 83 87  1  0
 84 83  2  0
 87 86  1  0
 87 89  1  0
 89 90  1  0
 89 88  1  0
 91 94  1  1
 91 92  1  0
 93 91  1  0
M  ISO  4   3 100  16 100  53 101  54 101
M  END
>  <TORSDO>  (77) 
F 18

>  <SCORE>  (77) 
-9.992

>  <name>  (77) 
76

>  <ligand_id>  (77) 
76

>  <original_smiles>  (77) 
[H]c1c([H])c([H])c2c(c1[H])C([H])([H])C([H])([H])C([H])([H])C2([H])N([H])C(=O)C1([H])N(C(=O)C([H])(N([H])C(=O)C([H])(N([H])C([H])([H])[H])C([H])([H])[H])C(C([H])([H])[H])(C([H])([H])[H])C([H])([H])[H])C([H])([H])c2c([H])c(OC([H])([H])C([H])([H])C34C(=O)C([H])([H])C([H])([H])C3(C([H])([H])[H])c3c(C(=O)N5C([H])([H])C([H])([H])C([H])([H])C([H])(n6nc(-c7c([H])c([H])c(Oc8c([H])c([H])c(F)c([H])c8F)c([H])c7[H])c(C(=O)N([H])[H])c6N([H])[H])C5([H])[H])c(C([H])([H])[H])c([H])c([H])c3C4([H])[H])c([H])c([H])c2C1([H])[H]

>  <smiles>  (77) 
[H]c1c([H])c([H])c2c(c1[H])C([H])([H])C([H])([H])C([H])([H])C2([H])N([H])C(=O)C1([H])N(C(=O)C([H])(N([H])C(=O)C([H])(N([H])C([H])([H])[H])C([H])([H])[H])C(C([H])([H])[H])(C([H])([H])[H])C([H])([H])[H])C([H])([H])c2c([H])c(OC([H])([H])C([H])([H])C34C(=O)C([H])([H])C([H])([H])C3(C([H])([H])[H])c3c(C(=O)N5C([H])([H])C([H])([H])C([H])([H])C([H])(n6nc(-c7c([H])c([H])c(Oc8c([H])c([H])c(F)c([H])c8F)c([H])c7[H])c(C(=O)N([H])[H])c6N([H])[H])C5([H])[H])c(C([H])([H])[H])c([H])c([H])c3C4([H])[H])c([H])c([H])c2C1([H])[H]

$$$$
77:0:0
     RDKit          3D

 99107  0  0  1  0  0  0  0  0999 V2000
  -27.8780  -23.4260   19.6860 C   0  0  0  0  0  3  0  0  0  0  0  0
  -28.0850  -22.0110   19.5000 C   0  0  0  0  0  0  0  0  0  0  0  0
  -28.3340  -24.7470   20.5470 C   0  0  0  0  0  2  0  0  0  0  0  0
  -28.3680  -26.2900   20.2350 O   0  0  0  0  0  0  0  0  0  0  0  0
  -24.6480  -31.9380   23.2440 C   0  0  0  0  0  0  0  0  0  0  0  0
  -27.2740  -27.2280   20.2450 C   0  0  0  0  0  0  0  0  0  0  0  0
  -23.4720  -30.5210   21.6080 C   0  0  0  0  0  3  0  0  0  0  0  0
  -24.9370  -28.9470   20.2030 C   0  0  0  0  0  0  0  0  0  0  0  0
  -26.0240  -30.8070   21.4560 C   0  0  0  0  0  2  0  0  0  0  0  0
  -26.1100  -29.4110   20.8110 C   0  0  0  0  0  0  0  0  0  0  0  0
  -27.2830  -28.5670   20.8130 C   0  0  0  0  0  3  0  0  0  0  0  0
  -26.0780  -26.8650   19.5970 C   0  0  0  0  0  3  0  0  0  0  0  0
  -24.9300  -27.6860   19.5850 C   0  0  0  0  0  3  0  0  0  0  0  0
  -23.7050  -29.8380   20.2350 C   0  0  0  0  0  2  0  0  0  0  0  0
  -24.7340  -31.1120   22.1550 N   0  0  0  0  0  0  0  0  0  0  0  0
  -23.5560  -32.2150   23.7630 O   0  0  0  0  0  0  0  0  0  0  0  0
  -22.8000  -29.5090   22.5700 C   0  0  0  0  0  0  0  0  0  0  0  0
  -21.4740  -29.3270   22.4390 N   0  0  0  0  0  0  0  0  0  0  0  0
  -23.4750  -28.8940   23.3990 O   0  0  0  0  0  0  0  0  0  0  0  0
  -20.9850  -29.8750   21.7440 H   0  0  0  0  0  0  0  0  0  0  0  0
  -18.1010  -28.1110   22.9520 C   0  0  0  0  0  0  0  0  0  0  0  0
  -20.6600  -28.3840   23.2110 C   0  0  0  0  0  3  0  0  0  0  0  0
  -20.7670  -26.9540   22.6360 C   0  0  0  0  0  2  0  0  0  0  0  0
  -19.6630  -26.6270   21.6250 C   0  0  0  0  0  2  0  0  0  0  0  0
  -18.2830  -26.7640   22.2720 C   0  0  0  0  0  2  0  0  0  0  0  0
  -19.2180  -28.8790   23.3800 C   0  0  0  0  0  0  0  0  0  0  0  0
  -18.9940  -30.1390   23.9760 C   0  0  0  0  0  3  0  0  0  0  0  0
  -17.6860  -30.6310   24.1490 C   0  0  0  0  0  3  0  0  0  0  0  0
  -16.5850  -29.8610   23.7380 C   0  0  0  0  0  3  0  0  0  0  0  0
  -16.7940  -28.6030   23.1450 C   0  0  0  0  0  3  0  0  0  0  0  0
  -25.9160  -32.5920   23.8730 C   0  0  0  0  0  3  0  0  0  0  0  0
  -26.4200  -31.8440   25.1680 C   0  0  1  0  0  0  0  0  0  0  0  0
  -25.3120  -31.6050   26.2210 C   0  0  0  0  0  1  0  0  0  0  0  0
  -27.0290  -30.4690   24.8110 C   0  0  0  0  0  1  0  0  0  0  0  0
  -27.5490  -32.6620   25.8400 C   0  0  0  0  0  1  0  0  0  0  0  0
  -25.5860  -33.9920   24.1890 N   0  0  0  0  0  0  0  0  0  0  0  0
  -25.9110  -35.0450   23.4280 C   0  0  0  0  0  0  0  0  0  0  0  0
  -26.5850  -34.9400   22.3980 O   0  0  0  0  0  0  0  0  0  0  0  0
  -24.9830  -34.1450   24.9840 H   0  0  0  0  0  0  0  0  0  0  0  0
  -24.1670  -36.8240   23.0590 C   0  0  0  0  0  1  0  0  0  0  0  0
  -25.4100  -36.4330   23.8750 C   0  0  0  0  0  3  0  0  0  0  0  0
  -27.5320  -37.3460   24.7110 C   0  0  0  0  0  1  0  0  0  0  0  0
  -26.4350  -37.4940   23.7570 N   0  0  0  0  0  0  0  0  0  0  0  0
  -26.0200  -38.4110   23.8900 H   0  0  0  0  0  0  0  0  0  0  0  0
  -27.2580  -21.3320   18.3880 C   0  0  0  0  0  2  0  0  0  0  0  0
  -26.3400  -22.1560   17.4420 C   0  0  0  0  0  2  0  0  0  0  0  0
  -24.9490  -22.5280   18.0080 C   0  0  0  0  0  2  0  0  0  0  0  0
  -22.1070  -23.5710   14.8650 C   0  0  0  0  0  3  0  0  0  0  0  0
  -22.4030  -22.2220   15.1130 C   0  0  0  0  0  3  0  0  0  0  0  0
  -23.6470  -24.2280   16.6360 C   0  0  0  0  0  3  0  0  0  0  0  0
  -22.7450  -24.5820   15.6100 C   0  0  0  0  0  0  0  0  0  0  0  0
  -23.3230  -21.8620   16.1200 C   0  0  0  0  0  0  0  0  0  0  0  0
  -23.9420  -22.8720   16.9050 C   0  0  0  0  0  0  0  0  0  0  0  0
  -23.6470  -20.3880   16.2910 C   0  0  0  0  0  1  0  0  0  0  0  0
  -22.4790  -26.0390   15.2760 C   0  0  0  0  0  2  0  0  0  0  0  0
  -22.7740  -26.3590   13.8010 C   0  0  0  0  0  2  0  0  0  0  0  0
  -23.1300  -28.1580   12.0490 C   0  0  0  0  0  1  0  0  0  0  0  0
  -22.8070  -27.8640   13.5160 C   0  0  0  0  0  2  0  0  0  0  0  0
  -29.0310  -20.8090   20.1450 C   0  0  0  0  0  2  0  0  0  0  0  0
  -28.8040  -19.1190   19.9010 C   0  0  0  0  0  3  0  0  0  0  0  0
  -29.9160  -17.8610   20.2080 C   0  0  0  0  0  3  0  0  0  0  0  0
  -30.4650  -15.1150   20.0340 C   0  0  0  0  0  0  0  0  0  0  0  0
  -30.3740  -12.7440   19.1160 C   0  0  0  0  0  2  0  0  0  0  0  0
  -29.3970  -12.6860   17.9200 C   0  0  0  0  0  2  0  0  0  0  0  0
  -27.9510  -12.4650   18.4050 C   0  0  0  0  0  2  0  0  0  0  0  0
  -27.5850  -13.3810   19.6040 C   0  0  0  0  0  3  0  0  0  0  0  0
  -28.6790  -13.4000   20.6880 C   0  0  0  0  0  2  0  0  0  0  0  0
  -29.9100  -13.8360   20.0230 N   0  0  0  0  0  0  0  0  0  0  0  0
  -31.6650  -15.1970   19.7480 O   0  0  0  0  0  0  0  0  0  0  0  0
  -29.6440  -16.2840   20.1750 N   0  0  0  0  0  0  0  0  0  0  0  0
  -28.6820  -16.0440   20.3630 H   0  0  0  0  0  0  0  0  0  0  0  0
  -25.2570  -13.9500   20.4880 C   0  0  0  0  0  0  0  0  0  0  0  0
  -24.2120  -13.1700   20.8960 C   0  0  0  0  0  0  0  0  0  0  0  0
  -24.6640  -11.8180   20.8000 C   0  0  0  0  0  0  0  0  0  0  0  0
  -26.2780  -13.0730   20.1620 N   0  0  0  0  0  0  0  0  0  0  0  0
  -25.9360  -11.7840   20.4180 N   0  0  0  0  0  0  0  0  0  0  0  0
  -23.9380  -10.5570   20.9880 C   0  0  0  0  0  0  0  0  0  0  0  0
  -24.3830   -9.5790   21.9050 C   0  0  0  0  0  3  0  0  0  0  0  0
  -23.6570   -8.3820   22.0800 C   0  0  0  0  0  3  0  0  0  0  0  0
  -22.4690   -8.1590   21.3430 C   0  0  0  0  0  0  0  0  0  0  0  0
  -22.0450   -9.1250   20.4140 C   0  0  0  0  0  3  0  0  0  0  0  0
  -22.7730  -10.3120   20.2340 C   0  0  0  0  0  3  0  0  0  0  0  0
  -21.7110   -7.0150   21.4330 O   0  0  0  0  0  0  0  0  0  0  0  0
  -21.6550   -6.2750   22.5860 C   0  0  0  0  0  0  0  0  0  0  0  0
  -21.2140   -6.8300   23.8080 C   0  0  0  0  0  3  0  0  0  0  0  0
  -21.1030   -6.0170   24.9530 C   0  0  0  0  0  3  0  0  0  0  0  0
  -21.4280   -4.6500   24.8790 C   0  0  0  0  0  0  0  0  0  0  0  0
  -21.8640   -4.0940   23.6630 C   0  0  0  0  0  3  0  0  0  0  0  0
  -21.9740   -4.9030   22.5200 C   0  0  0  0  0  0  0  0  0  0  0  0
  -22.3740   -4.3590   21.3450 F   0  0  0  0  0  0  0  0  0  0  0  0
  -21.3150   -3.8640   25.9750 F   0  0  0  0  0  0  0  0  0  0  0  0
  -22.8350  -13.6480   21.2540 C   0  0  0  0  0  0  0  0  0  0  0  0
  -22.1430  -12.9300   22.1290 N   0  0  0  0  0  0  0  0  0  0  0  0
  -22.3810  -14.6930   20.7860 O   0  0  0  0  0  0  0  0  0  0  0  0
  -22.5210  -12.0810   22.5270 H   0  0  0  0  0  0  0  0  0  0  0  0
  -21.2180  -13.2290   22.4020 H   0  0  0  0  0  0  0  0  0  0  0  0
  -25.4170  -15.3260   20.3410 N   0  0  0  0  0  0  0  0  0  0  0  0
  -24.6510  -15.9660   20.5100 H   0  0  0  0  0  0  0  0  0  0  0  0
  -26.2300  -15.7740   19.9440 H   0  0  0  0  0  0  0  0  0  0  0  0
  1  3  1  0
  2  1  2  0
  2 59  1  0
  4  6  1  0
  4  3  1  0
  5 16  2  0
  6 11  1  0
  7 15  1  0
  7 17  1  0
  8 14  1  0
  8 10  1  0
  9 15  1  0
 10 11  2  0
 10  9  1  0
 12  6  2  0
 13 12  1  0
 13  8  2  0
 14  7  1  0
 15  5  1  0
 17 19  2  0
 18 17  1  0
 20 18  1  0
 21 30  2  0
 21 26  1  0
 22 18  1  0
 22 26  1  0
 23 22  1  0
 24 25  1  0
 24 23  1  0
 25 21  1  0
 26 27  2  0
 27 28  1  0
 29 28  2  0
 30 29  1  0
 31  5  1  0
 31 36  1  0
 31 32  1  0
 32 35  1  1
 32 33  1  0
 34 32  1  0
 36 39  1  0
 37 41  1  0
 37 36  1  0
 38 37  2  0
 41 40  1  0
 43 41  1  0
 43 44  1  0
 43 42  1  0
 45  2  1  0
 46 47  1  0
 46 45  1  0
 48 49  2  0
 48 51  1  0
 49 52  1  0
 50 53  1  0
 51 50  2  0
 52 54  1  0
 52 53  2  0
 53 47  1  0
 55 51  1  0
 56 55  1  0
 57 58  1  0
 58 56  1  0
 60 59  1  0
 60 61  2  0
 62 70  1  0
 63 68  1  0
 64 65  1  0
 64 63  1  0
 66 65  1  0
 66 75  1  0
 66 67  1  0
 68 62  1  0
 68 67  1  0
 69 62  2  0
 70 61  1  0
 70 71  1  0
 72 73  2  0
 73 92  1  0
 74 73  1  0
 74 77  1  0
 75 76  1  0
 75 72  1  0
 76 74  2  0
 77 78  1  0
 78 79  2  0
 80 83  1  0
 80 79  1  0
 81 80  2  0
 82 81  1  0
 82 77  2  0
 83 84  1  0
 84 85  1  0
 85 86  2  0
 87 86  1  0
 87 91  1  0
 88 87  2  0
 89 84  2  0
 89 88  1  0
 90 89  1  0
 92 93  1  0
 93 96  1  0
 93 95  1  0
 94 92  2  0
 97 72  1  0
 97 98  1  0
 99 97  1  0
M  ISO  4   3 101   4 101  62 100  70 100
M  END
>  <TORSDO>  (78) 
F 27

>  <SCORE>  (78) 
-13.134

>  <name>  (78) 
77

>  <ligand_id>  (78) 
77

>  <original_smiles>  (78) 
[H]C(=C(C([H])([H])C([H])([H])C([H])([H])c1c([H])c(C([H])([H])C([H])([H])C([H])([H])C([H])([H])[H])c([H])c([H])c1C([H])([H])[H])C([H])([H])C([H])([H])C([H])([H])N([H])C(=O)N1C([H])([H])C([H])([H])C([H])([H])C([H])(n2nc(-c3c([H])c([H])c(Oc4c([H])c([H])c(F)c([H])c4F)c([H])c3[H])c(C(=O)N([H])[H])c2N([H])[H])C1([H])[H])C([H])([H])Oc1c([H])c([H])c2c(c1[H])C([H])([H])N(C(=O)C([H])(N([H])C(=O)C([H])(N([H])C([H])([H])[H])C([H])([H])[H])C(C([H])([H])[H])(C([H])([H])[H])C([H])([H])[H])C([H])(C(=O)N([H])C1([H])c3c([H])c([H])c([H])c([H])c3C([H])([H])C([H])([H])C1([H])[H])C2([H])[H]

>  <smiles>  (78) 
[H]C(=C(C([H])([H])C([H])([H])C([H])([H])c1c([H])c(C([H])([H])C([H])([H])C([H])([H])C([H])([H])[H])c([H])c([H])c1C([H])([H])[H])C([H])([H])C([H])([H])C([H])([H])N([H])C(=O)N1C([H])([H])C([H])([H])C([H])([H])C([H])(n2nc(-c3c([H])c([H])c(Oc4c([H])c([H])c(F)c([H])c4F)c([H])c3[H])c(C(=O)N([H])[H])c2N([H])[H])C1([H])[H])C([H])([H])Oc1c([H])c([H])c2c(c1[H])C([H])([H])N(C(=O)C([H])(N([H])C(=O)C([H])(N([H])C([H])([H])[H])C([H])([H])[H])C(C([H])([H])[H])(C([H])([H])[H])C([H])([H])[H])C([H])(C(=O)N([H])C1([H])c3c([H])c([H])c([H])c([H])c3C([H])([H])C([H])([H])C1([H])[H])C2([H])[H]

$$$$
78:0:0
     RDKit          3D

 94103  0  0  1  0  0  0  0  0999 V2000
  -28.3600  -20.3040   20.4210 C   0  0  0  0  0  2  0  0  0  0  0  0
  -29.8750  -16.9850   20.5590 C   0  0  0  0  0  3  0  0  0  0  0  0
  -31.6370  -18.0320   18.5610 C   0  0  0  0  0  3  0  0  0  0  0  0
  -30.6210  -16.0750   19.7340 C   0  0  0  0  0  0  0  0  0  0  0  0
  -30.0720  -18.3920   20.3900 C   0  0  0  0  0  0  0  0  0  0  0  0
  -31.0220  -18.8750   19.4920 C   0  0  0  0  0  0  0  0  0  0  0  0
  -31.3950  -16.6360   18.6460 C   0  0  0  0  0  0  0  0  0  0  0  0
  -31.3520  -20.3290   19.7640 C   0  0  0  0  0  2  0  0  0  0  0  0
  -30.7500  -20.5270   21.1770 C   0  0  0  0  0  2  0  0  0  0  0  0
  -29.5240  -19.5880   21.1840 C   0  0  0  0  0  3  0  0  0  0  0  0
  -32.0760  -15.7720   17.5800 C   0  0  0  0  0  1  0  0  0  0  0  0
  -30.9710  -14.6400   20.1660 C   0  0  0  0  0  0  0  0  0  0  0  0
  -30.4940  -12.4290   19.2290 C   0  0  0  0  0  2  0  0  0  0  0  0
  -29.5800  -12.5690   17.9980 C   0  0  0  0  0  2  0  0  0  0  0  0
  -28.1090  -12.4560   18.4340 C   0  0  0  0  0  2  0  0  0  0  0  0
  -27.7690  -13.3530   19.6630 C   0  0  0  0  0  3  0  0  0  0  0  0
  -28.8520  -13.3090   20.7600 C   0  0  0  0  0  2  0  0  0  0  0  0
  -30.1500  -13.5410   20.1270 N   0  0  0  0  0  0  0  0  0  0  0  0
  -32.1840  -14.4750   20.1710 O   0  0  0  0  0  0  0  0  0  0  0  0
  -25.4000  -13.9290   20.4560 C   0  0  0  0  0  0  0  0  0  0  0  0
  -24.3440  -13.1470   20.8430 C   0  0  0  0  0  0  0  0  0  0  0  0
  -24.8120  -11.8000   20.8030 C   0  0  0  0  0  0  0  0  0  0  0  0
  -26.4430  -13.0560   20.1970 N   0  0  0  0  0  0  0  0  0  0  0  0
  -26.1000  -11.7720   20.4770 N   0  0  0  0  0  0  0  0  0  0  0  0
  -24.0920  -10.5320   20.9960 C   0  0  0  0  0  0  0  0  0  0  0  0
  -24.5200   -9.5760   21.9420 C   0  0  0  0  0  3  0  0  0  0  0  0
  -23.7980   -8.3770   22.1280 C   0  0  0  0  0  3  0  0  0  0  0  0
  -22.6290   -8.1290   21.3680 C   0  0  0  0  0  0  0  0  0  0  0  0
  -22.2230   -9.0740   20.4070 C   0  0  0  0  0  3  0  0  0  0  0  0
  -22.9440  -10.2630   20.2220 C   0  0  0  0  0  3  0  0  0  0  0  0
  -21.8800   -6.9810   21.4600 O   0  0  0  0  0  0  0  0  0  0  0  0
  -21.8040   -6.2590   22.6240 C   0  0  0  0  0  0  0  0  0  0  0  0
  -21.2910   -6.8150   23.8170 C   0  0  0  0  0  3  0  0  0  0  0  0
  -21.1750   -6.0150   24.9720 C   0  0  0  0  0  3  0  0  0  0  0  0
  -21.5530   -4.6590   24.9310 C   0  0  0  0  0  0  0  0  0  0  0  0
  -22.0520   -4.1020   23.7390 C   0  0  0  0  0  3  0  0  0  0  0  0
  -22.1750   -4.9000   22.5880 C   0  0  0  0  0  0  0  0  0  0  0  0
  -22.6370   -4.3520   21.4380 F   0  0  0  0  0  0  0  0  0  0  0  0
  -21.4320   -3.8880   26.0360 F   0  0  0  0  0  0  0  0  0  0  0  0
  -22.9450  -13.6190   21.1230 C   0  0  0  0  0  0  0  0  0  0  0  0
  -22.2240  -12.9210   21.9920 N   0  0  0  0  0  0  0  0  0  0  0  0
  -22.4990  -14.6420   20.6030 O   0  0  0  0  0  0  0  0  0  0  0  0
  -22.5990  -12.0970   22.4380 H   0  0  0  0  0  0  0  0  0  0  0  0
  -21.2810  -13.2140   22.2090 H   0  0  0  0  0  0  0  0  0  0  0  0
  -25.5490  -15.2980   20.2760 N   0  0  0  0  0  0  0  0  0  0  0  0
  -24.7640  -15.9270   20.3960 H   0  0  0  0  0  0  0  0  0  0  0  0
  -26.3990  -15.7670   19.9830 H   0  0  0  0  0  0  0  0  0  0  0  0
  -27.9440  -21.7430   20.8800 C   0  0  0  0  0  3  0  0  0  0  0  0
  -28.4990  -22.9350   20.0220 C   0  0  0  0  0  3  0  0  0  0  0  0
  -27.9820  -24.3350   20.3970 C   0  0  0  0  0  0  0  0  0  0  0  0
  -27.1820  -24.5240   21.3610 N   0  0  0  0  0  0  0  0  0  0  0  0
  -26.9320  -23.6690   21.8360 H   0  0  0  0  0  0  0  0  0  0  0  0
  -28.4690  -25.4900   19.4980 C   0  0  0  0  0  2  0  0  0  0  0  0
  -28.3970  -26.8130   20.0770 O   0  0  0  0  0  0  0  0  0  0  0  0
  -24.5790  -31.9210   23.2530 C   0  0  0  0  0  0  0  0  0  0  0  0
  -27.2070  -27.5220   20.0660 C   0  0  0  0  0  0  0  0  0  0  0  0
  -23.3670  -30.5360   21.6030 C   0  0  0  0  0  3  0  0  0  0  0  0
  -24.8070  -29.0330   20.1340 C   0  0  0  0  0  0  0  0  0  0  0  0
  -25.8880  -30.9050   21.3900 C   0  0  0  0  0  2  0  0  0  0  0  0
  -25.9690  -29.5470   20.7200 C   0  0  0  0  0  0  0  0  0  0  0  0
  -27.1710  -28.7990   20.6790 C   0  0  0  0  0  3  0  0  0  0  0  0
  -26.0200  -27.0320   19.4710 C   0  0  0  0  0  3  0  0  0  0  0  0
  -24.8260  -27.7780   19.5060 C   0  0  0  0  0  3  0  0  0  0  0  0
  -23.5610  -29.8890   20.2070 C   0  0  0  0  0  2  0  0  0  0  0  0
  -24.6320  -31.1300   22.1420 N   0  0  0  0  0  0  0  0  0  0  0  0
  -23.5010  -32.1790   23.8050 O   0  0  0  0  0  0  0  0  0  0  0  0
  -22.7300  -29.4920   22.5460 C   0  0  0  0  0  0  0  0  0  0  0  0
  -21.4070  -29.2930   22.4220 N   0  0  0  0  0  0  0  0  0  0  0  0
  -23.4250  -28.8620   23.3500 O   0  0  0  0  0  0  0  0  0  0  0  0
  -20.9000  -29.8590   21.7550 H   0  0  0  0  0  0  0  0  0  0  0  0
  -18.0500  -28.0760   22.9260 C   0  0  0  0  0  0  0  0  0  0  0  0
  -20.6070  -28.3410   23.1850 C   0  0  0  0  0  3  0  0  0  0  0  0
  -20.7100  -26.9170   22.5850 C   0  0  0  0  0  2  0  0  0  0  0  0
  -19.6030  -26.6070   21.5730 C   0  0  0  0  0  2  0  0  0  0  0  0
  -18.2260  -26.7380   22.2300 C   0  0  0  0  0  2  0  0  0  0  0  0
  -19.1670  -28.8370   23.3600 C   0  0  0  0  0  0  0  0  0  0  0  0
  -18.9430  -30.0960   23.9630 C   0  0  0  0  0  3  0  0  0  0  0  0
  -17.6360  -30.5820   24.1510 C   0  0  0  0  0  3  0  0  0  0  0  0
  -16.5330  -29.8130   23.7360 C   0  0  0  0  0  3  0  0  0  0  0  0
  -16.7440  -28.5660   23.1220 C   0  0  0  0  0  3  0  0  0  0  0  0
  -25.8680  -32.5510   23.8680 C   0  0  0  0  0  3  0  0  0  0  0  0
  -25.5720  -33.9580   24.1800 N   0  0  0  0  0  0  0  0  0  0  0  0
  -25.9080  -34.9920   23.3990 C   0  0  0  0  0  0  0  0  0  0  0  0
  -26.5720  -34.8700   22.3670 O   0  0  0  0  0  0  0  0  0  0  0  0
  -24.9950  -34.1440   24.9880 H   0  0  0  0  0  0  0  0  0  0  0  0
  -24.1930  -36.7900   23.0130 C   0  0  0  0  0  1  0  0  0  0  0  0
  -25.4260  -36.3890   23.8380 C   0  0  0  0  0  3  0  0  0  0  0  0
  -27.5520  -37.2660   24.6930 C   0  0  0  0  0  1  0  0  0  0  0  0
  -26.4670  -37.4330   23.7290 N   0  0  0  0  0  0  0  0  0  0  0  0
  -26.0620  -38.3560   23.8640 H   0  0  0  0  0  0  0  0  0  0  0  0
  -26.3840  -31.7920   25.1500 C   0  0  1  0  0  0  0  0  0  0  0  0
  -25.2890  -31.5520   26.2150 C   0  0  0  0  0  1  0  0  0  0  0  0
  -26.9660  -30.4120   24.7710 C   0  0  0  0  0  1  0  0  0  0  0  0
  -27.5390  -32.5870   25.8070 C   0  0  0  0  0  1  0  0  0  0  0  0
  1 48  1  0
  3  7  2  0
  3  6  1  0
  4 12  1  0
  4  2  2  0
  5  2  1  0
  5 10  1  0
  6  8  1  0
  6  5  2  0
  7  4  1  0
  8  9  1  0
  9 10  1  0
 10  1  1  0
 11  7  1  0
 12 19  2  0
 13 18  1  0
 14 15  1  0
 14 13  1  0
 16 15  1  0
 16 23  1  0
 16 17  1  0
 18 12  1  0
 18 17  1  0
 20 21  2  0
 21 40  1  0
 22 21  1  0
 22 25  1  0
 23 20  1  0
 23 24  1  0
 24 22  2  0
 25 26  1  0
 26 27  2  0
 28 31  1  0
 28 27  1  0
 29 28  2  0
 30 29  1  0
 30 25  2  0
 31 32  1  0
 32 33  1  0
 33 34  2  0
 35 34  1  0
 35 39  1  0
 36 35  2  0
 37 32  2  0
 37 36  1  0
 38 37  1  0
 40 41  1  0
 41 44  1  0
 41 43  1  0
 42 40  2  0
 45 46  1  0
 45 20  1  0
 47 45  1  0
 49 50  1  0
 49 48  2  0
 50 51  2  0
 51 52  1  0
 53 54  1  0
 53 50  1  0
 55 66  2  0
 56 54  1  0
 56 61  1  0
 57 65  1  0
 57 67  1  0
 58 64  1  0
 58 60  1  0
 59 65  1  0
 60 59  1  0
 61 60  2  0
 62 63  1  0
 62 56  2  0
 63 58  2  0
 64 57  1  0
 65 55  1  0
 67 69  2  0
 68 67  1  0
 70 68  1  0
 71 80  2  0
 71 76  1  0
 72 68  1  0
 72 76  1  0
 73 72  1  0
 74 75  1  0
 74 73  1  0
 75 71  1  0
 76 77  2  0
 77 78  1  0
 79 78  2  0
 80 79  1  0
 81 55  1  0
 81 82  1  0
 81 91  1  0
 82 85  1  0
 83 87  1  0
 83 82  1  0
 84 83  2  0
 87 86  1  0
 89 87  1  0
 89 90  1  0
 89 88  1  0
 91 94  1  1
 91 92  1  0
 93 91  1  0
M  ISO  4   4 100  12 100  53 101  54 101
M  END
>  <TORSDO>  (79) 
F 21

>  <SCORE>  (79) 
-13.607

>  <name>  (79) 
78

>  <ligand_id>  (79) 
78

>  <original_smiles>  (79) 
[H]N=C(C([H])([H])Oc1c([H])c([H])c2c(c1[H])C([H])([H])N(C(=O)C([H])(N([H])C(=O)C([H])(N([H])C([H])([H])[H])C([H])([H])[H])C(C([H])([H])[H])(C([H])([H])[H])C([H])([H])[H])C([H])(C(=O)N([H])C1([H])c3c([H])c([H])c([H])c([H])c3C([H])([H])C([H])([H])C1([H])[H])C2([H])[H])C([H])([H])C([H])([H])C([H])([H])C1([H])c2c([H])c(C(=O)N3C([H])([H])C([H])([H])C([H])([H])C([H])(n4nc(-c5c([H])c([H])c(Oc6c([H])c([H])c(F)c([H])c6F)c([H])c5[H])c(C(=O)N([H])[H])c4N([H])[H])C3([H])[H])c(C([H])([H])[H])c([H])c2C([H])([H])C1([H])[H]

>  <smiles>  (79) 
[H]N=C(C([H])([H])Oc1c([H])c([H])c2c(c1[H])C([H])([H])N(C(=O)C([H])(N([H])C(=O)C([H])(N([H])C([H])([H])[H])C([H])([H])[H])C(C([H])([H])[H])(C([H])([H])[H])C([H])([H])[H])C([H])(C(=O)N([H])C1([H])c3c([H])c([H])c([H])c([H])c3C([H])([H])C([H])([H])C1([H])[H])C2([H])[H])C([H])([H])C([H])([H])C([H])([H])C1([H])c2c([H])c(C(=O)N3C([H])([H])C([H])([H])C([H])([H])C([H])(n4nc(-c5c([H])c([H])c(Oc6c([H])c([H])c(F)c([H])c6F)c([H])c5[H])c(C(=O)N([H])[H])c4N([H])[H])C3([H])[H])c(C([H])([H])[H])c([H])c2C([H])([H])C1([H])[H]

$$$$
79:0:0
     RDKit          3D

 88 96  0  0  1  0  0  0  0  0999 V2000
  -28.0340  -22.0460   21.0290 C   0  0  0  0  0  3  0  0  0  0  0  0
  -27.3440  -24.4580   20.8960 C   0  0  0  0  0  3  0  0  0  0  0  0
  -27.2760  -23.1610   21.4810 C   0  0  0  0  0  0  0  0  0  0  0  0
  -28.9210  -22.0970   19.9350 C   0  0  0  0  0  0  0  0  0  0  0  0
  -28.9550  -23.5300   19.3510 C   0  0  0  0  0  0  0  0  0  0  0  0
  -28.1740  -24.7850   19.8040 C   0  0  0  0  0  0  0  0  0  0  0  0
  -26.3380  -22.9480   22.6520 C   0  0  0  0  0  1  0  0  0  0  0  0
  -29.8680  -23.7230   18.1590 C   0  0  0  0  0  1  0  0  0  0  0  0
  -28.1930  -26.2670   19.4040 O   0  0  0  0  0  0  0  0  0  0  0  0
  -24.7630  -31.9460   23.0840 C   0  0  0  0  0  0  0  0  0  0  0  0
  -27.1700  -27.3360   19.5810 C   0  0  0  0  0  0  0  0  0  0  0  0
  -23.4920  -30.6810   21.3980 C   0  0  0  0  0  3  0  0  0  0  0  0
  -24.8700  -29.1970   19.7920 C   0  0  0  0  0  0  0  0  0  0  0  0
  -26.0470  -30.9130   21.1480 C   0  0  0  0  0  2  0  0  0  0  0  0
  -26.0850  -29.5570   20.3870 C   0  0  0  0  0  0  0  0  0  0  0  0
  -27.2300  -28.6480   20.2610 C   0  0  0  0  0  3  0  0  0  0  0  0
  -25.9240  -27.1290   18.9510 C   0  0  0  0  0  3  0  0  0  0  0  0
  -24.8110  -28.0020   19.0550 C   0  0  0  0  0  3  0  0  0  0  0  0
  -23.6550  -30.1080   19.9640 C   0  0  0  0  0  2  0  0  0  0  0  0
  -24.7920  -31.2030   21.9300 N   0  0  0  0  0  0  0  0  0  0  0  0
  -23.7000  -32.1910   23.6770 O   0  0  0  0  0  0  0  0  0  0  0  0
  -22.8440  -29.6090   22.3130 C   0  0  0  0  0  0  0  0  0  0  0  0
  -21.5160  -29.4180   22.2030 N   0  0  0  0  0  0  0  0  0  0  0  0
  -23.5420  -28.9510   23.0890 O   0  0  0  0  0  0  0  0  0  0  0  0
  -21.0060  -30.0020   21.5560 H   0  0  0  0  0  0  0  0  0  0  0  0
  -18.1680  -28.1310   22.7460 C   0  0  0  0  0  0  0  0  0  0  0  0
  -20.7340  -28.4120   22.9300 C   0  0  0  0  0  3  0  0  0  0  0  0
  -20.8270  -27.0300   22.2410 C   0  0  0  0  0  2  0  0  0  0  0  0
  -19.6890  -26.7720   21.2490 C   0  0  0  0  0  2  0  0  0  0  0  0
  -18.3330  -26.8430   21.9560 C   0  0  0  0  0  2  0  0  0  0  0  0
  -19.2930  -28.8750   23.1890 C   0  0  0  0  0  0  0  0  0  0  0  0
  -19.0810  -30.0800   23.8940 C   0  0  0  0  0  3  0  0  0  0  0  0
  -17.7780  -30.5420   24.1540 C   0  0  0  0  0  3  0  0  0  0  0  0
  -16.6680  -29.7940   23.7240 C   0  0  0  0  0  3  0  0  0  0  0  0
  -16.8640  -28.5900   23.0260 C   0  0  0  0  0  3  0  0  0  0  0  0
  -26.0640  -32.5400   23.7060 C   0  0  0  0  0  3  0  0  0  0  0  0
  -26.6290  -31.6730   24.8990 C   0  0  1  0  0  0  0  0  0  0  0  0
  -25.5800  -31.3560   25.9910 C   0  0  0  0  0  1  0  0  0  0  0  0
  -27.1910  -30.3280   24.3870 C   0  0  0  0  0  1  0  0  0  0  0  0
  -27.8100  -32.4160   25.5690 C   0  0  0  0  0  1  0  0  0  0  0  0
  -25.7610  -33.9050   24.1700 N   0  0  0  0  0  0  0  0  0  0  0  0
  -26.0700  -35.0280   23.5070 C   0  0  0  0  0  0  0  0  0  0  0  0
  -26.7020  -35.0230   22.4480 O   0  0  0  0  0  0  0  0  0  0  0  0
  -25.1940  -33.9820   25.0030 H   0  0  0  0  0  0  0  0  0  0  0  0
  -24.3350  -36.8510   23.3960 C   0  0  0  0  0  1  0  0  0  0  0  0
  -25.6070  -36.3700   24.1130 C   0  0  0  0  0  3  0  0  0  0  0  0
  -27.7700  -37.1850   24.9450 C   0  0  0  0  0  1  0  0  0  0  0  0
  -26.6390  -37.4300   24.0540 N   0  0  0  0  0  0  0  0  0  0  0  0
  -26.2400  -38.3340   24.2890 H   0  0  0  0  0  0  0  0  0  0  0  0
  -29.5690  -20.5540   19.4290 C   0  0  0  0  0  2  0  0  0  0  0  0
  -30.1140  -19.0400   20.2470 C   0  0  0  0  0  2  0  0  0  0  0  0
  -29.9220  -17.2820   19.8830 C   0  0  0  0  0  2  0  0  0  0  0  0
  -30.8400  -15.7920   20.0770 C   0  0  0  0  0  0  0  0  0  0  0  0
  -30.9150  -13.2900   19.3810 C   0  0  0  0  0  2  0  0  0  0  0  0
  -30.0280  -13.0180   18.1370 C   0  0  0  0  0  2  0  0  0  0  0  0
  -28.5660  -12.7600   18.5450 C   0  0  0  0  0  2  0  0  0  0  0  0
  -28.0740  -13.7760   19.6050 C   0  0  0  0  0  3  0  0  0  0  0  0
  -29.0880  -13.9870   20.7470 C   0  0  0  0  0  2  0  0  0  0  0  0
  -30.3410  -14.4600   20.1380 N   0  0  0  0  0  0  0  0  0  0  0  0
  -32.0710  -15.8180   19.9190 O   0  0  0  0  0  0  0  0  0  0  0  0
  -25.7020  -14.3560   20.3410 C   0  0  0  0  0  0  0  0  0  0  0  0
  -24.6290  -13.5890   20.6960 C   0  0  0  0  0  0  0  0  0  0  0  0
  -25.0830  -12.2340   20.6670 C   0  0  0  0  0  0  0  0  0  0  0  0
  -26.7380  -13.4710   20.1010 N   0  0  0  0  0  0  0  0  0  0  0  0
  -26.3780  -12.1880   20.3690 N   0  0  0  0  0  0  0  0  0  0  0  0
  -24.3410  -10.9790   20.8460 C   0  0  0  0  0  0  0  0  0  0  0  0
  -24.7230  -10.0240   21.8150 C   0  0  0  0  0  3  0  0  0  0  0  0
  -23.9790   -8.8360   21.9810 C   0  0  0  0  0  3  0  0  0  0  0  0
  -22.8400   -8.5920   21.1780 C   0  0  0  0  0  0  0  0  0  0  0  0
  -22.4770   -9.5350   20.2000 C   0  0  0  0  0  3  0  0  0  0  0  0
  -23.2210  -10.7150   20.0320 C   0  0  0  0  0  3  0  0  0  0  0  0
  -22.0730   -7.4540   21.2510 O   0  0  0  0  0  0  0  0  0  0  0  0
  -21.9250   -6.7600   22.4260 C   0  0  0  0  0  0  0  0  0  0  0  0
  -21.3550   -7.3510   23.5750 C   0  0  0  0  0  3  0  0  0  0  0  0
  -21.1580   -6.5800   24.7380 C   0  0  0  0  0  3  0  0  0  0  0  0
  -21.5220   -5.2210   24.7540 C   0  0  0  0  0  0  0  0  0  0  0  0
  -22.0840   -4.6300   23.6090 C   0  0  0  0  0  3  0  0  0  0  0  0
  -22.2830   -5.3970   22.4470 C   0  0  0  0  0  0  0  0  0  0  0  0
  -22.8060   -4.8160   21.3400 F   0  0  0  0  0  0  0  0  0  0  0  0
  -21.3260   -4.4790   25.8680 F   0  0  0  0  0  0  0  0  0  0  0  0
  -23.2330  -14.0780   20.9490 C   0  0  0  0  0  0  0  0  0  0  0  0
  -22.4880  -13.3920   21.8070 N   0  0  0  0  0  0  0  0  0  0  0  0
  -22.8130  -15.1090   20.4240 O   0  0  0  0  0  0  0  0  0  0  0  0
  -22.8420  -12.5610   22.2580 H   0  0  0  0  0  0  0  0  0  0  0  0
  -21.5520  -13.7040   22.0200 H   0  0  0  0  0  0  0  0  0  0  0  0
  -25.8780  -15.7260   20.1710 N   0  0  0  0  0  0  0  0  0  0  0  0
  -25.1160  -16.3860   20.2840 H   0  0  0  0  0  0  0  0  0  0  0  0
  -26.7340  -16.1620   19.8520 H   0  0  0  0  0  0  0  0  0  0  0  0
  1  3  1  0
  2  3  2  0
  3  7  1  0
  4  1  2  0
  5  6  2  0
  5  4  1  0
  6  2  1  0
  8  5  1  0
  9 11  1  0
  9  6  1  0
 10 21  2  0
 11 16  1  0
 12 20  1  0
 12 22  1  0
 13 19  1  0
 13 15  1  0
 14 20  1  0
 15 14  1  0
 16 15  2  0
 17 18  1  0
 17 11  2  0
 18 13  2  0
 19 12  1  0
 20 10  1  0
 22 24  2  0
 23 22  1  0
 25 23  1  0
 26 35  2  0
 26 31  1  0
 27 23  1  0
 27 31  1  0
 28 27  1  0
 29 30  1  0
 29 28  1  0
 30 26  1  0
 31 32  2  0
 32 33  1  0
 34 33  2  0
 35 34  1  0
 36 10  1  0
 36 41  1  0
 36 37  1  0
 37 40  1  1
 37 38  1  0
 39 37  1  0
 41 44  1  0
 42 46  1  0
 42 41  1  0
 43 42  2  0
 46 45  1  0
 48 46  1  0
 48 49  1  0
 48 47  1  0
 50  4  1  0
 50 51  1  0
 52 53  1  0
 52 51  1  0
 53 59  1  0
 54 59  1  0
 55 56  1  0
 55 54  1  0
 57 56  1  0
 57 64  1  0
 57 58  1  0
 59 58  1  0
 60 53  2  0
 61 62  2  0
 62 81  1  0
 63 62  1  0
 63 66  1  0
 64 61  1  0
 64 65  1  0
 65 63  2  0
 66 67  1  0
 67 68  2  0
 69 72  1  0
 69 68  1  0
 70 69  2  0
 71 70  1  0
 71 66  2  0
 72 73  1  0
 73 78  2  0
 73 74  1  0
 74 75  2  0
 75 76  1  0
 76 80  1  0
 77 76  2  0
 78 77  1  0
 79 78  1  0
 81 82  1  0
 82 85  1  0
 82 84  1  0
 83 81  2  0
 86 87  1  0
 86 61  1  0
 88 86  1  0
M  ISO  4   6 101   9 101  52 100  53 100
M  END
>  <TORSDO>  (80) 
F 19

>  <SCORE>  (80) 
-13.118

>  <name>  (80) 
79

>  <ligand_id>  (80) 
79

>  <original_smiles>  (80) 
[H]c1c([H])c([H])c2c(c1[H])C([H])([H])C([H])([H])C([H])([H])C2([H])N([H])C(=O)C1([H])N(C(=O)C([H])(N([H])C(=O)C([H])(N([H])C([H])([H])[H])C([H])([H])[H])C(C([H])([H])[H])(C([H])([H])[H])C([H])([H])[H])C([H])([H])c2c([H])c(Oc3c([H])c(C([H])([H])[H])c([H])c(C([H])([H])C([H])([H])C([H])([H])C(=O)N4C([H])([H])C([H])([H])C([H])([H])C([H])(n5nc(-c6c([H])c([H])c(Oc7c([H])c([H])c(F)c([H])c7F)c([H])c6[H])c(C(=O)N([H])[H])c5N([H])[H])C4([H])[H])c3C([H])([H])[H])c([H])c([H])c2C1([H])[H]

>  <smiles>  (80) 
[H]c1c([H])c([H])c2c(c1[H])C([H])([H])C([H])([H])C([H])([H])C2([H])N([H])C(=O)C1([H])N(C(=O)C([H])(N([H])C(=O)C([H])(N([H])C([H])([H])[H])C([H])([H])[H])C(C([H])([H])[H])(C([H])([H])[H])C([H])([H])[H])C([H])([H])c2c([H])c(Oc3c([H])c(C([H])([H])[H])c([H])c(C([H])([H])C([H])([H])C([H])([H])C(=O)N4C([H])([H])C([H])([H])C([H])([H])C([H])(n5nc(-c6c([H])c([H])c(Oc7c([H])c([H])c(F)c([H])c7F)c([H])c6[H])c(C(=O)N([H])[H])c5N([H])[H])C4([H])[H])c3C([H])([H])[H])c([H])c([H])c2C1([H])[H]

$$$$
80:0:0
     RDKit          3D

 95103  0  0  1  0  0  0  0  0999 V2000
  -28.0260  -24.1440   21.9270 C   0  0  0  0  0  3  0  0  0  0  0  0
  -28.2920  -25.5180   21.7990 C   0  0  0  0  0  3  0  0  0  0  0  0
  -29.3130  -25.1080   19.6220 C   0  0  0  0  0  3  0  0  0  0  0  0
  -28.4090  -23.2420   20.9140 C   0  0  0  0  0  0  0  0  0  0  0  0
  -29.0500  -23.7270   19.7420 C   0  0  0  0  0  0  0  0  0  0  0  0
  -28.9260  -26.0050   20.6390 C   0  0  0  0  0  0  0  0  0  0  0  0
  -29.4240  -22.8990   18.6760 N   0  0  0  0  0  0  0  0  0  0  0  0
  -29.6420  -23.3420   17.7880 H   0  0  0  0  0  0  0  0  0  0  0  0
  -28.9460  -22.0130   18.5500 H   0  0  0  0  0  0  0  0  0  0  0  0
  -28.0950  -21.8160   21.1510 C   0  0  0  0  0  0  0  0  0  0  0  0
  -26.9720  -21.3230   20.9970 O   0  0  0  0  0  0  0  0  0  0  0  0
  -29.2540  -20.9750   21.6770 C   0  0  0  0  0  2  0  0  0  0  0  0
  -29.4040  -19.6510   20.9180 C   0  0  0  0  0  2  0  0  0  0  0  0
  -30.5740  -18.8150   21.4470 C   0  0  0  0  0  2  0  0  0  0  0  0
  -30.5240  -17.3920   20.8920 C   0  0  0  0  0  2  0  0  0  0  0  0
  -31.6920  -16.5130   21.3580 C   0  0  0  0  0  2  0  0  0  0  0  0
  -31.5760  -14.4170   20.0050 C   0  0  0  0  0  0  0  0  0  0  0  0
  -31.0310  -12.2740   18.9130 C   0  0  0  0  0  2  0  0  0  0  0  0
  -30.0380  -12.4590   17.7530 C   0  0  0  0  0  2  0  0  0  0  0  0
  -28.5870  -12.4340   18.2650 C   0  0  0  0  0  2  0  0  0  0  0  0
  -28.3690  -13.4030   19.4520 C   0  0  0  0  0  3  0  0  0  0  0  0
  -29.4520  -13.1850   20.5310 C   0  0  0  0  0  2  0  0  0  0  0  0
  -30.7860  -13.3210   19.9100 N   0  0  0  0  0  0  0  0  0  0  0  0
  -32.4770  -14.7010   19.2070 O   0  0  0  0  0  0  0  0  0  0  0  0
  -31.3410  -15.1250   21.1130 N   0  0  0  0  0  0  0  0  0  0  0  0
  -30.6880  -14.7040   21.7560 H   0  0  0  0  0  0  0  0  0  0  0  0
  -26.1180  -14.2650   20.3690 C   0  0  0  0  0  0  0  0  0  0  0  0
  -24.9860  -13.6110   20.7740 C   0  0  0  0  0  0  0  0  0  0  0  0
  -25.2600  -12.2180   20.6210 C   0  0  0  0  0  0  0  0  0  0  0  0
  -27.0220  -13.2780   20.0060 N   0  0  0  0  0  0  0  0  0  0  0  0
  -26.5070  -12.0360   20.2040 N   0  0  0  0  0  0  0  0  0  0  0  0
  -24.3900  -11.0480   20.7880 C   0  0  0  0  0  0  0  0  0  0  0  0
  -24.7450   -9.9780   21.6380 C   0  0  0  0  0  3  0  0  0  0  0  0
  -23.8840   -8.8720   21.7960 C   0  0  0  0  0  3  0  0  0  0  0  0
  -22.6530   -8.8260   21.1010 C   0  0  0  0  0  0  0  0  0  0  0  0
  -22.3120   -9.8840   20.2390 C   0  0  0  0  0  3  0  0  0  0  0  0
  -23.1730  -10.9830   20.0800 C   0  0  0  0  0  3  0  0  0  0  0  0
  -21.7670   -7.7770   21.1710 O   0  0  0  0  0  0  0  0  0  0  0  0
  -21.6660   -6.9940   22.2920 C   0  0  0  0  0  0  0  0  0  0  0  0
  -21.3600   -7.5420   23.5570 C   0  0  0  0  0  3  0  0  0  0  0  0
  -21.1930   -6.6930   24.6690 C   0  0  0  0  0  3  0  0  0  0  0  0
  -21.3240   -5.2990   24.5180 C   0  0  0  0  0  0  0  0  0  0  0  0
  -21.6240   -4.7520   23.2590 C   0  0  0  0  0  3  0  0  0  0  0  0
  -21.7910   -5.5980   22.1480 C   0  0  0  0  0  0  0  0  0  0  0  0
  -22.0600   -5.0640   20.9320 F   0  0  0  0  0  0  0  0  0  0  0  0
  -21.1580   -4.4830   25.5850 F   0  0  0  0  0  0  0  0  0  0  0  0
  -23.6890  -14.2420   21.1930 C   0  0  0  0  0  0  0  0  0  0  0  0
  -22.9480  -13.5930   22.0840 N   0  0  0  0  0  0  0  0  0  0  0  0
  -23.3470  -15.3450   20.7670 O   0  0  0  0  0  0  0  0  0  0  0  0
  -23.2420  -12.7010   22.4550 H   0  0  0  0  0  0  0  0  0  0  0  0
  -22.0800  -13.9970   22.4050 H   0  0  0  0  0  0  0  0  0  0  0  0
  -26.4420  -15.6130   20.2580 N   0  0  0  0  0  0  0  0  0  0  0  0
  -25.7500  -16.3370   20.4190 H   0  0  0  0  0  0  0  0  0  0  0  0
  -27.3020  -15.9670   19.8560 H   0  0  0  0  0  0  0  0  0  0  0  0
  -29.0580  -27.3560   20.4480 O   0  0  0  0  0  0  0  0  0  0  0  0
  -24.7910  -32.0450   23.6550 C   0  0  0  0  0  0  0  0  0  0  0  0
  -27.8690  -28.0380   20.4180 C   0  0  0  0  0  0  0  0  0  0  0  0
  -23.7650  -30.7010   21.8490 C   0  0  0  0  0  3  0  0  0  0  0  0
  -25.3860  -29.3670   20.4080 C   0  0  0  0  0  0  0  0  0  0  0  0
  -26.2680  -31.2220   21.8340 C   0  0  0  0  0  2  0  0  0  0  0  0
  -26.4730  -29.9160   21.1020 C   0  0  0  0  0  0  0  0  0  0  0  0
  -27.7200  -29.2550   21.1110 C   0  0  0  0  0  3  0  0  0  0  0  0
  -26.7680  -27.4990   19.7140 C   0  0  0  0  0  3  0  0  0  0  0  0
  -25.5250  -28.1530   19.7150 C   0  0  0  0  0  3  0  0  0  0  0  0
  -24.0920  -30.1420   20.4400 C   0  0  0  0  0  2  0  0  0  0  0  0
  -24.9550  -31.3340   22.5050 N   0  0  0  0  0  0  0  0  0  0  0  0
  -23.6680  -32.2130   24.1460 O   0  0  0  0  0  0  0  0  0  0  0  0
  -23.1290  -29.5730   22.6930 C   0  0  0  0  0  0  0  0  0  0  0  0
  -21.8340  -29.3090   22.4570 N   0  0  0  0  0  0  0  0  0  0  0  0
  -23.8010  -28.9410   23.5140 O   0  0  0  0  0  0  0  0  0  0  0  0
  -21.3520  -29.8830   21.7780 H   0  0  0  0  0  0  0  0  0  0  0  0
  -18.5430  -27.8300   22.5830 C   0  0  0  0  0  0  0  0  0  0  0  0
  -21.0350  -28.2710   23.1050 C   0  0  0  0  0  3  0  0  0  0  0  0
  -21.3050  -26.8840   22.4770 C   0  0  0  0  0  2  0  0  0  0  0  0
  -20.3310  -26.5340   21.3470 C   0  0  0  0  0  2  0  0  0  0  0  0
  -18.8890  -26.5390   21.8610 C   0  0  0  0  0  2  0  0  0  0  0  0
  -19.5530  -28.6530   23.1520 C   0  0  0  0  0  0  0  0  0  0  0  0
  -19.1770  -29.8620   23.7770 C   0  0  0  0  0  3  0  0  0  0  0  0
  -17.8270  -30.2500   23.8450 C   0  0  0  0  0  3  0  0  0  0  0  0
  -16.8310  -29.4260   23.2940 C   0  0  0  0  0  3  0  0  0  0  0  0
  -17.1900  -28.2170   22.6680 C   0  0  0  0  0  3  0  0  0  0  0  0
  -26.0010  -32.6980   24.3930 C   0  0  0  0  0  3  0  0  0  0  0  0
  -25.6470  -34.0960   24.6670 N   0  0  0  0  0  0  0  0  0  0  0  0
  -26.0510  -35.1400   23.9310 C   0  0  0  0  0  0  0  0  0  0  0  0
  -26.8300  -35.0290   22.9800 O   0  0  0  0  0  0  0  0  0  0  0  0
  -24.9680  -34.2560   25.3970 H   0  0  0  0  0  0  0  0  0  0  0  0
  -24.3470  -36.9010   23.3680 C   0  0  0  0  0  1  0  0  0  0  0  0
  -25.5000  -36.5270   24.3120 C   0  0  0  0  0  3  0  0  0  0  0  0
  -27.5390  -37.4410   25.3300 C   0  0  0  0  0  1  0  0  0  0  0  0
  -26.5260  -37.5930   24.2890 N   0  0  0  0  0  0  0  0  0  0  0  0
  -26.0970  -38.5080   24.3970 H   0  0  0  0  0  0  0  0  0  0  0  0
  -26.3960  -31.9500   25.7250 C   0  0  1  0  0  0  0  0  0  0  0  0
  -25.1980  -31.6760   26.6640 C   0  0  0  0  0  1  0  0  0  0  0  0
  -27.0690  -30.5930   25.4090 C   0  0  0  0  0  1  0  0  0  0  0  0
  -27.4350  -32.7870   26.5090 C   0  0  0  0  0  1  0  0  0  0  0  0
  2  1  1  0
  3  5  2  0
  3  6  1  0
  4 10  1  0
  4  1  2  0
  5  4  1  0
  6  2  2  0
  7  5  1  0
  8  7  1  0
  9  7  1  0
 10 12  1  0
 11 10  2  0
 13 14  1  0
 13 12  1  0
 15 16  1  0
 15 14  1  0
 17 25  1  0
 18 23  1  0
 19 20  1  0
 19 18  1  0
 21 20  1  0
 21 30  1  0
 21 22  1  0
 23 17  1  0
 23 22  1  0
 24 17  2  0
 25 16  1  0
 25 26  1  0
 27 28  2  0
 28 47  1  0
 29 28  1  0
 29 32  1  0
 30 31  1  0
 30 27  1  0
 31 29  2  0
 32 33  1  0
 33 34  2  0
 35 38  1  0
 35 34  1  0
 36 35  2  0
 37 36  1  0
 37 32  2  0
 38 39  1  0
 39 40  1  0
 40 41  2  0
 42 41  1  0
 42 46  1  0
 43 42  2  0
 44 39  2  0
 44 43  1  0
 45 44  1  0
 47 48  1  0
 48 51  1  0
 48 50  1  0
 49 47  2  0
 52 27  1  0
 52 53  1  0
 54 52  1  0
 55  6  1  0
 56 67  2  0
 57 55  1  0
 57 62  1  0
 58 66  1  0
 58 68  1  0
 59 65  1  0
 59 61  1  0
 60 66  1  0
 61 62  2  0
 61 60  1  0
 63 64  1  0
 63 57  2  0
 64 59  2  0
 65 58  1  0
 66 56  1  0
 68 70  2  0
 69 68  1  0
 71 69  1  0
 72 81  2  0
 72 77  1  0
 73 69  1  0
 73 77  1  0
 74 73  1  0
 75 76  1  0
 75 74  1  0
 76 72  1  0
 77 78  2  0
 78 79  1  0
 80 79  2  0
 81 80  1  0
 82 56  1  0
 82 83  1  0
 82 92  1  0
 83 86  1  0
 84 88  1  0
 84 83  1  0
 85 84  2  0
 88 87  1  0
 90 88  1  0
 90 91  1  0
 90 89  1  0
 92 95  1  1
 92 93  1  0
 94 92  1  0
M  ISO  4   6 101  17 100  25 100  55 101
M  END
>  <TORSDO>  (81) 
F 23

>  <SCORE>  (81) 
-10.469

>  <name>  (81) 
80

>  <ligand_id>  (81) 
80

>  <original_smiles>  (81) 
[H]c1c([H])c([H])c2c(c1[H])C([H])([H])C([H])([H])C([H])([H])C2([H])N([H])C(=O)C1([H])N(C(=O)C([H])(N([H])C(=O)C([H])(N([H])C([H])([H])[H])C([H])([H])[H])C(C([H])([H])[H])(C([H])([H])[H])C([H])([H])[H])C([H])([H])c2c([H])c(Oc3c([H])c([H])c(C(=O)C([H])([H])C([H])([H])C([H])([H])C([H])([H])C([H])([H])N([H])C(=O)N4C([H])([H])C([H])([H])C([H])([H])C([H])(n5nc(-c6c([H])c([H])c(Oc7c([H])c([H])c(F)c([H])c7F)c([H])c6[H])c(C(=O)N([H])[H])c5N([H])[H])C4([H])[H])c(N([H])[H])c3[H])c([H])c([H])c2C1([H])[H]

>  <smiles>  (81) 
[H]c1c([H])c([H])c2c(c1[H])C([H])([H])C([H])([H])C([H])([H])C2([H])N([H])C(=O)C1([H])N(C(=O)C([H])(N([H])C(=O)C([H])(N([H])C([H])([H])[H])C([H])([H])[H])C(C([H])([H])[H])(C([H])([H])[H])C([H])([H])[H])C([H])([H])c2c([H])c(Oc3c([H])c([H])c(C(=O)C([H])([H])C([H])([H])C([H])([H])C([H])([H])C([H])([H])N([H])C(=O)N4C([H])([H])C([H])([H])C([H])([H])C([H])(n5nc(-c6c([H])c([H])c(Oc7c([H])c([H])c(F)c([H])c7F)c([H])c6[H])c(C(=O)N([H])[H])c5N([H])[H])C4([H])[H])c(N([H])[H])c3[H])c([H])c([H])c2C1([H])[H]

$$$$
81:0:0
     RDKit          3D

 93102  0  0  1  0  0  0  0  0999 V2000
  -27.4400  -21.1930   20.3860 C   0  0  0  0  0  2  0  0  0  0  0  0
  -27.0910  -22.6530   19.9240 C   0  0  0  0  0  2  0  0  0  0  0  0
  -29.3960  -22.3740   19.7600 C   0  0  0  0  0  2  0  0  0  0  0  0
  -28.9780  -20.9650   20.4700 C   0  0  1  0  0  0  0  0  0  0  0  0
  -28.3200  -23.5780   20.0940 C   0  0  2  0  0  0  0  0  0  0  0  0
  -29.5250  -21.0220   21.9200 C   0  0  0  0  0  1  0  0  0  0  0  0
  -28.3390  -24.0650   21.5600 C   0  0  0  0  0  1  0  0  0  0  0  0
  -29.0260  -16.9240   20.2860 C   0  0  0  0  0  3  0  0  0  0  0  0
  -30.6900  -19.0440   19.5700 C   0  0  0  0  0  3  0  0  0  0  0  0
  -30.3250  -16.5220   19.8500 C   0  0  0  0  0  0  0  0  0  0  0  0
  -29.4130  -19.4430   20.0550 C   0  0  0  0  0  0  0  0  0  0  0  0
  -28.5950  -18.2990   20.3760 C   0  0  0  0  0  0  0  0  0  0  0  0
  -31.1190  -17.6660   19.4620 C   0  0  0  0  0  0  0  0  0  0  0  0
  -27.3450  -18.5050   20.8550 F   0  0  0  0  0  0  0  0  0  0  0  0
  -32.3670  -17.4780   18.9740 F   0  0  0  0  0  0  0  0  0  0  0  0
  -30.9230  -15.0390   19.8400 C   0  0  0  0  0  0  0  0  0  0  0  0
  -30.6410  -12.6990   18.9810 C   0  0  0  0  0  2  0  0  0  0  0  0
  -29.6590  -12.6860   17.7890 C   0  0  0  0  0  2  0  0  0  0  0  0
  -28.2090  -12.5190   18.2890 C   0  0  0  0  0  2  0  0  0  0  0  0
  -27.8770  -13.4600   19.4780 C   0  0  0  0  0  3  0  0  0  0  0  0
  -28.9910  -13.4710   20.5460 C   0  0  0  0  0  2  0  0  0  0  0  0
  -30.2400  -13.8290   19.8650 N   0  0  0  0  0  0  0  0  0  0  0  0
  -32.1240  -14.9590   19.5700 O   0  0  0  0  0  0  0  0  0  0  0  0
  -25.5530  -14.0550   20.3770 C   0  0  0  0  0  0  0  0  0  0  0  0
  -24.4990  -13.2870   20.7830 C   0  0  0  0  0  0  0  0  0  0  0  0
  -24.9380  -11.9290   20.6870 C   0  0  0  0  0  0  0  0  0  0  0  0
  -26.5670  -13.1690   20.0500 N   0  0  0  0  0  0  0  0  0  0  0  0
  -26.2100  -11.8830   20.3070 N   0  0  0  0  0  0  0  0  0  0  0  0
  -24.1970  -10.6730   20.8800 C   0  0  0  0  0  0  0  0  0  0  0  0
  -24.6220   -9.7010   21.8120 C   0  0  0  0  0  3  0  0  0  0  0  0
  -23.8840   -8.5120   21.9960 C   0  0  0  0  0  3  0  0  0  0  0  0
  -22.7050   -8.2860   21.2460 C   0  0  0  0  0  0  0  0  0  0  0  0
  -22.2960   -9.2460   20.3020 C   0  0  0  0  0  3  0  0  0  0  0  0
  -23.0350  -10.4260   20.1180 C   0  0  0  0  0  3  0  0  0  0  0  0
  -21.9400   -7.1480   21.3380 O   0  0  0  0  0  0  0  0  0  0  0  0
  -21.8380   -6.4390   22.5100 C   0  0  0  0  0  0  0  0  0  0  0  0
  -21.3550   -7.0290   23.6960 C   0  0  0  0  0  3  0  0  0  0  0  0
  -21.2010   -6.2490   24.8600 C   0  0  0  0  0  3  0  0  0  0  0  0
  -21.5200   -4.8780   24.8350 C   0  0  0  0  0  0  0  0  0  0  0  0
  -21.9970   -4.2860   23.6530 C   0  0  0  0  0  3  0  0  0  0  0  0
  -22.1520   -5.0640   22.4930 C   0  0  0  0  0  0  0  0  0  0  0  0
  -22.5890   -4.4840   21.3480 F   0  0  0  0  0  0  0  0  0  0  0  0
  -21.3640   -4.1270   25.9500 F   0  0  0  0  0  0  0  0  0  0  0  0
  -23.1280  -13.7760   21.1440 C   0  0  0  0  0  0  0  0  0  0  0  0
  -22.4430  -13.0740   22.0390 N   0  0  0  0  0  0  0  0  0  0  0  0
  -22.6760  -14.8190   20.6730 O   0  0  0  0  0  0  0  0  0  0  0  0
  -22.8250  -12.2310   22.4460 H   0  0  0  0  0  0  0  0  0  0  0  0
  -21.5270  -13.3840   22.3310 H   0  0  0  0  0  0  0  0  0  0  0  0
  -25.7270  -15.4280   20.2290 N   0  0  0  0  0  0  0  0  0  0  0  0
  -24.9870  -16.0900   20.4400 H   0  0  0  0  0  0  0  0  0  0  0  0
  -26.5590  -15.8710   19.8640 H   0  0  0  0  0  0  0  0  0  0  0  0
  -28.2240  -24.9780   19.2030 C   0  0  0  0  0  2  0  0  0  0  0  0
  -28.2330  -26.4210   19.7290 O   0  0  0  0  0  0  0  0  0  0  0  0
  -24.6670  -31.8830   23.0440 C   0  0  0  0  0  0  0  0  0  0  0  0
  -27.1290  -27.3250   19.7380 C   0  0  0  0  0  0  0  0  0  0  0  0
  -23.3990  -30.5250   21.4220 C   0  0  0  0  0  3  0  0  0  0  0  0
  -24.7850  -29.0110   19.8860 C   0  0  0  0  0  0  0  0  0  0  0  0
  -25.9370  -30.8300   21.1420 C   0  0  0  0  0  2  0  0  0  0  0  0
  -25.9870  -29.4630   20.4460 C   0  0  0  0  0  0  0  0  0  0  0  0
  -27.1580  -28.6320   20.3590 C   0  0  0  0  0  3  0  0  0  0  0  0
  -25.8950  -26.9570   19.1590 C   0  0  0  0  0  3  0  0  0  0  0  0
  -24.7470  -27.7710   19.2320 C   0  0  0  0  0  3  0  0  0  0  0  0
  -23.5580  -29.8960   20.0140 C   0  0  0  0  0  2  0  0  0  0  0  0
  -24.6900  -31.0990   21.9240 N   0  0  0  0  0  0  0  0  0  0  0  0
  -23.6050  -32.1460   23.6270 O   0  0  0  0  0  0  0  0  0  0  0  0
  -22.7800  -29.4810   22.3850 C   0  0  0  0  0  0  0  0  0  0  0  0
  -21.4550  -29.2760   22.2860 N   0  0  0  0  0  0  0  0  0  0  0  0
  -23.4900  -28.8630   23.1810 O   0  0  0  0  0  0  0  0  0  0  0  0
  -20.9400  -29.8330   21.6190 H   0  0  0  0  0  0  0  0  0  0  0  0
  -18.1280  -27.9410   22.8010 C   0  0  0  0  0  0  0  0  0  0  0  0
  -20.6750  -28.3060   23.0590 C   0  0  0  0  0  3  0  0  0  0  0  0
  -20.8300  -26.8770   22.4850 C   0  0  0  0  0  2  0  0  0  0  0  0
  -19.7380  -26.5100   21.4750 C   0  0  0  0  0  2  0  0  0  0  0  0
  -18.3560  -26.6010   22.1250 C   0  0  0  0  0  2  0  0  0  0  0  0
  -19.2160  -28.7490   23.2270 C   0  0  0  0  0  0  0  0  0  0  0  0
  -18.9480  -30.0010   23.8210 C   0  0  0  0  0  3  0  0  0  0  0  0
  -17.6240  -30.4470   23.9930 C   0  0  0  0  0  3  0  0  0  0  0  0
  -16.5510  -29.6390   23.5830 C   0  0  0  0  0  3  0  0  0  0  0  0
  -16.8040  -28.3870   22.9940 C   0  0  0  0  0  3  0  0  0  0  0  0
  -25.9710  -32.5060   23.6320 C   0  0  0  0  0  3  0  0  0  0  0  0
  -25.6600  -33.8860   24.0410 N   0  0  0  0  0  0  0  0  0  0  0  0
  -25.9590  -34.9780   23.3250 C   0  0  0  0  0  0  0  0  0  0  0  0
  -26.5940  -34.9290   22.2680 O   0  0  0  0  0  0  0  0  0  0  0  0
  -25.0900  -33.9960   24.8660 H   0  0  0  0  0  0  0  0  0  0  0  0
  -24.2080  -36.7750   23.1210 C   0  0  0  0  0  1  0  0  0  0  0  0
  -25.4790  -36.3380   23.8690 C   0  0  0  0  0  3  0  0  0  0  0  0
  -27.6340  -37.1990   24.6730 C   0  0  0  0  0  1  0  0  0  0  0  0
  -26.5010  -37.4040   23.7740 N   0  0  0  0  0  0  0  0  0  0  0  0
  -26.0940  -38.3130   23.9770 H   0  0  0  0  0  0  0  0  0  0  0  0
  -26.5530  -31.6910   24.8540 C   0  0  1  0  0  0  0  0  0  0  0  0
  -25.5150  -31.4020   25.9620 C   0  0  0  0  0  1  0  0  0  0  0  0
  -27.1270  -30.3350   24.3820 C   0  0  0  0  0  1  0  0  0  0  0  0
  -27.7300  -32.4690   25.4890 C   0  0  0  0  0  1  0  0  0  0  0  0
  1  4  1  0
  2  5  1  0
  2  1  1  0
  3  5  1  0
  3  4  1  0
  4  6  1  1
  5  7  1  1
  8 12  1  0
  9 11  1  0
 10  8  2  0
 11 12  2  0
 11  4  1  0
 12 14  1  0
 13  9  2  0
 13 10  1  0
 15 13  1  0
 16 10  1  0
 16 22  1  0
 17 22  1  0
 18 19  1  0
 18 17  1  0
 20 19  1  0
 20 27  1  0
 20 21  1  0
 22 21  1  0
 23 16  2  0
 24 25  2  0
 25 44  1  0
 26 25  1  0
 26 29  1  0
 27 28  1  0
 27 24  1  0
 28 26  2  0
 29 30  1  0
 30 31  2  0
 32 35  1  0
 32 31  1  0
 33 32  2  0
 34 33  1  0
 34 29  2  0
 35 36  1  0
 36 37  1  0
 37 38  2  0
 39 38  1  0
 39 43  1  0
 40 39  2  0
 41 36  2  0
 41 40  1  0
 42 41  1  0
 44 45  1  0
 45 48  1  0
 45 47  1  0
 46 44  2  0
 49 24  1  0
 49 50  1  0
 51 49  1  0
 52 53  1  0
 52  5  1  0
 53 55  1  0
 54 65  2  0
 55 60  1  0
 56 64  1  0
 56 66  1  0
 57 63  1  0
 57 59  1  0
 58 64  1  0
 59 58  1  0
 60 59  2  0
 61 62  1  0
 61 55  2  0
 62 57  2  0
 63 56  1  0
 64 54  1  0
 66 68  2  0
 67 66  1  0
 69 67  1  0
 70 79  2  0
 70 75  1  0
 71 67  1  0
 71 75  1  0
 72 71  1  0
 73 74  1  0
 73 72  1  0
 74 70  1  0
 75 76  2  0
 76 77  1  0
 78 77  2  0
 79 78  1  0
 80 54  1  0
 80 81  1  0
 80 90  1  0
 81 84  1  0
 82 86  1  0
 82 81  1  0
 83 82  2  0
 86 85  1  0
 88 86  1  0
 88 89  1  0
 88 87  1  0
 90 93  1  1
 90 91  1  0
 92 90  1  0
M  ISO  4  10 100  16 100  52 101  53 101
M  END
>  <TORSDO>  (82) 
F 18

>  <SCORE>  (82) 
-14.187

>  <name>  (82) 
81

>  <ligand_id>  (82) 
81

>  <original_smiles>  (82) 
[H]c1c([H])c([H])c2c(c1[H])C([H])([H])C([H])([H])C([H])([H])C2([H])N([H])C(=O)C1([H])N(C(=O)C([H])(N([H])C(=O)C([H])(N([H])C([H])([H])[H])C([H])([H])[H])C(C([H])([H])[H])(C([H])([H])[H])C([H])([H])[H])C([H])([H])c2c([H])c(OC([H])([H])C3(C([H])([H])[H])C([H])([H])C([H])([H])C(c4c([H])c(F)c(C(=O)N5C([H])([H])C([H])([H])C([H])([H])C([H])(n6nc(-c7c([H])c([H])c(Oc8c([H])c([H])c(F)c([H])c8F)c([H])c7[H])c(C(=O)N([H])[H])c6N([H])[H])C5([H])[H])c([H])c4F)(C([H])([H])[H])C3([H])[H])c([H])c([H])c2C1([H])[H]

>  <smiles>  (82) 
[H]c1c([H])c([H])c2c(c1[H])C([H])([H])C([H])([H])C([H])([H])C2([H])N([H])C(=O)C1([H])N(C(=O)C([H])(N([H])C(=O)C([H])(N([H])C([H])([H])[H])C([H])([H])[H])C(C([H])([H])[H])(C([H])([H])[H])C([H])([H])[H])C([H])([H])c2c([H])c(OC([H])([H])C3(C([H])([H])[H])C([H])([H])C([H])([H])C(c4c([H])c(F)c(C(=O)N5C([H])([H])C([H])([H])C([H])([H])C([H])(n6nc(-c7c([H])c([H])c(Oc8c([H])c([H])c(F)c([H])c8F)c([H])c7[H])c(C(=O)N([H])[H])c6N([H])[H])C5([H])[H])c([H])c4F)(C([H])([H])[H])C3([H])[H])c([H])c([H])c2C1([H])[H]

$$$$
82:0:0
     RDKit          3D

 89 97  0  0  1  0  0  0  0  0999 V2000
  -28.2900  -21.6730   20.0790 C   0  0  0  0  0  0  0  0  0  0  0  0
  -27.1700  -21.5910   19.5670 O   0  0  0  0  0  0  0  0  0  0  0  0
  -29.9850  -19.5220   21.1350 C   0  0  0  0  0  3  0  0  0  0  0  0
  -28.4560  -18.9570   19.5360 C   0  0  0  0  0  3  0  0  0  0  0  0
  -28.9600  -20.1050   20.2810 C   0  0  0  0  0  0  0  0  0  0  0  0
  -29.8360  -16.9330   20.4940 C   0  0  0  0  0  0  0  0  0  0  0  0
  -30.3830  -18.0820   21.2410 C   0  0  0  0  0  0  0  0  0  0  0  0
  -28.8550  -17.5280   19.5890 C   0  0  0  0  0  0  0  0  0  0  0  0
  -31.4990  -17.7870   22.2310 C   0  0  0  0  0  1  0  0  0  0  0  0
  -28.2050  -16.6610   18.5260 C   0  0  0  0  0  1  0  0  0  0  0  0
  -30.4630  -15.3650   20.4670 C   0  0  0  0  0  0  0  0  0  0  0  0
  -30.4060  -12.9090   19.6600 C   0  0  0  0  0  2  0  0  0  0  0  0
  -29.5320  -12.6840   18.4020 C   0  0  0  0  0  2  0  0  0  0  0  0
  -28.0700  -12.4240   18.8020 C   0  0  0  0  0  2  0  0  0  0  0  0
  -27.5800  -13.4100   19.8910 C   0  0  0  0  0  3  0  0  0  0  0  0
  -28.5920  -13.6170   21.0350 C   0  0  0  0  0  2  0  0  0  0  0  0
  -29.8510  -14.0800   20.4320 N   0  0  0  0  0  0  0  0  0  0  0  0
  -31.6890  -15.2830   20.3100 O   0  0  0  0  0  0  0  0  0  0  0  0
  -25.1940  -13.9710   20.5860 C   0  0  0  0  0  0  0  0  0  0  0  0
  -24.1230  -13.1940   20.9240 C   0  0  0  0  0  0  0  0  0  0  0  0
  -24.5930  -11.8440   20.9140 C   0  0  0  0  0  0  0  0  0  0  0  0
  -26.2430  -13.0960   20.3730 N   0  0  0  0  0  0  0  0  0  0  0  0
  -25.8940  -11.8110   20.6420 N   0  0  0  0  0  0  0  0  0  0  0  0
  -23.8650  -10.5820   21.0900 C   0  0  0  0  0  0  0  0  0  0  0  0
  -24.2760   -9.6170   22.0350 C   0  0  0  0  0  3  0  0  0  0  0  0
  -23.5450   -8.4200   22.2000 C   0  0  0  0  0  3  0  0  0  0  0  0
  -22.3890   -8.1800   21.4180 C   0  0  0  0  0  0  0  0  0  0  0  0
  -21.9980   -9.1350   20.4620 C   0  0  0  0  0  3  0  0  0  0  0  0
  -22.7300  -10.3230   20.2950 C   0  0  0  0  0  3  0  0  0  0  0  0
  -21.6320   -7.0360   21.4910 O   0  0  0  0  0  0  0  0  0  0  0  0
  -21.5590   -6.2930   22.6410 C   0  0  0  0  0  0  0  0  0  0  0  0
  -21.0950   -6.8440   23.8560 C   0  0  0  0  0  3  0  0  0  0  0  0
  -20.9720   -6.0260   24.9980 C   0  0  0  0  0  3  0  0  0  0  0  0
  -21.3020   -4.6590   24.9250 C   0  0  0  0  0  0  0  0  0  0  0  0
  -21.7590   -4.1080   23.7150 C   0  0  0  0  0  3  0  0  0  0  0  0
  -21.8850   -4.9230   22.5760 C   0  0  0  0  0  0  0  0  0  0  0  0
  -22.3050   -4.3820   21.4070 F   0  0  0  0  0  0  0  0  0  0  0  0
  -21.1760   -3.8730   26.0190 F   0  0  0  0  0  0  0  0  0  0  0  0
  -22.7170  -13.6690   21.1480 C   0  0  0  0  0  0  0  0  0  0  0  0
  -21.9660  -12.9800   21.9990 N   0  0  0  0  0  0  0  0  0  0  0  0
  -22.2950  -14.6880   20.6040 O   0  0  0  0  0  0  0  0  0  0  0  0
  -22.3230  -12.1560   22.4610 H   0  0  0  0  0  0  0  0  0  0  0  0
  -21.0220  -13.2810   22.1930 H   0  0  0  0  0  0  0  0  0  0  0  0
  -25.3610  -15.3430   20.4170 N   0  0  0  0  0  0  0  0  0  0  0  0
  -24.5960  -15.9980   20.5350 H   0  0  0  0  0  0  0  0  0  0  0  0
  -26.2380  -15.7930   20.1930 H   0  0  0  0  0  0  0  0  0  0  0  0
  -28.6940  -23.2750   20.3310 C   0  0  0  0  0  3  0  0  0  0  0  0
  -27.8990  -24.4950   20.1420 C   0  0  0  0  0  3  0  0  0  0  0  0
  -28.1230  -26.0020   20.2480 O   0  0  0  0  0  0  0  0  0  0  0  0
  -24.5630  -31.9270   23.2300 C   0  0  0  0  0  0  0  0  0  0  0  0
  -27.1010  -27.0790   20.1910 C   0  0  0  0  0  0  0  0  0  0  0  0
  -23.3530  -30.5220   21.6100 C   0  0  0  0  0  3  0  0  0  0  0  0
  -24.7900  -28.9300   20.1690 C   0  0  0  0  0  0  0  0  0  0  0  0
  -25.9140  -30.7520   21.4300 C   0  0  0  0  0  2  0  0  0  0  0  0
  -25.9800  -29.3430   20.7800 C   0  0  0  0  0  0  0  0  0  0  0  0
  -27.1270  -28.4350   20.7750 C   0  0  0  0  0  3  0  0  0  0  0  0
  -25.8860  -26.8230   19.5120 C   0  0  0  0  0  3  0  0  0  0  0  0
  -24.7650  -27.6890   19.5160 C   0  0  0  0  0  3  0  0  0  0  0  0
  -23.5650  -29.8400   20.2300 C   0  0  0  0  0  2  0  0  0  0  0  0
  -24.6320  -31.0930   22.1420 N   0  0  0  0  0  0  0  0  0  0  0  0
  -23.4800  -32.2110   23.7650 O   0  0  0  0  0  0  0  0  0  0  0  0
  -22.6800  -29.5220   22.5860 C   0  0  0  0  0  0  0  0  0  0  0  0
  -21.3520  -29.3340   22.4660 N   0  0  0  0  0  0  0  0  0  0  0  0
  -23.3590  -28.9160   23.4180 O   0  0  0  0  0  0  0  0  0  0  0  0
  -20.8570  -29.8760   21.7700 H   0  0  0  0  0  0  0  0  0  0  0  0
  -17.9940  -28.0620   22.9780 C   0  0  0  0  0  0  0  0  0  0  0  0
  -20.5460  -28.3930   23.2490 C   0  0  0  0  0  3  0  0  0  0  0  0
  -20.6840  -26.9520   22.7010 C   0  0  0  0  0  2  0  0  0  0  0  0
  -19.5940  -26.5870   21.6870 C   0  0  0  0  0  2  0  0  0  0  0  0
  -18.2060  -26.7080   22.3230 C   0  0  0  0  0  2  0  0  0  0  0  0
  -19.0920  -28.8600   23.3990 C   0  0  0  0  0  0  0  0  0  0  0  0
  -18.8390  -30.1230   23.9740 C   0  0  0  0  0  3  0  0  0  0  0  0
  -17.5200  -30.5920   24.1320 C   0  0  0  0  0  3  0  0  0  0  0  0
  -16.4370  -29.7920   23.7250 C   0  0  0  0  0  3  0  0  0  0  0  0
  -16.6750  -28.5290   23.1540 C   0  0  0  0  0  3  0  0  0  0  0  0
  -25.8420  -32.5750   23.8430 C   0  0  0  0  0  3  0  0  0  0  0  0
  -25.5230  -33.9760   24.1730 N   0  0  0  0  0  0  0  0  0  0  0  0
  -25.8340  -35.0330   23.4120 C   0  0  0  0  0  0  0  0  0  0  0  0
  -26.4820  -34.9350   22.3670 O   0  0  0  0  0  0  0  0  0  0  0  0
  -24.9440  -34.1260   24.9860 H   0  0  0  0  0  0  0  0  0  0  0  0
  -24.0900  -36.8240   23.1050 C   0  0  0  0  0  1  0  0  0  0  0  0
  -25.3520  -36.4210   23.8830 C   0  0  0  0  0  3  0  0  0  0  0  0
  -27.4990  -37.3230   24.6650 C   0  0  0  0  0  1  0  0  0  0  0  0
  -26.3760  -37.4800   23.7450 N   0  0  0  0  0  0  0  0  0  0  0  0
  -25.9680  -38.3980   23.8980 H   0  0  0  0  0  0  0  0  0  0  0  0
  -26.3650  -31.8200   25.1260 C   0  0  1  0  0  0  0  0  0  0  0  0
  -25.2780  -31.5930   26.2040 C   0  0  0  0  0  1  0  0  0  0  0  0
  -26.9490  -30.4380   24.7550 C   0  0  0  0  0  1  0  0  0  0  0  0
  -27.5180  -32.6240   25.7730 C   0  0  0  0  0  1  0  0  0  0  0  0
  1  5  1  0
  1 47  1  0
  2  1  2  0
  3  7  1  0
  4  8  2  0
  4  5  1  0
  5  3  2  0
  6  7  2  0
  7  9  1  0
  8  6  1  0
 10  8  1  0
 11  6  1  0
 12 17  1  0
 13 14  1  0
 13 12  1  0
 15 14  1  0
 15 22  1  0
 15 16  1  0
 17 11  1  0
 17 16  1  0
 18 11  2  0
 19 20  2  0
 20 39  1  0
 21 20  1  0
 21 24  1  0
 22 19  1  0
 22 23  1  0
 23 21  2  0
 24 25  1  0
 25 26  2  0
 27 30  1  0
 27 26  1  0
 28 27  2  0
 29 28  1  0
 29 24  2  0
 30 31  1  0
 31 32  1  0
 32 33  2  0
 34 33  1  0
 34 38  1  0
 35 34  2  0
 36 31  2  0
 36 35  1  0
 37 36  1  0
 39 40  1  0
 40 43  1  0
 40 42  1  0
 41 39  2  0
 44 45  1  0
 44 19  1  0
 46 44  1  0
 48 49  1  0
 48 47  2  0
 50 61  2  0
 51 49  1  0
 51 56  1  0
 52 60  1  0
 52 62  1  0
 53 59  1  0
 53 55  1  0
 54 60  1  0
 55 54  1  0
 56 55  2  0
 57 58  1  0
 57 51  2  0
 58 53  2  0
 59 52  1  0
 60 50  1  0
 62 64  2  0
 63 62  1  0
 65 63  1  0
 66 75  2  0
 66 71  1  0
 67 63  1  0
 67 71  1  0
 68 67  1  0
 69 70  1  0
 69 68  1  0
 70 66  1  0
 71 72  2  0
 72 73  1  0
 74 73  2  0
 75 74  1  0
 76 50  1  0
 76 77  1  0
 76 86  1  0
 77 80  1  0
 78 82  1  0
 78 77  1  0
 79 78  2  0
 82 81  1  0
 84 82  1  0
 84 85  1  0
 84 83  1  0
 86 89  1  1
 86 87  1  0
 88 86  1  0
M  ISO  4   6 100  11 100  48 101  49 101
M  END
>  <TORSDO>  (83) 
F 18

>  <SCORE>  (83) 
-14.519

>  <name>  (83) 
82

>  <ligand_id>  (83) 
82

>  <original_smiles>  (83) 
[H]C(Oc1c([H])c([H])c2c(c1[H])C([H])([H])N(C(=O)C([H])(N([H])C(=O)C([H])(N([H])C([H])([H])[H])C([H])([H])[H])C(C([H])([H])[H])(C([H])([H])[H])C([H])([H])[H])C([H])(C(=O)N([H])C1([H])c3c([H])c([H])c([H])c([H])c3C([H])([H])C([H])([H])C1([H])[H])C2([H])[H])=C([H])C(=O)c1c([H])c(C([H])([H])[H])c(C(=O)N2C([H])([H])C([H])([H])C([H])([H])C([H])(n3nc(-c4c([H])c([H])c(Oc5c([H])c([H])c(F)c([H])c5F)c([H])c4[H])c(C(=O)N([H])[H])c3N([H])[H])C2([H])[H])c(C([H])([H])[H])c1[H]

>  <smiles>  (83) 
[H]C(Oc1c([H])c([H])c2c(c1[H])C([H])([H])N(C(=O)C([H])(N([H])C(=O)C([H])(N([H])C([H])([H])[H])C([H])([H])[H])C(C([H])([H])[H])(C([H])([H])[H])C([H])([H])[H])C([H])(C(=O)N([H])C1([H])c3c([H])c([H])c([H])c([H])c3C([H])([H])C([H])([H])C1([H])[H])C2([H])[H])=C([H])C(=O)c1c([H])c(C([H])([H])[H])c(C(=O)N2C([H])([H])C([H])([H])C([H])([H])C([H])(n3nc(-c4c([H])c([H])c(Oc5c([H])c([H])c(F)c([H])c5F)c([H])c4[H])c(C(=O)N([H])[H])c3N([H])[H])C2([H])[H])c(C([H])([H])[H])c1[H]

$$$$
83:0:0
     RDKit          3D

100109  0  0  1  0  0  0  0  0999 V2000
  -34.1360  -17.5880   17.3150 C   0  0  0  0  0  3  0  0  0  0  0  0
  -31.6210  -16.3950   17.0670 C   0  0  0  0  0  3  0  0  0  0  0  0
  -33.2770  -17.5230   18.4350 C   0  0  0  0  0  0  0  0  0  0  0  0
  -32.0210  -16.8640   18.3410 C   0  0  0  0  0  0  0  0  0  0  0  0
  -33.7860  -16.9800   16.0930 C   0  0  0  0  0  0  0  0  0  0  0  0
  -32.4990  -16.4080   15.9620 C   0  0  0  0  0  0  0  0  0  0  0  0
  -33.6630  -18.1870   19.6860 C   0  0  0  0  0  3  0  0  0  0  0  0
  -32.7650  -18.4260   20.6540 C   0  0  0  0  0  3  0  0  0  0  0  0
  -31.3060  -18.0100   20.5310 C   0  0  0  0  0  3  0  0  0  0  0  0
  -31.1980  -16.5930   19.6370 C   0  0  1  0  0  0  0  0  0  0  0  0
  -32.0540  -15.7390   14.6710 C   0  0  0  0  0  1  0  0  0  0  0  0
  -29.6740  -16.5090   19.3980 C   0  0  0  0  0  1  0  0  0  0  0  0
  -31.8570  -15.1090   20.0980 C   0  0  0  0  0  0  0  0  0  0  0  0
  -31.6460  -12.7010   19.3610 C   0  0  0  0  0  2  0  0  0  0  0  0
  -30.7140  -12.5710   18.1360 C   0  0  0  0  0  2  0  0  0  0  0  0
  -29.2340  -12.4360   18.5580 C   0  0  0  0  0  2  0  0  0  0  0  0
  -28.8360  -13.4300   19.6740 C   0  0  0  0  0  3  0  0  0  0  0  0
  -29.9110  -13.5060   20.7870 C   0  0  0  0  0  2  0  0  0  0  0  0
  -31.1930  -13.8750   20.1540 N   0  0  0  0  0  0  0  0  0  0  0  0
  -33.0880  -15.0350   20.0660 O   0  0  0  0  0  0  0  0  0  0  0  0
  -26.4850  -14.1440   20.4290 C   0  0  0  0  0  0  0  0  0  0  0  0
  -25.3930  -13.4170   20.8100 C   0  0  0  0  0  0  0  0  0  0  0  0
  -25.8030  -12.0510   20.7790 C   0  0  0  0  0  0  0  0  0  0  0  0
  -27.4930  -13.2160   20.1920 N   0  0  0  0  0  0  0  0  0  0  0  0
  -27.0910  -11.9540   20.4720 N   0  0  0  0  0  0  0  0  0  0  0  0
  -25.0300  -10.8200   20.9620 C   0  0  0  0  0  0  0  0  0  0  0  0
  -25.2260   -9.9890   22.0850 C   0  0  0  0  0  3  0  0  0  0  0  0
  -24.4560   -8.8190   22.2480 C   0  0  0  0  0  3  0  0  0  0  0  0
  -23.4770   -8.4740   21.2880 C   0  0  0  0  0  0  0  0  0  0  0  0
  -23.3040   -9.2930   20.1560 C   0  0  0  0  0  3  0  0  0  0  0  0
  -24.0750  -10.4550   19.9930 C   0  0  0  0  0  3  0  0  0  0  0  0
  -22.6950   -7.3460   21.3550 O   0  0  0  0  0  0  0  0  0  0  0  0
  -22.0690   -6.9750   22.5190 C   0  0  0  0  0  0  0  0  0  0  0  0
  -21.1120   -7.8010   23.1470 C   0  0  0  0  0  3  0  0  0  0  0  0
  -20.4400   -7.3490   24.3010 C   0  0  0  0  0  3  0  0  0  0  0  0
  -20.7170   -6.0700   24.8230 C   0  0  0  0  0  0  0  0  0  0  0  0
  -21.6690   -5.2470   24.1950 C   0  0  0  0  0  3  0  0  0  0  0  0
  -22.3390   -5.6970   23.0460 C   0  0  0  0  0  0  0  0  0  0  0  0
  -23.2370   -4.8880   22.4330 F   0  0  0  0  0  0  0  0  0  0  0  0
  -20.0690   -5.6330   25.9270 F   0  0  0  0  0  0  0  0  0  0  0  0
  -24.0150  -13.9480   21.0840 C   0  0  0  0  0  0  0  0  0  0  0  0
  -23.2600  -13.2850   21.9530 N   0  0  0  0  0  0  0  0  0  0  0  0
  -23.6180  -14.9900   20.5620 O   0  0  0  0  0  0  0  0  0  0  0  0
  -23.5950  -12.4450   22.4030 H   0  0  0  0  0  0  0  0  0  0  0  0
  -22.3330  -13.6210   22.1710 H   0  0  0  0  0  0  0  0  0  0  0  0
  -26.6830  -15.5060   20.2350 N   0  0  0  0  0  0  0  0  0  0  0  0
  -25.9280  -16.1760   20.3440 H   0  0  0  0  0  0  0  0  0  0  0  0
  -27.5330  -15.9230   19.8820 H   0  0  0  0  0  0  0  0  0  0  0  0
  -34.7920  -16.9640   14.9450 C   0  0  0  0  0  2  0  0  0  0  0  0
  -36.1310  -17.6570   15.2810 C   0  0  0  0  0  2  0  0  0  0  0  0
  -36.3700  -18.9580   14.5010 C   0  0  0  0  0  2  0  0  0  0  0  0
  -38.1370  -20.6390   13.7430 C   0  0  0  0  0  1  0  0  0  0  0  0
  -37.8500  -19.3700   14.5480 C   0  0  0  0  0  2  0  0  0  0  0  0
  -30.3950  -19.3420   20.0860 C   0  0  0  0  0  2  0  0  0  0  0  0
  -30.5600  -20.9070   20.5890 C   0  0  0  0  0  3  0  0  0  0  0  0
  -29.5290  -22.0900   20.0650 C   0  0  0  0  0  3  0  0  0  0  0  0
  -30.8810  -24.1020   20.8840 C   0  0  0  0  0  2  0  0  0  0  0  0
  -29.7310  -23.6730   20.3410 C   0  0  0  0  0  0  0  0  0  0  0  0
  -28.5870  -24.7480   19.9560 C   0  0  0  0  0  2  0  0  0  0  0  0
  -28.7610  -26.2550   20.1370 O   0  0  0  0  0  0  0  0  0  0  0  0
  -24.7740  -31.5230   23.3110 C   0  0  0  0  0  0  0  0  0  0  0  0
  -27.6230  -27.1240   20.1090 C   0  0  0  0  0  0  0  0  0  0  0  0
  -23.6590  -30.1410   21.6000 C   0  0  0  0  0  3  0  0  0  0  0  0
  -25.1960  -28.7010   20.1360 C   0  0  0  0  0  0  0  0  0  0  0  0
  -26.1940  -30.5480   21.4750 C   0  0  0  0  0  2  0  0  0  0  0  0
  -26.3430  -29.1930   20.7720 C   0  0  0  0  0  0  0  0  0  0  0  0
  -27.5550  -28.4170   20.7490 C   0  0  0  0  0  3  0  0  0  0  0  0
  -26.4450  -26.7150   19.4460 C   0  0  0  0  0  3  0  0  0  0  0  0
  -25.2550  -27.4720   19.4630 C   0  0  0  0  0  3  0  0  0  0  0  0
  -23.9260  -29.5330   20.2000 C   0  0  0  0  0  2  0  0  0  0  0  0
  -24.8940  -30.7540   22.1870 N   0  0  0  0  0  0  0  0  0  0  0  0
  -23.6690  -31.7350   23.8350 O   0  0  0  0  0  0  0  0  0  0  0  0
  -23.0170  -29.0640   22.5110 C   0  0  0  0  0  0  0  0  0  0  0  0
  -21.7170  -28.7910   22.3120 N   0  0  0  0  0  0  0  0  0  0  0  0
  -23.6950  -28.4790   23.3600 O   0  0  0  0  0  0  0  0  0  0  0  0
  -21.2270  -29.3120   21.5960 H   0  0  0  0  0  0  0  0  0  0  0  0
  -18.4210  -27.3180   22.5930 C   0  0  0  0  0  0  0  0  0  0  0  0
  -20.9290  -27.7810   23.0230 C   0  0  0  0  0  3  0  0  0  0  0  0
  -21.1860  -26.3720   22.4410 C   0  0  0  0  0  2  0  0  0  0  0  0
  -20.1770  -25.9740   21.3620 C   0  0  0  0  0  2  0  0  0  0  0  0
  -18.7500  -25.9970   21.9190 C   0  0  0  0  0  2  0  0  0  0  0  0
  -19.4450  -28.1630   23.0990 C   0  0  0  0  0  0  0  0  0  0  0  0
  -19.0860  -29.3940   23.6880 C   0  0  0  0  0  3  0  0  0  0  0  0
  -17.7360  -29.7830   23.7830 C   0  0  0  0  0  3  0  0  0  0  0  0
  -16.7260  -28.9340   23.2960 C   0  0  0  0  0  3  0  0  0  0  0  0
  -17.0680  -27.7060   22.7050 C   0  0  0  0  0  3  0  0  0  0  0  0
  -26.0140  -32.1860   23.9800 C   0  0  0  0  0  3  0  0  0  0  0  0
  -26.4820  -31.4410   25.2900 C   0  0  1  0  0  0  0  0  0  0  0  0
  -25.3400  -31.1890   26.3050 C   0  0  0  0  0  1  0  0  0  0  0  0
  -27.1120  -30.0730   24.9420 C   0  0  0  0  0  1  0  0  0  0  0  0
  -27.5830  -32.2640   25.9970 C   0  0  0  0  0  1  0  0  0  0  0  0
  -25.6690  -33.5840   24.2800 N   0  0  0  0  0  0  0  0  0  0  0  0
  -26.1040  -34.6430   23.5830 C   0  0  0  0  0  0  0  0  0  0  0  0
  -26.9010  -34.5450   22.6460 O   0  0  0  0  0  0  0  0  0  0  0  0
  -24.9750  -33.7340   24.9970 H   0  0  0  0  0  0  0  0  0  0  0  0
  -24.4700  -36.4660   23.0050 C   0  0  0  0  0  1  0  0  0  0  0  0
  -25.5700  -36.0320   23.9870 C   0  0  0  0  0  3  0  0  0  0  0  0
  -27.5580  -36.8820   25.1520 C   0  0  0  0  0  1  0  0  0  0  0  0
  -26.6210  -37.0720   24.0490 N   0  0  0  0  0  0  0  0  0  0  0  0
  -26.2080  -37.9970   24.1400 H   0  0  0  0  0  0  0  0  0  0  0  0
  1  3  1  0
  2  4  1  0
  3  7  1  0
  4  3  2  0
  4 10  1  0
  5  1  2  0
  6  5  1  0
  6  2  2  0
  7  8  2  0
  9 54  1  0
  9  8  1  0
 10 12  1  6
 10 13  1  0
 10  9  1  0
 11  6  1  0
 13 19  1  0
 14 19  1  0
 15 16  1  0
 15 14  1  0
 17 16  1  0
 17 24  1  0
 17 18  1  0
 19 18  1  0
 20 13  2  0
 21 22  2  0
 22 41  1  0
 23 22  1  0
 23 26  1  0
 24 21  1  0
 24 25  1  0
 25 23  2  0
 26 27  1  0
 27 28  2  0
 29 32  1  0
 29 28  1  0
 30 29  2  0
 31 30  1  0
 31 26  2  0
 32 33  1  0
 33 38  2  0
 33 34  1  0
 34 35  2  0
 35 36  1  0
 36 40  1  0
 37 36  2  0
 38 37  1  0
 39 38  1  0
 41 42  1  0
 42 45  1  0
 42 44  1  0
 43 41  2  0
 46 47  1  0
 46 21  1  0
 48 46  1  0
 49 50  1  0
 49  5  1  0
 51 53  1  0
 51 50  1  0
 52 53  1  0
 54 55  1  0
 56 58  1  0
 56 55  2  0
 58 57  2  0
 59 60  1  0
 59 58  1  0
 61 72  2  0
 62 60  1  0
 62 67  1  0
 63 71  1  0
 63 73  1  0
 64 70  1  0
 64 66  1  0
 65 71  1  0
 66 65  1  0
 67 66  2  0
 68 69  1  0
 68 62  2  0
 69 64  2  0
 70 63  1  0
 71 61  1  0
 73 75  2  0
 74 73  1  0
 76 74  1  0
 77 86  2  0
 77 82  1  0
 78 74  1  0
 78 82  1  0
 79 78  1  0
 80 81  1  0
 80 79  1  0
 81 77  1  0
 82 83  2  0
 83 84  1  0
 85 84  2  0
 86 85  1  0
 87 61  1  0
 87 92  1  0
 87 88  1  0
 88 91  1  1
 88 89  1  0
 90 88  1  0
 92 95  1  0
 93 97  1  0
 93 92  1  0
 94 93  2  0
 97 96  1  0
 97 99  1  0
 99100  1  0
 99 98  1  0
M  ISO  4  10 100  13 100  59 101  60 101
M  END
>  <TORSDO>  (84) 
F 25

>  <SCORE>  (84) 
-9.574

>  <name>  (84) 
83

>  <ligand_id>  (84) 
83

>  <original_smiles>  (84) 
[H]C([H])=C(C([H])([H])Oc1c([H])c([H])c2c(c1[H])C([H])([H])N(C(=O)C([H])(N([H])C(=O)C([H])(N([H])C([H])([H])[H])C([H])([H])[H])C(C([H])([H])[H])(C([H])([H])[H])C([H])([H])[H])C([H])(C(=O)N([H])C1([H])c3c([H])c([H])c([H])c([H])c3C([H])([H])C([H])([H])C1([H])[H])C2([H])[H])C([H])([H])C([H])([H])C([H])([H])C1([H])C([H])=C([H])c2c([H])c(C([H])([H])C([H])([H])C([H])([H])C([H])([H])C([H])([H])[H])c(C([H])([H])[H])c([H])c2C1(C(=O)N1C([H])([H])C([H])([H])C([H])([H])C([H])(n2nc(-c3c([H])c([H])c(Oc4c([H])c([H])c(F)c([H])c4F)c([H])c3[H])c(C(=O)N([H])[H])c2N([H])[H])C1([H])[H])C([H])([H])[H]

>  <smiles>  (84) 
[H]C([H])=C(C([H])([H])Oc1c([H])c([H])c2c(c1[H])C([H])([H])N(C(=O)C([H])(N([H])C(=O)C([H])(N([H])C([H])([H])[H])C([H])([H])[H])C(C([H])([H])[H])(C([H])([H])[H])C([H])([H])[H])C([H])(C(=O)N([H])C1([H])c3c([H])c([H])c([H])c([H])c3C([H])([H])C([H])([H])C1([H])[H])C2([H])[H])C([H])([H])C([H])([H])C([H])([H])C1([H])C([H])=C([H])c2c([H])c(C([H])([H])C([H])([H])C([H])([H])C([H])([H])C([H])([H])[H])c(C([H])([H])[H])c([H])c2C1(C(=O)N1C([H])([H])C([H])([H])C([H])([H])C([H])(n2nc(-c3c([H])c([H])c(Oc4c([H])c([H])c(F)c([H])c4F)c([H])c3[H])c(C(=O)N([H])[H])c2N([H])[H])C1([H])[H])C([H])([H])[H]

$$$$
84:0:0
     RDKit          3D

 91 99  0  0  1  0  0  0  0  0999 V2000
  -29.3290  -21.3710   21.7210 C   0  0  0  0  0  3  0  0  0  0  0  0
  -29.0700  -22.7850   21.7390 C   0  0  0  0  0  3  0  0  0  0  0  0
  -29.1650  -20.5450   20.5700 C   0  0  0  0  0  0  0  0  0  0  0  0
  -28.6260  -23.5310   20.6060 C   0  0  0  0  0  0  0  0  0  0  0  0
  -28.8220  -21.2980   19.3920 C   0  0  0  0  0  0  0  0  0  0  0  0
  -28.5660  -22.7350   19.4140 C   0  0  0  0  0  0  0  0  0  0  0  0
  -27.1930  -20.1630   17.7870 C   0  0  0  0  0  1  0  0  0  0  0  0
  -28.6520  -20.5400   18.0790 C   0  0  0  0  0  2  0  0  0  0  0  0
  -28.1740  -23.3510   18.2590 O   0  0  0  0  0  0  0  0  0  0  0  0
  -28.1300  -24.2980   18.3430 H   0  0  0  0  0  0  0  0  0  0  0  0
  -29.0530  -18.9320   20.7290 C   0  0  0  0  0  2  0  0  0  0  0  0
  -30.1150  -17.7530   20.3220 C   0  0  0  0  0  3  0  0  0  0  0  0
  -29.7450  -16.2000   20.7350 C   0  0  0  0  0  3  0  0  0  0  0  0
  -30.5650  -14.8730   20.2810 C   0  0  0  0  0  0  0  0  0  0  0  0
  -30.4090  -12.5820   19.2460 C   0  0  0  0  0  2  0  0  0  0  0  0
  -29.4510  -12.6460   18.0330 C   0  0  0  0  0  2  0  0  0  0  0  0
  -27.9870  -12.4490   18.4770 C   0  0  0  0  0  2  0  0  0  0  0  0
  -27.6190  -13.3290   19.7000 C   0  0  0  0  0  3  0  0  0  0  0  0
  -28.6920  -13.2430   20.8080 C   0  0  0  0  0  2  0  0  0  0  0  0
  -29.9820  -13.6200   20.2160 N   0  0  0  0  0  0  0  0  0  0  0  0
  -31.7280  -15.0010   19.8820 O   0  0  0  0  0  0  0  0  0  0  0  0
  -25.2350  -13.9080   20.4480 C   0  0  0  0  0  0  0  0  0  0  0  0
  -24.1760  -13.1300   20.8290 C   0  0  0  0  0  0  0  0  0  0  0  0
  -24.6470  -11.7810   20.7980 C   0  0  0  0  0  0  0  0  0  0  0  0
  -26.2820  -13.0330   20.2050 N   0  0  0  0  0  0  0  0  0  0  0  0
  -25.9350  -11.7490   20.4790 N   0  0  0  0  0  0  0  0  0  0  0  0
  -23.9280  -10.5160   21.0000 C   0  0  0  0  0  0  0  0  0  0  0  0
  -24.3720   -9.5550   21.9350 C   0  0  0  0  0  3  0  0  0  0  0  0
  -23.6530   -8.3560   22.1230 C   0  0  0  0  0  3  0  0  0  0  0  0
  -22.4760   -8.1070   21.3760 C   0  0  0  0  0  0  0  0  0  0  0  0
  -22.0520   -9.0560   20.4300 C   0  0  0  0  0  3  0  0  0  0  0  0
  -22.7720  -10.2480   20.2400 C   0  0  0  0  0  3  0  0  0  0  0  0
  -21.7290   -6.9590   21.4750 O   0  0  0  0  0  0  0  0  0  0  0  0
  -21.6890   -6.2220   22.6310 C   0  0  0  0  0  0  0  0  0  0  0  0
  -21.2650   -6.7810   23.8560 C   0  0  0  0  0  3  0  0  0  0  0  0
  -21.1730   -5.9700   25.0050 C   0  0  0  0  0  3  0  0  0  0  0  0
  -21.4950   -4.6010   24.9300 C   0  0  0  0  0  0  0  0  0  0  0  0
  -21.9120   -4.0430   23.7090 C   0  0  0  0  0  3  0  0  0  0  0  0
  -22.0060   -4.8510   22.5630 C   0  0  0  0  0  0  0  0  0  0  0  0
  -22.3880   -4.3020   21.3840 F   0  0  0  0  0  0  0  0  0  0  0  0
  -21.3990   -3.8210   26.0320 F   0  0  0  0  0  0  0  0  0  0  0  0
  -22.7780  -13.6010   21.1100 C   0  0  0  0  0  0  0  0  0  0  0  0
  -22.0600  -12.9030   21.9830 N   0  0  0  0  0  0  0  0  0  0  0  0
  -22.3320  -14.6220   20.5900 O   0  0  0  0  0  0  0  0  0  0  0  0
  -22.4340  -12.0760   22.4250 H   0  0  0  0  0  0  0  0  0  0  0  0
  -21.1230  -13.2010   22.2140 H   0  0  0  0  0  0  0  0  0  0  0  0
  -25.3890  -15.2800   20.2660 N   0  0  0  0  0  0  0  0  0  0  0  0
  -24.6180  -15.9280   20.3820 H   0  0  0  0  0  0  0  0  0  0  0  0
  -26.2340  -15.7250   19.9340 H   0  0  0  0  0  0  0  0  0  0  0  0
  -27.9050  -24.9690   20.8180 C   0  0  0  0  0  2  0  0  0  0  0  0
  -28.2930  -26.3330   20.2710 O   0  0  0  0  0  0  0  0  0  0  0  0
  -24.6300  -31.9340   23.2300 C   0  0  0  0  0  0  0  0  0  0  0  0
  -27.2410  -27.2940   20.2140 C   0  0  0  0  0  0  0  0  0  0  0  0
  -23.4360  -30.5260   21.5950 C   0  0  0  0  0  3  0  0  0  0  0  0
  -24.8940  -28.9690   20.1750 C   0  0  0  0  0  0  0  0  0  0  0  0
  -25.9820  -30.8260   21.4250 C   0  0  0  0  0  2  0  0  0  0  0  0
  -26.0670  -29.4390   20.7830 C   0  0  0  0  0  0  0  0  0  0  0  0
  -27.2460  -28.6140   20.7920 C   0  0  0  0  0  3  0  0  0  0  0  0
  -26.0520  -26.9160   19.5520 C   0  0  0  0  0  3  0  0  0  0  0  0
  -24.8950  -27.7160   19.5450 C   0  0  0  0  0  3  0  0  0  0  0  0
  -23.6570  -29.8490   20.2180 C   0  0  0  0  0  2  0  0  0  0  0  0
  -24.7020  -31.1150   22.1390 N   0  0  0  0  0  0  0  0  0  0  0  0
  -23.5430  -32.2140   23.7590 O   0  0  0  0  0  0  0  0  0  0  0  0
  -22.7660  -29.5150   22.5580 C   0  0  0  0  0  0  0  0  0  0  0  0
  -21.4390  -29.3410   22.4350 N   0  0  0  0  0  0  0  0  0  0  0  0
  -23.4430  -28.8900   23.3790 O   0  0  0  0  0  0  0  0  0  0  0  0
  -20.9510  -29.8970   21.7480 H   0  0  0  0  0  0  0  0  0  0  0  0
  -18.0590  -28.1510   22.9520 C   0  0  0  0  0  0  0  0  0  0  0  0
  -20.6200  -28.4070   23.2100 C   0  0  0  0  0  3  0  0  0  0  0  0
  -20.7150  -26.9740   22.6370 C   0  0  0  0  0  2  0  0  0  0  0  0
  -19.6090  -26.6510   21.6280 C   0  0  0  0  0  2  0  0  0  0  0  0
  -18.2300  -26.8000   22.2760 C   0  0  0  0  0  2  0  0  0  0  0  0
  -19.1800  -28.9120   23.3760 C   0  0  0  0  0  0  0  0  0  0  0  0
  -18.9660  -30.1750   23.9680 C   0  0  0  0  0  3  0  0  0  0  0  0
  -17.6620  -30.6780   24.1400 C   0  0  0  0  0  3  0  0  0  0  0  0
  -16.5550  -29.9150   23.7320 C   0  0  0  0  0  3  0  0  0  0  0  0
  -16.7540  -28.6530   23.1430 C   0  0  0  0  0  3  0  0  0  0  0  0
  -25.9080  -32.5750   23.8530 C   0  0  0  0  0  3  0  0  0  0  0  0
  -25.5910  -33.9720   24.1830 N   0  0  0  0  0  0  0  0  0  0  0  0
  -25.9180  -35.0280   23.4250 C   0  0  0  0  0  0  0  0  0  0  0  0
  -26.5860  -34.9270   22.3930 O   0  0  0  0  0  0  0  0  0  0  0  0
  -24.9990  -34.1240   24.9860 H   0  0  0  0  0  0  0  0  0  0  0  0
  -24.1840  -36.8170   23.0750 C   0  0  0  0  0  1  0  0  0  0  0  0
  -25.4270  -36.4150   23.8850 C   0  0  0  0  0  3  0  0  0  0  0  0
  -27.5580  -37.3060   24.7170 C   0  0  0  0  0  1  0  0  0  0  0  0
  -26.4560  -37.4710   23.7740 N   0  0  0  0  0  0  0  0  0  0  0  0
  -26.0470  -38.3890   23.9240 H   0  0  0  0  0  0  0  0  0  0  0  0
  -26.4250  -31.8080   25.1330 C   0  0  1  0  0  0  0  0  0  0  0  0
  -25.3310  -31.5680   26.1990 C   0  0  0  0  0  1  0  0  0  0  0  0
  -27.0160  -30.4320   24.7470 C   0  0  0  0  0  1  0  0  0  0  0  0
  -27.5710  -32.6090   25.7950 C   0  0  0  0  0  1  0  0  0  0  0  0
  1  2  1  0
  3 11  1  0
  3  1  2  0
  4 50  1  0
  4  2  2  0
  5  6  2  0
  5  3  1  0
  6  4  1  0
  7  8  1  0
  8  5  1  0
  9 10  1  0
  9  6  1  0
 12 11  1  0
 12 13  2  0
 14 13  1  0
 15 20  1  0
 16 17  1  0
 16 15  1  0
 18 17  1  0
 18 25  1  0
 18 19  1  0
 20 14  1  0
 20 19  1  0
 21 14  2  0
 22 23  2  0
 23 42  1  0
 24 23  1  0
 24 27  1  0
 25 22  1  0
 25 26  1  0
 26 24  2  0
 27 28  1  0
 28 29  2  0
 30 33  1  0
 30 29  1  0
 31 30  2  0
 32 31  1  0
 32 27  2  0
 33 34  1  0
 34 35  1  0
 35 36  2  0
 37 36  1  0
 37 41  1  0
 38 37  2  0
 39 34  2  0
 39 38  1  0
 40 39  1  0
 42 43  1  0
 43 46  1  0
 43 45  1  0
 44 42  2  0
 47 48  1  0
 47 22  1  0
 49 47  1  0
 51 50  1  0
 52 63  2  0
 53 51  1  0
 53 58  1  0
 54 62  1  0
 54 64  1  0
 55 61  1  0
 55 57  1  0
 56 62  1  0
 57 58  2  0
 57 56  1  0
 59 53  2  0
 60 59  1  0
 60 55  2  0
 61 54  1  0
 62 52  1  0
 64 66  2  0
 65 64  1  0
 67 65  1  0
 68 77  2  0
 68 73  1  0
 69 65  1  0
 69 73  1  0
 70 69  1  0
 71 72  1  0
 71 70  1  0
 72 68  1  0
 73 74  2  0
 74 75  1  0
 76 75  2  0
 77 76  1  0
 78 52  1  0
 78 79  1  0
 78 88  1  0
 79 82  1  0
 80 84  1  0
 80 79  1  0
 81 80  2  0
 84 83  1  0
 86 84  1  0
 86 87  1  0
 86 85  1  0
 88 91  1  1
 88 89  1  0
 90 88  1  0
M  ISO  4  13 100  14 100  50 101  51 101
M  END
>  <TORSDO>  (85) 
F 22

>  <SCORE>  (85) 
-13.522

>  <name>  (85) 
84

>  <ligand_id>  (85) 
84

>  <original_smiles>  (85) 
[H]Oc1c(C([H])([H])Oc2c([H])c([H])c3c(c2[H])C([H])([H])N(C(=O)C([H])(N([H])C(=O)C([H])(N([H])C([H])([H])[H])C([H])([H])[H])C(C([H])([H])[H])(C([H])([H])[H])C([H])([H])[H])C([H])(C(=O)N([H])C2([H])c4c([H])c([H])c([H])c([H])c4C([H])([H])C([H])([H])C2([H])[H])C3([H])[H])c([H])c([H])c(C([H])([H])C([H])([H])C([H])([H])C(=O)N2C([H])([H])C([H])([H])C([H])([H])C([H])(n3nc(-c4c([H])c([H])c(Oc5c([H])c([H])c(F)c([H])c5F)c([H])c4[H])c(C(=O)N([H])[H])c3N([H])[H])C2([H])[H])c1C([H])([H])C([H])([H])[H]

>  <smiles>  (85) 
[H]Oc1c(C([H])([H])Oc2c([H])c([H])c3c(c2[H])C([H])([H])N(C(=O)C([H])(N([H])C(=O)C([H])(N([H])C([H])([H])[H])C([H])([H])[H])C(C([H])([H])[H])(C([H])([H])[H])C([H])([H])[H])C([H])(C(=O)N([H])C2([H])c4c([H])c([H])c([H])c([H])c4C([H])([H])C([H])([H])C2([H])[H])C3([H])[H])c([H])c([H])c(C([H])([H])C([H])([H])C([H])([H])C(=O)N2C([H])([H])C([H])([H])C([H])([H])C([H])(n3nc(-c4c([H])c([H])c(Oc5c([H])c([H])c(F)c([H])c5F)c([H])c4[H])c(C(=O)N([H])[H])c3N([H])[H])C2([H])[H])c1C([H])([H])C([H])([H])[H]

$$$$
85:0:0
     RDKit          3D

 91 99  0  0  1  0  0  0  0  0999 V2000
  -30.1230  -22.3510   20.4210 C   0  0  0  0  0  3  0  0  0  0  0  0
  -30.5540  -21.0050   20.5800 C   0  0  0  0  0  3  0  0  0  0  0  0
  -28.7720  -22.6790   20.1400 C   0  0  0  0  0  0  0  0  0  0  0  0
  -29.6610  -19.9120   20.4620 C   0  0  0  0  0  0  0  0  0  0  0  0
  -27.8750  -21.5780   19.9400 C   0  0  0  0  0  0  0  0  0  0  0  0
  -28.3210  -20.2180   20.0840 C   0  0  0  0  0  0  0  0  0  0  0  0
  -26.4010  -21.8240   19.6070 C   0  0  0  0  0  1  0  0  0  0  0  0
  -27.3250  -19.0740   19.9140 C   0  0  0  0  0  1  0  0  0  0  0  0
  -28.2960  -24.1340   20.2720 C   0  0  0  0  0  0  0  0  0  0  0  0
  -27.5670  -24.4730   21.2110 O   0  0  0  0  0  0  0  0  0  0  0  0
  -28.6980  -25.2240   19.2260 C   0  0  0  0  0  2  0  0  0  0  0  0
  -28.5850  -26.6080   19.7180 O   0  0  0  0  0  0  0  0  0  0  0  0
  -24.6250  -31.6040   22.9860 C   0  0  0  0  0  0  0  0  0  0  0  0
  -27.3840  -27.3200   19.7140 C   0  0  0  0  0  0  0  0  0  0  0  0
  -23.4590  -30.2450   21.2830 C   0  0  0  0  0  3  0  0  0  0  0  0
  -24.9520  -28.8080   19.7880 C   0  0  0  0  0  0  0  0  0  0  0  0
  -25.9790  -30.6670   21.1040 C   0  0  0  0  0  2  0  0  0  0  0  0
  -26.1000  -29.3250   20.3980 C   0  0  0  0  0  0  0  0  0  0  0  0
  -27.3150  -28.5900   20.3530 C   0  0  0  0  0  3  0  0  0  0  0  0
  -26.2080  -26.8310   19.1010 C   0  0  0  0  0  3  0  0  0  0  0  0
  -25.0050  -27.5640   19.1350 C   0  0  0  0  0  3  0  0  0  0  0  0
  -23.6870  -29.6360   19.8730 C   0  0  0  0  0  2  0  0  0  0  0  0
  -24.7060  -30.8540   21.8490 N   0  0  0  0  0  0  0  0  0  0  0  0
  -23.5360  -31.8210   23.5370 O   0  0  0  0  0  0  0  0  0  0  0  0
  -22.8330  -29.1660   22.1960 C   0  0  0  0  0  0  0  0  0  0  0  0
  -21.5050  -28.9870   22.0950 N   0  0  0  0  0  0  0  0  0  0  0  0
  -23.5400  -28.4940   22.9510 O   0  0  0  0  0  0  0  0  0  0  0  0
  -20.9950  -29.5840   21.4600 H   0  0  0  0  0  0  0  0  0  0  0  0
  -18.1440  -27.7790   22.6510 C   0  0  0  0  0  0  0  0  0  0  0  0
  -20.7140  -27.9980   22.8280 C   0  0  0  0  0  3  0  0  0  0  0  0
  -20.7770  -26.6150   22.1390 C   0  0  0  0  0  2  0  0  0  0  0  0
  -19.6290  -26.3790   21.1530 C   0  0  0  0  0  2  0  0  0  0  0  0
  -18.2780  -26.4840   21.8660 C   0  0  0  0  0  2  0  0  0  0  0  0
  -19.2890  -28.4970   23.0870 C   0  0  0  0  0  0  0  0  0  0  0  0
  -19.1080  -29.7130   23.7820 C   0  0  0  0  0  3  0  0  0  0  0  0
  -17.8170  -30.2090   24.0440 C   0  0  0  0  0  3  0  0  0  0  0  0
  -16.6880  -29.4850   23.6230 C   0  0  0  0  0  3  0  0  0  0  0  0
  -16.8530  -28.2720   22.9310 C   0  0  0  0  0  3  0  0  0  0  0  0
  -25.8910  -32.2420   23.6370 C   0  0  0  0  0  3  0  0  0  0  0  0
  -25.5390  -33.6100   24.0420 N   0  0  0  0  0  0  0  0  0  0  0  0
  -25.8390  -34.7140   23.3430 C   0  0  0  0  0  0  0  0  0  0  0  0
  -26.5120  -34.6870   22.3080 O   0  0  0  0  0  0  0  0  0  0  0  0
  -24.9410  -33.7030   24.8500 H   0  0  0  0  0  0  0  0  0  0  0  0
  -24.0510  -36.4640   23.0900 C   0  0  0  0  0  1  0  0  0  0  0  0
  -25.3090  -36.0590   23.8750 C   0  0  0  0  0  3  0  0  0  0  0  0
  -27.4160  -36.9690   24.7450 C   0  0  0  0  0  1  0  0  0  0  0  0
  -26.3060  -37.1500   23.8140 N   0  0  0  0  0  0  0  0  0  0  0  0
  -25.8700  -38.0480   24.0110 H   0  0  0  0  0  0  0  0  0  0  0  0
  -26.4400  -31.4230   24.8690 C   0  0  1  0  0  0  0  0  0  0  0  0
  -25.3620  -31.0950   25.9280 C   0  0  0  0  0  1  0  0  0  0  0  0
  -27.0630  -30.0860   24.4010 C   0  0  0  0  0  1  0  0  0  0  0  0
  -27.5700  -32.2160   25.5660 C   0  0  0  0  0  1  0  0  0  0  0  0
  -30.0850  -18.4910   20.9720 C   0  0  0  0  0  2  0  0  0  0  0  0
  -30.3100  -17.2690   19.9980 C   0  0  0  0  0  2  0  0  0  0  0  0
  -30.2460  -15.8510   20.7120 C   0  0  0  0  0  2  0  0  0  0  0  0
  -30.8710  -14.5920   20.0000 C   0  0  0  0  0  0  0  0  0  0  0  0
  -30.5800  -12.3560   18.9490 C   0  0  0  0  0  2  0  0  0  0  0  0
  -29.5840  -12.4810   17.7750 C   0  0  0  0  0  2  0  0  0  0  0  0
  -28.1270  -12.3640   18.2690 C   0  0  0  0  0  2  0  0  0  0  0  0
  -27.8410  -13.2450   19.5160 C   0  0  0  0  0  3  0  0  0  0  0  0
  -28.9430  -13.0570   20.5810 C   0  0  0  0  0  2  0  0  0  0  0  0
  -30.2290  -13.3830   19.9490 N   0  0  0  0  0  0  0  0  0  0  0  0
  -31.9640  -14.7420   19.4430 O   0  0  0  0  0  0  0  0  0  0  0  0
  -25.4990  -13.8980   20.3550 C   0  0  0  0  0  0  0  0  0  0  0  0
  -24.4310  -13.1500   20.7680 C   0  0  0  0  0  0  0  0  0  0  0  0
  -24.8530  -11.7860   20.6940 C   0  0  0  0  0  0  0  0  0  0  0  0
  -26.5070  -12.9930   20.0590 N   0  0  0  0  0  0  0  0  0  0  0  0
  -26.1240  -11.7170   20.3200 N   0  0  0  0  0  0  0  0  0  0  0  0
  -24.1020  -10.5420   20.9030 C   0  0  0  0  0  0  0  0  0  0  0  0
  -24.5150   -9.5800   21.8500 C   0  0  0  0  0  3  0  0  0  0  0  0
  -23.7660   -8.3990   22.0440 C   0  0  0  0  0  3  0  0  0  0  0  0
  -22.5900   -8.1730   21.2920 C   0  0  0  0  0  0  0  0  0  0  0  0
  -22.1960   -9.1230   20.3330 C   0  0  0  0  0  3  0  0  0  0  0  0
  -22.9450  -10.2940   20.1350 C   0  0  0  0  0  3  0  0  0  0  0  0
  -21.8120   -7.0440   21.3970 O   0  0  0  0  0  0  0  0  0  0  0  0
  -21.6980   -6.3560   22.5790 C   0  0  0  0  0  0  0  0  0  0  0  0
  -21.2250   -6.9720   23.7580 C   0  0  0  0  0  3  0  0  0  0  0  0
  -21.0590   -6.2090   24.9320 C   0  0  0  0  0  3  0  0  0  0  0  0
  -21.3560   -4.8340   24.9270 C   0  0  0  0  0  0  0  0  0  0  0  0
  -21.8220   -4.2170   23.7530 C   0  0  0  0  0  3  0  0  0  0  0  0
  -21.9910   -4.9780   22.5810 C   0  0  0  0  0  0  0  0  0  0  0  0
  -22.4210   -4.3740   21.4460 F   0  0  0  0  0  0  0  0  0  0  0  0
  -21.1870   -4.1000   26.0520 F   0  0  0  0  0  0  0  0  0  0  0  0
  -23.0640  -13.6610   21.1210 C   0  0  0  0  0  0  0  0  0  0  0  0
  -22.3680  -12.9760   22.0210 N   0  0  0  0  0  0  0  0  0  0  0  0
  -22.6250  -14.7030   20.6360 O   0  0  0  0  0  0  0  0  0  0  0  0
  -22.7350  -12.1320   22.4350 H   0  0  0  0  0  0  0  0  0  0  0  0
  -21.4540  -13.3030   22.3010 H   0  0  0  0  0  0  0  0  0  0  0  0
  -25.6940  -15.2670   20.1860 N   0  0  0  0  0  0  0  0  0  0  0  0
  -24.9550  -15.9460   20.3360 H   0  0  0  0  0  0  0  0  0  0  0  0
  -26.5440  -15.6780   19.8220 H   0  0  0  0  0  0  0  0  0  0  0  0
  1  2  1  0
  3  9  1  0
  3  1  2  0
  4  2  2  0
  4 53  1  0
  5  6  2  0
  5  3  1  0
  6  4  1  0
  7  5  1  0
  8  6  1  0
  9 10  2  0
 11 12  1  0
 11  9  1  0
 13 24  2  0
 14 12  1  0
 14 19  1  0
 15 23  1  0
 15 25  1  0
 16 22  1  0
 16 18  1  0
 17 23  1  0
 18 17  1  0
 19 18  2  0
 20 21  1  0
 20 14  2  0
 21 16  2  0
 22 15  1  0
 23 13  1  0
 25 27  2  0
 26 25  1  0
 28 26  1  0
 29 38  2  0
 29 34  1  0
 30 26  1  0
 30 34  1  0
 31 30  1  0
 32 33  1  0
 32 31  1  0
 33 29  1  0
 34 35  2  0
 35 36  1  0
 37 36  2  0
 38 37  1  0
 39 13  1  0
 39 40  1  0
 39 49  1  0
 40 43  1  0
 41 45  1  0
 41 40  1  0
 42 41  2  0
 45 44  1  0
 47 45  1  0
 47 48  1  0
 47 46  1  0
 49 52  1  1
 49 50  1  0
 51 49  1  0
 54 55  1  0
 54 53  1  0
 56 55  1  0
 57 62  1  0
 58 59  1  0
 58 57  1  0
 60 59  1  0
 60 67  1  0
 60 61  1  0
 62 56  1  0
 62 61  1  0
 63 56  2  0
 64 65  2  0
 65 84  1  0
 66 65  1  0
 66 69  1  0
 67 68  1  0
 67 64  1  0
 68 66  2  0
 69 70  1  0
 70 71  2  0
 72 75  1  0
 72 71  1  0
 73 72  2  0
 74 73  1  0
 74 69  2  0
 75 76  1  0
 76 81  2  0
 76 77  1  0
 77 78  2  0
 79 78  1  0
 79 83  1  0
 80 79  2  0
 81 80  1  0
 82 81  1  0
 84 85  1  0
 85 88  1  0
 85 87  1  0
 86 84  2  0
 89 90  1  0
 89 64  1  0
 91 89  1  0
M  ISO  4  11 101  12 101  55 100  56 100
M  END
>  <TORSDO>  (86) 
F 21

>  <SCORE>  (86) 
-12.536

>  <name>  (86) 
85

>  <ligand_id>  (86) 
85

>  <original_smiles>  (86) 
[H]c1c([H])c([H])c2c(c1[H])C([H])([H])C([H])([H])C([H])([H])C2([H])N([H])C(=O)C1([H])N(C(=O)C([H])(N([H])C(=O)C([H])(N([H])C([H])([H])[H])C([H])([H])[H])C(C([H])([H])[H])(C([H])([H])[H])C([H])([H])[H])C([H])([H])c2c([H])c(OC([H])([H])C(=O)c3c([H])c([H])c(C([H])([H])C([H])([H])C([H])([H])C(=O)N4C([H])([H])C([H])([H])C([H])([H])C([H])(n5nc(-c6c([H])c([H])c(Oc7c([H])c([H])c(F)c([H])c7F)c([H])c6[H])c(C(=O)N([H])[H])c5N([H])[H])C4([H])[H])c(C([H])([H])[H])c3C([H])([H])[H])c([H])c([H])c2C1([H])[H]

>  <smiles>  (86) 
[H]c1c([H])c([H])c2c(c1[H])C([H])([H])C([H])([H])C([H])([H])C2([H])N([H])C(=O)C1([H])N(C(=O)C([H])(N([H])C(=O)C([H])(N([H])C([H])([H])[H])C([H])([H])[H])C(C([H])([H])[H])(C([H])([H])[H])C([H])([H])[H])C([H])([H])c2c([H])c(OC([H])([H])C(=O)c3c([H])c([H])c(C([H])([H])C([H])([H])C([H])([H])C(=O)N4C([H])([H])C([H])([H])C([H])([H])C([H])(n5nc(-c6c([H])c([H])c(Oc7c([H])c([H])c(F)c([H])c7F)c([H])c6[H])c(C(=O)N([H])[H])c5N([H])[H])C4([H])[H])c(C([H])([H])[H])c3C([H])([H])[H])c([H])c([H])c2C1([H])[H]

$$$$
86:0:0
     RDKit          3D

 92101  0  0  1  0  0  0  0  0999 V2000
  -28.4250  -18.2490   18.9130 C   0  0  0  0  0  3  0  0  0  0  0  0
  -29.8360  -16.8470   20.4770 C   0  0  0  0  0  0  0  0  0  0  0  0
  -28.5440  -19.4810   19.6050 C   0  0  0  0  0  0  0  0  0  0  0  0
  -29.4240  -19.5010   20.7020 C   0  0  0  0  0  0  0  0  0  0  0  0
  -29.1090  -17.0400   19.2490 C   0  0  0  0  0  0  0  0  0  0  0  0
  -30.0170  -18.1830   21.1430 C   0  0  0  0  0  0  0  0  0  0  0  0
  -27.6990  -20.7160   19.1340 C   0  0  0  0  0  2  0  0  0  0  0  0
  -29.8410  -20.9860   21.2050 C   0  0  0  0  0  2  0  0  0  0  0  0
  -28.2670  -22.2000   18.9860 C   0  0  0  0  0  2  0  0  0  0  0  0
  -28.9870  -22.4290   21.3010 C   0  0  0  0  0  2  0  0  0  0  0  0
  -28.1100  -23.2440   20.1700 C   0  0  2  0  0  0  0  0  0  0  0  0
  -29.1830  -16.0410   18.1040 C   0  0  0  0  0  1  0  0  0  0  0  0
  -30.9320  -18.2420   22.3560 C   0  0  0  0  0  1  0  0  0  0  0  0
  -26.6390  -23.2740   20.6360 C   0  0  0  0  0  1  0  0  0  0  0  0
  -30.5880  -15.4070   20.7910 C   0  0  0  0  0  0  0  0  0  0  0  0
  -30.6380  -12.9560   20.0700 C   0  0  0  0  0  2  0  0  0  0  0  0
  -29.8250  -12.6760   18.7820 C   0  0  0  0  0  2  0  0  0  0  0  0
  -28.3250  -12.4910   19.0870 C   0  0  0  0  0  2  0  0  0  0  0  0
  -27.7800  -13.4750   20.1570 C   0  0  0  0  0  3  0  0  0  0  0  0
  -28.7380  -13.6700   21.3420 C   0  0  0  0  0  2  0  0  0  0  0  0
  -30.0230  -14.1180   20.7860 N   0  0  0  0  0  0  0  0  0  0  0  0
  -31.8250  -15.4170   20.7790 O   0  0  0  0  0  0  0  0  0  0  0  0
  -25.3480  -14.0060   20.7210 C   0  0  0  0  0  0  0  0  0  0  0  0
  -24.2720  -13.2090   21.0040 C   0  0  0  0  0  0  0  0  0  0  0  0
  -24.7650  -11.8680   21.0150 C   0  0  0  0  0  0  0  0  0  0  0  0
  -26.4220  -13.1470   20.5680 N   0  0  0  0  0  0  0  0  0  0  0  0
  -26.0780  -11.8560   20.8140 N   0  0  0  0  0  0  0  0  0  0  0  0
  -24.0520  -10.5910   21.1470 C   0  0  0  0  0  0  0  0  0  0  0  0
  -24.4160   -9.6400   22.1240 C   0  0  0  0  0  3  0  0  0  0  0  0
  -23.7000   -8.4300   22.2470 C   0  0  0  0  0  3  0  0  0  0  0  0
  -22.6070   -8.1630   21.3890 C   0  0  0  0  0  0  0  0  0  0  0  0
  -22.2650   -9.1020   20.4010 C   0  0  0  0  0  3  0  0  0  0  0  0
  -22.9820  -10.3040   20.2770 C   0  0  0  0  0  3  0  0  0  0  0  0
  -21.8710   -7.0030   21.4180 O   0  0  0  0  0  0  0  0  0  0  0  0
  -21.7070   -6.2830   22.5740 C   0  0  0  0  0  0  0  0  0  0  0  0
  -21.1020   -6.8430   23.7200 C   0  0  0  0  0  3  0  0  0  0  0  0
  -20.8910   -6.0460   24.8630 C   0  0  0  0  0  3  0  0  0  0  0  0
  -21.2740   -4.6910   24.8600 C   0  0  0  0  0  0  0  0  0  0  0  0
  -21.8710   -4.1320   23.7180 C   0  0  0  0  0  3  0  0  0  0  0  0
  -22.0840   -4.9250   22.5760 C   0  0  0  0  0  0  0  0  0  0  0  0
  -22.6410   -4.3760   21.4700 F   0  0  0  0  0  0  0  0  0  0  0  0
  -21.0640   -3.9250   25.9550 F   0  0  0  0  0  0  0  0  0  0  0  0
  -22.8500  -13.6590   21.1570 C   0  0  0  0  0  0  0  0  0  0  0  0
  -22.0670  -12.9510   21.9630 N   0  0  0  0  0  0  0  0  0  0  0  0
  -22.4360  -14.6740   20.5980 O   0  0  0  0  0  0  0  0  0  0  0  0
  -22.4150  -12.1310   22.4390 H   0  0  0  0  0  0  0  0  0  0  0  0
  -21.1090  -13.2330   22.1100 H   0  0  0  0  0  0  0  0  0  0  0  0
  -25.4980  -15.3790   20.5540 N   0  0  0  0  0  0  0  0  0  0  0  0
  -24.7150  -16.0210   20.6130 H   0  0  0  0  0  0  0  0  0  0  0  0
  -26.3720  -15.8400   20.3290 H   0  0  0  0  0  0  0  0  0  0  0  0
  -28.3460  -24.8780   19.6350 C   0  0  0  0  0  2  0  0  0  0  0  0
  -28.2100  -26.3420   20.2130 O   0  0  0  0  0  0  0  0  0  0  0  0
  -24.5290  -31.9830   23.2220 C   0  0  0  0  0  0  0  0  0  0  0  0
  -27.1400  -27.3180   20.0900 C   0  0  0  0  0  0  0  0  0  0  0  0
  -23.3350  -30.6020   21.5640 C   0  0  0  0  0  3  0  0  0  0  0  0
  -24.7910  -29.0620   20.0930 C   0  0  0  0  0  0  0  0  0  0  0  0
  -25.8840  -30.8900   21.3900 C   0  0  0  0  0  2  0  0  0  0  0  0
  -25.9670  -29.5050   20.7100 C   0  0  0  0  0  0  0  0  0  0  0  0
  -27.1330  -28.6470   20.6950 C   0  0  0  0  0  3  0  0  0  0  0  0
  -25.9390  -26.9850   19.4260 C   0  0  0  0  0  3  0  0  0  0  0  0
  -24.7930  -27.8190   19.4360 C   0  0  0  0  0  3  0  0  0  0  0  0
  -23.5540  -29.9480   20.1710 C   0  0  0  0  0  2  0  0  0  0  0  0
  -24.6030  -31.1810   22.1140 N   0  0  0  0  0  0  0  0  0  0  0  0
  -23.4430  -32.2460   23.7620 O   0  0  0  0  0  0  0  0  0  0  0  0
  -22.6700  -29.5750   22.5160 C   0  0  0  0  0  0  0  0  0  0  0  0
  -21.3430  -29.3900   22.3930 N   0  0  0  0  0  0  0  0  0  0  0  0
  -23.3520  -28.9470   23.3300 O   0  0  0  0  0  0  0  0  0  0  0  0
  -20.8470  -29.9490   21.7120 H   0  0  0  0  0  0  0  0  0  0  0  0
  -17.9810  -28.1370   22.8950 C   0  0  0  0  0  0  0  0  0  0  0  0
  -20.5370  -28.4300   23.1520 C   0  0  0  0  0  3  0  0  0  0  0  0
  -20.6550  -27.0100   22.5540 C   0  0  0  0  0  2  0  0  0  0  0  0
  -19.5520  -26.6900   21.5400 C   0  0  0  0  0  2  0  0  0  0  0  0
  -18.1720  -26.8040   22.1930 C   0  0  0  0  0  2  0  0  0  0  0  0
  -19.0910  -28.9080   23.3320 C   0  0  0  0  0  0  0  0  0  0  0  0
  -18.8560  -30.1540   23.9510 C   0  0  0  0  0  3  0  0  0  0  0  0
  -17.5450  -30.6320   24.1370 C   0  0  0  0  0  3  0  0  0  0  0  0
  -16.4500  -29.8580   23.7150 C   0  0  0  0  0  3  0  0  0  0  0  0
  -16.6680  -28.6130   23.1000 C   0  0  0  0  0  3  0  0  0  0  0  0
  -25.8030  -32.6230   23.8530 C   0  0  0  0  0  3  0  0  0  0  0  0
  -25.4790  -34.0150   24.2050 N   0  0  0  0  0  0  0  0  0  0  0  0
  -25.8320  -35.0890   23.4850 C   0  0  0  0  0  0  0  0  0  0  0  0
  -26.5270  -35.0110   22.4680 O   0  0  0  0  0  0  0  0  0  0  0  0
  -24.8640  -34.1490   24.9940 H   0  0  0  0  0  0  0  0  0  0  0  0
  -24.1390  -36.9150   23.1090 C   0  0  0  0  0  1  0  0  0  0  0  0
  -25.3340  -36.4670   23.9660 C   0  0  0  0  0  3  0  0  0  0  0  0
  -27.4280  -37.3070   24.9390 C   0  0  0  0  0  1  0  0  0  0  0  0
  -26.3810  -37.5130   23.9420 N   0  0  0  0  0  0  0  0  0  0  0  0
  -25.9760  -38.4330   24.0950 H   0  0  0  0  0  0  0  0  0  0  0  0
  -26.3230  -31.8450   25.1250 C   0  0  1  0  0  0  0  0  0  0  0  0
  -25.2290  -31.5930   26.1890 C   0  0  0  0  0  1  0  0  0  0  0  0
  -26.9160  -30.4740   24.7260 C   0  0  0  0  0  1  0  0  0  0  0  0
  -27.4660  -32.6400   25.7950 C   0  0  0  0  0  1  0  0  0  0  0  0
  1  5  2  0
  1  3  1  0
  2 15  1  0
  2  6  2  0
  3  4  2  0
  4  6  1  0
  4  8  1  0
  5  2  1  0
  6 13  1  0
  7  3  1  0
  8 10  1  0
  9  7  1  0
  9 11  1  0
 11 14  1  1
 11 10  1  0
 12  5  1  0
 16 21  1  0
 17 18  1  0
 17 16  1  0
 19 18  1  0
 19 26  1  0
 19 20  1  0
 21 15  1  0
 21 20  1  0
 22 15  2  0
 23 24  2  0
 24 25  1  0
 24 43  1  0
 25 28  1  0
 26 23  1  0
 26 27  1  0
 27 25  2  0
 28 29  1  0
 29 30  2  0
 31 34  1  0
 31 30  1  0
 32 31  2  0
 33 32  1  0
 33 28  2  0
 34 35  1  0
 35 40  2  0
 35 36  1  0
 36 37  2  0
 38 37  1  0
 38 42  1  0
 39 38  2  0
 40 39  1  0
 41 40  1  0
 43 44  1  0
 44 47  1  0
 44 46  1  0
 45 43  2  0
 48 49  1  0
 48 23  1  0
 50 48  1  0
 51 11  1  0
 51 52  1  0
 53 64  2  0
 54 52  1  0
 54 59  1  0
 55 63  1  0
 55 65  1  0
 56 62  1  0
 56 58  1  0
 57 63  1  0
 58 57  1  0
 59 58  2  0
 60 61  1  0
 60 54  2  0
 61 56  2  0
 62 55  1  0
 63 53  1  0
 65 67  2  0
 66 65  1  0
 68 66  1  0
 69 78  2  0
 69 74  1  0
 70 66  1  0
 70 74  1  0
 71 70  1  0
 72 73  1  0
 72 71  1  0
 73 69  1  0
 74 75  2  0
 75 76  1  0
 77 76  2  0
 78 77  1  0
 79 53  1  0
 79 80  1  0
 79 89  1  0
 80 83  1  0
 81 85  1  0
 81 80  1  0
 82 81  2  0
 85 84  1  0
 87 85  1  0
 87 88  1  0
 87 86  1  0
 89 92  1  1
 89 90  1  0
 91 89  1  0
M  ISO  4   2 100  15 100  51 101  52 101
M  END
>  <TORSDO>  (87) 
F 17

>  <SCORE>  (87) 
-14.645

>  <name>  (87) 
86

>  <ligand_id>  (87) 
86

>  <original_smiles>  (87) 
[H]c1c([H])c([H])c2c(c1[H])C([H])([H])C([H])([H])C([H])([H])C2([H])N([H])C(=O)C1([H])N(C(=O)C([H])(N([H])C(=O)C([H])(N([H])C([H])([H])[H])C([H])([H])[H])C(C([H])([H])[H])(C([H])([H])[H])C([H])([H])[H])C([H])([H])c2c([H])c(OC([H])([H])C3(C([H])([H])[H])C([H])([H])C([H])([H])c4c([H])c(C([H])([H])[H])c(C(=O)N5C([H])([H])C([H])([H])C([H])([H])C([H])(n6nc(-c7c([H])c([H])c(Oc8c([H])c([H])c(F)c([H])c8F)c([H])c7[H])c(C(=O)N([H])[H])c6N([H])[H])C5([H])[H])c(C([H])([H])[H])c4C([H])([H])C3([H])[H])c([H])c([H])c2C1([H])[H]

>  <smiles>  (87) 
[H]c1c([H])c([H])c2c(c1[H])C([H])([H])C([H])([H])C([H])([H])C2([H])N([H])C(=O)C1([H])N(C(=O)C([H])(N([H])C(=O)C([H])(N([H])C([H])([H])[H])C([H])([H])[H])C(C([H])([H])[H])(C([H])([H])[H])C([H])([H])[H])C([H])([H])c2c([H])c(OC([H])([H])C3(C([H])([H])[H])C([H])([H])C([H])([H])c4c([H])c(C([H])([H])[H])c(C(=O)N5C([H])([H])C([H])([H])C([H])([H])C([H])(n6nc(-c7c([H])c([H])c(Oc8c([H])c([H])c(F)c([H])c8F)c([H])c7[H])c(C(=O)N([H])[H])c6N([H])[H])C5([H])[H])c(C([H])([H])[H])c4C([H])([H])C3([H])[H])c([H])c([H])c2C1([H])[H]

$$$$
87:0:0
     RDKit          3D

 89 97  0  0  1  0  0  0  0  0999 V2000
  -27.3090  -21.4520   19.8500 C   0  0  0  0  0  3  0  0  0  0  0  0
  -26.7100  -23.8910   19.9020 C   0  0  0  0  0  3  0  0  0  0  0  0
  -26.3920  -22.5220   19.6810 C   0  0  0  0  0  0  0  0  0  0  0  0
  -28.6310  -21.6280   20.2980 C   0  0  0  0  0  0  0  0  0  0  0  0
  -28.9260  -23.1550   20.4650 C   0  0  0  0  0  0  0  0  0  0  0  0
  -27.9950  -24.3930   20.2380 C   0  0  0  0  0  0  0  0  0  0  0  0
  -24.9730  -22.1880   19.2590 C   0  0  0  0  0  1  0  0  0  0  0  0
  -30.3190  -23.4840   20.9600 C   0  0  0  0  0  1  0  0  0  0  0  0
  -28.1750  -25.9460   20.3280 O   0  0  0  0  0  0  0  0  0  0  0  0
  -24.6030  -32.0010   23.2710 C   0  0  0  0  0  0  0  0  0  0  0  0
  -27.1910  -27.0950   20.2550 C   0  0  0  0  0  0  0  0  0  0  0  0
  -23.4330  -30.6120   21.6120 C   0  0  0  0  0  3  0  0  0  0  0  0
  -24.9060  -29.0260   20.1860 C   0  0  0  0  0  0  0  0  0  0  0  0
  -26.0040  -30.8070   21.5140 C   0  0  0  0  0  2  0  0  0  0  0  0
  -26.0790  -29.3970   20.8540 C   0  0  0  0  0  0  0  0  0  0  0  0
  -27.2040  -28.4470   20.8830 C   0  0  0  0  0  3  0  0  0  0  0  0
  -26.0290  -26.9510   19.4570 C   0  0  0  0  0  3  0  0  0  0  0  0
  -24.9100  -27.8240   19.4650 C   0  0  0  0  0  3  0  0  0  0  0  0
  -23.6840  -29.9450   20.2320 C   0  0  0  0  0  2  0  0  0  0  0  0
  -24.7010  -31.1700   22.1840 N   0  0  0  0  0  0  0  0  0  0  0  0
  -23.5060  -32.2870   23.7790 O   0  0  0  0  0  0  0  0  0  0  0  0
  -22.7310  -29.6060   22.5620 C   0  0  0  0  0  0  0  0  0  0  0  0
  -21.4050  -29.4260   22.4120 N   0  0  0  0  0  0  0  0  0  0  0  0
  -23.3860  -28.9910   23.4050 O   0  0  0  0  0  0  0  0  0  0  0  0
  -20.9270  -29.9750   21.7120 H   0  0  0  0  0  0  0  0  0  0  0  0
  -18.0260  -28.1820   22.8710 C   0  0  0  0  0  0  0  0  0  0  0  0
  -20.5800  -28.4770   23.1680 C   0  0  0  0  0  3  0  0  0  0  0  0
  -20.7030  -27.0480   22.5910 C   0  0  0  0  0  2  0  0  0  0  0  0
  -19.6190  -26.7170   21.5610 C   0  0  0  0  0  2  0  0  0  0  0  0
  -18.2280  -26.8410   22.1870 C   0  0  0  0  0  2  0  0  0  0  0  0
  -19.1300  -28.9580   23.3160 C   0  0  0  0  0  0  0  0  0  0  0  0
  -18.8860  -30.2120   23.9190 C   0  0  0  0  0  3  0  0  0  0  0  0
  -17.5710  -30.6910   24.0780 C   0  0  0  0  0  3  0  0  0  0  0  0
  -16.4830  -29.9140   23.6440 C   0  0  0  0  0  3  0  0  0  0  0  0
  -16.7110  -28.6610   23.0470 C   0  0  0  0  0  3  0  0  0  0  0  0
  -25.8640  -32.6470   23.9200 C   0  0  0  0  0  3  0  0  0  0  0  0
  -25.5510  -34.0580   24.2120 N   0  0  0  0  0  0  0  0  0  0  0  0
  -25.8980  -35.0980   23.4430 C   0  0  0  0  0  0  0  0  0  0  0  0
  -26.5770  -34.9710   22.4190 O   0  0  0  0  0  0  0  0  0  0  0  0
  -24.9480  -34.2290   25.0030 H   0  0  0  0  0  0  0  0  0  0  0  0
  -24.1850  -36.9030   23.0520 C   0  0  0  0  0  1  0  0  0  0  0  0
  -25.4210  -36.5010   23.8730 C   0  0  0  0  0  3  0  0  0  0  0  0
  -27.5540  -37.3980   24.7000 C   0  0  0  0  0  1  0  0  0  0  0  0
  -26.4620  -37.5440   23.7400 N   0  0  0  0  0  0  0  0  0  0  0  0
  -26.0610  -38.4720   23.8560 H   0  0  0  0  0  0  0  0  0  0  0  0
  -26.3250  -31.9110   25.2390 C   0  0  1  0  0  0  0  0  0  0  0  0
  -25.1900  -31.7120   26.2720 C   0  0  0  0  0  1  0  0  0  0  0  0
  -26.9140  -30.5170   24.9240 C   0  0  0  0  0  1  0  0  0  0  0  0
  -27.4550  -32.7190   25.9200 C   0  0  0  0  0  1  0  0  0  0  0  0
  -29.4300  -20.1020   20.7230 C   0  0  0  0  0  2  0  0  0  0  0  0
  -29.6110  -18.4530   19.9570 C   0  0  0  0  0  2  0  0  0  0  0  0
  -30.5190  -15.5790   20.2550 C   0  0  0  0  0  0  0  0  0  0  0  0
  -30.5440  -13.1150   19.4010 C   0  0  0  0  0  2  0  0  0  0  0  0
  -29.6380  -12.8950   18.1610 C   0  0  0  0  0  2  0  0  0  0  0  0
  -28.1900  -12.6010   18.5880 C   0  0  0  0  0  2  0  0  0  0  0  0
  -27.7210  -13.5510   19.7170 C   0  0  0  0  0  3  0  0  0  0  0  0
  -28.7600  -13.7140   20.8500 C   0  0  0  0  0  2  0  0  0  0  0  0
  -29.9890  -14.2490   20.2390 N   0  0  0  0  0  0  0  0  0  0  0  0
  -31.7120  -15.6030   19.9150 O   0  0  0  0  0  0  0  0  0  0  0  0
  -29.7410  -16.8390   20.4730 N   0  0  0  0  0  0  0  0  0  0  0  0
  -28.8620  -16.5700   20.8920 H   0  0  0  0  0  0  0  0  0  0  0  0
  -25.3390  -14.0740   20.4560 C   0  0  0  0  0  0  0  0  0  0  0  0
  -24.2870  -13.2830   20.8230 C   0  0  0  0  0  0  0  0  0  0  0  0
  -24.7730  -11.9390   20.7980 C   0  0  0  0  0  0  0  0  0  0  0  0
  -26.3960  -13.2140   20.2180 N   0  0  0  0  0  0  0  0  0  0  0  0
  -26.0670  -11.9230   20.4920 N   0  0  0  0  0  0  0  0  0  0  0  0
  -24.0610  -10.6680   20.9880 C   0  0  0  0  0  0  0  0  0  0  0  0
  -24.4850   -9.7170   21.9410 C   0  0  0  0  0  3  0  0  0  0  0  0
  -23.7700   -8.5140   22.1210 C   0  0  0  0  0  3  0  0  0  0  0  0
  -22.6140   -8.2520   21.3450 C   0  0  0  0  0  0  0  0  0  0  0  0
  -22.2100   -9.1920   20.3820 C   0  0  0  0  0  3  0  0  0  0  0  0
  -22.9270  -10.3860   20.2000 C   0  0  0  0  0  3  0  0  0  0  0  0
  -21.8730   -7.0980   21.4310 O   0  0  0  0  0  0  0  0  0  0  0  0
  -21.7950   -6.3780   22.5960 C   0  0  0  0  0  0  0  0  0  0  0  0
  -21.2830   -6.9370   23.7870 C   0  0  0  0  0  3  0  0  0  0  0  0
  -21.1580   -6.1390   24.9420 C   0  0  0  0  0  3  0  0  0  0  0  0
  -21.5350   -4.7830   24.9080 C   0  0  0  0  0  0  0  0  0  0  0  0
  -22.0420   -4.2240   23.7200 C   0  0  0  0  0  3  0  0  0  0  0  0
  -22.1680   -5.0180   22.5680 C   0  0  0  0  0  0  0  0  0  0  0  0
  -22.6360   -4.4680   21.4210 F   0  0  0  0  0  0  0  0  0  0  0  0
  -21.4080   -4.0150   26.0140 F   0  0  0  0  0  0  0  0  0  0  0  0
  -22.8820  -13.7430   21.0820 C   0  0  0  0  0  0  0  0  0  0  0  0
  -22.1590  -13.0470   21.9520 N   0  0  0  0  0  0  0  0  0  0  0  0
  -22.4340  -14.7570   20.5480 O   0  0  0  0  0  0  0  0  0  0  0  0
  -22.5350  -12.2290   22.4080 H   0  0  0  0  0  0  0  0  0  0  0  0
  -21.2170  -13.3400   22.1690 H   0  0  0  0  0  0  0  0  0  0  0  0
  -25.4810  -15.4460   20.2760 N   0  0  0  0  0  0  0  0  0  0  0  0
  -24.7000  -16.0840   20.3810 H   0  0  0  0  0  0  0  0  0  0  0  0
  -26.3140  -15.8970   19.9160 H   0  0  0  0  0  0  0  0  0  0  0  0
  1  4  1  0
  2  6  2  0
  3  1  2  0
  3  2  1  0
  4  5  2  0
  4 50  1  0
  5  8  1  0
  6  9  1  0
  6  5  1  0
  7  3  1  0
 10 21  2  0
 11  9  1  0
 11 16  1  0
 12 20  1  0
 12 22  1  0
 13 19  1  0
 13 15  1  0
 14 20  1  0
 15 16  2  0
 15 14  1  0
 17 18  1  0
 17 11  2  0
 18 13  2  0
 19 12  1  0
 20 10  1  0
 22 24  2  0
 23 22  1  0
 25 23  1  0
 26 35  2  0
 26 31  1  0
 27 23  1  0
 27 31  1  0
 28 27  1  0
 29 30  1  0
 29 28  1  0
 30 26  1  0
 31 32  2  0
 32 33  1  0
 34 33  2  0
 35 34  1  0
 36 10  1  0
 36 37  1  0
 36 46  1  0
 37 40  1  0
 38 42  1  0
 38 37  1  0
 39 38  2  0
 42 41  1  0
 44 45  1  0
 44 42  1  0
 44 43  1  0
 46 49  1  1
 46 47  1  0
 48 46  1  0
 51 60  1  0
 51 50  1  0
 52 60  1  0
 53 58  1  0
 54 55  1  0
 54 53  1  0
 56 55  1  0
 56 65  1  0
 56 57  1  0
 58 52  1  0
 58 57  1  0
 59 52  2  0
 60 61  1  0
 62 63  2  0
 63 82  1  0
 64 63  1  0
 64 67  1  0
 65 62  1  0
 65 66  1  0
 66 64  2  0
 67 68  1  0
 68 69  2  0
 70 73  1  0
 70 69  1  0
 71 70  2  0
 72 71  1  0
 72 67  2  0
 73 74  1  0
 74 75  1  0
 75 76  2  0
 77 76  1  0
 77 81  1  0
 78 77  2  0
 79 74  2  0
 79 78  1  0
 80 79  1  0
 82 83  1  0
 83 86  1  0
 83 85  1  0
 84 82  2  0
 87 88  1  0
 87 62  1  0
 89 87  1  0
M  ISO  4   6 101   9 101  52 100  60 100
M  END
>  <TORSDO>  (88) 
F 18

>  <SCORE>  (88) 
-15.472

>  <name>  (88) 
87

>  <ligand_id>  (88) 
87

>  <original_smiles>  (88) 
[H]c1c([H])c([H])c2c(c1[H])C([H])([H])C([H])([H])C([H])([H])C2([H])N([H])C(=O)C1([H])N(C(=O)C([H])(N([H])C(=O)C([H])(N([H])C([H])([H])[H])C([H])([H])[H])C(C([H])([H])[H])(C([H])([H])[H])C([H])([H])[H])C([H])([H])c2c([H])c(Oc3c([H])c(C([H])([H])[H])c([H])c(C([H])([H])C([H])([H])N([H])C(=O)N4C([H])([H])C([H])([H])C([H])([H])C([H])(n5nc(-c6c([H])c([H])c(Oc7c([H])c([H])c(F)c([H])c7F)c([H])c6[H])c(C(=O)N([H])[H])c5N([H])[H])C4([H])[H])c3C([H])([H])[H])c([H])c([H])c2C1([H])[H]

>  <smiles>  (88) 
[H]c1c([H])c([H])c2c(c1[H])C([H])([H])C([H])([H])C([H])([H])C2([H])N([H])C(=O)C1([H])N(C(=O)C([H])(N([H])C(=O)C([H])(N([H])C([H])([H])[H])C([H])([H])[H])C(C([H])([H])[H])(C([H])([H])[H])C([H])([H])[H])C([H])([H])c2c([H])c(Oc3c([H])c(C([H])([H])[H])c([H])c(C([H])([H])C([H])([H])N([H])C(=O)N4C([H])([H])C([H])([H])C([H])([H])C([H])(n5nc(-c6c([H])c([H])c(Oc7c([H])c([H])c(F)c([H])c7F)c([H])c6[H])c(C(=O)N([H])[H])c5N([H])[H])C4([H])[H])c3C([H])([H])[H])c([H])c([H])c2C1([H])[H]

$$$$
88:0:0
     RDKit          3D

 94103  0  0  1  0  0  0  0  0999 V2000
  -27.8730  -22.7720   21.9090 C   0  0  0  0  0  3  0  0  0  0  0  0
  -27.4720  -23.9520   22.5470 C   0  0  0  0  0  3  0  0  0  0  0  0
  -28.5270  -22.7890   20.6610 C   0  0  0  0  0  0  0  0  0  0  0  0
  -28.7080  -24.0740   20.0270 C   0  0  0  0  0  0  0  0  0  0  0  0
  -27.6610  -25.2080   21.9380 C   0  0  0  0  0  0  0  0  0  0  0  0
  -28.2500  -25.2990   20.6480 C   0  0  0  0  0  0  0  0  0  0  0  0
  -29.3980  -24.1350   18.6750 C   0  0  0  0  0  1  0  0  0  0  0  0
  -26.0210  -26.3210   23.2380 C   0  0  0  0  0  1  0  0  0  0  0  0
  -27.2920  -26.3570   22.6000 O   0  0  0  0  0  0  0  0  0  0  0  0
  -28.3860  -26.5690   20.0450 O   0  0  0  0  0  0  0  0  0  0  0  0
  -24.6680  -31.8450   23.1870 C   0  0  0  0  0  0  0  0  0  0  0  0
  -27.2770  -27.4170   20.0070 C   0  0  0  0  0  0  0  0  0  0  0  0
  -23.4540  -30.4770   21.5270 C   0  0  0  0  0  3  0  0  0  0  0  0
  -24.8970  -28.9720   20.0500 C   0  0  0  0  0  0  0  0  0  0  0  0
  -25.9870  -30.8310   21.3190 C   0  0  0  0  0  2  0  0  0  0  0  0
  -26.0650  -29.4760   20.6390 C   0  0  0  0  0  0  0  0  0  0  0  0
  -27.2640  -28.7130   20.5990 C   0  0  0  0  0  3  0  0  0  0  0  0
  -26.0910  -26.9460   19.4070 C   0  0  0  0  0  3  0  0  0  0  0  0
  -24.9090  -27.7120   19.4300 C   0  0  0  0  0  3  0  0  0  0  0  0
  -23.6540  -29.8340   20.1280 C   0  0  0  0  0  2  0  0  0  0  0  0
  -24.7210  -31.0710   22.0670 N   0  0  0  0  0  0  0  0  0  0  0  0
  -23.5880  -32.1000   23.7440 O   0  0  0  0  0  0  0  0  0  0  0  0
  -22.8130  -29.4320   22.4720 C   0  0  0  0  0  0  0  0  0  0  0  0
  -21.4870  -29.2410   22.3530 N   0  0  0  0  0  0  0  0  0  0  0  0
  -23.5040  -28.7990   23.2720 O   0  0  0  0  0  0  0  0  0  0  0  0
  -20.9840  -29.7970   21.6780 H   0  0  0  0  0  0  0  0  0  0  0  0
  -18.1300  -28.0030   22.8760 C   0  0  0  0  0  0  0  0  0  0  0  0
  -20.6890  -28.2800   23.1170 C   0  0  0  0  0  3  0  0  0  0  0  0
  -20.7980  -26.8610   22.5110 C   0  0  0  0  0  2  0  0  0  0  0  0
  -19.6830  -26.5430   21.5090 C   0  0  0  0  0  2  0  0  0  0  0  0
  -18.3090  -26.6660   22.1730 C   0  0  0  0  0  2  0  0  0  0  0  0
  -19.2460  -28.7670   23.3050 C   0  0  0  0  0  0  0  0  0  0  0  0
  -19.0240  -30.0160   23.9240 C   0  0  0  0  0  3  0  0  0  0  0  0
  -17.7170  -30.5050   24.1130 C   0  0  0  0  0  3  0  0  0  0  0  0
  -16.6150  -29.7400   23.6950 C   0  0  0  0  0  3  0  0  0  0  0  0
  -16.8210  -28.4880   23.0870 C   0  0  0  0  0  3  0  0  0  0  0  0
  -25.9520  -32.4740   23.8110 C   0  0  0  0  0  3  0  0  0  0  0  0
  -26.4910  -31.6850   25.0670 C   0  0  1  0  0  0  0  0  0  0  0  0
  -25.4110  -31.4200   26.1410 C   0  0  0  0  0  1  0  0  0  0  0  0
  -27.0840  -30.3210   24.6460 C   0  0  0  0  0  1  0  0  0  0  0  0
  -27.6430  -32.4790   25.7320 C   0  0  0  0  0  1  0  0  0  0  0  0
  -25.6410  -33.8620   24.1750 N   0  0  0  0  0  0  0  0  0  0  0  0
  -25.9610  -34.9360   23.4390 C   0  0  0  0  0  0  0  0  0  0  0  0
  -26.6240  -34.8620   22.4020 O   0  0  0  0  0  0  0  0  0  0  0  0
  -25.0720  -33.9990   24.9980 H   0  0  0  0  0  0  0  0  0  0  0  0
  -24.2240  -36.7250   23.1240 C   0  0  0  0  0  1  0  0  0  0  0  0
  -25.4660  -36.3100   23.9280 C   0  0  0  0  0  3  0  0  0  0  0  0
  -27.5950  -37.1800   24.7930 C   0  0  0  0  0  1  0  0  0  0  0  0
  -26.4950  -37.3720   23.8520 N   0  0  0  0  0  0  0  0  0  0  0  0
  -26.0800  -38.2820   24.0300 H   0  0  0  0  0  0  0  0  0  0  0  0
  -29.0320  -21.4280   20.0620 C   0  0  0  0  0  3  0  0  0  0  0  0
  -28.8550  -20.1330   20.9580 C   0  0  0  0  0  3  0  0  0  0  0  0
  -30.8400  -14.6510   19.9990 C   0  0  0  0  0  0  0  0  0  0  0  0
  -30.5370  -12.4480   18.9260 C   0  0  0  0  0  2  0  0  0  0  0  0
  -29.5330  -12.6110   17.7660 C   0  0  0  0  0  2  0  0  0  0  0  0
  -28.0820  -12.4640   18.2700 C   0  0  0  0  0  2  0  0  0  0  0  0
  -27.7950  -13.3020   19.5460 C   0  0  0  0  0  3  0  0  0  0  0  0
  -28.9130  -13.1400   20.5980 C   0  0  0  0  0  2  0  0  0  0  0  0
  -30.1880  -13.4550   19.9440 N   0  0  0  0  0  0  0  0  0  0  0  0
  -31.9910  -14.7790   19.5680 O   0  0  0  0  0  0  0  0  0  0  0  0
  -28.9600  -17.9420   19.4490 C   0  0  0  0  0  2  0  0  0  0  0  0
  -29.6200  -17.7920   21.7870 C   0  0  0  0  0  2  0  0  0  0  0  0
  -29.8170  -16.6750   19.1390 C   0  0  0  0  0  2  0  0  0  0  0  0
  -30.4480  -16.5040   21.5110 C   0  0  0  0  0  2  0  0  0  0  0  0
  -29.5720  -18.7750   20.5920 C   0  0  0  0  0  3  0  0  0  0  0  0
  -30.0890  -15.7640   20.2840 N   0  0  0  0  0  0  0  0  0  0  0  0
  -25.4590  -13.8840   20.4400 C   0  0  0  0  0  0  0  0  0  0  0  0
  -24.4120  -13.1010   20.8430 C   0  0  0  0  0  0  0  0  0  0  0  0
  -24.8650  -11.7510   20.7370 C   0  0  0  0  0  0  0  0  0  0  0  0
  -26.4800  -13.0090   20.1060 N   0  0  0  0  0  0  0  0  0  0  0  0
  -26.1310  -11.7180   20.3430 N   0  0  0  0  0  0  0  0  0  0  0  0
  -24.1440  -10.4830   20.9250 C   0  0  0  0  0  0  0  0  0  0  0  0
  -24.5630   -9.5300   21.8800 C   0  0  0  0  0  3  0  0  0  0  0  0
  -23.8420   -8.3290   22.0560 C   0  0  0  0  0  3  0  0  0  0  0  0
  -22.6890   -8.0740   21.2760 C   0  0  0  0  0  0  0  0  0  0  0  0
  -22.2900   -9.0150   20.3120 C   0  0  0  0  0  3  0  0  0  0  0  0
  -23.0120  -10.2070   20.1340 C   0  0  0  0  0  3  0  0  0  0  0  0
  -21.9420   -6.9230   21.3590 O   0  0  0  0  0  0  0  0  0  0  0  0
  -21.7770   -6.2570   22.5480 C   0  0  0  0  0  0  0  0  0  0  0  0
  -21.2100   -6.8810   23.6800 C   0  0  0  0  0  3  0  0  0  0  0  0
  -20.9950   -6.1390   24.8600 C   0  0  0  0  0  3  0  0  0  0  0  0
  -21.3350   -4.7730   24.9040 C   0  0  0  0  0  0  0  0  0  0  0  0
  -21.8950   -4.1490   23.7750 C   0  0  0  0  0  3  0  0  0  0  0  0
  -22.1120   -4.8890   22.6000 C   0  0  0  0  0  0  0  0  0  0  0  0
  -22.6300   -4.2780   21.5070 F   0  0  0  0  0  0  0  0  0  0  0  0
  -21.1230   -4.0570   26.0320 F   0  0  0  0  0  0  0  0  0  0  0  0
  -23.0370  -13.5740   21.2190 C   0  0  0  0  0  0  0  0  0  0  0  0
  -22.3610  -12.8530   22.1060 N   0  0  0  0  0  0  0  0  0  0  0  0
  -22.5740  -14.6180   20.7630 O   0  0  0  0  0  0  0  0  0  0  0  0
  -22.7480  -12.0100   22.5010 H   0  0  0  0  0  0  0  0  0  0  0  0
  -21.4390  -13.1480   22.3900 H   0  0  0  0  0  0  0  0  0  0  0  0
  -25.6220  -15.2590   20.3070 N   0  0  0  0  0  0  0  0  0  0  0  0
  -24.8690  -15.9130   20.4960 H   0  0  0  0  0  0  0  0  0  0  0  0
  -26.4710  -15.7100   19.9900 H   0  0  0  0  0  0  0  0  0  0  0  0
  1  2  1  0
  3  1  2  0
  4  6  2  0
  4  3  1  0
  5  2  2  0
  5  9  1  0
  6  5  1  0
  7  4  1  0
  9  8  1  0
 10  6  1  0
 11 22  2  0
 12 10  1  0
 12 17  1  0
 13 21  1  0
 13 23  1  0
 14 20  1  0
 14 16  1  0
 15 21  1  0
 16 15  1  0
 17 16  2  0
 18 19  1  0
 18 12  2  0
 19 14  2  0
 20 13  1  0
 21 11  1  0
 23 25  2  0
 24 23  1  0
 26 24  1  0
 27 36  2  0
 27 32  1  0
 28 24  1  0
 28 32  1  0
 29 28  1  0
 30 31  1  0
 30 29  1  0
 31 27  1  0
 32 33  2  0
 33 34  1  0
 35 34  2  0
 36 35  1  0
 37 11  1  0
 37 42  1  0
 37 38  1  0
 38 41  1  1
 38 39  1  0
 40 38  1  0
 42 45  1  0
 43 47  1  0
 43 42  1  0
 44 43  2  0
 47 46  1  0
 49 47  1  0
 49 50  1  0
 49 48  1  0
 51  3  1  0
 51 52  2  0
 53 66  1  0
 54 59  1  0
 55 56  1  0
 55 54  1  0
 57 56  1  0
 57 70  1  0
 57 58  1  0
 59 53  1  0
 59 58  1  0
 60 53  2  0
 61 65  1  0
 63 61  1  0
 63 66  1  0
 64 62  1  0
 65 52  1  0
 65 62  1  0
 66 64  1  0
 67 68  2  0
 68 87  1  0
 69 68  1  0
 69 72  1  0
 70 71  1  0
 70 67  1  0
 71 69  2  0
 72 73  1  0
 73 74  2  0
 75 78  1  0
 75 74  1  0
 76 75  2  0
 77 76  1  0
 77 72  2  0
 78 79  1  0
 79 84  2  0
 79 80  1  0
 80 81  2  0
 81 82  1  0
 82 86  1  0
 83 82  2  0
 84 83  1  0
 85 84  1  0
 87 88  1  0
 88 91  1  0
 88 90  1  0
 89 87  2  0
 92 67  1  0
 92 93  1  0
 94 92  1  0
M  ISO  4   6 101  10 101  53 100  66 100
M  END
>  <TORSDO>  (89) 
F 19

>  <SCORE>  (89) 
-13.254

>  <name>  (89) 
88

>  <ligand_id>  (89) 
88

>  <original_smiles>  (89) 
[H]c1c([H])c([H])c2c(c1[H])C([H])([H])C([H])([H])C([H])([H])C2([H])N([H])C(=O)C1([H])N(C(=O)C([H])(N([H])C(=O)C([H])(N([H])C([H])([H])[H])C([H])([H])[H])C(C([H])([H])[H])(C([H])([H])[H])C([H])([H])[H])C([H])([H])c2c([H])c(Oc3c(OC([H])([H])[H])c([H])c([H])c(C([H])([H])C([H])([H])C4([H])C([H])([H])C([H])([H])N(C(=O)N5C([H])([H])C([H])([H])C([H])([H])C([H])(n6nc(-c7c([H])c([H])c(Oc8c([H])c([H])c(F)c([H])c8F)c([H])c7[H])c(C(=O)N([H])[H])c6N([H])[H])C5([H])[H])C([H])([H])C4([H])[H])c3C([H])([H])[H])c([H])c([H])c2C1([H])[H]

>  <smiles>  (89) 
[H]c1c([H])c([H])c2c(c1[H])C([H])([H])C([H])([H])C([H])([H])C2([H])N([H])C(=O)C1([H])N(C(=O)C([H])(N([H])C(=O)C([H])(N([H])C([H])([H])[H])C([H])([H])[H])C(C([H])([H])[H])(C([H])([H])[H])C([H])([H])[H])C([H])([H])c2c([H])c(Oc3c(OC([H])([H])[H])c([H])c([H])c(C([H])([H])C([H])([H])C4([H])C([H])([H])C([H])([H])N(C(=O)N5C([H])([H])C([H])([H])C([H])([H])C([H])(n6nc(-c7c([H])c([H])c(Oc8c([H])c([H])c(F)c([H])c8F)c([H])c7[H])c(C(=O)N([H])[H])c6N([H])[H])C5([H])[H])C([H])([H])C4([H])[H])c3C([H])([H])[H])c([H])c([H])c2C1([H])[H]

$$$$
89:0:0
     RDKit          3D

 94103  0  0  1  0  0  0  0  0999 V2000
  -25.0720  -25.0650   21.8150 C   0  0  0  0  0  3  0  0  0  0  0  0
  -26.1610  -25.9240   21.6240 C   0  0  0  0  0  3  0  0  0  0  0  0
  -27.2100  -24.2830   20.1910 C   0  0  0  0  0  3  0  0  0  0  0  0
  -25.0170  -23.7930   21.2020 C   0  0  0  0  0  0  0  0  0  0  0  0
  -26.1430  -23.3310   20.4510 C   0  0  0  0  0  0  0  0  0  0  0  0
  -27.2180  -25.6290   20.7290 C   0  0  0  0  0  0  0  0  0  0  0  0
  -22.4000  -23.7120   21.5820 C   0  0  0  0  0  1  0  0  0  0  0  0
  -23.7390  -22.9350   21.4390 C   0  0  0  0  0  2  0  0  0  0  0  0
  -28.0920  -26.7040   20.3070 O   0  0  0  0  0  0  0  0  0  0  0  0
  -24.6480  -32.0070   23.3870 C   0  0  0  0  0  0  0  0  0  0  0  0
  -27.3580  -27.8350   19.9760 C   0  0  0  0  0  0  0  0  0  0  0  0
  -23.5000  -30.7040   21.6340 C   0  0  0  0  0  3  0  0  0  0  0  0
  -25.0200  -29.3990   20.0410 C   0  0  0  0  0  0  0  0  0  0  0  0
  -26.0310  -31.1360   21.5160 C   0  0  0  0  0  2  0  0  0  0  0  0
  -26.1580  -29.8420   20.7330 C   0  0  0  0  0  0  0  0  0  0  0  0
  -27.3400  -29.0450   20.7270 C   0  0  0  0  0  3  0  0  0  0  0  0
  -26.2860  -27.5450   19.1190 C   0  0  0  0  0  3  0  0  0  0  0  0
  -25.0830  -28.2560   19.2210 C   0  0  0  0  0  3  0  0  0  0  0  0
  -23.7430  -30.1770   20.1920 C   0  0  0  0  0  2  0  0  0  0  0  0
  -24.7380  -31.2990   22.2330 N   0  0  0  0  0  0  0  0  0  0  0  0
  -23.5490  -32.1940   23.9340 O   0  0  0  0  0  0  0  0  0  0  0  0
  -22.8840  -29.5820   22.5020 C   0  0  0  0  0  0  0  0  0  0  0  0
  -21.5910  -29.3180   22.3100 N   0  0  0  0  0  0  0  0  0  0  0  0
  -23.5880  -28.9570   23.3110 O   0  0  0  0  0  0  0  0  0  0  0  0
  -21.1020  -29.8130   21.5880 H   0  0  0  0  0  0  0  0  0  0  0  0
  -18.2920  -27.8700   22.5770 C   0  0  0  0  0  0  0  0  0  0  0  0
  -20.8000  -28.2890   22.9840 C   0  0  0  0  0  3  0  0  0  0  0  0
  -21.0660  -26.9050   22.3440 C   0  0  0  0  0  2  0  0  0  0  0  0
  -20.0250  -26.4810   21.2930 C   0  0  0  0  0  2  0  0  0  0  0  0
  -18.6030  -26.5750   21.8500 C   0  0  0  0  0  2  0  0  0  0  0  0
  -19.3230  -28.6840   23.1000 C   0  0  0  0  0  0  0  0  0  0  0  0
  -18.9940  -29.8980   23.7250 C   0  0  0  0  0  3  0  0  0  0  0  0
  -17.6530  -30.3160   23.8420 C   0  0  0  0  0  3  0  0  0  0  0  0
  -16.6200  -29.4860   23.3590 C   0  0  0  0  0  3  0  0  0  0  0  0
  -16.9420  -28.2650   22.7360 C   0  0  0  0  0  3  0  0  0  0  0  0
  -25.8920  -32.6420   24.0740 C   0  0  0  0  0  3  0  0  0  0  0  0
  -26.3560  -31.8670   25.3680 C   0  0  1  0  0  0  0  0  0  0  0  0
  -25.2070  -31.5680   26.3560 C   0  0  0  0  0  1  0  0  0  0  0  0
  -27.0150  -30.5200   24.9970 C   0  0  0  0  0  1  0  0  0  0  0  0
  -27.4280  -32.6940   26.1150 C   0  0  0  0  0  1  0  0  0  0  0  0
  -25.5600  -34.0380   24.3940 N   0  0  0  0  0  0  0  0  0  0  0  0
  -25.9250  -35.0980   23.6580 C   0  0  0  0  0  0  0  0  0  0  0  0
  -26.6330  -35.0020   22.6540 O   0  0  0  0  0  0  0  0  0  0  0  0
  -24.9230  -34.1900   25.1620 H   0  0  0  0  0  0  0  0  0  0  0  0
  -24.2050  -36.8910   23.2430 C   0  0  0  0  0  1  0  0  0  0  0  0
  -25.4160  -36.4820   24.1020 C   0  0  0  0  0  3  0  0  0  0  0  0
  -27.5120  -37.3620   25.0230 C   0  0  0  0  0  1  0  0  0  0  0  0
  -26.4460  -37.5430   24.0430 N   0  0  0  0  0  0  0  0  0  0  0  0
  -26.0300  -38.4600   24.1920 H   0  0  0  0  0  0  0  0  0  0  0  0
  -26.1290  -21.8310   19.9580 C   0  0  0  0  0  3  0  0  0  0  0  0
  -27.3710  -21.1120   19.3250 C   0  0  0  0  0  3  0  0  0  0  0  0
  -27.2740  -19.5330   19.2280 C   0  0  0  0  0  2  0  0  0  0  0  0
  -31.1330  -15.1090   19.7280 C   0  0  0  0  0  0  0  0  0  0  0  0
  -30.9350  -12.7840   18.8950 C   0  0  0  0  0  2  0  0  0  0  0  0
  -29.9450  -12.7910   17.7100 C   0  0  0  0  0  2  0  0  0  0  0  0
  -28.4880  -12.6980   18.2150 C   0  0  0  0  0  2  0  0  0  0  0  0
  -28.1630  -13.6960   19.3580 C   0  0  0  0  0  3  0  0  0  0  0  0
  -29.2590  -13.5830   20.4390 C   0  0  0  0  0  2  0  0  0  0  0  0
  -30.5450  -13.8780   19.7960 N   0  0  0  0  0  0  0  0  0  0  0  0
  -32.2950  -15.2480   19.2990 O   0  0  0  0  0  0  0  0  0  0  0  0
  -29.0900  -17.9140   18.2820 C   0  0  0  0  0  2  0  0  0  0  0  0
  -28.5320  -17.7100   20.7260 C   0  0  0  0  0  2  0  0  0  0  0  0
  -30.4020  -17.1450   18.5950 C   0  0  0  0  0  2  0  0  0  0  0  0
  -29.8550  -16.9070   20.9120 C   0  0  0  0  0  2  0  0  0  0  0  0
  -28.5900  -18.6980   19.5160 C   0  0  0  0  0  3  0  0  0  0  0  0
  -30.2630  -16.1730   19.7020 N   0  0  0  0  0  0  0  0  0  0  0  0
  -25.8540  -14.4350   20.1960 C   0  0  0  0  0  0  0  0  0  0  0  0
  -24.7710  -13.7150   20.6170 C   0  0  0  0  0  0  0  0  0  0  0  0
  -25.1500  -12.3410   20.5200 C   0  0  0  0  0  0  0  0  0  0  0  0
  -26.8330  -13.4950   19.9130 N   0  0  0  0  0  0  0  0  0  0  0  0
  -26.4200  -12.2280   20.1580 N   0  0  0  0  0  0  0  0  0  0  0  0
  -24.3540  -11.1230   20.6990 C   0  0  0  0  0  0  0  0  0  0  0  0
  -24.7570  -10.1070   21.5900 C   0  0  0  0  0  3  0  0  0  0  0  0
  -23.9710   -8.9460   21.7530 C   0  0  0  0  0  3  0  0  0  0  0  0
  -22.7680   -8.7960   21.0210 C   0  0  0  0  0  0  0  0  0  0  0  0
  -22.3850   -9.8020   20.1160 C   0  0  0  0  0  3  0  0  0  0  0  0
  -23.1720  -10.9530   19.9530 C   0  0  0  0  0  3  0  0  0  0  0  0
  -21.9490   -7.6980   21.1000 O   0  0  0  0  0  0  0  0  0  0  0  0
  -21.8140   -6.9930   22.2660 C   0  0  0  0  0  0  0  0  0  0  0  0
  -21.3880   -7.6020   23.4680 C   0  0  0  0  0  3  0  0  0  0  0  0
  -21.1910   -6.8200   24.6230 C   0  0  0  0  0  3  0  0  0  0  0  0
  -21.4160   -5.4290   24.5780 C   0  0  0  0  0  0  0  0  0  0  0  0
  -21.8360   -4.8210   23.3820 C   0  0  0  0  0  3  0  0  0  0  0  0
  -22.0320   -5.6020   22.2300 C   0  0  0  0  0  0  0  0  0  0  0  0
  -22.4160   -5.0040   21.0760 F   0  0  0  0  0  0  0  0  0  0  0  0
  -21.2200   -4.6780   25.6870 F   0  0  0  0  0  0  0  0  0  0  0  0
  -23.4250  -14.2660   20.9940 C   0  0  0  0  0  0  0  0  0  0  0  0
  -22.7270  -13.6000   21.9100 N   0  0  0  0  0  0  0  0  0  0  0  0
  -22.9950  -15.3120   20.5150 O   0  0  0  0  0  0  0  0  0  0  0  0
  -23.0790  -12.7480   22.3180 H   0  0  0  0  0  0  0  0  0  0  0  0
  -21.8310  -13.9500   22.2220 H   0  0  0  0  0  0  0  0  0  0  0  0
  -26.0680  -15.7910   20.0090 N   0  0  0  0  0  0  0  0  0  0  0  0
  -25.3590  -16.4880   20.2040 H   0  0  0  0  0  0  0  0  0  0  0  0
  -26.9550  -16.1760   19.7120 H   0  0  0  0  0  0  0  0  0  0  0  0
  2  1  1  0
  3  5  2  0
  3  6  1  0
  4  8  1  0
  4  1  2  0
  5  4  1  0
  6  2  2  0
  8  7  1  0
  9  6  1  0
 10 21  2  0
 11  9  1  0
 11 16  1  0
 12 20  1  0
 12 22  1  0
 13 19  1  0
 13 15  1  0
 14 20  1  0
 15 14  1  0
 16 15  2  0
 17 18  1  0
 17 11  2  0
 18 13  2  0
 19 12  1  0
 20 10  1  0
 22 24  2  0
 23 22  1  0
 25 23  1  0
 26 35  2  0
 26 31  1  0
 27 23  1  0
 27 31  1  0
 28 27  1  0
 29 30  1  0
 29 28  1  0
 30 26  1  0
 31 32  2  0
 32 33  1  0
 34 33  2  0
 35 34  1  0
 36 10  1  0
 36 41  1  0
 36 37  1  0
 37 40  1  1
 37 38  1  0
 39 37  1  0
 41 44  1  0
 42 46  1  0
 42 41  1  0
 43 42  2  0
 46 45  1  0
 48 46  1  0
 48 49  1  0
 48 47  1  0
 50  5  1  0
 51 50  2  0
 52 51  1  0
 53 59  1  0
 54 59  1  0
 55 56  1  0
 55 54  1  0
 57 56  1  0
 57 70  1  0
 57 58  1  0
 59 58  1  0
 60 53  2  0
 61 63  1  0
 61 65  1  0
 62 64  1  0
 63 66  1  0
 65 52  1  0
 65 62  1  0
 66 53  1  0
 66 64  1  0
 67 68  2  0
 68 87  1  0
 69 68  1  0
 69 72  1  0
 70 71  1  0
 70 67  1  0
 71 69  2  0
 72 73  1  0
 73 74  2  0
 75 78  1  0
 75 74  1  0
 76 75  2  0
 77 76  1  0
 77 72  2  0
 78 79  1  0
 79 80  1  0
 80 81  2  0
 82 81  1  0
 82 86  1  0
 83 82  2  0
 84 79  2  0
 84 83  1  0
 85 84  1  0
 87 88  1  0
 88 91  1  0
 88 90  1  0
 89 87  2  0
 92 67  1  0
 92 93  1  0
 94 92  1  0
M  ISO  4   6 101   9 101  53 100  66 100
M  END
>  <TORSDO>  (90) 
F 20

>  <SCORE>  (90) 
-10.552

>  <name>  (90) 
89

>  <ligand_id>  (90) 
89

>  <original_smiles>  (90) 
[H]c1c([H])c([H])c2c(c1[H])C([H])([H])C([H])([H])C([H])([H])C2([H])N([H])C(=O)C1([H])N(C(=O)C([H])(N([H])C(=O)C([H])(N([H])C([H])([H])[H])C([H])([H])[H])C(C([H])([H])[H])(C([H])([H])[H])C([H])([H])[H])C([H])([H])c2c([H])c(Oc3c([H])c([H])c(C([H])([H])C([H])([H])[H])c(C([H])([H])C([H])([H])C([H])([H])C4([H])C([H])([H])C([H])([H])N(C(=O)N5C([H])([H])C([H])([H])C([H])([H])C([H])(n6nc(-c7c([H])c([H])c(Oc8c([H])c([H])c(F)c([H])c8F)c([H])c7[H])c(C(=O)N([H])[H])c6N([H])[H])C5([H])[H])C([H])([H])C4([H])[H])c3[H])c([H])c([H])c2C1([H])[H]

>  <smiles>  (90) 
[H]c1c([H])c([H])c2c(c1[H])C([H])([H])C([H])([H])C([H])([H])C2([H])N([H])C(=O)C1([H])N(C(=O)C([H])(N([H])C(=O)C([H])(N([H])C([H])([H])[H])C([H])([H])[H])C(C([H])([H])[H])(C([H])([H])[H])C([H])([H])[H])C([H])([H])c2c([H])c(Oc3c([H])c([H])c(C([H])([H])C([H])([H])[H])c(C([H])([H])C([H])([H])C([H])([H])C4([H])C([H])([H])C([H])([H])N(C(=O)N5C([H])([H])C([H])([H])C([H])([H])C([H])(n6nc(-c7c([H])c([H])c(Oc8c([H])c([H])c(F)c([H])c8F)c([H])c7[H])c(C(=O)N([H])[H])c6N([H])[H])C5([H])[H])C([H])([H])C4([H])[H])c3[H])c([H])c([H])c2C1([H])[H]

$$$$
90:0:0
     RDKit          3D

 94102  0  0  1  0  0  0  0  0999 V2000
  -30.6790  -25.9400   22.4530 C   0  0  0  0  0  3  0  0  0  0  0  0
  -29.5610  -26.6010   22.9840 C   0  0  0  0  0  0  0  0  0  0  0  0
  -30.6930  -25.5150   21.1110 C   0  0  0  0  0  0  0  0  0  0  0  0
  -28.4480  -26.8900   22.1490 C   0  0  0  0  0  0  0  0  0  0  0  0
  -29.6560  -25.9350   20.2350 C   0  0  0  0  0  0  0  0  0  0  0  0
  -28.5440  -26.6620   20.7340 C   0  0  0  0  0  0  0  0  0  0  0  0
  -29.5620  -26.9320   24.4730 C   0  0  0  0  0  1  0  0  0  0  0  0
  -27.1720  -27.3700   22.8300 C   0  0  0  0  0  1  0  0  0  0  0  0
  -29.6340  -25.5650   18.7540 C   0  0  0  0  0  1  0  0  0  0  0  0
  -27.6160  -26.9980   19.7470 O   0  0  0  0  0  0  0  0  0  0  0  0
  -24.3390  -32.1390   23.3950 C   0  0  0  0  0  0  0  0  0  0  0  0
  -26.5160  -27.8040   19.8990 C   0  0  0  0  0  0  0  0  0  0  0  0
  -22.9240  -30.8680   21.8110 C   0  0  0  0  0  3  0  0  0  0  0  0
  -24.1780  -29.3630   20.1780 C   0  0  0  0  0  0  0  0  0  0  0  0
  -25.4280  -31.1730   21.3750 C   0  0  0  0  0  2  0  0  0  0  0  0
  -25.4050  -29.8480   20.6460 C   0  0  0  0  0  0  0  0  0  0  0  0
  -26.5840  -29.0980   20.4610 C   0  0  0  0  0  3  0  0  0  0  0  0
  -25.2760  -27.3280   19.4260 C   0  0  0  0  0  3  0  0  0  0  0  0
  -24.1090  -28.1060   19.5520 C   0  0  0  0  0  3  0  0  0  0  0  0
  -22.9690  -30.2480   20.3900 C   0  0  0  0  0  2  0  0  0  0  0  0
  -24.2530  -31.4030   22.2490 N   0  0  0  0  0  0  0  0  0  0  0  0
  -23.3270  -32.4170   24.0520 O   0  0  0  0  0  0  0  0  0  0  0  0
  -22.3310  -29.8230   22.7820 C   0  0  0  0  0  0  0  0  0  0  0  0
  -21.0250  -29.5490   22.6360 N   0  0  0  0  0  0  0  0  0  0  0  0
  -23.0430  -29.2580   23.6160 O   0  0  0  0  0  0  0  0  0  0  0  0
  -20.5090  -30.0560   21.9320 H   0  0  0  0  0  0  0  0  0  0  0  0
  -17.7920  -27.9660   22.9430 C   0  0  0  0  0  0  0  0  0  0  0  0
  -20.2600  -28.5730   23.4120 C   0  0  0  0  0  3  0  0  0  0  0  0
  -20.5940  -27.1270   22.9770 C   0  0  0  0  0  2  0  0  0  0  0  0
  -19.6470  -26.5890   21.8990 C   0  0  0  0  0  2  0  0  0  0  0  0
  -18.2000  -26.6010   22.4060 C   0  0  0  0  0  2  0  0  0  0  0  0
  -18.7620  -28.8970   23.4010 C   0  0  0  0  0  0  0  0  0  0  0  0
  -18.3310  -30.1630   23.8530 C   0  0  0  0  0  3  0  0  0  0  0  0
  -16.9650  -30.5020   23.8600 C   0  0  0  0  0  3  0  0  0  0  0  0
  -16.0100  -29.5720   23.4170 C   0  0  0  0  0  3  0  0  0  0  0  0
  -16.4230  -28.3070   22.9630 C   0  0  0  0  0  3  0  0  0  0  0  0
  -25.7030  -32.6950   23.9130 C   0  0  0  0  0  3  0  0  0  0  0  0
  -25.4900  -34.1040   24.2650 N   0  0  0  0  0  0  0  0  0  0  0  0
  -25.8330  -35.1420   23.4910 C   0  0  0  0  0  0  0  0  0  0  0  0
  -26.4200  -35.0110   22.4120 O   0  0  0  0  0  0  0  0  0  0  0  0
  -24.9400  -34.2840   25.0910 H   0  0  0  0  0  0  0  0  0  0  0  0
  -24.1770  -37.0270   23.2930 C   0  0  0  0  0  1  0  0  0  0  0  0
  -25.4610  -36.5500   23.9920 C   0  0  0  0  0  3  0  0  0  0  0  0
  -27.6960  -37.3310   24.6450 C   0  0  0  0  0  1  0  0  0  0  0  0
  -26.5350  -37.5450   23.7850 N   0  0  0  0  0  0  0  0  0  0  0  0
  -26.1930  -38.4880   23.9440 H   0  0  0  0  0  0  0  0  0  0  0  0
  -26.2840  -31.8970   25.1430 C   0  0  1  0  0  0  0  0  0  0  0  0
  -25.2620  -31.6670   26.2780 C   0  0  0  0  0  1  0  0  0  0  0  0
  -26.8020  -30.5140   24.7020 C   0  0  0  0  0  1  0  0  0  0  0  0
  -27.4980  -32.6520   25.7300 C   0  0  0  0  0  1  0  0  0  0  0  0
  -31.7220  -24.4460   20.7550 C   0  0  0  0  0  2  0  0  0  0  0  0
  -31.2070  -23.1120   21.3280 C   0  0  0  0  0  2  0  0  0  0  0  0
  -31.8180  -21.8180   20.7820 C   0  0  0  0  0  2  0  0  0  0  0  0
  -31.0850  -20.6130   21.4060 C   0  0  0  0  0  2  0  0  0  0  0  0
  -31.6340  -19.2450   20.9860 C   0  0  0  0  0  2  0  0  0  0  0  0
  -30.7370  -18.0770   21.4540 C   0  0  0  0  0  2  0  0  0  0  0  0
  -31.1220  -16.7690   20.7540 C   0  0  0  0  0  2  0  0  0  0  0  0
  -30.3170  -15.4950   21.1490 C   0  0  0  0  0  2  0  0  0  0  0  0
  -30.7160  -14.3030   20.2550 C   0  0  0  0  0  0  0  0  0  0  0  0
  -30.2890  -12.1380   19.1570 C   0  0  0  0  0  2  0  0  0  0  0  0
  -29.3090  -12.3190   17.9850 C   0  0  0  0  0  2  0  0  0  0  0  0
  -27.8650  -12.1660   18.4860 C   0  0  0  0  0  2  0  0  0  0  0  0
  -27.5690  -13.0420   19.7330 C   0  0  0  0  0  3  0  0  0  0  0  0
  -28.6760  -12.9130   20.8090 C   0  0  0  0  0  2  0  0  0  0  0  0
  -29.9770  -13.1630   20.1700 N   0  0  0  0  0  0  0  0  0  0  0  0
  -31.7400  -14.4450   19.5820 O   0  0  0  0  0  0  0  0  0  0  0  0
  -25.2150  -13.6280   20.5880 C   0  0  0  0  0  0  0  0  0  0  0  0
  -24.1580  -12.8420   20.9670 C   0  0  0  0  0  0  0  0  0  0  0  0
  -24.6010  -11.4910   20.8430 C   0  0  0  0  0  0  0  0  0  0  0  0
  -26.2390  -12.7520   20.2670 N   0  0  0  0  0  0  0  0  0  0  0  0
  -25.8760  -11.4580   20.4740 N   0  0  0  0  0  0  0  0  0  0  0  0
  -23.8710  -10.2260   21.0050 C   0  0  0  0  0  0  0  0  0  0  0  0
  -24.2900   -9.2460   21.9330 C   0  0  0  0  0  3  0  0  0  0  0  0
  -23.5630   -8.0460   22.0850 C   0  0  0  0  0  3  0  0  0  0  0  0
  -22.4050   -7.8150   21.3070 C   0  0  0  0  0  0  0  0  0  0  0  0
  -22.0040   -8.7820   20.3690 C   0  0  0  0  0  3  0  0  0  0  0  0
  -22.7310   -9.9750   20.2150 C   0  0  0  0  0  3  0  0  0  0  0  0
  -21.6510   -6.6670   21.3680 O   0  0  0  0  0  0  0  0  0  0  0  0
  -21.5360   -5.9420   22.5250 C   0  0  0  0  0  0  0  0  0  0  0  0
  -20.9940   -6.5010   23.7020 C   0  0  0  0  0  3  0  0  0  0  0  0
  -20.8280   -5.7010   24.8510 C   0  0  0  0  0  3  0  0  0  0  0  0
  -21.1980   -4.3410   24.8230 C   0  0  0  0  0  0  0  0  0  0  0  0
  -21.7340   -3.7820   23.6490 C   0  0  0  0  0  3  0  0  0  0  0  0
  -21.9000   -4.5800   22.5040 C   0  0  0  0  0  0  0  0  0  0  0  0
  -22.3970   -4.0300   21.3700 F   0  0  0  0  0  0  0  0  0  0  0  0
  -21.0320   -3.5710   25.9230 F   0  0  0  0  0  0  0  0  0  0  0  0
  -22.7800  -13.3140   21.3330 C   0  0  0  0  0  0  0  0  0  0  0  0
  -22.0870  -12.5700   22.1890 N   0  0  0  0  0  0  0  0  0  0  0  0
  -22.3290  -14.3740   20.9010 O   0  0  0  0  0  0  0  0  0  0  0  0
  -22.4690  -11.7110   22.5560 H   0  0  0  0  0  0  0  0  0  0  0  0
  -21.1640  -12.8650   22.4780 H   0  0  0  0  0  0  0  0  0  0  0  0
  -25.3860  -15.0030   20.4720 N   0  0  0  0  0  0  0  0  0  0  0  0
  -24.6440  -15.6700   20.6580 H   0  0  0  0  0  0  0  0  0  0  0  0
  -26.2370  -15.4410   20.1410 H   0  0  0  0  0  0  0  0  0  0  0  0
  1  2  1  0
  2  7  1  0
  3  1  2  0
  4  8  1  0
  4  2  2  0
  5  6  2  0
  5  3  1  0
  6  4  1  0
  9  5  1  0
 10 12  1  0
 10  6  1  0
 11 22  2  0
 12 17  1  0
 13 21  1  0
 13 23  1  0
 14 20  1  0
 14 16  1  0
 15 21  1  0
 16 15  1  0
 17 16  2  0
 18 19  1  0
 18 12  2  0
 19 14  2  0
 20 13  1  0
 21 11  1  0
 23 25  2  0
 24 23  1  0
 26 24  1  0
 27 36  2  0
 27 32  1  0
 28 24  1  0
 29 28  1  0
 30 31  1  0
 30 29  1  0
 31 27  1  0
 32 28  1  0
 32 33  2  0
 33 34  1  0
 35 34  2  0
 36 35  1  0
 37 11  1  0
 37 38  1  0
 37 47  1  0
 38 41  1  0
 39 43  1  0
 39 38  1  0
 40 39  2  0
 43 42  1  0
 45 46  1  0
 45 43  1  0
 45 44  1  0
 47 50  1  1
 47 48  1  0
 49 47  1  0
 51  3  1  0
 51 52  1  0
 53 52  1  0
 53 54  1  0
 55 54  1  0
 55 56  1  0
 57 58  1  0
 57 56  1  0
 59 58  1  0
 60 65  1  0
 61 62  1  0
 61 60  1  0
 63 62  1  0
 63 70  1  0
 63 64  1  0
 65 59  1  0
 65 64  1  0
 66 59  2  0
 67 68  2  0
 68 87  1  0
 69 68  1  0
 69 72  1  0
 70 71  1  0
 70 67  1  0
 71 69  2  0
 72 73  1  0
 73 74  2  0
 75 78  1  0
 75 74  1  0
 76 75  2  0
 77 76  1  0
 77 72  2  0
 78 79  1  0
 79 80  1  0
 80 81  2  0
 82 81  1  0
 82 86  1  0
 83 82  2  0
 84 79  2  0
 84 83  1  0
 85 84  1  0
 87 88  1  0
 88 91  1  0
 88 90  1  0
 89 87  2  0
 92 67  1  0
 92 93  1  0
 94 92  1  0
M  ISO  4   6 101  10 101  58 100  59 100
M  END
>  <TORSDO>  (91) 
F 24

>  <SCORE>  (91) 
-11.033

>  <name>  (91) 
90

>  <ligand_id>  (91) 
90

>  <original_smiles>  (91) 
[H]c1c([H])c([H])c2c(c1[H])C([H])([H])C([H])([H])C([H])([H])C2([H])N([H])C(=O)C1([H])N(C(=O)C([H])(N([H])C(=O)C([H])(N([H])C([H])([H])[H])C([H])([H])[H])C(C([H])([H])[H])(C([H])([H])[H])C([H])([H])[H])C([H])([H])c2c([H])c(Oc3c(C([H])([H])[H])c(C([H])([H])[H])c([H])c(C([H])([H])C([H])([H])C([H])([H])C([H])([H])C([H])([H])C([H])([H])C([H])([H])C([H])([H])C(=O)N4C([H])([H])C([H])([H])C([H])([H])C([H])(n5nc(-c6c([H])c([H])c(Oc7c([H])c([H])c(F)c([H])c7F)c([H])c6[H])c(C(=O)N([H])[H])c5N([H])[H])C4([H])[H])c3C([H])([H])[H])c([H])c([H])c2C1([H])[H]

>  <smiles>  (91) 
[H]c1c([H])c([H])c2c(c1[H])C([H])([H])C([H])([H])C([H])([H])C2([H])N([H])C(=O)C1([H])N(C(=O)C([H])(N([H])C(=O)C([H])(N([H])C([H])([H])[H])C([H])([H])[H])C(C([H])([H])[H])(C([H])([H])[H])C([H])([H])[H])C([H])([H])c2c([H])c(Oc3c(C([H])([H])[H])c(C([H])([H])[H])c([H])c(C([H])([H])C([H])([H])C([H])([H])C([H])([H])C([H])([H])C([H])([H])C([H])([H])C([H])([H])C(=O)N4C([H])([H])C([H])([H])C([H])([H])C([H])(n5nc(-c6c([H])c([H])c(Oc7c([H])c([H])c(F)c([H])c7F)c([H])c6[H])c(C(=O)N([H])[H])c5N([H])[H])C4([H])[H])c3C([H])([H])[H])c([H])c([H])c2C1([H])[H]

$$$$
91:0:0
     RDKit          3D

 90 98  0  0  1  0  0  0  0  0999 V2000
  -29.7160  -22.9980   19.1830 C   0  0  0  0  0  3  0  0  0  0  0  0
  -29.3710  -24.3920   19.2100 C   0  0  0  0  0  3  0  0  0  0  0  0
  -28.2510  -22.5740   20.9940 C   0  0  0  0  0  3  0  0  0  0  0  0
  -29.1970  -22.0060   20.0760 C   0  0  0  0  0  0  0  0  0  0  0  0
  -28.4610  -24.9700   20.1350 C   0  0  0  0  0  0  0  0  0  0  0  0
  -27.9050  -23.9880   21.0290 C   0  0  0  0  0  0  0  0  0  0  0  0
  -29.8040  -20.5280   19.9880 C   0  0  0  0  0  0  0  0  0  0  0  0
  -30.8620  -20.4020   19.3650 O   0  0  0  0  0  0  0  0  0  0  0  0
  -29.2560  -19.1230   20.5740 C   0  0  0  0  0  3  0  0  0  0  0  0
  -30.1110  -17.7280   20.2530 C   0  0  0  0  0  3  0  0  0  0  0  0
  -29.7160  -16.2140   20.7810 C   0  0  0  0  0  2  0  0  0  0  0  0
  -30.5520  -14.8610   20.3910 C   0  0  0  0  0  0  0  0  0  0  0  0
  -30.4140  -12.5630   19.3640 C   0  0  0  0  0  2  0  0  0  0  0  0
  -29.4700  -12.6280   18.1390 C   0  0  0  0  0  2  0  0  0  0  0  0
  -28.0000  -12.4350   18.5660 C   0  0  0  0  0  2  0  0  0  0  0  0
  -27.6260  -13.3150   19.7860 C   0  0  0  0  0  3  0  0  0  0  0  0
  -28.6820  -13.2340   20.9080 C   0  0  0  0  0  2  0  0  0  0  0  0
  -29.9760  -13.6050   20.3280 N   0  0  0  0  0  0  0  0  0  0  0  0
  -31.7290  -14.9750   20.0290 O   0  0  0  0  0  0  0  0  0  0  0  0
  -25.2470  -13.9160   20.5230 C   0  0  0  0  0  0  0  0  0  0  0  0
  -24.1780  -13.1450   20.8880 C   0  0  0  0  0  0  0  0  0  0  0  0
  -24.6350  -11.7930   20.8550 C   0  0  0  0  0  0  0  0  0  0  0  0
  -26.2840  -13.0320   20.2800 N   0  0  0  0  0  0  0  0  0  0  0  0
  -25.9250  -11.7490   20.5450 N   0  0  0  0  0  0  0  0  0  0  0  0
  -23.9040  -10.5310   21.0410 C   0  0  0  0  0  0  0  0  0  0  0  0
  -24.3250   -9.5680   21.9830 C   0  0  0  0  0  3  0  0  0  0  0  0
  -23.5960   -8.3710   22.1570 C   0  0  0  0  0  3  0  0  0  0  0  0
  -22.4330   -8.1310   21.3890 C   0  0  0  0  0  0  0  0  0  0  0  0
  -22.0290   -9.0850   20.4380 C   0  0  0  0  0  3  0  0  0  0  0  0
  -22.7570  -10.2730   20.2630 C   0  0  0  0  0  3  0  0  0  0  0  0
  -21.6760   -6.9870   21.4690 O   0  0  0  0  0  0  0  0  0  0  0  0
  -21.5980   -6.2560   22.6270 C   0  0  0  0  0  0  0  0  0  0  0  0
  -21.1300   -6.8210   23.8340 C   0  0  0  0  0  3  0  0  0  0  0  0
  -21.0010   -6.0160   24.9840 C   0  0  0  0  0  3  0  0  0  0  0  0
  -21.3300   -4.6500   24.9290 C   0  0  0  0  0  0  0  0  0  0  0  0
  -21.7920   -4.0840   23.7260 C   0  0  0  0  0  3  0  0  0  0  0  0
  -21.9220   -4.8860   22.5780 C   0  0  0  0  0  0  0  0  0  0  0  0
  -22.3470   -4.3320   21.4160 F   0  0  0  0  0  0  0  0  0  0  0  0
  -21.1990   -3.8730   26.0300 F   0  0  0  0  0  0  0  0  0  0  0  0
  -22.7830  -13.6270   21.1610 C   0  0  0  0  0  0  0  0  0  0  0  0
  -22.0510  -12.9280   22.0220 N   0  0  0  0  0  0  0  0  0  0  0  0
  -22.3500  -14.6550   20.6430 O   0  0  0  0  0  0  0  0  0  0  0  0
  -22.4190  -12.0970   22.4620 H   0  0  0  0  0  0  0  0  0  0  0  0
  -21.1150  -13.2290   22.2480 H   0  0  0  0  0  0  0  0  0  0  0  0
  -25.4190  -15.2860   20.3550 N   0  0  0  0  0  0  0  0  0  0  0  0
  -24.6570  -15.9450   20.4730 H   0  0  0  0  0  0  0  0  0  0  0  0
  -26.2770  -15.7240   20.0410 H   0  0  0  0  0  0  0  0  0  0  0  0
  -27.0400  -24.4150   21.9940 O   0  0  0  0  0  0  0  0  0  0  0  0
  -26.8920  -25.3540   21.9420 H   0  0  0  0  0  0  0  0  0  0  0  0
  -28.3640  -26.4120   20.2170 O   0  0  0  0  0  0  0  0  0  0  0  0
  -24.6260  -31.8780   23.2360 C   0  0  0  0  0  0  0  0  0  0  0  0
  -27.2200  -27.2500   20.1920 C   0  0  0  0  0  0  0  0  0  0  0  0
  -23.4160  -30.4780   21.5990 C   0  0  0  0  0  3  0  0  0  0  0  0
  -24.8620  -28.9050   20.1700 C   0  0  0  0  0  0  0  0  0  0  0  0
  -25.9580  -30.7740   21.4130 C   0  0  0  0  0  2  0  0  0  0  0  0
  -26.0310  -29.3860   20.7720 C   0  0  0  0  0  0  0  0  0  0  0  0
  -27.2070  -28.5680   20.7720 C   0  0  0  0  0  3  0  0  0  0  0  0
  -26.0320  -26.8390   19.5520 C   0  0  0  0  0  3  0  0  0  0  0  0
  -24.8690  -27.6450   19.5460 C   0  0  0  0  0  3  0  0  0  0  0  0
  -23.6270  -29.7890   20.2210 C   0  0  0  0  0  2  0  0  0  0  0  0
  -24.6860  -31.0650   22.1380 N   0  0  0  0  0  0  0  0  0  0  0  0
  -23.5430  -32.1590   23.7710 O   0  0  0  0  0  0  0  0  0  0  0  0
  -22.7530  -29.4690   22.5690 C   0  0  0  0  0  0  0  0  0  0  0  0
  -21.4250  -29.2910   22.4440 N   0  0  0  0  0  0  0  0  0  0  0  0
  -23.4320  -28.8500   23.3910 O   0  0  0  0  0  0  0  0  0  0  0  0
  -20.9350  -29.8450   21.7560 H   0  0  0  0  0  0  0  0  0  0  0  0
  -18.0530  -28.0750   22.9440 C   0  0  0  0  0  0  0  0  0  0  0  0
  -20.6090  -28.3510   23.2180 C   0  0  0  0  0  3  0  0  0  0  0  0
  -20.7190  -26.9170   22.6490 C   0  0  0  0  0  2  0  0  0  0  0  0
  -19.6220  -26.5840   21.6350 C   0  0  0  0  0  2  0  0  0  0  0  0
  -18.2380  -26.7250   22.2750 C   0  0  0  0  0  2  0  0  0  0  0  0
  -19.1670  -28.8470   23.3740 C   0  0  0  0  0  0  0  0  0  0  0  0
  -18.9380  -30.1100   23.9600 C   0  0  0  0  0  3  0  0  0  0  0  0
  -17.6290  -30.6030   24.1220 C   0  0  0  0  0  3  0  0  0  0  0  0
  -16.5320  -29.8300   23.7080 C   0  0  0  0  0  3  0  0  0  0  0  0
  -16.7440  -28.5680   23.1250 C   0  0  0  0  0  3  0  0  0  0  0  0
  -25.9080  -32.5130   23.8560 C   0  0  0  0  0  3  0  0  0  0  0  0
  -25.5990  -33.9120   24.1930 N   0  0  0  0  0  0  0  0  0  0  0  0
  -25.9200  -34.9680   23.4340 C   0  0  0  0  0  0  0  0  0  0  0  0
  -26.5760  -34.8680   22.3930 O   0  0  0  0  0  0  0  0  0  0  0  0
  -25.0150  -34.0620   25.0020 H   0  0  0  0  0  0  0  0  0  0  0  0
  -24.1810  -36.7570   23.1180 C   0  0  0  0  0  1  0  0  0  0  0  0
  -25.4390  -36.3540   23.9040 C   0  0  0  0  0  3  0  0  0  0  0  0
  -27.5860  -37.2440   24.6960 C   0  0  0  0  0  1  0  0  0  0  0  0
  -26.4670  -37.4090   23.7720 N   0  0  0  0  0  0  0  0  0  0  0  0
  -26.0620  -38.3290   23.9270 H   0  0  0  0  0  0  0  0  0  0  0  0
  -26.4290  -31.7420   25.1320 C   0  0  1  0  0  0  0  0  0  0  0  0
  -25.3370  -31.5050   26.2030 C   0  0  0  0  0  1  0  0  0  0  0  0
  -27.0100  -30.3640   24.7400 C   0  0  0  0  0  1  0  0  0  0  0  0
  -27.5850  -32.5340   25.7870 C   0  0  0  0  0  1  0  0  0  0  0  0
  1  2  2  0
  1  4  1  0
  2  5  1  0
  3  6  1  0
  4  3  2  0
  5 50  1  0
  5  6  2  0
  6 48  1  0
  7  4  1  0
  7  9  1  0
  8  7  2  0
 10  9  2  0
 10 11  1  0
 12 11  1  0
 13 18  1  0
 14 15  1  0
 14 13  1  0
 16 15  1  0
 16 23  1  0
 16 17  1  0
 18 12  1  0
 18 17  1  0
 19 12  2  0
 20 21  2  0
 21 40  1  0
 22 21  1  0
 22 25  1  0
 23 20  1  0
 23 24  1  0
 24 22  2  0
 25 26  1  0
 26 27  2  0
 28 31  1  0
 28 27  1  0
 29 28  2  0
 30 29  1  0
 30 25  2  0
 31 32  1  0
 32 33  1  0
 33 34  2  0
 35 34  1  0
 35 39  1  0
 36 35  2  0
 37 32  2  0
 37 36  1  0
 38 37  1  0
 40 41  1  0
 41 44  1  0
 41 43  1  0
 42 40  2  0
 45 46  1  0
 45 20  1  0
 47 45  1  0
 49 48  1  0
 51 62  2  0
 52 50  1  0
 52 57  1  0
 53 61  1  0
 53 63  1  0
 54 60  1  0
 54 56  1  0
 55 61  1  0
 56 55  1  0
 57 56  2  0
 58 52  2  0
 59 58  1  0
 59 54  2  0
 60 53  1  0
 61 51  1  0
 63 65  2  0
 64 63  1  0
 66 64  1  0
 67 76  2  0
 67 72  1  0
 68 64  1  0
 68 72  1  0
 69 68  1  0
 70 71  1  0
 70 69  1  0
 71 67  1  0
 72 73  2  0
 73 74  1  0
 75 74  2  0
 76 75  1  0
 77 51  1  0
 77 78  1  0
 77 87  1  0
 78 81  1  0
 79 83  1  0
 79 78  1  0
 80 79  2  0
 83 82  1  0
 85 83  1  0
 85 86  1  0
 85 84  1  0
 87 90  1  1
 87 88  1  0
 89 87  1  0
M  ISO  4   5 101  11 100  12 100  50 101
M  END
>  <TORSDO>  (92) 
F 21

>  <SCORE>  (92) 
-13.716

>  <name>  (92) 
91

>  <ligand_id>  (92) 
91

>  <original_smiles>  (92) 
[H]Oc1c([H])c(C(=O)C([H])([H])C([H])([H])C([H])([H])C(=O)N2C([H])([H])C([H])([H])C([H])([H])C([H])(n3nc(-c4c([H])c([H])c(Oc5c([H])c([H])c(F)c([H])c5F)c([H])c4[H])c(C(=O)N([H])[H])c3N([H])[H])C2([H])[H])c([H])c([H])c1Oc1c([H])c([H])c2c(c1[H])C([H])([H])N(C(=O)C([H])(N([H])C(=O)C([H])(N([H])C([H])([H])[H])C([H])([H])[H])C(C([H])([H])[H])(C([H])([H])[H])C([H])([H])[H])C([H])(C(=O)N([H])C1([H])c3c([H])c([H])c([H])c([H])c3C([H])([H])C([H])([H])C1([H])[H])C2([H])[H]

>  <smiles>  (92) 
[H]Oc1c([H])c(C(=O)C([H])([H])C([H])([H])C([H])([H])C(=O)N2C([H])([H])C([H])([H])C([H])([H])C([H])(n3nc(-c4c([H])c([H])c(Oc5c([H])c([H])c(F)c([H])c5F)c([H])c4[H])c(C(=O)N([H])[H])c3N([H])[H])C2([H])[H])c([H])c([H])c1Oc1c([H])c([H])c2c(c1[H])C([H])([H])N(C(=O)C([H])(N([H])C(=O)C([H])(N([H])C([H])([H])[H])C([H])([H])[H])C(C([H])([H])[H])(C([H])([H])[H])C([H])([H])[H])C([H])(C(=O)N([H])C1([H])c3c([H])c([H])c([H])c([H])c3C([H])([H])C([H])([H])C1([H])[H])C2([H])[H]

$$$$
92:0:0
     RDKit          3D

 89 98  0  0  1  0  0  0  0  0999 V2000
  -28.8230  -19.9550   20.9320 C   0  0  0  0  0  3  0  0  0  0  0  0
  -30.2380  -20.8590   18.7940 C   0  0  0  0  0  3  0  0  0  0  0  0
  -28.7750  -21.4470   20.5750 C   0  0  0  0  0  0  0  0  0  0  0  0
  -29.4990  -21.8810   19.4880 C   0  0  0  0  0  0  0  0  0  0  0  0
  -29.5830  -18.8140   20.2450 C   0  0  0  0  0  0  0  0  0  0  0  0
  -30.2780  -19.4320   19.1350 C   0  0  0  0  0  0  0  0  0  0  0  0
  -28.0900  -22.8560   21.1280 C   0  0  0  0  0  2  0  0  0  0  0  0
  -29.3770  -23.4730   19.2390 C   0  0  0  0  0  3  0  0  0  0  0  0
  -28.2190  -24.2320   20.1150 C   0  0  0  0  0  0  0  0  0  0  0  0
  -30.2410  -17.9540   17.0800 C   0  0  0  0  0  1  0  0  0  0  0  0
  -31.0940  -18.5440   18.2090 C   0  0  0  0  0  2  0  0  0  0  0  0
  -28.2480  -25.8970   20.4070 O   0  0  0  0  0  0  0  0  0  0  0  0
  -24.6380  -31.9520   23.2490 C   0  0  0  0  0  0  0  0  0  0  0  0
  -27.2210  -26.9970   20.3110 C   0  0  0  0  0  0  0  0  0  0  0  0
  -23.4550  -30.5260   21.6290 C   0  0  0  0  0  3  0  0  0  0  0  0
  -24.9140  -28.9010   20.2310 C   0  0  0  0  0  0  0  0  0  0  0  0
  -26.0220  -30.7350   21.4870 C   0  0  0  0  0  2  0  0  0  0  0  0
  -26.1000  -29.3100   20.8510 C   0  0  0  0  0  0  0  0  0  0  0  0
  -27.2430  -28.3800   20.8640 C   0  0  0  0  0  3  0  0  0  0  0  0
  -26.0030  -26.7540   19.6340 C   0  0  0  0  0  3  0  0  0  0  0  0
  -24.8940  -27.6450   19.6000 C   0  0  0  0  0  3  0  0  0  0  0  0
  -23.6920  -29.8220   20.2630 C   0  0  0  0  0  2  0  0  0  0  0  0
  -24.7270  -31.1000   22.1750 N   0  0  0  0  0  0  0  0  0  0  0  0
  -23.5450  -32.2450   23.7630 O   0  0  0  0  0  0  0  0  0  0  0  0
  -22.7600  -29.5450   22.6090 C   0  0  0  0  0  0  0  0  0  0  0  0
  -21.4330  -29.3600   22.4730 N   0  0  0  0  0  0  0  0  0  0  0  0
  -23.4240  -28.9480   23.4600 O   0  0  0  0  0  0  0  0  0  0  0  0
  -20.9480  -29.8920   21.7640 H   0  0  0  0  0  0  0  0  0  0  0  0
  -18.0630  -28.1080   22.9710 C   0  0  0  0  0  0  0  0  0  0  0  0
  -20.6160  -28.4260   23.2560 C   0  0  0  0  0  3  0  0  0  0  0  0
  -20.7490  -26.9840   22.7140 C   0  0  0  0  0  2  0  0  0  0  0  0
  -19.6640  -26.6200   21.6950 C   0  0  0  0  0  2  0  0  0  0  0  0
  -18.2720  -26.7510   22.3200 C   0  0  0  0  0  2  0  0  0  0  0  0
  -19.1640  -28.9010   23.3960 C   0  0  0  0  0  0  0  0  0  0  0  0
  -18.9120  -30.1680   23.9670 C   0  0  0  0  0  3  0  0  0  0  0  0
  -17.5960  -30.6420   24.1180 C   0  0  0  0  0  3  0  0  0  0  0  0
  -16.5120  -29.8480   23.7080 C   0  0  0  0  0  3  0  0  0  0  0  0
  -16.7450  -28.5820   23.1410 C   0  0  0  0  0  3  0  0  0  0  0  0
  -25.9030  -32.6130   23.8750 C   0  0  0  0  0  3  0  0  0  0  0  0
  -25.5750  -34.0150   24.1920 N   0  0  0  0  0  0  0  0  0  0  0  0
  -25.8990  -35.0720   23.4340 C   0  0  0  0  0  0  0  0  0  0  0  0
  -26.5670  -34.9690   22.4030 O   0  0  0  0  0  0  0  0  0  0  0  0
  -24.9840  -34.1680   24.9970 H   0  0  0  0  0  0  0  0  0  0  0  0
  -24.1620  -36.8610   23.0840 C   0  0  0  0  0  1  0  0  0  0  0  0
  -25.4090  -36.4620   23.8910 C   0  0  0  0  0  3  0  0  0  0  0  0
  -27.5360  -37.3710   24.7150 C   0  0  0  0  0  1  0  0  0  0  0  0
  -26.4350  -37.5200   23.7690 N   0  0  0  0  0  0  0  0  0  0  0  0
  -26.0230  -38.4390   23.9070 H   0  0  0  0  0  0  0  0  0  0  0  0
  -26.4090  -31.8710   25.1730 C   0  0  1  0  0  0  0  0  0  0  0  0
  -25.3010  -31.6340   26.2260 C   0  0  0  0  0  1  0  0  0  0  0  0
  -27.0230  -30.4960   24.8220 C   0  0  0  0  0  1  0  0  0  0  0  0
  -27.5360  -32.6950   25.8420 C   0  0  0  0  0  1  0  0  0  0  0  0
  -29.5310  -17.0510   20.5870 C   0  0  0  0  0  2  0  0  0  0  0  0
  -30.4030  -15.5170   20.2410 C   0  0  0  0  0  0  0  0  0  0  0  0
  -30.4500  -13.0380   19.3670 C   0  0  0  0  0  2  0  0  0  0  0  0
  -29.5090  -12.8090   18.1530 C   0  0  0  0  0  2  0  0  0  0  0  0
  -28.0720  -12.5080   18.6150 C   0  0  0  0  0  2  0  0  0  0  0  0
  -27.6270  -13.4650   19.7460 C   0  0  0  0  0  3  0  0  0  0  0  0
  -28.6900  -13.6270   20.8520 C   0  0  0  0  0  2  0  0  0  0  0  0
  -29.9060  -14.1680   20.2180 N   0  0  0  0  0  0  0  0  0  0  0  0
  -31.6060  -15.5310   19.9330 O   0  0  0  0  0  0  0  0  0  0  0  0
  -25.2740  -14.0050   20.5620 C   0  0  0  0  0  0  0  0  0  0  0  0
  -24.2200  -13.2210   20.9400 C   0  0  0  0  0  0  0  0  0  0  0  0
  -24.6880  -11.8720   20.8790 C   0  0  0  0  0  0  0  0  0  0  0  0
  -26.3120  -13.1340   20.2800 N   0  0  0  0  0  0  0  0  0  0  0  0
  -25.9720  -11.8440   20.5400 N   0  0  0  0  0  0  0  0  0  0  0  0
  -23.9620  -10.6070   21.0630 C   0  0  0  0  0  0  0  0  0  0  0  0
  -24.4050   -9.6300   21.9810 C   0  0  0  0  0  3  0  0  0  0  0  0
  -23.6780   -8.4320   22.1580 C   0  0  0  0  0  3  0  0  0  0  0  0
  -22.4960   -8.2020   21.4160 C   0  0  0  0  0  0  0  0  0  0  0  0
  -22.0710   -9.1690   20.4880 C   0  0  0  0  0  3  0  0  0  0  0  0
  -22.7970  -10.3580   20.3090 C   0  0  0  0  0  3  0  0  0  0  0  0
  -21.7390   -7.0580   21.5020 O   0  0  0  0  0  0  0  0  0  0  0  0
  -21.6930   -6.3100   22.6500 C   0  0  0  0  0  0  0  0  0  0  0  0
  -21.2430   -6.8520   23.8750 C   0  0  0  0  0  3  0  0  0  0  0  0
  -21.1470   -6.0280   25.0150 C   0  0  0  0  0  3  0  0  0  0  0  0
  -21.4890   -4.6660   24.9310 C   0  0  0  0  0  0  0  0  0  0  0  0
  -21.9320   -4.1240   23.7120 C   0  0  0  0  0  3  0  0  0  0  0  0
  -22.0300   -4.9440   22.5740 C   0  0  0  0  0  0  0  0  0  0  0  0
  -22.4370   -4.4130   21.3960 F   0  0  0  0  0  0  0  0  0  0  0  0
  -21.3890   -3.8740   26.0240 F   0  0  0  0  0  0  0  0  0  0  0  0
  -22.8290  -13.6940   21.2420 C   0  0  0  0  0  0  0  0  0  0  0  0
  -22.1160  -12.9880   22.1120 N   0  0  0  0  0  0  0  0  0  0  0  0
  -22.3840  -14.7260   20.7410 O   0  0  0  0  0  0  0  0  0  0  0  0
  -22.4890  -12.1540   22.5390 H   0  0  0  0  0  0  0  0  0  0  0  0
  -21.1820  -13.2870   22.3560 H   0  0  0  0  0  0  0  0  0  0  0  0
  -25.4320  -15.3780   20.4040 N   0  0  0  0  0  0  0  0  0  0  0  0
  -24.6660  -16.0270   20.5420 H   0  0  0  0  0  0  0  0  0  0  0  0
  -26.2720  -15.8240   20.0610 H   0  0  0  0  0  0  0  0  0  0  0  0
  2  6  2  0
  2  4  1  0
  3  1  1  0
  3  7  1  0
  4  3  2  0
  5 53  1  0
  5  1  2  0
  6  5  1  0
  8  4  1  0
  8  9  2  0
  9 12  1  0
  9  7  1  0
 10 11  1  0
 11  6  1  0
 13 24  2  0
 14 12  1  0
 14 19  1  0
 15 23  1  0
 15 25  1  0
 16 22  1  0
 16 18  1  0
 17 23  1  0
 18 19  2  0
 18 17  1  0
 20 14  2  0
 21 20  1  0
 21 16  2  0
 22 15  1  0
 23 13  1  0
 25 27  2  0
 26 25  1  0
 28 26  1  0
 29 38  2  0
 29 34  1  0
 30 26  1  0
 30 34  1  0
 31 30  1  0
 32 33  1  0
 32 31  1  0
 33 29  1  0
 34 35  2  0
 35 36  1  0
 37 36  2  0
 38 37  1  0
 39 13  1  0
 39 40  1  0
 39 49  1  0
 40 43  1  0
 41 45  1  0
 41 40  1  0
 42 41  2  0
 45 44  1  0
 47 45  1  0
 47 48  1  0
 47 46  1  0
 49 52  1  1
 49 50  1  0
 51 49  1  0
 54 53  1  0
 55 60  1  0
 56 57  1  0
 56 55  1  0
 58 57  1  0
 58 65  1  0
 58 59  1  0
 60 54  1  0
 60 59  1  0
 61 54  2  0
 62 63  2  0
 63 82  1  0
 64 63  1  0
 64 67  1  0
 65 66  1  0
 65 62  1  0
 66 64  2  0
 67 68  1  0
 68 69  2  0
 70 73  1  0
 70 69  1  0
 71 70  2  0
 72 71  1  0
 72 67  2  0
 73 74  1  0
 74 75  1  0
 75 76  2  0
 77 76  1  0
 77 81  1  0
 78 77  2  0
 79 74  2  0
 79 78  1  0
 80 79  1  0
 82 83  1  0
 83 86  1  0
 83 85  1  0
 84 82  2  0
 87 88  1  0
 87 62  1  0
 89 87  1  0
M  ISO  4   9 101  12 101  53 100  54 100
M  END
>  <TORSDO>  (93) 
F 18

>  <SCORE>  (93) 
-15.959

>  <name>  (93) 
92

>  <ligand_id>  (93) 
92

>  <original_smiles>  (93) 
[H]c1c([H])c([H])c2c(c1[H])C([H])([H])C([H])([H])C([H])([H])C2([H])N([H])C(=O)C1([H])N(C(=O)C([H])(N([H])C(=O)C([H])(N([H])C([H])([H])[H])C([H])([H])[H])C(C([H])([H])[H])(C([H])([H])[H])C([H])([H])[H])C([H])([H])c2c([H])c(OC3([H])C([H])([H])c4c([H])c(C([H])([H])C(=O)N5C([H])([H])C([H])([H])C([H])([H])C([H])(n6nc(-c7c([H])c([H])c(Oc8c([H])c([H])c(F)c([H])c8F)c([H])c7[H])c(C(=O)N([H])[H])c6N([H])[H])C5([H])[H])c(C([H])([H])C([H])([H])[H])c([H])c4C3([H])[H])c([H])c([H])c2C1([H])[H]

>  <smiles>  (93) 
[H]c1c([H])c([H])c2c(c1[H])C([H])([H])C([H])([H])C([H])([H])C2([H])N([H])C(=O)C1([H])N(C(=O)C([H])(N([H])C(=O)C([H])(N([H])C([H])([H])[H])C([H])([H])[H])C(C([H])([H])[H])(C([H])([H])[H])C([H])([H])[H])C([H])([H])c2c([H])c(OC3([H])C([H])([H])c4c([H])c(C([H])([H])C(=O)N5C([H])([H])C([H])([H])C([H])([H])C([H])(n6nc(-c7c([H])c([H])c(Oc8c([H])c([H])c(F)c([H])c8F)c([H])c7[H])c(C(=O)N([H])[H])c6N([H])[H])C5([H])[H])c(C([H])([H])C([H])([H])[H])c([H])c4C3([H])[H])c([H])c([H])c2C1([H])[H]

$$$$
93:0:0
     RDKit          3D

 94102  0  0  1  0  0  0  0  0999 V2000
  -29.3600  -25.7140   23.4690 C   0  0  0  0  0  3  0  0  0  0  0  0
  -29.0280  -26.5560   22.3910 C   0  0  0  0  0  3  0  0  0  0  0  0
  -28.7670  -24.6080   20.9630 C   0  0  0  0  0  3  0  0  0  0  0  0
  -29.3990  -24.3090   23.3110 C   0  0  0  0  0  0  0  0  0  0  0  0
  -29.1220  -23.7520   22.0290 C   0  0  0  0  0  0  0  0  0  0  0  0
  -28.7160  -26.0020   21.1340 C   0  0  0  0  0  0  0  0  0  0  0  0
  -29.2700  -22.2680   21.7220 C   0  0  0  0  0  1  0  0  0  0  0  0
  -29.8490  -23.5100   24.4890 C   0  0  0  0  0  0  0  0  0  0  0  0
  -30.8990  -23.7570   25.0910 O   0  0  0  0  0  0  0  0  0  0  0  0
  -28.9100  -22.4190   25.0220 C   0  0  0  0  0  2  0  0  0  0  0  0
  -29.6270  -21.1750   25.5950 C   0  0  0  0  0  2  0  0  0  0  0  0
  -30.3990  -20.3460   24.5490 C   0  0  0  0  0  2  0  0  0  0  0  0
  -31.0700  -19.0940   25.1410 C   0  0  0  0  0  2  0  0  0  0  0  0
  -31.6630  -18.1520   24.0740 C   0  0  0  0  0  2  0  0  0  0  0  0
  -30.6080  -17.2990   23.3480 C   0  0  0  0  0  2  0  0  0  0  0  0
  -31.2060  -16.4010   22.2490 C   0  0  0  0  0  2  0  0  0  0  0  0
  -30.2110  -15.3160   21.7950 C   0  0  0  0  0  2  0  0  0  0  0  0
  -30.7380  -14.3600   20.7080 C   0  0  0  0  0  0  0  0  0  0  0  0
  -30.4200  -12.2920   19.3850 C   0  0  0  0  0  2  0  0  0  0  0  0
  -29.4820  -12.5310   18.1870 C   0  0  0  0  0  2  0  0  0  0  0  0
  -28.0050  -12.3840   18.6020 C   0  0  0  0  0  2  0  0  0  0  0  0
  -27.6660  -13.1950   19.8800 C   0  0  0  0  0  3  0  0  0  0  0  0
  -28.7020  -12.9170   20.9880 C   0  0  0  0  0  2  0  0  0  0  0  0
  -30.0390  -13.2250   20.4530 N   0  0  0  0  0  0  0  0  0  0  0  0
  -31.7730  -14.6550   20.0970 O   0  0  0  0  0  0  0  0  0  0  0  0
  -25.2620  -13.8140   20.5670 C   0  0  0  0  0  0  0  0  0  0  0  0
  -24.1850  -13.0420   20.9150 C   0  0  0  0  0  0  0  0  0  0  0  0
  -24.6390  -11.6890   20.8720 C   0  0  0  0  0  0  0  0  0  0  0  0
  -26.3040  -12.9280   20.3370 N   0  0  0  0  0  0  0  0  0  0  0  0
  -25.9300  -11.6450   20.5730 N   0  0  0  0  0  0  0  0  0  0  0  0
  -23.9050  -10.4280   21.0410 C   0  0  0  0  0  0  0  0  0  0  0  0
  -24.3600   -9.4210   21.9190 C   0  0  0  0  0  3  0  0  0  0  0  0
  -23.6280   -8.2240   22.0770 C   0  0  0  0  0  3  0  0  0  0  0  0
  -22.4270   -8.0280   21.3550 C   0  0  0  0  0  0  0  0  0  0  0  0
  -21.9900   -9.0250   20.4650 C   0  0  0  0  0  3  0  0  0  0  0  0
  -22.7220  -10.2130   20.3050 C   0  0  0  0  0  3  0  0  0  0  0  0
  -21.6630   -6.8880   21.4240 O   0  0  0  0  0  0  0  0  0  0  0  0
  -21.6860   -6.0730   22.5280 C   0  0  0  0  0  0  0  0  0  0  0  0
  -21.4010   -6.5640   23.8210 C   0  0  0  0  0  3  0  0  0  0  0  0
  -21.3660   -5.6800   24.9190 C   0  0  0  0  0  3  0  0  0  0  0  0
  -21.6050   -4.3060   24.7240 C   0  0  0  0  0  0  0  0  0  0  0  0
  -21.8820   -3.8150   23.4360 C   0  0  0  0  0  3  0  0  0  0  0  0
  -21.9190   -4.6960   22.3410 C   0  0  0  0  0  0  0  0  0  0  0  0
  -22.1660   -4.2140   21.0990 F   0  0  0  0  0  0  0  0  0  0  0  0
  -21.5630   -3.4550   25.7740 F   0  0  0  0  0  0  0  0  0  0  0  0
  -22.7870  -13.5230   21.1830 C   0  0  0  0  0  0  0  0  0  0  0  0
  -22.0520  -12.8220   22.0410 N   0  0  0  0  0  0  0  0  0  0  0  0
  -22.3560  -14.5540   20.6700 O   0  0  0  0  0  0  0  0  0  0  0  0
  -22.4120  -11.9850   22.4740 H   0  0  0  0  0  0  0  0  0  0  0  0
  -21.1160  -13.1270   22.2650 H   0  0  0  0  0  0  0  0  0  0  0  0
  -25.4350  -15.1860   20.4100 N   0  0  0  0  0  0  0  0  0  0  0  0
  -24.6730  -15.8460   20.5240 H   0  0  0  0  0  0  0  0  0  0  0  0
  -26.2970  -15.6240   20.1100 H   0  0  0  0  0  0  0  0  0  0  0  0
  -28.4210  -26.7910   20.0520 O   0  0  0  0  0  0  0  0  0  0  0  0
  -24.6100  -31.8690   23.2150 C   0  0  0  0  0  0  0  0  0  0  0  0
  -27.2490  -27.4950   20.0950 C   0  0  0  0  0  0  0  0  0  0  0  0
  -23.3950  -30.4920   21.5550 C   0  0  0  0  0  3  0  0  0  0  0  0
  -24.8430  -28.9600   20.1220 C   0  0  0  0  0  0  0  0  0  0  0  0
  -25.9130  -30.8630   21.3490 C   0  0  0  0  0  2  0  0  0  0  0  0
  -25.9990  -29.4970   20.7040 C   0  0  0  0  0  0  0  0  0  0  0  0
  -27.2070  -28.7740   20.6830 C   0  0  0  0  0  3  0  0  0  0  0  0
  -26.0840  -26.9540   19.5160 C   0  0  0  0  0  3  0  0  0  0  0  0
  -24.8780  -27.6830   19.5270 C   0  0  0  0  0  3  0  0  0  0  0  0
  -23.5980  -29.8160   20.1730 C   0  0  0  0  0  2  0  0  0  0  0  0
  -24.6580  -31.0860   22.1010 N   0  0  0  0  0  0  0  0  0  0  0  0
  -23.5300  -32.1420   23.7560 O   0  0  0  0  0  0  0  0  0  0  0  0
  -22.7360  -29.4680   22.5070 C   0  0  0  0  0  0  0  0  0  0  0  0
  -21.4090  -29.3030   22.3770 N   0  0  0  0  0  0  0  0  0  0  0  0
  -23.4140  -28.8230   23.3100 O   0  0  0  0  0  0  0  0  0  0  0  0
  -20.9240  -29.8700   21.6950 H   0  0  0  0  0  0  0  0  0  0  0  0
  -18.0230  -28.1380   22.8530 C   0  0  0  0  0  0  0  0  0  0  0  0
  -20.5820  -28.3660   23.1360 C   0  0  0  0  0  3  0  0  0  0  0  0
  -20.6730  -26.9410   22.5410 C   0  0  0  0  0  2  0  0  0  0  0  0
  -19.5670  -26.6390   21.5230 C   0  0  0  0  0  2  0  0  0  0  0  0
  -18.1860  -26.7930   22.1650 C   0  0  0  0  0  2  0  0  0  0  0  0
  -19.1480  -28.8830   23.2940 C   0  0  0  0  0  0  0  0  0  0  0  0
  -18.9420  -30.1430   23.8950 C   0  0  0  0  0  3  0  0  0  0  0  0
  -17.6430  -30.6600   24.0570 C   0  0  0  0  0  3  0  0  0  0  0  0
  -16.5320  -29.9110   23.6360 C   0  0  0  0  0  3  0  0  0  0  0  0
  -16.7220  -28.6510   23.0410 C   0  0  0  0  0  3  0  0  0  0  0  0
  -25.9010  -32.4840   23.8440 C   0  0  0  0  0  3  0  0  0  0  0  0
  -26.4480  -31.6610   25.0740 C   0  0  1  0  0  0  0  0  0  0  0  0
  -25.3760  -31.3580   26.1470 C   0  0  0  0  0  1  0  0  0  0  0  0
  -27.0410  -30.3120   24.6030 C   0  0  0  0  0  1  0  0  0  0  0  0
  -27.6020  -32.4350   25.7530 C   0  0  0  0  0  1  0  0  0  0  0  0
  -25.5850  -33.8640   24.2350 N   0  0  0  0  0  0  0  0  0  0  0  0
  -25.9010  -34.9490   23.5140 C   0  0  0  0  0  0  0  0  0  0  0  0
  -26.5590  -34.8920   22.4710 O   0  0  0  0  0  0  0  0  0  0  0  0
  -24.9980  -33.9810   25.0470 H   0  0  0  0  0  0  0  0  0  0  0  0
  -24.1480  -36.7330   23.2670 C   0  0  0  0  0  1  0  0  0  0  0  0
  -25.4110  -36.3120   24.0340 C   0  0  0  0  0  3  0  0  0  0  0  0
  -27.5580  -37.1820   24.8480 C   0  0  0  0  0  1  0  0  0  0  0  0
  -26.4300  -37.3800   23.9400 N   0  0  0  0  0  0  0  0  0  0  0  0
  -26.0190  -38.2890   24.1380 H   0  0  0  0  0  0  0  0  0  0  0  0
  2  1  2  0
  3  6  2  0
  3  5  1  0
  4  1  1  0
  4  8  1  0
  5  4  2  0
  6  2  1  0
  7  5  1  0
  8 10  1  0
  8  9  2  0
 10 11  1  0
 12 13  1  0
 12 11  1  0
 14 13  1  0
 15 14  1  0
 16 15  1  0
 17 16  1  0
 18 17  1  0
 19 24  1  0
 20 21  1  0
 20 19  1  0
 22 21  1  0
 22 29  1  0
 22 23  1  0
 24 18  1  0
 24 23  1  0
 25 18  2  0
 26 27  2  0
 27 46  1  0
 28 27  1  0
 28 31  1  0
 29 26  1  0
 29 30  1  0
 30 28  2  0
 31 32  1  0
 32 33  2  0
 34 37  1  0
 34 33  1  0
 35 34  2  0
 36 35  1  0
 36 31  2  0
 37 38  1  0
 38 39  1  0
 39 40  2  0
 41 40  1  0
 41 45  1  0
 42 41  2  0
 43 38  2  0
 43 42  1  0
 44 43  1  0
 46 47  1  0
 47 50  1  0
 47 49  1  0
 48 46  2  0
 51 52  1  0
 51 26  1  0
 53 51  1  0
 54 56  1  0
 54  6  1  0
 55 66  2  0
 56 61  1  0
 57 65  1  0
 57 67  1  0
 58 64  1  0
 58 60  1  0
 59 65  1  0
 60 59  1  0
 61 60  2  0
 62 63  1  0
 62 56  2  0
 63 58  2  0
 64 57  1  0
 65 55  1  0
 67 69  2  0
 68 67  1  0
 70 68  1  0
 71 80  2  0
 71 76  1  0
 72 68  1  0
 72 76  1  0
 73 72  1  0
 74 75  1  0
 74 73  1  0
 75 71  1  0
 76 77  2  0
 77 78  1  0
 79 78  2  0
 80 79  1  0
 81 55  1  0
 81 86  1  0
 81 82  1  0
 82 85  1  1
 82 83  1  0
 84 82  1  0
 86 89  1  0
 87 91  1  0
 87 86  1  0
 88 87  2  0
 91 90  1  0
 93 91  1  0
 93 94  1  0
 93 92  1  0
M  ISO  4   6 101  17 100  18 100  54 101
M  END
>  <TORSDO>  (94) 
F 25

>  <SCORE>  (94) 
-2.697

>  <name>  (94) 
93

>  <ligand_id>  (94) 
93

>  <original_smiles>  (94) 
[H]c1c([H])c([H])c2c(c1[H])C([H])([H])C([H])([H])C([H])([H])C2([H])N([H])C(=O)C1([H])N(C(=O)C([H])(N([H])C(=O)C([H])(N([H])C([H])([H])[H])C([H])([H])[H])C(C([H])([H])[H])(C([H])([H])[H])C([H])([H])[H])C([H])([H])c2c([H])c(Oc3c([H])c([H])c(C(=O)C([H])([H])C([H])([H])C([H])([H])C([H])([H])C([H])([H])C([H])([H])C([H])([H])C([H])([H])C(=O)N4C([H])([H])C([H])([H])C([H])([H])C([H])(n5nc(-c6c([H])c([H])c(Oc7c([H])c([H])c(F)c([H])c7F)c([H])c6[H])c(C(=O)N([H])[H])c5N([H])[H])C4([H])[H])c(C([H])([H])[H])c3[H])c([H])c([H])c2C1([H])[H]

>  <smiles>  (94) 
[H]c1c([H])c([H])c2c(c1[H])C([H])([H])C([H])([H])C([H])([H])C2([H])N([H])C(=O)C1([H])N(C(=O)C([H])(N([H])C(=O)C([H])(N([H])C([H])([H])[H])C([H])([H])[H])C(C([H])([H])[H])(C([H])([H])[H])C([H])([H])[H])C([H])([H])c2c([H])c(Oc3c([H])c([H])c(C(=O)C([H])([H])C([H])([H])C([H])([H])C([H])([H])C([H])([H])C([H])([H])C([H])([H])C([H])([H])C(=O)N4C([H])([H])C([H])([H])C([H])([H])C([H])(n5nc(-c6c([H])c([H])c(Oc7c([H])c([H])c(F)c([H])c7F)c([H])c6[H])c(C(=O)N([H])[H])c5N([H])[H])C4([H])[H])c(C([H])([H])[H])c3[H])c([H])c([H])c2C1([H])[H]

$$$$
94:0:0
     RDKit          3D

 89 98  0  0  1  0  0  0  0  0999 V2000
  -30.8030  -15.5360   19.8040 C   0  0  0  0  0  0  0  0  0  0  0  0
  -30.8310  -12.9890   19.1740 C   0  0  0  0  0  2  0  0  0  0  0  0
  -29.9160  -12.6050   17.9820 C   0  0  0  0  0  2  0  0  0  0  0  0
  -28.4820  -12.3280   18.4650 C   0  0  0  0  0  2  0  0  0  0  0  0
  -28.0120  -13.3890   19.4910 C   0  0  0  0  0  3  0  0  0  0  0  0
  -29.0620  -13.6980   20.5800 C   0  0  0  0  0  2  0  0  0  0  0  0
  -30.2600  -14.2050   19.8860 N   0  0  0  0  0  0  0  0  0  0  0  0
  -31.9950  -15.4940   19.4520 O   0  0  0  0  0  0  0  0  0  0  0  0
  -28.3820  -21.0790   21.3280 C   0  0  0  0  0  3  0  0  0  0  0  0
  -29.3990  -21.2760   18.8390 C   0  0  0  0  0  2  0  0  0  0  0  0
  -28.8940  -19.8630   20.7680 C   0  0  0  0  0  0  0  0  0  0  0  0
  -29.4930  -19.8720   19.5060 C   0  0  0  0  0  0  0  0  0  0  0  0
  -28.3500  -22.3720   20.6920 C   0  0  0  0  0  0  0  0  0  0  0  0
  -28.8150  -22.6180   19.3660 C   0  0  0  0  0  0  0  0  0  0  0  0
  -28.7040  -18.4970   21.4760 C   0  0  0  0  0  3  0  0  0  0  0  0
  -30.1180  -18.3080   19.0680 C   0  0  0  0  0  3  0  0  0  0  0  0
  -29.7590  -17.3310   21.2730 C   0  0  0  0  0  3  0  0  0  0  0  0
  -27.7180  -23.5190   21.4620 C   0  0  0  0  0  1  0  0  0  0  0  0
  -30.0720  -16.8640   19.8960 N   0  0  0  0  0  0  0  0  0  0  0  0
  -25.7160  -13.9900   20.4090 C   0  0  0  0  0  0  0  0  0  0  0  0
  -24.6390  -13.2360   20.7790 C   0  0  0  0  0  0  0  0  0  0  0  0
  -25.0400  -11.8720   20.6350 C   0  0  0  0  0  0  0  0  0  0  0  0
  -26.7020  -13.0890   20.0480 N   0  0  0  0  0  0  0  0  0  0  0  0
  -26.3120  -11.8040   20.2520 N   0  0  0  0  0  0  0  0  0  0  0  0
  -24.2640  -10.6320   20.7800 C   0  0  0  0  0  0  0  0  0  0  0  0
  -24.7210   -9.5630   21.5810 C   0  0  0  0  0  3  0  0  0  0  0  0
  -23.9460   -8.3920   21.7210 C   0  0  0  0  0  3  0  0  0  0  0  0
  -22.6970   -8.2820   21.0620 C   0  0  0  0  0  0  0  0  0  0  0  0
  -22.2570   -9.3400   20.2480 C   0  0  0  0  0  3  0  0  0  0  0  0
  -23.0330  -10.5030   20.1040 C   0  0  0  0  0  3  0  0  0  0  0  0
  -21.8880   -7.1730   21.1210 O   0  0  0  0  0  0  0  0  0  0  0  0
  -21.9480   -6.2920   22.1710 C   0  0  0  0  0  0  0  0  0  0  0  0
  -21.7290   -6.7050   23.5040 C   0  0  0  0  0  3  0  0  0  0  0  0
  -21.7320   -5.7540   24.5430 C   0  0  0  0  0  3  0  0  0  0  0  0
  -21.9430   -4.3920   24.2540 C   0  0  0  0  0  0  0  0  0  0  0  0
  -22.1560   -3.9790   22.9270 C   0  0  0  0  0  3  0  0  0  0  0  0
  -22.1550   -4.9260   21.8880 C   0  0  0  0  0  0  0  0  0  0  0  0
  -22.3390   -4.5200   20.6090 F   0  0  0  0  0  0  0  0  0  0  0  0
  -21.9380   -3.4790   25.2520 F   0  0  0  0  0  0  0  0  0  0  0  0
  -23.2810  -13.7560   21.1500 C   0  0  0  0  0  0  0  0  0  0  0  0
  -22.5740  -13.0520   22.0270 N   0  0  0  0  0  0  0  0  0  0  0  0
  -22.8600  -14.8200   20.6980 O   0  0  0  0  0  0  0  0  0  0  0  0
  -22.9290  -12.1910   22.4120 H   0  0  0  0  0  0  0  0  0  0  0  0
  -21.6630  -13.3800   22.3150 H   0  0  0  0  0  0  0  0  0  0  0  0
  -25.9360  -15.3610   20.3170 N   0  0  0  0  0  0  0  0  0  0  0  0
  -25.2120  -16.0420   20.5190 H   0  0  0  0  0  0  0  0  0  0  0  0
  -26.7950  -15.7820   19.9850 H   0  0  0  0  0  0  0  0  0  0  0  0
  -28.4150  -24.1790   18.5870 C   0  0  0  0  0  2  0  0  0  0  0  0
  -28.4850  -25.8150   18.9760 O   0  0  0  0  0  0  0  0  0  0  0  0
  -24.6650  -31.2940   22.5910 C   0  0  0  0  0  0  0  0  0  0  0  0
  -27.4280  -26.8960   18.9920 C   0  0  0  0  0  0  0  0  0  0  0  0
  -23.5120  -29.9980   20.8460 C   0  0  0  0  0  3  0  0  0  0  0  0
  -25.0150  -28.6530   19.2120 C   0  0  0  0  0  0  0  0  0  0  0  0
  -26.0560  -30.3820   20.6590 C   0  0  0  0  0  2  0  0  0  0  0  0
  -26.1950  -29.0540   19.8480 C   0  0  0  0  0  0  0  0  0  0  0  0
  -27.3870  -28.1960   19.7220 C   0  0  0  0  0  3  0  0  0  0  0  0
  -26.2100  -26.6790   18.3060 C   0  0  0  0  0  3  0  0  0  0  0  0
  -25.0490  -27.4940   18.4200 C   0  0  0  0  0  3  0  0  0  0  0  0
  -23.7400  -29.4810   19.3980 C   0  0  0  0  0  2  0  0  0  0  0  0
  -24.7660  -30.5840   21.4200 N   0  0  0  0  0  0  0  0  0  0  0  0
  -23.5780  -31.4530   23.1700 O   0  0  0  0  0  0  0  0  0  0  0  0
  -22.9170  -28.8630   21.7210 C   0  0  0  0  0  0  0  0  0  0  0  0
  -21.5870  -28.6620   21.6650 N   0  0  0  0  0  0  0  0  0  0  0  0
  -23.6570  -28.1670   22.4200 O   0  0  0  0  0  0  0  0  0  0  0  0
  -21.0370  -29.2780   21.0820 H   0  0  0  0  0  0  0  0  0  0  0  0
  -18.2940  -27.2380   22.2170 C   0  0  0  0  0  0  0  0  0  0  0  0
  -20.8510  -27.6000   22.3620 C   0  0  0  0  0  3  0  0  0  0  0  0
  -20.9770  -26.2540   21.6120 C   0  0  0  0  0  2  0  0  0  0  0  0
  -19.8290  -26.0000   20.6300 C   0  0  0  0  0  2  0  0  0  0  0  0
  -18.4860  -25.9930   21.3650 C   0  0  0  0  0  2  0  0  0  0  0  0
  -19.4030  -28.0000   22.6700 C   0  0  0  0  0  0  0  0  0  0  0  0
  -19.1630  -29.1640   23.4330 C   0  0  0  0  0  3  0  0  0  0  0  0
  -17.8510  -29.5680   23.7410 C   0  0  0  0  0  3  0  0  0  0  0  0
  -16.7580  -28.8020   23.3000 C   0  0  0  0  0  3  0  0  0  0  0  0
  -16.9810  -27.6370   22.5430 C   0  0  0  0  0  3  0  0  0  0  0  0
  -25.9110  -31.9580   23.2560 C   0  0  0  0  0  3  0  0  0  0  0  0
  -25.4970  -33.2660   23.7950 N   0  0  0  0  0  0  0  0  0  0  0  0
  -25.8130  -34.4530   23.2610 C   0  0  0  0  0  0  0  0  0  0  0  0
  -26.5440  -34.5640   22.2730 O   0  0  0  0  0  0  0  0  0  0  0  0
  -24.8490  -33.2490   24.5690 H   0  0  0  0  0  0  0  0  0  0  0  0
  -24.0230  -36.2200   23.1150 C   0  0  0  0  0  1  0  0  0  0  0  0
  -25.2310  -35.7200   23.9240 C   0  0  0  0  0  3  0  0  0  0  0  0
  -27.2600  -36.5280   25.0490 C   0  0  0  0  0  1  0  0  0  0  0  0
  -26.2150  -36.8150   24.0690 N   0  0  0  0  0  0  0  0  0  0  0  0
  -25.7560  -37.6810   24.3390 H   0  0  0  0  0  0  0  0  0  0  0  0
  -26.5400  -31.0760   24.4050 C   0  0  1  0  0  0  0  0  0  0  0  0
  -25.5200  -30.6200   25.4740 C   0  0  0  0  0  1  0  0  0  0  0  0
  -27.2080  -29.8070   23.8280 C   0  0  0  0  0  1  0  0  0  0  0  0
  -27.6590  -31.8710   25.1210 C   0  0  0  0  0  1  0  0  0  0  0  0
  1  7  1  0
  1 19  1  0
  2  7  1  0
  3  4  1  0
  3  2  1  0
  5  4  1  0
  5 23  1  0
  5  6  1  0
  7  6  1  0
  8  1  2  0
 10 14  1  0
 10 12  1  0
 11  9  2  0
 11 15  1  0
 12 11  1  0
 13  9  1  0
 13 18  1  0
 14 13  2  0
 16 12  2  0
 16 19  1  0
 17 15  2  0
 19 17  1  0
 20 21  2  0
 21 40  1  0
 22 21  1  0
 22 25  1  0
 23 24  1  0
 23 20  1  0
 24 22  2  0
 25 26  1  0
 26 27  2  0
 28 31  1  0
 28 27  1  0
 29 28  2  0
 30 29  1  0
 30 25  2  0
 31 32  1  0
 32 33  1  0
 33 34  2  0
 35 34  1  0
 35 39  1  0
 36 35  2  0
 37 32  2  0
 37 36  1  0
 38 37  1  0
 40 41  1  0
 41 44  1  0
 41 43  1  0
 42 40  2  0
 45 20  1  0
 45 46  1  0
 47 45  1  0
 48 49  1  0
 48 14  1  0
 49 51  1  0
 50 61  2  0
 51 56  1  0
 52 60  1  0
 52 62  1  0
 53 59  1  0
 53 55  1  0
 54 60  1  0
 55 54  1  0
 56 55  2  0
 57 58  1  0
 57 51  2  0
 58 53  2  0
 59 52  1  0
 60 50  1  0
 62 64  2  0
 63 62  1  0
 65 63  1  0
 66 75  2  0
 66 71  1  0
 67 63  1  0
 67 71  1  0
 68 67  1  0
 69 70  1  0
 69 68  1  0
 70 66  1  0
 71 72  2  0
 72 73  1  0
 74 73  2  0
 75 74  1  0
 76 50  1  0
 76 77  1  0
 76 86  1  0
 77 80  1  0
 78 77  1  0
 78 82  1  0
 79 78  2  0
 82 81  1  0
 82 84  1  0
 84 85  1  0
 84 83  1  0
 86 89  1  1
 86 87  1  0
 88 86  1  0
M  ISO  4   1 100  19 100  48 101  49 101
M  END
>  <TORSDO>  (95) 
F 16

>  <SCORE>  (95) 
-12.752

>  <name>  (95) 
94

>  <ligand_id>  (95) 
94

>  <original_smiles>  (95) 
[H]c1c([H])c([H])c2c(c1[H])C([H])([H])C([H])([H])C([H])([H])C2([H])N([H])C(=O)C1([H])N(C(=O)C([H])(N([H])C(=O)C([H])(N([H])C([H])([H])[H])C([H])([H])[H])C(C([H])([H])[H])(C([H])([H])[H])C([H])([H])[H])C([H])([H])c2c([H])c(OC([H])([H])c3c([H])c4c(c([H])c3C([H])([H])[H])C([H])([H])C([H])([H])N(C(=O)N3C([H])([H])C([H])([H])C([H])([H])C([H])(n5nc(-c6c([H])c([H])c(Oc7c([H])c([H])c(F)c([H])c7F)c([H])c6[H])c(C(=O)N([H])[H])c5N([H])[H])C3([H])[H])C4([H])[H])c([H])c([H])c2C1([H])[H]

>  <smiles>  (95) 
[H]c1c([H])c([H])c2c(c1[H])C([H])([H])C([H])([H])C([H])([H])C2([H])N([H])C(=O)C1([H])N(C(=O)C([H])(N([H])C(=O)C([H])(N([H])C([H])([H])[H])C([H])([H])[H])C(C([H])([H])[H])(C([H])([H])[H])C([H])([H])[H])C([H])([H])c2c([H])c(OC([H])([H])c3c([H])c4c(c([H])c3C([H])([H])[H])C([H])([H])C([H])([H])N(C(=O)N3C([H])([H])C([H])([H])C([H])([H])C([H])(n5nc(-c6c([H])c([H])c(Oc7c([H])c([H])c(F)c([H])c7F)c([H])c6[H])c(C(=O)N([H])[H])c5N([H])[H])C3([H])[H])C4([H])[H])c([H])c([H])c2C1([H])[H]

$$$$
95:0:0
     RDKit          3D

 92100  0  0  1  0  0  0  0  0999 V2000
  -31.3580  -22.4830   19.4090 C   0  0  0  0  0  3  0  0  0  0  0  0
  -32.2590  -23.4240   18.8970 C   0  0  0  0  0  3  0  0  0  0  0  0
  -30.6030  -25.1360   19.2280 C   0  0  0  0  0  3  0  0  0  0  0  0
  -30.0310  -22.7910   19.8240 C   0  0  0  0  0  0  0  0  0  0  0  0
  -29.6480  -24.2230   19.7520 C   0  0  0  0  0  0  0  0  0  0  0  0
  -31.8790  -24.7670   18.7800 C   0  0  0  0  0  0  0  0  0  0  0  0
  -33.8140  -25.3400   17.4860 C   0  0  0  0  0  1  0  0  0  0  0  0
  -32.6810  -25.7520   18.2450 O   0  0  0  0  0  0  0  0  0  0  0  0
  -29.1950  -21.5040   20.2730 C   0  0  0  0  0  3  0  0  0  0  0  0
  -29.9420  -20.0460   20.1940 C   0  0  0  0  0  3  0  0  0  0  0  0
  -29.3180  -18.5950   20.5350 C   0  0  0  0  0  3  0  0  0  0  0  0
  -30.3160  -17.3240   20.3920 C   0  0  0  0  0  3  0  0  0  0  0  0
  -30.5960  -14.7370   20.3860 C   0  0  0  0  0  0  0  0  0  0  0  0
  -30.3800  -12.4700   19.3720 C   0  0  0  0  0  2  0  0  0  0  0  0
  -29.4450  -12.5570   18.1470 C   0  0  0  0  0  2  0  0  0  0  0  0
  -27.9740  -12.3860   18.5730 C   0  0  0  0  0  2  0  0  0  0  0  0
  -27.6010  -13.2640   19.7970 C   0  0  0  0  0  3  0  0  0  0  0  0
  -28.6590  -13.1740   20.9170 C   0  0  0  0  0  2  0  0  0  0  0  0
  -29.9560  -13.5220   20.3250 N   0  0  0  0  0  0  0  0  0  0  0  0
  -31.7790  -14.8280   20.0500 O   0  0  0  0  0  0  0  0  0  0  0  0
  -29.8470  -15.8850   20.5970 N   0  0  0  0  0  0  0  0  0  0  0  0
  -28.8770  -15.7480   20.8330 H   0  0  0  0  0  0  0  0  0  0  0  0
  -25.2090  -13.8460   20.5180 C   0  0  0  0  0  0  0  0  0  0  0  0
  -24.1450  -13.0680   20.8870 C   0  0  0  0  0  0  0  0  0  0  0  0
  -24.6140  -11.7190   20.8600 C   0  0  0  0  0  0  0  0  0  0  0  0
  -26.2560  -12.9700   20.2860 N   0  0  0  0  0  0  0  0  0  0  0  0
  -25.9060  -11.6870   20.5540 N   0  0  0  0  0  0  0  0  0  0  0  0
  -23.8920  -10.4540   21.0530 C   0  0  0  0  0  0  0  0  0  0  0  0
  -24.3310   -9.4880   21.9850 C   0  0  0  0  0  3  0  0  0  0  0  0
  -23.6090   -8.2890   22.1650 C   0  0  0  0  0  3  0  0  0  0  0  0
  -22.4340   -8.0470   21.4150 C   0  0  0  0  0  0  0  0  0  0  0  0
  -22.0150   -9.0020   20.4720 C   0  0  0  0  0  3  0  0  0  0  0  0
  -22.7370  -10.1930   20.2890 C   0  0  0  0  0  3  0  0  0  0  0  0
  -21.6830   -6.9000   21.5050 O   0  0  0  0  0  0  0  0  0  0  0  0
  -21.6460   -6.1510   22.6540 C   0  0  0  0  0  0  0  0  0  0  0  0
  -21.2320   -6.6980   23.8870 C   0  0  0  0  0  3  0  0  0  0  0  0
  -21.1460   -5.8760   25.0280 C   0  0  0  0  0  3  0  0  0  0  0  0
  -21.4600   -4.5070   24.9360 C   0  0  0  0  0  0  0  0  0  0  0  0
  -21.8670   -3.9590   23.7060 C   0  0  0  0  0  3  0  0  0  0  0  0
  -21.9570   -4.7790   22.5680 C   0  0  0  0  0  0  0  0  0  0  0  0
  -22.3290   -4.2410   21.3820 F   0  0  0  0  0  0  0  0  0  0  0  0
  -21.3680   -3.7150   26.0290 F   0  0  0  0  0  0  0  0  0  0  0  0
  -22.7460  -13.5410   21.1520 C   0  0  0  0  0  0  0  0  0  0  0  0
  -22.0190  -12.8490   22.0220 N   0  0  0  0  0  0  0  0  0  0  0  0
  -22.3050  -14.5590   20.6220 O   0  0  0  0  0  0  0  0  0  0  0  0
  -22.3860  -12.0240   22.4730 H   0  0  0  0  0  0  0  0  0  0  0  0
  -21.0790  -13.1470   22.2380 H   0  0  0  0  0  0  0  0  0  0  0  0
  -25.3670  -15.2160   20.3320 N   0  0  0  0  0  0  0  0  0  0  0  0
  -24.5970  -15.8680   20.4280 H   0  0  0  0  0  0  0  0  0  0  0  0
  -26.2070  -15.6550   19.9770 H   0  0  0  0  0  0  0  0  0  0  0  0
  -28.2930  -24.9590   20.1020 C   0  0  0  0  0  2  0  0  0  0  0  0
  -28.3520  -26.4650   20.1690 O   0  0  0  0  0  0  0  0  0  0  0  0
  -24.6260  -31.8830   23.2400 C   0  0  0  0  0  0  0  0  0  0  0  0
  -27.2090  -27.2920   20.1640 C   0  0  0  0  0  0  0  0  0  0  0  0
  -23.4070  -30.4880   21.6090 C   0  0  0  0  0  3  0  0  0  0  0  0
  -24.8430  -28.9260   20.1760 C   0  0  0  0  0  0  0  0  0  0  0  0
  -25.9480  -30.7930   21.4070 C   0  0  0  0  0  2  0  0  0  0  0  0
  -26.0190  -29.4110   20.7580 C   0  0  0  0  0  0  0  0  0  0  0  0
  -27.2030  -28.6090   20.7360 C   0  0  0  0  0  3  0  0  0  0  0  0
  -26.0020  -26.8630   19.5670 C   0  0  0  0  0  3  0  0  0  0  0  0
  -24.8390  -27.6590   19.5700 C   0  0  0  0  0  3  0  0  0  0  0  0
  -23.6090  -29.8050   20.2300 C   0  0  0  0  0  2  0  0  0  0  0  0
  -24.6800  -31.0730   22.1420 N   0  0  0  0  0  0  0  0  0  0  0  0
  -23.5460  -32.1640   23.7830 O   0  0  0  0  0  0  0  0  0  0  0  0
  -22.7460  -29.4760   22.5750 C   0  0  0  0  0  0  0  0  0  0  0  0
  -21.4190  -29.3000   22.4530 N   0  0  0  0  0  0  0  0  0  0  0  0
  -23.4260  -28.8520   23.3930 O   0  0  0  0  0  0  0  0  0  0  0  0
  -20.9290  -29.8540   21.7650 H   0  0  0  0  0  0  0  0  0  0  0  0
  -18.0450  -28.0960   22.9590 C   0  0  0  0  0  0  0  0  0  0  0  0
  -20.6020  -28.3640   23.2290 C   0  0  0  0  0  3  0  0  0  0  0  0
  -20.7090  -26.9300   22.6590 C   0  0  0  0  0  2  0  0  0  0  0  0
  -19.6080  -26.6000   21.6460 C   0  0  0  0  0  2  0  0  0  0  0  0
  -18.2260  -26.7430   22.2890 C   0  0  0  0  0  2  0  0  0  0  0  0
  -19.1610  -28.8640   23.3850 C   0  0  0  0  0  0  0  0  0  0  0  0
  -18.9380  -30.1280   23.9720 C   0  0  0  0  0  3  0  0  0  0  0  0
  -17.6320  -30.6250   24.1370 C   0  0  0  0  0  3  0  0  0  0  0  0
  -16.5300  -29.8550   23.7260 C   0  0  0  0  0  3  0  0  0  0  0  0
  -16.7370  -28.5930   23.1430 C   0  0  0  0  0  3  0  0  0  0  0  0
  -25.9140  -32.5120   23.8560 C   0  0  0  0  0  3  0  0  0  0  0  0
  -25.6060  -33.9060   24.2050 N   0  0  0  0  0  0  0  0  0  0  0  0
  -25.9150  -34.9680   23.4500 C   0  0  0  0  0  0  0  0  0  0  0  0
  -26.5610  -34.8770   22.4020 O   0  0  0  0  0  0  0  0  0  0  0  0
  -25.0280  -34.0500   25.0200 H   0  0  0  0  0  0  0  0  0  0  0  0
  -24.1680  -36.7550   23.1620 C   0  0  0  0  0  1  0  0  0  0  0  0
  -25.4340  -36.3510   23.9320 C   0  0  0  0  0  3  0  0  0  0  0  0
  -27.5880  -37.2420   24.7060 C   0  0  0  0  0  1  0  0  0  0  0  0
  -26.4580  -37.4110   23.7960 N   0  0  0  0  0  0  0  0  0  0  0  0
  -26.0520  -38.3270   23.9620 H   0  0  0  0  0  0  0  0  0  0  0  0
  -26.4440  -31.7280   25.1200 C   0  0  1  0  0  0  0  0  0  0  0  0
  -25.3620  -31.4820   26.1970 C   0  0  0  0  0  1  0  0  0  0  0  0
  -27.0230  -30.3540   24.7110 C   0  0  0  0  0  1  0  0  0  0  0  0
  -27.6020  -32.5160   25.7760 C   0  0  0  0  0  1  0  0  0  0  0  0
  1  4  1  0
  2  1  2  0
  3  5  1  0
  4  9  1  0
  5  4  2  0
  5 51  1  0
  6  2  1  0
  6  3  2  0
  7  8  1  0
  8  6  1  0
 10  9  2  0
 10 11  1  0
 12 11  2  0
 12 21  1  0
 13 21  1  0
 14 19  1  0
 15 16  1  0
 15 14  1  0
 17 16  1  0
 17 26  1  0
 17 18  1  0
 19 13  1  0
 19 18  1  0
 20 13  2  0
 21 22  1  0
 23 24  2  0
 24 43  1  0
 25 24  1  0
 25 28  1  0
 26 23  1  0
 26 27  1  0
 27 25  2  0
 28 29  1  0
 29 30  2  0
 31 34  1  0
 31 30  1  0
 32 31  2  0
 33 32  1  0
 33 28  2  0
 34 35  1  0
 35 36  1  0
 36 37  2  0
 38 37  1  0
 38 42  1  0
 39 38  2  0
 40 35  2  0
 40 39  1  0
 41 40  1  0
 43 44  1  0
 44 47  1  0
 44 46  1  0
 45 43  2  0
 48 49  1  0
 48 23  1  0
 50 48  1  0
 51 52  1  0
 53 64  2  0
 54 52  1  0
 54 59  1  0
 55 63  1  0
 55 65  1  0
 56 62  1  0
 56 58  1  0
 57 63  1  0
 58 57  1  0
 59 58  2  0
 60 61  1  0
 60 54  2  0
 61 56  2  0
 62 55  1  0
 63 53  1  0
 65 67  2  0
 66 65  1  0
 68 66  1  0
 69 78  2  0
 69 74  1  0
 70 66  1  0
 70 74  1  0
 71 70  1  0
 72 73  1  0
 72 71  1  0
 73 69  1  0
 74 75  2  0
 75 76  1  0
 77 76  2  0
 78 77  1  0
 79 53  1  0
 79 80  1  0
 79 89  1  0
 80 83  1  0
 81 85  1  0
 81 80  1  0
 82 81  2  0
 85 84  1  0
 87 85  1  0
 87 88  1  0
 87 86  1  0
 89 92  1  1
 89 90  1  0
 91 89  1  0
M  ISO  4  13 100  21 100  51 101  52 101
M  END
>  <TORSDO>  (96) 
F 22

>  <SCORE>  (96) 
-12.928

>  <name>  (96) 
95

>  <ligand_id>  (96) 
95

>  <original_smiles>  (96) 
[H]c1c([H])c([H])c2c(c1[H])C([H])([H])C([H])([H])C([H])([H])C2([H])N([H])C(=O)C1([H])N(C(=O)C([H])(N([H])C(=O)C([H])(N([H])C([H])([H])[H])C([H])([H])[H])C(C([H])([H])[H])(C([H])([H])[H])C([H])([H])[H])C([H])([H])c2c([H])c(OC([H])([H])c3c([H])c(OC([H])([H])[H])c([H])c([H])c3C([H])([H])C([H])([H])C([H])([H])C([H])([H])N([H])C(=O)N3C([H])([H])C([H])([H])C([H])([H])C([H])(n4nc(-c5c([H])c([H])c(Oc6c([H])c([H])c(F)c([H])c6F)c([H])c5[H])c(C(=O)N([H])[H])c4N([H])[H])C3([H])[H])c([H])c([H])c2C1([H])[H]

>  <smiles>  (96) 
[H]c1c([H])c([H])c2c(c1[H])C([H])([H])C([H])([H])C([H])([H])C2([H])N([H])C(=O)C1([H])N(C(=O)C([H])(N([H])C(=O)C([H])(N([H])C([H])([H])[H])C([H])([H])[H])C(C([H])([H])[H])(C([H])([H])[H])C([H])([H])[H])C([H])([H])c2c([H])c(OC([H])([H])c3c([H])c(OC([H])([H])[H])c([H])c([H])c3C([H])([H])C([H])([H])C([H])([H])C([H])([H])N([H])C(=O)N3C([H])([H])C([H])([H])C([H])([H])C([H])(n4nc(-c5c([H])c([H])c(Oc6c([H])c([H])c(F)c([H])c6F)c([H])c5[H])c(C(=O)N([H])[H])c4N([H])[H])C3([H])[H])c([H])c([H])c2C1([H])[H]

$$$$
96:0:0
     RDKit          3D

 88 96  0  0  1  0  0  0  0  0999 V2000
  -29.1780  -19.9630   18.6820 C   0  0  0  0  0  3  0  0  0  0  0  0
  -28.9020  -21.1910   18.0180 C   0  0  0  0  0  3  0  0  0  0  0  0
  -28.9300  -21.2280   20.7160 C   0  0  0  0  0  3  0  0  0  0  0  0
  -29.2430  -19.8380   20.0830 C   0  0  0  0  0  0  0  0  0  0  0  0
  -28.6350  -22.4460   18.6490 C   0  0  0  0  0  0  0  0  0  0  0  0
  -28.6050  -22.6070   20.0600 C   0  0  0  0  0  0  0  0  0  0  0  0
  -28.3380  -23.6410   17.7600 C   0  0  0  0  0  1  0  0  0  0  0  0
  -29.7920  -18.2710   20.7050 C   0  0  0  0  0  2  0  0  0  0  0  0
  -30.3870  -15.3460   20.2800 C   0  0  0  0  0  0  0  0  0  0  0  0
  -30.3950  -12.8900   19.3820 C   0  0  0  0  0  2  0  0  0  0  0  0
  -29.4710  -12.6340   18.1630 C   0  0  0  0  0  2  0  0  0  0  0  0
  -28.0290  -12.3440   18.6180 C   0  0  0  0  0  2  0  0  0  0  0  0
  -27.5700  -13.3130   19.7340 C   0  0  0  0  0  3  0  0  0  0  0  0
  -28.6230  -13.4920   20.8470 C   0  0  0  0  0  2  0  0  0  0  0  0
  -29.8270  -14.0330   20.1910 N   0  0  0  0  0  0  0  0  0  0  0  0
  -31.6190  -15.3320   20.1350 O   0  0  0  0  0  0  0  0  0  0  0  0
  -29.6120  -16.6290   20.3340 N   0  0  0  0  0  0  0  0  0  0  0  0
  -28.6300  -16.4080   20.2710 H   0  0  0  0  0  0  0  0  0  0  0  0
  -25.2020  -13.8560   20.4990 C   0  0  0  0  0  0  0  0  0  0  0  0
  -24.1460  -13.0730   20.8730 C   0  0  0  0  0  0  0  0  0  0  0  0
  -24.6230  -11.7260   20.8450 C   0  0  0  0  0  0  0  0  0  0  0  0
  -26.2490  -12.9870   20.2550 N   0  0  0  0  0  0  0  0  0  0  0  0
  -25.9140  -11.6990   20.5320 N   0  0  0  0  0  0  0  0  0  0  0  0
  -23.9040  -10.4600   21.0380 C   0  0  0  0  0  0  0  0  0  0  0  0
  -24.3390   -9.4960   21.9740 C   0  0  0  0  0  3  0  0  0  0  0  0
  -23.6170   -8.2970   22.1570 C   0  0  0  0  0  3  0  0  0  0  0  0
  -22.4440   -8.0530   21.4030 C   0  0  0  0  0  0  0  0  0  0  0  0
  -22.0280   -9.0050   20.4560 C   0  0  0  0  0  3  0  0  0  0  0  0
  -22.7510  -10.1950   20.2710 C   0  0  0  0  0  3  0  0  0  0  0  0
  -21.6930   -6.9070   21.4940 O   0  0  0  0  0  0  0  0  0  0  0  0
  -21.6470   -6.1670   22.6490 C   0  0  0  0  0  0  0  0  0  0  0  0
  -21.2120   -6.7210   23.8730 C   0  0  0  0  0  3  0  0  0  0  0  0
  -21.1150   -5.9070   25.0190 C   0  0  0  0  0  3  0  0  0  0  0  0
  -21.4420   -4.5400   24.9420 C   0  0  0  0  0  0  0  0  0  0  0  0
  -21.8700   -3.9860   23.7230 C   0  0  0  0  0  3  0  0  0  0  0  0
  -21.9690   -4.7960   22.5790 C   0  0  0  0  0  0  0  0  0  0  0  0
  -22.3620   -4.2520   21.4030 F   0  0  0  0  0  0  0  0  0  0  0  0
  -21.3420   -3.7560   26.0420 F   0  0  0  0  0  0  0  0  0  0  0  0
  -22.7450  -13.5420   21.1360 C   0  0  0  0  0  0  0  0  0  0  0  0
  -22.0190  -12.8450   22.0020 N   0  0  0  0  0  0  0  0  0  0  0  0
  -22.3040  -14.5630   20.6100 O   0  0  0  0  0  0  0  0  0  0  0  0
  -22.3900  -12.0190   22.4480 H   0  0  0  0  0  0  0  0  0  0  0  0
  -21.0800  -13.1420   22.2240 H   0  0  0  0  0  0  0  0  0  0  0  0
  -25.3510  -15.2270   20.3150 N   0  0  0  0  0  0  0  0  0  0  0  0
  -24.5730  -15.8700   20.4200 H   0  0  0  0  0  0  0  0  0  0  0  0
  -26.1820  -15.6710   19.9480 H   0  0  0  0  0  0  0  0  0  0  0  0
  -28.0300  -24.1690   20.6810 C   0  0  0  0  0  2  0  0  0  0  0  0
  -28.2360  -25.7800   20.2870 O   0  0  0  0  0  0  0  0  0  0  0  0
  -24.6280  -31.8310   23.2190 C   0  0  0  0  0  0  0  0  0  0  0  0
  -27.2210  -26.8900   20.2920 C   0  0  0  0  0  0  0  0  0  0  0  0
  -23.4560  -30.4130   21.5840 C   0  0  0  0  0  3  0  0  0  0  0  0
  -24.9220  -28.7880   20.2000 C   0  0  0  0  0  0  0  0  0  0  0  0
  -26.0260  -30.6210   21.4620 C   0  0  0  0  0  2  0  0  0  0  0  0
  -26.1070  -29.1990   20.8260 C   0  0  0  0  0  0  0  0  0  0  0  0
  -27.2530  -28.2730   20.8380 C   0  0  0  0  0  3  0  0  0  0  0  0
  -26.0010  -26.6400   19.6240 C   0  0  0  0  0  3  0  0  0  0  0  0
  -24.8970  -27.5310   19.5780 C   0  0  0  0  0  3  0  0  0  0  0  0
  -23.7040  -29.7140   20.2200 C   0  0  0  0  0  2  0  0  0  0  0  0
  -24.7250  -30.9840   22.1410 N   0  0  0  0  0  0  0  0  0  0  0  0
  -23.5320  -32.1220   23.7240 O   0  0  0  0  0  0  0  0  0  0  0  0
  -22.7520  -29.4280   22.5550 C   0  0  0  0  0  0  0  0  0  0  0  0
  -21.4210  -29.2700   22.4310 N   0  0  0  0  0  0  0  0  0  0  0  0
  -23.4130  -28.8050   23.3890 O   0  0  0  0  0  0  0  0  0  0  0  0
  -20.9390  -29.8240   21.7360 H   0  0  0  0  0  0  0  0  0  0  0  0
  -18.0310  -28.0840   22.9520 C   0  0  0  0  0  0  0  0  0  0  0  0
  -20.5940  -28.3400   23.2060 C   0  0  0  0  0  3  0  0  0  0  0  0
  -20.6860  -26.9060   22.6350 C   0  0  0  0  0  2  0  0  0  0  0  0
  -19.5790  -26.5860   21.6240 C   0  0  0  0  0  2  0  0  0  0  0  0
  -18.2000  -26.7360   22.2730 C   0  0  0  0  0  2  0  0  0  0  0  0
  -19.1540  -28.8450   23.3760 C   0  0  0  0  0  0  0  0  0  0  0  0
  -18.9390  -30.1040   23.9750 C   0  0  0  0  0  3  0  0  0  0  0  0
  -17.6360  -30.6060   24.1510 C   0  0  0  0  0  3  0  0  0  0  0  0
  -16.5270  -29.8440   23.7410 C   0  0  0  0  0  3  0  0  0  0  0  0
  -16.7260  -28.5850   23.1480 C   0  0  0  0  0  3  0  0  0  0  0  0
  -25.8880  -32.4880   23.8580 C   0  0  0  0  0  3  0  0  0  0  0  0
  -25.5610  -33.8900   24.1720 N   0  0  0  0  0  0  0  0  0  0  0  0
  -25.8980  -34.9460   23.4190 C   0  0  0  0  0  0  0  0  0  0  0  0
  -26.5790  -34.8410   22.3950 O   0  0  0  0  0  0  0  0  0  0  0  0
  -24.9590  -34.0450   24.9670 H   0  0  0  0  0  0  0  0  0  0  0  0
  -24.1720  -36.7420   23.0470 C   0  0  0  0  0  1  0  0  0  0  0  0
  -25.4060  -36.3370   23.8690 C   0  0  0  0  0  3  0  0  0  0  0  0
  -27.5310  -37.2320   24.7170 C   0  0  0  0  0  1  0  0  0  0  0  0
  -26.4390  -37.3910   23.7600 N   0  0  0  0  0  0  0  0  0  0  0  0
  -26.0300  -38.3120   23.8960 H   0  0  0  0  0  0  0  0  0  0  0  0
  -26.3780  -31.7430   25.1630 C   0  0  1  0  0  0  0  0  0  0  0  0
  -25.2640  -31.5300   26.2150 C   0  0  0  0  0  1  0  0  0  0  0  0
  -26.9680  -30.3580   24.8200 C   0  0  0  0  0  1  0  0  0  0  0  0
  -27.5160  -32.5520   25.8300 C   0  0  0  0  0  1  0  0  0  0  0  0
  1  4  1  0
  2  5  1  0
  2  1  2  0
  4  8  1  0
  4  3  2  0
  5  6  2  0
  6 47  1  0
  6  3  1  0
  7  5  1  0
  9 17  1  0
 10 15  1  0
 11 12  1  0
 11 10  1  0
 13 12  1  0
 13 22  1  0
 13 14  1  0
 15  9  1  0
 15 14  1  0
 16  9  2  0
 17  8  1  0
 18 17  1  0
 19 20  2  0
 20 39  1  0
 21 20  1  0
 21 24  1  0
 22 19  1  0
 22 23  1  0
 23 21  2  0
 24 25  1  0
 25 26  2  0
 27 30  1  0
 27 26  1  0
 28 27  2  0
 29 28  1  0
 29 24  2  0
 30 31  1  0
 31 32  1  0
 32 33  2  0
 34 33  1  0
 34 38  1  0
 35 34  2  0
 36 31  2  0
 36 35  1  0
 37 36  1  0
 39 40  1  0
 40 43  1  0
 40 42  1  0
 41 39  2  0
 44 45  1  0
 44 19  1  0
 46 44  1  0
 48 50  1  0
 48 47  1  0
 49 60  2  0
 50 55  1  0
 51 59  1  0
 51 61  1  0
 52 58  1  0
 52 54  1  0
 53 59  1  0
 54 55  2  0
 54 53  1  0
 56 50  2  0
 57 56  1  0
 57 52  2  0
 58 51  1  0
 59 49  1  0
 61 63  2  0
 62 61  1  0
 64 62  1  0
 65 74  2  0
 65 70  1  0
 66 62  1  0
 66 70  1  0
 67 66  1  0
 68 69  1  0
 68 67  1  0
 69 65  1  0
 70 71  2  0
 71 72  1  0
 73 72  2  0
 74 73  1  0
 75 49  1  0
 75 76  1  0
 75 85  1  0
 76 79  1  0
 77 81  1  0
 77 76  1  0
 78 77  2  0
 81 80  1  0
 83 81  1  0
 83 84  1  0
 83 82  1  0
 85 88  1  1
 85 86  1  0
 87 85  1  0
M  ISO  4   9 100  17 100  47 101  48 101
M  END
>  <TORSDO>  (97) 
F 18

>  <SCORE>  (97) 
-16.613

>  <name>  (97) 
96

>  <ligand_id>  (97) 
96

>  <original_smiles>  (97) 
[H]c1c([H])c([H])c2c(c1[H])C([H])([H])C([H])([H])C([H])([H])C2([H])N([H])C(=O)C1([H])N(C(=O)C([H])(N([H])C(=O)C([H])(N([H])C([H])([H])[H])C([H])([H])[H])C(C([H])([H])[H])(C([H])([H])[H])C([H])([H])[H])C([H])([H])c2c([H])c(OC([H])([H])c3c([H])c(C([H])([H])N([H])C(=O)N4C([H])([H])C([H])([H])C([H])([H])C([H])(n5nc(-c6c([H])c([H])c(Oc7c([H])c([H])c(F)c([H])c7F)c([H])c6[H])c(C(=O)N([H])[H])c5N([H])[H])C4([H])[H])c([H])c([H])c3C([H])([H])[H])c([H])c([H])c2C1([H])[H]

>  <smiles>  (97) 
[H]c1c([H])c([H])c2c(c1[H])C([H])([H])C([H])([H])C([H])([H])C2([H])N([H])C(=O)C1([H])N(C(=O)C([H])(N([H])C(=O)C([H])(N([H])C([H])([H])[H])C([H])([H])[H])C(C([H])([H])[H])(C([H])([H])[H])C([H])([H])[H])C([H])([H])c2c([H])c(OC([H])([H])c3c([H])c(C([H])([H])N([H])C(=O)N4C([H])([H])C([H])([H])C([H])([H])C([H])(n5nc(-c6c([H])c([H])c(Oc7c([H])c([H])c(F)c([H])c7F)c([H])c6[H])c(C(=O)N([H])[H])c5N([H])[H])C4([H])[H])c([H])c([H])c3C([H])([H])[H])c([H])c([H])c2C1([H])[H]

$$$$
97:0:0
     RDKit          3D

 88 96  0  0  1  0  0  0  0  0999 V2000
  -29.4000  -20.6420   21.3410 C   0  0  0  0  0  3  0  0  0  0  0  0
  -28.3730  -21.8410   19.1340 C   0  0  0  0  0  3  0  0  0  0  0  0
  -29.2790  -19.6460   20.2760 C   0  0  0  0  0  0  0  0  0  0  0  0
  -29.0130  -22.0840   21.3310 C   0  0  0  0  0  0  0  0  0  0  0  0
  -28.7480  -20.4020   19.1510 C   0  0  0  0  0  0  0  0  0  0  0  0
  -28.4670  -22.8290   20.2020 C   0  0  0  0  0  0  0  0  0  0  0  0
  -29.1690  -22.8510   22.6310 C   0  0  0  0  0  1  0  0  0  0  0  0
  -28.5640  -19.6310   17.8570 C   0  0  0  0  0  1  0  0  0  0  0  0
  -29.9080  -18.0780   20.2370 C   0  0  0  0  0  3  0  0  0  0  0  0
  -29.5430  -16.6680   20.3760 C   0  0  0  0  0  3  0  0  0  0  0  0
  -30.3820  -15.2970   20.2190 C   0  0  0  0  0  0  0  0  0  0  0  0
  -30.3320  -12.8670   19.3400 C   0  0  0  0  0  2  0  0  0  0  0  0
  -29.3910  -12.7110   18.1180 C   0  0  0  0  0  2  0  0  0  0  0  0
  -27.9460  -12.4430   18.5740 C   0  0  0  0  0  2  0  0  0  0  0  0
  -27.5170  -13.3900   19.7230 C   0  0  0  0  0  3  0  0  0  0  0  0
  -28.5820  -13.5100   20.8310 C   0  0  0  0  0  2  0  0  0  0  0  0
  -29.8210  -13.9930   20.2020 N   0  0  0  0  0  0  0  0  0  0  0  0
  -31.5920  -15.2920   19.9510 O   0  0  0  0  0  0  0  0  0  0  0  0
  -25.1600  -13.9290   20.5330 C   0  0  0  0  0  0  0  0  0  0  0  0
  -24.1080  -13.1410   20.9120 C   0  0  0  0  0  0  0  0  0  0  0  0
  -24.5800  -11.7940   20.8520 C   0  0  0  0  0  0  0  0  0  0  0  0
  -26.2000  -13.0620   20.2540 N   0  0  0  0  0  0  0  0  0  0  0  0
  -25.8650  -11.7710   20.5140 N   0  0  0  0  0  0  0  0  0  0  0  0
  -23.8620  -10.5260   21.0370 C   0  0  0  0  0  0  0  0  0  0  0  0
  -24.2990   -9.5560   21.9660 C   0  0  0  0  0  3  0  0  0  0  0  0
  -23.5760   -8.3550   22.1410 C   0  0  0  0  0  3  0  0  0  0  0  0
  -22.4040   -8.1150   21.3850 C   0  0  0  0  0  0  0  0  0  0  0  0
  -21.9860   -9.0730   20.4450 C   0  0  0  0  0  3  0  0  0  0  0  0
  -22.7090  -10.2660   20.2690 C   0  0  0  0  0  3  0  0  0  0  0  0
  -21.6550   -6.9660   21.4680 O   0  0  0  0  0  0  0  0  0  0  0  0
  -21.5900   -6.2320   22.6250 C   0  0  0  0  0  0  0  0  0  0  0  0
  -21.1020   -6.7810   23.8300 C   0  0  0  0  0  3  0  0  0  0  0  0
  -20.9870   -5.9710   24.9780 C   0  0  0  0  0  3  0  0  0  0  0  0
  -21.3480   -4.6120   24.9200 C   0  0  0  0  0  0  0  0  0  0  0  0
  -21.8290   -4.0620   23.7190 C   0  0  0  0  0  3  0  0  0  0  0  0
  -21.9460   -4.8690   22.5740 C   0  0  0  0  0  0  0  0  0  0  0  0
  -22.3900   -4.3280   21.4140 F   0  0  0  0  0  0  0  0  0  0  0  0
  -21.2320   -3.8320   26.0200 F   0  0  0  0  0  0  0  0  0  0  0  0
  -22.7140  -13.6090   21.2120 C   0  0  0  0  0  0  0  0  0  0  0  0
  -22.0060  -12.9010   22.0840 N   0  0  0  0  0  0  0  0  0  0  0  0
  -22.2640  -14.6380   20.7100 O   0  0  0  0  0  0  0  0  0  0  0  0
  -22.3840  -12.0690   22.5120 H   0  0  0  0  0  0  0  0  0  0  0  0
  -21.0710  -13.1970   22.3300 H   0  0  0  0  0  0  0  0  0  0  0  0
  -25.3130  -15.3030   20.3740 N   0  0  0  0  0  0  0  0  0  0  0  0
  -24.5470  -15.9520   20.5140 H   0  0  0  0  0  0  0  0  0  0  0  0
  -26.1510  -15.7520   20.0260 H   0  0  0  0  0  0  0  0  0  0  0  0
  -27.7020  -24.3910   20.1360 C   0  0  0  0  0  2  0  0  0  0  0  0
  -28.1150  -25.9550   20.3200 O   0  0  0  0  0  0  0  0  0  0  0  0
  -24.6300  -31.9480   23.2620 C   0  0  0  0  0  0  0  0  0  0  0  0
  -27.1310  -27.0670   20.2480 C   0  0  0  0  0  0  0  0  0  0  0  0
  -23.4180  -30.5620   21.6300 C   0  0  0  0  0  3  0  0  0  0  0  0
  -24.8490  -28.9510   20.2050 C   0  0  0  0  0  0  0  0  0  0  0  0
  -25.9860  -30.7570   21.4750 C   0  0  0  0  0  2  0  0  0  0  0  0
  -26.0410  -29.3480   20.8220 C   0  0  0  0  0  0  0  0  0  0  0  0
  -27.1800  -28.4280   20.8210 C   0  0  0  0  0  3  0  0  0  0  0  0
  -25.9090  -26.8210   19.5790 C   0  0  0  0  0  3  0  0  0  0  0  0
  -24.8060  -27.7050   19.5650 C   0  0  0  0  0  3  0  0  0  0  0  0
  -23.6370  -29.8780   20.2530 C   0  0  0  0  0  2  0  0  0  0  0  0
  -24.7000  -31.1140   22.1750 N   0  0  0  0  0  0  0  0  0  0  0  0
  -23.5450  -32.2480   23.7860 O   0  0  0  0  0  0  0  0  0  0  0  0
  -22.7190  -29.5700   22.5970 C   0  0  0  0  0  0  0  0  0  0  0  0
  -21.3900  -29.4060   22.4660 N   0  0  0  0  0  0  0  0  0  0  0  0
  -23.3800  -28.9490   23.4340 O   0  0  0  0  0  0  0  0  0  0  0  0
  -20.9110  -29.9570   21.7670 H   0  0  0  0  0  0  0  0  0  0  0  0
  -18.0020  -28.2090   22.9640 C   0  0  0  0  0  0  0  0  0  0  0  0
  -20.5600  -28.4770   23.2400 C   0  0  0  0  0  3  0  0  0  0  0  0
  -20.6650  -27.0390   22.6800 C   0  0  0  0  0  2  0  0  0  0  0  0
  -19.5690  -26.7070   21.6620 C   0  0  0  0  0  2  0  0  0  0  0  0
  -18.1840  -26.8550   22.2980 C   0  0  0  0  0  2  0  0  0  0  0  0
  -19.1180  -28.9770   23.3920 C   0  0  0  0  0  0  0  0  0  0  0  0
  -18.8920  -30.2410   23.9790 C   0  0  0  0  0  3  0  0  0  0  0  0
  -17.5850  -30.7390   24.1380 C   0  0  0  0  0  3  0  0  0  0  0  0
  -16.4850  -29.9690   23.7230 C   0  0  0  0  0  3  0  0  0  0  0  0
  -16.6940  -28.7050   23.1420 C   0  0  0  0  0  3  0  0  0  0  0  0
  -25.9090  -32.5790   23.8890 C   0  0  0  0  0  3  0  0  0  0  0  0
  -25.6110  -33.9860   24.2070 N   0  0  0  0  0  0  0  0  0  0  0  0
  -25.9270  -35.0320   23.4320 C   0  0  0  0  0  0  0  0  0  0  0  0
  -26.5630  -34.9120   22.3820 O   0  0  0  0  0  0  0  0  0  0  0  0
  -25.0400  -34.1510   25.0230 H   0  0  0  0  0  0  0  0  0  0  0  0
  -24.1880  -36.8290   23.1340 C   0  0  0  0  0  1  0  0  0  0  0  0
  -25.4660  -36.4310   23.8900 C   0  0  0  0  0  3  0  0  0  0  0  0
  -27.6360  -37.3290   24.6100 C   0  0  0  0  0  1  0  0  0  0  0  0
  -26.4940  -37.4790   23.7110 N   0  0  0  0  0  0  0  0  0  0  0  0
  -26.0960  -38.4030   23.8560 H   0  0  0  0  0  0  0  0  0  0  0  0
  -26.4020  -31.8210   25.1850 C   0  0  1  0  0  0  0  0  0  0  0  0
  -25.2930  -31.6150   26.2450 C   0  0  0  0  0  1  0  0  0  0  0  0
  -26.9700  -30.4300   24.8280 C   0  0  0  0  0  1  0  0  0  0  0  0
  -27.5560  -32.6100   25.8460 C   0  0  0  0  0  1  0  0  0  0  0  0
  2  5  2  0
  2  6  1  0
  3  1  2  0
  4  1  1  0
  4  7  1  0
  5  3  1  0
  6  4  2  0
  8  5  1  0
  9  3  1  0
  9 10  2  0
 11 10  1  0
 12 17  1  0
 13 14  1  0
 13 12  1  0
 15 14  1  0
 15 22  1  0
 15 16  1  0
 17 11  1  0
 17 16  1  0
 18 11  2  0
 19 20  2  0
 20 39  1  0
 21 20  1  0
 21 24  1  0
 22 23  1  0
 22 19  1  0
 23 21  2  0
 24 25  1  0
 25 26  2  0
 27 30  1  0
 27 26  1  0
 28 27  2  0
 29 28  1  0
 29 24  2  0
 30 31  1  0
 31 32  1  0
 32 33  2  0
 34 33  1  0
 34 38  1  0
 35 34  2  0
 36 31  2  0
 36 35  1  0
 37 36  1  0
 39 40  1  0
 40 43  1  0
 40 42  1  0
 41 39  2  0
 44 45  1  0
 44 19  1  0
 46 44  1  0
 47  6  1  0
 47 48  1  0
 49 60  2  0
 50 48  1  0
 50 55  1  0
 51 59  1  0
 51 61  1  0
 52 58  1  0
 52 54  1  0
 53 59  1  0
 54 53  1  0
 55 54  2  0
 56 50  2  0
 57 56  1  0
 57 52  2  0
 58 51  1  0
 59 49  1  0
 61 63  2  0
 62 61  1  0
 64 62  1  0
 65 74  2  0
 65 70  1  0
 66 62  1  0
 66 70  1  0
 67 66  1  0
 68 69  1  0
 68 67  1  0
 69 65  1  0
 70 71  2  0
 71 72  1  0
 73 72  2  0
 74 73  1  0
 75 49  1  0
 75 76  1  0
 75 85  1  0
 76 79  1  0
 77 81  1  0
 77 76  1  0
 78 77  2  0
 81 80  1  0
 83 84  1  0
 83 81  1  0
 83 82  1  0
 85 88  1  1
 85 86  1  0
 87 85  1  0
M  ISO  4  10 100  11 100  47 101  48 101
M  END
>  <TORSDO>  (98) 
F 18

>  <SCORE>  (98) 
-15.232

>  <name>  (98) 
97

>  <ligand_id>  (98) 
97

>  <original_smiles>  (98) 
[H]C(C(=O)N1C([H])([H])C([H])([H])C([H])([H])C([H])(n2nc(-c3c([H])c([H])c(Oc4c([H])c([H])c(F)c([H])c4F)c([H])c3[H])c(C(=O)N([H])[H])c2N([H])[H])C1([H])[H])=C([H])c1c([H])c(C([H])([H])[H])c(C([H])([H])Oc2c([H])c([H])c3c(c2[H])C([H])([H])N(C(=O)C([H])(N([H])C(=O)C([H])(N([H])C([H])([H])[H])C([H])([H])[H])C(C([H])([H])[H])(C([H])([H])[H])C([H])([H])[H])C([H])(C(=O)N([H])C2([H])c4c([H])c([H])c([H])c([H])c4C([H])([H])C([H])([H])C2([H])[H])C3([H])[H])c([H])c1C([H])([H])[H]

>  <smiles>  (98) 
[H]C(C(=O)N1C([H])([H])C([H])([H])C([H])([H])C([H])(n2nc(-c3c([H])c([H])c(Oc4c([H])c([H])c(F)c([H])c4F)c([H])c3[H])c(C(=O)N([H])[H])c2N([H])[H])C1([H])[H])=C([H])c1c([H])c(C([H])([H])[H])c(C([H])([H])Oc2c([H])c([H])c3c(c2[H])C([H])([H])N(C(=O)C([H])(N([H])C(=O)C([H])(N([H])C([H])([H])[H])C([H])([H])[H])C(C([H])([H])[H])(C([H])([H])[H])C([H])([H])[H])C([H])(C(=O)N([H])C2([H])c4c([H])c([H])c([H])c([H])c4C([H])([H])C([H])([H])C2([H])[H])C3([H])[H])c([H])c1C([H])([H])[H]

$$$$
98:0:0
     RDKit          3D

 92100  0  0  1  0  0  0  0  0999 V2000
  -31.6630  -20.2330   20.1900 C   0  0  0  0  0  3  0  0  0  0  0  0
  -31.3260  -18.8490   20.2960 C   0  0  0  0  0  0  0  0  0  0  0  0
  -29.0370  -19.6090   20.2300 C   0  0  0  0  0  0  0  0  0  0  0  0
  -29.3590  -21.1410   20.1890 C   0  0  0  0  0  0  0  0  0  0  0  0
  -30.7550  -21.3170   20.1260 C   0  0  0  0  0  0  0  0  0  0  0  0
  -29.9820  -18.3630   20.2180 C   0  0  0  0  0  0  0  0  0  0  0  0
  -32.5010  -17.9320   20.5870 C   0  0  0  0  0  1  0  0  0  0  0  0
  -27.5800  -19.2550   20.3940 C   0  0  0  0  0  1  0  0  0  0  0  0
  -30.3870  -15.4000   20.0050 C   0  0  0  0  0  0  0  0  0  0  0  0
  -30.2820  -12.9880   19.0370 C   0  0  0  0  0  2  0  0  0  0  0  0
  -29.3120  -12.7770   17.8510 C   0  0  0  0  0  2  0  0  0  0  0  0
  -27.8910  -12.4800   18.3600 C   0  0  0  0  0  2  0  0  0  0  0  0
  -27.4820  -13.4190   19.5220 C   0  0  0  0  0  3  0  0  0  0  0  0
  -28.5820  -13.5740   20.5970 C   0  0  0  0  0  2  0  0  0  0  0  0
  -29.7700  -14.1130   19.9130 N   0  0  0  0  0  0  0  0  0  0  0  0
  -31.5870  -15.2860   19.7270 O   0  0  0  0  0  0  0  0  0  0  0  0
  -29.7010  -16.7330   20.2090 N   0  0  0  0  0  0  0  0  0  0  0  0
  -28.7200  -16.5540   20.3630 H   0  0  0  0  0  0  0  0  0  0  0  0
  -25.1480  -13.9330   20.4020 C   0  0  0  0  0  0  0  0  0  0  0  0
  -24.1150  -13.1420   20.8160 C   0  0  0  0  0  0  0  0  0  0  0  0
  -24.5960  -11.7980   20.7470 C   0  0  0  0  0  0  0  0  0  0  0  0
  -26.1850  -13.0760   20.0960 N   0  0  0  0  0  0  0  0  0  0  0  0
  -25.8740  -11.7810   20.3730 N   0  0  0  0  0  0  0  0  0  0  0  0
  -23.8890  -10.5250   20.9580 C   0  0  0  0  0  0  0  0  0  0  0  0
  -24.3600   -9.5570   21.8710 C   0  0  0  0  0  3  0  0  0  0  0  0
  -23.6490   -8.3550   22.0700 C   0  0  0  0  0  3  0  0  0  0  0  0
  -22.4530   -8.1090   21.3540 C   0  0  0  0  0  0  0  0  0  0  0  0
  -22.0020   -9.0680   20.4290 C   0  0  0  0  0  3  0  0  0  0  0  0
  -22.7150  -10.2610   20.2270 C   0  0  0  0  0  3  0  0  0  0  0  0
  -21.7080   -6.9630   21.4660 O   0  0  0  0  0  0  0  0  0  0  0  0
  -21.6960   -6.2220   22.6210 C   0  0  0  0  0  0  0  0  0  0  0  0
  -21.2860   -6.7740   23.8550 C   0  0  0  0  0  3  0  0  0  0  0  0
  -21.2190   -5.9600   25.0030 C   0  0  0  0  0  3  0  0  0  0  0  0
  -21.5510   -4.5930   24.9210 C   0  0  0  0  0  0  0  0  0  0  0  0
  -21.9480   -4.0410   23.6890 C   0  0  0  0  0  3  0  0  0  0  0  0
  -22.0160   -4.8520   22.5450 C   0  0  0  0  0  0  0  0  0  0  0  0
  -22.3820   -4.3070   21.3590 F   0  0  0  0  0  0  0  0  0  0  0  0
  -21.4760   -3.8120   26.0220 F   0  0  0  0  0  0  0  0  0  0  0  0
  -22.7260  -13.6020   21.1530 C   0  0  0  0  0  0  0  0  0  0  0  0
  -22.0420  -12.8950   22.0400 N   0  0  0  0  0  0  0  0  0  0  0  0
  -22.2580  -14.6290   20.6570 O   0  0  0  0  0  0  0  0  0  0  0  0
  -22.4330  -12.0690   22.4700 H   0  0  0  0  0  0  0  0  0  0  0  0
  -21.1110  -13.1850   22.3060 H   0  0  0  0  0  0  0  0  0  0  0  0
  -25.2870  -15.3100   20.2260 N   0  0  0  0  0  0  0  0  0  0  0  0
  -24.5170  -15.9540   20.3720 H   0  0  0  0  0  0  0  0  0  0  0  0
  -26.1040  -15.7500   19.8240 H   0  0  0  0  0  0  0  0  0  0  0  0
  -31.2910  -22.6050   20.0970 N   0  0  0  0  0  0  0  0  0  0  0  0
  -32.2910  -22.7020   20.2490 H   0  0  0  0  0  0  0  0  0  0  0  0
  -30.7720  -23.3320   20.5810 H   0  0  0  0  0  0  0  0  0  0  0  0
  -28.4450  -22.6400   20.4480 C   0  0  0  0  0  2  0  0  0  0  0  0
  -28.3070  -24.2960   19.6920 C   0  0  0  0  0  2  0  0  0  0  0  0
  -28.2600  -25.8910   20.1660 O   0  0  0  0  0  0  0  0  0  0  0  0
  -24.6210  -31.8270   23.0760 C   0  0  0  0  0  0  0  0  0  0  0  0
  -27.2370  -26.9780   20.0410 C   0  0  0  0  0  0  0  0  0  0  0  0
  -23.4470  -30.4330   21.4210 C   0  0  0  0  0  3  0  0  0  0  0  0
  -24.9190  -28.8500   19.9910 C   0  0  0  0  0  0  0  0  0  0  0  0
  -26.0130  -30.6610   21.2940 C   0  0  0  0  0  2  0  0  0  0  0  0
  -26.0970  -29.2570   20.6250 C   0  0  0  0  0  0  0  0  0  0  0  0
  -27.2440  -28.3400   20.6310 C   0  0  0  0  0  3  0  0  0  0  0  0
  -26.0300  -26.7300   19.3480 C   0  0  0  0  0  3  0  0  0  0  0  0
  -24.9090  -27.6060   19.3340 C   0  0  0  0  0  3  0  0  0  0  0  0
  -23.6910  -29.7600   20.0400 C   0  0  0  0  0  2  0  0  0  0  0  0
  -24.7140  -31.0010   21.9830 N   0  0  0  0  0  0  0  0  0  0  0  0
  -23.5280  -32.1050   23.5990 O   0  0  0  0  0  0  0  0  0  0  0  0
  -22.7570  -29.4250   22.3760 C   0  0  0  0  0  0  0  0  0  0  0  0
  -21.4220  -29.2800   22.2700 N   0  0  0  0  0  0  0  0  0  0  0  0
  -23.4270  -28.7740   23.1830 O   0  0  0  0  0  0  0  0  0  0  0  0
  -20.9330  -29.8520   21.5960 H   0  0  0  0  0  0  0  0  0  0  0  0
  -18.0290  -28.1260   22.8310 C   0  0  0  0  0  0  0  0  0  0  0  0
  -20.6000  -28.3360   23.0350 C   0  0  0  0  0  3  0  0  0  0  0  0
  -20.6590  -26.9200   22.4150 C   0  0  0  0  0  2  0  0  0  0  0  0
  -19.5250  -26.6490   21.4220 C   0  0  0  0  0  2  0  0  0  0  0  0
  -18.1630  -26.7960   22.1070 C   0  0  0  0  0  2  0  0  0  0  0  0
  -19.1730  -28.8550   23.2520 C   0  0  0  0  0  0  0  0  0  0  0  0
  -18.9910  -30.0990   23.8950 C   0  0  0  0  0  3  0  0  0  0  0  0
  -17.7000  -30.6130   24.1200 C   0  0  0  0  0  3  0  0  0  0  0  0
  -16.5710  -29.8810   23.7150 C   0  0  0  0  0  3  0  0  0  0  0  0
  -16.7360  -28.6400   23.0730 C   0  0  0  0  0  3  0  0  0  0  0  0
  -25.8850  -32.4750   23.7200 C   0  0  0  0  0  3  0  0  0  0  0  0
  -26.4020  -31.6940   24.9920 C   0  0  1  0  0  0  0  0  0  0  0  0
  -25.3060  -31.4310   26.0510 C   0  0  0  0  0  1  0  0  0  0  0  0
  -27.0050  -30.3280   24.5960 C   0  0  0  0  0  1  0  0  0  0  0  0
  -27.5420  -32.4930   25.6710 C   0  0  0  0  0  1  0  0  0  0  0  0
  -25.5470  -33.8620   24.0840 N   0  0  0  0  0  0  0  0  0  0  0  0
  -25.8650  -34.9470   23.3630 C   0  0  0  0  0  0  0  0  0  0  0  0
  -26.5360  -34.8840   22.3280 O   0  0  0  0  0  0  0  0  0  0  0  0
  -24.9460  -33.9830   24.8870 H   0  0  0  0  0  0  0  0  0  0  0  0
  -24.1130  -36.7330   23.0730 C   0  0  0  0  0  1  0  0  0  0  0  0
  -25.3620  -36.3160   23.8660 C   0  0  0  0  0  3  0  0  0  0  0  0
  -27.4860  -37.2060   24.7200 C   0  0  0  0  0  1  0  0  0  0  0  0
  -26.3800  -37.3860   23.7830 N   0  0  0  0  0  0  0  0  0  0  0  0
  -25.9590  -38.2960   23.9620 H   0  0  0  0  0  0  0  0  0  0  0  0
  1  2  1  0
  2  7  1  0
  3  8  1  0
  4  3  2  0
  4 50  1  0
  5  4  1  0
  5  1  2  0
  6  3  1  0
  6  2  2  0
  9 17  1  0
 10 15  1  0
 11 12  1  0
 11 10  1  0
 13 12  1  0
 13 22  1  0
 13 14  1  0
 15  9  1  0
 15 14  1  0
 16  9  2  0
 17  6  1  0
 17 18  1  0
 19 20  2  0
 20 39  1  0
 21 20  1  0
 21 24  1  0
 22 23  1  0
 22 19  1  0
 23 21  2  0
 24 25  1  0
 25 26  2  0
 27 30  1  0
 27 26  1  0
 28 27  2  0
 29 28  1  0
 29 24  2  0
 30 31  1  0
 31 32  1  0
 32 33  2  0
 34 33  1  0
 34 38  1  0
 35 34  2  0
 36 31  2  0
 36 35  1  0
 37 36  1  0
 39 40  1  0
 40 43  1  0
 40 42  1  0
 41 39  2  0
 44 45  1  0
 44 19  1  0
 46 44  1  0
 47  5  1  0
 47 48  1  0
 47 49  1  0
 51 52  1  0
 51 50  1  0
 53 64  2  0
 54 52  1  0
 54 59  1  0
 55 63  1  0
 55 65  1  0
 56 62  1  0
 56 58  1  0
 57 63  1  0
 58 59  2  0
 58 57  1  0
 60 54  2  0
 61 60  1  0
 61 56  2  0
 62 55  1  0
 63 53  1  0
 65 67  2  0
 66 65  1  0
 68 66  1  0
 69 78  2  0
 69 74  1  0
 70 66  1  0
 70 74  1  0
 71 70  1  0
 72 73  1  0
 72 71  1  0
 73 69  1  0
 74 75  2  0
 75 76  1  0
 77 76  2  0
 78 77  1  0
 79 53  1  0
 79 84  1  0
 79 80  1  0
 80 83  1  1
 80 81  1  0
 82 80  1  0
 84 87  1  0
 85 89  1  0
 85 84  1  0
 86 85  2  0
 89 88  1  0
 91 89  1  0
 91 92  1  0
 91 90  1  0
M  ISO  4   9 100  17 100  51 101  52 101
M  END
>  <TORSDO>  (99) 
F 19

>  <SCORE>  (99) 
-15.814

>  <name>  (99) 
98

>  <ligand_id>  (99) 
98

>  <original_smiles>  (99) 
[H]c1c([H])c([H])c2c(c1[H])C([H])([H])C([H])([H])C([H])([H])C2([H])N([H])C(=O)C1([H])N(C(=O)C([H])(N([H])C(=O)C([H])(N([H])C([H])([H])[H])C([H])([H])[H])C(C([H])([H])[H])(C([H])([H])[H])C([H])([H])[H])C([H])([H])c2c([H])c(OC([H])([H])C([H])([H])c3c(N([H])[H])c([H])c(C([H])([H])[H])c(N([H])C(=O)N4C([H])([H])C([H])([H])C([H])([H])C([H])(n5nc(-c6c([H])c([H])c(Oc7c([H])c([H])c(F)c([H])c7F)c([H])c6[H])c(C(=O)N([H])[H])c5N([H])[H])C4([H])[H])c3C([H])([H])[H])c([H])c([H])c2C1([H])[H]

>  <smiles>  (99) 
[H]c1c([H])c([H])c2c(c1[H])C([H])([H])C([H])([H])C([H])([H])C2([H])N([H])C(=O)C1([H])N(C(=O)C([H])(N([H])C(=O)C([H])(N([H])C([H])([H])[H])C([H])([H])[H])C(C([H])([H])[H])(C([H])([H])[H])C([H])([H])[H])C([H])([H])c2c([H])c(OC([H])([H])C([H])([H])c3c(N([H])[H])c([H])c(C([H])([H])[H])c(N([H])C(=O)N4C([H])([H])C([H])([H])C([H])([H])C([H])(n5nc(-c6c([H])c([H])c(Oc7c([H])c([H])c(F)c([H])c7F)c([H])c6[H])c(C(=O)N([H])[H])c5N([H])[H])C4([H])[H])c3C([H])([H])[H])c([H])c([H])c2C1([H])[H]

$$$$
