0:0:0
     RDKit          3D

 96104  0  0  1  0  0  0  0  0999 V2000
  -30.8580  -18.8120   20.2470 C   0  0  0  0  0  3  0  0  0  0  0  0
  -30.1640  -16.3050   19.7020 C   0  0  0  0  0  3  0  0  0  0  0  0
  -28.7840  -16.4870   19.9650 C   0  0  0  0  0  0  0  0  0  0  0  0
  -30.7700  -17.5480   19.2620 C   0  0  0  0  0  3  0  0  0  0  0  0
  -28.0800  -17.4180   19.1340 C   0  0  0  0  0  0  0  0  0  0  0  0
  -30.2000  -17.9680   18.0480 C   0  0  0  0  0  0  0  0  0  0  0  0
  -28.7770  -17.9990   18.0150 C   0  0  0  0  0  0  0  0  0  0  0  0
  -28.1200  -15.7910   21.1470 C   0  0  0  0  0  1  0  0  0  0  0  0
  -26.6360  -17.7860   19.4800 C   0  0  0  0  0  1  0  0  0  0  0  0
  -31.0970  -18.6700   17.0310 C   0  0  0  0  0  1  0  0  0  0  0  0
  -30.8800  -14.9070   19.6190 C   0  0  0  0  0  0  0  0  0  0  0  0
  -30.6210  -12.5290   18.8700 C   0  0  0  0  0  2  0  0  0  0  0  0
  -29.6320  -12.4500   17.6810 C   0  0  0  0  0  2  0  0  0  0  0  0
  -28.1780  -12.3360   18.1750 C   0  0  0  0  0  2  0  0  0  0  0  0
  -27.8470  -13.3530   19.2970 C   0  0  0  0  0  3  0  0  0  0  0  0
  -28.9510  -13.3560   20.3690 C   0  0  0  0  0  2  0  0  0  0  0  0
  -30.2300  -13.6850   19.7180 N   0  0  0  0  0  0  0  0  0  0  0  0
  -32.0450  -14.9220   19.2090 O   0  0  0  0  0  0  0  0  0  0  0  0
  -25.5290  -14.0390   20.1660 C   0  0  0  0  0  0  0  0  0  0  0  0
  -24.4550  -13.3230   20.6120 C   0  0  0  0  0  0  0  0  0  0  0  0
  -24.8560  -11.9540   20.5470 C   0  0  0  0  0  0  0  0  0  0  0  0
  -26.5230  -13.1200   19.8740 N   0  0  0  0  0  0  0  0  0  0  0  0
  -26.1230  -11.8550   20.1600 N   0  0  0  0  0  0  0  0  0  0  0  0
  -24.0790  -10.7310   20.7740 C   0  0  0  0  0  0  0  0  0  0  0  0
  -24.5040   -9.7450   21.6890 C   0  0  0  0  0  3  0  0  0  0  0  0
  -23.7300   -8.5860   21.9050 C   0  0  0  0  0  3  0  0  0  0  0  0
  -22.5130   -8.4040   21.2060 C   0  0  0  0  0  0  0  0  0  0  0  0
  -22.1040   -9.3800   20.2780 C   0  0  0  0  0  3  0  0  0  0  0  0
  -22.8800  -10.5300   20.0620 C   0  0  0  0  0  3  0  0  0  0  0  0
  -21.7080   -7.2980   21.3310 O   0  0  0  0  0  0  0  0  0  0  0  0
  -21.6520   -6.5780   22.4980 C   0  0  0  0  0  0  0  0  0  0  0  0
  -21.2870   -7.1740   23.7250 C   0  0  0  0  0  3  0  0  0  0  0  0
  -21.1790   -6.3830   24.8860 C   0  0  0  0  0  3  0  0  0  0  0  0
  -21.4200   -4.9980   24.8200 C   0  0  0  0  0  0  0  0  0  0  0  0
  -21.7780   -4.4020   23.5990 C   0  0  0  0  0  3  0  0  0  0  0  0
  -21.8910   -5.1910   22.4400 C   0  0  0  0  0  0  0  0  0  0  0  0
  -22.2190   -4.6090   21.2630 F   0  0  0  0  0  0  0  0  0  0  0  0
  -21.3060   -4.2370   25.9350 F   0  0  0  0  0  0  0  0  0  0  0  0
  -23.1090  -13.8710   20.9830 C   0  0  0  0  0  0  0  0  0  0  0  0
  -22.4190  -13.2200   21.9140 N   0  0  0  0  0  0  0  0  0  0  0  0
  -22.6860  -14.9200   20.4940 O   0  0  0  0  0  0  0  0  0  0  0  0
  -22.7760  -12.3740   22.3320 H   0  0  0  0  0  0  0  0  0  0  0  0
  -21.5260  -13.5800   22.2220 H   0  0  0  0  0  0  0  0  0  0  0  0
  -25.7180  -15.3920   19.9620 N   0  0  0  0  0  0  0  0  0  0  0  0
  -24.9820  -16.0650   20.1320 H   0  0  0  0  0  0  0  0  0  0  0  0
  -26.5880  -15.8240   19.6640 H   0  0  0  0  0  0  0  0  0  0  0  0
  -28.3450  -18.2620   15.4790 C   0  0  0  0  0  1  0  0  0  0  0  0
  -28.0760  -18.7900   16.9010 C   0  0  0  0  0  2  0  0  0  0  0  0
  -30.1850  -20.2250   19.8040 C   0  0  0  0  0  3  0  0  0  0  0  0
  -30.2160  -21.5370   20.6860 C   0  0  0  0  0  0  0  0  0  0  0  0
  -29.5400  -22.6600   20.2610 N   0  0  0  0  0  0  0  0  0  0  0  0
  -30.8600  -21.5420   21.7360 O   0  0  0  0  0  0  0  0  0  0  0  0
  -29.0210  -22.5500   19.3990 H   0  0  0  0  0  0  0  0  0  0  0  0
  -29.5220  -24.0600   20.8410 C   0  0  0  0  0  3  0  0  0  0  0  0
  -28.3570  -25.0510   20.3520 C   0  0  0  0  0  3  0  0  0  0  0  0
  -28.4610  -26.5100   20.6300 O   0  0  0  0  0  0  0  0  0  0  0  0
  -24.5730  -31.9330   23.3790 C   0  0  0  0  0  0  0  0  0  0  0  0
  -27.3220  -27.3320   20.5120 C   0  0  0  0  0  0  0  0  0  0  0  0
  -23.4340  -30.5010   21.7160 C   0  0  0  0  0  3  0  0  0  0  0  0
  -24.9430  -28.9290   20.3760 C   0  0  0  0  0  0  0  0  0  0  0  0
  -25.9760  -30.8300   21.6230 C   0  0  0  0  0  2  0  0  0  0  0  0
  -26.0860  -29.4400   21.0040 C   0  0  0  0  0  0  0  0  0  0  0  0
  -27.2770  -28.6530   21.0580 C   0  0  0  0  0  3  0  0  0  0  0  0
  -26.1520  -26.8710   19.8640 C   0  0  0  0  0  3  0  0  0  0  0  0
  -24.9800  -27.6500   19.7980 C   0  0  0  0  0  3  0  0  0  0  0  0
  -23.7010  -29.7950   20.3590 C   0  0  0  0  0  2  0  0  0  0  0  0
  -24.6760  -31.1100   22.2940 N   0  0  0  0  0  0  0  0  0  0  0  0
  -23.4710  -32.2170   23.8710 O   0  0  0  0  0  0  0  0  0  0  0  0
  -22.7390  -29.5050   22.6740 C   0  0  0  0  0  0  0  0  0  0  0  0
  -21.4230  -29.3120   22.4920 N   0  0  0  0  0  0  0  0  0  0  0  0
  -23.3850  -28.9040   23.5360 O   0  0  0  0  0  0  0  0  0  0  0  0
  -20.9630  -29.8410   21.7640 H   0  0  0  0  0  0  0  0  0  0  0  0
  -18.0300  -28.1150   22.8890 C   0  0  0  0  0  0  0  0  0  0  0  0
  -20.5770  -28.3850   23.2470 C   0  0  0  0  0  3  0  0  0  0  0  0
  -20.7030  -26.9450   22.6970 C   0  0  0  0  0  2  0  0  0  0  0  0
  -19.6370  -26.6050   21.6500 C   0  0  0  0  0  2  0  0  0  0  0  0
  -18.2330  -26.7570   22.2400 C   0  0  0  0  0  2  0  0  0  0  0  0
  -19.1310  -28.8860   23.3470 C   0  0  0  0  0  0  0  0  0  0  0  0
  -18.8880  -30.1570   23.9120 C   0  0  0  0  0  3  0  0  0  0  0  0
  -17.5770  -30.6550   24.0280 C   0  0  0  0  0  3  0  0  0  0  0  0
  -16.4900  -29.8820   23.5850 C   0  0  0  0  0  3  0  0  0  0  0  0
  -16.7170  -28.6140   23.0210 C   0  0  0  0  0  3  0  0  0  0  0  0
  -25.8340  -32.5770   24.0380 C   0  0  0  0  0  3  0  0  0  0  0  0
  -25.5250  -33.9900   24.2980 N   0  0  0  0  0  0  0  0  0  0  0  0
  -25.8950  -35.0080   23.5110 C   0  0  0  0  0  0  0  0  0  0  0  0
  -26.5990  -34.8570   22.5080 O   0  0  0  0  0  0  0  0  0  0  0  0
  -24.9080  -34.1820   25.0740 H   0  0  0  0  0  0  0  0  0  0  0  0
  -24.1910  -36.7940   23.0270 C   0  0  0  0  0  1  0  0  0  0  0  0
  -25.4040  -36.4180   23.8920 C   0  0  0  0  0  3  0  0  0  0  0  0
  -27.5170  -37.3250   24.7510 C   0  0  0  0  0  1  0  0  0  0  0  0
  -26.4470  -37.4590   23.7660 N   0  0  0  0  0  0  0  0  0  0  0  0
  -26.0420  -38.3860   23.8600 H   0  0  0  0  0  0  0  0  0  0  0  0
  -26.2770  -31.8560   25.3690 C   0  0  1  0  0  0  0  0  0  0  0  0
  -25.1270  -31.6560   26.3830 C   0  0  0  0  0  1  0  0  0  0  0  0
  -26.8830  -30.4650   25.0650 C   0  0  0  0  0  1  0  0  0  0  0  0
  -27.3910  -32.6750   26.0650 C   0  0  0  0  0  1  0  0  0  0  0  0
  2 11  1  0
  2  3  1  0
  3  8  1  0
  4  2  1  0
  4  1  1  0
  5  9  1  0
  5  3  2  0
  6  4  1  0
  7  6  2  0
  7  5  1  0
 10  6  1  0
 11 17  1  0
 12 17  1  0
 13 14  1  0
 13 12  1  0
 15 14  1  0
 15 22  1  0
 15 16  1  0
 17 16  1  0
 18 11  2  0
 19 20  2  0
 20 39  1  0
 21 20  1  0
 21 24  1  0
 22 23  1  0
 22 19  1  0
 23 21  2  0
 24 25  1  0
 25 26  2  0
 27 30  1  0
 27 26  1  0
 28 27  2  0
 29 28  1  0
 29 24  2  0
 30 31  1  0
 31 32  1  0
 32 33  2  0
 34 33  1  0
 34 38  1  0
 35 34  2  0
 36 31  2  0
 36 35  1  0
 37 36  1  0
 39 40  1  0
 40 43  1  0
 40 42  1  0
 41 39  2  0
 44 45  1  0
 44 19  1  0
 46 44  1  0
 47 48  1  0
 48  7  1  0
 49  1  2  0
 49 50  1  0
 50 52  2  0
 51 50  1  0
 51 54  1  0
 53 51  1  0
 55 56  1  0
 55 54  2  0
 57 68  2  0
 58 56  1  0
 58 63  1  0
 59 67  1  0
 59 69  1  0
 60 62  1  0
 61 67  1  0
 62 63  2  0
 62 61  1  0
 64 58  2  0
 65 64  1  0
 65 60  2  0
 66 60  1  0
 66 59  1  0
 67 57  1  0
 69 71  2  0
 70 69  1  0
 72 70  1  0
 73 82  2  0
 73 78  1  0
 74 70  1  0
 74 78  1  0
 75 74  1  0
 76 77  1  0
 76 75  1  0
 77 73  1  0
 78 79  2  0
 79 80  1  0
 81 80  2  0
 82 81  1  0
 83 57  1  0
 83 84  1  0
 83 93  1  0
 84 87  1  0
 85 89  1  0
 85 84  1  0
 86 85  2  0
 89 88  1  0
 91 92  1  0
 91 89  1  0
 91 90  1  0
 93 96  1  1
 93 94  1  0
 95 93  1  0
M  ISO  4   2 100  11 100  55 101  56 101
M  END
>  <TORSDO>  (1) 
F 22

>  <SCORE>  (1) 
-12.438

>  <name>  (1) 
0

>  <ligand_id>  (1) 
0

>  <original_smiles>  (1) 
[H]c1c([H])c([H])c2c(c1[H])C([H])([H])C([H])([H])C([H])([H])C2([H])N([H])C(=O)C1([H])N(C(=O)C([H])(N([H])C(=O)C([H])(N([H])C([H])([H])[H])C([H])([H])[H])C(C([H])([H])[H])(C([H])([H])[H])C([H])([H])[H])C([H])([H])c2c([H])c(OC([H])([H])C([H])([H])N([H])C(=O)C([H])([H])C([H])([H])c3c(C(=O)N4C([H])([H])C([H])([H])C([H])([H])C([H])(n5nc(-c6c([H])c([H])c(Oc7c([H])c([H])c(F)c([H])c7F)c([H])c6[H])c(C(=O)N([H])[H])c5N([H])[H])C4([H])[H])c(C([H])([H])[H])c(C([H])([H])[H])c(C([H])([H])C([H])([H])[H])c3C([H])([H])[H])c([H])c([H])c2C1([H])[H]

>  <smiles>  (1) 
[H]c1c([H])c([H])c2c(c1[H])C([H])([H])C([H])([H])C([H])([H])C2([H])N([H])C(=O)C1([H])N(C(=O)C([H])(N([H])C(=O)C([H])(N([H])C([H])([H])[H])C([H])([H])[H])C(C([H])([H])[H])(C([H])([H])[H])C([H])([H])[H])C([H])([H])c2c([H])c(OC([H])([H])C([H])([H])N([H])C(=O)C([H])([H])C([H])([H])c3c(C(=O)N4C([H])([H])C([H])([H])C([H])([H])C([H])(n5nc(-c6c([H])c([H])c(Oc7c([H])c([H])c(F)c([H])c7F)c([H])c6[H])c(C(=O)N([H])[H])c5N([H])[H])C4([H])[H])c(C([H])([H])[H])c(C([H])([H])[H])c(C([H])([H])C([H])([H])[H])c3C([H])([H])[H])c([H])c([H])c2C1([H])[H]

$$$$
1:0:0
     RDKit          3D

 99108  0  0  1  0  0  0  0  0999 V2000
  -29.2940  -22.3600   16.1530 C   0  0  0  0  0  3  0  0  0  0  0  0
  -29.1410  -23.5200   16.9230 C   0  0  0  0  0  3  0  0  0  0  0  0
  -31.5540  -23.8730   16.9020 C   0  0  0  0  0  3  0  0  0  0  0  0
  -30.5750  -21.9490   15.7480 C   0  0  0  0  0  0  0  0  0  0  0  0
  -30.2620  -24.2980   17.2850 C   0  0  0  0  0  0  0  0  0  0  0  0
  -31.7090  -22.6990   16.1330 C   0  0  0  0  0  0  0  0  0  0  0  0
  -32.9570  -22.3010   15.7790 F   0  0  0  0  0  0  0  0  0  0  0  0
  -29.5210  -28.0460   17.7050 C   0  0  0  0  0  2  0  0  0  0  0  0
  -30.2430  -26.8360   17.0860 C   0  0  0  0  0  2  0  0  0  0  0  0
  -29.9650  -28.2970   19.1570 C   0  0  0  0  0  2  0  0  0  0  0  0
  -30.6250  -25.8500   19.3800 C   0  0  0  0  0  2  0  0  0  0  0  0
  -29.9980  -25.6230   17.9840 C   0  0  0  0  0  3  0  0  0  0  0  0
  -29.8780  -27.0270   20.0630 C   0  0  0  0  0  3  0  0  0  0  0  0
  -28.5790  -26.4600   20.2800 O   0  0  0  0  0  0  0  0  0  0  0  0
  -24.7540  -31.6970   23.2480 C   0  0  0  0  0  0  0  0  0  0  0  0
  -27.4510  -27.2360   20.3040 C   0  0  0  0  0  0  0  0  0  0  0  0
  -23.5700  -30.2860   21.5950 C   0  0  0  0  0  3  0  0  0  0  0  0
  -25.0530  -28.7100   20.2430 C   0  0  0  0  0  0  0  0  0  0  0  0
  -26.0990  -30.6280   21.4550 C   0  0  0  0  0  2  0  0  0  0  0  0
  -26.1920  -29.2460   20.8570 C   0  0  0  0  0  0  0  0  0  0  0  0
  -27.3900  -28.5080   20.9080 C   0  0  0  0  0  3  0  0  0  0  0  0
  -26.2980  -26.6990   19.7000 C   0  0  0  0  0  3  0  0  0  0  0  0
  -25.0960  -27.4320   19.6610 C   0  0  0  0  0  3  0  0  0  0  0  0
  -23.8120  -29.5710   20.2370 C   0  0  0  0  0  2  0  0  0  0  0  0
  -24.8250  -30.8840   22.1590 N   0  0  0  0  0  0  0  0  0  0  0  0
  -23.6620  -31.9900   23.7510 O   0  0  0  0  0  0  0  0  0  0  0  0
  -22.8880  -29.2850   22.5540 C   0  0  0  0  0  0  0  0  0  0  0  0
  -21.5640  -29.1250   22.3990 N   0  0  0  0  0  0  0  0  0  0  0  0
  -23.5450  -28.6550   23.3870 O   0  0  0  0  0  0  0  0  0  0  0  0
  -21.1060  -29.6810   21.6940 H   0  0  0  0  0  0  0  0  0  0  0  0
  -18.1520  -28.0400   22.8570 C   0  0  0  0  0  0  0  0  0  0  0  0
  -20.7130  -28.2130   23.1620 C   0  0  0  0  0  3  0  0  0  0  0  0
  -20.7790  -26.7840   22.5820 C   0  0  0  0  0  2  0  0  0  0  0  0
  -19.6800  -26.4980   21.5550 C   0  0  0  0  0  2  0  0  0  0  0  0
  -18.2940  -26.6890   22.1790 C   0  0  0  0  0  2  0  0  0  0  0  0
  -19.2890  -28.7650   23.3020 C   0  0  0  0  0  0  0  0  0  0  0  0
  -19.1050  -30.0320   23.8940 C   0  0  0  0  0  3  0  0  0  0  0  0
  -17.8160  -30.5780   24.0410 C   0  0  0  0  0  3  0  0  0  0  0  0
  -16.6910  -29.8470   23.6200 C   0  0  0  0  0  3  0  0  0  0  0  0
  -16.8630  -28.5820   23.0330 C   0  0  0  0  0  3  0  0  0  0  0  0
  -26.0340  -32.3170   23.8980 C   0  0  0  0  0  3  0  0  0  0  0  0
  -26.5280  -31.5230   25.1700 C   0  0  1  0  0  0  0  0  0  0  0  0
  -25.4110  -31.2610   26.2090 C   0  0  0  0  0  1  0  0  0  0  0  0
  -27.1320  -30.1570   24.7620 C   0  0  0  0  0  1  0  0  0  0  0  0
  -27.6580  -32.3100   25.8750 C   0  0  0  0  0  1  0  0  0  0  0  0
  -25.7250  -33.7110   24.2360 N   0  0  0  0  0  0  0  0  0  0  0  0
  -26.0540  -34.7640   23.4780 C   0  0  0  0  0  0  0  0  0  0  0  0
  -26.7240  -34.6650   22.4470 O   0  0  0  0  0  0  0  0  0  0  0  0
  -25.1320  -33.8670   25.0380 H   0  0  0  0  0  0  0  0  0  0  0  0
  -24.3120  -36.5450   23.1430 C   0  0  0  0  0  1  0  0  0  0  0  0
  -25.5670  -36.1520   23.9390 C   0  0  0  0  0  3  0  0  0  0  0  0
  -27.7100  -37.0500   24.7400 C   0  0  0  0  0  1  0  0  0  0  0  0
  -26.5910  -37.2110   23.8120 N   0  0  0  0  0  0  0  0  0  0  0  0
  -26.1820  -38.1270   23.9630 H   0  0  0  0  0  0  0  0  0  0  0  0
  -30.6710  -20.7380   14.9090 C   0  0  0  0  0  0  0  0  0  0  0  0
  -30.9850  -20.7540   13.7140 O   0  0  0  0  0  0  0  0  0  0  0  0
  -30.2700  -19.4290   15.5960 C   0  0  0  0  0  2  0  0  0  0  0  0
  -31.0100  -19.1960   16.9380 C   0  0  0  0  0  2  0  0  0  0  0  0
  -30.0610  -19.0000   18.1370 C   0  0  0  0  0  2  0  0  0  0  0  0
  -30.7230  -19.2200   19.5160 C   0  0  0  0  0  2  0  0  0  0  0  0
  -30.2550  -18.1940   20.5680 C   0  0  0  0  0  2  0  0  0  0  0  0
  -30.9530  -16.8410   20.3580 C   0  0  0  0  0  2  0  0  0  0  0  0
  -30.2700  -15.6060   21.0070 C   0  0  0  0  0  2  0  0  0  0  0  0
  -30.8300  -14.3110   20.3910 C   0  0  0  0  0  0  0  0  0  0  0  0
  -30.3830  -12.2180   19.1910 C   0  0  0  0  0  2  0  0  0  0  0  0
  -29.4570  -12.5270   17.9970 C   0  0  0  0  0  2  0  0  0  0  0  0
  -27.9800  -12.4250   18.4220 C   0  0  0  0  0  2  0  0  0  0  0  0
  -27.6770  -13.2160   19.7210 C   0  0  0  0  0  3  0  0  0  0  0  0
  -28.7370  -12.9600   20.8180 C   0  0  0  0  0  2  0  0  0  0  0  0
  -30.0710  -13.1940   20.2460 N   0  0  0  0  0  0  0  0  0  0  0  0
  -31.9620  -14.3830   19.9060 O   0  0  0  0  0  0  0  0  0  0  0  0
  -25.2760  -13.8480   20.3930 C   0  0  0  0  0  0  0  0  0  0  0  0
  -24.1980  -13.0940   20.7610 C   0  0  0  0  0  0  0  0  0  0  0  0
  -24.6450  -11.7350   20.7570 C   0  0  0  0  0  0  0  0  0  0  0  0
  -26.3190  -12.9560   20.1930 N   0  0  0  0  0  0  0  0  0  0  0  0
  -25.9410  -11.6790   20.4650 N   0  0  0  0  0  0  0  0  0  0  0  0
  -23.9020  -10.4830   20.9570 C   0  0  0  0  0  0  0  0  0  0  0  0
  -24.3160   -9.5240   21.9070 C   0  0  0  0  0  3  0  0  0  0  0  0
  -23.5760   -8.3360   22.0950 C   0  0  0  0  0  3  0  0  0  0  0  0
  -22.4050   -8.1020   21.3350 C   0  0  0  0  0  0  0  0  0  0  0  0
  -22.0120   -9.0490   20.3730 C   0  0  0  0  0  3  0  0  0  0  0  0
  -22.7530  -10.2280   20.1840 C   0  0  0  0  0  3  0  0  0  0  0  0
  -21.6390   -6.9660   21.4320 O   0  0  0  0  0  0  0  0  0  0  0  0
  -21.5740   -6.2370   22.5920 C   0  0  0  0  0  0  0  0  0  0  0  0
  -21.1430   -6.8100   23.8080 C   0  0  0  0  0  3  0  0  0  0  0  0
  -21.0260   -6.0090   24.9610 C   0  0  0  0  0  3  0  0  0  0  0  0
  -21.3280   -4.6350   24.8990 C   0  0  0  0  0  0  0  0  0  0  0  0
  -21.7510   -4.0620   23.6860 C   0  0  0  0  0  3  0  0  0  0  0  0
  -21.8700   -4.8610   22.5360 C   0  0  0  0  0  0  0  0  0  0  0  0
  -22.2570   -4.2990   21.3670 F   0  0  0  0  0  0  0  0  0  0  0  0
  -21.2080   -3.8630   26.0050 F   0  0  0  0  0  0  0  0  0  0  0  0
  -22.8020  -13.5880   21.0120 C   0  0  0  0  0  0  0  0  0  0  0  0
  -22.0560  -12.9120   21.8780 N   0  0  0  0  0  0  0  0  0  0  0  0
  -22.3800  -14.6100   20.4710 O   0  0  0  0  0  0  0  0  0  0  0  0
  -22.4090  -12.0870   22.3370 H   0  0  0  0  0  0  0  0  0  0  0  0
  -21.1190  -13.2270   22.0840 H   0  0  0  0  0  0  0  0  0  0  0  0
  -25.4630  -15.2130   20.1900 N   0  0  0  0  0  0  0  0  0  0  0  0
  -24.7120  -15.8920   20.2690 H   0  0  0  0  0  0  0  0  0  0  0  0
  -26.3350  -15.6210   19.8750 H   0  0  0  0  0  0  0  0  0  0  0  0
  1  2  1  0
  2  5  2  0
  3  5  1  0
  4  6  1  0
  4  1  2  0
  6  3  2  0
  7  6  1  0
  8 10  1  0
  9  8  1  0
  9 12  1  0
 10 13  1  0
 11 13  1  0
 12  5  1  0
 12 11  1  0
 13 14  1  0
 14 16  1  0
 15 26  2  0
 16 21  1  0
 17 25  1  0
 17 27  1  0
 18 20  1  0
 19 25  1  0
 20 21  2  0
 20 19  1  0
 22 16  2  0
 23 22  1  0
 23 18  2  0
 24 18  1  0
 24 17  1  0
 25 15  1  0
 27 29  2  0
 28 27  1  0
 30 28  1  0
 31 40  2  0
 31 36  1  0
 32 28  1  0
 32 36  1  0
 33 32  1  0
 34 35  1  0
 34 33  1  0
 35 31  1  0
 36 37  2  0
 37 38  1  0
 39 38  2  0
 40 39  1  0
 41 15  1  0
 41 46  1  0
 41 42  1  0
 42 45  1  1
 42 43  1  0
 44 42  1  0
 46 49  1  0
 47 51  1  0
 47 46  1  0
 48 47  2  0
 51 50  1  0
 53 51  1  0
 53 54  1  0
 53 52  1  0
 55 57  1  0
 55  4  1  0
 56 55  2  0
 57 58  1  0
 58 59  1  0
 59 60  1  0
 60 61  1  0
 62 61  1  0
 62 63  1  0
 64 63  1  0
 65 70  1  0
 66 67  1  0
 66 65  1  0
 68 67  1  0
 68 75  1  0
 68 69  1  0
 70 64  1  0
 70 69  1  0
 71 64  2  0
 72 73  2  0
 73 92  1  0
 74 73  1  0
 74 77  1  0
 75 72  1  0
 75 76  1  0
 76 74  2  0
 77 78  1  0
 78 79  2  0
 80 83  1  0
 80 79  1  0
 81 80  2  0
 82 81  1  0
 82 77  2  0
 83 84  1  0
 84 85  1  0
 85 86  2  0
 87 86  1  0
 87 91  1  0
 88 87  2  0
 89 84  2  0
 89 88  1  0
 90 89  1  0
 92 93  1  0
 93 96  1  0
 93 95  1  0
 94 92  2  0
 97 98  1  0
 97 72  1  0
 99 97  1  0
M  ISO  4  13 101  14 101  63 100  64 100
M  END
>  <TORSDO>  (2) 
F 25

>  <SCORE>  (2) 
-11.412

>  <name>  (2) 
1

>  <ligand_id>  (2) 
1

>  <original_smiles>  (2) 
[H]c1c([H])c([H])c2c(c1[H])C([H])([H])C([H])([H])C([H])([H])C2([H])N([H])C(=O)C1([H])N(C(=O)C([H])(N([H])C(=O)C([H])(N([H])C([H])([H])[H])C([H])([H])[H])C(C([H])([H])[H])(C([H])([H])[H])C([H])([H])[H])C([H])([H])c2c([H])c(OC3([H])C([H])([H])C([H])([H])C([H])([H])C([H])(c4c([H])c([H])c(C(=O)C([H])([H])C([H])([H])C([H])([H])C([H])([H])C([H])([H])C([H])([H])C([H])([H])C(=O)N5C([H])([H])C([H])([H])C([H])([H])C([H])(n6nc(-c7c([H])c([H])c(Oc8c([H])c([H])c(F)c([H])c8F)c([H])c7[H])c(C(=O)N([H])[H])c6N([H])[H])C5([H])[H])c(F)c4[H])C3([H])[H])c([H])c([H])c2C1([H])[H]

>  <smiles>  (2) 
[H]c1c([H])c([H])c2c(c1[H])C([H])([H])C([H])([H])C([H])([H])C2([H])N([H])C(=O)C1([H])N(C(=O)C([H])(N([H])C(=O)C([H])(N([H])C([H])([H])[H])C([H])([H])[H])C(C([H])([H])[H])(C([H])([H])[H])C([H])([H])[H])C([H])([H])c2c([H])c(OC3([H])C([H])([H])C([H])([H])C([H])([H])C([H])(c4c([H])c([H])c(C(=O)C([H])([H])C([H])([H])C([H])([H])C([H])([H])C([H])([H])C([H])([H])C([H])([H])C(=O)N5C([H])([H])C([H])([H])C([H])([H])C([H])(n6nc(-c7c([H])c([H])c(Oc8c([H])c([H])c(F)c([H])c8F)c([H])c7[H])c(C(=O)N([H])[H])c6N([H])[H])C5([H])[H])c(F)c4[H])C3([H])[H])c([H])c([H])c2C1([H])[H]

$$$$
2:0:0
     RDKit          3D

 91100  0  0  1  0  0  0  0  0999 V2000
  -32.1660  -22.0940   20.4470 C   0  0  0  0  0  3  0  0  0  0  0  0
  -30.8370  -22.4890   20.5570 C   0  0  0  0  0  0  0  0  0  0  0  0
  -29.7360  -21.5770   20.4160 C   0  0  0  0  0  0  0  0  0  0  0  0
  -32.5230  -20.7650   20.3140 C   0  0  0  0  0  0  0  0  0  0  0  0
  -30.1170  -20.0190   20.4160 C   0  0  0  0  0  0  0  0  0  0  0  0
  -31.5400  -19.7550   20.3990 C   0  0  0  0  0  0  0  0  0  0  0  0
  -30.6940  -24.0030   20.8020 C   0  0  0  0  0  2  0  0  0  0  0  0
  -28.4020  -22.6380   20.2180 C   0  0  0  0  0  2  0  0  0  0  0  0
  -29.4790  -24.4150   21.6400 C   0  0  0  0  0  2  0  0  0  0  0  0
  -28.2510  -24.3490   20.7520 C   0  0  0  0  0  3  0  0  0  0  0  0
  -34.0120  -20.4770   20.1400 C   0  0  0  0  0  1  0  0  0  0  0  0
  -32.0970  -18.3350   20.5150 C   0  0  0  0  0  1  0  0  0  0  0  0
  -28.2380  -25.8900   20.1750 O   0  0  0  0  0  0  0  0  0  0  0  0
  -24.5920  -31.8300   23.1580 C   0  0  0  0  0  0  0  0  0  0  0  0
  -27.1880  -26.9390   20.2320 C   0  0  0  0  0  0  0  0  0  0  0  0
  -23.4110  -30.4050   21.5350 C   0  0  0  0  0  3  0  0  0  0  0  0
  -24.8730  -28.7860   20.1500 C   0  0  0  0  0  0  0  0  0  0  0  0
  -25.9750  -30.6360   21.3910 C   0  0  0  0  0  2  0  0  0  0  0  0
  -26.0570  -29.2150   20.7620 C   0  0  0  0  0  0  0  0  0  0  0  0
  -27.2150  -28.3150   20.7700 C   0  0  0  0  0  3  0  0  0  0  0  0
  -25.9690  -26.6480   19.5830 C   0  0  0  0  0  3  0  0  0  0  0  0
  -24.8520  -27.5210   19.5410 C   0  0  0  0  0  3  0  0  0  0  0  0
  -23.6500  -29.7010   20.1720 C   0  0  0  0  0  2  0  0  0  0  0  0
  -24.6810  -30.9840   22.0810 N   0  0  0  0  0  0  0  0  0  0  0  0
  -23.4990  -32.1200   23.6720 O   0  0  0  0  0  0  0  0  0  0  0  0
  -22.7200  -29.4170   22.5110 C   0  0  0  0  0  0  0  0  0  0  0  0
  -21.3900  -29.2530   22.3920 N   0  0  0  0  0  0  0  0  0  0  0  0
  -23.3880  -28.7980   23.3430 O   0  0  0  0  0  0  0  0  0  0  0  0
  -20.9040  -29.8030   21.6980 H   0  0  0  0  0  0  0  0  0  0  0  0
  -18.0060  -28.0580   22.9270 C   0  0  0  0  0  0  0  0  0  0  0  0
  -20.5680  -28.3230   23.1740 C   0  0  0  0  0  3  0  0  0  0  0  0
  -20.6650  -26.8860   22.6090 C   0  0  0  0  0  2  0  0  0  0  0  0
  -19.5560  -26.5580   21.6040 C   0  0  0  0  0  2  0  0  0  0  0  0
  -18.1780  -26.7060   22.2560 C   0  0  0  0  0  2  0  0  0  0  0  0
  -19.1280  -28.8240   23.3450 C   0  0  0  0  0  0  0  0  0  0  0  0
  -18.9110  -30.0870   23.9360 C   0  0  0  0  0  3  0  0  0  0  0  0
  -17.6060  -30.5850   24.1130 C   0  0  0  0  0  3  0  0  0  0  0  0
  -16.4990  -29.8170   23.7100 C   0  0  0  0  0  3  0  0  0  0  0  0
  -16.7010  -28.5550   23.1240 C   0  0  0  0  0  3  0  0  0  0  0  0
  -25.8560  -32.4890   23.7870 C   0  0  0  0  0  3  0  0  0  0  0  0
  -25.5200  -33.8810   24.1300 N   0  0  0  0  0  0  0  0  0  0  0  0
  -25.8340  -34.9520   23.3880 C   0  0  0  0  0  0  0  0  0  0  0  0
  -26.4990  -34.8720   22.3530 O   0  0  0  0  0  0  0  0  0  0  0  0
  -24.9270  -34.0150   24.9350 H   0  0  0  0  0  0  0  0  0  0  0  0
  -24.0820  -36.7340   23.0710 C   0  0  0  0  0  1  0  0  0  0  0  0
  -25.3320  -36.3300   23.8690 C   0  0  0  0  0  3  0  0  0  0  0  0
  -27.4590  -37.2330   24.7040 C   0  0  0  0  0  1  0  0  0  0  0  0
  -26.3510  -37.3980   23.7660 N   0  0  0  0  0  0  0  0  0  0  0  0
  -25.9340  -38.3100   23.9250 H   0  0  0  0  0  0  0  0  0  0  0  0
  -26.3800  -31.7250   25.0660 C   0  0  1  0  0  0  0  0  0  0  0  0
  -25.2870  -31.4750   26.1330 C   0  0  0  0  0  1  0  0  0  0  0  0
  -26.9820  -30.3540   24.6840 C   0  0  0  0  0  1  0  0  0  0  0  0
  -27.5190  -32.5340   25.7290 C   0  0  0  0  0  1  0  0  0  0  0  0
  -29.3380  -18.4800   20.5900 C   0  0  0  0  0  2  0  0  0  0  0  0
  -29.5750  -16.7890   19.9460 C   0  0  0  0  0  2  0  0  0  0  0  0
  -30.4040  -15.2570   20.2190 C   0  0  0  0  0  0  0  0  0  0  0  0
  -30.3710  -12.8110   19.3620 C   0  0  0  0  0  2  0  0  0  0  0  0
  -29.4280  -12.6360   18.1440 C   0  0  0  0  0  2  0  0  0  0  0  0
  -27.9810  -12.3730   18.6040 C   0  0  0  0  0  2  0  0  0  0  0  0
  -27.5540  -13.3300   19.7440 C   0  0  0  0  0  3  0  0  0  0  0  0
  -28.6210  -13.4600   20.8470 C   0  0  0  0  0  2  0  0  0  0  0  0
  -29.8550  -13.9450   20.2090 N   0  0  0  0  0  0  0  0  0  0  0  0
  -31.6340  -15.2290   20.0730 O   0  0  0  0  0  0  0  0  0  0  0  0
  -25.2080  -13.8920   20.5680 C   0  0  0  0  0  0  0  0  0  0  0  0
  -24.1490  -13.1160   20.9480 C   0  0  0  0  0  0  0  0  0  0  0  0
  -24.6060  -11.7620   20.8850 C   0  0  0  0  0  0  0  0  0  0  0  0
  -26.2370  -13.0130   20.2810 N   0  0  0  0  0  0  0  0  0  0  0  0
  -25.8900  -11.7250   20.5420 N   0  0  0  0  0  0  0  0  0  0  0  0
  -23.8730  -10.5030   21.0710 C   0  0  0  0  0  0  0  0  0  0  0  0
  -24.3070   -9.5220   21.9890 C   0  0  0  0  0  3  0  0  0  0  0  0
  -23.5730   -8.3290   22.1630 C   0  0  0  0  0  3  0  0  0  0  0  0
  -22.3900   -8.1080   21.4190 C   0  0  0  0  0  0  0  0  0  0  0  0
  -21.9740   -9.0770   20.4890 C   0  0  0  0  0  3  0  0  0  0  0  0
  -22.7090  -10.2620   20.3130 C   0  0  0  0  0  3  0  0  0  0  0  0
  -21.6270   -6.9690   21.5040 O   0  0  0  0  0  0  0  0  0  0  0  0
  -21.5760   -6.2190   22.6530 C   0  0  0  0  0  0  0  0  0  0  0  0
  -21.1550   -6.7680   23.8840 C   0  0  0  0  0  3  0  0  0  0  0  0
  -21.0510   -5.9460   25.0230 C   0  0  0  0  0  3  0  0  0  0  0  0
  -21.3580   -4.5760   24.9330 C   0  0  0  0  0  0  0  0  0  0  0  0
  -21.7740   -4.0250   23.7070 C   0  0  0  0  0  3  0  0  0  0  0  0
  -21.8780   -4.8450   22.5700 C   0  0  0  0  0  0  0  0  0  0  0  0
  -22.2580   -4.3050   21.3860 F   0  0  0  0  0  0  0  0  0  0  0  0
  -21.2520   -3.7840   26.0260 F   0  0  0  0  0  0  0  0  0  0  0  0
  -22.7610  -13.5970   21.2520 C   0  0  0  0  0  0  0  0  0  0  0  0
  -22.0420  -12.8910   22.1160 N   0  0  0  0  0  0  0  0  0  0  0  0
  -22.3230  -14.6360   20.7580 O   0  0  0  0  0  0  0  0  0  0  0  0
  -22.4090  -12.0510   22.5390 H   0  0  0  0  0  0  0  0  0  0  0  0
  -21.1100  -13.1950   22.3610 H   0  0  0  0  0  0  0  0  0  0  0  0
  -25.3760  -15.2640   20.4120 N   0  0  0  0  0  0  0  0  0  0  0  0
  -24.6170  -15.9200   20.5600 H   0  0  0  0  0  0  0  0  0  0  0  0
  -26.2200  -15.7060   20.0750 H   0  0  0  0  0  0  0  0  0  0  0  0
  1  2  1  0
  2  7  1  0
  3  2  2  0
  4  6  1  0
  4  1  2  0
  5  3  1  0
  5 54  1  0
  6  5  2  0
  6 12  1  0
  7  9  1  0
  8  3  1  0
  8 10  1  0
 10 13  1  0
 10  9  1  0
 11  4  1  0
 13 15  1  0
 14 25  2  0
 15 20  1  0
 16 24  1  0
 16 26  1  0
 17 23  1  0
 17 19  1  0
 18 24  1  0
 19 20  2  0
 19 18  1  0
 21 15  2  0
 22 21  1  0
 22 17  2  0
 23 16  1  0
 24 14  1  0
 26 28  2  0
 27 26  1  0
 29 27  1  0
 30 39  2  0
 30 35  1  0
 31 27  1  0
 31 35  1  0
 32 31  1  0
 33 34  1  0
 33 32  1  0
 34 30  1  0
 35 36  2  0
 36 37  1  0
 38 37  2  0
 39 38  1  0
 40 14  1  0
 40 41  1  0
 40 50  1  0
 41 44  1  0
 42 46  1  0
 42 41  1  0
 43 42  2  0
 46 45  1  0
 48 46  1  0
 48 49  1  0
 48 47  1  0
 50 53  1  1
 50 51  1  0
 52 50  1  0
 55 56  1  0
 55 54  1  0
 57 62  1  0
 58 59  1  0
 58 57  1  0
 60 59  1  0
 60 67  1  0
 60 61  1  0
 62 56  1  0
 62 61  1  0
 63 56  2  0
 64 65  2  0
 65 84  1  0
 66 65  1  0
 66 69  1  0
 67 68  1  0
 67 64  1  0
 68 66  2  0
 69 70  1  0
 70 71  2  0
 72 75  1  0
 72 71  1  0
 73 72  2  0
 74 73  1  0
 74 69  2  0
 75 76  1  0
 76 77  1  0
 77 78  2  0
 79 78  1  0
 79 83  1  0
 80 79  2  0
 81 76  2  0
 81 80  1  0
 82 81  1  0
 84 85  1  0
 85 88  1  0
 85 87  1  0
 86 84  2  0
 89 90  1  0
 89 64  1  0
 91 89  1  0
M  ISO  4  10 101  13 101  55 100  56 100
M  END
>  <TORSDO>  (3) 
F 18

>  <SCORE>  (3) 
-16.154

>  <name>  (3) 
2

>  <ligand_id>  (3) 
2

>  <original_smiles>  (3) 
[H]c1c([H])c([H])c2c(c1[H])C([H])([H])C([H])([H])C([H])([H])C2([H])N([H])C(=O)C1([H])N(C(=O)C([H])(N([H])C(=O)C([H])(N([H])C([H])([H])[H])C([H])([H])[H])C(C([H])([H])[H])(C([H])([H])[H])C([H])([H])[H])C([H])([H])c2c([H])c(OC3([H])C([H])([H])c4c(C([H])([H])C([H])([H])C(=O)N5C([H])([H])C([H])([H])C([H])([H])C([H])(n6nc(-c7c([H])c([H])c(Oc8c([H])c([H])c(F)c([H])c8F)c([H])c7[H])c(C(=O)N([H])[H])c6N([H])[H])C5([H])[H])c(C([H])([H])[H])c(C([H])([H])[H])c([H])c4C([H])([H])C3([H])[H])c([H])c([H])c2C1([H])[H]

>  <smiles>  (3) 
[H]c1c([H])c([H])c2c(c1[H])C([H])([H])C([H])([H])C([H])([H])C2([H])N([H])C(=O)C1([H])N(C(=O)C([H])(N([H])C(=O)C([H])(N([H])C([H])([H])[H])C([H])([H])[H])C(C([H])([H])[H])(C([H])([H])[H])C([H])([H])[H])C([H])([H])c2c([H])c(OC3([H])C([H])([H])c4c(C([H])([H])C([H])([H])C(=O)N5C([H])([H])C([H])([H])C([H])([H])C([H])(n6nc(-c7c([H])c([H])c(Oc8c([H])c([H])c(F)c([H])c8F)c([H])c7[H])c(C(=O)N([H])[H])c6N([H])[H])C5([H])[H])c(C([H])([H])[H])c(C([H])([H])[H])c([H])c4C([H])([H])C3([H])[H])c([H])c([H])c2C1([H])[H]

$$$$
3:0:0
     RDKit          3D

 96105  0  0  1  0  0  0  0  0999 V2000
  -31.3050  -20.9330   23.0710 C   0  0  0  0  0  3  0  0  0  0  0  0
  -29.5570  -19.6320   21.3190 C   0  0  0  0  0  3  0  0  0  0  0  0
  -30.2540  -21.6640   22.4840 C   0  0  0  0  0  0  0  0  0  0  0  0
  -31.4750  -19.5570   22.8170 C   0  0  0  0  0  0  0  0  0  0  0  0
  -29.3500  -21.0020   21.6160 C   0  0  0  0  0  0  0  0  0  0  0  0
  -30.6170  -18.8910   21.9050 C   0  0  0  0  0  0  0  0  0  0  0  0
  -30.1110  -23.1390   22.8430 C   0  0  0  0  0  1  0  0  0  0  0  0
  -32.5610  -18.8160   23.5850 C   0  0  0  0  0  1  0  0  0  0  0  0
  -28.0960  -21.7090   21.0890 C   0  0  0  0  0  2  0  0  0  0  0  0
  -26.7350  -22.6960   19.1950 C   0  0  0  0  0  2  0  0  0  0  0  0
  -29.2650  -22.7600   19.0160 C   0  0  0  0  0  2  0  0  0  0  0  0
  -26.7540  -24.1910   19.5820 C   0  0  0  0  0  2  0  0  0  0  0  0
  -29.2120  -24.2930   19.2460 C   0  0  0  0  0  2  0  0  0  0  0  0
  -28.0490  -21.9810   19.5690 C   0  0  0  0  0  3  0  0  0  0  0  0
  -27.8760  -24.9490   18.8250 C   0  0  0  0  0  3  0  0  0  0  0  0
  -28.0080  -26.3600   19.1130 O   0  0  0  0  0  0  0  0  0  0  0  0
  -24.9200  -31.2210   23.2730 C   0  0  0  0  0  0  0  0  0  0  0  0
  -26.9110  -27.1920   19.2500 C   0  0  0  0  0  0  0  0  0  0  0  0
  -23.4830  -30.2520   21.5090 C   0  0  0  0  0  3  0  0  0  0  0  0
  -24.6860  -28.8910   19.7130 C   0  0  0  0  0  0  0  0  0  0  0  0
  -26.0160  -30.4090   21.1860 C   0  0  0  0  0  2  0  0  0  0  0  0
  -25.9200  -29.1800   20.3040 C   0  0  0  0  0  0  0  0  0  0  0  0
  -27.0320  -28.3350   20.0770 C   0  0  0  0  0  3  0  0  0  0  0  0
  -25.6740  -26.9580   18.6100 C   0  0  0  0  0  3  0  0  0  0  0  0
  -24.5600  -27.7860   18.8560 C   0  0  0  0  0  3  0  0  0  0  0  0
  -23.5350  -29.8230   20.0170 C   0  0  0  0  0  2  0  0  0  0  0  0
  -24.8300  -30.6350   22.0450 N   0  0  0  0  0  0  0  0  0  0  0  0
  -23.9060  -31.4830   23.9360 O   0  0  0  0  0  0  0  0  0  0  0  0
  -22.7990  -29.1300   22.3230 C   0  0  0  0  0  0  0  0  0  0  0  0
  -21.4710  -29.0080   22.1710 N   0  0  0  0  0  0  0  0  0  0  0  0
  -23.4600  -28.3840   23.0500 O   0  0  0  0  0  0  0  0  0  0  0  0
  -21.0000  -29.6610   21.5620 H   0  0  0  0  0  0  0  0  0  0  0  0
  -18.0730  -27.7930   22.4180 C   0  0  0  0  0  0  0  0  0  0  0  0
  -20.6230  -27.9990   22.8050 C   0  0  0  0  0  3  0  0  0  0  0  0
  -20.7410  -26.6370   22.0810 C   0  0  0  0  0  2  0  0  0  0  0  0
  -19.6710  -26.4390   21.0000 C   0  0  0  0  0  2  0  0  0  0  0  0
  -18.2680  -26.5240   21.6070 C   0  0  0  0  0  2  0  0  0  0  0  0
  -19.1810  -28.4940   22.9680 C   0  0  0  0  0  0  0  0  0  0  0  0
  -18.9480  -29.6880   23.6840 C   0  0  0  0  0  3  0  0  0  0  0  0
  -17.6400  -30.1780   23.8600 C   0  0  0  0  0  3  0  0  0  0  0  0
  -16.5480  -29.4710   23.3270 C   0  0  0  0  0  3  0  0  0  0  0  0
  -16.7650  -28.2800   22.6140 C   0  0  0  0  0  3  0  0  0  0  0  0
  -26.2980  -31.6160   23.8920 C   0  0  0  0  0  3  0  0  0  0  0  0
  -26.7760  -30.6290   25.0270 C   0  0  1  0  0  0  0  0  0  0  0  0
  -25.6950  -30.3460   26.0960 C   0  0  0  0  0  1  0  0  0  0  0  0
  -27.2150  -29.2720   24.4250 C   0  0  0  0  0  1  0  0  0  0  0  0
  -28.0170  -31.2140   25.7400 C   0  0  0  0  0  1  0  0  0  0  0  0
  -26.1720  -32.9840   24.4140 N   0  0  0  0  0  0  0  0  0  0  0  0
  -26.6230  -34.0800   23.7890 C   0  0  0  0  0  0  0  0  0  0  0  0
  -27.2590  -34.0360   22.7320 O   0  0  0  0  0  0  0  0  0  0  0  0
  -25.6230  -33.1040   25.2520 H   0  0  0  0  0  0  0  0  0  0  0  0
  -25.1370  -36.1080   23.7200 C   0  0  0  0  0  1  0  0  0  0  0  0
  -26.3220  -35.4450   24.4430 C   0  0  0  0  0  3  0  0  0  0  0  0
  -28.5490  -35.9420   25.3460 C   0  0  0  0  0  1  0  0  0  0  0  0
  -27.4810  -36.3650   24.4450 N   0  0  0  0  0  0  0  0  0  0  0  0
  -27.1940  -37.3050   24.7070 H   0  0  0  0  0  0  0  0  0  0  0  0
  -30.7800  -17.3770   21.6470 C   0  0  0  0  0  2  0  0  0  0  0  0
  -30.2250  -16.8350   20.3120 C   0  0  0  0  0  2  0  0  0  0  0  0
  -30.6240  -14.4420   19.6180 C   0  0  0  0  0  0  0  0  0  0  0  0
  -30.2740  -12.2590   18.5150 C   0  0  0  0  0  2  0  0  0  0  0  0
  -29.2000  -12.3980   17.4160 C   0  0  0  0  0  2  0  0  0  0  0  0
  -27.7870  -12.2240   18.0080 C   0  0  0  0  0  2  0  0  0  0  0  0
  -27.5600  -13.0870   19.2790 C   0  0  0  0  0  3  0  0  0  0  0  0
  -28.7290  -12.9160   20.2760 C   0  0  0  0  0  2  0  0  0  0  0  0
  -29.9820  -13.2450   19.5690 N   0  0  0  0  0  0  0  0  0  0  0  0
  -31.6350  -14.6970   18.9540 O   0  0  0  0  0  0  0  0  0  0  0  0
  -30.0090  -15.3800   20.3530 N   0  0  0  0  0  0  0  0  0  0  0  0
  -29.2030  -15.0580   20.8680 H   0  0  0  0  0  0  0  0  0  0  0  0
  -25.2530  -13.6550   20.2770 C   0  0  0  0  0  0  0  0  0  0  0  0
  -24.2360  -12.8640   20.7380 C   0  0  0  0  0  0  0  0  0  0  0  0
  -24.6900  -11.5160   20.5980 C   0  0  0  0  0  0  0  0  0  0  0  0
  -26.2680  -12.7880   19.8970 N   0  0  0  0  0  0  0  0  0  0  0  0
  -25.9350  -11.4950   20.1420 N   0  0  0  0  0  0  0  0  0  0  0  0
  -23.9920  -10.2470   20.8230 C   0  0  0  0  0  0  0  0  0  0  0  0
  -24.4020   -9.3450   21.8290 C   0  0  0  0  0  3  0  0  0  0  0  0
  -23.7040   -8.1360   22.0340 C   0  0  0  0  0  3  0  0  0  0  0  0
  -22.5830   -7.8190   21.2300 C   0  0  0  0  0  0  0  0  0  0  0  0
  -22.1960   -8.7090   20.2130 C   0  0  0  0  0  3  0  0  0  0  0  0
  -22.8940   -9.9090   20.0070 C   0  0  0  0  0  3  0  0  0  0  0  0
  -21.8580   -6.6560   21.3390 O   0  0  0  0  0  0  0  0  0  0  0  0
  -21.6010   -6.0810   22.5590 C   0  0  0  0  0  0  0  0  0  0  0  0
  -20.8710   -6.7540   23.5610 C   0  0  0  0  0  3  0  0  0  0  0  0
  -20.5730   -6.1010   24.7740 C   0  0  0  0  0  3  0  0  0  0  0  0
  -20.9930   -4.7730   24.9810 C   0  0  0  0  0  0  0  0  0  0  0  0
  -21.7180   -4.1000   23.9810 C   0  0  0  0  0  3  0  0  0  0  0  0
  -22.0170   -4.7510   22.7720 C   0  0  0  0  0  0  0  0  0  0  0  0
  -22.6960   -4.0910   21.8020 F   0  0  0  0  0  0  0  0  0  0  0  0
  -20.7000   -4.1400   26.1400 F   0  0  0  0  0  0  0  0  0  0  0  0
  -22.8830  -13.3240   21.1960 C   0  0  0  0  0  0  0  0  0  0  0  0
  -22.2690  -12.5900   22.1210 N   0  0  0  0  0  0  0  0  0  0  0  0
  -22.3870  -14.3680   20.7740 O   0  0  0  0  0  0  0  0  0  0  0  0
  -22.6910  -11.7470   22.4810 H   0  0  0  0  0  0  0  0  0  0  0  0
  -21.3690  -12.8780   22.4740 H   0  0  0  0  0  0  0  0  0  0  0  0
  -25.3950  -15.0320   20.1350 N   0  0  0  0  0  0  0  0  0  0  0  0
  -24.6400  -15.6710   20.3590 H   0  0  0  0  0  0  0  0  0  0  0  0
  -26.2000  -15.4930   19.7310 H   0  0  0  0  0  0  0  0  0  0  0  0
  2  5  2  0
  2  6  1  0
  3  7  1  0
  3  1  2  0
  4  1  1  0
  4  8  1  0
  5  3  1  0
  6  4  2  0
  9  5  1  0
 10 14  1  0
 10 12  1  0
 11 13  1  0
 11 14  1  0
 14  9  1  0
 15 16  1  0
 15 13  1  0
 15 12  1  0
 16 18  1  0
 17 28  2  0
 18 23  1  0
 19 27  1  0
 19 29  1  0
 20 26  1  0
 20 22  1  0
 21 27  1  0
 22 21  1  0
 23 22  2  0
 24 25  1  0
 24 18  2  0
 25 20  2  0
 26 19  1  0
 27 17  1  0
 29 31  2  0
 30 29  1  0
 32 30  1  0
 33 42  2  0
 33 38  1  0
 34 30  1  0
 34 38  1  0
 35 34  1  0
 36 37  1  0
 36 35  1  0
 37 33  1  0
 38 39  2  0
 39 40  1  0
 41 40  2  0
 42 41  1  0
 43 17  1  0
 43 48  1  0
 43 44  1  0
 44 47  1  1
 44 45  1  0
 46 44  1  0
 48 51  1  0
 49 48  1  0
 49 53  1  0
 50 49  2  0
 53 52  1  0
 53 55  1  0
 55 56  1  0
 55 54  1  0
 57  6  1  0
 58 67  1  0
 58 57  1  0
 59 67  1  0
 60 65  1  0
 61 62  1  0
 61 60  1  0
 63 62  1  0
 63 72  1  0
 63 64  1  0
 65 59  1  0
 65 64  1  0
 66 59  2  0
 67 68  1  0
 69 70  2  0
 70 89  1  0
 71 70  1  0
 71 74  1  0
 72 73  1  0
 72 69  1  0
 73 71  2  0
 74 75  1  0
 75 76  2  0
 77 80  1  0
 77 76  1  0
 78 77  2  0
 79 78  1  0
 79 74  2  0
 80 81  1  0
 81 86  2  0
 81 82  1  0
 82 83  2  0
 83 84  1  0
 84 88  1  0
 85 84  2  0
 86 85  1  0
 87 86  1  0
 89 90  1  0
 90 93  1  0
 90 92  1  0
 91 89  2  0
 94 69  1  0
 94 95  1  0
 96 94  1  0
M  ISO  4  15 101  16 101  59 100  67 100
M  END
>  <TORSDO>  (4) 
F 20

>  <SCORE>  (4) 
-9.574

>  <name>  (4) 
3

>  <ligand_id>  (4) 
3

>  <original_smiles>  (4) 
[H]c1c([H])c([H])c2c(c1[H])C([H])([H])C([H])([H])C([H])([H])C2([H])N([H])C(=O)C1([H])N(C(=O)C([H])(N([H])C(=O)C([H])(N([H])C([H])([H])[H])C([H])([H])[H])C(C([H])([H])[H])(C([H])([H])[H])C([H])([H])[H])C([H])([H])c2c([H])c(OC3([H])C([H])([H])C([H])([H])C([H])(C([H])([H])c4c([H])c(C([H])([H])C([H])([H])N([H])C(=O)N5C([H])([H])C([H])([H])C([H])([H])C([H])(n6nc(-c7c([H])c([H])c(Oc8c([H])c([H])c(F)c([H])c8F)c([H])c7[H])c(C(=O)N([H])[H])c6N([H])[H])C5([H])[H])c(C([H])([H])[H])c([H])c4C([H])([H])[H])C([H])([H])C3([H])[H])c([H])c([H])c2C1([H])[H]

>  <smiles>  (4) 
[H]c1c([H])c([H])c2c(c1[H])C([H])([H])C([H])([H])C([H])([H])C2([H])N([H])C(=O)C1([H])N(C(=O)C([H])(N([H])C(=O)C([H])(N([H])C([H])([H])[H])C([H])([H])[H])C(C([H])([H])[H])(C([H])([H])[H])C([H])([H])[H])C([H])([H])c2c([H])c(OC3([H])C([H])([H])C([H])([H])C([H])(C([H])([H])c4c([H])c(C([H])([H])C([H])([H])N([H])C(=O)N5C([H])([H])C([H])([H])C([H])([H])C([H])(n6nc(-c7c([H])c([H])c(Oc8c([H])c([H])c(F)c([H])c8F)c([H])c7[H])c(C(=O)N([H])[H])c6N([H])[H])C5([H])[H])c(C([H])([H])[H])c([H])c4C([H])([H])[H])C([H])([H])C3([H])[H])c([H])c([H])c2C1([H])[H]

$$$$
4:0:0
     RDKit          3D

 93102  0  0  1  0  0  0  0  0999 V2000
  -28.6020  -21.8480   21.2440 C   0  0  0  0  0  3  0  0  0  0  0  0
  -28.8440  -21.7350   19.8650 C   0  0  0  0  0  0  0  0  0  0  0  0
  -28.6370  -23.1540   19.2220 C   0  0  0  0  0  0  0  0  0  0  0  0
  -28.0100  -24.3110   21.2760 C   0  0  0  0  0  0  0  0  0  0  0  0
  -28.1950  -23.0380   21.9070 C   0  0  0  0  0  0  0  0  0  0  0  0
  -28.2080  -24.5140   19.8790 C   0  0  0  0  0  0  0  0  0  0  0  0
  -28.9000  -23.2520   17.7330 C   0  0  0  0  0  1  0  0  0  0  0  0
  -27.6050  -25.5040   22.1400 C   0  0  0  0  0  1  0  0  0  0  0  0
  -30.4840  -15.6520   19.6640 C   0  0  0  0  0  0  0  0  0  0  0  0
  -30.4460  -13.1560   18.8890 C   0  0  0  0  0  2  0  0  0  0  0  0
  -29.4450  -12.8180   17.7540 C   0  0  0  0  0  2  0  0  0  0  0  0
  -28.0460  -12.5260   18.3250 C   0  0  0  0  0  2  0  0  0  0  0  0
  -27.6430  -13.5540   19.4110 C   0  0  0  0  0  3  0  0  0  0  0  0
  -28.7660  -13.8210   20.4340 C   0  0  0  0  0  2  0  0  0  0  0  0
  -29.9130  -14.3380   19.6660 N   0  0  0  0  0  0  0  0  0  0  0  0
  -31.7190  -15.6040   19.5250 O   0  0  0  0  0  0  0  0  0  0  0  0
  -29.5080  -18.3000   17.4080 C   0  0  0  0  0  2  0  0  0  0  0  0
  -29.4220  -19.8080   17.8620 C   0  0  0  0  0  2  0  0  0  0  0  0
  -28.9360  -17.1740   18.3450 C   0  0  0  0  0  2  0  0  0  0  0  0
  -29.8240  -18.5530   20.1080 C   0  0  0  0  0  2  0  0  0  0  0  0
  -29.1070  -20.0320   19.3530 C   0  0  0  0  0  3  0  0  0  0  0  0
  -29.7330  -16.9690   19.5690 N   0  0  0  0  0  0  0  0  0  0  0  0
  -25.3700  -14.1260   20.3990 C   0  0  0  0  0  0  0  0  0  0  0  0
  -24.3260  -13.3580   20.8320 C   0  0  0  0  0  0  0  0  0  0  0  0
  -24.7600  -12.0010   20.7170 C   0  0  0  0  0  0  0  0  0  0  0  0
  -26.3670  -13.2390   20.0360 N   0  0  0  0  0  0  0  0  0  0  0  0
  -26.0190  -11.9520   20.2960 N   0  0  0  0  0  0  0  0  0  0  0  0
  -24.0230  -10.7480   20.9270 C   0  0  0  0  0  0  0  0  0  0  0  0
  -24.4650   -9.7720   21.8470 C   0  0  0  0  0  3  0  0  0  0  0  0
  -23.7250   -8.5870   22.0450 C   0  0  0  0  0  3  0  0  0  0  0  0
  -22.5260   -8.3670   21.3240 C   0  0  0  0  0  0  0  0  0  0  0  0
  -22.1020   -9.3330   20.3940 C   0  0  0  0  0  3  0  0  0  0  0  0
  -22.8430  -10.5100   20.1930 C   0  0  0  0  0  3  0  0  0  0  0  0
  -21.7540   -7.2360   21.4360 O   0  0  0  0  0  0  0  0  0  0  0  0
  -21.6780   -6.5270   22.6080 C   0  0  0  0  0  0  0  0  0  0  0  0
  -21.1770   -7.1040   23.7960 C   0  0  0  0  0  3  0  0  0  0  0  0
  -21.0530   -6.3220   24.9610 C   0  0  0  0  0  3  0  0  0  0  0  0
  -21.4190   -4.9620   24.9400 C   0  0  0  0  0  0  0  0  0  0  0  0
  -21.9130   -4.3850   23.7570 C   0  0  0  0  0  3  0  0  0  0  0  0
  -22.0400   -5.1660   22.5950 C   0  0  0  0  0  0  0  0  0  0  0  0
  -22.4970   -4.6000   21.4520 F   0  0  0  0  0  0  0  0  0  0  0  0
  -21.2920   -4.2080   26.0560 F   0  0  0  0  0  0  0  0  0  0  0  0
  -22.9670  -13.8530   21.2330 C   0  0  0  0  0  0  0  0  0  0  0  0
  -22.2990  -13.1470   22.1360 N   0  0  0  0  0  0  0  0  0  0  0  0
  -22.5120  -14.9030   20.7790 O   0  0  0  0  0  0  0  0  0  0  0  0
  -22.6790  -12.2970   22.5230 H   0  0  0  0  0  0  0  0  0  0  0  0
  -21.3920  -13.4610   22.4520 H   0  0  0  0  0  0  0  0  0  0  0  0
  -25.5540  -15.5000   20.2570 N   0  0  0  0  0  0  0  0  0  0  0  0
  -24.8160  -16.1670   20.4510 H   0  0  0  0  0  0  0  0  0  0  0  0
  -26.4020  -15.9330   19.9170 H   0  0  0  0  0  0  0  0  0  0  0  0
  -27.9570  -22.9090   23.2450 O   0  0  0  0  0  0  0  0  0  0  0  0
  -27.5520  -23.6840   23.6230 H   0  0  0  0  0  0  0  0  0  0  0  0
  -28.1130  -25.9930   19.3830 O   0  0  0  0  0  0  0  0  0  0  0  0
  -24.6600  -31.8010   22.9690 C   0  0  0  0  0  0  0  0  0  0  0  0
  -27.0840  -27.0870   19.5470 C   0  0  0  0  0  0  0  0  0  0  0  0
  -23.3850  -30.4720   21.3370 C   0  0  0  0  0  3  0  0  0  0  0  0
  -24.7620  -28.9570   19.7480 C   0  0  0  0  0  0  0  0  0  0  0  0
  -25.9360  -30.7190   21.0460 C   0  0  0  0  0  2  0  0  0  0  0  0
  -25.9840  -29.3380   20.3190 C   0  0  0  0  0  0  0  0  0  0  0  0
  -27.1350  -28.4270   20.1950 C   0  0  0  0  0  3  0  0  0  0  0  0
  -25.8280  -26.8770   18.9350 C   0  0  0  0  0  3  0  0  0  0  0  0
  -24.7090  -27.7490   19.0360 C   0  0  0  0  0  3  0  0  0  0  0  0
  -23.5370  -29.8570   19.9190 C   0  0  0  0  0  2  0  0  0  0  0  0
  -24.6850  -31.0260   21.8360 N   0  0  0  0  0  0  0  0  0  0  0  0
  -23.6030  -32.0440   23.5730 O   0  0  0  0  0  0  0  0  0  0  0  0
  -22.7630  -29.4210   22.2950 C   0  0  0  0  0  0  0  0  0  0  0  0
  -21.4340  -29.2080   22.2150 N   0  0  0  0  0  0  0  0  0  0  0  0
  -23.4830  -28.7950   23.0760 O   0  0  0  0  0  0  0  0  0  0  0  0
  -20.9020  -29.7670   21.5620 H   0  0  0  0  0  0  0  0  0  0  0  0
  -18.1240  -27.8420   22.8120 C   0  0  0  0  0  0  0  0  0  0  0  0
  -20.6810  -28.2090   22.9810 C   0  0  0  0  0  3  0  0  0  0  0  0
  -20.8170  -26.8040   22.3480 C   0  0  0  0  0  2  0  0  0  0  0  0
  -19.6880  -26.4720   21.3660 C   0  0  0  0  0  2  0  0  0  0  0  0
  -18.3290  -26.5310   22.0700 C   0  0  0  0  0  2  0  0  0  0  0  0
  -19.2270  -28.6370   23.2240 C   0  0  0  0  0  0  0  0  0  0  0  0
  -18.9790  -29.8610   23.8810 C   0  0  0  0  0  3  0  0  0  0  0  0
  -17.6610  -30.2930   24.1270 C   0  0  0  0  0  3  0  0  0  0  0  0
  -16.5740  -29.4950   23.7270 C   0  0  0  0  0  3  0  0  0  0  0  0
  -16.8050  -28.2720   23.0740 C   0  0  0  0  0  3  0  0  0  0  0  0
  -25.9590  -32.4360   23.5540 C   0  0  0  0  0  3  0  0  0  0  0  0
  -25.6340  -33.7980   24.0120 N   0  0  0  0  0  0  0  0  0  0  0  0
  -25.9040  -34.9220   23.3350 C   0  0  0  0  0  0  0  0  0  0  0  0
  -26.5150  -34.9220   22.2630 O   0  0  0  0  0  0  0  0  0  0  0  0
  -25.0830  -33.8680   24.8550 H   0  0  0  0  0  0  0  0  0  0  0  0
  -24.1320  -36.7110   23.2420 C   0  0  0  0  0  1  0  0  0  0  0  0
  -25.4250  -36.2580   23.9410 C   0  0  0  0  0  3  0  0  0  0  0  0
  -27.5820  -37.1250   24.7350 C   0  0  0  0  0  1  0  0  0  0  0  0
  -26.4330  -37.3390   23.8600 N   0  0  0  0  0  0  0  0  0  0  0  0
  -26.0170  -38.2370   24.0950 H   0  0  0  0  0  0  0  0  0  0  0  0
  -26.5730  -31.5980   24.7440 C   0  0  1  0  0  0  0  0  0  0  0  0
  -25.5590  -31.2720   25.8660 C   0  0  0  0  0  1  0  0  0  0  0  0
  -27.1560  -30.2580   24.2400 C   0  0  0  0  0  1  0  0  0  0  0  0
  -27.7500  -32.3760   25.3810 C   0  0  0  0  0  1  0  0  0  0  0  0
  1  5  1  0
  2  1  2  0
  3  2  1  0
  3  6  2  0
  4  5  2  0
  4  8  1  0
  5 51  1  0
  6  4  1  0
  7  3  1  0
  9 15  1  0
 10 15  1  0
 11 12  1  0
 11 10  1  0
 13 12  1  0
 13 26  1  0
 13 14  1  0
 15 14  1  0
 16  9  2  0
 17 18  1  0
 17 19  1  0
 18 21  1  0
 19 22  1  0
 21  2  1  0
 21 20  1  0
 22  9  1  0
 22 20  1  0
 23 24  2  0
 24 43  1  0
 25 24  1  0
 25 28  1  0
 26 27  1  0
 26 23  1  0
 27 25  2  0
 28 29  1  0
 29 30  2  0
 31 34  1  0
 31 30  1  0
 32 31  2  0
 33 32  1  0
 33 28  2  0
 34 35  1  0
 35 36  1  0
 36 37  2  0
 38 37  1  0
 38 42  1  0
 39 38  2  0
 40 35  2  0
 40 39  1  0
 41 40  1  0
 43 44  1  0
 44 47  1  0
 44 46  1  0
 45 43  2  0
 48 23  1  0
 48 49  1  0
 50 48  1  0
 51 52  1  0
 53 55  1  0
 53  6  1  0
 54 65  2  0
 55 60  1  0
 56 64  1  0
 56 66  1  0
 57 63  1  0
 57 59  1  0
 58 64  1  0
 59 58  1  0
 60 59  2  0
 61 62  1  0
 61 55  2  0
 62 57  2  0
 63 56  1  0
 64 54  1  0
 66 68  2  0
 67 66  1  0
 69 67  1  0
 70 79  2  0
 70 75  1  0
 71 67  1  0
 71 75  1  0
 72 71  1  0
 73 74  1  0
 73 72  1  0
 74 70  1  0
 75 76  2  0
 76 77  1  0
 78 77  2  0
 79 78  1  0
 80 54  1  0
 80 81  1  0
 80 90  1  0
 81 84  1  0
 82 86  1  0
 82 81  1  0
 83 82  2  0
 86 85  1  0
 88 86  1  0
 88 89  1  0
 88 87  1  0
 90 93  1  1
 90 91  1  0
 92 90  1  0
M  ISO  4   6 101   9 100  22 100  53 101
M  END
>  <TORSDO>  (5) 
F 17

>  <SCORE>  (5) 
-13.795

>  <name>  (5) 
4

>  <ligand_id>  (5) 
4

>  <original_smiles>  (5) 
[H]Oc1c([H])c(C2([H])C([H])([H])N(C(=O)N3C([H])([H])C([H])([H])C([H])([H])C([H])(n4nc(-c5c([H])c([H])c(Oc6c([H])c([H])c(F)c([H])c6F)c([H])c5[H])c(C(=O)N([H])[H])c4N([H])[H])C3([H])[H])C([H])([H])C([H])([H])C2([H])[H])c(C([H])([H])[H])c(Oc2c([H])c([H])c3c(c2[H])C([H])([H])N(C(=O)C([H])(N([H])C(=O)C([H])(N([H])C([H])([H])[H])C([H])([H])[H])C(C([H])([H])[H])(C([H])([H])[H])C([H])([H])[H])C([H])(C(=O)N([H])C2([H])c4c([H])c([H])c([H])c([H])c4C([H])([H])C([H])([H])C2([H])[H])C3([H])[H])c1C([H])([H])[H]

>  <smiles>  (5) 
[H]Oc1c([H])c(C2([H])C([H])([H])N(C(=O)N3C([H])([H])C([H])([H])C([H])([H])C([H])(n4nc(-c5c([H])c([H])c(Oc6c([H])c([H])c(F)c([H])c6F)c([H])c5[H])c(C(=O)N([H])[H])c4N([H])[H])C3([H])[H])C([H])([H])C([H])([H])C2([H])[H])c(C([H])([H])[H])c(Oc2c([H])c([H])c3c(c2[H])C([H])([H])N(C(=O)C([H])(N([H])C(=O)C([H])(N([H])C([H])([H])[H])C([H])([H])[H])C(C([H])([H])[H])(C([H])([H])[H])C([H])([H])[H])C([H])(C(=O)N([H])C2([H])c4c([H])c([H])c([H])c([H])c4C([H])([H])C([H])([H])C2([H])[H])C3([H])[H])c1C([H])([H])[H]

$$$$
5:0:0
     RDKit          3D

 93 99  0  0  1  0  0  0  0  0999 V2000
  -29.9780  -21.7160   21.1800 C   0  0  0  0  0  0  0  0  0  0  0  0
  -29.5660  -21.5830   19.8540 C   0  0  0  0  0  2  0  0  0  0  0  0
  -28.9940  -22.1460   22.1070 C   0  0  0  0  0  0  0  0  0  0  0  0
  -27.7130  -22.5580   21.6280 C   0  0  0  0  0  0  0  0  0  0  0  0
  -27.5570  -23.0250   20.2900 C   0  0  0  0  0  0  0  0  0  0  0  0
  -28.7060  -23.2260   19.4980 C   0  0  0  0  0  2  0  0  0  0  0  0
  -32.4430  -20.1960   19.3770 C   0  0  0  0  0  0  0  0  0  0  0  0
  -31.3220  -21.1190   21.5830 C   0  0  0  0  0  2  0  0  0  0  0  0
  -32.3820  -21.2820   20.4670 C   0  0  0  0  0  2  0  0  0  0  0  0
  -31.1890  -19.7440   18.5950 C   0  0  0  0  0  2  0  0  0  0  0  0
  -29.9650  -19.4250   19.4830 C   0  0  0  0  0  2  0  0  0  0  0  0
  -29.2640  -21.9880   23.6020 C   0  0  0  0  0  1  0  0  0  0  0  0
  -26.5250  -22.5740   22.5890 C   0  0  0  0  0  1  0  0  0  0  0  0
  -26.2220  -23.5500   19.7920 C   0  0  0  0  0  1  0  0  0  0  0  0
  -28.7440  -19.0600   18.6250 C   0  0  0  0  0  1  0  0  0  0  0  0
  -33.5460  -19.7450   19.0600 O   0  0  0  0  0  0  0  0  0  0  0  0
  -30.7520  -17.3460   19.9130 C   0  0  0  0  0  2  0  0  0  0  0  0
  -31.2750  -14.5220   19.3980 C   0  0  0  0  0  2  0  0  0  0  0  0
  -30.5760  -13.5700   18.3370 C   0  0  0  0  0  2  0  0  0  0  0  0
  -29.2690  -12.9660   18.8540 C   0  0  0  0  0  2  0  0  0  0  0  0
  -28.5510  -14.0260   19.6980 C   0  0  0  0  0  3  0  0  0  0  0  0
  -29.4440  -14.8750   20.6830 C   0  0  0  0  0  2  0  0  0  0  0  0
  -30.4220  -15.7810   19.9260 N   0  0  0  0  0  0  0  0  0  0  0  0
  -32.0040  -17.1270   19.9570 O   0  0  0  0  0  1  0  0  0  0  0  0
  -26.2230  -14.4030   20.5730 C   0  0  0  0  0  0  0  0  0  0  0  0
  -25.1850  -13.5870   20.9110 C   0  0  0  0  0  0  0  0  0  0  0  0
  -25.6660  -12.2460   20.7760 C   0  0  0  0  0  0  0  0  0  0  0  0
  -27.2770  -13.5750   20.2520 N   0  0  0  0  0  0  0  0  0  0  0  0
  -26.9570  -12.2570   20.4240 N   0  0  0  0  0  0  0  0  0  0  0  0
  -24.9410  -10.9690   20.9070 C   0  0  0  0  0  0  0  0  0  0  0  0
  -25.2840  -10.0140   21.8910 C   0  0  0  0  0  3  0  0  0  0  0  0
  -24.5520   -8.8120   22.0140 C   0  0  0  0  0  3  0  0  0  0  0  0
  -23.4570   -8.5530   21.1530 C   0  0  0  0  0  0  0  0  0  0  0  0
  -23.1300   -9.4980   20.1630 C   0  0  0  0  0  3  0  0  0  0  0  0
  -23.8630  -10.6900   20.0400 C   0  0  0  0  0  3  0  0  0  0  0  0
  -22.7090   -7.4000   21.1790 O   0  0  0  0  0  0  0  0  0  0  0  0
  -22.3950   -6.7680   22.3560 C   0  0  0  0  0  0  0  0  0  0  0  0
  -21.6810   -7.4220   23.3840 C   0  0  0  0  0  3  0  0  0  0  0  0
  -21.3220   -6.7190   24.5510 C   0  0  0  0  0  3  0  0  0  0  0  0
  -21.6610   -5.3590   24.6880 C   0  0  0  0  0  0  0  0  0  0  0  0
  -22.3630   -4.7020   23.6610 C   0  0  0  0  0  3  0  0  0  0  0  0
  -22.7250   -5.4040   22.4980 C   0  0  0  0  0  0  0  0  0  0  0  0
  -23.3840   -4.7610   21.5030 F   0  0  0  0  0  0  0  0  0  0  0  0
  -21.3100   -4.6800   25.8050 F   0  0  0  0  0  0  0  0  0  0  0  0
  -23.7910  -14.0350   21.2390 C   0  0  0  0  0  0  0  0  0  0  0  0
  -23.0890  -13.2930   22.0830 N   0  0  0  0  0  0  0  0  0  0  0  0
  -23.3400  -15.0870   20.7850 O   0  0  0  0  0  0  0  0  0  0  0  0
  -23.4640  -12.4380   22.4680 H   0  0  0  0  0  0  0  0  0  0  0  0
  -22.1560  -13.5810   22.3470 H   0  0  0  0  0  0  0  0  0  0  0  0
  -26.3590  -15.7850   20.4680 N   0  0  0  0  0  0  0  0  0  0  0  0
  -25.5790  -16.4160   20.6220 H   0  0  0  0  0  0  0  0  0  0  0  0
  -27.1900  -16.2530   20.1300 H   0  0  0  0  0  0  0  0  0  0  0  0
  -28.6540  -25.0990   19.3960 O   0  0  0  0  0  1  0  0  0  0  0  0
  -25.1870  -31.9450   22.9800 C   0  0  0  0  0  0  0  0  0  0  0  0
  -27.7260  -26.5940   19.5450 C   0  0  0  0  0  0  0  0  0  0  0  0
  -24.0150  -30.6390   21.2650 C   0  0  0  0  0  3  0  0  0  0  0  0
  -25.4740  -29.0050   19.7240 C   0  0  0  0  0  0  0  0  0  0  0  0
  -26.6150  -30.6380   21.1750 C   0  0  0  0  0  2  0  0  0  0  0  0
  -26.6830  -29.1920   20.4010 C   0  0  0  0  0  0  0  0  0  0  0  0
  -27.7480  -28.0400   20.2770 C   0  0  0  0  0  3  0  0  0  0  0  0
  -26.4920  -26.8290   18.8100 C   0  0  0  0  0  3  0  0  0  0  0  0
  -25.4590  -27.8600   18.8990 C   0  0  0  0  0  3  0  0  0  0  0  0
  -24.2710  -29.9980   19.8590 C   0  0  0  0  0  2  0  0  0  0  0  0
  -25.3050  -31.1210   21.8610 N   0  0  0  0  0  0  0  0  0  0  0  0
  -24.0850  -32.2180   23.5000 O   0  0  0  0  0  0  0  0  0  0  0  0
  -23.2730  -29.6390   22.1950 C   0  0  0  0  0  0  0  0  0  0  0  0
  -21.9400  -29.4730   22.0590 N   0  0  0  0  0  0  0  0  0  0  0  0
  -23.9220  -28.9970   23.0230 O   0  0  0  0  0  0  0  0  0  0  0  0
  -21.4550  -30.0350   21.3730 H   0  0  0  0  0  0  0  0  0  0  0  0
  -18.5730  -28.1680   22.5790 C   0  0  0  0  0  0  0  0  0  0  0  0
  -21.1390  -28.4670   22.7740 C   0  0  0  0  0  3  0  0  0  0  0  0
  -21.2380  -27.0890   22.0750 C   0  0  0  0  0  2  0  0  0  0  0  0
  -20.1120  -26.8440   21.0660 C   0  0  0  0  0  2  0  0  0  0  0  0
  -18.7500  -26.8960   21.7640 C   0  0  0  0  0  2  0  0  0  0  0  0
  -19.6930  -28.9140   23.0360 C   0  0  0  0  0  0  0  0  0  0  0  0
  -19.4680  -30.1000   23.7680 C   0  0  0  0  0  3  0  0  0  0  0  0
  -18.1600  -30.5440   24.0390 C   0  0  0  0  0  3  0  0  0  0  0  0
  -17.0570  -29.7980   23.5930 C   0  0  0  0  0  3  0  0  0  0  0  0
  -17.2640  -28.6090   22.8690 C   0  0  0  0  0  3  0  0  0  0  0  0
  -26.4210  -32.6000   23.6760 C   0  0  0  0  0  3  0  0  0  0  0  0
  -26.0460  -33.9450   24.1790 N   0  0  0  0  0  0  0  0  0  0  0  0
  -26.3070  -35.1130   23.5720 C   0  0  0  0  0  0  0  0  0  0  0  0
  -26.9310  -35.1780   22.5120 O   0  0  0  0  0  0  0  0  0  0  0  0
  -25.4700  -33.9600   25.0080 H   0  0  0  0  0  0  0  0  0  0  0  0
  -24.4850  -36.8640   23.5850 C   0  0  0  0  0  1  0  0  0  0  0  0
  -25.8030  -36.4170   24.2380 C   0  0  0  0  0  3  0  0  0  0  0  0
  -27.9470  -37.3290   25.0250 C   0  0  0  0  0  1  0  0  0  0  0  0
  -26.7760  -37.5310   24.1760 N   0  0  0  0  0  0  0  0  0  0  0  0
  -26.3370  -38.4080   24.4430 H   0  0  0  0  0  0  0  0  0  0  0  0
  -26.9730  -31.7390   24.8820 C   0  0  1  0  0  0  0  0  0  0  0  0
  -25.8950  -31.3620   25.9260 C   0  0  0  0  0  1  0  0  0  0  0  0
  -27.6030  -30.4200   24.3890 C   0  0  0  0  0  1  0  0  0  0  0  0
  -28.1080  -32.5060   25.6050 C   0  0  0  0  0  1  0  0  0  0  0  0
  1  8  1  0
  1  3  2  0
  2  1  1  0
  3 12  1  0
  4  3  1  0
  4 13  1  0
  5  4  2  0
  6  2  1  0
  6  5  1  0
  7  9  1  0
  9  8  1  0
 10  7  1  0
 10 11  1  0
 14  5  1  0
 15 11  1  0
 16  7  2  0
 17 23  1  0
 17 24  1  0
 18 23  1  0
 19 20  1  0
 19 18  1  0
 21 20  1  0
 21 28  1  0
 21 22  1  0
 23 22  1  0
 25 26  2  0
 26 45  1  0
 27 30  1  0
 27 26  1  0
 28 29  1  0
 28 25  1  0
 29 27  2  0
 30 31  1  0
 31 32  2  0
 33 36  1  0
 33 32  1  0
 34 33  2  0
 35 34  1  0
 35 30  2  0
 36 37  1  0
 37 42  2  0
 37 38  1  0
 38 39  2  0
 39 40  1  0
 40 44  1  0
 41 40  2  0
 42 41  1  0
 43 42  1  0
 45 46  1  0
 46 49  1  0
 46 48  1  0
 47 45  2  0
 50 25  1  0
 50 51  1  0
 52 50  1  0
 53 55  1  0
 54 65  2  0
 55 60  1  0
 56 64  1  0
 56 66  1  0
 57 63  1  0
 57 59  1  0
 58 64  1  0
 59 58  1  0
 60 59  2  0
 61 62  1  0
 61 55  2  0
 62 57  2  0
 63 56  1  0
 64 54  1  0
 66 68  2  0
 67 66  1  0
 69 67  1  0
 70 79  2  0
 70 75  1  0
 71 67  1  0
 71 75  1  0
 72 71  1  0
 73 74  1  0
 73 72  1  0
 74 70  1  0
 75 76  2  0
 76 77  1  0
 78 77  2  0
 79 78  1  0
 80 54  1  0
 80 81  1  0
 80 90  1  0
 81 84  1  0
 82 81  1  0
 82 86  1  0
 83 82  2  0
 86 85  1  0
 88 86  1  0
 88 89  1  0
 88 87  1  0
 90 93  1  1
 90 91  1  0
 92 90  1  0
M  ISO  4   6 101  11 100  17 100  53 101
M  END
>  <TORSDO>  (6) 
F 16

>  <SCORE>  (6) 
-11.230

>  <name>  (6) 
5

>  <ligand_id>  (6) 
5

>  <original_smiles>  (6) 
[H]c1c([H])c([H])c2c(c1[H])C([H])([H])C([H])([H])C([H])([H])C2([H])N([H])C(=O)C1([H])N(C(=O)C([H])(N([H])C(=O)C([H])(N([H])C([H])([H])[H])C([H])([H])[H])C(C([H])([H])[H])(C([H])([H])[H])C([H])([H])[H])C([H])([H])c2c([H])c(Oc3c(C([H])([H])[H])c(C([H])([H])[H])c(C([H])([H])[H])c4c3C(C(=O)N3C([H])([H])C([H])([H])C([H])([H])C([H])(n5nc(-c6c([H])c([H])c(Oc7c([H])c([H])c(F)c([H])c7F)c([H])c6[H])c(C(=O)N([H])[H])c5N([H])[H])C3([H])[H])(C([H])([H])[H])C([H])([H])C(=O)C([H])([H])C4([H])[H])c([H])c([H])c2C1([H])[H]

>  <smiles>  (6) 
[H]c1c([H])c([H])c2c(c1[H])C([H])([H])C([H])([H])C([H])([H])C2([H])N([H])C(=O)C1([H])N(C(=O)C([H])(N([H])C(=O)C([H])(N([H])C([H])([H])[H])C([H])([H])[H])C(C([H])([H])[H])(C([H])([H])[H])C([H])([H])[H])C([H])([H])c2c([H])c(Oc3c(C([H])([H])[H])c(C([H])([H])[H])c(C([H])([H])[H])c4c3C(C(=O)N3C([H])([H])C([H])([H])C([H])([H])C([H])(n5nc(-c6c([H])c([H])c(Oc7c([H])c([H])c(F)c([H])c7F)c([H])c6[H])c(C(=O)N([H])[H])c5N([H])[H])C3([H])[H])(C([H])([H])[H])C([H])([H])C(=O)C([H])([H])C4([H])[H])c([H])c([H])c2C1([H])[H]

$$$$
6:0:0
     RDKit          3D

 99108  0  0  1  0  0  0  0  0999 V2000
  -27.3810  -21.3470   20.7680 C   0  0  0  0  0  3  0  0  0  0  0  0
  -28.4280  -20.4820   20.4340 C   0  0  0  0  0  3  0  0  0  0  0  0
  -27.1770  -22.6220   20.1800 C   0  0  0  0  0  0  0  0  0  0  0  0
  -28.1660  -23.1060   19.2470 C   0  0  0  0  0  0  0  0  0  0  0  0
  -29.3920  -20.8330   19.4830 C   0  0  0  0  0  0  0  0  0  0  0  0
  -29.2610  -22.1750   18.9090 C   0  0  0  0  0  0  0  0  0  0  0  0
  -27.9780  -24.5330   18.5290 C   0  0  0  0  0  2  0  0  0  0  0  0
  -26.9340  -25.6800   20.6120 C   0  0  0  0  0  2  0  0  0  0  0  0
  -25.7050  -24.8370   20.2840 C   0  0  0  0  0  2  0  0  0  0  0  0
  -27.7770  -25.8960   19.3580 C   0  0  0  0  0  3  0  0  0  0  0  0
  -25.8290  -23.3180   20.5960 C   0  0  1  0  0  0  0  0  0  0  0  0
  -24.8300  -21.4550   18.9160 C   0  0  0  0  0  1  0  0  0  0  0  0
  -24.6220  -22.6970   19.8050 C   0  0  0  0  0  2  0  0  0  0  0  0
  -24.2510  -23.3040   22.7850 C   0  0  0  0  0  1  0  0  0  0  0  0
  -25.6640  -23.2390   22.1690 C   0  0  0  0  0  2  0  0  0  0  0  0
  -27.5190  -27.2300   18.7130 O   0  0  0  0  0  0  0  0  0  0  0  0
  -25.0710  -31.8680   23.7030 C   0  0  0  0  0  0  0  0  0  0  0  0
  -26.5290  -28.1350   19.1340 C   0  0  0  0  0  0  0  0  0  0  0  0
  -23.4600  -31.1500   21.9730 C   0  0  0  0  0  3  0  0  0  0  0  0
  -24.4540  -29.9330   19.9520 C   0  0  0  0  0  0  0  0  0  0  0  0
  -25.9690  -31.2360   21.4480 C   0  0  0  0  0  2  0  0  0  0  0  0
  -25.7510  -30.1020   20.4530 C   0  0  0  0  0  0  0  0  0  0  0  0
  -26.7910  -29.2180   20.0330 C   0  0  0  0  0  3  0  0  0  0  0  0
  -25.2230  -28.0380   18.6150 C   0  0  0  0  0  3  0  0  0  0  0  0
  -24.1940  -28.9120   19.0230 C   0  0  0  0  0  3  0  0  0  0  0  0
  -23.3820  -30.8850   20.4450 C   0  0  0  0  0  2  0  0  0  0  0  0
  -24.8630  -31.4180   22.4310 N   0  0  0  0  0  0  0  0  0  0  0  0
  -24.1220  -32.0890   24.4700 O   0  0  0  0  0  0  0  0  0  0  0  0
  -22.7880  -29.9740   22.7220 C   0  0  0  0  0  0  0  0  0  0  0  0
  -21.5050  -29.7150   22.4180 N   0  0  0  0  0  0  0  0  0  0  0  0
  -23.4260  -29.3020   23.5370 O   0  0  0  0  0  0  0  0  0  0  0  0
  -21.0480  -30.3160   21.7470 H   0  0  0  0  0  0  0  0  0  0  0  0
  -18.2020  -28.2420   22.3920 C   0  0  0  0  0  0  0  0  0  0  0  0
  -20.6940  -28.6290   22.9680 C   0  0  0  0  0  3  0  0  0  0  0  0
  -20.9660  -27.2990   22.2280 C   0  0  0  0  0  2  0  0  0  0  0  0
  -19.9980  -27.0470   21.0680 C   0  0  0  0  0  2  0  0  0  0  0  0
  -18.5510  -27.0140   21.5690 C   0  0  0  0  0  2  0  0  0  0  0  0
  -19.2090  -29.0090   23.0360 C   0  0  0  0  0  0  0  0  0  0  0  0
  -18.8330  -30.1630   23.7590 C   0  0  0  0  0  3  0  0  0  0  0  0
  -17.4810  -30.5470   23.8460 C   0  0  0  0  0  3  0  0  0  0  0  0
  -16.4880  -29.7750   23.2180 C   0  0  0  0  0  3  0  0  0  0  0  0
  -16.8490  -28.6220   22.4970 C   0  0  0  0  0  3  0  0  0  0  0  0
  -26.5060  -32.1520   24.2460 C   0  0  0  0  0  3  0  0  0  0  0  0
  -26.5070  -33.5090   24.8110 N   0  0  0  0  0  0  0  0  0  0  0  0
  -26.9030  -34.6080   24.1540 C   0  0  0  0  0  0  0  0  0  0  0  0
  -27.3770  -34.5720   23.0140 O   0  0  0  0  0  0  0  0  0  0  0  0
  -26.0880  -33.6210   25.7230 H   0  0  0  0  0  0  0  0  0  0  0  0
  -25.4800  -36.6690   24.3810 C   0  0  0  0  0  1  0  0  0  0  0  0
  -26.7520  -35.9630   24.8740 C   0  0  0  0  0  3  0  0  0  0  0  0
  -29.1220  -36.3740   25.3700 C   0  0  0  0  0  1  0  0  0  0  0  0
  -27.9180  -36.8580   24.7000 N   0  0  0  0  0  0  0  0  0  0  0  0
  -27.7110  -37.7890   25.0520 H   0  0  0  0  0  0  0  0  0  0  0  0
  -26.9810  -31.1030   25.3250 C   0  0  1  0  0  0  0  0  0  0  0  0
  -25.9150  -30.7970   26.4020 C   0  0  0  0  0  1  0  0  0  0  0  0
  -27.3670  -29.7670   24.6530 C   0  0  0  0  0  1  0  0  0  0  0  0
  -28.2520  -31.6210   26.0390 C   0  0  0  0  0  1  0  0  0  0  0  0
  -30.3920  -19.6590   19.0540 C   0  0  0  0  0  2  0  0  0  0  0  0
  -31.1120  -18.6950   20.1360 C   0  0  0  0  0  2  0  0  0  0  0  0
  -31.8190  -16.1240   20.0470 C   0  0  0  0  0  0  0  0  0  0  0  0
  -31.8300  -13.7060   19.4120 C   0  0  0  0  0  2  0  0  0  0  0  0
  -30.9720  -13.5090   18.1420 C   0  0  0  0  0  2  0  0  0  0  0  0
  -29.4830  -13.3310   18.5050 C   0  0  0  0  0  2  0  0  0  0  0  0
  -28.9850  -14.3900   19.5260 C   0  0  0  0  0  3  0  0  0  0  0  0
  -29.9640  -14.5330   20.7080 C   0  0  0  0  0  2  0  0  0  0  0  0
  -31.2800  -14.8650   20.1440 N   0  0  0  0  0  0  0  0  0  0  0  0
  -33.0160  -16.2800   19.7890 O   0  0  0  0  0  0  0  0  0  0  0  0
  -30.9320  -17.1830   20.0650 N   0  0  0  0  0  0  0  0  0  0  0  0
  -29.9760  -16.8870   20.1860 H   0  0  0  0  0  0  0  0  0  0  0  0
  -26.5730  -15.0040   20.1530 C   0  0  0  0  0  0  0  0  0  0  0  0
  -25.4950  -14.2390   20.5080 C   0  0  0  0  0  0  0  0  0  0  0  0
  -25.9580  -12.8890   20.5280 C   0  0  0  0  0  0  0  0  0  0  0  0
  -27.6220  -14.1170   19.9750 N   0  0  0  0  0  0  0  0  0  0  0  0
  -27.2580  -12.8430   20.2630 N   0  0  0  0  0  0  0  0  0  0  0  0
  -25.2270  -11.6310   20.7250 C   0  0  0  0  0  0  0  0  0  0  0  0
  -25.5380  -10.7520   21.7850 C   0  0  0  0  0  3  0  0  0  0  0  0
  -24.8080   -9.5580   21.9630 C   0  0  0  0  0  3  0  0  0  0  0  0
  -23.7500   -9.2330   21.0810 C   0  0  0  0  0  0  0  0  0  0  0  0
  -23.4580  -10.1020   20.0150 C   0  0  0  0  0  3  0  0  0  0  0  0
  -24.1910  -11.2870   19.8350 C   0  0  0  0  0  3  0  0  0  0  0  0
  -23.0020   -8.0840   21.1630 O   0  0  0  0  0  0  0  0  0  0  0  0
  -22.4690   -7.6560   22.3520 C   0  0  0  0  0  0  0  0  0  0  0  0
  -21.6090   -8.4720   23.1190 C   0  0  0  0  0  3  0  0  0  0  0  0
  -21.0270   -7.9670   24.2990 C   0  0  0  0  0  3  0  0  0  0  0  0
  -21.2930   -6.6460   24.7080 C   0  0  0  0  0  0  0  0  0  0  0  0
  -22.1450   -5.8300   23.9420 C   0  0  0  0  0  3  0  0  0  0  0  0
  -22.7280   -6.3330   22.7650 C   0  0  0  0  0  0  0  0  0  0  0  0
  -23.5300   -5.5360   22.0190 F   0  0  0  0  0  0  0  0  0  0  0  0
  -20.7290   -6.1580   25.8360 F   0  0  0  0  0  0  0  0  0  0  0  0
  -24.0890  -14.7230   20.7180 C   0  0  0  0  0  0  0  0  0  0  0  0
  -23.3490  -14.0840   21.6180 N   0  0  0  0  0  0  0  0  0  0  0  0
  -23.6540  -15.7050   20.1180 O   0  0  0  0  0  0  0  0  0  0  0  0
  -23.7130  -13.2920   22.1250 H   0  0  0  0  0  0  0  0  0  0  0  0
  -22.4040  -14.3910   21.8010 H   0  0  0  0  0  0  0  0  0  0  0  0
  -26.7440  -16.3680   19.9430 N   0  0  0  0  0  0  0  0  0  0  0  0
  -25.9680  -17.0210   19.9970 H   0  0  0  0  0  0  0  0  0  0  0  0
  -27.5910  -16.7950   19.5900 H   0  0  0  0  0  0  0  0  0  0  0  0
  -30.3220  -22.6160   17.9010 C   0  0  0  0  0  2  0  0  0  0  0  0
  -32.5710  -23.8300   17.6570 C   0  0  0  0  0  1  0  0  0  0  0  0
  -31.4490  -23.3900   18.6030 C   0  0  0  0  0  2  0  0  0  0  0  0
  2  1  1  0
  3 11  1  0
  3  1  2  0
  4  3  1  0
  5  2  2  0
  6  4  2  0
  6  5  1  0
  7  4  1  0
  7 10  1  0
  9 11  1  0
  9  8  1  0
 10 16  1  0
 10  8  1  0
 11 15  1  1
 12 13  1  0
 13 11  1  0
 15 14  1  0
 16 18  1  0
 17 28  2  0
 18 23  1  0
 19 27  1  0
 19 29  1  0
 20 26  1  0
 20 22  1  0
 21 27  1  0
 22 21  1  0
 23 22  2  0
 24 25  1  0
 24 18  2  0
 25 20  2  0
 26 19  1  0
 27 17  1  0
 29 31  2  0
 30 29  1  0
 32 30  1  0
 33 42  2  0
 33 38  1  0
 34 30  1  0
 34 38  1  0
 35 34  1  0
 36 37  1  0
 36 35  1  0
 37 33  1  0
 38 39  2  0
 39 40  1  0
 41 40  2  0
 42 41  1  0
 43 17  1  0
 43 44  1  0
 43 53  1  0
 44 47  1  0
 45 44  1  0
 45 49  1  0
 46 45  2  0
 49 48  1  0
 51 49  1  0
 51 52  1  0
 51 50  1  0
 53 56  1  1
 53 54  1  0
 55 53  1  0
 57  5  1  0
 57 58  1  0
 59 67  1  0
 59 65  1  0
 60 65  1  0
 61 62  1  0
 61 60  1  0
 63 62  1  0
 63 72  1  0
 63 64  1  0
 65 64  1  0
 66 59  2  0
 67 58  1  0
 67 68  1  0
 69 70  2  0
 70 71  1  0
 70 89  1  0
 71 74  1  0
 72 69  1  0
 72 73  1  0
 73 71  2  0
 74 75  1  0
 75 76  2  0
 77 80  1  0
 77 76  1  0
 78 77  2  0
 79 78  1  0
 79 74  2  0
 80 81  1  0
 81 86  2  0
 81 82  1  0
 82 83  2  0
 83 84  1  0
 84 88  1  0
 85 84  2  0
 86 85  1  0
 87 86  1  0
 89 90  1  0
 90 93  1  0
 90 92  1  0
 91 89  2  0
 94 95  1  0
 94 69  1  0
 96 94  1  0
 97 99  1  0
 97  6  1  0
 98 99  1  0
M  ISO  4  10 101  16 101  59 100  67 100
M  END
>  <TORSDO>  (7) 
F 22

>  <SCORE>  (7) 
-7.636

>  <name>  (7) 
6

>  <ligand_id>  (7) 
6

>  <original_smiles>  (7) 
[H]c1c([H])c([H])c2c(c1[H])C([H])([H])C([H])([H])C([H])([H])C2([H])N([H])C(=O)C1([H])N(C(=O)C([H])(N([H])C(=O)C([H])(N([H])C([H])([H])[H])C([H])([H])[H])C(C([H])([H])[H])(C([H])([H])[H])C([H])([H])[H])C([H])([H])c2c([H])c(OC3([H])C([H])([H])c4c(C([H])([H])C([H])([H])C([H])([H])[H])c(C([H])([H])C([H])([H])N([H])C(=O)N5C([H])([H])C([H])([H])C([H])([H])C([H])(n6nc(-c7c([H])c([H])c(Oc8c([H])c([H])c(F)c([H])c8F)c([H])c7[H])c(C(=O)N([H])[H])c6N([H])[H])C5([H])[H])c([H])c([H])c4C(C([H])([H])C([H])([H])[H])(C([H])([H])C([H])([H])[H])C([H])([H])C3([H])[H])c([H])c([H])c2C1([H])[H]

>  <smiles>  (7) 
[H]c1c([H])c([H])c2c(c1[H])C([H])([H])C([H])([H])C([H])([H])C2([H])N([H])C(=O)C1([H])N(C(=O)C([H])(N([H])C(=O)C([H])(N([H])C([H])([H])[H])C([H])([H])[H])C(C([H])([H])[H])(C([H])([H])[H])C([H])([H])[H])C([H])([H])c2c([H])c(OC3([H])C([H])([H])c4c(C([H])([H])C([H])([H])C([H])([H])[H])c(C([H])([H])C([H])([H])N([H])C(=O)N5C([H])([H])C([H])([H])C([H])([H])C([H])(n6nc(-c7c([H])c([H])c(Oc8c([H])c([H])c(F)c([H])c8F)c([H])c7[H])c(C(=O)N([H])[H])c6N([H])[H])C5([H])[H])c([H])c([H])c4C(C([H])([H])C([H])([H])[H])(C([H])([H])C([H])([H])[H])C([H])([H])C3([H])[H])c([H])c([H])c2C1([H])[H]

$$$$
7:0:0
     RDKit          3D

 91100  0  0  1  0  0  0  0  0999 V2000
  -30.5340  -15.4560   20.3250 C   0  0  0  0  0  0  0  0  0  0  0  0
  -30.4750  -12.9810   19.4850 C   0  0  0  0  0  2  0  0  0  0  0  0
  -29.6060  -12.6420   18.2520 C   0  0  0  0  0  2  0  0  0  0  0  0
  -28.1620  -12.3480   18.6870 C   0  0  0  0  0  2  0  0  0  0  0  0
  -27.6530  -13.3670   19.7380 C   0  0  0  0  0  3  0  0  0  0  0  0
  -28.6720  -13.6580   20.8630 C   0  0  0  0  0  2  0  0  0  0  0  0
  -29.8750  -14.1880   20.1890 N   0  0  0  0  0  0  0  0  0  0  0  0
  -31.7630  -15.2580   20.3020 O   0  0  0  0  0  0  0  0  0  0  0  0
  -30.6830  -20.1510   19.7750 C   0  0  0  0  0  3  0  0  0  0  0  0
  -29.3520  -19.8640   20.1150 C   0  0  0  0  0  0  0  0  0  0  0  0
  -31.1400  -21.5060   19.6020 C   0  0  0  0  0  0  0  0  0  0  0  0
  -28.4930  -21.1550   20.1860 C   0  0  0  0  0  0  0  0  0  0  0  0
  -30.2830  -22.6770   19.6160 C   0  0  0  0  0  0  0  0  0  0  0  0
  -28.8920  -22.6390   19.9400 C   0  0  0  0  0  0  0  0  0  0  0  0
  -31.6180  -18.9240   19.6200 C   0  0  0  0  0  3  0  0  0  0  0  0
  -29.0920  -18.1510   20.4070 C   0  0  0  0  0  3  0  0  0  0  0  0
  -30.9550  -17.6170   19.0490 C   0  0  0  0  0  3  0  0  0  0  0  0
  -32.6480  -21.7010   19.4170 C   0  0  0  0  0  1  0  0  0  0  0  0
  -27.0350  -20.9340   20.5330 C   0  0  0  0  0  1  0  0  0  0  0  0
  -30.8720  -24.0340   19.2350 C   0  0  0  0  0  1  0  0  0  0  0  0
  -30.0610  -16.8650   19.9750 N   0  0  0  0  0  0  0  0  0  0  0  0
  -25.2770  -13.9190   20.4560 C   0  0  0  0  0  0  0  0  0  0  0  0
  -24.2060  -13.1430   20.7980 C   0  0  0  0  0  0  0  0  0  0  0  0
  -24.6730  -11.7920   20.7790 C   0  0  0  0  0  0  0  0  0  0  0  0
  -26.3240  -13.0440   20.2340 N   0  0  0  0  0  0  0  0  0  0  0  0
  -25.9730  -11.7570   20.4990 N   0  0  0  0  0  0  0  0  0  0  0  0
  -23.9390  -10.5300   20.9490 C   0  0  0  0  0  0  0  0  0  0  0  0
  -24.3510   -9.5540   21.8820 C   0  0  0  0  0  3  0  0  0  0  0  0
  -23.6130   -8.3620   22.0460 C   0  0  0  0  0  3  0  0  0  0  0  0
  -22.4490   -8.1360   21.2730 C   0  0  0  0  0  0  0  0  0  0  0  0
  -22.0580   -9.1000   20.3270 C   0  0  0  0  0  3  0  0  0  0  0  0
  -22.7950  -10.2830   20.1630 C   0  0  0  0  0  3  0  0  0  0  0  0
  -21.6860   -6.9960   21.3420 O   0  0  0  0  0  0  0  0  0  0  0  0
  -21.6240   -6.2410   22.4860 C   0  0  0  0  0  0  0  0  0  0  0  0
  -21.1780   -6.7810   23.7120 C   0  0  0  0  0  3  0  0  0  0  0  0
  -21.0650   -5.9530   24.8460 C   0  0  0  0  0  3  0  0  0  0  0  0
  -21.3860   -4.5850   24.7560 C   0  0  0  0  0  0  0  0  0  0  0  0
  -21.8240   -4.0440   23.5340 C   0  0  0  0  0  3  0  0  0  0  0  0
  -21.9390   -4.8700   22.4020 C   0  0  0  0  0  0  0  0  0  0  0  0
  -22.3430   -4.3390   21.2230 F   0  0  0  0  0  0  0  0  0  0  0  0
  -21.2690   -3.7870   25.8440 F   0  0  0  0  0  0  0  0  0  0  0  0
  -22.8020  -13.6230   21.0240 C   0  0  0  0  0  0  0  0  0  0  0  0
  -22.0520  -12.9410   21.8810 N   0  0  0  0  0  0  0  0  0  0  0  0
  -22.3810  -14.6410   20.4750 O   0  0  0  0  0  0  0  0  0  0  0  0
  -22.4090  -12.1210   22.3500 H   0  0  0  0  0  0  0  0  0  0  0  0
  -21.1080  -13.2450   22.0740 H   0  0  0  0  0  0  0  0  0  0  0  0
  -25.4410  -15.2910   20.2820 N   0  0  0  0  0  0  0  0  0  0  0  0
  -24.6720  -15.9430   20.3910 H   0  0  0  0  0  0  0  0  0  0  0  0
  -26.2940  -15.7320   19.9650 H   0  0  0  0  0  0  0  0  0  0  0  0
  -27.9300  -24.1460   19.8950 C   0  0  0  0  0  2  0  0  0  0  0  0
  -28.2480  -25.7940   19.9990 O   0  0  0  0  0  0  0  0  0  0  0  0
  -24.7080  -31.7910   23.1160 C   0  0  0  0  0  0  0  0  0  0  0  0
  -27.2610  -26.9380   19.9780 C   0  0  0  0  0  0  0  0  0  0  0  0
  -23.5240  -30.4460   21.4320 C   0  0  0  0  0  3  0  0  0  0  0  0
  -24.9770  -28.8690   19.9760 C   0  0  0  0  0  0  0  0  0  0  0  0
  -26.0960  -30.6370   21.3130 C   0  0  0  0  0  2  0  0  0  0  0  0
  -26.1660  -29.2390   20.6160 C   0  0  0  0  0  0  0  0  0  0  0  0
  -27.3010  -28.2970   20.5920 C   0  0  0  0  0  3  0  0  0  0  0  0
  -26.0400  -26.7400   19.2940 C   0  0  0  0  0  3  0  0  0  0  0  0
  -24.9430  -27.6430   19.2930 C   0  0  0  0  0  3  0  0  0  0  0  0
  -23.7640  -29.7990   20.0400 C   0  0  0  0  0  2  0  0  0  0  0  0
  -24.7990  -30.9860   22.0070 N   0  0  0  0  0  0  0  0  0  0  0  0
  -23.6150  -32.0710   23.6370 O   0  0  0  0  0  0  0  0  0  0  0  0
  -22.8160  -29.4280   22.3660 C   0  0  0  0  0  0  0  0  0  0  0  0
  -21.4830  -29.2850   22.2410 N   0  0  0  0  0  0  0  0  0  0  0  0
  -23.4750  -28.7680   23.1720 O   0  0  0  0  0  0  0  0  0  0  0  0
  -21.0030  -29.8660   21.5670 H   0  0  0  0  0  0  0  0  0  0  0  0
  -18.0820  -28.1170   22.7480 C   0  0  0  0  0  0  0  0  0  0  0  0
  -20.6520  -28.3290   22.9820 C   0  0  0  0  0  3  0  0  0  0  0  0
  -20.7180  -26.9220   22.3450 C   0  0  0  0  0  2  0  0  0  0  0  0
  -19.5970  -26.6620   21.3340 C   0  0  0  0  0  2  0  0  0  0  0  0
  -18.2270  -26.7980   22.0060 C   0  0  0  0  0  2  0  0  0  0  0  0
  -19.2200  -28.8420   23.1920 C   0  0  0  0  0  0  0  0  0  0  0  0
  -19.0290  -30.0760   23.8520 C   0  0  0  0  0  3  0  0  0  0  0  0
  -17.7330  -30.5850   24.0660 C   0  0  0  0  0  3  0  0  0  0  0  0
  -16.6110  -29.8570   23.6360 C   0  0  0  0  0  3  0  0  0  0  0  0
  -16.7860  -28.6240   22.9810 C   0  0  0  0  0  3  0  0  0  0  0  0
  -25.9740  -32.4160   23.7770 C   0  0  0  0  0  3  0  0  0  0  0  0
  -25.6450  -33.7980   24.1730 N   0  0  0  0  0  0  0  0  0  0  0  0
  -25.9400  -34.8930   23.4610 C   0  0  0  0  0  0  0  0  0  0  0  0
  -26.5780  -34.8480   22.4060 O   0  0  0  0  0  0  0  0  0  0  0  0
  -25.0720  -33.9050   24.9960 H   0  0  0  0  0  0  0  0  0  0  0  0
  -24.1650  -36.6710   23.2740 C   0  0  0  0  0  1  0  0  0  0  0  0
  -25.4540  -36.2560   24.0010 C   0  0  0  0  0  3  0  0  0  0  0  0
  -27.6120  -37.1560   24.7560 C   0  0  0  0  0  1  0  0  0  0  0  0
  -26.4600  -37.3340   23.8760 N   0  0  0  0  0  0  0  0  0  0  0  0
  -26.0440  -38.2400   24.0770 H   0  0  0  0  0  0  0  0  0  0  0  0
  -26.4820  -31.6010   25.0320 C   0  0  1  0  0  0  0  0  0  0  0  0
  -25.3800  -31.3260   26.0840 C   0  0  0  0  0  1  0  0  0  0  0  0
  -27.0680  -30.2370   24.6040 C   0  0  0  0  0  1  0  0  0  0  0  0
  -27.6270  -32.3720   25.7280 C   0  0  0  0  0  1  0  0  0  0  0  0
  2  7  1  0
  3  4  1  0
  3  2  1  0
  5  4  1  0
  5 25  1  0
  5  6  1  0
  7  1  1  0
  7  6  1  0
  8  1  2  0
  9 15  1  0
  9 10  1  0
 10 12  1  0
 10 16  2  0
 11 13  2  0
 11  9  1  0
 12 19  1  0
 13 14  1  0
 14 12  2  0
 17 15  2  0
 17 21  1  0
 18 11  1  0
 20 13  1  0
 21  1  1  0
 21 16  1  0
 22 23  2  0
 23 42  1  0
 24 23  1  0
 24 27  1  0
 25 22  1  0
 25 26  1  0
 26 24  2  0
 27 28  1  0
 28 29  2  0
 30 33  1  0
 30 29  1  0
 31 30  2  0
 32 31  1  0
 32 27  2  0
 33 34  1  0
 34 35  1  0
 35 36  2  0
 37 36  1  0
 37 41  1  0
 38 37  2  0
 39 34  2  0
 39 38  1  0
 40 39  1  0
 42 43  1  0
 43 46  1  0
 43 45  1  0
 44 42  2  0
 47 48  1  0
 47 22  1  0
 49 47  1  0
 50 14  1  0
 50 51  1  0
 52 63  2  0
 53 51  1  0
 53 58  1  0
 54 62  1  0
 54 64  1  0
 55 61  1  0
 55 57  1  0
 56 62  1  0
 57 56  1  0
 58 57  2  0
 59 53  2  0
 60 59  1  0
 60 55  2  0
 61 54  1  0
 62 52  1  0
 64 66  2  0
 65 64  1  0
 67 65  1  0
 68 77  2  0
 68 73  1  0
 69 65  1  0
 69 73  1  0
 70 69  1  0
 71 72  1  0
 71 70  1  0
 72 68  1  0
 73 74  2  0
 74 75  1  0
 76 75  2  0
 77 76  1  0
 78 52  1  0
 78 79  1  0
 78 88  1  0
 79 82  1  0
 80 84  1  0
 80 79  1  0
 81 80  2  0
 84 83  1  0
 86 84  1  0
 86 87  1  0
 86 85  1  0
 88 91  1  1
 88 89  1  0
 90 88  1  0
M  ISO  4   1 100  21 100  50 101  51 101
M  END
>  <TORSDO>  (8) 
F 16

>  <SCORE>  (8) 
-15.789

>  <name>  (8) 
7

>  <ligand_id>  (8) 
7

>  <original_smiles>  (8) 
[H]c1c([H])c([H])c2c(c1[H])C([H])([H])C([H])([H])C([H])([H])C2([H])N([H])C(=O)C1([H])N(C(=O)C([H])(N([H])C(=O)C([H])(N([H])C([H])([H])[H])C([H])([H])[H])C(C([H])([H])[H])(C([H])([H])[H])C([H])([H])[H])C([H])([H])c2c([H])c(OC([H])([H])c3c(C([H])([H])[H])c(C([H])([H])[H])c4c(c3C([H])([H])[H])C([H])([H])N(C(=O)N3C([H])([H])C([H])([H])C([H])([H])C([H])(n5nc(-c6c([H])c([H])c(Oc7c([H])c([H])c(F)c([H])c7F)c([H])c6[H])c(C(=O)N([H])[H])c5N([H])[H])C3([H])[H])C([H])([H])C4([H])[H])c([H])c([H])c2C1([H])[H]

>  <smiles>  (8) 
[H]c1c([H])c([H])c2c(c1[H])C([H])([H])C([H])([H])C([H])([H])C2([H])N([H])C(=O)C1([H])N(C(=O)C([H])(N([H])C(=O)C([H])(N([H])C([H])([H])[H])C([H])([H])[H])C(C([H])([H])[H])(C([H])([H])[H])C([H])([H])[H])C([H])([H])c2c([H])c(OC([H])([H])c3c(C([H])([H])[H])c(C([H])([H])[H])c4c(c3C([H])([H])[H])C([H])([H])N(C(=O)N3C([H])([H])C([H])([H])C([H])([H])C([H])(n5nc(-c6c([H])c([H])c(Oc7c([H])c([H])c(F)c([H])c7F)c([H])c6[H])c(C(=O)N([H])[H])c5N([H])[H])C3([H])[H])C([H])([H])C4([H])[H])c([H])c([H])c2C1([H])[H]

$$$$
8:0:0
     RDKit          3D

 95104  0  0  1  0  0  0  0  0999 V2000
  -30.7770  -14.5200   20.2930 C   0  0  0  0  0  0  0  0  0  0  0  0
  -30.5090  -12.3330   19.2210 C   0  0  0  0  0  2  0  0  0  0  0  0
  -29.5650  -12.5170   18.0140 C   0  0  0  0  0  2  0  0  0  0  0  0
  -28.0800  -12.4010   18.4400 C   0  0  0  0  0  2  0  0  0  0  0  0
  -27.7430  -13.2510   19.6980 C   0  0  0  0  0  3  0  0  0  0  0  0
  -28.7990  -13.0270   20.7980 C   0  0  0  0  0  2  0  0  0  0  0  0
  -30.1180  -13.3310   20.2260 N   0  0  0  0  0  0  0  0  0  0  0  0
  -31.9500  -14.6360   19.9180 O   0  0  0  0  0  0  0  0  0  0  0  0
  -29.6900  -20.1360   19.3890 C   0  0  0  0  0  3  0  0  0  0  0  0
  -30.6890  -19.8140   21.9760 C   0  0  0  0  0  3  0  0  0  0  0  0
  -30.2930  -21.2330   20.0430 C   0  0  0  0  0  0  0  0  0  0  0  0
  -29.6150  -18.8620   20.0010 C   0  0  0  0  0  0  0  0  0  0  0  0
  -30.1420  -18.6990   21.3110 C   0  0  0  0  0  0  0  0  0  0  0  0
  -30.7880  -21.0720   21.3630 C   0  0  0  0  0  0  0  0  0  0  0  0
  -29.0020  -17.7150   19.2060 C   0  0  0  0  0  2  0  0  0  0  0  0
  -30.2100  -17.3830   22.0850 C   0  0  0  0  0  2  0  0  0  0  0  0
  -29.9310  -16.4830   19.1120 C   0  0  0  0  0  2  0  0  0  0  0  0
  -29.4360  -16.1630   21.5660 C   0  0  0  0  0  2  0  0  0  0  0  0
  -31.5070  -22.1760   22.1390 C   0  0  0  0  0  1  0  0  0  0  0  0
  -29.9700  -15.6140   20.3090 N   0  0  0  0  0  0  0  0  0  0  0  0
  -25.3730  -13.9050   20.4580 C   0  0  0  0  0  0  0  0  0  0  0  0
  -24.2970  -13.1520   20.8470 C   0  0  0  0  0  0  0  0  0  0  0  0
  -24.7300  -11.7930   20.8010 C   0  0  0  0  0  0  0  0  0  0  0  0
  -26.3940  -12.9990   20.2000 N   0  0  0  0  0  0  0  0  0  0  0  0
  -26.0130  -11.7260   20.4680 N   0  0  0  0  0  0  0  0  0  0  0  0
  -23.9810  -10.5460   20.9940 C   0  0  0  0  0  0  0  0  0  0  0  0
  -24.4000   -9.5770   21.9310 C   0  0  0  0  0  3  0  0  0  0  0  0
  -23.6620   -8.3870   22.1090 C   0  0  0  0  0  3  0  0  0  0  0  0
  -22.4870   -8.1610   21.3530 C   0  0  0  0  0  0  0  0  0  0  0  0
  -22.0860   -9.1190   20.4050 C   0  0  0  0  0  3  0  0  0  0  0  0
  -22.8260  -10.3000   20.2240 C   0  0  0  0  0  3  0  0  0  0  0  0
  -21.7110   -7.0300   21.4470 O   0  0  0  0  0  0  0  0  0  0  0  0
  -21.6240   -6.3120   22.6120 C   0  0  0  0  0  0  0  0  0  0  0  0
  -21.1510   -6.8840   23.8150 C   0  0  0  0  0  3  0  0  0  0  0  0
  -21.0120   -6.0860   24.9670 C   0  0  0  0  0  3  0  0  0  0  0  0
  -21.3360   -4.7170   24.9180 C   0  0  0  0  0  0  0  0  0  0  0  0
  -21.8040   -4.1440   23.7250 C   0  0  0  0  0  3  0  0  0  0  0  0
  -21.9450   -4.9390   22.5740 C   0  0  0  0  0  0  0  0  0  0  0  0
  -22.3740   -4.3770   21.4180 F   0  0  0  0  0  0  0  0  0  0  0  0
  -21.1960   -3.9470   26.0240 F   0  0  0  0  0  0  0  0  0  0  0  0
  -22.9140  -13.6570   21.1380 C   0  0  0  0  0  0  0  0  0  0  0  0
  -22.1710  -12.9740   22.0040 N   0  0  0  0  0  0  0  0  0  0  0  0
  -22.4970  -14.6940   20.6270 O   0  0  0  0  0  0  0  0  0  0  0  0
  -22.5160  -12.1380   22.4530 H   0  0  0  0  0  0  0  0  0  0  0  0
  -21.2370  -13.2960   22.2140 H   0  0  0  0  0  0  0  0  0  0  0  0
  -25.5530  -15.2740   20.2860 N   0  0  0  0  0  0  0  0  0  0  0  0
  -24.7800  -15.9200   20.4010 H   0  0  0  0  0  0  0  0  0  0  0  0
  -26.3890  -15.7140   19.9220 H   0  0  0  0  0  0  0  0  0  0  0  0
  -30.4450  -22.5190   19.2900 C   0  0  0  0  0  0  0  0  0  0  0  0
  -29.9480  -23.5750   19.9250 N   0  0  0  0  0  0  0  0  0  0  0  0
  -30.9840  -22.5640   18.1830 O   0  0  0  0  0  0  0  0  0  0  0  0
  -29.5080  -23.4010   20.8180 H   0  0  0  0  0  0  0  0  0  0  0  0
  -30.0100  -24.9480   19.4810 C   0  0  0  0  0  2  0  0  0  0  0  0
  -28.5980  -25.4730   19.2860 C   0  0  0  0  0  2  0  0  0  0  0  0
  -28.5630  -26.7900   19.8100 O   0  0  0  0  0  0  0  0  0  0  0  0
  -24.4940  -31.6360   23.0340 C   0  0  0  0  0  0  0  0  0  0  0  0
  -27.3440  -27.4210   19.8430 C   0  0  0  0  0  0  0  0  0  0  0  0
  -23.3730  -30.2910   21.2840 C   0  0  0  0  0  3  0  0  0  0  0  0
  -24.9090  -28.8390   19.8660 C   0  0  0  0  0  0  0  0  0  0  0  0
  -25.8920  -30.7080   21.1960 C   0  0  0  0  0  2  0  0  0  0  0  0
  -26.0290  -29.3620   20.5190 C   0  0  0  0  0  0  0  0  0  0  0  0
  -27.2480  -28.6520   20.5220 C   0  0  0  0  0  3  0  0  0  0  0  0
  -26.1980  -26.9010   19.1980 C   0  0  0  0  0  3  0  0  0  0  0  0
  -24.9820  -27.6000   19.2140 C   0  0  0  0  0  3  0  0  0  0  0  0
  -23.6510  -29.6710   19.8880 C   0  0  0  0  0  2  0  0  0  0  0  0
  -24.6030  -30.8910   21.8990 N   0  0  0  0  0  0  0  0  0  0  0  0
  -23.3890  -31.8650   23.5480 O   0  0  0  0  0  0  0  0  0  0  0  0
  -22.7080  -29.2170   22.1760 C   0  0  0  0  0  0  0  0  0  0  0  0
  -21.3780  -29.0780   22.0530 N   0  0  0  0  0  0  0  0  0  0  0  0
  -23.3870  -28.5130   22.9310 O   0  0  0  0  0  0  0  0  0  0  0  0
  -20.8930  -29.7040   21.4250 H   0  0  0  0  0  0  0  0  0  0  0  0
  -17.9680  -28.0320   22.6010 C   0  0  0  0  0  0  0  0  0  0  0  0
  -20.5460  -28.1090   22.7650 C   0  0  0  0  0  3  0  0  0  0  0  0
  -20.5340  -26.7470   22.0350 C   0  0  0  0  0  2  0  0  0  0  0  0
  -19.3680  -26.5990   21.0530 C   0  0  0  0  0  2  0  0  0  0  0  0
  -18.0300  -26.7540   21.7810 C   0  0  0  0  0  2  0  0  0  0  0  0
  -19.1510  -28.6760   23.0500 C   0  0  0  0  0  0  0  0  0  0  0  0
  -19.0390  -29.8820   23.7760 C   0  0  0  0  0  3  0  0  0  0  0  0
  -17.7770  -30.4390   24.0570 C   0  0  0  0  0  3  0  0  0  0  0  0
  -16.6080  -29.7860   23.6260 C   0  0  0  0  0  3  0  0  0  0  0  0
  -16.7060  -28.5850   22.9010 C   0  0  0  0  0  3  0  0  0  0  0  0
  -25.7490  -32.2590   23.7280 C   0  0  0  0  0  3  0  0  0  0  0  0
  -25.4050  -33.6390   24.1000 N   0  0  0  0  0  0  0  0  0  0  0  0
  -25.7330  -34.7220   23.3840 C   0  0  0  0  0  0  0  0  0  0  0  0
  -26.4270  -34.6700   22.3650 O   0  0  0  0  0  0  0  0  0  0  0  0
  -24.7940  -33.7530   24.8940 H   0  0  0  0  0  0  0  0  0  0  0  0
  -23.9720  -36.4940   23.0600 C   0  0  0  0  0  1  0  0  0  0  0  0
  -25.2040  -36.0810   23.8820 C   0  0  0  0  0  3  0  0  0  0  0  0
  -27.2970  -36.9890   24.7940 C   0  0  0  0  0  1  0  0  0  0  0  0
  -26.2130  -37.1600   23.8300 N   0  0  0  0  0  0  0  0  0  0  0  0
  -25.7790  -38.0630   24.0030 H   0  0  0  0  0  0  0  0  0  0  0  0
  -26.2390  -31.4420   24.9840 C   0  0  1  0  0  0  0  0  0  0  0  0
  -25.1280  -31.1460   26.0160 C   0  0  0  0  0  1  0  0  0  0  0  0
  -26.8500  -30.0900   24.5460 C   0  0  0  0  0  1  0  0  0  0  0  0
  -27.3550  -32.2220   25.7170 C   0  0  0  0  0  1  0  0  0  0  0  0
  1 20  1  0
  2  7  1  0
  3  4  1  0
  3  2  1  0
  5  4  1  0
  5 24  1  0
  5  6  1  0
  7  1  1  0
  7  6  1  0
  8  1  2  0
  9 12  2  0
  9 11  1  0
 11 14  2  0
 12 13  1  0
 13 10  2  0
 13 16  1  0
 14 10  1  0
 14 19  1  0
 15 12  1  0
 17 15  1  0
 17 20  1  0
 18 16  1  0
 20 18  1  0
 21 22  2  0
 22 41  1  0
 23 22  1  0
 23 26  1  0
 24 21  1  0
 24 25  1  0
 25 23  2  0
 26 27  1  0
 27 28  2  0
 29 32  1  0
 29 28  1  0
 30 29  2  0
 31 30  1  0
 31 26  2  0
 32 33  1  0
 33 34  1  0
 34 35  2  0
 36 35  1  0
 36 40  1  0
 37 36  2  0
 38 33  2  0
 38 37  1  0
 39 38  1  0
 41 42  1  0
 42 45  1  0
 42 44  1  0
 43 41  2  0
 46 47  1  0
 46 21  1  0
 48 46  1  0
 49 50  1  0
 49 11  1  0
 50 52  1  0
 51 49  2  0
 53 50  1  0
 54 53  1  0
 54 55  1  0
 55 57  1  0
 56 67  2  0
 57 62  1  0
 58 66  1  0
 58 68  1  0
 59 65  1  0
 59 61  1  0
 60 66  1  0
 61 62  2  0
 61 60  1  0
 63 64  1  0
 63 57  2  0
 64 59  2  0
 65 58  1  0
 66 56  1  0
 68 70  2  0
 69 68  1  0
 71 69  1  0
 72 81  2  0
 72 77  1  0
 73 69  1  0
 73 77  1  0
 74 73  1  0
 75 76  1  0
 75 74  1  0
 76 72  1  0
 77 78  2  0
 78 79  1  0
 80 79  2  0
 81 80  1  0
 82 56  1  0
 82 83  1  0
 82 92  1  0
 83 86  1  0
 84 88  1  0
 84 83  1  0
 85 84  2  0
 88 87  1  0
 90 88  1  0
 90 91  1  0
 90 89  1  0
 92 95  1  1
 92 93  1  0
 94 92  1  0
M  ISO  4   1 100  20 100  54 101  55 101
M  END
>  <TORSDO>  (9) 
F 18

>  <SCORE>  (9) 
-13.995

>  <name>  (9) 
8

>  <ligand_id>  (9) 
8

>  <original_smiles>  (9) 
[H]c1c([H])c([H])c2c(c1[H])C([H])([H])C([H])([H])C([H])([H])C2([H])N([H])C(=O)C1([H])N(C(=O)C([H])(N([H])C(=O)C([H])(N([H])C([H])([H])[H])C([H])([H])[H])C(C([H])([H])[H])(C([H])([H])[H])C([H])([H])[H])C([H])([H])c2c([H])c(OC([H])([H])C([H])([H])N([H])C(=O)c3c([H])c4c(c([H])c3C([H])([H])[H])C([H])([H])C([H])([H])N(C(=O)N3C([H])([H])C([H])([H])C([H])([H])C([H])(n5nc(-c6c([H])c([H])c(Oc7c([H])c([H])c(F)c([H])c7F)c([H])c6[H])c(C(=O)N([H])[H])c5N([H])[H])C3([H])[H])C([H])([H])C4([H])[H])c([H])c([H])c2C1([H])[H]

>  <smiles>  (9) 
[H]c1c([H])c([H])c2c(c1[H])C([H])([H])C([H])([H])C([H])([H])C2([H])N([H])C(=O)C1([H])N(C(=O)C([H])(N([H])C(=O)C([H])(N([H])C([H])([H])[H])C([H])([H])[H])C(C([H])([H])[H])(C([H])([H])[H])C([H])([H])[H])C([H])([H])c2c([H])c(OC([H])([H])C([H])([H])N([H])C(=O)c3c([H])c4c(c([H])c3C([H])([H])[H])C([H])([H])C([H])([H])N(C(=O)N3C([H])([H])C([H])([H])C([H])([H])C([H])(n5nc(-c6c([H])c([H])c(Oc7c([H])c([H])c(F)c([H])c7F)c([H])c6[H])c(C(=O)N([H])[H])c5N([H])[H])C3([H])[H])C([H])([H])C4([H])[H])c([H])c([H])c2C1([H])[H]

$$$$
9:0:0
     RDKit          3D

 97106  0  0  1  0  0  0  0  0999 V2000
  -29.0680  -24.5520   20.4090 C   0  0  0  0  0  0  0  0  0  0  0  0
  -29.2250  -24.9920   23.1740 C   0  0  0  0  0  2  0  0  0  0  0  0
  -29.0020  -26.2520   22.2970 C   0  0  0  0  0  2  0  0  0  0  0  0
  -28.2820  -23.8490   22.7250 C   0  0  0  0  0  2  0  0  0  0  0  0
  -28.5030  -25.9090   20.8720 C   0  0  0  0  0  3  0  0  0  0  0  0
  -28.5760  -23.3380   21.2630 C   0  0  1  0  0  0  0  0  0  0  0  0
  -27.2260  -22.8770   20.6540 C   0  0  0  0  0  1  0  0  0  0  0  0
  -29.8250  -24.4510   19.4390 O   0  0  0  0  0  0  0  0  0  0  0  0
  -29.6360  -21.3220   20.0580 C   0  0  0  0  0  3  0  0  0  0  0  0
  -30.2100  -21.6310   22.3850 C   0  0  0  0  0  3  0  0  0  0  0  0
  -29.5290  -22.1050   21.2320 C   0  0  0  0  0  0  0  0  0  0  0  0
  -30.7750  -19.5180   21.2700 C   0  0  0  0  0  0  0  0  0  0  0  0
  -30.2520  -20.0550   20.0700 C   0  0  0  0  0  0  0  0  0  0  0  0
  -30.8100  -20.3540   22.4110 C   0  0  0  0  0  0  0  0  0  0  0  0
  -30.2740  -19.3340   18.9250 F   0  0  0  0  0  0  0  0  0  0  0  0
  -31.3780  -19.9200   23.5620 F   0  0  0  0  0  0  0  0  0  0  0  0
  -31.2220  -18.0530   21.3670 C   0  0  0  0  0  2  0  0  0  0  0  0
  -30.3050  -17.0960   20.5570 C   0  0  0  0  0  2  0  0  0  0  0  0
  -30.9760  -14.7040   20.4050 C   0  0  0  0  0  0  0  0  0  0  0  0
  -30.7140  -12.5070   19.3230 C   0  0  0  0  0  2  0  0  0  0  0  0
  -29.7920  -12.6640   18.0950 C   0  0  0  0  0  2  0  0  0  0  0  0
  -28.3080  -12.5260   18.5010 C   0  0  0  0  0  2  0  0  0  0  0  0
  -27.9420  -13.4040   19.7270 C   0  0  0  0  0  3  0  0  0  0  0  0
  -28.9810  -13.2190   20.8590 C   0  0  0  0  0  2  0  0  0  0  0  0
  -30.3210  -13.5140   20.3200 N   0  0  0  0  0  0  0  0  0  0  0  0
  -32.0540  -14.9250   19.8460 O   0  0  0  0  0  0  0  0  0  0  0  0
  -30.2940  -15.6940   20.9970 N   0  0  0  0  0  0  0  0  0  0  0  0
  -29.4770  -15.4060   21.5150 H   0  0  0  0  0  0  0  0  0  0  0  0
  -25.5350  -14.0270   20.4130 C   0  0  0  0  0  0  0  0  0  0  0  0
  -24.4580  -13.2630   20.7760 C   0  0  0  0  0  0  0  0  0  0  0  0
  -24.9120  -11.9090   20.7530 C   0  0  0  0  0  0  0  0  0  0  0  0
  -26.5800  -13.1400   20.1920 N   0  0  0  0  0  0  0  0  0  0  0  0
  -26.2030  -11.8590   20.4470 N   0  0  0  0  0  0  0  0  0  0  0  0
  -24.1760  -10.6520   20.9480 C   0  0  0  0  0  0  0  0  0  0  0  0
  -24.5900   -9.6960   21.9020 C   0  0  0  0  0  3  0  0  0  0  0  0
  -23.8600   -8.5010   22.0850 C   0  0  0  0  0  3  0  0  0  0  0  0
  -22.7020   -8.2550   21.3100 C   0  0  0  0  0  0  0  0  0  0  0  0
  -22.3080   -9.1970   20.3430 C   0  0  0  0  0  3  0  0  0  0  0  0
  -23.0390  -10.3840   20.1600 C   0  0  0  0  0  3  0  0  0  0  0  0
  -21.9440   -7.1120   21.3990 O   0  0  0  0  0  0  0  0  0  0  0  0
  -21.8180   -6.4190   22.5760 C   0  0  0  0  0  0  0  0  0  0  0  0
  -21.2650   -7.0120   23.7330 C   0  0  0  0  0  3  0  0  0  0  0  0
  -21.0880   -6.2430   24.9000 C   0  0  0  0  0  3  0  0  0  0  0  0
  -21.4580   -4.8840   24.9130 C   0  0  0  0  0  0  0  0  0  0  0  0
  -22.0070   -4.2940   23.7620 C   0  0  0  0  0  3  0  0  0  0  0  0
  -22.1830   -5.0580   22.5970 C   0  0  0  0  0  0  0  0  0  0  0  0
  -22.6930   -4.4790   21.4830 F   0  0  0  0  0  0  0  0  0  0  0  0
  -21.2800   -4.1450   26.0330 F   0  0  0  0  0  0  0  0  0  0  0  0
  -23.0610  -13.7480   21.0360 C   0  0  0  0  0  0  0  0  0  0  0  0
  -22.3350  -13.0790   21.9260 N   0  0  0  0  0  0  0  0  0  0  0  0
  -22.6200  -14.7570   20.4870 O   0  0  0  0  0  0  0  0  0  0  0  0
  -22.7080  -12.2730   22.4050 H   0  0  0  0  0  0  0  0  0  0  0  0
  -21.3920  -13.3780   22.1310 H   0  0  0  0  0  0  0  0  0  0  0  0
  -25.7070  -15.3960   20.2400 N   0  0  0  0  0  0  0  0  0  0  0  0
  -24.9400  -16.0510   20.3560 H   0  0  0  0  0  0  0  0  0  0  0  0
  -26.5610  -15.8330   19.9200 H   0  0  0  0  0  0  0  0  0  0  0  0
  -28.6660  -26.9820   19.9170 O   0  0  0  0  0  0  0  0  0  0  0  0
  -24.7080  -31.8450   23.2250 C   0  0  0  0  0  0  0  0  0  0  0  0
  -27.5180  -27.7370   19.8630 C   0  0  0  0  0  0  0  0  0  0  0  0
  -23.5480  -30.4870   21.5100 C   0  0  0  0  0  3  0  0  0  0  0  0
  -25.0600  -29.1140   19.9730 C   0  0  0  0  0  0  0  0  0  0  0  0
  -26.0510  -30.9820   21.3150 C   0  0  0  0  0  2  0  0  0  0  0  0
  -26.1960  -29.6630   20.5830 C   0  0  0  0  0  0  0  0  0  0  0  0
  -27.4340  -28.9790   20.5260 C   0  0  0  0  0  3  0  0  0  0  0  0
  -26.3740  -27.2120   19.2270 C   0  0  0  0  0  3  0  0  0  0  0  0
  -25.1440  -27.8890   19.2890 C   0  0  0  0  0  3  0  0  0  0  0  0
  -23.7730  -29.9020   20.0870 C   0  0  0  0  0  2  0  0  0  0  0  0
  -24.7850  -31.1160   22.0740 N   0  0  0  0  0  0  0  0  0  0  0  0
  -23.6230  -32.0370   23.7900 O   0  0  0  0  0  0  0  0  0  0  0  0
  -22.9560  -29.3820   22.4130 C   0  0  0  0  0  0  0  0  0  0  0  0
  -21.6460  -29.1300   22.2690 N   0  0  0  0  0  0  0  0  0  0  0  0
  -23.6750  -28.7530   23.1950 O   0  0  0  0  0  0  0  0  0  0  0  0
  -21.1270  -29.6920   21.6090 H   0  0  0  0  0  0  0  0  0  0  0  0
  -18.3550  -27.6890   22.6520 C   0  0  0  0  0  0  0  0  0  0  0  0
  -20.8850  -28.1070   22.9840 C   0  0  0  0  0  3  0  0  0  0  0  0
  -21.0940  -26.7120   22.3510 C   0  0  0  0  0  2  0  0  0  0  0  0
  -20.0360  -26.3610   21.3000 C   0  0  0  0  0  2  0  0  0  0  0  0
  -18.6360  -26.3850   21.9220 C   0  0  0  0  0  2  0  0  0  0  0  0
  -19.4130  -28.5070   23.1340 C   0  0  0  0  0  0  0  0  0  0  0  0
  -19.1000  -29.7270   23.7680 C   0  0  0  0  0  3  0  0  0  0  0  0
  -17.7620  -30.1350   23.9270 C   0  0  0  0  0  3  0  0  0  0  0  0
  -16.7180  -29.3150   23.4630 C   0  0  0  0  0  3  0  0  0  0  0  0
  -17.0160  -28.0940   22.8340 C   0  0  0  0  0  3  0  0  0  0  0  0
  -25.9740  -32.4950   23.8690 C   0  0  0  0  0  3  0  0  0  0  0  0
  -26.4890  -31.7240   25.1460 C   0  0  1  0  0  0  0  0  0  0  0  0
  -25.3870  -31.4560   26.1970 C   0  0  0  0  0  1  0  0  0  0  0  0
  -27.1060  -30.3630   24.7470 C   0  0  0  0  0  1  0  0  0  0  0  0
  -27.6150  -32.5340   25.8310 C   0  0  0  0  0  1  0  0  0  0  0  0
  -25.6390  -33.8850   24.2030 N   0  0  0  0  0  0  0  0  0  0  0  0
  -25.9860  -34.9490   23.4680 C   0  0  0  0  0  0  0  0  0  0  0  0
  -26.6990  -34.8630   22.4630 O   0  0  0  0  0  0  0  0  0  0  0  0
  -25.0240  -34.0240   24.9920 H   0  0  0  0  0  0  0  0  0  0  0  0
  -24.2650  -36.7270   23.0410 C   0  0  0  0  0  1  0  0  0  0  0  0
  -25.4600  -36.3260   23.9180 C   0  0  0  0  0  3  0  0  0  0  0  0
  -27.5320  -37.2150   24.8890 C   0  0  0  0  0  1  0  0  0  0  0  0
  -26.4880  -37.3890   23.8820 N   0  0  0  0  0  0  0  0  0  0  0  0
  -26.0660  -38.3040   24.0220 H   0  0  0  0  0  0  0  0  0  0  0  0
  1  5  1  0
  1  6  1  0
  3  2  1  0
  4  2  1  0
  5 57  1  0
  5  3  1  0
  6  7  1  6
  6  4  1  0
  8  1  2  0
  9 13  2  0
  9 11  1  0
 10 14  1  0
 11  6  1  0
 11 10  2  0
 12 17  1  0
 12 14  2  0
 13 12  1  0
 14 16  1  0
 15 13  1  0
 18 27  1  0
 18 17  1  0
 19 27  1  0
 20 25  1  0
 21 22  1  0
 21 20  1  0
 23 22  1  0
 23 32  1  0
 23 24  1  0
 25 19  1  0
 25 24  1  0
 26 19  2  0
 27 28  1  0
 29 30  2  0
 30 49  1  0
 31 30  1  0
 31 34  1  0
 32 29  1  0
 32 33  1  0
 33 31  2  0
 34 35  1  0
 35 36  2  0
 37 40  1  0
 37 36  1  0
 38 37  2  0
 39 38  1  0
 39 34  2  0
 40 41  1  0
 41 46  2  0
 41 42  1  0
 42 43  2  0
 43 44  1  0
 44 48  1  0
 45 44  2  0
 46 45  1  0
 47 46  1  0
 49 50  1  0
 50 53  1  0
 50 52  1  0
 51 49  2  0
 54 55  1  0
 54 29  1  0
 56 54  1  0
 58 69  2  0
 59 57  1  0
 59 64  1  0
 60 68  1  0
 60 70  1  0
 61 67  1  0
 61 63  1  0
 62 68  1  0
 63 62  1  0
 64 63  2  0
 65 66  1  0
 65 59  2  0
 66 61  2  0
 67 60  1  0
 68 58  1  0
 70 72  2  0
 71 70  1  0
 73 71  1  0
 74 83  2  0
 74 79  1  0
 75 71  1  0
 75 79  1  0
 76 75  1  0
 77 78  1  0
 77 76  1  0
 78 74  1  0
 79 80  2  0
 80 81  1  0
 82 81  2  0
 83 82  1  0
 84 58  1  0
 84 89  1  0
 84 85  1  0
 85 88  1  1
 85 86  1  0
 87 85  1  0
 89 92  1  0
 90 94  1  0
 90 89  1  0
 91 90  2  0
 94 93  1  0
 96 94  1  0
 96 97  1  0
 96 95  1  0
M  ISO  4   5 101  19 100  27 100  57 101
M  END
>  <TORSDO>  (10) 
F 19

>  <SCORE>  (10) 
-13.968

>  <name>  (10) 
9

>  <ligand_id>  (10) 
9

>  <original_smiles>  (10) 
[H]c1c([H])c([H])c2c(c1[H])C([H])([H])C([H])([H])C([H])([H])C2([H])N([H])C(=O)C1([H])N(C(=O)C([H])(N([H])C(=O)C([H])(N([H])C([H])([H])[H])C([H])([H])[H])C(C([H])([H])[H])(C([H])([H])[H])C([H])([H])[H])C([H])([H])c2c([H])c(OC3([H])C(=O)C(c4c([H])c(F)c(C([H])([H])C([H])([H])N([H])C(=O)N5C([H])([H])C([H])([H])C([H])([H])C([H])(n6nc(-c7c([H])c([H])c(Oc8c([H])c([H])c(F)c([H])c8F)c([H])c7[H])c(C(=O)N([H])[H])c6N([H])[H])C5([H])[H])c(F)c4[H])(C([H])([H])[H])C([H])([H])C([H])([H])C3([H])[H])c([H])c([H])c2C1([H])[H]

>  <smiles>  (10) 
[H]c1c([H])c([H])c2c(c1[H])C([H])([H])C([H])([H])C([H])([H])C2([H])N([H])C(=O)C1([H])N(C(=O)C([H])(N([H])C(=O)C([H])(N([H])C([H])([H])[H])C([H])([H])[H])C(C([H])([H])[H])(C([H])([H])[H])C([H])([H])[H])C([H])([H])c2c([H])c(OC3([H])C(=O)C(c4c([H])c(F)c(C([H])([H])C([H])([H])N([H])C(=O)N5C([H])([H])C([H])([H])C([H])([H])C([H])(n6nc(-c7c([H])c([H])c(Oc8c([H])c([H])c(F)c([H])c8F)c([H])c7[H])c(C(=O)N([H])[H])c6N([H])[H])C5([H])[H])c(F)c4[H])(C([H])([H])[H])C([H])([H])C([H])([H])C3([H])[H])c([H])c([H])c2C1([H])[H]

$$$$
10:0:0
     RDKit          3D

 95105  0  0  1  0  0  0  0  0999 V2000
  -30.4770  -15.2150   20.4270 C   0  0  0  0  0  0  0  0  0  0  0  0
  -30.4260  -12.7750   19.5410 C   0  0  0  0  0  2  0  0  0  0  0  0
  -29.5380  -12.5840   18.2880 C   0  0  0  0  0  2  0  0  0  0  0  0
  -28.0790  -12.3220   18.6980 C   0  0  0  0  0  2  0  0  0  0  0  0
  -27.6100  -13.2810   19.8210 C   0  0  0  0  0  3  0  0  0  0  0  0
  -28.6360  -13.4290   20.9630 C   0  0  0  0  0  2  0  0  0  0  0  0
  -29.8730  -13.9290   20.3470 N   0  0  0  0  0  0  0  0  0  0  0  0
  -31.6970  -15.1690   20.2120 O   0  0  0  0  0  0  0  0  0  0  0  0
  -28.0090  -22.0440   22.6030 C   0  0  0  0  0  0  0  0  0  0  0  0
  -28.4810  -21.7230   21.2730 C   0  0  0  0  0  0  0  0  0  0  0  0
  -27.8080  -23.3830   23.0910 C   0  0  0  0  0  0  0  0  0  0  0  0
  -28.5200  -23.0300   20.4430 C   0  0  0  0  0  0  0  0  0  0  0  0
  -27.9780  -24.5440   22.2900 C   0  0  0  0  0  0  0  0  0  0  0  0
  -28.1890  -24.4810   20.8930 C   0  0  0  0  0  0  0  0  0  0  0  0
  -27.6270  -20.9690   23.6410 C   0  0  0  0  0  2  0  0  0  0  0  0
  -27.6370  -19.5030   23.2620 C   0  0  0  0  0  2  0  0  0  0  0  0
  -27.5550  -19.3230   21.7590 C   0  0  0  0  0  2  0  0  0  0  0  0
  -30.0860  -19.2370   21.5840 C   0  0  0  0  0  2  0  0  0  0  0  0
  -28.8400  -19.0950   19.6680 C   0  0  0  0  0  2  0  0  0  0  0  0
  -30.2440  -17.5760   21.7020 C   0  0  0  0  0  2  0  0  0  0  0  0
  -28.9590  -17.3980   19.6860 C   0  0  0  0  0  2  0  0  0  0  0  0
  -28.7530  -19.9780   21.0290 C   0  0  2  0  0  0  0  0  0  0  0  0
  -27.4090  -23.6010   24.5660 C   0  0  0  0  0  1  0  0  0  0  0  0
  -28.9600  -22.8860   19.0020 C   0  0  0  0  0  1  0  0  0  0  0  0
  -27.9950  -25.9110   22.9840 C   0  0  0  0  0  1  0  0  0  0  0  0
  -29.8130  -16.5360   20.6500 N   0  0  0  0  0  0  0  0  0  0  0  0
  -25.2390  -13.8260   20.5700 C   0  0  0  0  0  0  0  0  0  0  0  0
  -24.1730  -13.0460   20.9220 C   0  0  0  0  0  0  0  0  0  0  0  0
  -24.6380  -11.6960   20.8740 C   0  0  0  0  0  0  0  0  0  0  0  0
  -26.2790  -12.9550   20.3140 N   0  0  0  0  0  0  0  0  0  0  0  0
  -25.9330  -11.6640   20.5670 N   0  0  0  0  0  0  0  0  0  0  0  0
  -23.9060  -10.4320   21.0430 C   0  0  0  0  0  0  0  0  0  0  0  0
  -24.3620   -9.4220   21.9200 C   0  0  0  0  0  3  0  0  0  0  0  0
  -23.6280   -8.2270   22.0780 C   0  0  0  0  0  3  0  0  0  0  0  0
  -22.4260   -8.0310   21.3570 C   0  0  0  0  0  0  0  0  0  0  0  0
  -21.9870   -9.0290   20.4680 C   0  0  0  0  0  3  0  0  0  0  0  0
  -22.7220  -10.2160   20.3080 C   0  0  0  0  0  3  0  0  0  0  0  0
  -21.6650   -6.8880   21.4240 O   0  0  0  0  0  0  0  0  0  0  0  0
  -21.6850   -6.0740   22.5280 C   0  0  0  0  0  0  0  0  0  0  0  0
  -21.4020   -6.5640   23.8210 C   0  0  0  0  0  3  0  0  0  0  0  0
  -21.3660   -5.6790   24.9180 C   0  0  0  0  0  3  0  0  0  0  0  0
  -21.6050   -4.3050   24.7210 C   0  0  0  0  0  0  0  0  0  0  0  0
  -21.8810   -3.8130   23.4330 C   0  0  0  0  0  3  0  0  0  0  0  0
  -21.9180   -4.6960   22.3390 C   0  0  0  0  0  0  0  0  0  0  0  0
  -22.1660   -4.2160   21.0970 F   0  0  0  0  0  0  0  0  0  0  0  0
  -21.5620   -3.4520   25.7700 F   0  0  0  0  0  0  0  0  0  0  0  0
  -22.7740  -13.5230   21.1860 C   0  0  0  0  0  0  0  0  0  0  0  0
  -22.0360  -12.8270   22.0420 N   0  0  0  0  0  0  0  0  0  0  0  0
  -22.3440  -14.5510   20.6660 O   0  0  0  0  0  0  0  0  0  0  0  0
  -22.3900  -11.9960   22.4920 H   0  0  0  0  0  0  0  0  0  0  0  0
  -21.0980  -13.1370   22.2590 H   0  0  0  0  0  0  0  0  0  0  0  0
  -25.4080  -15.2010   20.4220 N   0  0  0  0  0  0  0  0  0  0  0  0
  -24.6460  -15.8580   20.5430 H   0  0  0  0  0  0  0  0  0  0  0  0
  -26.2700  -15.6370   20.1220 H   0  0  0  0  0  0  0  0  0  0  0  0
  -28.2210  -25.8540   20.2210 O   0  0  0  0  0  0  0  0  0  0  0  0
  -24.6590  -31.8250   23.1740 C   0  0  0  0  0  0  0  0  0  0  0  0
  -27.2120  -26.9480   20.2150 C   0  0  0  0  0  0  0  0  0  0  0  0
  -23.4760  -30.4380   21.5200 C   0  0  0  0  0  3  0  0  0  0  0  0
  -24.9270  -28.8280   20.1180 C   0  0  0  0  0  0  0  0  0  0  0  0
  -26.0420  -30.6400   21.4030 C   0  0  0  0  0  2  0  0  0  0  0  0
  -26.1100  -29.2330   20.7510 C   0  0  0  0  0  0  0  0  0  0  0  0
  -27.2510  -28.3200   20.7670 C   0  0  0  0  0  3  0  0  0  0  0  0
  -26.0070  -26.6920   19.5250 C   0  0  0  0  0  3  0  0  0  0  0  0
  -24.9010  -27.5760   19.4810 C   0  0  0  0  0  3  0  0  0  0  0  0
  -23.7160  -29.7570   20.1460 C   0  0  0  0  0  2  0  0  0  0  0  0
  -24.7470  -30.9940   22.0860 N   0  0  0  0  0  0  0  0  0  0  0  0
  -23.5660  -32.1210   23.6840 O   0  0  0  0  0  0  0  0  0  0  0  0
  -22.7650  -29.4440   22.4770 C   0  0  0  0  0  0  0  0  0  0  0  0
  -21.4320  -29.3040   22.3500 N   0  0  0  0  0  0  0  0  0  0  0  0
  -23.4200  -28.8000   23.3000 O   0  0  0  0  0  0  0  0  0  0  0  0
  -20.9560  -29.8750   21.6660 H   0  0  0  0  0  0  0  0  0  0  0  0
  -18.0330  -28.1420   22.8460 C   0  0  0  0  0  0  0  0  0  0  0  0
  -20.5940  -28.3760   23.1170 C   0  0  0  0  0  3  0  0  0  0  0  0
  -20.6800  -26.9430   22.5400 C   0  0  0  0  0  2  0  0  0  0  0  0
  -19.5780  -26.6380   21.5210 C   0  0  0  0  0  2  0  0  0  0  0  0
  -18.1960  -26.7960   22.1610 C   0  0  0  0  0  2  0  0  0  0  0  0
  -19.1590  -28.8910   23.2810 C   0  0  0  0  0  0  0  0  0  0  0  0
  -18.9500  -30.1490   23.8860 C   0  0  0  0  0  3  0  0  0  0  0  0
  -17.6480  -30.6590   24.0570 C   0  0  0  0  0  3  0  0  0  0  0  0
  -16.5380  -29.9090   23.6340 C   0  0  0  0  0  3  0  0  0  0  0  0
  -16.7310  -28.6520   23.0360 C   0  0  0  0  0  3  0  0  0  0  0  0
  -25.9300  -32.4580   23.8190 C   0  0  0  0  0  3  0  0  0  0  0  0
  -25.5970  -33.8400   24.2060 N   0  0  0  0  0  0  0  0  0  0  0  0
  -25.9100  -34.9340   23.4990 C   0  0  0  0  0  0  0  0  0  0  0  0
  -26.5720  -34.8870   22.4590 O   0  0  0  0  0  0  0  0  0  0  0  0
  -25.0050  -33.9480   25.0170 H   0  0  0  0  0  0  0  0  0  0  0  0
  -24.1490  -36.7220   23.2650 C   0  0  0  0  0  1  0  0  0  0  0  0
  -25.4130  -36.2960   24.0290 C   0  0  0  0  0  3  0  0  0  0  0  0
  -27.5570  -37.1770   24.8450 C   0  0  0  0  0  1  0  0  0  0  0  0
  -26.4280  -37.3690   23.9390 N   0  0  0  0  0  0  0  0  0  0  0  0
  -26.0130  -38.2750   24.1390 H   0  0  0  0  0  0  0  0  0  0  0  0
  -26.4550  -31.6540   25.0720 C   0  0  1  0  0  0  0  0  0  0  0  0
  -25.3680  -31.3820   26.1380 C   0  0  0  0  0  1  0  0  0  0  0  0
  -27.0460  -30.2900   24.6500 C   0  0  0  0  0  1  0  0  0  0  0  0
  -27.6030  -32.4390   25.7530 C   0  0  0  0  0  1  0  0  0  0  0  0
  1 26  1  0
  2  7  1  0
  3  4  1  0
  3  2  1  0
  5  4  1  0
  5 30  1  0
  5  6  1  0
  7  1  1  0
  7  6  1  0
  8  1  2  0
  9 11  1  0
  9 15  1  0
 10  9  2  0
 11 23  1  0
 12 14  2  0
 12 10  1  0
 13 25  1  0
 13 11  2  0
 14 13  1  0
 16 15  1  0
 17 16  1  0
 18 20  1  0
 19 21  1  0
 21 26  1  0
 22 19  1  6
 22 10  1  0
 22 18  1  0
 22 17  1  0
 24 12  1  0
 26 20  1  0
 27 28  2  0
 28 47  1  0
 29 28  1  0
 29 32  1  0
 30 31  1  0
 30 27  1  0
 31 29  2  0
 32 33  1  0
 33 34  2  0
 35 38  1  0
 35 34  1  0
 36 35  2  0
 37 36  1  0
 37 32  2  0
 38 39  1  0
 39 40  1  0
 40 41  2  0
 42 41  1  0
 42 46  1  0
 43 42  2  0
 44 39  2  0
 44 43  1  0
 45 44  1  0
 47 48  1  0
 48 51  1  0
 48 50  1  0
 49 47  2  0
 52 53  1  0
 52 27  1  0
 54 52  1  0
 55 14  1  0
 56 67  2  0
 57 55  1  0
 57 62  1  0
 58 66  1  0
 58 68  1  0
 59 65  1  0
 59 61  1  0
 60 66  1  0
 61 62  2  0
 61 60  1  0
 63 57  2  0
 64 63  1  0
 64 59  2  0
 65 58  1  0
 66 56  1  0
 68 70  2  0
 69 68  1  0
 71 69  1  0
 72 81  2  0
 72 77  1  0
 73 69  1  0
 73 77  1  0
 74 73  1  0
 75 76  1  0
 75 74  1  0
 76 72  1  0
 77 78  2  0
 78 79  1  0
 80 79  2  0
 81 80  1  0
 82 56  1  0
 82 83  1  0
 82 92  1  0
 83 86  1  0
 84 88  1  0
 84 83  1  0
 85 84  2  0
 88 87  1  0
 90 88  1  0
 90 91  1  0
 90 89  1  0
 92 95  1  1
 92 93  1  0
 94 92  1  0
M  ISO  4   1 100  14 101  26 100  55 101
M  END
>  <TORSDO>  (11) 
F 15

>  <SCORE>  (11) 
14.551

>  <name>  (11) 
10

>  <ligand_id>  (11) 
10

>  <original_smiles>  (11) 
[H]c1c([H])c([H])c2c(c1[H])C([H])([H])C([H])([H])C([H])([H])C2([H])N([H])C(=O)C1([H])N(C(=O)C([H])(N([H])C(=O)C([H])(N([H])C([H])([H])[H])C([H])([H])[H])C(C([H])([H])[H])(C([H])([H])[H])C([H])([H])[H])C([H])([H])c2c([H])c(Oc3c(C([H])([H])[H])c(C([H])([H])[H])c4c(c3C([H])([H])[H])C3(C([H])([H])C([H])([H])N(C(=O)N5C([H])([H])C([H])([H])C([H])([H])C([H])(n6nc(-c7c([H])c([H])c(Oc8c([H])c([H])c(F)c([H])c8F)c([H])c7[H])c(C(=O)N([H])[H])c6N([H])[H])C5([H])[H])C([H])([H])C3([H])[H])C([H])([H])C([H])([H])C4([H])[H])c([H])c([H])c2C1([H])[H]

>  <smiles>  (11) 
[H]c1c([H])c([H])c2c(c1[H])C([H])([H])C([H])([H])C([H])([H])C2([H])N([H])C(=O)C1([H])N(C(=O)C([H])(N([H])C(=O)C([H])(N([H])C([H])([H])[H])C([H])([H])[H])C(C([H])([H])[H])(C([H])([H])[H])C([H])([H])[H])C([H])([H])c2c([H])c(Oc3c(C([H])([H])[H])c(C([H])([H])[H])c4c(c3C([H])([H])[H])C3(C([H])([H])C([H])([H])N(C(=O)N5C([H])([H])C([H])([H])C([H])([H])C([H])(n6nc(-c7c([H])c([H])c(Oc8c([H])c([H])c(F)c([H])c8F)c([H])c7[H])c(C(=O)N([H])[H])c6N([H])[H])C5([H])[H])C([H])([H])C3([H])[H])C([H])([H])C([H])([H])C4([H])[H])c([H])c([H])c2C1([H])[H]

$$$$
11:0:0
     RDKit          3D

 98106  0  0  1  0  0  0  0  0999 V2000
  -32.1530  -21.0480   20.9820 C   0  0  0  0  0  3  0  0  0  0  0  0
  -31.7180  -23.4270   20.8210 C   0  0  0  0  0  3  0  0  0  0  0  0
  -32.5120  -22.3150   20.5000 C   0  0  0  0  0  0  0  0  0  0  0  0
  -31.0130  -20.8870   21.7970 C   0  0  0  0  0  0  0  0  0  0  0  0
  -30.5540  -23.2970   21.6150 C   0  0  0  0  0  0  0  0  0  0  0  0
  -30.2160  -22.0130   22.1430 C   0  0  0  0  0  0  0  0  0  0  0  0
  -33.7410  -22.4800   19.6290 C   0  0  0  0  0  1  0  0  0  0  0  0
  -29.0080  -21.8050   23.0610 C   0  0  0  0  0  1  0  0  0  0  0  0
  -30.6550  -19.4690   22.2330 C   0  0  0  0  0  2  0  0  0  0  0  0
  -31.8410  -18.6730   22.8090 C   0  0  0  0  0  2  0  0  0  0  0  0
  -31.4110  -17.4430   23.6270 C   0  0  0  0  0  2  0  0  0  0  0  0
  -30.3040  -16.5920   22.9830 C   0  0  0  0  0  2  0  0  0  0  0  0
  -30.6620  -15.9990   21.6090 C   0  0  0  0  0  2  0  0  0  0  0  0
  -29.4950  -15.1600   21.0770 C   0  0  0  0  0  2  0  0  0  0  0  0
  -29.8150  -14.2920   19.8490 C   0  0  0  0  0  0  0  0  0  0  0  0
  -29.5450  -12.1040   18.7320 C   0  0  0  0  0  2  0  0  0  0  0  0
  -28.4540  -12.0990   17.6490 C   0  0  0  0  0  2  0  0  0  0  0  0
  -27.0660  -11.8340   18.2640 C   0  0  0  0  0  2  0  0  0  0  0  0
  -26.7740  -12.7550   19.4740 C   0  0  0  0  0  3  0  0  0  0  0  0
  -27.9500  -12.7320   20.4690 C   0  0  0  0  0  2  0  0  0  0  0  0
  -29.1830  -13.0980   19.7470 N   0  0  0  0  0  0  0  0  0  0  0  0
  -30.6680  -14.6700   19.0370 O   0  0  0  0  0  0  0  0  0  0  0  0
  -24.4530  -13.2160   20.4960 C   0  0  0  0  0  0  0  0  0  0  0  0
  -23.4970  -12.3780   21.0040 C   0  0  0  0  0  0  0  0  0  0  0  0
  -24.0390  -11.0600   20.9100 C   0  0  0  0  0  0  0  0  0  0  0  0
  -25.5150  -12.4030   20.1270 N   0  0  0  0  0  0  0  0  0  0  0  0
  -25.2750  -11.1020   20.4310 N   0  0  0  0  0  0  0  0  0  0  0  0
  -23.4310   -9.7530   21.1960 C   0  0  0  0  0  0  0  0  0  0  0  0
  -23.9940   -8.8680   22.1410 C   0  0  0  0  0  3  0  0  0  0  0  0
  -23.3810   -7.6240   22.4080 C   0  0  0  0  0  3  0  0  0  0  0  0
  -22.1940   -7.2580   21.7320 C   0  0  0  0  0  0  0  0  0  0  0  0
  -21.6520   -8.1330   20.7750 C   0  0  0  0  0  3  0  0  0  0  0  0
  -22.2650   -9.3690   20.5060 C   0  0  0  0  0  3  0  0  0  0  0  0
  -21.5430   -6.0610   21.9100 O   0  0  0  0  0  0  0  0  0  0  0  0
  -21.5670   -5.4010   23.1120 C   0  0  0  0  0  0  0  0  0  0  0  0
  -21.0990   -6.0010   24.3020 C   0  0  0  0  0  3  0  0  0  0  0  0
  -21.0770   -5.2620   25.5000 C   0  0  0  0  0  3  0  0  0  0  0  0
  -21.5130   -3.9240   25.5120 C   0  0  0  0  0  0  0  0  0  0  0  0
  -21.9740   -3.3230   24.3280 C   0  0  0  0  0  3  0  0  0  0  0  0
  -21.9990   -4.0600   23.1310 C   0  0  0  0  0  0  0  0  0  0  0  0
  -22.4250   -3.4690   21.9880 F   0  0  0  0  0  0  0  0  0  0  0  0
  -21.4840   -3.2110   26.6640 F   0  0  0  0  0  0  0  0  0  0  0  0
  -22.1200  -12.7630   21.4640 C   0  0  0  0  0  0  0  0  0  0  0  0
  -21.5710  -12.0390   22.4340 N   0  0  0  0  0  0  0  0  0  0  0  0
  -21.5400  -13.7420   20.9940 O   0  0  0  0  0  0  0  0  0  0  0  0
  -22.0530  -11.2470   22.8310 H   0  0  0  0  0  0  0  0  0  0  0  0
  -20.6550  -12.2820   22.7830 H   0  0  0  0  0  0  0  0  0  0  0  0
  -24.5050  -14.5940   20.2980 N   0  0  0  0  0  0  0  0  0  0  0  0
  -23.7260  -15.2060   20.5180 H   0  0  0  0  0  0  0  0  0  0  0  0
  -25.2840  -15.0810   19.8730 H   0  0  0  0  0  0  0  0  0  0  0  0
  -29.7100  -24.5570   21.8770 C   0  0  0  0  0  3  0  0  0  0  0  0
  -30.3760  -25.3670   22.9100 N   0  0  0  0  0  4  0  0  0  0  0  0
  -31.2640  -25.7050   22.5840 H   0  0  0  0  0  0  0  0  0  0  0  0
  -30.5440  -24.8040   23.7260 H   0  0  0  0  0  0  0  0  0  0  0  0
  -29.8160  -26.1520   23.1890 H   0  0  0  0  0  0  0  0  0  0  0  0
  -29.4000  -25.3630   20.5870 C   0  0  0  0  0  2  0  0  0  0  0  0
  -28.4480  -26.5530   20.7870 C   0  0  0  0  0  2  0  0  0  0  0  0
  -27.8200  -26.8400   19.5430 O   0  0  0  0  0  0  0  0  0  0  0  0
  -24.3150  -31.9790   22.9980 C   0  0  0  0  0  0  0  0  0  0  0  0
  -26.6910  -27.6110   19.6520 C   0  0  0  0  0  0  0  0  0  0  0  0
  -22.9910  -30.6630   21.3730 C   0  0  0  0  0  3  0  0  0  0  0  0
  -24.3350  -29.1390   19.8290 C   0  0  0  0  0  0  0  0  0  0  0  0
  -25.5070  -30.9780   21.0550 C   0  0  0  0  0  2  0  0  0  0  0  0
  -25.5270  -29.6260   20.3780 C   0  0  0  0  0  0  0  0  0  0  0  0
  -26.7110  -28.8650   20.3000 C   0  0  0  0  0  3  0  0  0  0  0  0
  -25.4930  -27.1350   19.0870 C   0  0  0  0  0  3  0  0  0  0  0  0
  -24.3080  -27.8890   19.1840 C   0  0  0  0  0  3  0  0  0  0  0  0
  -23.1130  -30.0230   19.9640 C   0  0  0  0  0  2  0  0  0  0  0  0
  -24.2930  -31.2170   21.8690 N   0  0  0  0  0  0  0  0  0  0  0  0
  -23.2700  -32.2600   23.6010 O   0  0  0  0  0  0  0  0  0  0  0  0
  -22.3640  -29.6260   22.3320 C   0  0  0  0  0  0  0  0  0  0  0  0
  -21.0290  -29.4820   22.2660 N   0  0  0  0  0  0  0  0  0  0  0  0
  -23.0710  -28.9560   23.0890 O   0  0  0  0  0  0  0  0  0  0  0  0
  -20.5190  -30.0760   21.6270 H   0  0  0  0  0  0  0  0  0  0  0  0
  -17.6520  -28.3700   22.8900 C   0  0  0  0  0  0  0  0  0  0  0  0
  -20.2260  -28.5410   23.0450 C   0  0  0  0  0  3  0  0  0  0  0  0
  -20.2570  -27.1280   22.4190 C   0  0  0  0  0  2  0  0  0  0  0  0
  -19.1000  -26.8740   21.4500 C   0  0  0  0  0  2  0  0  0  0  0  0
  -17.7540  -27.0390   22.1640 C   0  0  0  0  0  2  0  0  0  0  0  0
  -18.8140  -29.0810   23.2900 C   0  0  0  0  0  0  0  0  0  0  0  0
  -18.6640  -30.3290   23.9310 C   0  0  0  0  0  3  0  0  0  0  0  0
  -17.3860  -30.8640   24.1750 C   0  0  0  0  0  3  0  0  0  0  0  0
  -16.2390  -30.1480   23.7940 C   0  0  0  0  0  3  0  0  0  0  0  0
  -16.3730  -28.9020   23.1550 C   0  0  0  0  0  3  0  0  0  0  0  0
  -25.6480  -32.5530   23.5720 C   0  0  0  0  0  3  0  0  0  0  0  0
  -26.2300  -31.7010   24.7670 C   0  0  1  0  0  0  0  0  0  0  0  0
  -25.2020  -31.4230   25.8890 C   0  0  0  0  0  1  0  0  0  0  0  0
  -26.7560  -30.3400   24.2540 C   0  0  0  0  0  1  0  0  0  0  0  0
  -27.4380  -32.4340   25.3940 C   0  0  0  0  0  1  0  0  0  0  0  0
  -25.3870  -33.9350   23.9960 N   0  0  0  0  0  0  0  0  0  0  0  0
  -25.7370  -35.0210   23.2990 C   0  0  0  0  0  0  0  0  0  0  0  0
  -26.3840  -34.9640   22.2490 O   0  0  0  0  0  0  0  0  0  0  0  0
  -24.8110  -34.0570   24.8170 H   0  0  0  0  0  0  0  0  0  0  0  0
  -24.0600  -36.8810   23.0800 C   0  0  0  0  0  1  0  0  0  0  0  0
  -25.2950  -36.3900   23.8500 C   0  0  0  0  0  3  0  0  0  0  0  0
  -27.4660  -37.1500   24.7040 C   0  0  0  0  0  1  0  0  0  0  0  0
  -26.3570  -37.4160   23.7910 N   0  0  0  0  0  0  0  0  0  0  0  0
  -25.9850  -38.3380   24.0090 H   0  0  0  0  0  0  0  0  0  0  0  0
  1  4  1  0
  2  5  2  0
  3  2  1  0
  3  1  2  0
  4  6  2  0
  4  9  1  0
  5 51  1  0
  5  6  1  0
  6  8  1  0
  7  3  1  0
  9 10  1  0
 10 11  1  0
 12 11  1  0
 13 12  1  0
 14 13  1  0
 15 14  1  0
 16 21  1  0
 17 18  1  0
 17 16  1  0
 19 18  1  0
 19 26  1  0
 19 20  1  0
 21 15  1  0
 21 20  1  0
 22 15  2  0
 23 24  2  0
 24 43  1  0
 25 24  1  0
 25 28  1  0
 26 27  1  0
 26 23  1  0
 27 25  2  0
 28 29  1  0
 29 30  2  0
 31 34  1  0
 31 30  1  0
 32 31  2  0
 33 32  1  0
 33 28  2  0
 34 35  1  0
 35 40  2  0
 35 36  1  0
 36 37  2  0
 37 38  1  0
 38 42  1  0
 39 38  2  0
 40 39  1  0
 41 40  1  0
 43 44  1  0
 44 47  1  0
 44 46  1  0
 45 43  2  0
 48 23  1  0
 48 49  1  0
 50 48  1  0
 51 56  1  0
 51 52  1  0
 52 55  1  0
 52 54  1  0
 53 52  1  0
 56 57  1  0
 58 60  1  0
 58 57  1  0
 59 70  2  0
 60 65  1  0
 61 69  1  0
 61 71  1  0
 62 68  1  0
 62 64  1  0
 63 69  1  0
 64 63  1  0
 65 64  2  0
 66 67  1  0
 66 60  2  0
 67 62  2  0
 68 61  1  0
 69 59  1  0
 71 73  2  0
 72 71  1  0
 74 72  1  0
 75 84  2  0
 75 80  1  0
 76 72  1  0
 76 80  1  0
 77 76  1  0
 78 79  1  0
 78 77  1  0
 79 75  1  0
 80 81  2  0
 81 82  1  0
 83 82  2  0
 84 83  1  0
 85 59  1  0
 85 90  1  0
 85 86  1  0
 86 89  1  1
 86 87  1  0
 88 86  1  0
 90 93  1  0
 91 95  1  0
 91 90  1  0
 92 91  2  0
 95 94  1  0
 97 95  1  0
 97 98  1  0
 97 96  1  0
M  ISO  4  14 100  15 100  57 101  58 101
M  END
>  <TORSDO>  (12) 
F 26

>  <SCORE>  (12) 
-6.721

>  <name>  (12) 
11

>  <ligand_id>  (12) 
11

>  <original_smiles>  (12) 
[H]c1c([H])c([H])c2c(c1[H])C([H])([H])C([H])([H])C([H])([H])C2([H])N([H])C(=O)C1([H])N(C(=O)C([H])(N([H])C(=O)C([H])(N([H])C([H])([H])[H])C([H])([H])[H])C(C([H])([H])[H])(C([H])([H])[H])C([H])([H])[H])C([H])([H])c2c([H])c(OC([H])([H])C([H])([H])C([H])(c3c([H])c(C([H])([H])[H])c([H])c(C([H])([H])C([H])([H])C([H])([H])C([H])([H])C([H])([H])C([H])([H])C(=O)N4C([H])([H])C([H])([H])C([H])([H])C([H])(n5nc(-c6c([H])c([H])c(Oc7c([H])c([H])c(F)c([H])c7F)c([H])c6[H])c(C(=O)N([H])[H])c5N([H])[H])C4([H])[H])c3C([H])([H])[H])[N+]([H])([H])[H])c([H])c([H])c2C1([H])[H]

>  <smiles>  (12) 
[H]c1c([H])c([H])c2c(c1[H])C([H])([H])C([H])([H])C([H])([H])C2([H])N([H])C(=O)C1([H])N(C(=O)C([H])(N([H])C(=O)C([H])(N([H])C([H])([H])[H])C([H])([H])[H])C(C([H])([H])[H])(C([H])([H])[H])C([H])([H])[H])C([H])([H])c2c([H])c(OC([H])([H])C([H])([H])C([H])(c3c([H])c(C([H])([H])[H])c([H])c(C([H])([H])C([H])([H])C([H])([H])C([H])([H])C([H])([H])C([H])([H])C(=O)N4C([H])([H])C([H])([H])C([H])([H])C([H])(n5nc(-c6c([H])c([H])c(Oc7c([H])c([H])c(F)c([H])c7F)c([H])c6[H])c(C(=O)N([H])[H])c5N([H])[H])C4([H])[H])c3C([H])([H])[H])[N+]([H])([H])[H])c([H])c([H])c2C1([H])[H]

$$$$
12:0:0
     RDKit          3D

 99107  0  0  1  0  0  0  0  0999 V2000
  -31.9030  -26.1960   19.1070 C   0  0  0  0  0  3  0  0  0  0  0  0
  -29.6880  -27.7140   18.3050 C   0  0  0  0  0  3  0  0  0  0  0  0
  -32.0540  -27.0930   18.0220 C   0  0  0  0  0  0  0  0  0  0  0  0
  -30.6640  -26.0210   19.7590 C   0  0  0  0  0  0  0  0  0  0  0  0
  -30.9180  -27.8590   17.6210 C   0  0  0  0  0  0  0  0  0  0  0  0
  -29.5500  -26.8060   19.3730 C   0  0  0  0  0  0  0  0  0  0  0  0
  -30.9560  -28.8330   16.4500 C   0  0  0  0  0  1  0  0  0  0  0  0
  -33.4090  -27.2530   17.3860 C   0  0  0  0  0  0  0  0  0  0  0  0
  -33.7930  -28.3030   16.8630 O   0  0  0  0  0  0  0  0  0  0  0  0
  -34.4800  -25.4340   15.9500 C   0  0  0  0  0  1  0  0  0  0  0  0
  -34.3670  -26.0510   17.3510 C   0  0  0  0  0  2  0  0  0  0  0  0
  -30.5650  -25.0350   20.8740 C   0  0  0  0  0  0  0  0  0  0  0  0
  -29.9120  -25.2380   21.9010 O   0  0  0  0  0  0  0  0  0  0  0  0
  -31.3340  -23.7150   20.6840 C   0  0  0  0  0  2  0  0  0  0  0  0
  -30.6740  -22.4810   21.3360 C   0  0  0  0  0  2  0  0  0  0  0  0
  -29.7030  -21.7230   20.4130 C   0  0  0  0  0  2  0  0  0  0  0  0
  -28.9360  -20.6310   21.1770 C   0  0  0  0  0  2  0  0  0  0  0  0
  -28.1300  -19.6870   20.2660 C   0  0  0  0  0  2  0  0  0  0  0  0
  -28.9640  -18.5590   19.6240 C   0  0  0  0  0  2  0  0  0  0  0  0
  -29.5200  -17.5290   20.6320 C   0  0  0  0  0  2  0  0  0  0  0  0
  -30.1610  -16.3010   19.9550 C   0  0  0  0  0  2  0  0  0  0  0  0
  -30.8910  -15.3580   20.9440 C   0  0  0  0  0  2  0  0  0  0  0  0
  -31.3890  -14.0650   20.2660 C   0  0  0  0  0  0  0  0  0  0  0  0
  -30.9840  -11.7830   19.4060 C   0  0  0  0  0  2  0  0  0  0  0  0
  -30.0830  -11.8410   18.1580 C   0  0  0  0  0  2  0  0  0  0  0  0
  -28.5920  -11.8320   18.5610 C   0  0  0  0  0  2  0  0  0  0  0  0
  -28.2700  -12.8810   19.6540 C   0  0  0  0  0  3  0  0  0  0  0  0
  -29.2850  -12.7990   20.8180 C   0  0  0  0  0  2  0  0  0  0  0  0
  -30.6410  -12.9290   20.2670 N   0  0  0  0  0  0  0  0  0  0  0  0
  -32.4750  -14.1280   19.6870 O   0  0  0  0  0  0  0  0  0  0  0  0
  -25.9460  -13.7480   20.3450 C   0  0  0  0  0  0  0  0  0  0  0  0
  -24.8020  -13.0960   20.7280 C   0  0  0  0  0  0  0  0  0  0  0  0
  -25.1260  -11.7050   20.7280 C   0  0  0  0  0  0  0  0  0  0  0  0
  -26.8950  -12.7610   20.1330 N   0  0  0  0  0  0  0  0  0  0  0  0
  -26.4060  -11.5300   20.4310 N   0  0  0  0  0  0  0  0  0  0  0  0
  -24.2770  -10.5290   20.9480 C   0  0  0  0  0  0  0  0  0  0  0  0
  -24.6260   -9.5340   21.8890 C   0  0  0  0  0  3  0  0  0  0  0  0
  -23.7860   -8.4200   22.0930 C   0  0  0  0  0  3  0  0  0  0  0  0
  -22.5840   -8.2920   21.3600 C   0  0  0  0  0  0  0  0  0  0  0  0
  -22.2520   -9.2730   20.4090 C   0  0  0  0  0  3  0  0  0  0  0  0
  -23.0910  -10.3800   20.2010 C   0  0  0  0  0  3  0  0  0  0  0  0
  -21.7180   -7.2310   21.4770 O   0  0  0  0  0  0  0  0  0  0  0  0
  -21.6290   -6.4990   22.6330 C   0  0  0  0  0  0  0  0  0  0  0  0
  -21.3040   -7.0940   23.8720 C   0  0  0  0  0  3  0  0  0  0  0  0
  -21.1520   -6.2910   25.0210 C   0  0  0  0  0  3  0  0  0  0  0  0
  -21.3170   -4.8950   24.9330 C   0  0  0  0  0  0  0  0  0  0  0  0
  -21.6330   -4.3010   23.6980 C   0  0  0  0  0  3  0  0  0  0  0  0
  -21.7850   -5.1020   22.5520 C   0  0  0  0  0  0  0  0  0  0  0  0
  -22.0700   -4.5220   21.3620 F   0  0  0  0  0  0  0  0  0  0  0  0
  -21.1670   -4.1210   26.0310 F   0  0  0  0  0  0  0  0  0  0  0  0
  -23.4600  -13.7180   20.9830 C   0  0  0  0  0  0  0  0  0  0  0  0
  -22.6690  -13.1330   21.8770 N   0  0  0  0  0  0  0  0  0  0  0  0
  -23.1220  -14.7560   20.4150 O   0  0  0  0  0  0  0  0  0  0  0  0
  -22.9610  -12.2980   22.3640 H   0  0  0  0  0  0  0  0  0  0  0  0
  -21.7640  -13.5320   22.0850 H   0  0  0  0  0  0  0  0  0  0  0  0
  -26.2500  -15.0890   20.1400 N   0  0  0  0  0  0  0  0  0  0  0  0
  -25.5530  -15.8170   20.2450 H   0  0  0  0  0  0  0  0  0  0  0  0
  -27.1450  -15.4410   19.8280 H   0  0  0  0  0  0  0  0  0  0  0  0
  -28.3570  -26.5850   20.0220 O   0  0  0  0  0  0  0  0  0  0  0  0
  -24.5770  -31.7330   23.1140 C   0  0  0  0  0  0  0  0  0  0  0  0
  -27.2570  -27.4020   19.9370 C   0  0  0  0  0  0  0  0  0  0  0  0
  -23.3790  -30.3550   21.4420 C   0  0  0  0  0  3  0  0  0  0  0  0
  -24.8470  -28.8630   19.9850 C   0  0  0  0  0  0  0  0  0  0  0  0
  -25.8980  -30.7460   21.2520 C   0  0  0  0  0  2  0  0  0  0  0  0
  -26.0000  -29.3920   20.5810 C   0  0  0  0  0  0  0  0  0  0  0  0
  -27.2120  -28.6650   20.5620 C   0  0  0  0  0  3  0  0  0  0  0  0
  -26.0940  -26.8760   19.3430 C   0  0  0  0  0  3  0  0  0  0  0  0
  -24.8880  -27.6020   19.3610 C   0  0  0  0  0  3  0  0  0  0  0  0
  -23.5930  -29.7040   20.0500 C   0  0  0  0  0  2  0  0  0  0  0  0
  -24.6350  -30.9570   21.9970 N   0  0  0  0  0  0  0  0  0  0  0  0
  -23.4930  -31.9900   23.6600 O   0  0  0  0  0  0  0  0  0  0  0  0
  -22.7300  -29.3150   22.3850 C   0  0  0  0  0  0  0  0  0  0  0  0
  -21.4000  -29.1610   22.2790 N   0  0  0  0  0  0  0  0  0  0  0  0
  -23.4200  -28.6520   23.1640 O   0  0  0  0  0  0  0  0  0  0  0  0
  -20.9060  -29.7440   21.6210 H   0  0  0  0  0  0  0  0  0  0  0  0
  -18.0140  -28.0290   22.8310 C   0  0  0  0  0  0  0  0  0  0  0  0
  -20.5830  -28.2140   23.0380 C   0  0  0  0  0  3  0  0  0  0  0  0
  -20.6350  -26.8050   22.4020 C   0  0  0  0  0  2  0  0  0  0  0  0
  -19.4960  -26.5490   21.4090 C   0  0  0  0  0  2  0  0  0  0  0  0
  -18.1370  -26.7040   22.0980 C   0  0  0  0  0  2  0  0  0  0  0  0
  -19.1630  -28.7450   23.2580 C   0  0  0  0  0  0  0  0  0  0  0  0
  -18.9940  -29.9880   23.9050 C   0  0  0  0  0  3  0  0  0  0  0  0
  -17.7090  -30.5150   24.1290 C   0  0  0  0  0  3  0  0  0  0  0  0
  -16.5740  -29.7950   23.7180 C   0  0  0  0  0  3  0  0  0  0  0  0
  -16.7270  -28.5540   23.0740 C   0  0  0  0  0  3  0  0  0  0  0  0
  -25.8590  -32.3580   23.7480 C   0  0  0  0  0  3  0  0  0  0  0  0
  -26.3860  -31.5580   25.0020 C   0  0  1  0  0  0  0  0  0  0  0  0
  -25.3010  -31.2950   26.0690 C   0  0  0  0  0  1  0  0  0  0  0  0
  -26.9710  -30.1910   24.5730 C   0  0  0  0  0  1  0  0  0  0  0  0
  -27.5390  -32.3390   25.6760 C   0  0  0  0  0  1  0  0  0  0  0  0
  -25.5430  -33.7450   24.1110 N   0  0  0  0  0  0  0  0  0  0  0  0
  -25.8700  -34.8160   23.3770 C   0  0  0  0  0  0  0  0  0  0  0  0
  -26.5420  -34.7410   22.3440 O   0  0  0  0  0  0  0  0  0  0  0  0
  -24.9440  -33.8780   24.9130 H   0  0  0  0  0  0  0  0  0  0  0  0
  -24.1310  -36.6070   23.0570 C   0  0  0  0  0  1  0  0  0  0  0  0
  -25.3720  -36.1900   23.8640 C   0  0  0  0  0  3  0  0  0  0  0  0
  -27.5000  -37.0670   24.7220 C   0  0  0  0  0  1  0  0  0  0  0  0
  -26.3990  -37.2520   23.7800 N   0  0  0  0  0  0  0  0  0  0  0  0
  -25.9870  -38.1650   23.9490 H   0  0  0  0  0  0  0  0  0  0  0  0
  1  4  1  0
  2  6  1  0
  3  1  2  0
  4 12  1  0
  5  3  1  0
  5  2  2  0
  6  4  2  0
  6 59  1  0
  7  5  1  0
  8  3  1  0
  9  8  2  0
 10 11  1  0
 11  8  1  0
 12 13  2  0
 14 12  1  0
 14 15  1  0
 16 17  1  0
 16 15  1  0
 18 17  1  0
 19 18  1  0
 19 20  1  0
 21 20  1  0
 21 22  1  0
 23 29  1  0
 23 22  1  0
 24 29  1  0
 25 26  1  0
 25 24  1  0
 27 26  1  0
 27 34  1  0
 27 28  1  0
 29 28  1  0
 30 23  2  0
 31 32  2  0
 32 51  1  0
 33 32  1  0
 33 36  1  0
 34 31  1  0
 34 35  1  0
 35 33  2  0
 36 37  1  0
 37 38  2  0
 39 42  1  0
 39 38  1  0
 40 39  2  0
 41 40  1  0
 41 36  2  0
 42 43  1  0
 43 44  1  0
 44 45  2  0
 46 45  1  0
 46 50  1  0
 47 46  2  0
 48 43  2  0
 48 47  1  0
 49 48  1  0
 51 52  1  0
 52 55  1  0
 52 54  1  0
 53 51  2  0
 56 57  1  0
 56 31  1  0
 58 56  1  0
 60 71  2  0
 61 59  1  0
 61 66  1  0
 62 70  1  0
 62 72  1  0
 63 69  1  0
 63 65  1  0
 64 70  1  0
 65 64  1  0
 66 65  2  0
 67 68  1  0
 67 61  2  0
 68 63  2  0
 69 62  1  0
 70 60  1  0
 72 74  2  0
 73 72  1  0
 75 73  1  0
 76 85  2  0
 76 81  1  0
 77 73  1  0
 77 81  1  0
 78 77  1  0
 79 80  1  0
 79 78  1  0
 80 76  1  0
 81 82  2  0
 82 83  1  0
 84 83  2  0
 85 84  1  0
 86 60  1  0
 86 91  1  0
 86 87  1  0
 87 90  1  1
 87 88  1  0
 89 87  1  0
 91 94  1  0
 92 96  1  0
 92 91  1  0
 93 92  2  0
 96 95  1  0
 98 96  1  0
 98 99  1  0
 98 97  1  0
M  ISO  4   6 101  22 100  23 100  59 101
M  END
>  <TORSDO>  (13) 
F 28

>  <SCORE>  (13) 
-11.318

>  <name>  (13) 
12

>  <ligand_id>  (13) 
12

>  <original_smiles>  (13) 
[H]c1c([H])c([H])c2c(c1[H])C([H])([H])C([H])([H])C([H])([H])C2([H])N([H])C(=O)C1([H])N(C(=O)C([H])(N([H])C(=O)C([H])(N([H])C([H])([H])[H])C([H])([H])[H])C(C([H])([H])[H])(C([H])([H])[H])C([H])([H])[H])C([H])([H])c2c([H])c(Oc3c([H])c(C([H])([H])[H])c(C(=O)C([H])([H])C([H])([H])[H])c([H])c3C(=O)C([H])([H])C([H])([H])C([H])([H])C([H])([H])C([H])([H])C([H])([H])C([H])([H])C([H])([H])C([H])([H])C(=O)N3C([H])([H])C([H])([H])C([H])([H])C([H])(n4nc(-c5c([H])c([H])c(Oc6c([H])c([H])c(F)c([H])c6F)c([H])c5[H])c(C(=O)N([H])[H])c4N([H])[H])C3([H])[H])c([H])c([H])c2C1([H])[H]

>  <smiles>  (13) 
[H]c1c([H])c([H])c2c(c1[H])C([H])([H])C([H])([H])C([H])([H])C2([H])N([H])C(=O)C1([H])N(C(=O)C([H])(N([H])C(=O)C([H])(N([H])C([H])([H])[H])C([H])([H])[H])C(C([H])([H])[H])(C([H])([H])[H])C([H])([H])[H])C([H])([H])c2c([H])c(Oc3c([H])c(C([H])([H])[H])c(C(=O)C([H])([H])C([H])([H])[H])c([H])c3C(=O)C([H])([H])C([H])([H])C([H])([H])C([H])([H])C([H])([H])C([H])([H])C([H])([H])C([H])([H])C([H])([H])C(=O)N3C([H])([H])C([H])([H])C([H])([H])C([H])(n4nc(-c5c([H])c([H])c(Oc6c([H])c([H])c(F)c([H])c6F)c([H])c5[H])c(C(=O)N([H])[H])c4N([H])[H])C3([H])[H])c([H])c([H])c2C1([H])[H]

$$$$
13:0:0
     RDKit          3D

 92100  0  0  1  0  0  0  0  0999 V2000
  -28.6040  -23.9860   17.6520 C   0  0  0  0  0  2  0  0  0  0  0  0
  -27.5770  -24.0350   18.6190 C   0  0  0  0  0  3  0  0  0  0  0  0
  -30.1150  -23.2830   19.4250 C   0  0  0  0  0  0  0  0  0  0  0  0
  -28.9430  -23.0640   20.1970 C   0  0  0  0  0  3  0  0  0  0  0  0
  -29.9390  -23.7550   18.0900 C   0  0  0  0  0  0  0  0  0  0  0  0
  -27.9980  -24.2880   19.9440 C   0  0  0  0  0  3  0  0  0  0  0  0
  -26.1800  -23.5550   18.2640 C   0  0  0  0  0  1  0  0  0  0  0  0
  -31.4230  -22.6080   19.7950 C   0  0  0  0  0  1  0  0  0  0  0  0
  -30.7980  -23.9960   15.8530 C   0  0  0  0  0  1  0  0  0  0  0  0
  -31.0280  -23.7480   17.2390 O   0  0  0  0  0  0  0  0  0  0  0  0
  -28.1630  -25.8150   20.1960 O   0  0  0  0  0  0  0  0  0  0  0  0
  -24.6410  -31.8710   23.2000 C   0  0  0  0  0  0  0  0  0  0  0  0
  -27.1660  -26.9480   20.1670 C   0  0  0  0  0  0  0  0  0  0  0  0
  -23.4350  -30.4660   21.5860 C   0  0  0  0  0  3  0  0  0  0  0  0
  -24.8700  -28.8650   20.1560 C   0  0  0  0  0  0  0  0  0  0  0  0
  -26.0050  -30.6700   21.4150 C   0  0  0  0  0  2  0  0  0  0  0  0
  -26.0710  -29.2560   20.7620 C   0  0  0  0  0  0  0  0  0  0  0  0
  -27.2110  -28.3210   20.7430 C   0  0  0  0  0  3  0  0  0  0  0  0
  -25.9220  -26.7350   19.5270 C   0  0  0  0  0  3  0  0  0  0  0  0
  -24.8230  -27.6210   19.5220 C   0  0  0  0  0  3  0  0  0  0  0  0
  -23.6530  -29.7860   20.2100 C   0  0  0  0  0  2  0  0  0  0  0  0
  -24.7160  -31.0300   22.1180 N   0  0  0  0  0  0  0  0  0  0  0  0
  -23.5550  -32.1650   23.7270 O   0  0  0  0  0  0  0  0  0  0  0  0
  -22.7530  -29.4680   22.5600 C   0  0  0  0  0  0  0  0  0  0  0  0
  -21.4230  -29.2930   22.4410 N   0  0  0  0  0  0  0  0  0  0  0  0
  -23.4240  -28.8530   23.3910 O   0  0  0  0  0  0  0  0  0  0  0  0
  -20.9320  -29.8350   21.7440 H   0  0  0  0  0  0  0  0  0  0  0  0
  -18.0490  -28.0590   22.9730 C   0  0  0  0  0  0  0  0  0  0  0  0
  -20.6070  -28.3570   23.2250 C   0  0  0  0  0  3  0  0  0  0  0  0
  -20.7230  -26.9200   22.6670 C   0  0  0  0  0  2  0  0  0  0  0  0
  -19.6230  -26.5730   21.6590 C   0  0  0  0  0  2  0  0  0  0  0  0
  -18.2410  -26.7070   22.3060 C   0  0  0  0  0  2  0  0  0  0  0  0
  -19.1600  -28.8410   23.3870 C   0  0  0  0  0  0  0  0  0  0  0  0
  -18.9270  -30.1040   23.9730 C   0  0  0  0  0  3  0  0  0  0  0  0
  -17.6160  -30.5890   24.1430 C   0  0  0  0  0  3  0  0  0  0  0  0
  -16.5200  -29.8050   23.7450 C   0  0  0  0  0  3  0  0  0  0  0  0
  -16.7360  -28.5410   23.1680 C   0  0  0  0  0  3  0  0  0  0  0  0
  -25.9140  -32.5210   23.8190 C   0  0  0  0  0  3  0  0  0  0  0  0
  -26.4360  -31.7660   25.1050 C   0  0  1  0  0  0  0  0  0  0  0  0
  -25.3470  -31.5380   26.1790 C   0  0  0  0  0  1  0  0  0  0  0  0
  -27.0220  -30.3860   24.7320 C   0  0  0  0  0  1  0  0  0  0  0  0
  -27.5840  -32.5710   25.7560 C   0  0  0  0  0  1  0  0  0  0  0  0
  -25.5950  -33.9210   24.1500 N   0  0  0  0  0  0  0  0  0  0  0  0
  -25.9170  -34.9810   23.3980 C   0  0  0  0  0  0  0  0  0  0  0  0
  -26.5780  -34.8860   22.3620 O   0  0  0  0  0  0  0  0  0  0  0  0
  -25.0080  -34.0730   24.9570 H   0  0  0  0  0  0  0  0  0  0  0  0
  -24.1820  -36.7750   23.0730 C   0  0  0  0  0  1  0  0  0  0  0  0
  -25.4300  -36.3660   23.8710 C   0  0  0  0  0  3  0  0  0  0  0  0
  -27.5680  -37.2460   24.6970 C   0  0  0  0  0  1  0  0  0  0  0  0
  -26.4590  -37.4240   23.7630 N   0  0  0  0  0  0  0  0  0  0  0  0
  -26.0510  -38.3410   23.9270 H   0  0  0  0  0  0  0  0  0  0  0  0
  -28.6400  -21.3300   20.1270 C   0  0  0  0  0  2  0  0  0  0  0  0
  -29.4300  -19.8120   20.7250 C   0  0  0  0  0  2  0  0  0  0  0  0
  -29.7670  -18.1780   20.0100 C   0  0  0  0  0  2  0  0  0  0  0  0
  -30.4520  -15.3060   20.3430 C   0  0  0  0  0  0  0  0  0  0  0  0
  -30.4200  -12.8510   19.4860 C   0  0  0  0  0  2  0  0  0  0  0  0
  -29.5220  -12.6790   18.2330 C   0  0  0  0  0  2  0  0  0  0  0  0
  -28.0610  -12.4270   18.6420 C   0  0  0  0  0  2  0  0  0  0  0  0
  -27.6060  -13.3800   19.7730 C   0  0  0  0  0  3  0  0  0  0  0  0
  -28.6360  -13.5030   20.9200 C   0  0  0  0  0  2  0  0  0  0  0  0
  -29.8860  -13.9970   20.3190 N   0  0  0  0  0  0  0  0  0  0  0  0
  -31.6520  -15.3130   20.0400 O   0  0  0  0  0  0  0  0  0  0  0  0
  -29.6990  -16.5770   20.5130 N   0  0  0  0  0  0  0  0  0  0  0  0
  -28.7700  -16.3610   20.8370 H   0  0  0  0  0  0  0  0  0  0  0  0
  -25.2140  -13.9330   20.4590 C   0  0  0  0  0  0  0  0  0  0  0  0
  -24.1500  -13.1560   20.8160 C   0  0  0  0  0  0  0  0  0  0  0  0
  -24.6240  -11.8060   20.8120 C   0  0  0  0  0  0  0  0  0  0  0  0
  -26.2680  -13.0620   20.2530 N   0  0  0  0  0  0  0  0  0  0  0  0
  -25.9220  -11.7770   20.5310 N   0  0  0  0  0  0  0  0  0  0  0  0
  -23.9000  -10.5450   21.0030 C   0  0  0  0  0  0  0  0  0  0  0  0
  -24.3140   -9.5860   21.9540 C   0  0  0  0  0  3  0  0  0  0  0  0
  -23.5850   -8.3910   22.1310 C   0  0  0  0  0  3  0  0  0  0  0  0
  -22.4270   -8.1430   21.3570 C   0  0  0  0  0  0  0  0  0  0  0  0
  -22.0310   -9.0900   20.3950 C   0  0  0  0  0  3  0  0  0  0  0  0
  -22.7610  -10.2770   20.2160 C   0  0  0  0  0  3  0  0  0  0  0  0
  -21.6700   -7.0000   21.4450 O   0  0  0  0  0  0  0  0  0  0  0  0
  -21.5970   -6.2700   22.6050 C   0  0  0  0  0  0  0  0  0  0  0  0
  -21.1430   -6.8400   23.8140 C   0  0  0  0  0  3  0  0  0  0  0  0
  -21.0190   -6.0380   24.9660 C   0  0  0  0  0  3  0  0  0  0  0  0
  -21.3370   -4.6670   24.9080 C   0  0  0  0  0  0  0  0  0  0  0  0
  -21.7840   -4.0980   23.7030 C   0  0  0  0  0  3  0  0  0  0  0  0
  -21.9100   -4.8970   22.5540 C   0  0  0  0  0  0  0  0  0  0  0  0
  -22.3210   -4.3390   21.3900 F   0  0  0  0  0  0  0  0  0  0  0  0
  -21.2120   -3.8950   26.0130 F   0  0  0  0  0  0  0  0  0  0  0  0
  -22.7460  -13.6270   21.0490 C   0  0  0  0  0  0  0  0  0  0  0  0
  -22.0050  -12.9360   21.9060 N   0  0  0  0  0  0  0  0  0  0  0  0
  -22.3170  -14.6460   20.5090 O   0  0  0  0  0  0  0  0  0  0  0  0
  -22.3600  -12.1070   22.3600 H   0  0  0  0  0  0  0  0  0  0  0  0
  -21.0650  -13.2400   22.1160 H   0  0  0  0  0  0  0  0  0  0  0  0
  -25.3700  -15.3020   20.2620 N   0  0  0  0  0  0  0  0  0  0  0  0
  -24.5930  -15.9470   20.3500 H   0  0  0  0  0  0  0  0  0  0  0  0
  -26.2070  -15.7430   19.9070 H   0  0  0  0  0  0  0  0  0  0  0  0
  1  5  1  0
  1  2  1  0
  2  7  1  0
  2  6  1  0
  3  8  1  0
  3  4  1  0
  4 52  1  0
  5  3  2  0
  6 11  1  0
  6  4  1  0
  9 10  1  0
 10  5  1  0
 12 23  2  0
 13 11  1  0
 13 18  1  0
 14 22  1  0
 14 24  1  0
 15 21  1  0
 15 17  1  0
 16 22  1  0
 17 16  1  0
 18 17  2  0
 19 13  2  0
 20 19  1  0
 20 15  2  0
 21 14  1  0
 22 12  1  0
 24 26  2  0
 25 24  1  0
 27 25  1  0
 28 37  2  0
 28 33  1  0
 29 25  1  0
 29 33  1  0
 30 29  1  0
 31 32  1  0
 31 30  1  0
 32 28  1  0
 33 34  2  0
 34 35  1  0
 36 35  2  0
 37 36  1  0
 38 12  1  0
 38 43  1  0
 38 39  1  0
 39 42  1  1
 39 40  1  0
 41 39  1  0
 43 46  1  0
 44 48  1  0
 44 43  1  0
 45 44  2  0
 48 47  1  0
 50 48  1  0
 50 51  1  0
 50 49  1  0
 52 53  1  0
 54 63  1  0
 54 53  1  0
 55 63  1  0
 56 61  1  0
 57 58  1  0
 57 56  1  0
 59 58  1  0
 59 68  1  0
 59 60  1  0
 61 55  1  0
 61 60  1  0
 62 55  2  0
 63 64  1  0
 65 66  2  0
 66 85  1  0
 67 66  1  0
 67 70  1  0
 68 65  1  0
 68 69  1  0
 69 67  2  0
 70 71  1  0
 71 72  2  0
 73 76  1  0
 73 72  1  0
 74 73  2  0
 75 74  1  0
 75 70  2  0
 76 77  1  0
 77 78  1  0
 78 79  2  0
 80 79  1  0
 80 84  1  0
 81 80  2  0
 82 77  2  0
 82 81  1  0
 83 82  1  0
 85 86  1  0
 86 89  1  0
 86 88  1  0
 87 85  2  0
 90 91  1  0
 90 65  1  0
 92 90  1  0
M  ISO  4   6 101  11 101  55 100  63 100
M  END
>  <TORSDO>  (14) 
F 20

>  <SCORE>  (14) 
-15.324

>  <name>  (14) 
13

>  <ligand_id>  (14) 
13

>  <original_smiles>  (14) 
[H]c1c([H])c([H])c2c(c1[H])C([H])([H])C([H])([H])C([H])([H])C2([H])N([H])C(=O)C1([H])N(C(=O)C([H])(N([H])C(=O)C([H])(N([H])C([H])([H])[H])C([H])([H])[H])C(C([H])([H])[H])(C([H])([H])[H])C([H])([H])[H])C([H])([H])c2c([H])c(Oc3c(C([H])([H])[H])c([H])c(OC([H])([H])[H])c(C([H])([H])[H])c3C([H])([H])C([H])([H])C([H])([H])N([H])C(=O)N3C([H])([H])C([H])([H])C([H])([H])C([H])(n4nc(-c5c([H])c([H])c(Oc6c([H])c([H])c(F)c([H])c6F)c([H])c5[H])c(C(=O)N([H])[H])c4N([H])[H])C3([H])[H])c([H])c([H])c2C1([H])[H]

>  <smiles>  (14) 
[H]c1c([H])c([H])c2c(c1[H])C([H])([H])C([H])([H])C([H])([H])C2([H])N([H])C(=O)C1([H])N(C(=O)C([H])(N([H])C(=O)C([H])(N([H])C([H])([H])[H])C([H])([H])[H])C(C([H])([H])[H])(C([H])([H])[H])C([H])([H])[H])C([H])([H])c2c([H])c(Oc3c(C([H])([H])[H])c([H])c(OC([H])([H])[H])c(C([H])([H])[H])c3C([H])([H])C([H])([H])C([H])([H])N([H])C(=O)N3C([H])([H])C([H])([H])C([H])([H])C([H])(n4nc(-c5c([H])c([H])c(Oc6c([H])c([H])c(F)c([H])c6F)c([H])c5[H])c(C(=O)N([H])[H])c4N([H])[H])C3([H])[H])c([H])c([H])c2C1([H])[H]

$$$$
14:0:0
     RDKit          3D

 92100  0  0  1  0  0  0  0  0999 V2000
  -28.1670  -23.2100   21.5700 C   0  0  0  0  0  3  0  0  0  0  0  0
  -28.1290  -24.6280   21.4660 C   0  0  0  0  0  0  0  0  0  0  0  0
  -28.4190  -22.3830   20.4480 C   0  0  0  0  0  0  0  0  0  0  0  0
  -28.3560  -25.2670   20.2200 C   0  0  0  0  0  0  0  0  0  0  0  0
  -28.6380  -24.4430   19.1010 C   0  0  0  0  0  0  0  0  0  0  0  0
  -28.6580  -23.0240   19.2080 C   0  0  0  0  0  0  0  0  0  0  0  0
  -27.8280  -25.4600   22.6990 C   0  0  0  0  0  1  0  0  0  0  0  0
  -28.8810  -22.2710   18.1020 F   0  0  0  0  0  0  0  0  0  0  0  0
  -28.8880  -25.0420   17.8980 O   0  0  0  0  0  0  0  0  0  0  0  0
  -28.8620  -25.9880   17.9920 H   0  0  0  0  0  0  0  0  0  0  0  0
  -28.3770  -26.6600   20.0940 O   0  0  0  0  0  0  0  0  0  0  0  0
  -24.5980  -31.8880   23.2320 C   0  0  0  0  0  0  0  0  0  0  0  0
  -27.2080  -27.4090   20.1270 C   0  0  0  0  0  0  0  0  0  0  0  0
  -23.3810  -30.4870   21.5980 C   0  0  0  0  0  3  0  0  0  0  0  0
  -24.8230  -28.9450   20.1620 C   0  0  0  0  0  0  0  0  0  0  0  0
  -25.9080  -30.8350   21.3830 C   0  0  0  0  0  2  0  0  0  0  0  0
  -25.9880  -29.4610   20.7420 C   0  0  0  0  0  0  0  0  0  0  0  0
  -27.1840  -28.6990   20.7220 C   0  0  0  0  0  3  0  0  0  0  0  0
  -26.0240  -26.9190   19.5380 C   0  0  0  0  0  3  0  0  0  0  0  0
  -24.8360  -27.6760   19.5570 C   0  0  0  0  0  3  0  0  0  0  0  0
  -23.5810  -29.8090   20.2170 C   0  0  0  0  0  2  0  0  0  0  0  0
  -24.6480  -31.0860   22.1290 N   0  0  0  0  0  0  0  0  0  0  0  0
  -23.5190  -32.1590   23.7780 O   0  0  0  0  0  0  0  0  0  0  0  0
  -22.7330  -29.4670   22.5630 C   0  0  0  0  0  0  0  0  0  0  0  0
  -21.4070  -29.2840   22.4440 N   0  0  0  0  0  0  0  0  0  0  0  0
  -23.4220  -28.8420   23.3740 O   0  0  0  0  0  0  0  0  0  0  0  0
  -20.9130  -29.8390   21.7600 H   0  0  0  0  0  0  0  0  0  0  0  0
  -18.0400  -28.0740   22.9530 C   0  0  0  0  0  0  0  0  0  0  0  0
  -20.5960  -28.3430   23.2190 C   0  0  0  0  0  3  0  0  0  0  0  0
  -20.7050  -26.9110   22.6460 C   0  0  0  0  0  2  0  0  0  0  0  0
  -19.6030  -26.5810   21.6350 C   0  0  0  0  0  2  0  0  0  0  0  0
  -18.2220  -26.7240   22.2810 C   0  0  0  0  0  2  0  0  0  0  0  0
  -19.1550  -28.8420   23.3800 C   0  0  0  0  0  0  0  0  0  0  0  0
  -18.9310  -30.1060   23.9670 C   0  0  0  0  0  3  0  0  0  0  0  0
  -17.6250  -30.6020   24.1300 C   0  0  0  0  0  3  0  0  0  0  0  0
  -16.5240  -29.8300   23.7220 C   0  0  0  0  0  3  0  0  0  0  0  0
  -16.7320  -28.5680   23.1390 C   0  0  0  0  0  3  0  0  0  0  0  0
  -25.8870  -32.5200   23.8420 C   0  0  0  0  0  3  0  0  0  0  0  0
  -25.5780  -33.9160   24.1820 N   0  0  0  0  0  0  0  0  0  0  0  0
  -25.9010  -34.9720   23.4240 C   0  0  0  0  0  0  0  0  0  0  0  0
  -26.5570  -34.8740   22.3840 O   0  0  0  0  0  0  0  0  0  0  0  0
  -24.9950  -34.0660   24.9930 H   0  0  0  0  0  0  0  0  0  0  0  0
  -24.1640  -36.7610   23.0990 C   0  0  0  0  0  1  0  0  0  0  0  0
  -25.4170  -36.3590   23.8930 C   0  0  0  0  0  3  0  0  0  0  0  0
  -27.5620  -37.2430   24.6970 C   0  0  0  0  0  1  0  0  0  0  0  0
  -26.4460  -37.4130   23.7690 N   0  0  0  0  0  0  0  0  0  0  0  0
  -26.0420  -38.3330   23.9270 H   0  0  0  0  0  0  0  0  0  0  0  0
  -26.4210  -31.7410   25.1060 C   0  0  1  0  0  0  0  0  0  0  0  0
  -25.3420  -31.4960   26.1860 C   0  0  0  0  0  1  0  0  0  0  0  0
  -27.0000  -30.3680   24.6950 C   0  0  0  0  0  1  0  0  0  0  0  0
  -27.5820  -32.5310   25.7560 C   0  0  0  0  0  1  0  0  0  0  0  0
  -28.2620  -20.8410   20.5680 C   0  0  0  0  0  2  0  0  0  0  0  0
  -29.5010  -19.8940   20.3840 C   0  0  0  0  0  2  0  0  0  0  0  0
  -29.1840  -18.3930   20.7420 C   0  0  0  0  0  2  0  0  0  0  0  0
  -30.2740  -17.2900   20.4740 C   0  0  0  0  0  2  0  0  0  0  0  0
  -29.9140  -15.8570   21.0310 C   0  0  0  0  0  2  0  0  0  0  0  0
  -30.6870  -14.6200   20.4510 C   0  0  0  0  0  0  0  0  0  0  0  0
  -30.4590  -12.4270   19.3070 C   0  0  0  0  0  2  0  0  0  0  0  0
  -29.5230  -12.6120   18.0920 C   0  0  0  0  0  2  0  0  0  0  0  0
  -28.0450  -12.4610   18.5070 C   0  0  0  0  0  2  0  0  0  0  0  0
  -27.6900  -13.2960   19.7670 C   0  0  0  0  0  3  0  0  0  0  0  0
  -28.7390  -13.0860   20.8830 C   0  0  0  0  0  2  0  0  0  0  0  0
  -30.0610  -13.4110   20.3280 N   0  0  0  0  0  0  0  0  0  0  0  0
  -31.8270  -14.7930   20.0100 O   0  0  0  0  0  0  0  0  0  0  0  0
  -25.2860  -13.9060   20.4450 C   0  0  0  0  0  0  0  0  0  0  0  0
  -24.2150  -13.1360   20.8100 C   0  0  0  0  0  0  0  0  0  0  0  0
  -24.6790  -11.7860   20.8020 C   0  0  0  0  0  0  0  0  0  0  0  0
  -26.3340  -13.0230   20.2350 N   0  0  0  0  0  0  0  0  0  0  0  0
  -25.9730  -11.7440   20.5110 N   0  0  0  0  0  0  0  0  0  0  0  0
  -23.9530  -10.5260   21.0010 C   0  0  0  0  0  0  0  0  0  0  0  0
  -24.3800   -9.5670   21.9450 C   0  0  0  0  0  3  0  0  0  0  0  0
  -23.6560   -8.3690   22.1300 C   0  0  0  0  0  3  0  0  0  0  0  0
  -22.4890   -8.1210   21.3670 C   0  0  0  0  0  0  0  0  0  0  0  0
  -22.0810   -9.0680   20.4120 C   0  0  0  0  0  3  0  0  0  0  0  0
  -22.8060  -10.2570   20.2260 C   0  0  0  0  0  3  0  0  0  0  0  0
  -21.7360   -6.9760   21.4600 O   0  0  0  0  0  0  0  0  0  0  0  0
  -21.6810   -6.2420   22.6180 C   0  0  0  0  0  0  0  0  0  0  0  0
  -21.2520   -6.8060   23.8400 C   0  0  0  0  0  3  0  0  0  0  0  0
  -21.1450   -5.9980   24.9890 C   0  0  0  0  0  3  0  0  0  0  0  0
  -21.4580   -4.6280   24.9190 C   0  0  0  0  0  0  0  0  0  0  0  0
  -21.8810   -4.0630   23.7030 C   0  0  0  0  0  3  0  0  0  0  0  0
  -21.9910   -4.8670   22.5560 C   0  0  0  0  0  0  0  0  0  0  0  0
  -22.3790   -4.3140   21.3820 F   0  0  0  0  0  0  0  0  0  0  0  0
  -21.3480   -3.8500   26.0220 F   0  0  0  0  0  0  0  0  0  0  0  0
  -22.8130  -13.6140   21.0610 C   0  0  0  0  0  0  0  0  0  0  0  0
  -22.0770  -12.9280   21.9280 N   0  0  0  0  0  0  0  0  0  0  0  0
  -22.3790  -14.6300   20.5200 O   0  0  0  0  0  0  0  0  0  0  0  0
  -22.4430  -12.1070   22.3870 H   0  0  0  0  0  0  0  0  0  0  0  0
  -21.1350  -13.2280   22.1370 H   0  0  0  0  0  0  0  0  0  0  0  0
  -25.4510  -15.2740   20.2530 N   0  0  0  0  0  0  0  0  0  0  0  0
  -24.6840  -15.9300   20.3480 H   0  0  0  0  0  0  0  0  0  0  0  0
  -26.3110  -15.7100   19.9420 H   0  0  0  0  0  0  0  0  0  0  0  0
  2  1  1  0
  2  7  1  0
  3 52  1  0
  3  1  2  0
  4  2  2  0
  5  6  2  0
  5  4  1  0
  6  3  1  0
  8  6  1  0
  9 10  1  0
  9  5  1  0
 11 13  1  0
 11  4  1  0
 12 23  2  0
 13 18  1  0
 14 22  1  0
 14 24  1  0
 15 21  1  0
 15 17  1  0
 16 22  1  0
 17 16  1  0
 18 17  2  0
 19 20  1  0
 19 13  2  0
 20 15  2  0
 21 14  1  0
 22 12  1  0
 24 26  2  0
 25 24  1  0
 27 25  1  0
 28 37  2  0
 28 33  1  0
 29 25  1  0
 29 33  1  0
 30 29  1  0
 31 32  1  0
 31 30  1  0
 32 28  1  0
 33 34  2  0
 34 35  1  0
 36 35  2  0
 37 36  1  0
 38 12  1  0
 38 39  1  0
 38 48  1  0
 39 42  1  0
 40 44  1  0
 40 39  1  0
 41 40  2  0
 44 43  1  0
 46 44  1  0
 46 47  1  0
 46 45  1  0
 48 51  1  1
 48 49  1  0
 50 48  1  0
 53 52  1  0
 53 54  1  0
 55 54  1  0
 55 56  1  0
 57 56  1  0
 58 63  1  0
 59 60  1  0
 59 58  1  0
 61 60  1  0
 61 68  1  0
 61 62  1  0
 63 57  1  0
 63 62  1  0
 64 57  2  0
 65 66  2  0
 66 85  1  0
 67 66  1  0
 67 70  1  0
 68 65  1  0
 68 69  1  0
 69 67  2  0
 70 71  1  0
 71 72  2  0
 73 76  1  0
 73 72  1  0
 74 73  2  0
 75 74  1  0
 75 70  2  0
 76 77  1  0
 77 78  1  0
 78 79  2  0
 80 79  1  0
 80 84  1  0
 81 80  2  0
 82 77  2  0
 82 81  1  0
 83 82  1  0
 85 86  1  0
 86 89  1  0
 86 88  1  0
 87 85  2  0
 90 91  1  0
 90 65  1  0
 92 90  1  0
M  ISO  4   4 101  11 101  56 100  57 100
M  END
>  <TORSDO>  (15) 
F 22

>  <SCORE>  (15) 
-13.379

>  <name>  (15) 
14

>  <ligand_id>  (15) 
14

>  <original_smiles>  (15) 
[H]Oc1c(F)c(C([H])([H])C([H])([H])C([H])([H])C([H])([H])C([H])([H])C(=O)N2C([H])([H])C([H])([H])C([H])([H])C([H])(n3nc(-c4c([H])c([H])c(Oc5c([H])c([H])c(F)c([H])c5F)c([H])c4[H])c(C(=O)N([H])[H])c3N([H])[H])C2([H])[H])c([H])c(C([H])([H])[H])c1Oc1c([H])c([H])c2c(c1[H])C([H])([H])N(C(=O)C([H])(N([H])C(=O)C([H])(N([H])C([H])([H])[H])C([H])([H])[H])C(C([H])([H])[H])(C([H])([H])[H])C([H])([H])[H])C([H])(C(=O)N([H])C1([H])c3c([H])c([H])c([H])c([H])c3C([H])([H])C([H])([H])C1([H])[H])C2([H])[H]

>  <smiles>  (15) 
[H]Oc1c(F)c(C([H])([H])C([H])([H])C([H])([H])C([H])([H])C([H])([H])C(=O)N2C([H])([H])C([H])([H])C([H])([H])C([H])(n3nc(-c4c([H])c([H])c(Oc5c([H])c([H])c(F)c([H])c5F)c([H])c4[H])c(C(=O)N([H])[H])c3N([H])[H])C2([H])[H])c([H])c(C([H])([H])[H])c1Oc1c([H])c([H])c2c(c1[H])C([H])([H])N(C(=O)C([H])(N([H])C(=O)C([H])(N([H])C([H])([H])[H])C([H])([H])[H])C(C([H])([H])[H])(C([H])([H])[H])C([H])([H])[H])C([H])(C(=O)N([H])C1([H])c3c([H])c([H])c([H])c([H])c3C([H])([H])C([H])([H])C1([H])[H])C2([H])[H]

$$$$
15:0:0
     RDKit          3D

 98108  0  0  1  0  0  0  0  0999 V2000
  -30.9050  -16.2190   19.8280 C   0  0  0  0  0  0  0  0  0  0  0  0
  -29.9140  -18.5400   19.8180 C   0  0  0  0  0  0  0  0  0  0  0  0
  -29.8530  -18.4680   18.4100 C   0  0  0  0  0  0  0  0  0  0  0  0
  -30.3240  -17.3480   20.5270 C   0  0  0  0  0  0  0  0  0  0  0  0
  -31.2310  -16.4450   18.4480 C   0  0  0  0  0  0  0  0  0  0  0  0
  -30.5900  -17.4800   17.7170 C   0  0  0  0  0  0  0  0  0  0  0  0
  -28.9930  -19.4730   17.6600 C   0  0  0  0  0  2  0  0  0  0  0  0
  -29.7950  -19.9810   20.4510 C   0  0  0  0  0  2  0  0  0  0  0  0
  -27.5990  -19.5180   18.2940 C   0  0  0  0  0  2  0  0  0  0  0  0
  -27.4240  -20.6710   19.2750 C   0  0  0  0  0  2  0  0  0  0  0  0
  -28.4800  -20.8890   20.3980 C   0  0  0  0  0  3  0  0  0  0  0  0
  -30.2140  -17.3270   22.0450 C   0  0  0  0  0  1  0  0  0  0  0  0
  -32.3860  -15.7170   17.7470 C   0  0  0  0  0  1  0  0  0  0  0  0
  -30.7290  -17.5890   16.1930 C   0  0  0  0  0  1  0  0  0  0  0  0
  -31.4440  -14.9410   20.5220 C   0  0  0  0  0  0  0  0  0  0  0  0
  -31.1180  -12.6320   19.7030 C   0  0  0  0  0  2  0  0  0  0  0  0
  -30.2730  -12.6290   18.4090 C   0  0  0  0  0  2  0  0  0  0  0  0
  -28.7700  -12.6510   18.7080 C   0  0  0  0  0  2  0  0  0  0  0  0
  -28.3670  -13.6570   19.8190 C   0  0  0  0  0  3  0  0  0  0  0  0
  -29.3370  -13.6160   21.0170 C   0  0  0  0  0  2  0  0  0  0  0  0
  -30.7030  -13.7890   20.5120 N   0  0  0  0  0  0  0  0  0  0  0  0
  -32.6700  -14.9020   20.6210 O   0  0  0  0  0  0  0  0  0  0  0  0
  -25.9650  -14.3900   20.3520 C   0  0  0  0  0  0  0  0  0  0  0  0
  -24.8310  -13.6780   20.6440 C   0  0  0  0  0  0  0  0  0  0  0  0
  -25.2260  -12.3050   20.6850 C   0  0  0  0  0  0  0  0  0  0  0  0
  -26.9780  -13.4560   20.2240 N   0  0  0  0  0  0  0  0  0  0  0  0
  -26.5340  -12.2000   20.4990 N   0  0  0  0  0  0  0  0  0  0  0  0
  -24.4250  -11.0830   20.8360 C   0  0  0  0  0  0  0  0  0  0  0  0
  -24.7740  -10.0800   21.7660 C   0  0  0  0  0  3  0  0  0  0  0  0
  -23.9770   -8.9230   21.9070 C   0  0  0  0  0  3  0  0  0  0  0  0
  -22.8150   -8.7610   21.1150 C   0  0  0  0  0  0  0  0  0  0  0  0
  -22.4860   -9.7510   20.1730 C   0  0  0  0  0  3  0  0  0  0  0  0
  -23.2830  -10.8980   20.0300 C   0  0  0  0  0  3  0  0  0  0  0  0
  -21.9970   -7.6580   21.1640 O   0  0  0  0  0  0  0  0  0  0  0  0
  -21.9370   -6.8550   22.2740 C   0  0  0  0  0  0  0  0  0  0  0  0
  -21.5880   -7.3650   23.5450 C   0  0  0  0  0  3  0  0  0  0  0  0
  -21.4700   -6.4920   24.6450 C   0  0  0  0  0  3  0  0  0  0  0  0
  -21.6920   -5.1120   24.4780 C   0  0  0  0  0  0  0  0  0  0  0  0
  -22.0340   -4.6020   23.2140 C   0  0  0  0  0  3  0  0  0  0  0  0
  -22.1530   -5.4720   22.1150 C   0  0  0  0  0  0  0  0  0  0  0  0
  -22.4630   -4.9710   20.8940 F   0  0  0  0  0  0  0  0  0  0  0  0
  -21.5720   -4.2720   25.5340 F   0  0  0  0  0  0  0  0  0  0  0  0
  -23.4410  -14.2260   20.7750 C   0  0  0  0  0  0  0  0  0  0  0  0
  -22.6090  -13.5970   21.6000 N   0  0  0  0  0  0  0  0  0  0  0  0
  -23.0980  -15.2490   20.1840 O   0  0  0  0  0  0  0  0  0  0  0  0
  -22.8970  -12.7700   22.1010 H   0  0  0  0  0  0  0  0  0  0  0  0
  -21.6710  -13.9490   21.7300 H   0  0  0  0  0  0  0  0  0  0  0  0
  -26.2120  -15.7440   20.1570 N   0  0  0  0  0  0  0  0  0  0  0  0
  -25.4760  -16.4400   20.1940 H   0  0  0  0  0  0  0  0  0  0  0  0
  -27.1160  -16.1290   19.9100 H   0  0  0  0  0  0  0  0  0  0  0  0
  -29.1320  -24.5850   21.7770 C   0  0  0  0  0  2  0  0  0  0  0  0
  -29.0220  -24.5850   19.2660 C   0  0  0  0  0  2  0  0  0  0  0  0
  -28.9220  -23.0220   21.8430 C   0  0  0  0  0  2  0  0  0  0  0  0
  -29.4420  -23.0870   19.4350 C   0  0  0  0  0  2  0  0  0  0  0  0
  -28.4680  -25.2680   20.5490 C   0  0  0  0  0  3  0  0  0  0  0  0
  -28.6730  -22.3980   20.5090 N   0  0  1  0  0  4  0  0  0  0  0  0
  -27.7260  -22.6890   20.3210 H   0  0  0  0  0  0  0  0  0  0  0  0
  -28.6150  -26.7320   20.5190 O   0  0  0  0  0  0  0  0  0  0  0  0
  -24.6780  -31.9950   23.3540 C   0  0  0  0  0  0  0  0  0  0  0  0
  -27.4660  -27.5150   20.4080 C   0  0  0  0  0  0  0  0  0  0  0  0
  -23.5410  -30.5580   21.6950 C   0  0  0  0  0  3  0  0  0  0  0  0
  -25.0600  -29.0360   20.3130 C   0  0  0  0  0  0  0  0  0  0  0  0
  -26.0710  -30.9500   21.5580 C   0  0  0  0  0  2  0  0  0  0  0  0
  -26.1980  -29.5720   20.9310 C   0  0  0  0  0  0  0  0  0  0  0  0
  -27.4050  -28.8210   20.9690 C   0  0  0  0  0  3  0  0  0  0  0  0
  -26.3150  -27.0290   19.7480 C   0  0  0  0  0  3  0  0  0  0  0  0
  -25.1220  -27.7700   19.7090 C   0  0  0  0  0  3  0  0  0  0  0  0
  -23.8000  -29.8740   20.3250 C   0  0  0  0  0  2  0  0  0  0  0  0
  -24.7800  -31.1850   22.2600 N   0  0  0  0  0  0  0  0  0  0  0  0
  -23.5790  -32.2510   23.8650 O   0  0  0  0  0  0  0  0  0  0  0  0
  -22.8850  -29.5340   22.6500 C   0  0  0  0  0  0  0  0  0  0  0  0
  -21.5910  -29.2500   22.4320 N   0  0  0  0  0  0  0  0  0  0  0  0
  -23.5420  -28.9950   23.5450 O   0  0  0  0  0  0  0  0  0  0  0  0
  -21.1220  -29.7360   21.6800 H   0  0  0  0  0  0  0  0  0  0  0  0
  -18.2660  -27.8650   22.7620 C   0  0  0  0  0  0  0  0  0  0  0  0
  -20.7830  -28.2870   23.1810 C   0  0  0  0  0  3  0  0  0  0  0  0
  -21.0070  -26.8500   22.6600 C   0  0  0  0  0  2  0  0  0  0  0  0
  -19.9910  -26.4320   21.5920 C   0  0  0  0  0  2  0  0  0  0  0  0
  -18.5640  -26.5110   22.1430 C   0  0  0  0  0  2  0  0  0  0  0  0
  -19.3080  -28.7060   23.2350 C   0  0  0  0  0  0  0  0  0  0  0  0
  -18.9790  -29.9680   23.7730 C   0  0  0  0  0  3  0  0  0  0  0  0
  -17.6390  -30.3930   23.8420 C   0  0  0  0  0  3  0  0  0  0  0  0
  -16.6100  -29.5520   23.3840 C   0  0  0  0  0  3  0  0  0  0  0  0
  -16.9250  -28.2900   22.8500 C   0  0  0  0  0  3  0  0  0  0  0  0
  -25.9340  -32.6580   23.9960 C   0  0  0  0  0  3  0  0  0  0  0  0
  -25.5860  -34.0510   24.3100 N   0  0  0  0  0  0  0  0  0  0  0  0
  -25.8670  -35.1000   23.5250 C   0  0  0  0  0  0  0  0  0  0  0  0
  -26.5140  -34.9980   22.4800 O   0  0  0  0  0  0  0  0  0  0  0  0
  -25.0030  -34.2010   25.1200 H   0  0  0  0  0  0  0  0  0  0  0  0
  -24.0630  -36.8220   23.1960 C   0  0  0  0  0  1  0  0  0  0  0  0
  -25.3460  -36.4790   23.9700 C   0  0  0  0  0  3  0  0  0  0  0  0
  -27.4670  -37.4680   24.7090 C   0  0  0  0  0  1  0  0  0  0  0  0
  -26.3340  -37.5650   23.7940 N   0  0  0  0  0  0  0  0  0  0  0  0
  -25.8990  -38.4730   23.9220 H   0  0  0  0  0  0  0  0  0  0  0  0
  -26.4380  -31.9070   25.2900 C   0  0  1  0  0  0  0  0  0  0  0  0
  -25.3060  -31.5520   26.2840 C   0  0  0  0  0  1  0  0  0  0  0  0
  -27.1620  -30.5930   24.9110 C   0  0  0  0  0  1  0  0  0  0  0  0
  -27.4750  -32.7820   26.0320 C   0  0  0  0  0  1  0  0  0  0  0  0
  1 15  1  0
  1  4  1  0
  2  8  1  0
  2  4  2  0
  3  2  1  0
  4 12  1  0
  5  1  2  0
  6  3  2  0
  6  5  1  0
  7  9  1  0
  7  3  1  0
  9 10  1  0
 11 10  1  0
 11  8  1  0
 11 56  1  0
 13  5  1  0
 14  6  1  0
 15 22  2  0
 16 21  1  0
 17 18  1  0
 17 16  1  0
 19 18  1  0
 19 26  1  0
 19 20  1  0
 21 15  1  0
 21 20  1  0
 23 24  2  0
 24 25  1  0
 24 43  1  0
 25 28  1  0
 26 23  1  0
 26 27  1  0
 27 25  2  0
 28 29  1  0
 29 30  2  0
 31 34  1  0
 31 30  1  0
 32 31  2  0
 33 32  1  0
 33 28  2  0
 34 35  1  0
 35 36  1  0
 36 37  2  0
 38 37  1  0
 38 42  1  0
 39 38  2  0
 40 35  2  0
 40 39  1  0
 41 40  1  0
 43 44  1  0
 44 47  1  0
 44 46  1  0
 45 43  2  0
 48 49  1  0
 48 23  1  0
 50 48  1  0
 51 53  1  0
 52 54  1  0
 52 55  1  0
 54 56  1  0
 55 58  1  0
 55 51  1  0
 56 57  1  6
 56 53  1  0
 59 70  2  0
 60 58  1  0
 60 65  1  0
 61 69  1  0
 61 71  1  0
 62 68  1  0
 62 64  1  0
 63 69  1  0
 64 65  2  0
 64 63  1  0
 66 60  2  0
 67 66  1  0
 67 62  2  0
 68 61  1  0
 69 59  1  0
 71 73  2  0
 72 71  1  0
 74 72  1  0
 75 84  2  0
 75 80  1  0
 76 72  1  0
 76 80  1  0
 77 76  1  0
 78 79  1  0
 78 77  1  0
 79 75  1  0
 80 81  2  0
 81 82  1  0
 83 82  2  0
 84 83  1  0
 85 59  1  0
 85 86  1  0
 85 95  1  0
 86 89  1  0
 87 91  1  0
 87 86  1  0
 88 87  2  0
 91 90  1  0
 93 94  1  0
 93 91  1  0
 93 92  1  0
 95 98  1  1
 95 96  1  0
 97 95  1  0
M  ISO  4   1 100  15 100  55 101  58 101
M  END
>  <TORSDO>  (16) 
F 17

>  <SCORE>  (16) 
-13.997

>  <name>  (16) 
15

>  <ligand_id>  (16) 
15

>  <original_smiles>  (16) 
[H]c1c([H])c([H])c2c(c1[H])C([H])([H])C([H])([H])C([H])([H])C2([H])N([H])C(=O)C1([H])N(C(=O)C([H])(N([H])C(=O)C([H])(N([H])C([H])([H])[H])C([H])([H])[H])C(C([H])([H])[H])(C([H])([H])[H])C([H])([H])[H])C([H])([H])c2c([H])c(OC3([H])C([H])([H])C([H])([H])[N+]([H])(C4([H])C([H])([H])c5c(C([H])([H])[H])c(C(=O)N6C([H])([H])C([H])([H])C([H])([H])C([H])(n7nc(-c8c([H])c([H])c(Oc9c([H])c([H])c(F)c([H])c9F)c([H])c8[H])c(C(=O)N([H])[H])c7N([H])[H])C6([H])[H])c(C([H])([H])[H])c(C([H])([H])[H])c5C([H])([H])C([H])([H])C4([H])[H])C([H])([H])C3([H])[H])c([H])c([H])c2C1([H])[H]

>  <smiles>  (16) 
[H]c1c([H])c([H])c2c(c1[H])C([H])([H])C([H])([H])C([H])([H])C2([H])N([H])C(=O)C1([H])N(C(=O)C([H])(N([H])C(=O)C([H])(N([H])C([H])([H])[H])C([H])([H])[H])C(C([H])([H])[H])(C([H])([H])[H])C([H])([H])[H])C([H])([H])c2c([H])c(OC3([H])C([H])([H])C([H])([H])[N+]([H])(C4([H])C([H])([H])c5c(C([H])([H])[H])c(C(=O)N6C([H])([H])C([H])([H])C([H])([H])C([H])(n7nc(-c8c([H])c([H])c(Oc9c([H])c([H])c(F)c([H])c9F)c([H])c8[H])c(C(=O)N([H])[H])c7N([H])[H])C6([H])[H])c(C([H])([H])[H])c(C([H])([H])[H])c5C([H])([H])C([H])([H])C4([H])[H])C([H])([H])C3([H])[H])c([H])c([H])c2C1([H])[H]

$$$$
16:0:0
     RDKit          3D

 98107  0  0  1  0  0  0  0  0999 V2000
  -30.1640  -23.5040   19.0260 C   0  0  0  0  0  3  0  0  0  0  0  0
  -30.0990  -22.8080   20.2540 C   0  0  0  0  0  0  0  0  0  0  0  0
  -29.5000  -23.4710   21.3330 C   0  0  0  0  0  0  0  0  0  0  0  0
  -29.6720  -24.8310   18.9140 C   0  0  0  0  0  0  0  0  0  0  0  0
  -28.9890  -24.8010   21.2520 C   0  0  0  0  0  0  0  0  0  0  0  0
  -29.1070  -25.5200   20.0240 C   0  0  0  0  0  0  0  0  0  0  0  0
  -29.6030  -22.6470   22.5930 C   0  0  0  0  0  2  0  0  0  0  0  0
  -30.8290  -21.5140   20.7260 C   0  0  0  0  0  3  0  0  0  0  0  0
  -30.4060  -21.3470   22.2480 C   0  0  1  0  0  0  0  0  0  0  0  0
  -29.8440  -25.5450   17.5860 C   0  0  0  0  0  1  0  0  0  0  0  0
  -28.3840  -25.4620   22.4850 C   0  0  0  0  0  1  0  0  0  0  0  0
  -31.6480  -21.2700   23.1690 C   0  0  0  0  0  1  0  0  0  0  0  0
  -29.4960  -20.1540   22.5950 C   0  0  0  0  0  1  0  0  0  0  0  0
  -31.3550  -20.6850   18.2770 C   0  0  0  0  0  1  0  0  0  0  0  0
  -31.4330  -20.3140   19.7770 C   0  0  1  0  0  0  0  0  0  0  0  0
  -33.9480  -21.2990   19.8400 C   0  0  0  0  0  1  0  0  0  0  0  0
  -32.9640  -20.1270   20.0840 C   0  0  0  0  0  2  0  0  0  0  0  0
  -30.7400  -18.8600   19.8400 C   0  0  0  0  0  3  0  0  0  0  0  0
  -31.5230  -17.6100   20.4510 C   0  0  0  0  0  3  0  0  0  0  0  0
  -29.4950  -16.3860   21.0670 C   0  0  0  0  0  2  0  0  0  0  0  0
  -30.7560  -16.2600   20.6020 C   0  0  0  0  0  0  0  0  0  0  0  0
  -31.4490  -14.9540   20.2410 C   0  0  0  0  0  0  0  0  0  0  0  0
  -31.2140  -12.6730   19.2630 C   0  0  0  0  0  2  0  0  0  0  0  0
  -30.2900  -12.7560   18.0220 C   0  0  0  0  0  2  0  0  0  0  0  0
  -28.7990  -12.6570   18.4200 C   0  0  0  0  0  2  0  0  0  0  0  0
  -28.4510  -13.5680   19.6240 C   0  0  0  0  0  3  0  0  0  0  0  0
  -29.4890  -13.3540   20.7540 C   0  0  0  0  0  2  0  0  0  0  0  0
  -30.7930  -13.7400   20.2050 N   0  0  0  0  0  0  0  0  0  0  0  0
  -32.6160  -14.9810   19.8350 O   0  0  0  0  0  0  0  0  0  0  0  0
  -26.0890  -14.3210   20.3090 C   0  0  0  0  0  0  0  0  0  0  0  0
  -24.9800  -13.6100   20.6790 C   0  0  0  0  0  0  0  0  0  0  0  0
  -25.3650  -12.2340   20.6500 C   0  0  0  0  0  0  0  0  0  0  0  0
  -27.0830  -13.3780   20.0890 N   0  0  0  0  0  0  0  0  0  0  0  0
  -26.6520  -12.1190   20.3480 N   0  0  0  0  0  0  0  0  0  0  0  0
  -24.5720  -11.0150   20.8360 C   0  0  0  0  0  0  0  0  0  0  0  0
  -24.9160  -10.0500   21.8070 C   0  0  0  0  0  3  0  0  0  0  0  0
  -24.1250   -8.8930   21.9760 C   0  0  0  0  0  3  0  0  0  0  0  0
  -22.9770   -8.6950   21.1740 C   0  0  0  0  0  0  0  0  0  0  0  0
  -22.6520   -9.6500   20.1920 C   0  0  0  0  0  3  0  0  0  0  0  0
  -23.4430  -10.7970   20.0200 C   0  0  0  0  0  3  0  0  0  0  0  0
  -22.1670   -7.5880   21.2520 O   0  0  0  0  0  0  0  0  0  0  0  0
  -21.9720   -6.9230   22.4350 C   0  0  0  0  0  0  0  0  0  0  0  0
  -21.4440   -7.5690   23.5750 C   0  0  0  0  0  3  0  0  0  0  0  0
  -21.1860   -6.8300   24.7470 C   0  0  0  0  0  3  0  0  0  0  0  0
  -21.4530   -5.4480   24.7810 C   0  0  0  0  0  0  0  0  0  0  0  0
  -21.9760   -4.8030   23.6460 C   0  0  0  0  0  3  0  0  0  0  0  0
  -22.2290   -5.5390   22.4760 C   0  0  0  0  0  0  0  0  0  0  0  0
  -22.7140   -4.9090   21.3780 F   0  0  0  0  0  0  0  0  0  0  0  0
  -21.1980   -4.7370   25.9030 F   0  0  0  0  0  0  0  0  0  0  0  0
  -23.6090  -14.1660   20.9390 C   0  0  0  0  0  0  0  0  0  0  0  0
  -22.8440  -13.5270   21.8170 N   0  0  0  0  0  0  0  0  0  0  0  0
  -23.2240  -15.2030   20.4000 O   0  0  0  0  0  0  0  0  0  0  0  0
  -23.1630  -12.6890   22.2830 H   0  0  0  0  0  0  0  0  0  0  0  0
  -21.9250  -13.8870   22.0280 H   0  0  0  0  0  0  0  0  0  0  0  0
  -26.3270  -15.6790   20.1210 N   0  0  0  0  0  0  0  0  0  0  0  0
  -25.5930  -16.3710   20.2080 H   0  0  0  0  0  0  0  0  0  0  0  0
  -27.1930  -16.0650   19.7670 H   0  0  0  0  0  0  0  0  0  0  0  0
  -28.8870  -26.8970   19.8970 O   0  0  0  0  0  0  0  0  0  0  0  0
  -24.6480  -31.6760   23.1460 C   0  0  0  0  0  0  0  0  0  0  0  0
  -27.6490  -27.5190   19.9390 C   0  0  0  0  0  0  0  0  0  0  0  0
  -23.5630  -30.2440   21.4440 C   0  0  0  0  0  3  0  0  0  0  0  0
  -25.1430  -28.8590   19.9820 C   0  0  0  0  0  0  0  0  0  0  0  0
  -26.0590  -30.7850   21.2930 C   0  0  0  0  0  2  0  0  0  0  0  0
  -26.2540  -29.4410   20.6080 C   0  0  0  0  0  0  0  0  0  0  0  0
  -27.5050  -28.7770   20.5850 C   0  0  0  0  0  3  0  0  0  0  0  0
  -26.5230  -26.9630   19.3010 C   0  0  0  0  0  3  0  0  0  0  0  0
  -25.2750  -27.6210   19.3280 C   0  0  0  0  0  3  0  0  0  0  0  0
  -23.8360  -29.6220   20.0490 C   0  0  0  0  0  2  0  0  0  0  0  0
  -24.7730  -30.9190   22.0200 N   0  0  0  0  0  0  0  0  0  0  0  0
  -23.5440  -31.8520   23.6830 O   0  0  0  0  0  0  0  0  0  0  0  0
  -22.9810  -29.1500   22.3660 C   0  0  0  0  0  0  0  0  0  0  0  0
  -21.6850  -28.8420   22.1840 N   0  0  0  0  0  0  0  0  0  0  0  0
  -23.6920  -28.5810   23.1980 O   0  0  0  0  0  0  0  0  0  0  0  0
  -21.1680  -29.3610   21.4900 H   0  0  0  0  0  0  0  0  0  0  0  0
  -18.4480  -27.2620   22.4780 C   0  0  0  0  0  0  0  0  0  0  0  0
  -20.9390  -27.8120   22.9050 C   0  0  0  0  0  3  0  0  0  0  0  0
  -21.2380  -26.4060   22.3390 C   0  0  0  0  0  2  0  0  0  0  0  0
  -20.2450  -25.9650   21.2580 C   0  0  0  0  0  2  0  0  0  0  0  0
  -18.8190  -25.9450   21.8160 C   0  0  0  0  0  2  0  0  0  0  0  0
  -19.4440  -28.1460   22.9740 C   0  0  0  0  0  0  0  0  0  0  0  0
  -19.0460  -29.3750   23.5460 C   0  0  0  0  0  3  0  0  0  0  0  0
  -17.6850  -29.7220   23.6280 C   0  0  0  0  0  3  0  0  0  0  0  0
  -16.7040  -28.8390   23.1480 C   0  0  0  0  0  3  0  0  0  0  0  0
  -17.0850  -27.6100   22.5800 C   0  0  0  0  0  3  0  0  0  0  0  0
  -25.8790  -32.3760   23.8020 C   0  0  0  0  0  3  0  0  0  0  0  0
  -25.4760  -33.7460   24.1450 N   0  0  0  0  0  0  0  0  0  0  0  0
  -25.7850  -34.8330   23.4230 C   0  0  0  0  0  0  0  0  0  0  0  0
  -26.5060  -34.7890   22.4240 O   0  0  0  0  0  0  0  0  0  0  0  0
  -24.8300  -33.8490   24.9130 H   0  0  0  0  0  0  0  0  0  0  0  0
  -23.9700  -36.5290   23.0230 C   0  0  0  0  0  1  0  0  0  0  0  0
  -25.1970  -36.1810   23.8820 C   0  0  0  0  0  3  0  0  0  0  0  0
  -27.2360  -37.1690   24.8240 C   0  0  0  0  0  1  0  0  0  0  0  0
  -26.1690  -37.2950   23.8330 N   0  0  0  0  0  0  0  0  0  0  0  0
  -25.7040  -38.1860   23.9780 H   0  0  0  0  0  0  0  0  0  0  0  0
  -26.4180  -31.6180   25.0780 C   0  0  1  0  0  0  0  0  0  0  0  0
  -25.3200  -31.2950   26.1180 C   0  0  0  0  0  1  0  0  0  0  0  0
  -27.0960  -30.2860   24.6800 C   0  0  0  0  0  1  0  0  0  0  0  0
  -27.5010  -32.4730   25.7750 C   0  0  0  0  0  1  0  0  0  0  0  0
  1  2  1  0
  2  8  1  0
  2  3  2  0
  3  7  1  0
  4  1  2  0
  4  6  1  0
  5  3  1  0
  5 11  1  0
  6  5  2  0
  8 15  1  0
  8  9  1  0
  9  7  1  0
  9 13  1  6
  9 12  1  0
 10  4  1  0
 15 14  1  6
 15 18  1  0
 15 17  1  0
 16 17  1  0
 18 19  2  0
 19 21  1  0
 21 20  2  0
 22 21  1  0
 23 28  1  0
 24 25  1  0
 24 23  1  0
 26 25  1  0
 26 33  1  0
 26 27  1  0
 28 22  1  0
 28 27  1  0
 29 22  2  0
 30 31  2  0
 31 50  1  0
 32 31  1  0
 32 35  1  0
 33 30  1  0
 33 34  1  0
 34 32  2  0
 35 36  1  0
 36 37  2  0
 38 41  1  0
 38 37  1  0
 39 38  2  0
 40 39  1  0
 40 35  2  0
 41 42  1  0
 42 47  2  0
 42 43  1  0
 43 44  2  0
 44 45  1  0
 45 49  1  0
 46 45  2  0
 47 46  1  0
 48 47  1  0
 50 51  1  0
 51 54  1  0
 51 53  1  0
 52 50  2  0
 55 56  1  0
 55 30  1  0
 57 55  1  0
 58 60  1  0
 58  6  1  0
 59 70  2  0
 60 65  1  0
 61 69  1  0
 61 71  1  0
 62 68  1  0
 62 64  1  0
 63 69  1  0
 64 63  1  0
 65 64  2  0
 66 67  1  0
 66 60  2  0
 67 62  2  0
 68 61  1  0
 69 59  1  0
 71 73  2  0
 72 71  1  0
 74 72  1  0
 75 84  2  0
 75 80  1  0
 76 72  1  0
 76 80  1  0
 77 76  1  0
 78 79  1  0
 78 77  1  0
 79 75  1  0
 80 81  2  0
 81 82  1  0
 83 82  2  0
 84 83  1  0
 85 59  1  0
 85 86  1  0
 85 95  1  0
 86 89  1  0
 87 91  1  0
 87 86  1  0
 88 87  2  0
 91 90  1  0
 93 91  1  0
 93 94  1  0
 93 92  1  0
 95 98  1  1
 95 96  1  0
 97 95  1  0
M  ISO  4   6 101  21 100  22 100  58 101
M  END
>  <TORSDO>  (17) 
F 21

>  <SCORE>  (17) 
-11.591

>  <name>  (17) 
16

>  <ligand_id>  (17) 
16

>  <original_smiles>  (17) 
[H]C([H])=C(C(=O)N1C([H])([H])C([H])([H])C([H])([H])C([H])(n2nc(-c3c([H])c([H])c(Oc4c([H])c([H])c(F)c([H])c4F)c([H])c3[H])c(C(=O)N([H])[H])c2N([H])[H])C1([H])[H])C([H])([H])C([H])([H])C(C([H])([H])[H])(C([H])([H])C([H])([H])[H])C1([H])c2c([H])c(C([H])([H])[H])c(Oc3c([H])c([H])c4c(c3[H])C([H])([H])N(C(=O)C([H])(N([H])C(=O)C([H])(N([H])C([H])([H])[H])C([H])([H])[H])C(C([H])([H])[H])(C([H])([H])[H])C([H])([H])[H])C([H])(C(=O)N([H])C3([H])c5c([H])c([H])c([H])c([H])c5C([H])([H])C([H])([H])C3([H])[H])C4([H])[H])c(C([H])([H])[H])c2C([H])([H])C1(C([H])([H])[H])C([H])([H])[H]

>  <smiles>  (17) 
[H]C([H])=C(C(=O)N1C([H])([H])C([H])([H])C([H])([H])C([H])(n2nc(-c3c([H])c([H])c(Oc4c([H])c([H])c(F)c([H])c4F)c([H])c3[H])c(C(=O)N([H])[H])c2N([H])[H])C1([H])[H])C([H])([H])C([H])([H])C(C([H])([H])[H])(C([H])([H])C([H])([H])[H])C1([H])c2c([H])c(C([H])([H])[H])c(Oc3c([H])c([H])c4c(c3[H])C([H])([H])N(C(=O)C([H])(N([H])C(=O)C([H])(N([H])C([H])([H])[H])C([H])([H])[H])C(C([H])([H])[H])(C([H])([H])[H])C([H])([H])[H])C([H])(C(=O)N([H])C3([H])c5c([H])c([H])c([H])c([H])c5C([H])([H])C([H])([H])C3([H])[H])C4([H])[H])c(C([H])([H])[H])c2C([H])([H])C1(C([H])([H])[H])C([H])([H])[H]

$$$$
17:0:0
     RDKit          3D

 92101  0  0  1  0  0  0  0  0999 V2000
  -30.1950  -18.2120   21.1680 C   0  0  0  0  0  3  0  0  0  0  0  0
  -29.7920  -16.9810   20.4310 C   0  0  0  0  0  0  0  0  0  0  0  0
  -29.7330  -19.6300   20.9550 C   0  0  0  0  0  0  0  0  0  0  0  0
  -28.7940  -19.9760   19.9560 C   0  0  0  0  0  0  0  0  0  0  0  0
  -28.8810  -17.4290   19.3830 C   0  0  0  0  0  0  0  0  0  0  0  0
  -28.4030  -18.8170   19.1770 C   0  0  0  0  0  0  0  0  0  0  0  0
  -30.1820  -20.8970   21.7690 C   0  0  0  0  0  2  0  0  0  0  0  0
  -28.2840  -21.5410   19.6790 C   0  0  0  0  0  2  0  0  0  0  0  0
  -29.9800  -22.4130   21.1740 C   0  0  0  0  0  2  0  0  0  0  0  0
  -28.5650  -22.9010   20.6150 C   0  0  2  0  0  0  0  0  0  0  0  0
  -28.4380  -16.4020   18.3450 C   0  0  0  0  0  1  0  0  0  0  0  0
  -27.5670  -22.8480   21.7870 C   0  0  0  0  0  1  0  0  0  0  0  0
  -30.4850  -15.4410   20.5290 C   0  0  0  0  0  0  0  0  0  0  0  0
  -30.4920  -13.0040   19.6640 C   0  0  0  0  0  2  0  0  0  0  0  0
  -29.6190  -12.7270   18.4130 C   0  0  0  0  0  2  0  0  0  0  0  0
  -28.1460  -12.5000   18.7990 C   0  0  0  0  0  2  0  0  0  0  0  0
  -27.6470  -13.4710   19.9000 C   0  0  0  0  0  3  0  0  0  0  0  0
  -28.6540  -13.6430   21.0500 C   0  0  0  0  0  2  0  0  0  0  0  0
  -29.9020  -14.1450   20.4550 N   0  0  0  0  0  0  0  0  0  0  0  0
  -31.7190  -15.3910   20.4430 O   0  0  0  0  0  0  0  0  0  0  0  0
  -25.2490  -14.0220   20.5670 C   0  0  0  0  0  0  0  0  0  0  0  0
  -24.1800  -13.2370   20.8990 C   0  0  0  0  0  0  0  0  0  0  0  0
  -24.6620  -11.8920   20.9010 C   0  0  0  0  0  0  0  0  0  0  0  0
  -26.3070  -13.1530   20.3710 N   0  0  0  0  0  0  0  0  0  0  0  0
  -25.9640  -11.8670   20.6420 N   0  0  0  0  0  0  0  0  0  0  0  0
  -23.9440  -10.6230   21.0730 C   0  0  0  0  0  0  0  0  0  0  0  0
  -24.3420   -9.6730   22.0390 C   0  0  0  0  0  3  0  0  0  0  0  0
  -23.6210   -8.4690   22.1980 C   0  0  0  0  0  3  0  0  0  0  0  0
  -22.4880   -8.2070   21.3900 C   0  0  0  0  0  0  0  0  0  0  0  0
  -22.1100   -9.1470   20.4150 C   0  0  0  0  0  3  0  0  0  0  0  0
  -22.8330  -10.3420   20.2530 C   0  0  0  0  0  3  0  0  0  0  0  0
  -21.7430   -7.0550   21.4570 O   0  0  0  0  0  0  0  0  0  0  0  0
  -21.6430   -6.3280   22.6160 C   0  0  0  0  0  0  0  0  0  0  0  0
  -21.1150   -6.8850   23.8010 C   0  0  0  0  0  3  0  0  0  0  0  0
  -20.9650   -6.0820   24.9500 C   0  0  0  0  0  3  0  0  0  0  0  0
  -21.3350   -4.7240   24.9140 C   0  0  0  0  0  0  0  0  0  0  0  0
  -21.8560   -4.1670   23.7330 C   0  0  0  0  0  3  0  0  0  0  0  0
  -22.0060   -4.9660   22.5860 C   0  0  0  0  0  0  0  0  0  0  0  0
  -22.4880   -4.4190   21.4450 F   0  0  0  0  0  0  0  0  0  0  0  0
  -21.1850   -3.9500   26.0150 F   0  0  0  0  0  0  0  0  0  0  0  0
  -22.7680  -13.6990   21.1040 C   0  0  0  0  0  0  0  0  0  0  0  0
  -22.0090  -12.9980   21.9390 N   0  0  0  0  0  0  0  0  0  0  0  0
  -22.3440  -14.7170   20.5610 O   0  0  0  0  0  0  0  0  0  0  0  0
  -22.3640  -12.1720   22.4010 H   0  0  0  0  0  0  0  0  0  0  0  0
  -21.0590  -13.2880   22.1160 H   0  0  0  0  0  0  0  0  0  0  0  0
  -25.4090  -15.3930   20.3840 N   0  0  0  0  0  0  0  0  0  0  0  0
  -24.6380  -16.0460   20.4610 H   0  0  0  0  0  0  0  0  0  0  0  0
  -26.2840  -15.8410   20.1410 H   0  0  0  0  0  0  0  0  0  0  0  0
  -28.1600  -19.5380   16.7250 C   0  0  0  0  0  1  0  0  0  0  0  0
  -27.4430  -19.1040   18.0140 C   0  0  0  0  0  2  0  0  0  0  0  0
  -28.2840  -24.5350   19.9260 C   0  0  0  0  0  2  0  0  0  0  0  0
  -28.2710  -26.1040   20.3900 O   0  0  0  0  0  0  0  0  0  0  0  0
  -24.5540  -31.9640   23.2290 C   0  0  0  0  0  0  0  0  0  0  0  0
  -27.2310  -27.1560   20.2480 C   0  0  0  0  0  0  0  0  0  0  0  0
  -23.3960  -30.5440   21.5810 C   0  0  0  0  0  3  0  0  0  0  0  0
  -24.8890  -28.9700   20.1690 C   0  0  0  0  0  0  0  0  0  0  0  0
  -25.9560  -30.8130   21.4510 C   0  0  0  0  0  2  0  0  0  0  0  0
  -26.0570  -29.4030   20.8070 C   0  0  0  0  0  0  0  0  0  0  0  0
  -27.2190  -28.5150   20.8270 C   0  0  0  0  0  3  0  0  0  0  0  0
  -26.0360  -26.8750   19.5470 C   0  0  0  0  0  3  0  0  0  0  0  0
  -24.9030  -27.7280   19.5170 C   0  0  0  0  0  3  0  0  0  0  0  0
  -23.6490  -29.8620   20.2050 C   0  0  0  0  0  2  0  0  0  0  0  0
  -24.6560  -31.1330   22.1420 N   0  0  0  0  0  0  0  0  0  0  0  0
  -23.4550  -32.2340   23.7410 O   0  0  0  0  0  0  0  0  0  0  0  0
  -22.7140  -29.5360   22.5430 C   0  0  0  0  0  0  0  0  0  0  0  0
  -21.3850  -29.3580   22.4170 N   0  0  0  0  0  0  0  0  0  0  0  0
  -23.3850  -28.9160   23.3710 O   0  0  0  0  0  0  0  0  0  0  0  0
  -20.8960  -29.9140   21.7280 H   0  0  0  0  0  0  0  0  0  0  0  0
  -18.0130  -28.1230   22.9250 C   0  0  0  0  0  0  0  0  0  0  0  0
  -20.5710  -28.4100   23.1840 C   0  0  0  0  0  3  0  0  0  0  0  0
  -20.6830  -26.9830   22.6040 C   0  0  0  0  0  2  0  0  0  0  0  0
  -19.5820  -26.6540   21.5900 C   0  0  0  0  0  2  0  0  0  0  0  0
  -18.2010  -26.7800   22.2380 C   0  0  0  0  0  2  0  0  0  0  0  0
  -19.1250  -28.8950   23.3550 C   0  0  0  0  0  0  0  0  0  0  0  0
  -18.8930  -30.1490   23.9610 C   0  0  0  0  0  3  0  0  0  0  0  0
  -17.5840  -30.6330   24.1390 C   0  0  0  0  0  3  0  0  0  0  0  0
  -16.4870  -29.8590   23.7240 C   0  0  0  0  0  3  0  0  0  0  0  0
  -16.7010  -28.6050   23.1220 C   0  0  0  0  0  3  0  0  0  0  0  0
  -25.8110  -32.6280   23.8710 C   0  0  0  0  0  3  0  0  0  0  0  0
  -25.4780  -34.0290   24.1800 N   0  0  0  0  0  0  0  0  0  0  0  0
  -25.8000  -35.0820   23.4170 C   0  0  0  0  0  0  0  0  0  0  0  0
  -26.4790  -34.9790   22.3920 O   0  0  0  0  0  0  0  0  0  0  0  0
  -24.8990  -34.1870   24.9900 H   0  0  0  0  0  0  0  0  0  0  0  0
  -24.0630  -36.8600   23.0240 C   0  0  0  0  0  1  0  0  0  0  0  0
  -25.2910  -36.4690   23.8600 C   0  0  0  0  0  3  0  0  0  0  0  0
  -27.3970  -37.3870   24.7290 C   0  0  0  0  0  1  0  0  0  0  0  0
  -26.3130  -37.5340   23.7600 N   0  0  0  0  0  0  0  0  0  0  0  0
  -25.8920  -38.4480   23.8920 H   0  0  0  0  0  0  0  0  0  0  0  0
  -26.3030  -31.8890   25.1780 C   0  0  1  0  0  0  0  0  0  0  0  0
  -25.1890  -31.6570   26.2250 C   0  0  0  0  0  1  0  0  0  0  0  0
  -26.9140  -30.5100   24.8340 C   0  0  0  0  0  1  0  0  0  0  0  0
  -27.4230  -32.7130   25.8550 C   0  0  0  0  0  1  0  0  0  0  0  0
  2 13  1  0
  2  1  2  0
  3  1  1  0
  3  7  1  0
  4  3  2  0
  5  2  1  0
  6  5  2  0
  6  4  1  0
  8  4  1  0
  8 10  1  0
  9  7  1  0
 10  9  1  0
 10 12  1  1
 11  5  1  0
 14 19  1  0
 15 16  1  0
 15 14  1  0
 17 16  1  0
 17 24  1  0
 17 18  1  0
 19 13  1  0
 19 18  1  0
 20 13  2  0
 21 22  2  0
 22 23  1  0
 22 41  1  0
 23 26  1  0
 24 21  1  0
 24 25  1  0
 25 23  2  0
 26 27  1  0
 27 28  2  0
 29 32  1  0
 29 28  1  0
 30 29  2  0
 31 30  1  0
 31 26  2  0
 32 33  1  0
 33 34  1  0
 34 35  2  0
 36 35  1  0
 36 40  1  0
 37 36  2  0
 38 33  2  0
 38 37  1  0
 39 38  1  0
 41 42  1  0
 42 45  1  0
 42 44  1  0
 43 41  2  0
 46 47  1  0
 46 21  1  0
 48 46  1  0
 49 50  1  0
 50  6  1  0
 51 52  1  0
 51 10  1  0
 53 64  2  0
 54 52  1  0
 54 59  1  0
 55 63  1  0
 55 65  1  0
 56 62  1  0
 56 58  1  0
 57 63  1  0
 58 59  2  0
 58 57  1  0
 60 54  2  0
 61 60  1  0
 61 56  2  0
 62 55  1  0
 63 53  1  0
 65 67  2  0
 66 65  1  0
 68 66  1  0
 69 78  2  0
 69 74  1  0
 70 66  1  0
 70 74  1  0
 71 70  1  0
 72 73  1  0
 72 71  1  0
 73 69  1  0
 74 75  2  0
 75 76  1  0
 77 76  2  0
 78 77  1  0
 79 53  1  0
 79 80  1  0
 79 89  1  0
 80 83  1  0
 81 85  1  0
 81 80  1  0
 82 81  2  0
 85 84  1  0
 87 85  1  0
 87 88  1  0
 87 86  1  0
 89 92  1  1
 89 90  1  0
 91 89  1  0
M  ISO  4   2 100  13 100  51 101  52 101
M  END
>  <TORSDO>  (18) 
F 18

>  <SCORE>  (18) 
-15.035

>  <name>  (18) 
17

>  <ligand_id>  (18) 
17

>  <original_smiles>  (18) 
[H]c1c([H])c([H])c2c(c1[H])C([H])([H])C([H])([H])C([H])([H])C2([H])N([H])C(=O)C1([H])N(C(=O)C([H])(N([H])C(=O)C([H])(N([H])C([H])([H])[H])C([H])([H])[H])C(C([H])([H])[H])(C([H])([H])[H])C([H])([H])[H])C([H])([H])c2c([H])c(OC([H])([H])C3(C([H])([H])[H])C([H])([H])c4c(C([H])([H])C([H])([H])[H])c(C([H])([H])[H])c(C(=O)N5C([H])([H])C([H])([H])C([H])([H])C([H])(n6nc(-c7c([H])c([H])c(Oc8c([H])c([H])c(F)c([H])c8F)c([H])c7[H])c(C(=O)N([H])[H])c6N([H])[H])C5([H])[H])c([H])c4C([H])([H])C3([H])[H])c([H])c([H])c2C1([H])[H]

>  <smiles>  (18) 
[H]c1c([H])c([H])c2c(c1[H])C([H])([H])C([H])([H])C([H])([H])C2([H])N([H])C(=O)C1([H])N(C(=O)C([H])(N([H])C(=O)C([H])(N([H])C([H])([H])[H])C([H])([H])[H])C(C([H])([H])[H])(C([H])([H])[H])C([H])([H])[H])C([H])([H])c2c([H])c(OC([H])([H])C3(C([H])([H])[H])C([H])([H])c4c(C([H])([H])C([H])([H])[H])c(C([H])([H])[H])c(C(=O)N5C([H])([H])C([H])([H])C([H])([H])C([H])(n6nc(-c7c([H])c([H])c(Oc8c([H])c([H])c(F)c([H])c8F)c([H])c7[H])c(C(=O)N([H])[H])c6N([H])[H])C5([H])[H])c([H])c4C([H])([H])C3([H])[H])c([H])c([H])c2C1([H])[H]

$$$$
18:0:0
     RDKit          3D

 93102  0  0  1  0  0  0  0  0999 V2000
  -29.6910  -23.0580   19.3190 C   0  0  0  0  0  3  0  0  0  0  0  0
  -27.7330  -24.3590   20.8150 C   0  0  0  0  0  3  0  0  0  0  0  0
  -28.8770  -22.2090   20.1240 C   0  0  0  0  0  0  0  0  0  0  0  0
  -29.5370  -24.4890   19.2610 C   0  0  0  0  0  0  0  0  0  0  0  0
  -27.8780  -22.9250   20.8690 C   0  0  0  0  0  0  0  0  0  0  0  0
  -28.5520  -25.2020   20.0110 C   0  0  0  0  0  0  0  0  0  0  0  0
  -30.4710  -25.2790   18.3630 C   0  0  0  0  0  1  0  0  0  0  0  0
  -26.9080  -22.1580   21.7520 C   0  0  0  0  0  1  0  0  0  0  0  0
  -29.9810  -19.9760   21.2250 C   0  0  0  0  0  2  0  0  0  0  0  0
  -29.4160  -19.8450   18.8420 C   0  0  0  0  0  2  0  0  0  0  0  0
  -29.9400  -18.3920   21.3340 C   0  0  0  0  0  2  0  0  0  0  0  0
  -29.3790  -18.2550   18.9250 C   0  0  0  0  0  2  0  0  0  0  0  0
  -29.0230  -20.6010   20.1570 C   0  0  0  0  0  3  0  0  0  0  0  0
  -30.2650  -17.5760   20.0310 C   0  0  0  0  0  3  0  0  0  0  0  0
  -30.8810  -14.9730   19.9050 C   0  0  0  0  0  0  0  0  0  0  0  0
  -30.7030  -12.6730   18.9410 C   0  0  0  0  0  2  0  0  0  0  0  0
  -29.6900  -12.7060   17.7740 C   0  0  0  0  0  2  0  0  0  0  0  0
  -28.2520  -12.5080   18.2920 C   0  0  0  0  0  2  0  0  0  0  0  0
  -27.9310  -13.4020   19.5190 C   0  0  0  0  0  3  0  0  0  0  0  0
  -29.0550  -13.3440   20.5760 C   0  0  0  0  0  2  0  0  0  0  0  0
  -30.3040  -13.7240   19.9060 N   0  0  0  0  0  0  0  0  0  0  0  0
  -32.0340  -15.1220   19.4910 O   0  0  0  0  0  0  0  0  0  0  0  0
  -30.0640  -16.0620   20.1790 N   0  0  0  0  0  0  0  0  0  0  0  0
  -29.1430  -15.7910   20.4900 H   0  0  0  0  0  0  0  0  0  0  0  0
  -25.6040  -13.9620   20.4420 C   0  0  0  0  0  0  0  0  0  0  0  0
  -24.5640  -13.1730   20.8530 C   0  0  0  0  0  0  0  0  0  0  0  0
  -25.0180  -11.8250   20.7250 C   0  0  0  0  0  0  0  0  0  0  0  0
  -26.6230  -13.0940   20.0900 N   0  0  0  0  0  0  0  0  0  0  0  0
  -26.2830  -11.8000   20.3220 N   0  0  0  0  0  0  0  0  0  0  0  0
  -24.3010  -10.5560   20.9090 C   0  0  0  0  0  0  0  0  0  0  0  0
  -24.7070   -9.6120   21.8760 C   0  0  0  0  0  3  0  0  0  0  0  0
  -23.9900   -8.4070   22.0460 C   0  0  0  0  0  3  0  0  0  0  0  0
  -22.8540   -8.1390   21.2470 C   0  0  0  0  0  0  0  0  0  0  0  0
  -22.4680   -9.0720   20.2690 C   0  0  0  0  0  3  0  0  0  0  0  0
  -23.1850  -10.2680   20.0980 C   0  0  0  0  0  3  0  0  0  0  0  0
  -22.1120   -6.9850   21.3240 O   0  0  0  0  0  0  0  0  0  0  0  0
  -21.9000   -6.3440   22.5190 C   0  0  0  0  0  0  0  0  0  0  0  0
  -21.2390   -6.9760   23.5950 C   0  0  0  0  0  3  0  0  0  0  0  0
  -20.9800   -6.2570   24.7800 C   0  0  0  0  0  3  0  0  0  0  0  0
  -21.3710   -4.9090   24.8870 C   0  0  0  0  0  0  0  0  0  0  0  0
  -22.0230   -4.2770   23.8140 C   0  0  0  0  0  3  0  0  0  0  0  0
  -22.2830   -4.9930   22.6310 C   0  0  0  0  0  0  0  0  0  0  0  0
  -22.8930   -4.3730   21.5920 F   0  0  0  0  0  0  0  0  0  0  0  0
  -21.1140   -4.2170   26.0210 F   0  0  0  0  0  0  0  0  0  0  0  0
  -23.1930  -13.6390   21.2470 C   0  0  0  0  0  0  0  0  0  0  0  0
  -22.5270  -12.9040   22.1300 N   0  0  0  0  0  0  0  0  0  0  0  0
  -22.7230  -14.6890   20.8080 O   0  0  0  0  0  0  0  0  0  0  0  0
  -22.9210  -12.0550   22.5060 H   0  0  0  0  0  0  0  0  0  0  0  0
  -21.6080  -13.1950   22.4360 H   0  0  0  0  0  0  0  0  0  0  0  0
  -25.7590  -15.3400   20.3150 N   0  0  0  0  0  0  0  0  0  0  0  0
  -24.9980  -15.9840   20.5010 H   0  0  0  0  0  0  0  0  0  0  0  0
  -26.5650  -15.7930   19.9050 H   0  0  0  0  0  0  0  0  0  0  0  0
  -28.5170  -26.6380   20.0030 O   0  0  0  0  0  0  0  0  0  0  0  0
  -24.7270  -31.9170   23.2620 C   0  0  0  0  0  0  0  0  0  0  0  0
  -27.3690  -27.4580   20.0440 C   0  0  0  0  0  0  0  0  0  0  0  0
  -23.5350  -30.5760   21.5660 C   0  0  0  0  0  3  0  0  0  0  0  0
  -24.9970  -29.0770   20.0870 C   0  0  0  0  0  0  0  0  0  0  0  0
  -26.0740  -30.9040   21.4040 C   0  0  0  0  0  2  0  0  0  0  0  0
  -26.1620  -29.5450   20.7090 C   0  0  0  0  0  0  0  0  0  0  0  0
  -27.3470  -28.7460   20.6790 C   0  0  0  0  0  3  0  0  0  0  0  0
  -26.1840  -27.0510   19.3990 C   0  0  0  0  0  3  0  0  0  0  0  0
  -25.0120  -27.8370   19.4240 C   0  0  0  0  0  3  0  0  0  0  0  0
  -23.7560  -29.9480   20.1640 C   0  0  0  0  0  2  0  0  0  0  0  0
  -24.7970  -31.1490   22.1350 N   0  0  0  0  0  0  0  0  0  0  0  0
  -23.6400  -32.1700   23.8040 O   0  0  0  0  0  0  0  0  0  0  0  0
  -22.8730  -29.5230   22.4870 C   0  0  0  0  0  0  0  0  0  0  0  0
  -21.5490  -29.3410   22.3460 N   0  0  0  0  0  0  0  0  0  0  0  0
  -23.5520  -28.8750   23.2880 O   0  0  0  0  0  0  0  0  0  0  0  0
  -21.0610  -29.9150   21.6720 H   0  0  0  0  0  0  0  0  0  0  0  0
  -18.1720  -28.1310   22.8150 C   0  0  0  0  0  0  0  0  0  0  0  0
  -20.7330  -28.3700   23.0760 C   0  0  0  0  0  3  0  0  0  0  0  0
  -20.8250  -26.9680   22.4300 C   0  0  0  0  0  2  0  0  0  0  0  0
  -19.7140  -26.6990   21.4100 C   0  0  0  0  0  2  0  0  0  0  0  0
  -18.3380  -26.8170   22.0720 C   0  0  0  0  0  2  0  0  0  0  0  0
  -19.2960  -28.8690   23.2730 C   0  0  0  0  0  0  0  0  0  0  0  0
  -19.0850  -30.1010   23.9290 C   0  0  0  0  0  3  0  0  0  0  0  0
  -17.7840  -30.5950   24.1310 C   0  0  0  0  0  3  0  0  0  0  0  0
  -16.6740  -29.8540   23.6890 C   0  0  0  0  0  3  0  0  0  0  0  0
  -16.8680  -28.6230   23.0370 C   0  0  0  0  0  3  0  0  0  0  0  0
  -26.0040  -32.5320   23.9130 C   0  0  0  0  0  3  0  0  0  0  0  0
  -25.6920  -33.9230   24.2780 N   0  0  0  0  0  0  0  0  0  0  0  0
  -25.9870  -34.9930   23.5290 C   0  0  0  0  0  0  0  0  0  0  0  0
  -26.6200  -34.9150   22.4730 O   0  0  0  0  0  0  0  0  0  0  0  0
  -25.1240  -34.0560   25.1020 H   0  0  0  0  0  0  0  0  0  0  0  0
  -24.2120  -36.7610   23.2980 C   0  0  0  0  0  1  0  0  0  0  0  0
  -25.5050  -36.3680   24.0300 C   0  0  0  0  0  3  0  0  0  0  0  0
  -27.6620  -37.2900   24.7570 C   0  0  0  0  0  1  0  0  0  0  0  0
  -26.5120  -37.4410   23.8700 N   0  0  0  0  0  0  0  0  0  0  0  0
  -26.0960  -38.3530   24.0400 H   0  0  0  0  0  0  0  0  0  0  0  0
  -26.5070  -31.7290   25.1760 C   0  0  1  0  0  0  0  0  0  0  0  0
  -25.4030  -31.4620   26.2250 C   0  0  0  0  0  1  0  0  0  0  0  0
  -27.0960  -30.3620   24.7570 C   0  0  0  0  0  1  0  0  0  0  0  0
  -27.6490  -32.5070   25.8710 C   0  0  0  0  0  1  0  0  0  0  0  0
  1  3  1  0
  2  5  1  0
  3  5  2  0
  4  1  2  0
  4  6  1  0
  5  8  1  0
  6  2  2  0
  7  4  1  0
  9 11  1  0
 10 12  1  0
 10 13  1  0
 12 14  1  0
 13  3  1  0
 13  9  1  0
 14 23  1  0
 14 11  1  0
 15 21  1  0
 15 23  1  0
 16 21  1  0
 17 18  1  0
 17 16  1  0
 19 18  1  0
 19 28  1  0
 19 20  1  0
 21 20  1  0
 22 15  2  0
 23 24  1  0
 25 26  2  0
 26 45  1  0
 27 26  1  0
 27 30  1  0
 28 29  1  0
 28 25  1  0
 29 27  2  0
 30 31  1  0
 31 32  2  0
 33 36  1  0
 33 32  1  0
 34 33  2  0
 35 34  1  0
 35 30  2  0
 36 37  1  0
 37 42  2  0
 37 38  1  0
 38 39  2  0
 39 40  1  0
 40 44  1  0
 41 40  2  0
 42 41  1  0
 43 42  1  0
 45 46  1  0
 46 49  1  0
 46 48  1  0
 47 45  2  0
 50 25  1  0
 50 51  1  0
 52 50  1  0
 53  6  1  0
 53 55  1  0
 54 65  2  0
 55 60  1  0
 56 64  1  0
 56 66  1  0
 57 63  1  0
 57 59  1  0
 58 64  1  0
 59 58  1  0
 60 59  2  0
 61 62  1  0
 61 55  2  0
 62 57  2  0
 63 56  1  0
 64 54  1  0
 66 68  2  0
 67 66  1  0
 69 67  1  0
 70 79  2  0
 70 75  1  0
 71 67  1  0
 71 75  1  0
 72 71  1  0
 73 74  1  0
 73 72  1  0
 74 70  1  0
 75 76  2  0
 76 77  1  0
 78 77  2  0
 79 78  1  0
 80 54  1  0
 80 81  1  0
 80 90  1  0
 81 84  1  0
 82 86  1  0
 82 81  1  0
 83 82  2  0
 86 85  1  0
 88 86  1  0
 88 89  1  0
 88 87  1  0
 90 93  1  1
 90 91  1  0
 92 90  1  0
M  ISO  4   6 101  15 100  23 100  53 101
M  END
>  <TORSDO>  (19) 
F 17

>  <SCORE>  (19) 
-13.678

>  <name>  (19) 
18

>  <ligand_id>  (19) 
18

>  <original_smiles>  (19) 
[H]c1c([H])c([H])c2c(c1[H])C([H])([H])C([H])([H])C([H])([H])C2([H])N([H])C(=O)C1([H])N(C(=O)C([H])(N([H])C(=O)C([H])(N([H])C([H])([H])[H])C([H])([H])[H])C(C([H])([H])[H])(C([H])([H])[H])C([H])([H])[H])C([H])([H])c2c([H])c(Oc3c([H])c(C([H])([H])[H])c(C4([H])C([H])([H])C([H])([H])C([H])(N([H])C(=O)N5C([H])([H])C([H])([H])C([H])([H])C([H])(n6nc(-c7c([H])c([H])c(Oc8c([H])c([H])c(F)c([H])c8F)c([H])c7[H])c(C(=O)N([H])[H])c6N([H])[H])C5([H])[H])C([H])([H])C4([H])[H])c([H])c3C([H])([H])[H])c([H])c([H])c2C1([H])[H]

>  <smiles>  (19) 
[H]c1c([H])c([H])c2c(c1[H])C([H])([H])C([H])([H])C([H])([H])C2([H])N([H])C(=O)C1([H])N(C(=O)C([H])(N([H])C(=O)C([H])(N([H])C([H])([H])[H])C([H])([H])[H])C(C([H])([H])[H])(C([H])([H])[H])C([H])([H])[H])C([H])([H])c2c([H])c(Oc3c([H])c(C([H])([H])[H])c(C4([H])C([H])([H])C([H])([H])C([H])(N([H])C(=O)N5C([H])([H])C([H])([H])C([H])([H])C([H])(n6nc(-c7c([H])c([H])c(Oc8c([H])c([H])c(F)c([H])c8F)c([H])c7[H])c(C(=O)N([H])[H])c6N([H])[H])C5([H])[H])C([H])([H])C4([H])[H])c([H])c3C([H])([H])[H])c([H])c([H])c2C1([H])[H]

$$$$
19:0:0
     RDKit          3D

 93102  0  0  1  0  0  0  0  0999 V2000
  -30.1530  -19.1510   17.7720 C   0  0  0  0  0  3  0  0  0  0  0  0
  -30.1640  -17.6860   18.0320 C   0  0  0  0  0  0  0  0  0  0  0  0
  -30.0010  -17.2930   19.3330 C   0  0  0  0  0  3  0  0  0  0  0  0
  -30.0190  -19.9420   18.8600 C   0  0  0  0  0  3  0  0  0  0  0  0
  -29.9220  -21.6250   18.9240 C   0  0  0  0  0  2  0  0  0  0  0  0
  -28.1720  -21.3400   20.4650 C   0  0  0  0  0  2  0  0  0  0  0  0
  -28.5410  -22.5050   19.3440 C   0  0  0  0  0  3  0  0  0  0  0  0
  -28.3390  -19.6570   20.2820 C   0  0  0  0  0  3  0  0  0  0  0  0
  -29.7880  -18.9030   20.0240 C   0  0  1  0  0  0  0  0  0  0  0  0
  -30.7050  -15.7980   19.6630 C   0  0  0  0  0  0  0  0  0  0  0  0
  -30.6870  -13.2490   19.0080 C   0  0  0  0  0  2  0  0  0  0  0  0
  -29.7480  -12.8660   17.8330 C   0  0  0  0  0  2  0  0  0  0  0  0
  -28.3260  -12.5880   18.3350 C   0  0  0  0  0  2  0  0  0  0  0  0
  -27.8760  -13.6350   19.3800 C   0  0  0  0  0  3  0  0  0  0  0  0
  -28.9450  -13.9730   20.4380 C   0  0  0  0  0  2  0  0  0  0  0  0
  -30.1250  -14.4790   19.7090 N   0  0  0  0  0  0  0  0  0  0  0  0
  -31.9380  -15.6660   19.5620 O   0  0  0  0  0  0  0  0  0  0  0  0
  -25.5800  -14.2140   20.2850 C   0  0  0  0  0  0  0  0  0  0  0  0
  -24.5220  -13.4550   20.7020 C   0  0  0  0  0  0  0  0  0  0  0  0
  -24.9590  -12.0950   20.6330 C   0  0  0  0  0  0  0  0  0  0  0  0
  -26.5840  -13.3220   19.9700 N   0  0  0  0  0  0  0  0  0  0  0  0
  -26.2310  -12.0390   20.2470 N   0  0  0  0  0  0  0  0  0  0  0  0
  -24.2110  -10.8490   20.8510 C   0  0  0  0  0  0  0  0  0  0  0  0
  -24.6350   -9.8900   21.7970 C   0  0  0  0  0  3  0  0  0  0  0  0
  -23.8910   -8.7080   22.0040 C   0  0  0  0  0  3  0  0  0  0  0  0
  -22.7040   -8.4810   21.2640 C   0  0  0  0  0  0  0  0  0  0  0  0
  -22.3000   -9.4250   20.3060 C   0  0  0  0  0  3  0  0  0  0  0  0
  -23.0460  -10.5970   20.0980 C   0  0  0  0  0  3  0  0  0  0  0  0
  -21.9290   -7.3510   21.3770 O   0  0  0  0  0  0  0  0  0  0  0  0
  -21.8340   -6.6590   22.5570 C   0  0  0  0  0  0  0  0  0  0  0  0
  -21.3260   -7.2550   23.7320 C   0  0  0  0  0  3  0  0  0  0  0  0
  -21.1790   -6.4880   24.9040 C   0  0  0  0  0  3  0  0  0  0  0  0
  -21.5350   -5.1260   24.9070 C   0  0  0  0  0  0  0  0  0  0  0  0
  -22.0330   -4.5280   23.7350 C   0  0  0  0  0  3  0  0  0  0  0  0
  -22.1810   -5.2920   22.5650 C   0  0  0  0  0  0  0  0  0  0  0  0
  -22.6430   -4.7060   21.4340 F   0  0  0  0  0  0  0  0  0  0  0  0
  -21.3860   -4.3880   26.0320 F   0  0  0  0  0  0  0  0  0  0  0  0
  -23.1520  -13.9570   21.0490 C   0  0  0  0  0  0  0  0  0  0  0  0
  -22.4650  -13.2760   21.9600 N   0  0  0  0  0  0  0  0  0  0  0  0
  -22.7040  -14.9900   20.5510 O   0  0  0  0  0  0  0  0  0  0  0  0
  -22.8480  -12.4430   22.3770 H   0  0  0  0  0  0  0  0  0  0  0  0
  -21.5470  -13.5870   22.2440 H   0  0  0  0  0  0  0  0  0  0  0  0
  -25.7680  -15.5850   20.1170 N   0  0  0  0  0  0  0  0  0  0  0  0
  -25.0430  -16.2700   20.3060 H   0  0  0  0  0  0  0  0  0  0  0  0
  -26.6310  -16.0090   19.8000 H   0  0  0  0  0  0  0  0  0  0  0  0
  -32.2400  -19.0690   21.0030 C   0  0  0  0  0  1  0  0  0  0  0  0
  -30.7190  -19.1490   21.2490 C   0  0  0  0  0  2  0  0  0  0  0  0
  -30.4720  -16.8330   17.0390 O   0  0  0  0  0  0  0  0  0  0  0  0
  -30.6510  -17.3420   16.2560 H   0  0  0  0  0  0  0  0  0  0  0  0
  -27.7490  -19.0520   21.4160 O   0  0  0  0  0  0  0  0  0  0  0  0
  -28.2740  -19.2660   22.1810 H   0  0  0  0  0  0  0  0  0  0  0  0
  -28.1650  -24.3230   19.7140 C   0  0  0  0  0  2  0  0  0  0  0  0
  -28.0180  -25.9280   19.1510 O   0  0  0  0  0  0  0  0  0  0  0  0
  -24.4430  -31.6490   22.8750 C   0  0  0  0  0  0  0  0  0  0  0  0
  -26.9680  -27.0130   19.3590 C   0  0  0  0  0  0  0  0  0  0  0  0
  -23.2030  -30.3230   21.2180 C   0  0  0  0  0  3  0  0  0  0  0  0
  -24.6140  -28.8680   19.5970 C   0  0  0  0  0  0  0  0  0  0  0  0
  -25.7500  -30.6240   20.9320 C   0  0  0  0  0  2  0  0  0  0  0  0
  -25.8300  -29.2560   20.1720 C   0  0  0  0  0  0  0  0  0  0  0  0
  -26.9990  -28.3590   20.0180 C   0  0  0  0  0  3  0  0  0  0  0  0
  -25.7050  -26.8010   18.7610 C   0  0  0  0  0  3  0  0  0  0  0  0
  -24.5800  -27.6660   18.8720 C   0  0  0  0  0  3  0  0  0  0  0  0
  -23.3720  -29.7450   19.7860 C   0  0  0  0  0  2  0  0  0  0  0  0
  -24.4910  -30.8920   21.7290 N   0  0  0  0  0  0  0  0  0  0  0  0
  -23.3770  -31.8580   23.4800 O   0  0  0  0  0  0  0  0  0  0  0  0
  -22.6010  -29.2410   22.1510 C   0  0  0  0  0  0  0  0  0  0  0  0
  -21.2790  -29.0020   22.0700 N   0  0  0  0  0  0  0  0  0  0  0  0
  -23.3360  -28.6150   22.9190 O   0  0  0  0  0  0  0  0  0  0  0  0
  -20.7360  -29.5610   21.4260 H   0  0  0  0  0  0  0  0  0  0  0  0
  -18.0020  -27.5440   22.6380 C   0  0  0  0  0  0  0  0  0  0  0  0
  -20.5480  -27.9730   22.8170 C   0  0  0  0  0  3  0  0  0  0  0  0
  -20.7200  -26.5850   22.1560 C   0  0  0  0  0  2  0  0  0  0  0  0
  -19.6000  -26.2440   21.1690 C   0  0  0  0  0  2  0  0  0  0  0  0
  -18.2390  -26.2540   21.8710 C   0  0  0  0  0  2  0  0  0  0  0  0
  -19.0840  -28.3610   23.0670 C   0  0  0  0  0  0  0  0  0  0  0  0
  -18.8010  -29.5640   23.7480 C   0  0  0  0  0  3  0  0  0  0  0  0
  -17.4750  -29.9550   24.0030 C   0  0  0  0  0  3  0  0  0  0  0  0
  -16.4100  -29.1390   23.5840 C   0  0  0  0  0  3  0  0  0  0  0  0
  -16.6740  -27.9350   22.9090 C   0  0  0  0  0  3  0  0  0  0  0  0
  -25.7240  -32.3030   23.4790 C   0  0  0  0  0  3  0  0  0  0  0  0
  -26.3500  -31.4580   24.6570 C   0  0  1  0  0  0  0  0  0  0  0  0
  -25.3390  -31.0910   25.7680 C   0  0  0  0  0  1  0  0  0  0  0  0
  -26.9640  -30.1430   24.1290 C   0  0  0  0  0  1  0  0  0  0  0  0
  -27.5130  -32.2490   25.3060 C   0  0  0  0  0  1  0  0  0  0  0  0
  -25.3670  -33.6510   23.9620 N   0  0  0  0  0  0  0  0  0  0  0  0
  -25.6320  -34.7950   23.3160 C   0  0  0  0  0  0  0  0  0  0  0  0
  -26.2620  -34.8270   22.2560 O   0  0  0  0  0  0  0  0  0  0  0  0
  -24.8000  -33.6950   24.7970 H   0  0  0  0  0  0  0  0  0  0  0  0
  -23.8370  -36.5570   23.2220 C   0  0  0  0  0  1  0  0  0  0  0  0
  -25.1210  -36.1090   23.9400 C   0  0  0  0  0  3  0  0  0  0  0  0
  -27.2480  -36.9790   24.8060 C   0  0  0  0  0  1  0  0  0  0  0  0
  -26.1160  -37.2030   23.9120 N   0  0  0  0  0  0  0  0  0  0  0  0
  -25.6830  -38.0880   24.1650 H   0  0  0  0  0  0  0  0  0  0  0  0
  1  2  2  0
  2  3  1  0
  3 10  1  0
  3  9  1  0
  4  1  1  0
  4  5  1  0
  4  9  1  0
  5  7  1  0
  7 52  1  0
  7  6  1  0
  8  6  1  0
  8 50  1  0
  9  8  1  0
  9 47  1  1
 10 16  1  0
 11 16  1  0
 12 13  1  0
 12 11  1  0
 14 13  1  0
 14 21  1  0
 14 15  1  0
 16 15  1  0
 17 10  2  0
 18 19  2  0
 19 38  1  0
 20 19  1  0
 20 23  1  0
 21 22  1  0
 21 18  1  0
 22 20  2  0
 23 24  1  0
 24 25  2  0
 26 29  1  0
 26 25  1  0
 27 26  2  0
 28 27  1  0
 28 23  2  0
 29 30  1  0
 30 35  2  0
 30 31  1  0
 31 32  2  0
 32 33  1  0
 33 37  1  0
 34 33  2  0
 35 34  1  0
 36 35  1  0
 38 39  1  0
 39 42  1  0
 39 41  1  0
 40 38  2  0
 43 18  1  0
 43 44  1  0
 45 43  1  0
 46 47  1  0
 48  2  1  0
 49 48  1  0
 50 51  1  0
 53 55  1  0
 53 52  1  0
 54 65  2  0
 55 60  1  0
 56 64  1  0
 56 66  1  0
 57 63  1  0
 57 59  1  0
 58 64  1  0
 59 58  1  0
 60 59  2  0
 61 62  1  0
 61 55  2  0
 62 57  2  0
 63 56  1  0
 64 54  1  0
 66 68  2  0
 67 66  1  0
 69 67  1  0
 70 79  2  0
 70 75  1  0
 71 67  1  0
 71 75  1  0
 72 71  1  0
 73 74  1  0
 73 72  1  0
 74 70  1  0
 75 76  2  0
 76 77  1  0
 78 77  2  0
 79 78  1  0
 80 54  1  0
 80 85  1  0
 80 81  1  0
 81 84  1  1
 81 82  1  0
 83 81  1  0
 85 88  1  0
 86 90  1  0
 86 85  1  0
 87 86  2  0
 90 89  1  0
 92 90  1  0
 92 93  1  0
 92 91  1  0
M  ISO  4   3 100  10 100  52 101  53 101
M  END
>  <TORSDO>  (20) 
F 20

>  <SCORE>  (20) 
-13.380

>  <name>  (20) 
19

>  <ligand_id>  (20) 
19

>  <original_smiles>  (20) 
[H]OC1=C(C(=O)N2C([H])([H])C([H])([H])C([H])([H])C([H])(n3nc(-c4c([H])c([H])c(Oc5c([H])c([H])c(F)c([H])c5F)c([H])c4[H])c(C(=O)N([H])[H])c3N([H])[H])C2([H])[H])C2(C([H])([H])C([H])([H])[H])C(=C1[H])C([H])([H])C([H])(C([H])([H])Oc1c([H])c([H])c3c(c1[H])C([H])([H])N(C(=O)C([H])(N([H])C(=O)C([H])(N([H])C([H])([H])[H])C([H])([H])[H])C(C([H])([H])[H])(C([H])([H])[H])C([H])([H])[H])C([H])(C(=O)N([H])C1([H])c4c([H])c([H])c([H])c([H])c4C([H])([H])C([H])([H])C1([H])[H])C3([H])[H])C([H])([H])C2([H])O[H]

>  <smiles>  (20) 
[H]OC1=C(C(=O)N2C([H])([H])C([H])([H])C([H])([H])C([H])(n3nc(-c4c([H])c([H])c(Oc5c([H])c([H])c(F)c([H])c5F)c([H])c4[H])c(C(=O)N([H])[H])c3N([H])[H])C2([H])[H])C2(C([H])([H])C([H])([H])[H])C(=C1[H])C([H])([H])C([H])(C([H])([H])Oc1c([H])c([H])c3c(c1[H])C([H])([H])N(C(=O)C([H])(N([H])C(=O)C([H])(N([H])C([H])([H])[H])C([H])([H])[H])C(C([H])([H])[H])(C([H])([H])[H])C([H])([H])[H])C([H])(C(=O)N([H])C1([H])c4c([H])c([H])c([H])c([H])c4C([H])([H])C([H])([H])C1([H])[H])C3([H])[H])C([H])([H])C2([H])O[H]

$$$$
20:0:0
     RDKit          3D

 94103  0  0  1  0  0  0  0  0999 V2000
  -29.0350  -23.2080   21.7260 C   0  0  0  0  0  3  0  0  0  0  0  0
  -28.4510  -25.5510   21.3390 C   0  0  0  0  0  3  0  0  0  0  0  0
  -28.9630  -22.8180   20.3610 C   0  0  0  0  0  0  0  0  0  0  0  0
  -28.6150  -23.9660   19.4720 C   0  0  0  0  0  0  0  0  0  0  0  0
  -28.7890  -24.5030   22.2200 C   0  0  0  0  0  0  0  0  0  0  0  0
  -28.3650  -25.3590   19.9450 C   0  0  0  0  0  0  0  0  0  0  0  0
  -28.5280  -23.7040   17.9820 C   0  0  0  0  0  1  0  0  0  0  0  0
  -29.0460  -20.4390   19.0460 C   0  0  0  0  0  3  0  0  0  0  0  0
  -29.2730  -21.2400   20.1370 C   0  0  0  0  0  0  0  0  0  0  0  0
  -29.2990  -18.8690   18.8740 C   0  0  0  0  0  2  0  0  0  0  0  0
  -29.9470  -20.3930   21.2660 C   0  0  0  0  0  2  0  0  0  0  0  0
  -29.9600  -18.7980   21.2380 C   0  0  0  0  0  2  0  0  0  0  0  0
  -30.2130  -18.0450   19.8960 C   0  0  0  0  0  3  0  0  0  0  0  0
  -30.8700  -15.3560   19.9900 C   0  0  0  0  0  0  0  0  0  0  0  0
  -30.8470  -12.9000   19.3810 C   0  0  0  0  0  2  0  0  0  0  0  0
  -29.9460  -12.6690   18.1470 C   0  0  0  0  0  2  0  0  0  0  0  0
  -28.4780  -12.4740   18.5740 C   0  0  0  0  0  2  0  0  0  0  0  0
  -28.0170  -13.5420   19.6030 C   0  0  0  0  0  3  0  0  0  0  0  0
  -29.0440  -13.7360   20.7430 C   0  0  0  0  0  2  0  0  0  0  0  0
  -30.3220  -14.0860   20.1110 N   0  0  0  0  0  0  0  0  0  0  0  0
  -32.0630  -15.4480   19.6920 O   0  0  0  0  0  0  0  0  0  0  0  0
  -30.0250  -16.4890   20.0220 N   0  0  0  0  0  0  0  0  0  0  0  0
  -29.0670  -16.2340   20.2200 H   0  0  0  0  0  0  0  0  0  0  0  0
  -25.6570  -14.1810   20.3700 C   0  0  0  0  0  0  0  0  0  0  0  0
  -24.5770  -13.4340   20.7490 C   0  0  0  0  0  0  0  0  0  0  0  0
  -25.0050  -12.0700   20.7050 C   0  0  0  0  0  0  0  0  0  0  0  0
  -26.6750  -13.2780   20.1120 N   0  0  0  0  0  0  0  0  0  0  0  0
  -26.2910  -12.0030   20.3770 N   0  0  0  0  0  0  0  0  0  0  0  0
  -24.2460  -10.8280   20.9000 C   0  0  0  0  0  0  0  0  0  0  0  0
  -24.6260   -9.8760   21.8690 C   0  0  0  0  0  3  0  0  0  0  0  0
  -23.8730   -8.6960   22.0510 C   0  0  0  0  0  3  0  0  0  0  0  0
  -22.7210   -8.4610   21.2630 C   0  0  0  0  0  0  0  0  0  0  0  0
  -22.3600   -9.4020   20.2830 C   0  0  0  0  0  3  0  0  0  0  0  0
  -23.1140  -10.5730   20.1000 C   0  0  0  0  0  3  0  0  0  0  0  0
  -21.9440   -7.3330   21.3500 O   0  0  0  0  0  0  0  0  0  0  0  0
  -21.7650   -6.6710   22.5380 C   0  0  0  0  0  0  0  0  0  0  0  0
  -21.1570   -7.2900   23.6530 C   0  0  0  0  0  3  0  0  0  0  0  0
  -20.9310   -6.5510   24.8310 C   0  0  0  0  0  3  0  0  0  0  0  0
  -21.3040   -5.1950   24.8950 C   0  0  0  0  0  0  0  0  0  0  0  0
  -21.9000   -4.5750   23.7840 C   0  0  0  0  0  3  0  0  0  0  0  0
  -22.1290   -5.3110   22.6070 C   0  0  0  0  0  0  0  0  0  0  0  0
  -22.6890   -4.7030   21.5330 F   0  0  0  0  0  0  0  0  0  0  0  0
  -21.0790   -4.4820   26.0240 F   0  0  0  0  0  0  0  0  0  0  0  0
  -23.1960  -13.9470   21.0370 C   0  0  0  0  0  0  0  0  0  0  0  0
  -22.4690  -13.2840   21.9290 N   0  0  0  0  0  0  0  0  0  0  0  0
  -22.7710  -14.9710   20.5040 O   0  0  0  0  0  0  0  0  0  0  0  0
  -22.8230  -12.4570   22.3870 H   0  0  0  0  0  0  0  0  0  0  0  0
  -21.5380  -13.6080   22.1550 H   0  0  0  0  0  0  0  0  0  0  0  0
  -25.8490  -15.5490   20.1970 N   0  0  0  0  0  0  0  0  0  0  0  0
  -25.0850  -16.2070   20.2930 H   0  0  0  0  0  0  0  0  0  0  0  0
  -26.6850  -15.9740   19.8150 H   0  0  0  0  0  0  0  0  0  0  0  0
  -29.0240  -25.9620   24.1210 C   0  0  0  0  0  1  0  0  0  0  0  0
  -28.9140  -24.6490   23.5850 O   0  0  0  0  0  0  0  0  0  0  0  0
  -28.1570  -26.5830   19.1830 O   0  0  0  0  0  0  0  0  0  0  0  0
  -24.6210  -31.6680   23.1640 C   0  0  0  0  0  0  0  0  0  0  0  0
  -27.0730  -27.4930   19.3960 C   0  0  0  0  0  0  0  0  0  0  0  0
  -23.3330  -30.4570   21.4450 C   0  0  0  0  0  3  0  0  0  0  0  0
  -24.7070  -29.1220   19.7370 C   0  0  0  0  0  0  0  0  0  0  0  0
  -25.8570  -30.8310   21.1360 C   0  0  0  0  0  2  0  0  0  0  0  0
  -25.9130  -29.5340   20.3160 C   0  0  0  0  0  0  0  0  0  0  0  0
  -27.1000  -28.7380   20.1320 C   0  0  0  0  0  3  0  0  0  0  0  0
  -25.8410  -27.1690   18.7910 C   0  0  0  0  0  3  0  0  0  0  0  0
  -24.6790  -27.9500   18.9600 C   0  0  0  0  0  3  0  0  0  0  0  0
  -23.4670  -29.9650   19.9780 C   0  0  0  0  0  2  0  0  0  0  0  0
  -24.6270  -31.0000   21.9700 N   0  0  0  0  0  0  0  0  0  0  0  0
  -23.5720  -31.8480   23.8010 O   0  0  0  0  0  0  0  0  0  0  0  0
  -22.7510  -29.3130   22.3120 C   0  0  0  0  0  0  0  0  0  0  0  0
  -21.4340  -29.0690   22.1990 N   0  0  0  0  0  0  0  0  0  0  0  0
  -23.4860  -28.6500   23.0490 O   0  0  0  0  0  0  0  0  0  0  0  0
  -20.8930  -29.6600   21.5810 H   0  0  0  0  0  0  0  0  0  0  0  0
  -18.1630  -27.5630   22.5920 C   0  0  0  0  0  0  0  0  0  0  0  0
  -20.6930  -28.0100   22.8890 C   0  0  0  0  0  3  0  0  0  0  0  0
  -20.9080  -26.6420   22.2000 C   0  0  0  0  0  2  0  0  0  0  0  0
  -19.8340  -26.3140   21.1580 C   0  0  0  0  0  2  0  0  0  0  0  0
  -18.4480  -26.2920   21.8070 C   0  0  0  0  0  2  0  0  0  0  0  0
  -19.2180  -28.3760   23.0860 C   0  0  0  0  0  0  0  0  0  0  0  0
  -18.8980  -29.5630   23.7800 C   0  0  0  0  0  3  0  0  0  0  0  0
  -17.5580  -29.9390   23.9850 C   0  0  0  0  0  3  0  0  0  0  0  0
  -16.5180  -29.1230   23.5070 C   0  0  0  0  0  3  0  0  0  0  0  0
  -16.8220  -27.9370   22.8150 C   0  0  0  0  0  3  0  0  0  0  0  0
  -25.9290  -32.2550   23.7750 C   0  0  0  0  0  3  0  0  0  0  0  0
  -25.6370  -33.6240   24.2260 N   0  0  0  0  0  0  0  0  0  0  0  0
  -25.9560  -34.7370   23.5520 C   0  0  0  0  0  0  0  0  0  0  0  0
  -26.5990  -34.7170   22.4980 O   0  0  0  0  0  0  0  0  0  0  0  0
  -25.0600  -33.7130   25.0490 H   0  0  0  0  0  0  0  0  0  0  0  0
  -24.2400  -36.5710   23.3910 C   0  0  0  0  0  1  0  0  0  0  0  0
  -25.4940  -36.0860   24.1370 C   0  0  0  0  0  3  0  0  0  0  0  0
  -27.6440  -36.8860   25.0120 C   0  0  0  0  0  1  0  0  0  0  0  0
  -26.5350  -37.1370   24.0960 N   0  0  0  0  0  0  0  0  0  0  0  0
  -26.1380  -38.0470   24.3170 H   0  0  0  0  0  0  0  0  0  0  0  0
  -26.4970  -31.3910   24.9680 C   0  0  1  0  0  0  0  0  0  0  0  0
  -25.4480  -31.0680   26.0580 C   0  0  0  0  0  1  0  0  0  0  0  0
  -27.0650  -30.0500   24.4540 C   0  0  0  0  0  1  0  0  0  0  0  0
  -27.6710  -32.1380   25.6450 C   0  0  0  0  0  1  0  0  0  0  0  0
  1  5  1  0
  2  5  2  0
  3  1  2  0
  4  6  2  0
  4  3  1  0
  5 53  1  0
  6  2  1  0
  7  4  1  0
  8  9  2  0
  9  3  1  0
  9 11  1  0
 10  8  1  0
 10 13  1  0
 12 11  1  0
 13 22  1  0
 13 12  1  0
 14 22  1  0
 14 20  1  0
 15 20  1  0
 16 17  1  0
 16 15  1  0
 18 17  1  0
 18 27  1  0
 18 19  1  0
 20 19  1  0
 21 14  2  0
 22 23  1  0
 24 25  2  0
 25 44  1  0
 26 25  1  0
 26 29  1  0
 27 24  1  0
 27 28  1  0
 28 26  2  0
 29 30  1  0
 30 31  2  0
 32 35  1  0
 32 31  1  0
 33 32  2  0
 34 33  1  0
 34 29  2  0
 35 36  1  0
 36 41  2  0
 36 37  1  0
 37 38  2  0
 38 39  1  0
 39 43  1  0
 40 39  2  0
 41 40  1  0
 42 41  1  0
 44 45  1  0
 45 48  1  0
 45 47  1  0
 46 44  2  0
 49 50  1  0
 49 24  1  0
 51 49  1  0
 53 52  1  0
 54 56  1  0
 54  6  1  0
 55 66  2  0
 56 61  1  0
 57 65  1  0
 57 67  1  0
 58 64  1  0
 58 60  1  0
 59 65  1  0
 60 59  1  0
 61 60  2  0
 62 63  1  0
 62 56  2  0
 63 58  2  0
 64 57  1  0
 65 55  1  0
 67 69  2  0
 68 67  1  0
 70 68  1  0
 71 80  2  0
 71 76  1  0
 72 68  1  0
 72 76  1  0
 73 72  1  0
 74 75  1  0
 74 73  1  0
 75 71  1  0
 76 77  2  0
 77 78  1  0
 79 78  2  0
 80 79  1  0
 81 55  1  0
 81 82  1  0
 81 91  1  0
 82 85  1  0
 83 87  1  0
 83 82  1  0
 84 83  2  0
 87 86  1  0
 89 87  1  0
 89 90  1  0
 89 88  1  0
 91 94  1  1
 91 92  1  0
 93 91  1  0
M  ISO  4   6 101  14 100  22 100  54 101
M  END
>  <TORSDO>  (21) 
F 18

>  <SCORE>  (21) 
-13.430

>  <name>  (21) 
20

>  <ligand_id>  (21) 
20

>  <original_smiles>  (21) 
[H]C1=C(c2c([H])c(OC([H])([H])[H])c([H])c(Oc3c([H])c([H])c4c(c3[H])C([H])([H])N(C(=O)C([H])(N([H])C(=O)C([H])(N([H])C([H])([H])[H])C([H])([H])[H])C(C([H])([H])[H])(C([H])([H])[H])C([H])([H])[H])C([H])(C(=O)N([H])C3([H])c5c([H])c([H])c([H])c([H])c5C([H])([H])C([H])([H])C3([H])[H])C4([H])[H])c2C([H])([H])[H])C([H])([H])C([H])([H])C([H])(N([H])C(=O)N2C([H])([H])C([H])([H])C([H])([H])C([H])(n3nc(-c4c([H])c([H])c(Oc5c([H])c([H])c(F)c([H])c5F)c([H])c4[H])c(C(=O)N([H])[H])c3N([H])[H])C2([H])[H])C1([H])[H]

>  <smiles>  (21) 
[H]C1=C(c2c([H])c(OC([H])([H])[H])c([H])c(Oc3c([H])c([H])c4c(c3[H])C([H])([H])N(C(=O)C([H])(N([H])C(=O)C([H])(N([H])C([H])([H])[H])C([H])([H])[H])C(C([H])([H])[H])(C([H])([H])[H])C([H])([H])[H])C([H])(C(=O)N([H])C3([H])c5c([H])c([H])c([H])c([H])c5C([H])([H])C([H])([H])C3([H])[H])C4([H])[H])c2C([H])([H])[H])C([H])([H])C([H])([H])C([H])(N([H])C(=O)N2C([H])([H])C([H])([H])C([H])([H])C([H])(n3nc(-c4c([H])c([H])c(Oc5c([H])c([H])c(F)c([H])c5F)c([H])c4[H])c(C(=O)N([H])[H])c3N([H])[H])C2([H])[H])C1([H])[H]

$$$$
21:0:0
     RDKit          3D

 90 95  0  0  1  0  0  0  0  0999 V2000
  -29.4040  -19.4740   20.5300 C   0  0  0  0  0  2  0  0  0  0  0  0
  -30.2000  -16.1260   20.2470 C   0  0  0  0  0  0  0  0  0  0  0  0
  -30.4460  -13.4800   19.4890 C   0  0  0  0  0  2  0  0  0  0  0  0
  -29.6150  -12.8380   18.3290 C   0  0  0  0  0  2  0  0  0  0  0  0
  -28.2260  -12.3950   18.8060 C   0  0  0  0  0  2  0  0  0  0  0  0
  -27.6350  -13.4380   19.7730 C   0  0  0  0  0  3  0  0  0  0  0  0
  -28.6290  -13.9510   20.8520 C   0  0  0  0  0  2  0  0  0  0  0  0
  -29.7240  -14.6950   20.1460 N   0  0  0  0  0  0  0  0  0  0  0  0
  -31.4500  -15.9830   20.2510 O   0  0  0  0  0  0  0  0  0  0  0  0
  -28.0750  -17.3780   19.6840 C   0  0  0  0  0  1  0  0  0  0  0  0
  -29.4330  -17.5950   20.1680 N   0  0  0  0  0  0  0  0  0  0  0  0
  -25.2730  -13.9280   20.5400 C   0  0  0  0  0  0  0  0  0  0  0  0
  -24.2190  -13.1400   20.8960 C   0  0  0  0  0  0  0  0  0  0  0  0
  -24.7000  -11.7950   20.8630 C   0  0  0  0  0  0  0  0  0  0  0  0
  -26.3290  -13.0700   20.3010 N   0  0  0  0  0  0  0  0  0  0  0  0
  -25.9980  -11.7770   20.5600 N   0  0  0  0  0  0  0  0  0  0  0  0
  -23.9750  -10.5290   21.0410 C   0  0  0  0  0  0  0  0  0  0  0  0
  -24.4020   -9.5540   21.9690 C   0  0  0  0  0  3  0  0  0  0  0  0
  -23.6700   -8.3600   22.1400 C   0  0  0  0  0  3  0  0  0  0  0  0
  -22.4980   -8.1280   21.3820 C   0  0  0  0  0  0  0  0  0  0  0  0
  -22.0880   -9.0920   20.4430 C   0  0  0  0  0  3  0  0  0  0  0  0
  -22.8220  -10.2780   20.2700 C   0  0  0  0  0  3  0  0  0  0  0  0
  -21.7400   -6.9840   21.4630 O   0  0  0  0  0  0  0  0  0  0  0  0
  -21.6910   -6.2310   22.6080 C   0  0  0  0  0  0  0  0  0  0  0  0
  -21.2770   -6.7770   23.8420 C   0  0  0  0  0  3  0  0  0  0  0  0
  -21.1750   -5.9510   24.9800 C   0  0  0  0  0  3  0  0  0  0  0  0
  -21.4790   -4.5810   24.8840 C   0  0  0  0  0  0  0  0  0  0  0  0
  -21.8880   -4.0330   23.6550 C   0  0  0  0  0  3  0  0  0  0  0  0
  -21.9900   -4.8560   22.5190 C   0  0  0  0  0  0  0  0  0  0  0  0
  -22.3630   -4.3200   21.3330 F   0  0  0  0  0  0  0  0  0  0  0  0
  -21.3750   -3.7840   25.9730 F   0  0  0  0  0  0  0  0  0  0  0  0
  -22.8160  -13.6100   21.1480 C   0  0  0  0  0  0  0  0  0  0  0  0
  -22.0810  -12.9110   22.0060 N   0  0  0  0  0  0  0  0  0  0  0  0
  -22.3830  -14.6340   20.6230 O   0  0  0  0  0  0  0  0  0  0  0  0
  -22.4460  -12.0840   22.4520 H   0  0  0  0  0  0  0  0  0  0  0  0
  -21.1400  -13.2110   22.2210 H   0  0  0  0  0  0  0  0  0  0  0  0
  -25.4140  -15.3000   20.3620 N   0  0  0  0  0  0  0  0  0  0  0  0
  -24.6310  -15.9360   20.4710 H   0  0  0  0  0  0  0  0  0  0  0  0
  -26.2500  -15.7540   20.0230 H   0  0  0  0  0  0  0  0  0  0  0  0
  -33.2080  -19.5610   20.8060 C   0  0  0  0  0  3  0  0  0  0  0  0
  -33.4120  -20.2560   22.0080 C   0  0  0  0  0  3  0  0  0  0  0  0
  -31.9000  -19.3230   20.3540 C   0  0  0  0  0  3  0  0  0  0  0  0
  -32.3140  -20.7250   22.7590 C   0  0  0  0  0  0  0  0  0  0  0  0
  -30.7870  -19.7750   21.0930 C   0  0  0  0  0  0  0  0  0  0  0  0
  -30.9890  -20.4990   22.3020 C   0  0  0  0  0  0  0  0  0  0  0  0
  -32.5960  -21.4670   24.0560 C   0  0  0  0  0  1  0  0  0  0  0  0
  -29.7990  -21.0170   23.1090 C   0  0  0  0  0  1  0  0  0  0  0  0
  -28.7460  -21.3780   19.9250 C   0  0  0  0  0 15  0  0  0  0  0  0
  -28.1960  -23.3460   20.4510 C   0  0  0  0  0 15  0  0  0  0  0  0
  -28.1640  -25.2190   20.1460 O   0  0  0  0  0  1  0  0  0  0  0  0
  -24.6510  -31.8420   23.0720 C   0  0  0  0  0  0  0  0  0  0  0  0
  -27.1920  -26.5250   20.1790 C   0  0  0  0  0  0  0  0  0  0  0  0
  -23.4820  -30.4150   21.4520 C   0  0  0  0  0  3  0  0  0  0  0  0
  -24.9390  -28.7060   20.0840 C   0  0  0  0  0  0  0  0  0  0  0  0
  -26.0730  -30.4950   21.3620 C   0  0  0  0  0  2  0  0  0  0  0  0
  -26.1410  -29.0280   20.7270 C   0  0  0  0  0  0  0  0  0  0  0  0
  -27.2410  -27.9770   20.7250 C   0  0  0  0  0  3  0  0  0  0  0  0
  -25.9470  -26.4770   19.4790 C   0  0  0  0  0  3  0  0  0  0  0  0
  -24.8960  -27.4590   19.4350 C   0  0  0  0  0  3  0  0  0  0  0  0
  -23.7420  -29.6850   20.1000 C   0  0  0  0  0  2  0  0  0  0  0  0
  -24.7620  -30.9580   22.0130 N   0  0  0  0  0  0  0  0  0  0  0  0
  -23.5490  -32.1530   23.5620 O   0  0  0  0  0  0  0  0  0  0  0  0
  -22.7440  -29.4670   22.4380 C   0  0  0  0  0  0  0  0  0  0  0  0
  -21.4060  -29.3440   22.3330 N   0  0  0  0  0  0  0  0  0  0  0  0
  -23.3940  -28.8350   23.2750 O   0  0  0  0  0  0  0  0  0  0  0  0
  -20.9290  -29.9020   21.6390 H   0  0  0  0  0  0  0  0  0  0  0  0
  -18.0020  -28.1880   22.9110 C   0  0  0  0  0  0  0  0  0  0  0  0
  -20.5730  -28.4200   23.1180 C   0  0  0  0  0  3  0  0  0  0  0  0
  -20.6380  -26.9880   22.5380 C   0  0  0  0  0  2  0  0  0  0  0  0
  -19.5120  -26.6870   21.5430 C   0  0  0  0  0  2  0  0  0  0  0  0
  -18.1470  -26.8450   22.2160 C   0  0  0  0  0  2  0  0  0  0  0  0
  -19.1400  -28.9360   23.3190 C   0  0  0  0  0  0  0  0  0  0  0  0
  -18.9450  -30.1900   23.9360 C   0  0  0  0  0  3  0  0  0  0  0  0
  -17.6490  -30.6990   24.1430 C   0  0  0  0  0  3  0  0  0  0  0  0
  -16.5280  -29.9500   23.7460 C   0  0  0  0  0  3  0  0  0  0  0  0
  -16.7060  -28.6960   23.1360 C   0  0  0  0  0  3  0  0  0  0  0  0
  -25.8980  -32.5180   23.7180 C   0  0  0  0  0  3  0  0  0  0  0  0
  -26.4030  -31.7660   25.0130 C   0  0  1  0  0  0  0  0  0  0  0  0
  -25.2990  -31.5320   26.0730 C   0  0  0  0  0  1  0  0  0  0  0  0
  -27.0010  -30.3870   24.6600 C   0  0  0  0  0  1  0  0  0  0  0  0
  -27.5420  -32.5750   25.6790 C   0  0  0  0  0  1  0  0  0  0  0  0
  -25.5500  -33.9120   24.0660 N   0  0  0  0  0  0  0  0  0  0  0  0
  -25.8810  -34.9980   23.3520 C   0  0  0  0  0  0  0  0  0  0  0  0
  -26.5640  -34.9300   22.3280 O   0  0  0  0  0  0  0  0  0  0  0  0
  -24.9400  -34.0360   24.8600 H   0  0  0  0  0  0  0  0  0  0  0  0
  -24.1470  -36.8030   23.0430 C   0  0  0  0  0  1  0  0  0  0  0  0
  -25.3840  -36.3740   23.8480 C   0  0  0  0  0  3  0  0  0  0  0  0
  -27.5060  -37.2560   24.7220 C   0  0  0  0  0  1  0  0  0  0  0  0
  -26.4110  -37.4390   23.7730 N   0  0  0  0  0  0  0  0  0  0  0  0
  -25.9970  -38.3520   23.9380 H   0  0  0  0  0  0  0  0  0  0  0  0
  1 44  1  0
  2  9  2  0
  3  8  1  0
  4  5  1  0
  4  3  1  0
  6  5  1  0
  6 15  1  0
  6  7  1  0
  8  2  1  0
  8  7  1  0
 10 11  1  0
 11  2  1  0
 11  1  1  0
 12 13  2  0
 13 32  1  0
 14 13  1  0
 14 17  1  0
 15 12  1  0
 15 16  1  0
 16 14  2  0
 17 18  1  0
 18 19  2  0
 20 23  1  0
 20 19  1  0
 21 20  2  0
 22 21  1  0
 22 17  2  0
 23 24  1  0
 24 25  1  0
 25 26  2  0
 27 26  1  0
 27 31  1  0
 28 27  2  0
 29 24  2  0
 29 28  1  0
 30 29  1  0
 32 33  1  0
 33 36  1  0
 33 35  1  0
 34 32  2  0
 37 38  1  0
 37 12  1  0
 39 37  1  0
 40 41  1  0
 41 43  2  0
 42 40  2  0
 42 44  1  0
 43 46  1  0
 44 45  2  0
 45 43  1  0
 45 47  1  0
 50 52  1  0
 51 62  2  0
 52 57  1  0
 53 61  1  0
 53 63  1  0
 54 60  1  0
 54 56  1  0
 55 61  1  0
 56 55  1  0
 57 56  2  0
 58 52  2  0
 59 58  1  0
 59 54  2  0
 60 53  1  0
 61 51  1  0
 63 65  2  0
 64 63  1  0
 66 64  1  0
 67 76  2  0
 67 72  1  0
 68 64  1  0
 68 72  1  0
 69 68  1  0
 70 71  1  0
 70 69  1  0
 71 67  1  0
 72 73  2  0
 73 74  1  0
 75 74  2  0
 76 75  1  0
 77 51  1  0
 77 82  1  0
 77 78  1  0
 78 81  1  1
 78 79  1  0
 80 78  1  0
 82 85  1  0
 83 87  1  0
 83 82  1  0
 84 83  2  0
 87 86  1  0
 89 87  1  0
 89 90  1  0
 89 88  1  0
M  ISO  4   2 100  11 100  49 101  50 101
M  END
>  <TORSDO>  (22) 
F 19

>  <SCORE>  (22) 
-16.319

>  <name>  (22) 
21

>  <ligand_id>  (22) 
21

>  <original_smiles>  (22) 
[H]c1c([H])c([H])c2c(c1[H])C([H])([H])C([H])([H])C([H])([H])C2([H])N([H])C(=O)C1([H])N(C(=O)C([H])(N([H])C(=O)C([H])(N([H])C([H])([H])[H])C([H])([H])[H])C(C([H])([H])[H])(C([H])([H])[H])C([H])([H])[H])C([H])([H])c2c([H])c(OC([H])([H])C([H])([H])C([H])(c3c([H])c([H])c([H])c(C([H])([H])[H])c3C([H])([H])[H])N(C(=O)N3C([H])([H])C([H])([H])C([H])([H])C([H])(n4nc(-c5c([H])c([H])c(Oc6c([H])c([H])c(F)c([H])c6F)c([H])c5[H])c(C(=O)N([H])[H])c4N([H])[H])C3([H])[H])C([H])([H])[H])c([H])c([H])c2C1([H])[H]

>  <smiles>  (22) 
[H]c1c([H])c([H])c2c(c1[H])C([H])([H])C([H])([H])C([H])([H])C2([H])N([H])C(=O)C1([H])N(C(=O)C([H])(N([H])C(=O)C([H])(N([H])C([H])([H])[H])C([H])([H])[H])C(C([H])([H])[H])(C([H])([H])[H])C([H])([H])[H])C([H])([H])c2c([H])c(OC([H])([H])C([H])([H])C([H])(c3c([H])c([H])c([H])c(C([H])([H])[H])c3C([H])([H])[H])N(C(=O)N3C([H])([H])C([H])([H])C([H])([H])C([H])(n4nc(-c5c([H])c([H])c(Oc6c([H])c([H])c(F)c([H])c6F)c([H])c5[H])c(C(=O)N([H])[H])c4N([H])[H])C3([H])[H])C([H])([H])[H])c([H])c([H])c2C1([H])[H]

$$$$
22:0:0
     RDKit          3D

 96105  0  0  1  0  0  0  0  0999 V2000
  -28.7860  -23.2400   18.9460 C   0  0  0  0  0  3  0  0  0  0  0  0
  -28.9250  -25.0110   21.1150 C   0  0  0  0  0  3  0  0  0  0  0  0
  -28.6060  -22.7330   20.2540 C   0  0  0  0  0  0  0  0  0  0  0  0
  -29.0060  -24.6160   18.7150 C   0  0  0  0  0  0  0  0  0  0  0  0
  -28.7020  -23.6360   21.3450 C   0  0  0  0  0  0  0  0  0  0  0  0
  -29.0490  -25.5140   19.8030 C   0  0  0  0  0  0  0  0  0  0  0  0
  -29.1610  -25.1310   17.2970 C   0  0  0  0  0  1  0  0  0  0  0  0
  -28.9870  -20.5030   21.2630 C   0  0  0  0  0  3  0  0  0  0  0  0
  -28.2690  -21.2970   20.4350 C   0  0  0  0  0  0  0  0  0  0  0  0
  -27.0340  -20.8270   19.6770 C   0  0  0  0  0  1  0  0  0  0  0  0
  -28.7170  -19.0470   21.6410 C   0  0  0  0  0  2  0  0  0  0  0  0
  -31.3910  -14.4380   19.4840 C   0  0  0  0  0  0  0  0  0  0  0  0
  -30.9520  -12.2470   18.4470 C   0  0  0  0  0  2  0  0  0  0  0  0
  -29.8670  -12.4000   17.3620 C   0  0  0  0  0  2  0  0  0  0  0  0
  -28.4610  -12.2610   17.9780 C   0  0  0  0  0  2  0  0  0  0  0  0
  -28.2710  -13.1430   19.2410 C   0  0  0  0  0  3  0  0  0  0  0  0
  -29.4570  -12.9770   20.2150 C   0  0  0  0  0  2  0  0  0  0  0  0
  -30.6980  -13.2660   19.4770 N   0  0  0  0  0  0  0  0  0  0  0  0
  -32.4190  -14.6020   18.8170 O   0  0  0  0  0  0  0  0  0  0  0  0
  -29.6590  -17.7310   19.6600 C   0  0  0  0  0  2  0  0  0  0  0  0
  -29.8050  -16.7470   21.9520 C   0  0  0  0  0  2  0  0  0  0  0  0
  -30.7550  -16.7490   19.2100 C   0  0  0  0  0  2  0  0  0  0  0  0
  -30.9080  -15.7910   21.4480 C   0  0  0  0  0  2  0  0  0  0  0  0
  -29.8020  -18.0650   21.1530 C   0  0  0  0  0  3  0  0  0  0  0  0
  -30.7530  -15.5100   20.0120 N   0  0  0  0  0  0  0  0  0  0  0  0
  -26.0300  -13.7540   20.3520 C   0  0  0  0  0  0  0  0  0  0  0  0
  -25.0010  -12.9820   20.8180 C   0  0  0  0  0  0  0  0  0  0  0  0
  -25.4000  -11.6250   20.6160 C   0  0  0  0  0  0  0  0  0  0  0  0
  -26.9940  -12.8670   19.8980 N   0  0  0  0  0  0  0  0  0  0  0  0
  -26.6270  -11.5770   20.1120 N   0  0  0  0  0  0  0  0  0  0  0  0
  -24.6630  -10.3720   20.8190 C   0  0  0  0  0  0  0  0  0  0  0  0
  -25.0700   -9.4230   21.7840 C   0  0  0  0  0  3  0  0  0  0  0  0
  -24.3350   -8.2340   21.9730 C   0  0  0  0  0  3  0  0  0  0  0  0
  -23.1790   -7.9820   21.1970 C   0  0  0  0  0  0  0  0  0  0  0  0
  -22.7910   -8.9180   20.2220 C   0  0  0  0  0  3  0  0  0  0  0  0
  -23.5270  -10.1000   20.0310 C   0  0  0  0  0  3  0  0  0  0  0  0
  -22.4180   -6.8430   21.2930 O   0  0  0  0  0  0  0  0  0  0  0  0
  -22.1490   -6.2560   22.5040 C   0  0  0  0  0  0  0  0  0  0  0  0
  -21.5000   -6.9560   23.5440 C   0  0  0  0  0  3  0  0  0  0  0  0
  -21.1820   -6.2940   24.7470 C   0  0  0  0  0  3  0  0  0  0  0  0
  -21.5030   -4.9330   24.9080 C   0  0  0  0  0  0  0  0  0  0  0  0
  -22.1450   -4.2330   23.8710 C   0  0  0  0  0  3  0  0  0  0  0  0
  -22.4640   -4.8930   22.6720 C   0  0  0  0  0  0  0  0  0  0  0  0
  -23.0640   -4.2070   21.6680 F   0  0  0  0  0  0  0  0  0  0  0  0
  -21.1910   -4.2950   26.0600 F   0  0  0  0  0  0  0  0  0  0  0  0
  -23.6800  -13.4730   21.3380 C   0  0  0  0  0  0  0  0  0  0  0  0
  -23.0840  -12.7490   22.2790 N   0  0  0  0  0  0  0  0  0  0  0  0
  -23.1900  -14.5300   20.9430 O   0  0  0  0  0  0  0  0  0  0  0  0
  -23.4960  -11.8910   22.6170 H   0  0  0  0  0  0  0  0  0  0  0  0
  -22.2040  -13.0570   22.6680 H   0  0  0  0  0  0  0  0  0  0  0  0
  -26.2200  -15.1280   20.2570 N   0  0  0  0  0  0  0  0  0  0  0  0
  -25.5120  -15.7960   20.5420 H   0  0  0  0  0  0  0  0  0  0  0  0
  -27.0490  -15.5660   19.8740 H   0  0  0  0  0  0  0  0  0  0  0  0
  -28.5390  -23.2040   22.6330 O   0  0  0  0  0  0  0  0  0  0  0  0
  -28.6150  -23.9010   23.2760 H   0  0  0  0  0  0  0  0  0  0  0  0
  -29.1720  -26.8700   19.5820 O   0  0  0  0  0  0  0  0  0  0  0  0
  -25.3300  -31.3000   23.6260 C   0  0  0  0  0  0  0  0  0  0  0  0
  -28.0320  -27.6340   19.7020 C   0  0  0  0  0  0  0  0  0  0  0  0
  -24.1890  -30.3940   21.6260 C   0  0  0  0  0  3  0  0  0  0  0  0
  -25.6850  -29.1870   19.9500 C   0  0  0  0  0  0  0  0  0  0  0  0
  -26.7310  -30.6790   21.6610 C   0  0  0  0  0  2  0  0  0  0  0  0
  -26.8160  -29.5010   20.7130 C   0  0  0  0  0  0  0  0  0  0  0  0
  -27.9940  -28.7290   20.5930 C   0  0  0  0  0  3  0  0  0  0  0  0
  -26.8860  -27.3370   18.9300 C   0  0  0  0  0  3  0  0  0  0  0  0
  -25.7130  -28.1030   19.0560 C   0  0  0  0  0  3  0  0  0  0  0  0
  -24.4660  -30.0620   20.1360 C   0  0  0  0  0  2  0  0  0  0  0  0
  -25.4310  -30.7900   22.3650 N   0  0  0  0  0  0  0  0  0  0  0  0
  -24.2260  -31.4800   24.1560 O   0  0  0  0  0  0  0  0  0  0  0  0
  -23.4490  -29.1990   22.2700 C   0  0  0  0  0  0  0  0  0  0  0  0
  -22.1210  -29.1450   22.0770 N   0  0  0  0  0  0  0  0  0  0  0  0
  -24.0680  -28.3370   22.8990 O   0  0  0  0  0  0  0  0  0  0  0  0
  -21.6870  -29.8950   21.5570 H   0  0  0  0  0  0  0  0  0  0  0  0
  -18.6600  -28.1200   22.2350 C   0  0  0  0  0  0  0  0  0  0  0  0
  -21.2250  -28.0940   22.5570 C   0  0  0  0  0  3  0  0  0  0  0  0
  -21.2300  -26.8790   21.6020 C   0  0  0  0  0  2  0  0  0  0  0  0
  -20.1260  -26.9390   20.5420 C   0  0  0  0  0  2  0  0  0  0  0  0
  -18.7470  -27.0040   21.2070 C   0  0  0  0  0  2  0  0  0  0  0  0
  -19.8250  -28.6430   22.8570 C   0  0  0  0  0  0  0  0  0  0  0  0
  -19.6920  -29.7030   23.7790 C   0  0  0  0  0  3  0  0  0  0  0  0
  -18.4260  -30.2380   24.0830 C   0  0  0  0  0  3  0  0  0  0  0  0
  -17.2750  -29.7070   23.4770 C   0  0  0  0  0  3  0  0  0  0  0  0
  -17.3930  -28.6480   22.5590 C   0  0  0  0  0  3  0  0  0  0  0  0
  -26.5940  -31.7020   24.4490 C   0  0  0  0  0  3  0  0  0  0  0  0
  -26.9680  -30.6520   25.5660 C   0  0  1  0  0  0  0  0  0  0  0  0
  -25.7850  -30.2780   26.4890 C   0  0  0  0  0  1  0  0  0  0  0  0
  -27.5020  -29.3460   24.9300 C   0  0  0  0  0  1  0  0  0  0  0  0
  -28.1070  -31.2110   26.4500 C   0  0  0  0  0  1  0  0  0  0  0  0
  -26.3340  -33.0210   25.0410 N   0  0  0  0  0  0  0  0  0  0  0  0
  -26.8130  -34.1760   24.5620 C   0  0  0  0  0  0  0  0  0  0  0  0
  -27.5910  -34.2350   23.6050 O   0  0  0  0  0  0  0  0  0  0  0  0
  -25.6620  -33.0540   25.7940 H   0  0  0  0  0  0  0  0  0  0  0  0
  -25.2770  -36.1610   24.4030 C   0  0  0  0  0  1  0  0  0  0  0  0
  -26.3570  -35.4740   25.2550 C   0  0  0  0  0  3  0  0  0  0  0  0
  -28.4020  -35.9460   26.5290 C   0  0  0  0  0  1  0  0  0  0  0  0
  -27.4610  -36.4220   25.5180 N   0  0  0  0  0  0  0  0  0  0  0  0
  -27.0980  -37.3210   25.8240 H   0  0  0  0  0  0  0  0  0  0  0  0
  1  3  1  0
  2  5  1  0
  3  9  1  0
  3  5  2  0
  4  1  2  0
  4  6  1  0
  5 54  1  0
  6  2  2  0
  7  4  1  0
  8 11  1  0
  9  8  2  0
 10  9  1  0
 12 25  1  0
 13 18  1  0
 14 15  1  0
 14 13  1  0
 16 15  1  0
 16 29  1  0
 16 17  1  0
 18 12  1  0
 18 17  1  0
 19 12  2  0
 20 24  1  0
 22 20  1  0
 22 25  1  0
 23 21  1  0
 24 11  1  0
 24 21  1  0
 25 23  1  0
 26 27  2  0
 27 46  1  0
 28 27  1  0
 28 31  1  0
 29 30  1  0
 29 26  1  0
 30 28  2  0
 31 32  1  0
 32 33  2  0
 34 37  1  0
 34 33  1  0
 35 34  2  0
 36 35  1  0
 36 31  2  0
 37 38  1  0
 38 43  2  0
 38 39  1  0
 39 40  2  0
 40 41  1  0
 41 45  1  0
 42 41  2  0
 43 42  1  0
 44 43  1  0
 46 47  1  0
 47 49  1  0
 47 50  1  0
 48 46  2  0
 51 26  1  0
 51 52  1  0
 53 51  1  0
 54 55  1  0
 56 58  1  0
 56  6  1  0
 57 68  2  0
 58 63  1  0
 59 69  1  0
 59 67  1  0
 60 66  1  0
 60 62  1  0
 61 67  1  0
 62 61  1  0
 63 62  2  0
 64 65  1  0
 64 58  2  0
 65 60  2  0
 66 59  1  0
 67 57  1  0
 69 71  2  0
 70 69  1  0
 72 70  1  0
 73 82  2  0
 73 78  1  0
 74 70  1  0
 74 78  1  0
 75 74  1  0
 76 77  1  0
 76 75  1  0
 77 73  1  0
 78 79  2  0
 79 80  1  0
 81 80  2  0
 82 81  1  0
 83 57  1  0
 83 88  1  0
 83 84  1  0
 84 87  1  1
 84 85  1  0
 86 84  1  0
 88 91  1  0
 89 88  1  0
 89 93  1  0
 90 89  2  0
 93 92  1  0
 93 95  1  0
 95 96  1  0
 95 94  1  0
M  ISO  4   6 101  12 100  25 100  56 101
M  END
>  <TORSDO>  (23) 
F 19

>  <SCORE>  (23) 
-8.840

>  <name>  (23) 
22

>  <ligand_id>  (23) 
22

>  <original_smiles>  (23) 
[H]Oc1c([H])c(Oc2c([H])c([H])c3c(c2[H])C([H])([H])N(C(=O)C([H])(N([H])C(=O)C([H])(N([H])C([H])([H])[H])C([H])([H])[H])C(C([H])([H])[H])(C([H])([H])[H])C([H])([H])[H])C([H])(C(=O)N([H])C2([H])c4c([H])c([H])c([H])c([H])c4C([H])([H])C([H])([H])C2([H])[H])C3([H])[H])c(C([H])([H])[H])c([H])c1C(=C([H])C([H])([H])C1([H])C([H])([H])C([H])([H])N(C(=O)N2C([H])([H])C([H])([H])C([H])([H])C([H])(n3nc(-c4c([H])c([H])c(Oc5c([H])c([H])c(F)c([H])c5F)c([H])c4[H])c(C(=O)N([H])[H])c3N([H])[H])C2([H])[H])C([H])([H])C1([H])[H])C([H])([H])[H]

>  <smiles>  (23) 
[H]Oc1c([H])c(Oc2c([H])c([H])c3c(c2[H])C([H])([H])N(C(=O)C([H])(N([H])C(=O)C([H])(N([H])C([H])([H])[H])C([H])([H])[H])C(C([H])([H])[H])(C([H])([H])[H])C([H])([H])[H])C([H])(C(=O)N([H])C2([H])c4c([H])c([H])c([H])c([H])c4C([H])([H])C([H])([H])C2([H])[H])C3([H])[H])c(C([H])([H])[H])c([H])c1C(=C([H])C([H])([H])C1([H])C([H])([H])C([H])([H])N(C(=O)N2C([H])([H])C([H])([H])C([H])([H])C([H])(n3nc(-c4c([H])c([H])c(Oc5c([H])c([H])c(F)c([H])c5F)c([H])c4[H])c(C(=O)N([H])[H])c3N([H])[H])C2([H])[H])C([H])([H])C1([H])[H])C([H])([H])[H]

$$$$
23:0:0
     RDKit          3D

 97106  0  0  1  0  0  0  0  0999 V2000
  -29.4160  -23.0960   20.5910 C   0  0  0  0  0  0  0  0  0  0  0  0
  -29.6520  -23.5380   21.8960 C   0  0  0  0  0  0  0  0  0  0  0  0
  -29.7730  -21.7980   20.1550 C   0  0  0  0  0  0  0  0  0  0  0  0
  -30.2580  -22.6590   22.8400 C   0  0  0  0  0  0  0  0  0  0  0  0
  -30.6070  -21.3340   22.4220 C   0  0  0  0  0  0  0  0  0  0  0  0
  -30.3810  -20.9000   21.0790 C   0  0  0  0  0  0  0  0  0  0  0  0
  -28.7490  -24.1800   19.7640 C   0  0  0  0  0  2  0  0  0  0  0  0
  -29.2120  -25.0150   22.0330 C   0  0  2  0  0  0  0  0  0  0  0  0
  -28.2400  -25.2110   20.8020 C   0  0  2  0  0  0  0  0  0  0  0  0
  -29.5480  -21.3830   18.7060 C   0  0  0  0  0  1  0  0  0  0  0  0
  -31.3040  -20.3910   23.4050 C   0  0  0  0  0  1  0  0  0  0  0  0
  -30.4680  -25.8990   21.8660 C   0  0  0  0  0  1  0  0  0  0  0  0
  -28.5200  -25.4160   23.3640 C   0  0  0  0  0  1  0  0  0  0  0  0
  -26.8040  -24.7390   21.2070 C   0  0  0  0  0  1  0  0  0  0  0  0
  -29.5280  -22.6960   25.3060 C   0  0  0  0  0  1  0  0  0  0  0  0
  -30.5860  -23.1120   24.2660 C   0  0  0  0  0  2  0  0  0  0  0  0
  -28.3350  -26.5680   20.2460 O   0  0  0  0  0  0  0  0  0  0  0  0
  -24.5580  -31.8140   23.2450 C   0  0  0  0  0  0  0  0  0  0  0  0
  -27.2050  -27.3630   20.1730 C   0  0  0  0  0  0  0  0  0  0  0  0
  -23.3690  -30.4290   21.5750 C   0  0  0  0  0  3  0  0  0  0  0  0
  -24.8340  -28.9100   20.1400 C   0  0  0  0  0  0  0  0  0  0  0  0
  -25.9000  -30.7700   21.4220 C   0  0  0  0  0  2  0  0  0  0  0  0
  -25.9840  -29.4060   20.7670 C   0  0  0  0  0  0  0  0  0  0  0  0
  -27.1720  -28.6360   20.7890 C   0  0  0  0  0  3  0  0  0  0  0  0
  -26.0620  -26.9280   19.4650 C   0  0  0  0  0  3  0  0  0  0  0  0
  -24.8700  -27.6710   19.4800 C   0  0  0  0  0  3  0  0  0  0  0  0
  -23.5950  -29.7750   20.1870 C   0  0  0  0  0  2  0  0  0  0  0  0
  -24.6250  -31.0210   22.1370 N   0  0  0  0  0  0  0  0  0  0  0  0
  -23.4710  -32.0880   23.7740 O   0  0  0  0  0  0  0  0  0  0  0  0
  -22.7000  -29.4000   22.5150 C   0  0  0  0  0  0  0  0  0  0  0  0
  -21.3730  -29.2420   22.3840 N   0  0  0  0  0  0  0  0  0  0  0  0
  -23.3720  -28.7500   23.3200 O   0  0  0  0  0  0  0  0  0  0  0  0
  -20.8970  -29.8200   21.7060 H   0  0  0  0  0  0  0  0  0  0  0  0
  -17.9710  -28.1290   22.8850 C   0  0  0  0  0  0  0  0  0  0  0  0
  -20.5380  -28.3060   23.1360 C   0  0  0  0  0  3  0  0  0  0  0  0
  -20.5940  -26.8910   22.5160 C   0  0  0  0  0  2  0  0  0  0  0  0
  -19.4710  -26.6320   21.5050 C   0  0  0  0  0  2  0  0  0  0  0  0
  -18.1010  -26.7950   22.1690 C   0  0  0  0  0  2  0  0  0  0  0  0
  -19.1150  -28.8440   23.3250 C   0  0  0  0  0  0  0  0  0  0  0  0
  -18.9420  -30.0960   23.9550 C   0  0  0  0  0  3  0  0  0  0  0  0
  -17.6560  -30.6310   24.1510 C   0  0  0  0  0  3  0  0  0  0  0  0
  -16.5240  -29.9090   23.7310 C   0  0  0  0  0  3  0  0  0  0  0  0
  -16.6820  -28.6610   23.1030 C   0  0  0  0  0  3  0  0  0  0  0  0
  -25.8390  -32.4310   23.8860 C   0  0  0  0  0  3  0  0  0  0  0  0
  -25.5440  -33.8340   24.1980 N   0  0  0  0  0  0  0  0  0  0  0  0
  -25.8850  -34.8740   23.4240 C   0  0  0  0  0  0  0  0  0  0  0  0
  -26.5550  -34.7520   22.3940 O   0  0  0  0  0  0  0  0  0  0  0  0
  -24.9460  -34.0040   24.9930 H   0  0  0  0  0  0  0  0  0  0  0  0
  -24.1590  -36.6660   23.0620 C   0  0  0  0  0  1  0  0  0  0  0  0
  -25.4090  -36.2710   23.8650 C   0  0  0  0  0  3  0  0  0  0  0  0
  -27.5540  -37.1620   24.6550 C   0  0  0  0  0  1  0  0  0  0  0  0
  -26.4450  -37.3170   23.7190 N   0  0  0  0  0  0  0  0  0  0  0  0
  -26.0460  -38.2400   23.8550 H   0  0  0  0  0  0  0  0  0  0  0  0
  -26.3230  -31.6600   25.1750 C   0  0  1  0  0  0  0  0  0  0  0  0
  -25.2040  -31.4390   26.2210 C   0  0  0  0  0  1  0  0  0  0  0  0
  -26.9000  -30.2750   24.7980 C   0  0  0  0  0  1  0  0  0  0  0  0
  -27.4690  -32.4460   25.8560 C   0  0  0  0  0  1  0  0  0  0  0  0
  -30.8920  -19.5180   20.6040 C   0  0  0  0  0  2  0  0  0  0  0  0
  -29.9890  -18.2880   20.8990 C   0  0  0  0  0  2  0  0  0  0  0  0
  -30.6910  -16.9650   20.4860 C   0  0  0  0  0  2  0  0  0  0  0  0
  -29.9630  -15.6230   20.8100 C   0  0  0  0  0  2  0  0  0  0  0  0
  -30.6090  -14.3920   20.1120 C   0  0  0  0  0  0  0  0  0  0  0  0
  -30.2290  -12.2690   18.9080 C   0  0  0  0  0  2  0  0  0  0  0  0
  -29.2150  -12.5140   17.7720 C   0  0  0  0  0  2  0  0  0  0  0  0
  -27.7710  -12.3590   18.2870 C   0  0  0  0  0  2  0  0  0  0  0  0
  -27.5130  -13.1570   19.5920 C   0  0  0  0  0  3  0  0  0  0  0  0
  -28.6360  -12.9190   20.6260 C   0  0  0  0  0  2  0  0  0  0  0  0
  -29.9240  -13.2230   19.9870 N   0  0  0  0  0  0  0  0  0  0  0  0
  -31.7040  -14.5560   19.5680 O   0  0  0  0  0  0  0  0  0  0  0  0
  -25.1590  -13.7340   20.4600 C   0  0  0  0  0  0  0  0  0  0  0  0
  -24.1200  -12.9470   20.8780 C   0  0  0  0  0  0  0  0  0  0  0  0
  -24.5870  -11.6010   20.7960 C   0  0  0  0  0  0  0  0  0  0  0  0
  -26.1930  -12.8650   20.1500 N   0  0  0  0  0  0  0  0  0  0  0  0
  -25.8560  -11.5750   20.4100 N   0  0  0  0  0  0  0  0  0  0  0  0
  -23.8830  -10.3300   21.0070 C   0  0  0  0  0  0  0  0  0  0  0  0
  -24.3510   -9.3680   21.9290 C   0  0  0  0  0  3  0  0  0  0  0  0
  -23.6440   -8.1630   22.1280 C   0  0  0  0  0  3  0  0  0  0  0  0
  -22.4540   -7.9090   21.4030 C   0  0  0  0  0  0  0  0  0  0  0  0
  -22.0040   -8.8600   20.4710 C   0  0  0  0  0  3  0  0  0  0  0  0
  -22.7110  -10.0570   20.2700 C   0  0  0  0  0  3  0  0  0  0  0  0
  -21.7160   -6.7560   21.5130 O   0  0  0  0  0  0  0  0  0  0  0  0
  -21.6770   -6.0330   22.6780 C   0  0  0  0  0  0  0  0  0  0  0  0
  -21.2350   -6.6010   23.8930 C   0  0  0  0  0  3  0  0  0  0  0  0
  -21.1420   -5.8040   25.0510 C   0  0  0  0  0  3  0  0  0  0  0  0
  -21.4860   -4.4400   24.9960 C   0  0  0  0  0  0  0  0  0  0  0  0
  -21.9220   -3.8710   23.7870 C   0  0  0  0  0  3  0  0  0  0  0  0
  -22.0140   -4.6660   22.6300 C   0  0  0  0  0  0  0  0  0  0  0  0
  -22.4140   -4.1070   21.4620 F   0  0  0  0  0  0  0  0  0  0  0  0
  -21.3900   -3.6720   26.1060 F   0  0  0  0  0  0  0  0  0  0  0  0
  -22.7390  -13.4100   21.2430 C   0  0  0  0  0  0  0  0  0  0  0  0
  -22.0720  -12.6960   22.1420 N   0  0  0  0  0  0  0  0  0  0  0  0
  -22.2630  -14.4380   20.7660 O   0  0  0  0  0  0  0  0  0  0  0  0
  -22.4710  -11.8630   22.5490 H   0  0  0  0  0  0  0  0  0  0  0  0
  -21.1490  -12.9860   22.4290 H   0  0  0  0  0  0  0  0  0  0  0  0
  -25.3040  -15.1080   20.2970 N   0  0  0  0  0  0  0  0  0  0  0  0
  -24.5400  -15.7540   20.4670 H   0  0  0  0  0  0  0  0  0  0  0  0
  -26.1350  -15.5630   19.9390 H   0  0  0  0  0  0  0  0  0  0  0  0
  1  2  1  0
  2  8  1  0
  2  4  2  0
  3  1  2  0
  3  6  1  0
  4 16  1  0
  5  4  1  0
  5 11  1  0
  6  5  2  0
  7  1  1  0
  7  9  1  0
  8 13  1  1
  9 14  1  1
  9  8  1  0
 10  3  1  0
 12  8  1  0
 16 15  1  0
 17  9  1  0
 18 29  2  0
 19 17  1  0
 19 24  1  0
 20 28  1  0
 20 30  1  0
 21 27  1  0
 21 23  1  0
 22 28  1  0
 23 24  2  0
 23 22  1  0
 25 26  1  0
 25 19  2  0
 26 21  2  0
 27 20  1  0
 28 18  1  0
 30 32  2  0
 31 30  1  0
 33 31  1  0
 34 43  2  0
 34 39  1  0
 35 31  1  0
 35 39  1  0
 36 35  1  0
 37 38  1  0
 37 36  1  0
 38 34  1  0
 39 40  2  0
 40 41  1  0
 42 41  2  0
 43 42  1  0
 44 18  1  0
 44 45  1  0
 44 54  1  0
 45 48  1  0
 46 50  1  0
 46 45  1  0
 47 46  2  0
 50 49  1  0
 52 53  1  0
 52 50  1  0
 52 51  1  0
 54 57  1  1
 54 55  1  0
 56 54  1  0
 58 59  1  0
 58  6  1  0
 60 61  1  0
 60 59  1  0
 62 61  1  0
 63 68  1  0
 64 65  1  0
 64 63  1  0
 66 65  1  0
 66 73  1  0
 66 67  1  0
 68 62  1  0
 68 67  1  0
 69 62  2  0
 70 71  2  0
 71 90  1  0
 72 71  1  0
 72 75  1  0
 73 74  1  0
 73 70  1  0
 74 72  2  0
 75 76  1  0
 76 77  2  0
 78 81  1  0
 78 77  1  0
 79 78  2  0
 80 79  1  0
 80 75  2  0
 81 82  1  0
 82 83  1  0
 83 84  2  0
 85 84  1  0
 85 89  1  0
 86 85  2  0
 87 82  2  0
 87 86  1  0
 88 87  1  0
 90 91  1  0
 91 94  1  0
 91 93  1  0
 92 90  2  0
 95 70  1  0
 95 96  1  0
 97 95  1  0
M  ISO  4   9 101  17 101  61 100  62 100
M  END
>  <TORSDO>  (24) 
F 21

>  <SCORE>  (24) 
-12.288

>  <name>  (24) 
23

>  <ligand_id>  (24) 
23

>  <original_smiles>  (24) 
[H]c1c([H])c([H])c2c(c1[H])C([H])([H])C([H])([H])C([H])([H])C2([H])N([H])C(=O)C1([H])N(C(=O)C([H])(N([H])C(=O)C([H])(N([H])C([H])([H])[H])C([H])([H])[H])C(C([H])([H])[H])(C([H])([H])[H])C([H])([H])[H])C([H])([H])c2c([H])c(OC3(C([H])([H])[H])C([H])([H])c4c(C([H])([H])[H])c(C([H])([H])C([H])([H])C([H])([H])C([H])([H])C(=O)N5C([H])([H])C([H])([H])C([H])([H])C([H])(n6nc(-c7c([H])c([H])c(Oc8c([H])c([H])c(F)c([H])c8F)c([H])c7[H])c(C(=O)N([H])[H])c6N([H])[H])C5([H])[H])c(C([H])([H])[H])c(C([H])([H])C([H])([H])[H])c4C3(C([H])([H])[H])C([H])([H])[H])c([H])c([H])c2C1([H])[H]

>  <smiles>  (24) 
[H]c1c([H])c([H])c2c(c1[H])C([H])([H])C([H])([H])C([H])([H])C2([H])N([H])C(=O)C1([H])N(C(=O)C([H])(N([H])C(=O)C([H])(N([H])C([H])([H])[H])C([H])([H])[H])C(C([H])([H])[H])(C([H])([H])[H])C([H])([H])[H])C([H])([H])c2c([H])c(OC3(C([H])([H])[H])C([H])([H])c4c(C([H])([H])[H])c(C([H])([H])C([H])([H])C([H])([H])C([H])([H])C(=O)N5C([H])([H])C([H])([H])C([H])([H])C([H])(n6nc(-c7c([H])c([H])c(Oc8c([H])c([H])c(F)c([H])c8F)c([H])c7[H])c(C(=O)N([H])[H])c6N([H])[H])C5([H])[H])c(C([H])([H])[H])c(C([H])([H])C([H])([H])[H])c4C3(C([H])([H])[H])C([H])([H])[H])c([H])c([H])c2C1([H])[H]

$$$$
24:0:0
     RDKit          3D

 93102  0  0  1  0  0  0  0  0999 V2000
  -30.2030  -21.1990   21.8100 C   0  0  0  0  0  3  0  0  0  0  0  0
  -30.3360  -22.5110   22.3270 C   0  0  0  0  0  3  0  0  0  0  0  0
  -28.7290  -22.1230   20.1310 C   0  0  0  0  0  3  0  0  0  0  0  0
  -29.4000  -20.9220   20.6840 C   0  0  0  0  0  0  0  0  0  0  0  0
  -29.6590  -23.6390   21.7850 C   0  0  0  0  0  0  0  0  0  0  0  0
  -28.8220  -23.5150   20.6450 C   0  0  0  0  0  0  0  0  0  0  0  0
  -29.8170  -24.9770   22.4930 C   0  0  0  0  0  1  0  0  0  0  0  0
  -29.1950  -19.3600   20.2050 C   0  0  0  0  0  2  0  0  0  0  0  0
  -30.5870  -16.8230   21.9020 C   0  0  0  0  0  0  0  0  0  0  0  0
  -29.9800  -16.4910   20.5300 C   0  0  0  0  0  3  0  0  0  0  0  0
  -30.3120  -18.0990   20.2190 C   0  0  1  0  0  0  0  0  0  0  0  0
  -31.3460  -18.4310   19.1350 C   0  0  0  0  0  1  0  0  0  0  0  0
  -30.9960  -18.0790   21.5240 N   0  0  0  0  0  0  0  0  0  0  0  0
  -30.7310  -16.2500   22.9680 O   0  0  0  0  0  0  0  0  0  0  0  0
  -31.5250  -18.7760   22.0310 H   0  0  0  0  0  0  0  0  0  0  0  0
  -30.7850  -15.1030   20.1120 C   0  0  0  0  0  0  0  0  0  0  0  0
  -30.6050  -12.7770   19.1140 C   0  0  0  0  0  2  0  0  0  0  0  0
  -29.6160  -12.8020   17.9240 C   0  0  0  0  0  2  0  0  0  0  0  0
  -28.1770  -12.5740   18.4200 C   0  0  0  0  0  2  0  0  0  0  0  0
  -27.8270  -13.4830   19.6250 C   0  0  0  0  0  3  0  0  0  0  0  0
  -28.9280  -13.4560   20.7080 C   0  0  0  0  0  2  0  0  0  0  0  0
  -30.1950  -13.8410   20.0740 N   0  0  0  0  0  0  0  0  0  0  0  0
  -31.9430  -15.1820   19.6810 O   0  0  0  0  0  0  0  0  0  0  0  0
  -25.4860  -14.0550   20.4960 C   0  0  0  0  0  0  0  0  0  0  0  0
  -24.4330  -13.2770   20.8900 C   0  0  0  0  0  0  0  0  0  0  0  0
  -24.8840  -11.9240   20.7920 C   0  0  0  0  0  0  0  0  0  0  0  0
  -26.5080  -13.1790   20.1750 N   0  0  0  0  0  0  0  0  0  0  0  0
  -26.1590  -11.8910   20.4190 N   0  0  0  0  0  0  0  0  0  0  0  0
  -24.1550  -10.6610   20.9750 C   0  0  0  0  0  0  0  0  0  0  0  0
  -24.5780   -9.6930   21.9110 C   0  0  0  0  0  3  0  0  0  0  0  0
  -23.8500   -8.4960   22.0810 C   0  0  0  0  0  3  0  0  0  0  0  0
  -22.6840   -8.2590   21.3140 C   0  0  0  0  0  0  0  0  0  0  0  0
  -22.2820   -9.2140   20.3640 C   0  0  0  0  0  3  0  0  0  0  0  0
  -23.0110  -10.4030   20.1930 C   0  0  0  0  0  3  0  0  0  0  0  0
  -21.9290   -7.1130   21.3940 O   0  0  0  0  0  0  0  0  0  0  0  0
  -21.8000   -6.4170   22.5700 C   0  0  0  0  0  0  0  0  0  0  0  0
  -21.2890   -7.0220   23.7410 C   0  0  0  0  0  3  0  0  0  0  0  0
  -21.1080   -6.2520   24.9090 C   0  0  0  0  0  3  0  0  0  0  0  0
  -21.4240   -4.8810   24.9050 C   0  0  0  0  0  0  0  0  0  0  0  0
  -21.9240   -4.2760   23.7380 C   0  0  0  0  0  3  0  0  0  0  0  0
  -22.1100   -5.0420   22.5750 C   0  0  0  0  0  0  0  0  0  0  0  0
  -22.5740   -4.4500   21.4480 F   0  0  0  0  0  0  0  0  0  0  0  0
  -21.2410   -4.1400   26.0220 F   0  0  0  0  0  0  0  0  0  0  0  0
  -23.0540  -13.7530   21.2400 C   0  0  0  0  0  0  0  0  0  0  0  0
  -22.3720  -13.0490   22.1380 N   0  0  0  0  0  0  0  0  0  0  0  0
  -22.5960  -14.7890   20.7590 O   0  0  0  0  0  0  0  0  0  0  0  0
  -22.7580  -12.2120   22.5470 H   0  0  0  0  0  0  0  0  0  0  0  0
  -21.4490  -13.3490   22.4130 H   0  0  0  0  0  0  0  0  0  0  0  0
  -25.6520  -15.4320   20.3560 N   0  0  0  0  0  0  0  0  0  0  0  0
  -24.8860  -16.0800   20.5020 H   0  0  0  0  0  0  0  0  0  0  0  0
  -26.4700  -15.8690   19.9530 H   0  0  0  0  0  0  0  0  0  0  0  0
  -27.9450  -24.7980   20.0980 C   0  0  0  0  0  2  0  0  0  0  0  0
  -28.2190  -26.3070   20.3350 O   0  0  0  0  0  0  0  0  0  0  0  0
  -24.5340  -31.9270   23.2170 C   0  0  0  0  0  0  0  0  0  0  0  0
  -27.1650  -27.2780   20.2060 C   0  0  0  0  0  0  0  0  0  0  0  0
  -23.3530  -30.5350   21.5590 C   0  0  0  0  0  3  0  0  0  0  0  0
  -24.8230  -28.9920   20.1330 C   0  0  0  0  0  0  0  0  0  0  0  0
  -25.9020  -30.8380   21.4050 C   0  0  0  0  0  2  0  0  0  0  0  0
  -25.9920  -29.4530   20.7530 C   0  0  0  0  0  0  0  0  0  0  0  0
  -27.1640  -28.6120   20.7740 C   0  0  0  0  0  3  0  0  0  0  0  0
  -25.9760  -26.9190   19.5280 C   0  0  0  0  0  3  0  0  0  0  0  0
  -24.8280  -27.7390   19.5030 C   0  0  0  0  0  3  0  0  0  0  0  0
  -23.5850  -29.8690   20.1750 C   0  0  0  0  0  2  0  0  0  0  0  0
  -24.6150  -31.1210   22.1170 N   0  0  0  0  0  0  0  0  0  0  0  0
  -23.4460  -32.1970   23.7470 O   0  0  0  0  0  0  0  0  0  0  0  0
  -22.6790  -29.5170   22.5110 C   0  0  0  0  0  0  0  0  0  0  0  0
  -21.3550  -29.3240   22.3630 N   0  0  0  0  0  0  0  0  0  0  0  0
  -23.3500  -28.9000   23.3430 O   0  0  0  0  0  0  0  0  0  0  0  0
  -20.8680  -29.8710   21.6690 H   0  0  0  0  0  0  0  0  0  0  0  0
  -17.9910  -28.0670   22.8120 C   0  0  0  0  0  0  0  0  0  0  0  0
  -20.5400  -28.3750   23.1240 C   0  0  0  0  0  3  0  0  0  0  0  0
  -20.6780  -26.9440   22.5540 C   0  0  0  0  0  2  0  0  0  0  0  0
  -19.6000  -26.6000   21.5210 C   0  0  0  0  0  2  0  0  0  0  0  0
  -18.2050  -26.7210   22.1410 C   0  0  0  0  0  2  0  0  0  0  0  0
  -19.0890  -28.8490   23.2610 C   0  0  0  0  0  0  0  0  0  0  0  0
  -18.8370  -30.1080   23.8480 C   0  0  0  0  0  3  0  0  0  0  0  0
  -17.5200  -30.5830   23.9970 C   0  0  0  0  0  3  0  0  0  0  0  0
  -16.4380  -29.7980   23.5660 C   0  0  0  0  0  3  0  0  0  0  0  0
  -16.6730  -28.5440   22.9770 C   0  0  0  0  0  3  0  0  0  0  0  0
  -25.8090  -32.5670   23.8530 C   0  0  0  0  0  3  0  0  0  0  0  0
  -26.3100  -31.8020   25.1400 C   0  0  1  0  0  0  0  0  0  0  0  0
  -25.2020  -31.5640   26.1900 C   0  0  0  0  0  1  0  0  0  0  0  0
  -26.9080  -30.4260   24.7680 C   0  0  0  0  0  1  0  0  0  0  0  0
  -27.4390  -32.6070   25.8240 C   0  0  0  0  0  1  0  0  0  0  0  0
  -25.4910  -33.9660   24.1770 N   0  0  0  0  0  0  0  0  0  0  0  0
  -25.8200  -35.0220   23.4200 C   0  0  0  0  0  0  0  0  0  0  0  0
  -26.4930  -34.9210   22.3900 O   0  0  0  0  0  0  0  0  0  0  0  0
  -24.8910  -34.1160   24.9740 H   0  0  0  0  0  0  0  0  0  0  0  0
  -24.0890  -36.8160   23.0700 C   0  0  0  0  0  1  0  0  0  0  0  0
  -25.3300  -36.4090   23.8790 C   0  0  0  0  0  3  0  0  0  0  0  0
  -27.4570  -37.3070   24.7150 C   0  0  0  0  0  1  0  0  0  0  0  0
  -26.3580  -37.4640   23.7680 N   0  0  0  0  0  0  0  0  0  0  0  0
  -25.9460  -38.3810   23.9140 H   0  0  0  0  0  0  0  0  0  0  0  0
  1  2  1  0
  3  6  2  0
  3  4  1  0
  4  1  2  0
  5  2  2  0
  5  7  1  0
  6  5  1  0
  8 11  1  0
  8  4  1  0
  9 14  2  0
 10 16  1  0
 10  9  1  0
 11 12  1  6
 11 10  1  0
 11 13  1  0
 13  9  1  0
 13 15  1  0
 17 22  1  0
 18 19  1  0
 18 17  1  0
 20 19  1  0
 20 27  1  0
 20 21  1  0
 22 16  1  0
 22 21  1  0
 23 16  2  0
 24 25  2  0
 25 44  1  0
 26 25  1  0
 26 29  1  0
 27 28  1  0
 27 24  1  0
 28 26  2  0
 29 30  1  0
 30 31  2  0
 32 35  1  0
 32 31  1  0
 33 32  2  0
 34 33  1  0
 34 29  2  0
 35 36  1  0
 36 41  2  0
 36 37  1  0
 37 38  2  0
 39 38  1  0
 39 43  1  0
 40 39  2  0
 41 40  1  0
 42 41  1  0
 44 45  1  0
 45 48  1  0
 45 47  1  0
 46 44  2  0
 49 24  1  0
 49 50  1  0
 51 49  1  0
 52 53  1  0
 52  6  1  0
 54 65  2  0
 55 53  1  0
 55 60  1  0
 56 64  1  0
 56 66  1  0
 57 63  1  0
 57 59  1  0
 58 64  1  0
 59 60  2  0
 59 58  1  0
 61 55  2  0
 62 61  1  0
 62 57  2  0
 63 56  1  0
 64 54  1  0
 66 68  2  0
 67 66  1  0
 69 67  1  0
 70 79  2  0
 70 75  1  0
 71 67  1  0
 71 75  1  0
 72 71  1  0
 73 74  1  0
 73 72  1  0
 74 70  1  0
 75 76  2  0
 76 77  1  0
 78 77  2  0
 79 78  1  0
 80 54  1  0
 80 85  1  0
 80 81  1  0
 81 84  1  1
 81 82  1  0
 83 81  1  0
 85 88  1  0
 86 90  1  0
 86 85  1  0
 87 86  2  0
 90 89  1  0
 92 90  1  0
 92 93  1  0
 92 91  1  0
M  ISO  4  10 100  16 100  52 101  53 101
M  END
>  <TORSDO>  (25) 
F 19

>  <SCORE>  (25) 
-14.538

>  <name>  (25) 
24

>  <ligand_id>  (25) 
24

>  <original_smiles>  (25) 
[H]c1c([H])c([H])c2c(c1[H])C([H])([H])C([H])([H])C([H])([H])C2([H])N([H])C(=O)C1([H])N(C(=O)C([H])(N([H])C(=O)C([H])(N([H])C([H])([H])[H])C([H])([H])[H])C(C([H])([H])[H])(C([H])([H])[H])C([H])([H])[H])C([H])([H])c2c([H])c(OC([H])([H])c3c([H])c(C([H])([H])C4(C([H])([H])[H])N([H])C(=O)C4([H])C(=O)N4C([H])([H])C([H])([H])C([H])([H])C([H])(n5nc(-c6c([H])c([H])c(Oc7c([H])c([H])c(F)c([H])c7F)c([H])c6[H])c(C(=O)N([H])[H])c5N([H])[H])C4([H])[H])c([H])c([H])c3C([H])([H])[H])c([H])c([H])c2C1([H])[H]

>  <smiles>  (25) 
[H]c1c([H])c([H])c2c(c1[H])C([H])([H])C([H])([H])C([H])([H])C2([H])N([H])C(=O)C1([H])N(C(=O)C([H])(N([H])C(=O)C([H])(N([H])C([H])([H])[H])C([H])([H])[H])C(C([H])([H])[H])(C([H])([H])[H])C([H])([H])[H])C([H])([H])c2c([H])c(OC([H])([H])c3c([H])c(C([H])([H])C4(C([H])([H])[H])N([H])C(=O)C4([H])C(=O)N4C([H])([H])C([H])([H])C([H])([H])C([H])(n5nc(-c6c([H])c([H])c(Oc7c([H])c([H])c(F)c([H])c7F)c([H])c6[H])c(C(=O)N([H])[H])c5N([H])[H])C4([H])[H])c([H])c([H])c3C([H])([H])[H])c([H])c([H])c2C1([H])[H]

$$$$
25:0:0
     RDKit          3D

 97107  0  0  1  0  0  0  0  0999 V2000
  -29.3110  -20.6810   20.0340 C   0  0  0  0  0  3  0  0  0  0  0  0
  -29.2640  -22.0420   20.6290 C   0  0  0  0  0  0  0  0  0  0  0  0
  -29.7960  -22.1340   21.9380 C   0  0  0  0  0  0  0  0  0  0  0  0
  -29.8680  -19.4570   20.6570 C   0  0  0  0  0  0  0  0  0  0  0  0
  -30.3420  -20.9770   22.5880 C   0  0  0  0  0  0  0  0  0  0  0  0
  -30.4220  -19.6940   21.9480 C   0  0  0  0  0  0  0  0  0  0  0  0
  -27.1600  -24.5550   21.5030 C   0  0  0  0  0  0  0  0  0  0  0  0
  -29.7530  -23.4830   22.6850 C   0  0  0  0  0  2  0  0  0  0  0  0
  -26.3690  -23.4710   20.7920 C   0  0  0  0  0  2  0  0  0  0  0  0
  -29.6570  -24.7770   21.8410 C   0  0  0  0  0  2  0  0  0  0  0  0
  -27.2050  -23.1450   19.5480 C   0  0  0  0  0  2  0  0  0  0  0  0
  -28.6720  -23.4160   19.9330 C   0  0  1  0  0  0  0  0  0  0  0  0
  -28.5120  -24.8310   20.8150 C   0  0  1  0  0  0  0  0  0  0  0  0
  -31.1560  -18.5510   22.6500 C   0  0  0  0  0  1  0  0  0  0  0  0
  -29.5190  -23.7020   18.6830 C   0  0  0  0  0  1  0  0  0  0  0  0
  -26.7640  -25.1160   22.5300 O   0  0  0  0  0  0  0  0  0  0  0  0
  -32.3670  -21.3910   24.1200 C   0  0  0  0  0  1  0  0  0  0  0  0
  -30.8530  -21.1170   24.0310 C   0  0  0  0  0  2  0  0  0  0  0  0
  -28.5590  -26.3170   20.2890 O   0  0  0  0  0  0  0  0  0  0  0  0
  -24.7170  -31.8680   23.2710 C   0  0  0  0  0  0  0  0  0  0  0  0
  -27.4690  -27.2620   20.2550 C   0  0  0  0  0  0  0  0  0  0  0  0
  -23.5910  -30.4770   21.5770 C   0  0  0  0  0  3  0  0  0  0  0  0
  -25.1100  -28.9550   20.1690 C   0  0  0  0  0  0  0  0  0  0  0  0
  -26.1400  -30.7960   21.4900 C   0  0  0  0  0  2  0  0  0  0  0  0
  -26.2590  -29.4150   20.8240 C   0  0  0  0  0  0  0  0  0  0  0  0
  -27.4410  -28.5850   20.8520 C   0  0  0  0  0  3  0  0  0  0  0  0
  -26.3060  -26.9150   19.5350 C   0  0  0  0  0  3  0  0  0  0  0  0
  -25.1450  -27.7170   19.5090 C   0  0  0  0  0  3  0  0  0  0  0  0
  -23.8630  -29.8250   20.1950 C   0  0  0  0  0  2  0  0  0  0  0  0
  -24.8340  -31.0690   22.1690 N   0  0  0  0  0  0  0  0  0  0  0  0
  -23.6120  -32.1240   23.7730 O   0  0  0  0  0  0  0  0  0  0  0  0
  -22.9060  -29.4410   22.5030 C   0  0  0  0  0  0  0  0  0  0  0  0
  -21.5780  -29.2770   22.3640 N   0  0  0  0  0  0  0  0  0  0  0  0
  -23.5710  -28.7900   23.3130 O   0  0  0  0  0  0  0  0  0  0  0  0
  -21.0990  -29.8550   21.6880 H   0  0  0  0  0  0  0  0  0  0  0  0
  -18.1870  -28.0960   22.8360 C   0  0  0  0  0  0  0  0  0  0  0  0
  -20.7500  -28.3190   23.1010 C   0  0  0  0  0  3  0  0  0  0  0  0
  -20.8340  -26.9100   22.4700 C   0  0  0  0  0  2  0  0  0  0  0  0
  -19.7230  -26.6400   21.4500 C   0  0  0  0  0  2  0  0  0  0  0  0
  -18.3460  -26.7740   22.1050 C   0  0  0  0  0  2  0  0  0  0  0  0
  -19.3160  -28.8290   23.2900 C   0  0  0  0  0  0  0  0  0  0  0  0
  -19.1120  -30.0670   23.9350 C   0  0  0  0  0  3  0  0  0  0  0  0
  -17.8140  -30.5740   24.1310 C   0  0  0  0  0  3  0  0  0  0  0  0
  -16.7000  -29.8370   23.6920 C   0  0  0  0  0  3  0  0  0  0  0  0
  -16.8870  -28.6000   23.0510 C   0  0  0  0  0  3  0  0  0  0  0  0
  -25.9660  -32.5180   23.9440 C   0  0  0  0  0  3  0  0  0  0  0  0
  -26.4230  -31.7690   25.2560 C   0  0  1  0  0  0  0  0  0  0  0  0
  -25.2810  -31.5410   26.2740 C   0  0  0  0  0  1  0  0  0  0  0  0
  -27.0310  -30.3880   24.9180 C   0  0  0  0  0  1  0  0  0  0  0  0
  -27.5370  -32.5790   25.9600 C   0  0  0  0  0  1  0  0  0  0  0  0
  -25.6350  -33.9190   24.2440 N   0  0  0  0  0  0  0  0  0  0  0  0
  -25.9740  -34.9660   23.4790 C   0  0  0  0  0  0  0  0  0  0  0  0
  -26.6650  -34.8540   22.4630 O   0  0  0  0  0  0  0  0  0  0  0  0
  -25.0220  -34.0800   25.0300 H   0  0  0  0  0  0  0  0  0  0  0  0
  -24.2340  -36.7390   23.0750 C   0  0  0  0  0  1  0  0  0  0  0  0
  -25.4680  -36.3580   23.9080 C   0  0  0  0  0  3  0  0  0  0  0  0
  -27.5780  -37.2830   24.7590 C   0  0  0  0  0  1  0  0  0  0  0  0
  -26.4920  -37.4190   23.7910 N   0  0  0  0  0  0  0  0  0  0  0  0
  -26.0750  -38.3380   23.9110 H   0  0  0  0  0  0  0  0  0  0  0  0
  -30.0640  -17.9730   19.9330 C   0  0  0  0  0  2  0  0  0  0  0  0
  -29.8100  -16.4250   20.5720 C   0  0  0  0  0  2  0  0  0  0  0  0
  -30.5760  -15.0300   20.0990 C   0  0  0  0  0  0  0  0  0  0  0  0
  -30.4250  -12.6950   19.1110 C   0  0  0  0  0  2  0  0  0  0  0  0
  -29.4450  -12.6990   17.9140 C   0  0  0  0  0  2  0  0  0  0  0  0
  -27.9950  -12.4890   18.3930 C   0  0  0  0  0  2  0  0  0  0  0  0
  -27.6420  -13.3850   19.6090 C   0  0  0  0  0  3  0  0  0  0  0  0
  -28.7380  -13.3540   20.6940 C   0  0  0  0  0  2  0  0  0  0  0  0
  -29.9980  -13.7620   20.0620 N   0  0  0  0  0  0  0  0  0  0  0  0
  -31.7360  -15.1160   19.6790 O   0  0  0  0  0  0  0  0  0  0  0  0
  -25.2900  -13.9560   20.4440 C   0  0  0  0  0  0  0  0  0  0  0  0
  -24.2380  -13.1750   20.8420 C   0  0  0  0  0  0  0  0  0  0  0  0
  -24.7000  -11.8250   20.7720 C   0  0  0  0  0  0  0  0  0  0  0  0
  -26.3220  -13.0800   20.1510 N   0  0  0  0  0  0  0  0  0  0  0  0
  -25.9780  -11.7930   20.4130 N   0  0  0  0  0  0  0  0  0  0  0  0
  -23.9780  -10.5610   20.9710 C   0  0  0  0  0  0  0  0  0  0  0  0
  -24.4290   -9.5880   21.8900 C   0  0  0  0  0  3  0  0  0  0  0  0
  -23.7050   -8.3900   22.0770 C   0  0  0  0  0  3  0  0  0  0  0  0
  -22.5170   -8.1560   21.3450 C   0  0  0  0  0  0  0  0  0  0  0  0
  -22.0850   -9.1180   20.4150 C   0  0  0  0  0  3  0  0  0  0  0  0
  -22.8090  -10.3070   20.2250 C   0  0  0  0  0  3  0  0  0  0  0  0
  -21.7640   -7.0100   21.4420 O   0  0  0  0  0  0  0  0  0  0  0  0
  -21.7280   -6.2690   22.5960 C   0  0  0  0  0  0  0  0  0  0  0  0
  -21.2890   -6.8160   23.8200 C   0  0  0  0  0  3  0  0  0  0  0  0
  -21.2010   -6.0000   24.9650 C   0  0  0  0  0  3  0  0  0  0  0  0
  -21.5420   -4.6370   24.8870 C   0  0  0  0  0  0  0  0  0  0  0  0
  -21.9750   -4.0880   23.6660 C   0  0  0  0  0  3  0  0  0  0  0  0
  -22.0640   -4.9020   22.5240 C   0  0  0  0  0  0  0  0  0  0  0  0
  -22.4610   -4.3630   21.3460 F   0  0  0  0  0  0  0  0  0  0  0  0
  -21.4510   -3.8500   25.9850 F   0  0  0  0  0  0  0  0  0  0  0  0
  -22.8530  -13.6500   21.1720 C   0  0  0  0  0  0  0  0  0  0  0  0
  -22.1570  -12.9410   22.0540 N   0  0  0  0  0  0  0  0  0  0  0  0
  -22.3990  -14.6840   20.6840 O   0  0  0  0  0  0  0  0  0  0  0  0
  -22.5390  -12.1050   22.4700 H   0  0  0  0  0  0  0  0  0  0  0  0
  -21.2300  -13.2410   22.3180 H   0  0  0  0  0  0  0  0  0  0  0  0
  -25.4470  -15.3290   20.2840 N   0  0  0  0  0  0  0  0  0  0  0  0
  -24.6880  -15.9820   20.4390 H   0  0  0  0  0  0  0  0  0  0  0  0
  -26.2870  -15.7760   19.9360 H   0  0  0  0  0  0  0  0  0  0  0  0
  1  2  2  0
  1  4  1  0
  2  3  1  0
  3  5  2  0
  3  8  1  0
  4  6  2  0
  5 18  1  0
  6  5  1  0
  6 14  1  0
  7 16  2  0
  9  7  1  0
 10  8  1  0
 11 12  1  0
 11  9  1  0
 12 15  1  6
 12  2  1  0
 12 13  1  0
 13 19  1  6
 13  7  1  0
 13 10  1  0
 18 17  1  0
 20 31  2  0
 21 19  1  0
 21 26  1  0
 22 30  1  0
 22 32  1  0
 23 29  1  0
 23 25  1  0
 24 30  1  0
 25 26  2  0
 25 24  1  0
 27 21  2  0
 28 27  1  0
 28 23  2  0
 29 22  1  0
 30 20  1  0
 32 34  2  0
 33 32  1  0
 35 33  1  0
 36 45  2  0
 36 41  1  0
 37 33  1  0
 37 41  1  0
 38 37  1  0
 39 40  1  0
 39 38  1  0
 40 36  1  0
 41 42  2  0
 42 43  1  0
 44 43  2  0
 45 44  1  0
 46 20  1  0
 46 51  1  0
 46 47  1  0
 47 50  1  1
 47 48  1  0
 49 47  1  0
 51 54  1  0
 52 56  1  0
 52 51  1  0
 53 52  2  0
 56 55  1  0
 58 56  1  0
 58 59  1  0
 58 57  1  0
 60 61  1  0
 60  4  1  0
 62 61  1  0
 63 68  1  0
 64 65  1  0
 64 63  1  0
 66 65  1  0
 66 73  1  0
 66 67  1  0
 68 62  1  0
 68 67  1  0
 69 62  2  0
 70 71  2  0
 71 90  1  0
 72 71  1  0
 72 75  1  0
 73 74  1  0
 73 70  1  0
 74 72  2  0
 75 76  1  0
 76 77  2  0
 78 81  1  0
 78 77  1  0
 79 78  2  0
 80 79  1  0
 80 75  2  0
 81 82  1  0
 82 83  1  0
 83 84  2  0
 85 84  1  0
 85 89  1  0
 86 85  2  0
 87 82  2  0
 87 86  1  0
 88 87  1  0
 90 91  1  0
 91 94  1  0
 91 93  1  0
 92 90  2  0
 95 96  1  0
 95 70  1  0
 97 95  1  0
M  ISO  4  13 101  19 101  61 100  62 100
M  END
>  <TORSDO>  (26) 
F 19

>  <SCORE>  (26) 
-14.659

>  <name>  (26) 
25

>  <ligand_id>  (26) 
25

>  <original_smiles>  (26) 
[H]c1c([H])c([H])c2c(c1[H])C([H])([H])C([H])([H])C([H])([H])C2([H])N([H])C(=O)C1([H])N(C(=O)C([H])(N([H])C(=O)C([H])(N([H])C([H])([H])[H])C([H])([H])[H])C(C([H])([H])[H])(C([H])([H])[H])C([H])([H])[H])C([H])([H])c2c([H])c(OC34C(=O)C([H])([H])C([H])([H])C3(C([H])([H])[H])c3c([H])c(C([H])([H])C([H])([H])C(=O)N5C([H])([H])C([H])([H])C([H])([H])C([H])(n6nc(-c7c([H])c([H])c(Oc8c([H])c([H])c(F)c([H])c8F)c([H])c7[H])c(C(=O)N([H])[H])c6N([H])[H])C5([H])[H])c(C([H])([H])[H])c(C([H])([H])C([H])([H])[H])c3C([H])([H])C4([H])[H])c([H])c([H])c2C1([H])[H]

>  <smiles>  (26) 
[H]c1c([H])c([H])c2c(c1[H])C([H])([H])C([H])([H])C([H])([H])C2([H])N([H])C(=O)C1([H])N(C(=O)C([H])(N([H])C(=O)C([H])(N([H])C([H])([H])[H])C([H])([H])[H])C(C([H])([H])[H])(C([H])([H])[H])C([H])([H])[H])C([H])([H])c2c([H])c(OC34C(=O)C([H])([H])C([H])([H])C3(C([H])([H])[H])c3c([H])c(C([H])([H])C([H])([H])C(=O)N5C([H])([H])C([H])([H])C([H])([H])C([H])(n6nc(-c7c([H])c([H])c(Oc8c([H])c([H])c(F)c([H])c8F)c([H])c7[H])c(C(=O)N([H])[H])c6N([H])[H])C5([H])[H])c(C([H])([H])[H])c(C([H])([H])C([H])([H])[H])c3C([H])([H])C4([H])[H])c([H])c([H])c2C1([H])[H]

$$$$
26:0:0
     RDKit          3D

 94103  0  0  1  0  0  0  0  0999 V2000
  -28.1130  -24.1770   19.0340 C   0  0  0  0  0  3  0  0  0  0  0  0
  -29.1780  -24.3520   21.1470 C   0  0  0  0  0  3  0  0  0  0  0  0
  -29.0120  -22.0610   20.0930 C   0  0  0  0  0  0  0  0  0  0  0  0
  -28.3230  -22.7480   19.0320 C   0  0  0  0  0  0  0  0  0  0  0  0
  -28.5240  -25.0430   20.0890 C   0  0  0  0  0  0  0  0  0  0  0  0
  -29.4160  -22.9340   21.1550 C   0  0  0  0  0  0  0  0  0  0  0  0
  -27.7630  -21.9820   17.8450 C   0  0  0  0  0  1  0  0  0  0  0  0
  -30.0830  -22.4180   22.2140 F   0  0  0  0  0  0  0  0  0  0  0  0
  -29.6590  -19.7660   19.0360 C   0  0  0  0  0  3  0  0  0  0  0  0
  -29.3400  -20.5210   20.1300 C   0  0  0  0  0  0  0  0  0  0  0  0
  -29.9500  -18.2230   18.9630 C   0  0  0  0  0  2  0  0  0  0  0  0
  -29.2690  -19.6980   21.4350 C   0  0  0  0  0  2  0  0  0  0  0  0
  -29.2220  -18.1190   21.2970 C   0  0  0  0  0  2  0  0  0  0  0  0
  -30.2340  -17.4480   20.3060 C   0  0  2  0  0  0  0  0  0  0  0  0
  -31.6700  -17.7490   20.7850 C   0  0  0  0  0  1  0  0  0  0  0  0
  -30.8070  -14.8130   19.9310 C   0  0  0  0  0  0  0  0  0  0  0  0
  -30.5850  -12.5220   18.9440 C   0  0  0  0  0  2  0  0  0  0  0  0
  -29.5720  -12.5700   17.7780 C   0  0  0  0  0  2  0  0  0  0  0  0
  -28.1320  -12.3880   18.2980 C   0  0  0  0  0  2  0  0  0  0  0  0
  -27.8240  -13.2840   19.5260 C   0  0  0  0  0  3  0  0  0  0  0  0
  -28.9470  -13.2090   20.5830 C   0  0  0  0  0  2  0  0  0  0  0  0
  -30.2010  -13.5760   19.9120 N   0  0  0  0  0  0  0  0  0  0  0  0
  -31.9640  -14.9270   19.5160 O   0  0  0  0  0  0  0  0  0  0  0  0
  -30.0210  -15.9190   20.2460 N   0  0  0  0  0  0  0  0  0  0  0  0
  -29.0890  -15.6420   20.5110 H   0  0  0  0  0  0  0  0  0  0  0  0
  -25.5000  -13.8740   20.4400 C   0  0  0  0  0  0  0  0  0  0  0  0
  -24.4520  -13.0980   20.8550 C   0  0  0  0  0  0  0  0  0  0  0  0
  -24.8950  -11.7440   20.7420 C   0  0  0  0  0  0  0  0  0  0  0  0
  -26.5130  -12.9930   20.0990 N   0  0  0  0  0  0  0  0  0  0  0  0
  -26.1600  -11.7050   20.3420 N   0  0  0  0  0  0  0  0  0  0  0  0
  -24.1670  -10.4820   20.9340 C   0  0  0  0  0  0  0  0  0  0  0  0
  -24.5880   -9.5230   21.8800 C   0  0  0  0  0  3  0  0  0  0  0  0
  -23.8590   -8.3270   22.0600 C   0  0  0  0  0  3  0  0  0  0  0  0
  -22.6950   -8.0830   21.2930 C   0  0  0  0  0  0  0  0  0  0  0  0
  -22.2930   -9.0310   20.3360 C   0  0  0  0  0  3  0  0  0  0  0  0
  -23.0230  -10.2180   20.1550 C   0  0  0  0  0  3  0  0  0  0  0  0
  -21.9400   -6.9390   21.3820 O   0  0  0  0  0  0  0  0  0  0  0  0
  -21.7870   -6.2660   22.5680 C   0  0  0  0  0  0  0  0  0  0  0  0
  -21.2420   -6.8890   23.7120 C   0  0  0  0  0  3  0  0  0  0  0  0
  -21.0390   -6.1420   24.8890 C   0  0  0  0  0  3  0  0  0  0  0  0
  -21.3700   -4.7740   24.9230 C   0  0  0  0  0  0  0  0  0  0  0  0
  -21.9080   -4.1510   23.7840 C   0  0  0  0  0  3  0  0  0  0  0  0
  -22.1130   -4.8950   22.6080 C   0  0  0  0  0  0  0  0  0  0  0  0
  -22.6120   -4.2860   21.5050 F   0  0  0  0  0  0  0  0  0  0  0  0
  -21.1680   -4.0550   26.0520 F   0  0  0  0  0  0  0  0  0  0  0  0
  -23.0840  -13.5780   21.2390 C   0  0  0  0  0  0  0  0  0  0  0  0
  -22.4120  -12.8650   22.1370 N   0  0  0  0  0  0  0  0  0  0  0  0
  -22.6200  -14.6220   20.7790 O   0  0  0  0  0  0  0  0  0  0  0  0
  -22.8010  -12.0210   22.5300 H   0  0  0  0  0  0  0  0  0  0  0  0
  -21.4960  -13.1690   22.4360 H   0  0  0  0  0  0  0  0  0  0  0  0
  -25.6670  -15.2480   20.3010 N   0  0  0  0  0  0  0  0  0  0  0  0
  -24.9120  -15.9000   20.4810 H   0  0  0  0  0  0  0  0  0  0  0  0
  -26.4800  -15.6910   19.8910 H   0  0  0  0  0  0  0  0  0  0  0  0
  -28.4870  -26.4780   20.0350 O   0  0  0  0  0  0  0  0  0  0  0  0
  -24.7190  -31.8310   23.2010 C   0  0  0  0  0  0  0  0  0  0  0  0
  -27.3370  -27.2960   20.0650 C   0  0  0  0  0  0  0  0  0  0  0  0
  -23.5150  -30.4510   21.5440 C   0  0  0  0  0  3  0  0  0  0  0  0
  -24.9650  -28.9210   20.0890 C   0  0  0  0  0  0  0  0  0  0  0  0
  -26.0530  -30.7760   21.3550 C   0  0  0  0  0  2  0  0  0  0  0  0
  -26.1350  -29.4020   20.6900 C   0  0  0  0  0  0  0  0  0  0  0  0
  -27.3200  -28.6010   20.6660 C   0  0  0  0  0  3  0  0  0  0  0  0
  -26.1410  -26.8740   19.4470 C   0  0  0  0  0  3  0  0  0  0  0  0
  -24.9720  -27.6630   19.4590 C   0  0  0  0  0  3  0  0  0  0  0  0
  -23.7270  -29.7950   20.1540 C   0  0  0  0  0  2  0  0  0  0  0  0
  -24.7820  -31.0380   22.0900 N   0  0  0  0  0  0  0  0  0  0  0  0
  -23.6360  -32.0950   23.7450 O   0  0  0  0  0  0  0  0  0  0  0  0
  -22.8600  -29.4200   22.4940 C   0  0  0  0  0  0  0  0  0  0  0  0
  -21.5340  -29.2390   22.3720 N   0  0  0  0  0  0  0  0  0  0  0  0
  -23.5450  -28.7840   23.2980 O   0  0  0  0  0  0  0  0  0  0  0  0
  -21.0390  -29.8040   21.6950 H   0  0  0  0  0  0  0  0  0  0  0  0
  -18.1640  -28.0240   22.8780 C   0  0  0  0  0  0  0  0  0  0  0  0
  -20.7240  -28.2860   23.1320 C   0  0  0  0  0  3  0  0  0  0  0  0
  -20.8250  -26.8660   22.5260 C   0  0  0  0  0  2  0  0  0  0  0  0
  -19.7150  -26.5600   21.5160 C   0  0  0  0  0  2  0  0  0  0  0  0
  -18.3390  -26.6890   22.1740 C   0  0  0  0  0  2  0  0  0  0  0  0
  -19.2840  -28.7810   23.3130 C   0  0  0  0  0  0  0  0  0  0  0  0
  -19.0660  -30.0310   23.9330 C   0  0  0  0  0  3  0  0  0  0  0  0
  -17.7610  -30.5240   24.1200 C   0  0  0  0  0  3  0  0  0  0  0  0
  -16.6550  -29.7630   23.6990 C   0  0  0  0  0  3  0  0  0  0  0  0
  -16.8580  -28.5150   23.0840 C   0  0  0  0  0  3  0  0  0  0  0  0
  -26.0000  -32.4600   23.8300 C   0  0  0  0  0  3  0  0  0  0  0  0
  -25.6840  -33.8520   24.1850 N   0  0  0  0  0  0  0  0  0  0  0  0
  -25.9880  -34.9180   23.4320 C   0  0  0  0  0  0  0  0  0  0  0  0
  -26.6300  -34.8340   22.3820 O   0  0  0  0  0  0  0  0  0  0  0  0
  -25.1090  -33.9900   25.0020 H   0  0  0  0  0  0  0  0  0  0  0  0
  -24.2230  -36.6910   23.1620 C   0  0  0  0  0  1  0  0  0  0  0  0
  -25.5010  -36.2960   23.9200 C   0  0  0  0  0  3  0  0  0  0  0  0
  -27.6520  -37.2070   24.6760 C   0  0  0  0  0  1  0  0  0  0  0  0
  -26.5140  -37.3650   23.7760 N   0  0  0  0  0  0  0  0  0  0  0  0
  -26.1000  -38.2780   23.9430 H   0  0  0  0  0  0  0  0  0  0  0  0
  -26.5230  -31.6740   25.0940 C   0  0  1  0  0  0  0  0  0  0  0  0
  -25.4350  -31.4180   26.1630 C   0  0  0  0  0  1  0  0  0  0  0  0
  -27.1100  -30.3030   24.6820 C   0  0  0  0  0  1  0  0  0  0  0  0
  -27.6750  -32.4620   25.7630 C   0  0  0  0  0  1  0  0  0  0  0  0
  1  5  1  0
  2  6  1  0
  3 10  1  0
  3  6  2  0
  4  1  2  0
  4  3  1  0
  5  2  2  0
  6  8  1  0
  7  4  1  0
  9 10  2  0
 10 12  1  0
 11  9  1  0
 11 14  1  0
 13 12  1  0
 14 15  1  1
 14 13  1  0
 16 24  1  0
 17 22  1  0
 18 19  1  0
 18 17  1  0
 20 19  1  0
 20 29  1  0
 20 21  1  0
 22 16  1  0
 22 21  1  0
 23 16  2  0
 24 14  1  0
 24 25  1  0
 26 27  2  0
 27 46  1  0
 28 27  1  0
 28 31  1  0
 29 30  1  0
 29 26  1  0
 30 28  2  0
 31 32  1  0
 32 33  2  0
 34 37  1  0
 34 33  1  0
 35 34  2  0
 36 35  1  0
 36 31  2  0
 37 38  1  0
 38 43  2  0
 38 39  1  0
 39 40  2  0
 40 41  1  0
 41 45  1  0
 42 41  2  0
 43 42  1  0
 44 43  1  0
 46 47  1  0
 47 50  1  0
 47 49  1  0
 48 46  2  0
 51 26  1  0
 51 52  1  0
 53 51  1  0
 54 56  1  0
 54  5  1  0
 55 66  2  0
 56 61  1  0
 57 65  1  0
 57 67  1  0
 58 64  1  0
 58 60  1  0
 59 65  1  0
 60 59  1  0
 61 60  2  0
 62 63  1  0
 62 56  2  0
 63 58  2  0
 64 57  1  0
 65 55  1  0
 67 69  2  0
 68 67  1  0
 70 68  1  0
 71 80  2  0
 71 76  1  0
 72 68  1  0
 72 76  1  0
 73 72  1  0
 74 75  1  0
 74 73  1  0
 75 71  1  0
 76 77  2  0
 77 78  1  0
 79 78  2  0
 80 79  1  0
 81 55  1  0
 81 82  1  0
 81 91  1  0
 82 85  1  0
 83 87  1  0
 83 82  1  0
 84 83  2  0
 87 86  1  0
 89 87  1  0
 89 90  1  0
 89 88  1  0
 91 94  1  1
 91 92  1  0
 93 91  1  0
M  ISO  4   5 101  16 100  24 100  54 101
M  END
>  <TORSDO>  (27) 
F 17

>  <SCORE>  (27) 
-14.167

>  <name>  (27) 
26

>  <ligand_id>  (27) 
26

>  <original_smiles>  (27) 
[H]C1=C(c2c(F)c([H])c(Oc3c([H])c([H])c4c(c3[H])C([H])([H])N(C(=O)C([H])(N([H])C(=O)C([H])(N([H])C([H])([H])[H])C([H])([H])[H])C(C([H])([H])[H])(C([H])([H])[H])C([H])([H])[H])C([H])(C(=O)N([H])C3([H])c5c([H])c([H])c([H])c([H])c5C([H])([H])C([H])([H])C3([H])[H])C4([H])[H])c([H])c2C([H])([H])[H])C([H])([H])C([H])([H])C(N([H])C(=O)N2C([H])([H])C([H])([H])C([H])([H])C([H])(n3nc(-c4c([H])c([H])c(Oc5c([H])c([H])c(F)c([H])c5F)c([H])c4[H])c(C(=O)N([H])[H])c3N([H])[H])C2([H])[H])(C([H])([H])[H])C1([H])[H]

>  <smiles>  (27) 
[H]C1=C(c2c(F)c([H])c(Oc3c([H])c([H])c4c(c3[H])C([H])([H])N(C(=O)C([H])(N([H])C(=O)C([H])(N([H])C([H])([H])[H])C([H])([H])[H])C(C([H])([H])[H])(C([H])([H])[H])C([H])([H])[H])C([H])(C(=O)N([H])C3([H])c5c([H])c([H])c([H])c([H])c5C([H])([H])C([H])([H])C3([H])[H])C4([H])[H])c([H])c2C([H])([H])[H])C([H])([H])C([H])([H])C(N([H])C(=O)N2C([H])([H])C([H])([H])C([H])([H])C([H])(n3nc(-c4c([H])c([H])c(Oc5c([H])c([H])c(F)c([H])c5F)c([H])c4[H])c(C(=O)N([H])[H])c3N([H])[H])C2([H])[H])(C([H])([H])[H])C1([H])[H]

$$$$
27:0:0
     RDKit          3D

 96105  0  0  1  0  0  0  0  0999 V2000
  -28.7730  -25.6820   16.8700 C   0  0  0  0  0  3  0  0  0  0  0  0
  -29.0230  -25.5590   18.1890 C   0  0  0  0  0  0  0  0  0  0  0  0
  -29.1760  -24.1920   18.8690 C   0  0  0  0  0  2  0  0  0  0  0  0
  -29.1510  -23.2140   16.5300 C   0  0  0  0  0  2  0  0  0  0  0  0
  -28.6690  -23.0260   17.9800 C   0  0  0  0  0  3  0  0  0  0  0  0
  -28.6540  -24.5300   15.8840 C   0  0  1  0  0  0  0  0  0  0  0  0
  -27.1860  -24.4040   15.4370 C   0  0  0  0  0  1  0  0  0  0  0  0
  -29.5200  -24.8360   14.6480 C   0  0  0  0  0  1  0  0  0  0  0  0
  -30.3000  -21.2370   18.8850 C   0  0  0  0  0  3  0  0  0  0  0  0
  -30.6070  -19.8910   19.1890 C   0  0  0  0  0  3  0  0  0  0  0  0
  -28.3150  -19.2600   18.6870 C   0  0  0  0  0  3  0  0  0  0  0  0
  -28.9980  -21.6060   18.4660 C   0  0  0  0  0  0  0  0  0  0  0  0
  -29.6190  -18.8880   19.0720 C   0  0  0  0  0  0  0  0  0  0  0  0
  -28.0060  -20.6010   18.3870 C   0  0  0  0  0  0  0  0  0  0  0  0
  -26.7500  -20.9060   17.9790 F   0  0  0  0  0  0  0  0  0  0  0  0
  -29.9460  -17.4110   19.2890 C   0  0  0  0  0  2  0  0  0  0  0  0
  -30.5100  -17.0680   20.6850 C   0  0  0  0  0  2  0  0  0  0  0  0
  -30.2030  -15.6180   21.1470 C   0  0  0  0  0  2  0  0  0  0  0  0
  -30.8320  -14.4980   20.2860 C   0  0  0  0  0  0  0  0  0  0  0  0
  -30.4890  -12.4130   19.0040 C   0  0  0  0  0  2  0  0  0  0  0  0
  -29.5190  -12.7050   17.8410 C   0  0  0  0  0  2  0  0  0  0  0  0
  -28.0520  -12.5730   18.3010 C   0  0  0  0  0  2  0  0  0  0  0  0
  -27.7660  -13.3400   19.6220 C   0  0  0  0  0  3  0  0  0  0  0  0
  -28.8430  -13.0090   20.6800 C   0  0  0  0  0  2  0  0  0  0  0  0
  -30.1540  -13.3340   20.0990 N   0  0  0  0  0  0  0  0  0  0  0  0
  -31.9120  -14.7250   19.7330 O   0  0  0  0  0  0  0  0  0  0  0  0
  -25.3730  -13.9550   20.3510 C   0  0  0  0  0  0  0  0  0  0  0  0
  -24.3090  -13.1840   20.7390 C   0  0  0  0  0  0  0  0  0  0  0  0
  -24.7700  -11.8330   20.7090 C   0  0  0  0  0  0  0  0  0  0  0  0
  -26.4170  -13.0720   20.1160 N   0  0  0  0  0  0  0  0  0  0  0  0
  -26.0550  -11.7910   20.3830 N   0  0  0  0  0  0  0  0  0  0  0  0
  -24.0460  -10.5720   20.9180 C   0  0  0  0  0  0  0  0  0  0  0  0
  -24.4770   -9.6220   21.8690 C   0  0  0  0  0  3  0  0  0  0  0  0
  -23.7560   -8.4250   22.0650 C   0  0  0  0  0  3  0  0  0  0  0  0
  -22.5870   -8.1690   21.3080 C   0  0  0  0  0  0  0  0  0  0  0  0
  -22.1750   -9.1080   20.3460 C   0  0  0  0  0  3  0  0  0  0  0  0
  -22.8980  -10.2970   20.1480 C   0  0  0  0  0  3  0  0  0  0  0  0
  -21.8340   -7.0240   21.4140 O   0  0  0  0  0  0  0  0  0  0  0  0
  -21.7690   -6.3110   22.5840 C   0  0  0  0  0  0  0  0  0  0  0  0
  -21.3070   -6.8920   23.7850 C   0  0  0  0  0  3  0  0  0  0  0  0
  -21.1930   -6.1050   24.9490 C   0  0  0  0  0  3  0  0  0  0  0  0
  -21.5280   -4.7390   24.9110 C   0  0  0  0  0  0  0  0  0  0  0  0
  -21.9830   -4.1560   23.7140 C   0  0  0  0  0  3  0  0  0  0  0  0
  -22.1020   -4.9420   22.5530 C   0  0  0  0  0  0  0  0  0  0  0  0
  -22.5220   -4.3720   21.3970 F   0  0  0  0  0  0  0  0  0  0  0  0
  -21.4080   -3.9800   26.0240 F   0  0  0  0  0  0  0  0  0  0  0  0
  -22.9140  -13.6620   21.0280 C   0  0  0  0  0  0  0  0  0  0  0  0
  -22.1970  -12.9690   21.9070 N   0  0  0  0  0  0  0  0  0  0  0  0
  -22.4690  -14.6830   20.5080 O   0  0  0  0  0  0  0  0  0  0  0  0
  -22.5680  -12.1440   22.3530 H   0  0  0  0  0  0  0  0  0  0  0  0
  -21.2600  -13.2690   22.1370 H   0  0  0  0  0  0  0  0  0  0  0  0
  -25.5340  -15.3240   20.1610 N   0  0  0  0  0  0  0  0  0  0  0  0
  -24.7680  -15.9780   20.2750 H   0  0  0  0  0  0  0  0  0  0  0  0
  -26.3820  -15.7610   19.8250 H   0  0  0  0  0  0  0  0  0  0  0  0
  -29.2380  -26.7980   19.0510 C   0  0  0  0  0  2  0  0  0  0  0  0
  -28.4430  -26.8080   20.2290 O   0  0  0  0  0  0  0  0  0  0  0  0
  -24.5350  -31.9220   23.2310 C   0  0  0  0  0  0  0  0  0  0  0  0
  -27.2820  -27.5390   20.1710 C   0  0  0  0  0  0  0  0  0  0  0  0
  -23.3720  -30.5210   21.5540 C   0  0  0  0  0  3  0  0  0  0  0  0
  -24.8680  -29.0000   20.1490 C   0  0  0  0  0  0  0  0  0  0  0  0
  -25.8940  -30.9020   21.4110 C   0  0  0  0  0  2  0  0  0  0  0  0
  -26.0040  -29.5350   20.7700 C   0  0  0  0  0  0  0  0  0  0  0  0
  -27.2120  -28.8040   20.7920 C   0  0  0  0  0  3  0  0  0  0  0  0
  -26.1380  -27.0090   19.5440 C   0  0  0  0  0  3  0  0  0  0  0  0
  -24.9280  -27.7340   19.5330 C   0  0  0  0  0  3  0  0  0  0  0  0
  -23.6140  -29.8450   20.1760 C   0  0  0  0  0  2  0  0  0  0  0  0
  -24.6170  -31.1290   22.1260 N   0  0  0  0  0  0  0  0  0  0  0  0
  -23.4410  -32.1840   23.7520 O   0  0  0  0  0  0  0  0  0  0  0  0
  -22.7050  -29.4930   22.4970 C   0  0  0  0  0  0  0  0  0  0  0  0
  -21.3870  -29.2970   22.3320 N   0  0  0  0  0  0  0  0  0  0  0  0
  -23.3740  -28.8730   23.3290 O   0  0  0  0  0  0  0  0  0  0  0  0
  -20.9110  -29.8500   21.6330 H   0  0  0  0  0  0  0  0  0  0  0  0
  -18.0130  -28.0680   22.7280 C   0  0  0  0  0  0  0  0  0  0  0  0
  -20.5590  -28.3500   23.0770 C   0  0  0  0  0  3  0  0  0  0  0  0
  -20.6930  -26.9210   22.5000 C   0  0  0  0  0  2  0  0  0  0  0  0
  -19.6240  -26.5920   21.4520 C   0  0  0  0  0  2  0  0  0  0  0  0
  -18.2230  -26.7220   22.0560 C   0  0  0  0  0  2  0  0  0  0  0  0
  -19.1110  -28.8400   23.1930 C   0  0  0  0  0  0  0  0  0  0  0  0
  -18.8650  -30.1010   23.7790 C   0  0  0  0  0  3  0  0  0  0  0  0
  -17.5510  -30.5910   23.9050 C   0  0  0  0  0  3  0  0  0  0  0  0
  -16.4670  -29.8160   23.4590 C   0  0  0  0  0  3  0  0  0  0  0  0
  -16.6980  -28.5580   22.8760 C   0  0  0  0  0  3  0  0  0  0  0  0
  -25.8060  -32.5540   23.8830 C   0  0  0  0  0  3  0  0  0  0  0  0
  -25.4940  -33.9560   24.1870 N   0  0  0  0  0  0  0  0  0  0  0  0
  -25.8640  -34.9990   23.4300 C   0  0  0  0  0  0  0  0  0  0  0  0
  -26.5720  -34.8800   22.4270 O   0  0  0  0  0  0  0  0  0  0  0  0
  -24.8690  -34.1230   24.9610 H   0  0  0  0  0  0  0  0  0  0  0  0
  -24.1700  -36.8020   22.9840 C   0  0  0  0  0  1  0  0  0  0  0  0
  -25.3690  -36.3940   23.8550 C   0  0  0  0  0  3  0  0  0  0  0  0
  -27.4670  -37.2700   24.7800 C   0  0  0  0  0  1  0  0  0  0  0  0
  -26.4140  -37.4370   23.7820 N   0  0  0  0  0  0  0  0  0  0  0  0
  -26.0100  -38.3620   23.9010 H   0  0  0  0  0  0  0  0  0  0  0  0
  -26.2860  -31.7920   25.1790 C   0  0  1  0  0  0  0  0  0  0  0  0
  -25.1650  -31.5630   26.2180 C   0  0  0  0  0  1  0  0  0  0  0  0
  -26.8770  -30.4120   24.8110 C   0  0  0  0  0  1  0  0  0  0  0  0
  -27.4200  -32.5890   25.8650 C   0  0  0  0  0  1  0  0  0  0  0  0
  1  2  2  0
  2  3  1  0
  2 55  1  0
  4  5  1  0
  5 12  1  0
  5  3  1  0
  6  4  1  0
  6  1  1  0
  6  7  1  6
  8  6  1  0
  9 10  1  0
 11 13  1  0
 12  9  2  0
 13 10  2  0
 13 16  1  0
 14 12  1  0
 14 11  2  0
 15 14  1  0
 16 17  1  0
 17 18  1  0
 19 18  1  0
 20 25  1  0
 21 22  1  0
 21 20  1  0
 23 22  1  0
 23 30  1  0
 23 24  1  0
 25 19  1  0
 25 24  1  0
 26 19  2  0
 27 28  2  0
 28 47  1  0
 29 28  1  0
 29 32  1  0
 30 27  1  0
 30 31  1  0
 31 29  2  0
 32 33  1  0
 33 34  2  0
 35 38  1  0
 35 34  1  0
 36 35  2  0
 37 36  1  0
 37 32  2  0
 38 39  1  0
 39 40  1  0
 40 41  2  0
 42 41  1  0
 42 46  1  0
 43 42  2  0
 44 39  2  0
 44 43  1  0
 45 44  1  0
 47 48  1  0
 48 51  1  0
 48 50  1  0
 49 47  2  0
 52 53  1  0
 52 27  1  0
 54 52  1  0
 55 56  1  0
 57 68  2  0
 58 56  1  0
 58 63  1  0
 59 67  1  0
 59 69  1  0
 60 66  1  0
 60 62  1  0
 61 67  1  0
 62 63  2  0
 62 61  1  0
 64 58  2  0
 65 64  1  0
 65 60  2  0
 66 59  1  0
 67 57  1  0
 69 71  2  0
 70 69  1  0
 72 70  1  0
 73 82  2  0
 73 78  1  0
 74 70  1  0
 74 78  1  0
 75 74  1  0
 76 77  1  0
 76 75  1  0
 77 73  1  0
 78 79  2  0
 79 80  1  0
 81 80  2  0
 82 81  1  0
 83 57  1  0
 83 84  1  0
 83 93  1  0
 84 87  1  0
 85 89  1  0
 85 84  1  0
 86 85  2  0
 89 88  1  0
 91 89  1  0
 91 92  1  0
 91 90  1  0
 93 96  1  1
 93 94  1  0
 95 93  1  0
M  ISO  4  18 100  19 100  55 101  56 101
M  END
>  <TORSDO>  (28) 
F 21

>  <SCORE>  (28) 
-12.528

>  <name>  (28) 
27

>  <ligand_id>  (28) 
27

>  <original_smiles>  (28) 
[H]C1=C(C([H])([H])Oc2c([H])c([H])c3c(c2[H])C([H])([H])N(C(=O)C([H])(N([H])C(=O)C([H])(N([H])C([H])([H])[H])C([H])([H])[H])C(C([H])([H])[H])(C([H])([H])[H])C([H])([H])[H])C([H])(C(=O)N([H])C2([H])c4c([H])c([H])c([H])c([H])c4C([H])([H])C([H])([H])C2([H])[H])C3([H])[H])C([H])([H])C([H])(c2c([H])c([H])c(C([H])([H])C([H])([H])C([H])([H])C(=O)N3C([H])([H])C([H])([H])C([H])([H])C([H])(n4nc(-c5c([H])c([H])c(Oc6c([H])c([H])c(F)c([H])c6F)c([H])c5[H])c(C(=O)N([H])[H])c4N([H])[H])C3([H])[H])c([H])c2F)C([H])([H])C1(C([H])([H])[H])C([H])([H])[H]

>  <smiles>  (28) 
[H]C1=C(C([H])([H])Oc2c([H])c([H])c3c(c2[H])C([H])([H])N(C(=O)C([H])(N([H])C(=O)C([H])(N([H])C([H])([H])[H])C([H])([H])[H])C(C([H])([H])[H])(C([H])([H])[H])C([H])([H])[H])C([H])(C(=O)N([H])C2([H])c4c([H])c([H])c([H])c([H])c4C([H])([H])C([H])([H])C2([H])[H])C3([H])[H])C([H])([H])C([H])(c2c([H])c([H])c(C([H])([H])C([H])([H])C([H])([H])C(=O)N3C([H])([H])C([H])([H])C([H])([H])C([H])(n4nc(-c5c([H])c([H])c(Oc6c([H])c([H])c(F)c([H])c6F)c([H])c5[H])c(C(=O)N([H])[H])c4N([H])[H])C3([H])[H])c([H])c2F)C([H])([H])C1(C([H])([H])[H])C([H])([H])[H]

$$$$
28:0:0
     RDKit          3D

101110  0  0  1  0  0  0  0  0999 V2000
  -31.0810  -29.5140   23.0090 C   0  0  0  0  0  3  0  0  0  0  0  0
  -32.2960  -29.9720   23.5110 C   0  0  0  0  0  3  0  0  0  0  0  0
  -29.7830  -28.0160   21.7080 C   0  0  0  0  0  3  0  0  0  0  0  0
  -31.0510  -28.4090   22.1470 C   0  0  0  0  0  0  0  0  0  0  0  0
  -32.2340  -27.7430   21.7180 C   0  0  0  0  0  0  0  0  0  0  0  0
  -33.4790  -29.2850   23.2150 C   0  0  0  0  0  0  0  0  0  0  0  0
  -33.4710  -28.1670   22.3260 C   0  0  0  0  0  0  0  0  0  0  0  0
  -32.0630  -26.6850   20.7580 C   0  0  0  0  0  0  0  0  0  0  0  0
  -30.7470  -26.2860   20.3590 C   0  0  0  0  0  0  0  0  0  0  0  0
  -29.6140  -27.0550   20.7000 C   0  0  0  0  0  0  0  0  0  0  0  0
  -34.7290  -29.7900   23.9160 C   0  0  0  0  0  1  0  0  0  0  0  0
  -34.7890  -27.4220   22.1370 C   0  0  0  0  0  1  0  0  0  0  0  0
  -33.2430  -26.0120   20.0560 C   0  0  0  0  0  1  0  0  0  0  0  0
  -28.4030  -26.7360   20.0910 O   0  0  0  0  0  0  0  0  0  0  0  0
  -24.5970  -31.8650   23.2120 C   0  0  0  0  0  0  0  0  0  0  0  0
  -27.2670  -27.5230   20.0790 C   0  0  0  0  0  0  0  0  0  0  0  0
  -23.3780  -30.4860   21.5580 C   0  0  0  0  0  3  0  0  0  0  0  0
  -24.8170  -28.9520   20.1160 C   0  0  0  0  0  0  0  0  0  0  0  0
  -25.8920  -30.8690   21.3350 C   0  0  0  0  0  2  0  0  0  0  0  0
  -25.9740  -29.5290   20.6360 C   0  0  0  0  0  0  0  0  0  0  0  0
  -27.1960  -28.8610   20.5270 C   0  0  0  0  0  3  0  0  0  0  0  0
  -26.0840  -26.9520   19.5600 C   0  0  0  0  0  3  0  0  0  0  0  0
  -24.8690  -27.6640   19.5480 C   0  0  0  0  0  3  0  0  0  0  0  0
  -23.5720  -29.7970   20.1770 C   0  0  0  0  0  2  0  0  0  0  0  0
  -24.6430  -31.0840   22.0960 N   0  0  0  0  0  0  0  0  0  0  0  0
  -23.5210  -32.1380   23.7620 O   0  0  0  0  0  0  0  0  0  0  0  0
  -22.7340  -29.4640   22.5180 C   0  0  0  0  0  0  0  0  0  0  0  0
  -21.4100  -29.2970   22.3930 N   0  0  0  0  0  0  0  0  0  0  0  0
  -23.4230  -28.8220   23.3160 O   0  0  0  0  0  0  0  0  0  0  0  0
  -20.9350  -29.8550   21.6970 H   0  0  0  0  0  0  0  0  0  0  0  0
  -18.0220  -28.1350   22.8550 C   0  0  0  0  0  0  0  0  0  0  0  0
  -20.5790  -28.3600   23.1440 C   0  0  0  0  0  3  0  0  0  0  0  0
  -20.6750  -26.9360   22.5470 C   0  0  0  0  0  2  0  0  0  0  0  0
  -19.5730  -26.6390   21.5270 C   0  0  0  0  0  2  0  0  0  0  0  0
  -18.1880  -26.7900   22.1650 C   0  0  0  0  0  2  0  0  0  0  0  0
  -19.1470  -28.8820   23.2970 C   0  0  0  0  0  0  0  0  0  0  0  0
  -18.9400  -30.1440   23.8980 C   0  0  0  0  0  3  0  0  0  0  0  0
  -17.6390  -30.6590   24.0540 C   0  0  0  0  0  3  0  0  0  0  0  0
  -16.5280  -29.9070   23.6320 C   0  0  0  0  0  3  0  0  0  0  0  0
  -16.7210  -28.6470   23.0390 C   0  0  0  0  0  3  0  0  0  0  0  0
  -25.8870  -32.4830   23.8360 C   0  0  0  0  0  3  0  0  0  0  0  0
  -26.4450  -31.6680   25.0690 C   0  0  1  0  0  0  0  0  0  0  0  0
  -25.3800  -31.3790   26.1530 C   0  0  0  0  0  1  0  0  0  0  0  0
  -27.0310  -30.3100   24.6110 C   0  0  0  0  0  1  0  0  0  0  0  0
  -27.6020  -32.4520   25.7350 C   0  0  0  0  0  1  0  0  0  0  0  0
  -25.5690  -33.8640   24.2230 N   0  0  0  0  0  0  0  0  0  0  0  0
  -25.8990  -34.9540   23.5140 C   0  0  0  0  0  0  0  0  0  0  0  0
  -26.5660  -34.9030   22.4770 O   0  0  0  0  0  0  0  0  0  0  0  0
  -24.9490  -33.9790   25.0090 H   0  0  0  0  0  0  0  0  0  0  0  0
  -24.1440  -36.7440   23.2650 C   0  0  0  0  0  1  0  0  0  0  0  0
  -25.4030  -36.3180   24.0370 C   0  0  0  0  0  3  0  0  0  0  0  0
  -27.5550  -37.1890   24.8420 C   0  0  0  0  0  1  0  0  0  0  0  0
  -26.4210  -37.3850   23.9450 N   0  0  0  0  0  0  0  0  0  0  0  0
  -26.0090  -38.2940   24.1420 H   0  0  0  0  0  0  0  0  0  0  0  0
  -30.4640  -24.9210   19.7210 C   0  0  0  0  0  2  0  0  0  0  0  0
  -29.5760  -24.0080   20.6160 C   0  0  0  0  0  2  0  0  0  0  0  0
  -29.7850  -24.1220   22.1470 C   0  0  0  0  0  2  0  0  0  0  0  0
  -31.2250  -23.8920   22.6520 C   0  0  0  0  0  2  0  0  0  0  0  0
  -31.3700  -22.6690   23.5650 C   0  0  0  0  0  2  0  0  0  0  0  0
  -31.7290  -21.4130   22.7710 C   0  0  0  0  0  2  0  0  0  0  0  0
  -31.1320  -20.1340   23.3610 C   0  0  0  0  0  2  0  0  0  0  0  0
  -31.6750  -18.9040   22.6320 C   0  0  0  0  0  2  0  0  0  0  0  0
  -30.7410  -17.6950   22.7210 C   0  0  0  0  0  2  0  0  0  0  0  0
  -31.2710  -16.5510   21.8520 C   0  0  0  0  0  2  0  0  0  0  0  0
  -30.2930  -15.3710   21.7020 C   0  0  0  0  0  2  0  0  0  0  0  0
  -30.7710  -14.3460   20.6620 C   0  0  0  0  0  0  0  0  0  0  0  0
  -30.4040  -12.2660   19.3890 C   0  0  0  0  0  2  0  0  0  0  0  0
  -29.4780  -12.5160   18.1860 C   0  0  0  0  0  2  0  0  0  0  0  0
  -28.0030  -12.3760   18.6090 C   0  0  0  0  0  2  0  0  0  0  0  0
  -27.6670  -13.2010   19.8810 C   0  0  0  0  0  3  0  0  0  0  0  0
  -28.7100  -12.9520   20.9940 C   0  0  0  0  0  2  0  0  0  0  0  0
  -30.0470  -13.2220   20.4430 N   0  0  0  0  0  0  0  0  0  0  0  0
  -31.8110  -14.5860   20.0380 O   0  0  0  0  0  0  0  0  0  0  0  0
  -25.2610  -13.8140   20.5690 C   0  0  0  0  0  0  0  0  0  0  0  0
  -24.1860  -13.0440   20.9150 C   0  0  0  0  0  0  0  0  0  0  0  0
  -24.6390  -11.6890   20.8720 C   0  0  0  0  0  0  0  0  0  0  0  0
  -26.3050  -12.9320   20.3400 N   0  0  0  0  0  0  0  0  0  0  0  0
  -25.9320  -11.6470   20.5770 N   0  0  0  0  0  0  0  0  0  0  0  0
  -23.9040  -10.4290   21.0380 C   0  0  0  0  0  0  0  0  0  0  0  0
  -24.3600   -9.4210   21.9170 C   0  0  0  0  0  3  0  0  0  0  0  0
  -23.6280   -8.2240   22.0750 C   0  0  0  0  0  3  0  0  0  0  0  0
  -22.4260   -8.0280   21.3550 C   0  0  0  0  0  0  0  0  0  0  0  0
  -21.9890   -9.0240   20.4650 C   0  0  0  0  0  3  0  0  0  0  0  0
  -22.7200  -10.2120   20.3050 C   0  0  0  0  0  3  0  0  0  0  0  0
  -21.6640   -6.8860   21.4230 O   0  0  0  0  0  0  0  0  0  0  0  0
  -21.6840   -6.0720   22.5270 C   0  0  0  0  0  0  0  0  0  0  0  0
  -21.4020   -6.5630   23.8210 C   0  0  0  0  0  3  0  0  0  0  0  0
  -21.3670   -5.6790   24.9170 C   0  0  0  0  0  3  0  0  0  0  0  0
  -21.6040   -4.3040   24.7220 C   0  0  0  0  0  0  0  0  0  0  0  0
  -21.8820   -3.8140   23.4340 C   0  0  0  0  0  3  0  0  0  0  0  0
  -21.9200   -4.6950   22.3410 C   0  0  0  0  0  0  0  0  0  0  0  0
  -22.1660   -4.2130   21.0980 F   0  0  0  0  0  0  0  0  0  0  0  0
  -21.5630   -3.4540   25.7740 F   0  0  0  0  0  0  0  0  0  0  0  0
  -22.7880  -13.5240   21.1840 C   0  0  0  0  0  0  0  0  0  0  0  0
  -22.0530  -12.8240   22.0380 N   0  0  0  0  0  0  0  0  0  0  0  0
  -22.3560  -14.5560   20.6680 O   0  0  0  0  0  0  0  0  0  0  0  0
  -22.4140  -11.9900   22.4770 H   0  0  0  0  0  0  0  0  0  0  0  0
  -21.1150  -13.1270   22.2610 H   0  0  0  0  0  0  0  0  0  0  0  0
  -25.4350  -15.1870   20.4100 N   0  0  0  0  0  0  0  0  0  0  0  0
  -24.6720  -15.8450   20.5230 H   0  0  0  0  0  0  0  0  0  0  0  0
  -26.2990  -15.6260   20.1180 H   0  0  0  0  0  0  0  0  0  0  0  0
  1  2  1  0
  3  4  1  0
  4  1  2  0
  5  4  1  0
  5  7  2  0
  6  2  2  0
  6 11  1  0
  7  6  1  0
  8  5  1  0
  9 10  1  0
  9  8  2  0
 10  3  2  0
 12  7  1  0
 13  8  1  0
 14 10  1  0
 15 26  2  0
 16 14  1  0
 16 21  1  0
 17 25  1  0
 17 27  1  0
 18 24  1  0
 18 20  1  0
 19 25  1  0
 20 19  1  0
 21 20  2  0
 22 16  2  0
 23 22  1  0
 23 18  2  0
 24 17  1  0
 25 15  1  0
 27 29  2  0
 28 27  1  0
 30 28  1  0
 31 40  2  0
 31 36  1  0
 32 28  1  0
 32 36  1  0
 33 32  1  0
 34 35  1  0
 34 33  1  0
 35 31  1  0
 36 37  2  0
 37 38  1  0
 39 38  2  0
 40 39  1  0
 41 15  1  0
 41 46  1  0
 41 42  1  0
 42 45  1  1
 42 43  1  0
 44 42  1  0
 46 49  1  0
 47 51  1  0
 47 46  1  0
 48 47  2  0
 51 50  1  0
 53 51  1  0
 53 54  1  0
 53 52  1  0
 55  9  1  0
 55 56  1  0
 56 57  1  0
 57 58  1  0
 58 59  1  0
 60 61  1  0
 60 59  1  0
 62 63  1  0
 62 61  1  0
 64 63  1  0
 65 64  1  0
 66 65  1  0
 67 72  1  0
 68 69  1  0
 68 67  1  0
 70 69  1  0
 70 77  1  0
 70 71  1  0
 72 66  1  0
 72 71  1  0
 73 66  2  0
 74 75  2  0
 75 94  1  0
 76 75  1  0
 76 79  1  0
 77 74  1  0
 77 78  1  0
 78 76  2  0
 79 80  1  0
 80 81  2  0
 82 85  1  0
 82 81  1  0
 83 82  2  0
 84 83  1  0
 84 79  2  0
 85 86  1  0
 86 87  1  0
 87 88  2  0
 89 88  1  0
 89 93  1  0
 90 89  2  0
 91 86  2  0
 91 90  1  0
 92 91  1  0
 94 95  1  0
 95 98  1  0
 95 97  1  0
 96 94  2  0
 99100  1  0
 99 74  1  0
101 99  1  0
M  ISO  4  10 101  14 101  65 100  66 100
M  END
>  <TORSDO>  (29) 
F 27

>  <SCORE>  (29) 
-2.497

>  <name>  (29) 
28

>  <ligand_id>  (29) 
28

>  <original_smiles>  (29) 
[H]c1c([H])c([H])c2c(c1[H])C([H])([H])C([H])([H])C([H])([H])C2([H])N([H])C(=O)C1([H])N(C(=O)C([H])(N([H])C(=O)C([H])(N([H])C([H])([H])[H])C([H])([H])[H])C(C([H])([H])[H])(C([H])([H])[H])C([H])([H])[H])C([H])([H])c2c([H])c(Oc3c(C([H])([H])C([H])([H])C([H])([H])C([H])([H])C([H])([H])C([H])([H])C([H])([H])C([H])([H])C([H])([H])C([H])([H])C([H])([H])C(=O)N4C([H])([H])C([H])([H])C([H])([H])C([H])(n5nc(-c6c([H])c([H])c(Oc7c([H])c([H])c(F)c([H])c7F)c([H])c6[H])c(C(=O)N([H])[H])c5N([H])[H])C4([H])[H])c(C([H])([H])[H])c4c(C([H])([H])[H])c(C([H])([H])[H])c([H])c([H])c4c3[H])c([H])c([H])c2C1([H])[H]

>  <smiles>  (29) 
[H]c1c([H])c([H])c2c(c1[H])C([H])([H])C([H])([H])C([H])([H])C2([H])N([H])C(=O)C1([H])N(C(=O)C([H])(N([H])C(=O)C([H])(N([H])C([H])([H])[H])C([H])([H])[H])C(C([H])([H])[H])(C([H])([H])[H])C([H])([H])[H])C([H])([H])c2c([H])c(Oc3c(C([H])([H])C([H])([H])C([H])([H])C([H])([H])C([H])([H])C([H])([H])C([H])([H])C([H])([H])C([H])([H])C([H])([H])C([H])([H])C(=O)N4C([H])([H])C([H])([H])C([H])([H])C([H])(n5nc(-c6c([H])c([H])c(Oc7c([H])c([H])c(F)c([H])c7F)c([H])c6[H])c(C(=O)N([H])[H])c5N([H])[H])C4([H])[H])c(C([H])([H])[H])c4c(C([H])([H])[H])c(C([H])([H])[H])c([H])c([H])c4c3[H])c([H])c([H])c2C1([H])[H]

$$$$
29:0:0
     RDKit          3D

 92101  0  0  1  0  0  0  0  0999 V2000
  -30.5360  -15.1610   20.3280 C   0  0  0  0  0  0  0  0  0  0  0  0
  -30.4240  -12.7440   19.4640 C   0  0  0  0  0  2  0  0  0  0  0  0
  -29.5150  -12.5910   18.2220 C   0  0  0  0  0  2  0  0  0  0  0  0
  -28.0520  -12.3700   18.6440 C   0  0  0  0  0  2  0  0  0  0  0  0
  -27.6160  -13.3400   19.7730 C   0  0  0  0  0  3  0  0  0  0  0  0
  -28.6550  -13.4590   20.9080 C   0  0  0  0  0  2  0  0  0  0  0  0
  -29.9110  -13.8950   20.2830 N   0  0  0  0  0  0  0  0  0  0  0  0
  -31.7470  -15.1300   20.0640 O   0  0  0  0  0  0  0  0  0  0  0  0
  -29.8080  -20.2270   21.1330 C   0  0  0  0  0  0  0  0  0  0  0  0
  -29.0960  -20.2960   19.9220 C   0  0  0  0  0  0  0  0  0  0  0  0
  -30.0240  -21.4950   21.8020 C   0  0  0  0  0  0  0  0  0  0  0  0
  -28.5770  -21.6320   19.4670 C   0  0  0  0  0  0  0  0  0  0  0  0
  -29.4620  -22.7720   21.3750 C   0  0  0  0  0  0  0  0  0  0  0  0
  -28.7280  -22.9560   20.1600 C   0  0  0  0  0  0  0  0  0  0  0  0
  -30.4070  -18.8280   21.6540 C   0  0  0  0  0  3  0  0  0  0  0  0
  -28.8750  -18.8610   19.2060 C   0  0  0  0  0  3  0  0  0  0  0  0
  -29.6940  -17.3560   21.5700 C   0  0  0  0  0  3  0  0  0  0  0  0
  -29.8900  -17.5360   19.2630 C   0  0  0  0  0  3  0  0  0  0  0  0
  -30.9290  -21.5000   23.0330 C   0  0  0  0  0  1  0  0  0  0  0  0
  -27.7940  -21.6130   18.1620 C   0  0  0  0  0  1  0  0  0  0  0  0
  -29.6190  -24.0030   22.2650 C   0  0  0  0  0  1  0  0  0  0  0  0
  -29.8400  -16.4520   20.3580 N   0  0  0  0  0  0  0  0  0  0  0  0
  -25.2390  -13.9200   20.4970 C   0  0  0  0  0  0  0  0  0  0  0  0
  -24.1680  -13.1510   20.8590 C   0  0  0  0  0  0  0  0  0  0  0  0
  -24.6270  -11.7990   20.8440 C   0  0  0  0  0  0  0  0  0  0  0  0
  -26.2790  -13.0380   20.2710 N   0  0  0  0  0  0  0  0  0  0  0  0
  -25.9220  -11.7550   20.5470 N   0  0  0  0  0  0  0  0  0  0  0  0
  -23.8890  -10.5420   21.0360 C   0  0  0  0  0  0  0  0  0  0  0  0
  -24.3030   -9.5800   21.9840 C   0  0  0  0  0  3  0  0  0  0  0  0
  -23.5650   -8.3900   22.1660 C   0  0  0  0  0  3  0  0  0  0  0  0
  -22.4000   -8.1540   21.3980 C   0  0  0  0  0  0  0  0  0  0  0  0
  -22.0050   -9.1050   20.4410 C   0  0  0  0  0  3  0  0  0  0  0  0
  -22.7430  -10.2860   20.2570 C   0  0  0  0  0  3  0  0  0  0  0  0
  -21.6330   -7.0160   21.4870 O   0  0  0  0  0  0  0  0  0  0  0  0
  -21.5570   -6.2890   22.6490 C   0  0  0  0  0  0  0  0  0  0  0  0
  -21.1110   -6.8640   23.8590 C   0  0  0  0  0  3  0  0  0  0  0  0
  -20.9800   -6.0640   25.0110 C   0  0  0  0  0  3  0  0  0  0  0  0
  -21.2870   -4.6910   24.9550 C   0  0  0  0  0  0  0  0  0  0  0  0
  -21.7270   -4.1160   23.7500 C   0  0  0  0  0  3  0  0  0  0  0  0
  -21.8580   -4.9140   22.5990 C   0  0  0  0  0  0  0  0  0  0  0  0
  -22.2620   -4.3500   21.4350 F   0  0  0  0  0  0  0  0  0  0  0  0
  -21.1550   -3.9200   26.0610 F   0  0  0  0  0  0  0  0  0  0  0  0
  -22.7710  -13.6390   21.1090 C   0  0  0  0  0  0  0  0  0  0  0  0
  -22.0300  -12.9590   21.9780 N   0  0  0  0  0  0  0  0  0  0  0  0
  -22.3450  -14.6600   20.5700 O   0  0  0  0  0  0  0  0  0  0  0  0
  -22.3880  -12.1330   22.4340 H   0  0  0  0  0  0  0  0  0  0  0  0
  -21.0930  -13.2700   22.1880 H   0  0  0  0  0  0  0  0  0  0  0  0
  -25.4130  -15.2890   20.3120 N   0  0  0  0  0  0  0  0  0  0  0  0
  -24.6530  -15.9520   20.4120 H   0  0  0  0  0  0  0  0  0  0  0  0
  -26.2790  -15.7200   20.0120 H   0  0  0  0  0  0  0  0  0  0  0  0
  -28.0110  -24.4540   19.7100 C   0  0  0  0  0  2  0  0  0  0  0  0
  -28.2890  -25.9890   20.1160 O   0  0  0  0  0  0  0  0  0  0  0  0
  -24.6770  -31.8110   23.1360 C   0  0  0  0  0  0  0  0  0  0  0  0
  -27.2780  -27.0580   20.0390 C   0  0  0  0  0  0  0  0  0  0  0  0
  -23.4960  -30.4330   21.4720 C   0  0  0  0  0  3  0  0  0  0  0  0
  -24.9590  -28.8760   20.0250 C   0  0  0  0  0  0  0  0  0  0  0  0
  -26.0590  -30.6780   21.3360 C   0  0  0  0  0  2  0  0  0  0  0  0
  -26.1390  -29.2880   20.6570 C   0  0  0  0  0  0  0  0  0  0  0  0
  -27.2940  -28.3970   20.6470 C   0  0  0  0  0  3  0  0  0  0  0  0
  -26.0730  -26.7890   19.3530 C   0  0  0  0  0  3  0  0  0  0  0  0
  -24.9460  -27.6430   19.3570 C   0  0  0  0  0  3  0  0  0  0  0  0
  -23.7310  -29.7770   20.0840 C   0  0  0  0  0  2  0  0  0  0  0  0
  -24.7650  -30.9990   22.0350 N   0  0  0  0  0  0  0  0  0  0  0  0
  -23.5840  -32.0840   23.6580 O   0  0  0  0  0  0  0  0  0  0  0  0
  -22.8100  -29.4120   22.4160 C   0  0  0  0  0  0  0  0  0  0  0  0
  -21.4780  -29.2640   22.3060 N   0  0  0  0  0  0  0  0  0  0  0  0
  -23.4820  -28.7560   23.2170 O   0  0  0  0  0  0  0  0  0  0  0  0
  -20.9900  -29.8460   21.6400 H   0  0  0  0  0  0  0  0  0  0  0  0
  -18.0860  -28.0990   22.8490 C   0  0  0  0  0  0  0  0  0  0  0  0
  -20.6560  -28.3150   23.0640 C   0  0  0  0  0  3  0  0  0  0  0  0
  -20.7180  -26.9000   22.4410 C   0  0  0  0  0  2  0  0  0  0  0  0
  -19.5890  -26.6290   21.4420 C   0  0  0  0  0  2  0  0  0  0  0  0
  -18.2250  -26.7720   22.1210 C   0  0  0  0  0  2  0  0  0  0  0  0
  -19.2280  -28.8300   23.2780 C   0  0  0  0  0  0  0  0  0  0  0  0
  -19.0400  -30.0720   23.9230 C   0  0  0  0  0  3  0  0  0  0  0  0
  -17.7480  -30.5830   24.1410 C   0  0  0  0  0  3  0  0  0  0  0  0
  -16.6230  -29.8500   23.7250 C   0  0  0  0  0  3  0  0  0  0  0  0
  -16.7930  -28.6090   23.0860 C   0  0  0  0  0  3  0  0  0  0  0  0
  -25.9430  -32.4470   23.7830 C   0  0  0  0  0  3  0  0  0  0  0  0
  -25.6140  -33.8360   24.1490 N   0  0  0  0  0  0  0  0  0  0  0  0
  -25.9210  -34.9160   23.4180 C   0  0  0  0  0  0  0  0  0  0  0  0
  -26.5790  -34.8490   22.3760 O   0  0  0  0  0  0  0  0  0  0  0  0
  -25.0310  -33.9630   24.9630 H   0  0  0  0  0  0  0  0  0  0  0  0
  -24.1570  -36.6920   23.1510 C   0  0  0  0  0  1  0  0  0  0  0  0
  -25.4230  -36.2860   23.9210 C   0  0  0  0  0  3  0  0  0  0  0  0
  -27.5630  -37.1880   24.7220 C   0  0  0  0  0  1  0  0  0  0  0  0
  -26.4350  -37.3600   23.8100 N   0  0  0  0  0  0  0  0  0  0  0  0
  -26.0170  -38.2690   23.9910 H   0  0  0  0  0  0  0  0  0  0  0  0
  -26.4570  -31.6590   25.0510 C   0  0  1  0  0  0  0  0  0  0  0  0
  -25.3600  -31.3990   26.1100 C   0  0  0  0  0  1  0  0  0  0  0  0
  -27.0510  -30.2920   24.6480 C   0  0  0  0  0  1  0  0  0  0  0  0
  -27.5990  -32.4510   25.7310 C   0  0  0  0  0  1  0  0  0  0  0  0
  1 22  1  0
  2  7  1  0
  3  4  1  0
  3  2  1  0
  5  4  1  0
  5 26  1  0
  5  6  1  0
  7  1  1  0
  7  6  1  0
  8  1  2  0
  9 15  1  0
  9 11  1  0
 10  9  2  0
 11 19  1  0
 12 10  1  0
 12 14  2  0
 13 11  2  0
 13 21  1  0
 14 13  1  0
 16 18  2  0
 16 10  1  0
 17 15  2  0
 18 22  1  0
 20 12  1  0
 22 17  1  0
 23 24  2  0
 24 43  1  0
 25 24  1  0
 25 28  1  0
 26 23  1  0
 26 27  1  0
 27 25  2  0
 28 29  1  0
 29 30  2  0
 31 34  1  0
 31 30  1  0
 32 31  2  0
 33 32  1  0
 33 28  2  0
 34 35  1  0
 35 36  1  0
 36 37  2  0
 38 37  1  0
 38 42  1  0
 39 38  2  0
 40 35  2  0
 40 39  1  0
 41 40  1  0
 43 44  1  0
 44 47  1  0
 44 46  1  0
 45 43  2  0
 48 49  1  0
 48 23  1  0
 50 48  1  0
 51 52  1  0
 51 14  1  0
 53 64  2  0
 54 52  1  0
 54 59  1  0
 55 63  1  0
 55 65  1  0
 56 62  1  0
 56 58  1  0
 57 63  1  0
 58 57  1  0
 59 58  2  0
 60 61  1  0
 60 54  2  0
 61 56  2  0
 62 55  1  0
 63 53  1  0
 65 67  2  0
 66 65  1  0
 68 66  1  0
 69 78  2  0
 69 74  1  0
 70 66  1  0
 70 74  1  0
 71 70  1  0
 72 73  1  0
 72 71  1  0
 73 69  1  0
 74 75  2  0
 75 76  1  0
 77 76  2  0
 78 77  1  0
 79 53  1  0
 79 80  1  0
 79 89  1  0
 80 83  1  0
 81 85  1  0
 81 80  1  0
 82 81  2  0
 85 84  1  0
 87 85  1  0
 87 88  1  0
 87 86  1  0
 89 92  1  1
 89 90  1  0
 91 89  1  0
M  ISO  4   1 100  22 100  51 101  52 101
M  END
>  <TORSDO>  (30) 
F 16

>  <SCORE>  (30) 
-16.475

>  <name>  (30) 
29

>  <ligand_id>  (30) 
29

>  <original_smiles>  (30) 
[H]c1c([H])c([H])c2c(c1[H])C([H])([H])C([H])([H])C([H])([H])C2([H])N([H])C(=O)C1([H])N(C(=O)C([H])(N([H])C(=O)C([H])(N([H])C([H])([H])[H])C([H])([H])[H])C(C([H])([H])[H])(C([H])([H])[H])C([H])([H])[H])C([H])([H])c2c([H])c(OC([H])([H])c3c(C([H])([H])[H])c(C([H])([H])[H])c4c(c3C([H])([H])[H])C([H])([H])C([H])([H])N(C(=O)N3C([H])([H])C([H])([H])C([H])([H])C([H])(n5nc(-c6c([H])c([H])c(Oc7c([H])c([H])c(F)c([H])c7F)c([H])c6[H])c(C(=O)N([H])[H])c5N([H])[H])C3([H])[H])C([H])([H])C4([H])[H])c([H])c([H])c2C1([H])[H]

>  <smiles>  (30) 
[H]c1c([H])c([H])c2c(c1[H])C([H])([H])C([H])([H])C([H])([H])C2([H])N([H])C(=O)C1([H])N(C(=O)C([H])(N([H])C(=O)C([H])(N([H])C([H])([H])[H])C([H])([H])[H])C(C([H])([H])[H])(C([H])([H])[H])C([H])([H])[H])C([H])([H])c2c([H])c(OC([H])([H])c3c(C([H])([H])[H])c(C([H])([H])[H])c4c(c3C([H])([H])[H])C([H])([H])C([H])([H])N(C(=O)N3C([H])([H])C([H])([H])C([H])([H])C([H])(n5nc(-c6c([H])c([H])c(Oc7c([H])c([H])c(F)c([H])c7F)c([H])c6[H])c(C(=O)N([H])[H])c5N([H])[H])C3([H])[H])C([H])([H])C4([H])[H])c([H])c([H])c2C1([H])[H]

$$$$
30:0:0
     RDKit          3D

105116  0  0  1  0  0  0  0  0999 V2000
  -34.9530  -27.3780    9.6730 C   0  0  0  0  0  0  0  0  0  0  0  0
  -35.7600  -28.5410    9.7290 C   0  0  0  0  0  0  0  0  0  0  0  0
  -32.9140  -28.7480   10.0990 C   0  0  0  0  0  0  0  0  0  0  0  0
  -33.5370  -27.4920    9.8590 C   0  0  0  0  0  0  0  0  0  0  0  0
  -35.1330  -29.7950    9.9220 C   0  0  0  0  0  0  0  0  0  0  0  0
  -33.7350  -29.9010   10.1000 C   0  0  0  0  0  0  0  0  0  0  0  0
  -35.6200  -26.0680    9.3740 C   0  0  0  0  0  0  0  0  0  0  0  0
  -37.1580  -26.0000    9.5090 C   0  0  0  0  0  2  0  0  0  0  0  0
  -37.3000  -28.4680    9.6310 C   0  0  0  0  0  3  0  0  0  0  0  0
  -37.9130  -28.6740   11.0370 C   0  0  0  0  0  1  0  0  0  0  0  0
  -37.8060  -27.2210    8.9540 N   0  0  1  0  0  4  0  0  0  0  0  0
  -35.0120  -25.0460    9.0450 O   0  0  0  0  0  0  0  0  0  0  0  0
  -32.7510  -26.3880    9.8220 F   0  0  0  0  0  0  0  0  0  0  0  0
  -35.8870  -30.9210    9.9540 F   0  0  0  0  0  0  0  0  0  0  0  0
  -33.1850  -31.1270   10.2770 F   0  0  0  0  0  0  0  0  0  0  0  0
  -37.4800  -27.2940    8.0020 H   0  0  0  0  0  0  0  0  0  0  0  0
  -31.5320  -28.8360   10.2930 O   0  0  0  0  0  0  0  0  0  0  0  0
  -30.8290  -22.9500   14.3170 C   0  0  0  0  0  0  0  0  0  0  0  0
  -30.8070  -27.6900   10.5810 C   0  0  0  0  0  0  0  0  0  0  0  0
  -29.4610  -23.0400   12.2590 C   0  0  0  0  0  3  0  0  0  0  0  0
  -29.3490  -25.3130   11.0980 C   0  0  0  0  0  0  0  0  0  0  0  0
  -30.1480  -25.1940   13.4630 C   0  0  0  0  0  2  0  0  0  0  0  0
  -30.1200  -25.8920   12.1150 C   0  0  0  0  0  0  0  0  0  0  0  0
  -30.8460  -27.0840   11.8630 C   0  0  0  0  0  3  0  0  0  0  0  0
  -30.0020  -27.1030    9.5820 C   0  0  0  0  0  3  0  0  0  0  0  0
  -29.2850  -25.9160    9.8310 C   0  0  0  0  0  3  0  0  0  0  0  0
  -28.6060  -24.0370   11.4330 C   0  0  0  0  0  2  0  0  0  0  0  0
  -30.1970  -23.7120   13.3800 N   0  0  0  0  0  0  0  0  0  0  0  0
  -30.7760  -21.7120   14.2810 O   0  0  0  0  0  0  0  0  0  0  0  0
  -30.3900  -22.2640   11.2970 C   0  0  0  0  0  0  0  0  0  0  0  0
  -30.1410  -20.9520   11.1490 N   0  0  0  0  0  0  0  0  0  0  0  0
  -31.2900  -22.8440   10.6840 O   0  0  0  0  0  0  0  0  0  0  0  0
  -29.3910  -20.5480   11.6930 H   0  0  0  0  0  0  0  0  0  0  0  0
  -30.2360  -17.5500    9.9340 C   0  0  0  0  0  0  0  0  0  0  0  0
  -30.8620  -20.0360   10.2660 C   0  0  0  0  0  3  0  0  0  0  0  0
  -30.4360  -20.2340    8.7930 C   0  0  0  0  0  2  0  0  0  0  0  0
  -29.3020  -19.2990    8.3610 C   0  0  0  0  0  2  0  0  0  0  0  0
  -29.7160  -17.8360    8.5340 C   0  0  0  0  0  2  0  0  0  0  0  0
  -30.7590  -18.5860   10.7520 C   0  0  0  0  0  0  0  0  0  0  0  0
  -31.1960  -18.2720   12.0570 C   0  0  0  0  0  3  0  0  0  0  0  0
  -31.1200  -16.9550   12.5460 C   0  0  0  0  0  3  0  0  0  0  0  0
  -30.6150  -15.9310   11.7270 C   0  0  0  0  0  3  0  0  0  0  0  0
  -30.1790  -16.2280   10.4230 C   0  0  0  0  0  3  0  0  0  0  0  0
  -31.6290  -23.5940   15.4910 C   0  0  0  0  0  3  0  0  0  0  0  0
  -32.6610  -22.6050   16.1580 C   0  0  1  0  0  0  0  0  0  0  0  0
  -33.0640  -23.0020   17.5970 C   0  0  0  0  0  1  0  0  0  0  0  0
  -32.0880  -21.1690   16.2090 C   0  0  0  0  0  1  0  0  0  0  0  0
  -33.9480  -22.5350   15.3020 C   0  0  0  0  0  1  0  0  0  0  0  0
  -30.6550  -24.0740   16.4820 N   0  0  0  0  0  0  0  0  0  0  0  0
  -29.5630  -23.3980   16.8640 C   0  0  0  0  0  0  0  0  0  0  0  0
  -29.2300  -22.3230   16.3590 O   0  0  0  0  0  0  0  0  0  0  0  0
  -30.8930  -24.9210   16.9770 H   0  0  0  0  0  0  0  0  0  0  0  0
  -28.2480  -25.4230   17.5680 C   0  0  0  0  0  1  0  0  0  0  0  0
  -28.7020  -24.0150   17.9850 C   0  0  0  0  0  3  0  0  0  0  0  0
  -29.7790  -22.7710   19.8060 C   0  0  0  0  0  1  0  0  0  0  0  0
  -29.3940  -24.0810   19.2890 N   0  0  0  0  0  0  0  0  0  0  0  0
  -28.8070  -24.5350   19.9840 H   0  0  0  0  0  0  0  0  0  0  0  0
  -39.3170  -27.1370    8.8960 C   0  0  0  0  0  2  0  0  0  0  0  0
  -39.9640  -25.9200    8.1280 C   0  0  0  0  0  2  0  0  0  0  0  0
  -41.6100  -22.9330    7.2510 C   0  0  0  0  0  0  0  0  0  0  0  0
  -41.7690  -23.4770    8.6750 C   0  0  0  0  0  2  0  0  0  0  0  0
  -40.3450  -23.3080    6.4710 C   0  0  0  0  0  2  0  0  0  0  0  0
  -39.4670  -21.4120    8.9320 C   0  0  0  0  0  2  0  0  0  0  0  0
  -39.8240  -22.4420   10.0030 C   0  0  0  0  0  2  0  0  0  0  0  0
  -38.6170  -22.0380    7.8170 C   0  0  0  0  0  2  0  0  0  0  0  0
  -40.4270  -23.7300    9.4070 C   0  0  0  0  0  3  0  0  0  0  0  0
  -39.3990  -24.4800    8.5040 C   0  0  0  0  0  3  0  0  0  0  0  0
  -39.0310  -23.4770    7.3150 C   0  0  1  0  0  0  0  0  0  0  0  0
  -42.4900  -22.2420    6.7340 O   0  0  0  0  0  0  0  0  0  0  0  0
  -37.9020  -23.9700    6.3190 C   0  0  0  0  0  0  0  0  0  0  0  0
  -36.6790  -23.8250    4.1600 C   0  0  0  0  0  2  0  0  0  0  0  0
  -35.1630  -23.6170    4.3060 C   0  0  0  0  0  2  0  0  0  0  0  0
  -34.8370  -22.1180    4.3840 C   0  0  0  0  0  2  0  0  0  0  0  0
  -35.7060  -21.3930    5.4400 C   0  0  0  0  0  3  0  0  0  0  0  0
  -37.2030  -21.7430    5.2980 C   0  0  0  0  0  2  0  0  0  0  0  0
  -37.3720  -23.2070    5.3110 N   0  0  0  0  0  0  0  0  0  0  0  0
  -37.6190  -25.1700    6.3710 O   0  0  0  0  0  0  0  0  0  0  0  0
  -35.6550  -19.0620    4.3550 C   0  0  0  0  0  0  0  0  0  0  0  0
  -35.4010  -17.8180    4.8650 C   0  0  0  0  0  0  0  0  0  0  0  0
  -35.0870  -18.0140    6.2450 C   0  0  0  0  0  0  0  0  0  0  0  0
  -35.4940  -19.9470    5.4090 N   0  0  0  0  0  0  0  0  0  0  0  0
  -35.0930  -19.3090    6.5390 N   0  0  0  0  0  0  0  0  0  0  0  0
  -34.8410  -17.0390    7.3160 C   0  0  0  0  0  0  0  0  0  0  0  0
  -33.5430  -16.8170    7.8290 C   0  0  0  0  0  3  0  0  0  0  0  0
  -33.3310  -15.8620    8.8460 C   0  0  0  0  0  3  0  0  0  0  0  0
  -34.4190  -15.1150    9.3580 C   0  0  0  0  0  0  0  0  0  0  0  0
  -35.7120  -15.3580    8.8600 C   0  0  0  0  0  3  0  0  0  0  0  0
  -35.9230  -16.3120    7.8510 C   0  0  0  0  0  3  0  0  0  0  0  0
  -34.3130  -14.1830   10.3620 O   0  0  0  0  0  0  0  0  0  0  0  0
  -34.7760  -14.4340   11.6280 C   0  0  0  0  0  0  0  0  0  0  0  0
  -34.4480  -15.6210   12.3200 C   0  0  0  0  0  3  0  0  0  0  0  0
  -34.8880  -15.8080   13.6460 C   0  0  0  0  0  3  0  0  0  0  0  0
  -35.6470  -14.8080   14.2830 C   0  0  0  0  0  0  0  0  0  0  0  0
  -35.9700  -13.6240   13.5980 C   0  0  0  0  0  3  0  0  0  0  0  0
  -35.5330  -13.4370   12.2750 C   0  0  0  0  0  0  0  0  0  0  0  0
  -35.8290  -12.2850   11.6260 F   0  0  0  0  0  0  0  0  0  0  0  0
  -36.0650  -14.9840   15.5600 F   0  0  0  0  0  0  0  0  0  0  0  0
  -35.5350  -16.5100    4.1400 C   0  0  0  0  0  0  0  0  0  0  0  0
  -34.4770  -16.0740    3.4660 N   0  0  0  0  0  0  0  0  0  0  0  0
  -36.5970  -15.8910    4.1290 O   0  0  0  0  0  0  0  0  0  0  0  0
  -33.6110  -16.5910    3.4620 H   0  0  0  0  0  0  0  0  0  0  0  0
  -34.5340  -15.2090    2.9460 H   0  0  0  0  0  0  0  0  0  0  0  0
  -36.0320  -19.5150    3.0940 N   0  0  0  0  0  0  0  0  0  0  0  0
  -36.2280  -18.8820    2.3260 H   0  0  0  0  0  0  0  0  0  0  0  0
  -36.2610  -20.4770    2.8820 H   0  0  0  0  0  0  0  0  0  0  0  0
  1  2  2  0
  1  4  1  0
  2  5  1  0
  3  6  1  0
  3 17  1  0
  4  3  2  0
  5 14  1  0
  5  6  2  0
  6 15  1  0
  7  8  1  0
  7  1  1  0
  9  2  1  0
  9 10  1  0
 11  8  1  0
 11  9  1  0
 12  7  2  0
 13  4  1  0
 11 16  1  6
 17 19  1  0
 19 24  1  0
 20 30  1  0
 20 28  1  0
 21 27  1  0
 21 23  1  0
 23 22  1  0
 24 23  2  0
 25 26  1  0
 25 19  2  0
 26 21  2  0
 27 20  1  0
 28 22  1  0
 28 18  1  0
 29 18  2  0
 31 30  1  0
 31 33  1  0
 32 30  2  0
 34 43  2  0
 34 39  1  0
 35 39  1  0
 35 31  1  0
 36 35  1  0
 37 38  1  0
 37 36  1  0
 38 34  1  0
 39 40  2  0
 40 41  1  0
 42 41  2  0
 43 42  1  0
 44 18  1  0
 44 45  1  0
 44 49  1  0
 45 47  1  1
 45 46  1  0
 48 45  1  0
 49 50  1  0
 49 52  1  0
 50 54  1  0
 51 50  2  0
 54 53  1  0
 54 56  1  0
 56 55  1  0
 56 57  1  0
 58 11  1  0
 59 58  1  0
 60 61  1  0
 62 60  1  0
 62 68  1  0
 63 64  1  0
 65 63  1  0
 66 61  1  0
 66 64  1  0
 67 59  1  0
 67 66  1  0
 68 70  1  6
 68 65  1  0
 68 67  1  0
 69 60  2  0
 70 77  2  0
 71 72  1  0
 71 76  1  0
 72 73  1  0
 74 73  1  0
 75 76  1  0
 75 74  1  0
 76 70  1  0
 78 79  2  0
 78 81  1  0
 79 80  1  0
 80 82  2  0
 80 83  1  0
 81 74  1  0
 81 82  1  0
 83 84  2  0
 83 88  1  0
 84 85  1  0
 85 86  2  0
 86 89  1  0
 87 86  1  0
 88 87  2  0
 89 90  1  0
 90 95  2  0
 90 91  1  0
 91 92  2  0
 92 93  1  0
 93 97  1  0
 94 93  2  0
 95 94  1  0
 96 95  1  0
 98 79  1  0
 99 98  1  0
100 98  2  0
101 99  1  0
102 99  1  0
103 78  1  0
104103  1  0
105103  1  0
M  ISO  4   3 101  17 101  68 100  70 100
M  END
>  <TORSDO>  (31) 
F 19

>  <SCORE>  (31) 
-2.227

>  <name>  (31) 
30

>  <ligand_id>  (31) 
30

>  <original_smiles>  (31) 
[H]c1c([H])c([H])c2c(c1[H])C([H])([H])C([H])([H])C([H])([H])C2([H])N([H])C(=O)C1([H])N(C(=O)C([H])(N([H])C(=O)C([H])(N([H])C([H])([H])[H])C([H])([H])[H])C(C([H])([H])[H])(C([H])([H])[H])C([H])([H])[H])C([H])([H])c2c([H])c(Oc3c(F)c(F)c4c(c3F)C(=O)C([H])([H])[N+]([H])(C([H])([H])C([H])([H])C3([H])C5([H])C([H])([H])C(=O)C([H])([H])C3(C(=O)N3C([H])([H])C([H])([H])C([H])([H])C([H])(n6nc(-c7c([H])c([H])c(Oc8c([H])c([H])c(F)c([H])c8F)c([H])c7[H])c(C(=O)N([H])[H])c6N([H])[H])C3([H])[H])C([H])([H])C([H])([H])C5([H])[H])C4([H])C([H])([H])[H])c([H])c([H])c2C1([H])[H]

>  <smiles>  (31) 
[H]c1c([H])c([H])c2c(c1[H])C([H])([H])C([H])([H])C([H])([H])C2([H])N([H])C(=O)C1([H])N(C(=O)C([H])(N([H])C(=O)C([H])(N([H])C([H])([H])[H])C([H])([H])[H])C(C([H])([H])[H])(C([H])([H])[H])C([H])([H])[H])C([H])([H])c2c([H])c(Oc3c(F)c(F)c4c(c3F)C(=O)C([H])([H])[N+]([H])(C([H])([H])C([H])([H])C3([H])C5([H])C([H])([H])C(=O)C([H])([H])C3(C(=O)N3C([H])([H])C([H])([H])C([H])([H])C([H])(n6nc(-c7c([H])c([H])c(Oc8c([H])c([H])c(F)c([H])c8F)c([H])c7[H])c(C(=O)N([H])[H])c6N([H])[H])C3([H])[H])C([H])([H])C([H])([H])C5([H])[H])C4([H])C([H])([H])[H])c([H])c([H])c2C1([H])[H]

$$$$
31:0:0
     RDKit          3D

 95104  0  0  1  0  0  0  0  0999 V2000
  -27.7740  -19.6830   20.1190 C   0  0  0  0  0  0  0  0  0  0  0  0
  -29.9200  -20.6270   19.4940 C   0  0  0  0  0  2  0  0  0  0  0  0
  -27.9730  -20.8770   20.9960 C   0  0  0  0  0  3  0  0  0  0  0  0
  -29.3000  -21.4680   20.5970 C   0  0  0  0  0  3  0  0  0  0  0  0
  -28.0250  -22.2620   20.3820 C   0  0  0  0  0  3  0  0  0  0  0  0
  -29.0060  -19.3910   19.2420 C   0  0  2  0  0  0  0  0  0  0  0  0
  -28.5810  -19.3340   17.7580 C   0  0  0  0  0  1  0  0  0  0  0  0
  -26.7380  -19.0130   20.0850 O   0  0  0  0  0  0  0  0  0  0  0  0
  -27.7440  -23.3380   21.3640 N   0  0  0  0  0  4  0  0  0  0  0  0
  -27.7420  -22.9320   22.2880 H   0  0  0  0  0  0  0  0  0  0  0  0
  -26.8050  -23.6770   21.2090 H   0  0  0  0  0  0  0  0  0  0  0  0
  -28.6820  -24.4940   21.3770 C   0  0  0  0  0  2  0  0  0  0  0  0
  -28.7740  -25.2720   20.0460 C   0  0  0  0  0  2  0  0  0  0  0  0
  -28.7160  -26.6900   20.2700 O   0  0  0  0  0  0  0  0  0  0  0  0
  -24.7170  -31.7200   23.3310 C   0  0  0  0  0  0  0  0  0  0  0  0
  -27.5040  -27.3560   20.2500 C   0  0  0  0  0  0  0  0  0  0  0  0
  -23.5870  -30.3650   21.5970 C   0  0  0  0  0  3  0  0  0  0  0  0
  -25.1050  -28.8600   20.2060 C   0  0  0  0  0  0  0  0  0  0  0  0
  -26.1180  -30.7230   21.5260 C   0  0  0  0  0  2  0  0  0  0  0  0
  -26.2330  -29.3680   20.8580 C   0  0  0  0  0  0  0  0  0  0  0  0
  -27.4320  -28.6240   20.8760 C   0  0  0  0  0  3  0  0  0  0  0  0
  -26.3470  -26.8580   19.6030 C   0  0  0  0  0  3  0  0  0  0  0  0
  -25.1550  -27.6060   19.5780 C   0  0  0  0  0  3  0  0  0  0  0  0
  -23.8640  -29.7200   20.2130 C   0  0  0  0  0  2  0  0  0  0  0  0
  -24.8240  -30.9470   22.2130 N   0  0  0  0  0  0  0  0  0  0  0  0
  -23.6110  -31.9740   23.8290 O   0  0  0  0  0  0  0  0  0  0  0  0
  -22.8940  -29.3180   22.4970 C   0  0  0  0  0  0  0  0  0  0  0  0
  -21.5730  -29.1540   22.3180 N   0  0  0  0  0  0  0  0  0  0  0  0
  -23.5440  -28.6560   23.3110 O   0  0  0  0  0  0  0  0  0  0  0  0
  -21.1120  -29.7360   21.6330 H   0  0  0  0  0  0  0  0  0  0  0  0
  -18.1650  -28.0230   22.7010 C   0  0  0  0  0  0  0  0  0  0  0  0
  -20.7220  -28.1960   23.0250 C   0  0  0  0  0  3  0  0  0  0  0  0
  -20.8000  -26.7980   22.3690 C   0  0  0  0  0  2  0  0  0  0  0  0
  -19.7060  -26.5660   21.3220 C   0  0  0  0  0  2  0  0  0  0  0  0
  -18.3200  -26.7070   21.9550 C   0  0  0  0  0  2  0  0  0  0  0  0
  -19.2950  -28.7300   23.1900 C   0  0  0  0  0  0  0  0  0  0  0  0
  -19.0990  -29.9670   23.8390 C   0  0  0  0  0  3  0  0  0  0  0  0
  -17.8060  -30.4960   24.0080 C   0  0  0  0  0  3  0  0  0  0  0  0
  -16.6890  -29.7820   23.5400 C   0  0  0  0  0  3  0  0  0  0  0  0
  -16.8700  -28.5480   22.8910 C   0  0  0  0  0  3  0  0  0  0  0  0
  -25.9750  -32.3330   24.0230 C   0  0  0  0  0  3  0  0  0  0  0  0
  -25.6550  -33.7260   24.3670 N   0  0  0  0  0  0  0  0  0  0  0  0
  -26.0240  -34.7890   23.6410 C   0  0  0  0  0  0  0  0  0  0  0  0
  -26.7400  -34.7000   22.6390 O   0  0  0  0  0  0  0  0  0  0  0  0
  -25.0280  -33.8690   25.1450 H   0  0  0  0  0  0  0  0  0  0  0  0
  -24.3280  -36.5980   23.2300 C   0  0  0  0  0  1  0  0  0  0  0  0
  -25.5210  -36.1690   24.1010 C   0  0  0  0  0  3  0  0  0  0  0  0
  -27.6000  -37.0340   25.0790 C   0  0  0  0  0  1  0  0  0  0  0  0
  -26.5630  -37.2190   24.0680 N   0  0  0  0  0  0  0  0  0  0  0  0
  -26.1500  -38.1380   24.2030 H   0  0  0  0  0  0  0  0  0  0  0  0
  -26.4310  -31.5310   25.3010 C   0  0  1  0  0  0  0  0  0  0  0  0
  -25.2900  -31.2640   26.3090 C   0  0  0  0  0  1  0  0  0  0  0  0
  -27.0360  -30.1640   24.9030 C   0  0  0  0  0  1  0  0  0  0  0  0
  -27.5480  -32.3070   26.0390 C   0  0  0  0  0  1  0  0  0  0  0  0
  -29.7020  -18.0410   19.6110 C   0  0  0  0  0  2  0  0  0  0  0  0
  -30.1490  -17.8380   21.0780 C   0  0  0  0  0  2  0  0  0  0  0  0
  -31.1180  -16.6470   21.2960 C   0  0  0  0  0  2  0  0  0  0  0  0
  -31.0910  -14.4100   20.1480 C   0  0  0  0  0  0  0  0  0  0  0  0
  -30.6670  -12.3130   18.9170 C   0  0  0  0  0  2  0  0  0  0  0  0
  -29.6520  -12.5640   17.7850 C   0  0  0  0  0  2  0  0  0  0  0  0
  -28.2080  -12.4340   18.3050 C   0  0  0  0  0  2  0  0  0  0  0  0
  -27.9660  -13.2460   19.6050 C   0  0  0  0  0  3  0  0  0  0  0  0
  -29.0800  -12.9660   20.6380 C   0  0  0  0  0  2  0  0  0  0  0  0
  -30.3760  -13.2630   20.0030 N   0  0  0  0  0  0  0  0  0  0  0  0
  -32.1420  -14.6250   19.5360 O   0  0  0  0  0  0  0  0  0  0  0  0
  -30.5450  -15.3360   20.9570 N   0  0  0  0  0  0  0  0  0  0  0  0
  -29.6810  -15.0830   21.4120 H   0  0  0  0  0  0  0  0  0  0  0  0
  -25.6430  -13.8940   20.5090 C   0  0  0  0  0  0  0  0  0  0  0  0
  -24.5760  -13.1370   20.9110 C   0  0  0  0  0  0  0  0  0  0  0  0
  -24.9860  -11.7760   20.7850 C   0  0  0  0  0  0  0  0  0  0  0  0
  -26.6390  -12.9920   20.1610 N   0  0  0  0  0  0  0  0  0  0  0  0
  -26.2490  -11.7110   20.3830 N   0  0  0  0  0  0  0  0  0  0  0  0
  -24.2340  -10.5270   20.9700 C   0  0  0  0  0  0  0  0  0  0  0  0
  -24.6530   -9.5380   21.8870 C   0  0  0  0  0  3  0  0  0  0  0  0
  -23.9020   -8.3540   22.0550 C   0  0  0  0  0  3  0  0  0  0  0  0
  -22.7200   -8.1510   21.3070 C   0  0  0  0  0  0  0  0  0  0  0  0
  -22.3180   -9.1290   20.3800 C   0  0  0  0  0  3  0  0  0  0  0  0
  -23.0690  -10.3050   20.2100 C   0  0  0  0  0  3  0  0  0  0  0  0
  -21.9400   -7.0220   21.3870 O   0  0  0  0  0  0  0  0  0  0  0  0
  -21.8370   -6.3010   22.5490 C   0  0  0  0  0  0  0  0  0  0  0  0
  -21.3090   -6.8640   23.7300 C   0  0  0  0  0  3  0  0  0  0  0  0
  -21.1560   -6.0660   24.8820 C   0  0  0  0  0  3  0  0  0  0  0  0
  -21.5200   -4.7060   24.8520 C   0  0  0  0  0  0  0  0  0  0  0  0
  -22.0380   -4.1430   23.6730 C   0  0  0  0  0  3  0  0  0  0  0  0
  -22.1950   -4.9370   22.5240 C   0  0  0  0  0  0  0  0  0  0  0  0
  -22.6770   -4.3850   21.3860 F   0  0  0  0  0  0  0  0  0  0  0  0
  -21.3650   -3.9380   25.9560 F   0  0  0  0  0  0  0  0  0  0  0  0
  -23.2180  -13.6460   21.3030 C   0  0  0  0  0  0  0  0  0  0  0  0
  -22.5310  -12.9310   22.1870 N   0  0  0  0  0  0  0  0  0  0  0  0
  -22.7800  -14.7080   20.8660 O   0  0  0  0  0  0  0  0  0  0  0  0
  -22.8950  -12.0710   22.5670 H   0  0  0  0  0  0  0  0  0  0  0  0
  -21.6250  -13.2560   22.4950 H   0  0  0  0  0  0  0  0  0  0  0  0
  -25.8450  -15.2650   20.3900 N   0  0  0  0  0  0  0  0  0  0  0  0
  -25.1060  -15.9360   20.5700 H   0  0  0  0  0  0  0  0  0  0  0  0
  -26.6900  -15.7020   20.0450 H   0  0  0  0  0  0  0  0  0  0  0  0
  3  1  1  0
  4  2  1  0
  4  3  1  0
  5  4  1  0
  5  3  1  0
  5  9  1  0
  6  7  1  6
  6  2  1  0
  6 55  1  0
  6  1  1  0
  8  1  2  0
  9 12  1  0
  9 10  1  0
 11  9  1  0
 13 14  1  0
 13 12  1  0
 15 26  2  0
 16 14  1  0
 16 21  1  0
 17 25  1  0
 17 27  1  0
 18 24  1  0
 18 20  1  0
 19 25  1  0
 20 21  2  0
 20 19  1  0
 22 16  2  0
 23 22  1  0
 23 18  2  0
 24 17  1  0
 25 15  1  0
 27 29  2  0
 28 27  1  0
 30 28  1  0
 31 40  2  0
 31 36  1  0
 32 28  1  0
 32 36  1  0
 33 32  1  0
 34 35  1  0
 34 33  1  0
 35 31  1  0
 36 37  2  0
 37 38  1  0
 39 38  2  0
 40 39  1  0
 41 15  1  0
 41 42  1  0
 41 51  1  0
 42 45  1  0
 43 47  1  0
 43 42  1  0
 44 43  2  0
 47 46  1  0
 49 47  1  0
 49 50  1  0
 49 48  1  0
 51 54  1  1
 51 52  1  0
 53 51  1  0
 55 56  1  0
 56 57  1  0
 58 66  1  0
 59 64  1  0
 60 61  1  0
 60 59  1  0
 62 61  1  0
 62 71  1  0
 62 63  1  0
 64 58  1  0
 64 63  1  0
 65 58  2  0
 66 57  1  0
 66 67  1  0
 68 69  2  0
 69 88  1  0
 70 69  1  0
 70 73  1  0
 71 72  1  0
 71 68  1  0
 72 70  2  0
 73 74  1  0
 74 75  2  0
 76 79  1  0
 76 75  1  0
 77 76  2  0
 78 77  1  0
 78 73  2  0
 79 80  1  0
 80 81  1  0
 81 82  2  0
 83 82  1  0
 83 87  1  0
 84 83  2  0
 85 80  2  0
 85 84  1  0
 86 85  1  0
 88 89  1  0
 89 92  1  0
 89 91  1  0
 90 88  2  0
 93 68  1  0
 93 94  1  0
 95 93  1  0
M  ISO  4  13 101  14 101  58 100  66 100
M  END
>  <TORSDO>  (32) 
F 22

>  <SCORE>  (32) 
-12.393

>  <name>  (32) 
31

>  <ligand_id>  (32) 
31

>  <original_smiles>  (32) 
[H]c1c([H])c([H])c2c(c1[H])C([H])([H])C([H])([H])C([H])([H])C2([H])N([H])C(=O)C1([H])N(C(=O)C([H])(N([H])C(=O)C([H])(N([H])C([H])([H])[H])C([H])([H])[H])C(C([H])([H])[H])(C([H])([H])[H])C([H])([H])[H])C([H])([H])c2c([H])c(OC([H])([H])C([H])([H])[N+]([H])([H])C3([H])C4([H])C(=O)C(C([H])([H])[H])(C([H])([H])C([H])([H])C([H])([H])N([H])C(=O)N5C([H])([H])C([H])([H])C([H])([H])C([H])(n6nc(-c7c([H])c([H])c(Oc8c([H])c([H])c(F)c([H])c8F)c([H])c7[H])c(C(=O)N([H])[H])c6N([H])[H])C5([H])[H])C([H])([H])C43[H])c([H])c([H])c2C1([H])[H]

>  <smiles>  (32) 
[H]c1c([H])c([H])c2c(c1[H])C([H])([H])C([H])([H])C([H])([H])C2([H])N([H])C(=O)C1([H])N(C(=O)C([H])(N([H])C(=O)C([H])(N([H])C([H])([H])[H])C([H])([H])[H])C(C([H])([H])[H])(C([H])([H])[H])C([H])([H])[H])C([H])([H])c2c([H])c(OC([H])([H])C([H])([H])[N+]([H])([H])C3([H])C4([H])C(=O)C(C([H])([H])[H])(C([H])([H])C([H])([H])C([H])([H])N([H])C(=O)N5C([H])([H])C([H])([H])C([H])([H])C([H])(n6nc(-c7c([H])c([H])c(Oc8c([H])c([H])c(F)c([H])c8F)c([H])c7[H])c(C(=O)N([H])[H])c6N([H])[H])C5([H])[H])C([H])([H])C43[H])c([H])c([H])c2C1([H])[H]

$$$$
32:0:0
     RDKit          3D

100109  0  0  1  0  0  0  0  0999 V2000
  -27.9900  -18.8670   17.3100 C   0  0  0  0  0  3  0  0  0  0  0  0
  -28.7330  -20.0460   17.2920 C   0  0  0  0  0  3  0  0  0  0  0  0
  -28.1570  -17.9350   18.3500 C   0  0  0  0  0  0  0  0  0  0  0  0
  -29.5460  -20.3800   18.3830 C   0  0  0  0  0  0  0  0  0  0  0  0
  -29.0610  -18.1960   19.4340 C   0  0  0  0  0  0  0  0  0  0  0  0
  -29.6120  -19.5240   19.5220 C   0  0  0  0  0  0  0  0  0  0  0  0
  -27.3070  -16.6830   18.2150 C   0  0  0  0  0  1  0  0  0  0  0  0
  -30.3500  -21.6630   18.2490 C   0  0  0  0  0  1  0  0  0  0  0  0
  -29.4910  -17.0450   20.4060 C   0  0  0  0  0  2  0  0  0  0  0  0
  -32.5760  -17.9180   19.2320 C   0  0  0  0  0  0  0  0  0  0  0  0
  -31.8760  -17.4500   17.9830 C   0  0  0  0  0  2  0  0  0  0  0  0
  -32.0250  -17.2540   20.4800 C   0  0  0  0  0  2  0  0  0  0  0  0
  -31.0710  -16.2420   18.4760 C   0  0  0  0  0  2  0  0  0  0  0  0
  -30.8440  -16.3120   20.0290 C   0  0  2  0  0  0  0  0  0  0  0  0
  -33.5050  -18.7270   19.2320 O   0  0  0  0  0  0  0  0  0  0  0  0
  -31.1440  -14.8560   20.5940 C   0  0  0  0  0  0  0  0  0  0  0  0
  -30.7270  -12.6800   19.5770 C   0  0  0  0  0  2  0  0  0  0  0  0
  -29.8560  -12.8320   18.3230 C   0  0  0  0  0  2  0  0  0  0  0  0
  -28.3810  -12.6660   18.7090 C   0  0  0  0  0  2  0  0  0  0  0  0
  -27.9660  -13.5700   19.8960 C   0  0  0  0  0  3  0  0  0  0  0  0
  -28.9930  -13.5400   21.0520 C   0  0  0  0  0  2  0  0  0  0  0  0
  -30.3300  -13.7640   20.4900 N   0  0  0  0  0  0  0  0  0  0  0  0
  -32.3480  -14.6530   20.6850 O   0  0  0  0  0  0  0  0  0  0  0  0
  -25.5600  -14.1850   20.5490 C   0  0  0  0  0  0  0  0  0  0  0  0
  -24.4620  -13.4150   20.8240 C   0  0  0  0  0  0  0  0  0  0  0  0
  -24.9190  -12.0640   20.8090 C   0  0  0  0  0  0  0  0  0  0  0  0
  -26.6050  -13.2980   20.3460 N   0  0  0  0  0  0  0  0  0  0  0  0
  -26.2260  -12.0170   20.5780 N   0  0  0  0  0  0  0  0  0  0  0  0
  -24.1770  -10.8070   20.9530 C   0  0  0  0  0  0  0  0  0  0  0  0
  -24.5400   -9.8440   21.9210 C   0  0  0  0  0  3  0  0  0  0  0  0
  -23.8010   -8.6490   22.0560 C   0  0  0  0  0  3  0  0  0  0  0  0
  -22.6880   -8.4090   21.2170 C   0  0  0  0  0  0  0  0  0  0  0  0
  -22.3440   -9.3580   20.2400 C   0  0  0  0  0  3  0  0  0  0  0  0
  -23.0820  -10.5460   20.1050 C   0  0  0  0  0  3  0  0  0  0  0  0
  -21.9300   -7.2620   21.2530 O   0  0  0  0  0  0  0  0  0  0  0  0
  -21.7590   -6.5510   22.4110 C   0  0  0  0  0  0  0  0  0  0  0  0
  -21.2110   -7.1410   23.5720 C   0  0  0  0  0  3  0  0  0  0  0  0
  -20.9930   -6.3610   24.7240 C   0  0  0  0  0  3  0  0  0  0  0  0
  -21.3030   -4.9870   24.7120 C   0  0  0  0  0  0  0  0  0  0  0  0
  -21.8410   -4.3940   23.5550 C   0  0  0  0  0  3  0  0  0  0  0  0
  -22.0700   -5.1750   22.4090 C   0  0  0  0  0  0  0  0  0  0  0  0
  -22.5720   -4.6000   21.2900 F   0  0  0  0  0  0  0  0  0  0  0  0
  -21.0830   -4.2340   25.8140 F   0  0  0  0  0  0  0  0  0  0  0  0
  -23.0530  -13.9020   21.0030 C   0  0  0  0  0  0  0  0  0  0  0  0
  -22.2760  -13.2270   21.8430 N   0  0  0  0  0  0  0  0  0  0  0  0
  -22.6490  -14.9160   20.4360 O   0  0  0  0  0  0  0  0  0  0  0  0
  -22.6180  -12.4060   22.3210 H   0  0  0  0  0  0  0  0  0  0  0  0
  -21.3230  -13.5260   21.9990 H   0  0  0  0  0  0  0  0  0  0  0  0
  -25.7440  -15.5530   20.4350 N   0  0  0  0  0  0  0  0  0  0  0  0
  -25.0040  -16.2140   20.6520 H   0  0  0  0  0  0  0  0  0  0  0  0
  -26.6470  -15.9950   20.3440 H   0  0  0  0  0  0  0  0  0  0  0  0
  -30.2370  -20.0800   20.8160 C   0  0  0  0  0  2  0  0  0  0  0  0
  -29.3650  -21.1620   21.5080 C   0  0  0  0  0  2  0  0  0  0  0  0
  -29.9840  -22.5660   21.5600 C   0  0  0  0  0  0  0  0  0  0  0  0
  -29.1480  -23.5800   21.3230 N   0  0  0  0  0  0  0  0  0  0  0  0
  -31.1870  -22.7330   21.7740 O   0  0  0  0  0  0  0  0  0  0  0  0
  -28.1630  -23.3590   21.2430 H   0  0  0  0  0  0  0  0  0  0  0  0
  -29.5270  -24.9550   21.0160 C   0  0  0  0  0  2  0  0  0  0  0  0
  -28.4030  -25.5870   20.1850 C   0  0  0  0  0  2  0  0  0  0  0  0
  -28.5870  -26.9940   19.9670 O   0  0  0  0  0  0  0  0  0  0  0  0
  -24.6030  -31.8290   23.2810 C   0  0  0  0  0  0  0  0  0  0  0  0
  -27.4120  -27.7140   19.9340 C   0  0  0  0  0  0  0  0  0  0  0  0
  -23.4510  -30.4780   21.5560 C   0  0  0  0  0  3  0  0  0  0  0  0
  -24.9640  -29.1140   20.0250 C   0  0  0  0  0  0  0  0  0  0  0  0
  -25.9530  -30.9720   21.3690 C   0  0  0  0  0  2  0  0  0  0  0  0
  -26.0980  -29.6510   20.6450 C   0  0  0  0  0  0  0  0  0  0  0  0
  -27.3270  -28.9540   20.6040 C   0  0  0  0  0  3  0  0  0  0  0  0
  -26.2640  -27.2090   19.2800 C   0  0  0  0  0  3  0  0  0  0  0  0
  -25.0400  -27.8920   19.3370 C   0  0  0  0  0  3  0  0  0  0  0  0
  -23.6810  -29.9010   20.1340 C   0  0  0  0  0  2  0  0  0  0  0  0
  -24.6880  -31.1040   22.1290 N   0  0  0  0  0  0  0  0  0  0  0  0
  -23.5140  -32.0120   23.8440 O   0  0  0  0  0  0  0  0  0  0  0  0
  -22.8610  -29.3640   22.4520 C   0  0  0  0  0  0  0  0  0  0  0  0
  -21.5510  -29.1060   22.2990 N   0  0  0  0  0  0  0  0  0  0  0  0
  -23.5760  -28.7400   23.2400 O   0  0  0  0  0  0  0  0  0  0  0  0
  -21.0300  -29.6670   21.6400 H   0  0  0  0  0  0  0  0  0  0  0  0
  -18.2730  -27.6360   22.6520 C   0  0  0  0  0  0  0  0  0  0  0  0
  -20.7920  -28.0800   23.0140 C   0  0  0  0  0  3  0  0  0  0  0  0
  -21.0260  -26.6830   22.3930 C   0  0  0  0  0  2  0  0  0  0  0  0
  -19.9840  -26.3120   21.3330 C   0  0  0  0  0  2  0  0  0  0  0  0
  -18.5760  -26.3300   21.9360 C   0  0  0  0  0  2  0  0  0  0  0  0
  -19.3150  -28.4640   23.1450 C   0  0  0  0  0  0  0  0  0  0  0  0
  -18.9830  -29.6830   23.7730 C   0  0  0  0  0  3  0  0  0  0  0  0
  -17.6410  -30.0770   23.9160 C   0  0  0  0  0  3  0  0  0  0  0  0
  -16.6110  -29.2460   23.4390 C   0  0  0  0  0  3  0  0  0  0  0  0
  -16.9270  -28.0270   22.8130 C   0  0  0  0  0  3  0  0  0  0  0  0
  -25.8650  -32.4820   23.9290 C   0  0  0  0  0  3  0  0  0  0  0  0
  -25.5310  -33.8800   24.2320 N   0  0  0  0  0  0  0  0  0  0  0  0
  -25.8810  -34.9260   23.4720 C   0  0  0  0  0  0  0  0  0  0  0  0
  -26.5890  -34.8170   22.4660 O   0  0  0  0  0  0  0  0  0  0  0  0
  -24.9100  -34.0390   25.0110 H   0  0  0  0  0  0  0  0  0  0  0  0
  -24.1420  -36.6920   23.0370 C   0  0  0  0  0  1  0  0  0  0  0  0
  -25.3610  -36.3150   23.8930 C   0  0  0  0  0  3  0  0  0  0  0  0
  -27.4610  -37.2370   24.7730 C   0  0  0  0  0  1  0  0  0  0  0  0
  -26.3840  -37.3780   23.7960 N   0  0  0  0  0  0  0  0  0  0  0  0
  -25.9630  -38.2940   23.9200 H   0  0  0  0  0  0  0  0  0  0  0  0
  -26.3610  -31.7310   25.2240 C   0  0  1  0  0  0  0  0  0  0  0  0
  -25.2450  -31.4910   26.2670 C   0  0  0  0  0  1  0  0  0  0  0  0
  -26.9730  -30.3570   24.8630 C   0  0  0  0  0  1  0  0  0  0  0  0
  -27.4810  -32.5470   25.9080 C   0  0  0  0  0  1  0  0  0  0  0  0
  1  3  1  0
  2  1  2  0
  2  4  1  0
  3  5  2  0
  4  6  2  0
  5  6  1  0
  5  9  1  0
  6 52  1  0
  7  3  1  0
  8  4  1  0
 10 15  2  0
 10 12  1  0
 11 13  1  0
 11 10  1  0
 13 14  1  0
 14  9  1  6
 14 12  1  0
 14 16  1  0
 16 23  2  0
 17 22  1  0
 18 19  1  0
 18 17  1  0
 20 19  1  0
 20 27  1  0
 20 21  1  0
 22 16  1  0
 22 21  1  0
 24 25  2  0
 25 44  1  0
 26 25  1  0
 26 29  1  0
 27 24  1  0
 27 28  1  0
 28 26  2  0
 29 30  1  0
 30 31  2  0
 32 35  1  0
 32 31  1  0
 33 32  2  0
 34 33  1  0
 34 29  2  0
 35 36  1  0
 36 37  1  0
 37 38  2  0
 39 38  1  0
 39 43  1  0
 40 39  2  0
 41 36  2  0
 41 40  1  0
 42 41  1  0
 44 45  1  0
 45 48  1  0
 45 47  1  0
 46 44  2  0
 49 24  1  0
 49 50  1  0
 51 49  1  0
 52 53  1  0
 53 54  1  0
 54 56  2  0
 55 54  1  0
 57 55  1  0
 58 55  1  0
 59 58  1  0
 60 59  1  0
 61 72  2  0
 62 60  1  0
 62 67  1  0
 63 71  1  0
 63 73  1  0
 64 70  1  0
 64 66  1  0
 65 71  1  0
 66 65  1  0
 67 66  2  0
 68 69  1  0
 68 62  2  0
 69 64  2  0
 70 63  1  0
 71 61  1  0
 73 75  2  0
 74 73  1  0
 76 74  1  0
 77 86  2  0
 77 82  1  0
 78 74  1  0
 78 82  1  0
 79 78  1  0
 80 81  1  0
 80 79  1  0
 81 77  1  0
 82 83  2  0
 83 84  1  0
 85 84  2  0
 86 85  1  0
 87 61  1  0
 87 88  1  0
 87 97  1  0
 88 91  1  0
 89 93  1  0
 89 88  1  0
 90 89  2  0
 93 92  1  0
 95 93  1  0
 95 96  1  0
 95 94  1  0
 97100  1  1
 97 98  1  0
 99 97  1  0
M  ISO  4  14 100  16 100  59 101  60 101
M  END
>  <TORSDO>  (33) 
F 23

>  <SCORE>  (33) 
-12.112

>  <name>  (33) 
32

>  <ligand_id>  (33) 
32

>  <original_smiles>  (33) 
[H]c1c([H])c([H])c2c(c1[H])C([H])([H])C([H])([H])C([H])([H])C2([H])N([H])C(=O)C1([H])N(C(=O)C([H])(N([H])C(=O)C([H])(N([H])C([H])([H])[H])C([H])([H])[H])C(C([H])([H])[H])(C([H])([H])[H])C([H])([H])[H])C([H])([H])c2c([H])c(OC([H])([H])C([H])([H])N([H])C(=O)C([H])([H])C([H])([H])c3c(C([H])([H])[H])c([H])c([H])c(C([H])([H])[H])c3C([H])([H])C3(C(=O)N4C([H])([H])C([H])([H])C([H])([H])C([H])(n5nc(-c6c([H])c([H])c(Oc7c([H])c([H])c(F)c([H])c7F)c([H])c6[H])c(C(=O)N([H])[H])c5N([H])[H])C4([H])[H])C([H])([H])C(=O)C([H])([H])C3([H])[H])c([H])c([H])c2C1([H])[H]

>  <smiles>  (33) 
[H]c1c([H])c([H])c2c(c1[H])C([H])([H])C([H])([H])C([H])([H])C2([H])N([H])C(=O)C1([H])N(C(=O)C([H])(N([H])C(=O)C([H])(N([H])C([H])([H])[H])C([H])([H])[H])C(C([H])([H])[H])(C([H])([H])[H])C([H])([H])[H])C([H])([H])c2c([H])c(OC([H])([H])C([H])([H])N([H])C(=O)C([H])([H])C([H])([H])c3c(C([H])([H])[H])c([H])c([H])c(C([H])([H])[H])c3C([H])([H])C3(C(=O)N4C([H])([H])C([H])([H])C([H])([H])C([H])(n5nc(-c6c([H])c([H])c(Oc7c([H])c([H])c(F)c([H])c7F)c([H])c6[H])c(C(=O)N([H])[H])c5N([H])[H])C4([H])[H])C([H])([H])C(=O)C([H])([H])C3([H])[H])c([H])c([H])c2C1([H])[H]

$$$$
33:0:0
     RDKit          3D

 96105  0  0  1  0  0  0  0  0999 V2000
  -30.4700  -15.0840   20.1860 C   0  0  0  0  0  0  0  0  0  0  0  0
  -30.2930  -12.6260   19.4040 C   0  0  0  0  0  2  0  0  0  0  0  0
  -29.3820  -12.3840   18.1820 C   0  0  0  0  0  2  0  0  0  0  0  0
  -27.9300  -12.1640   18.6320 C   0  0  0  0  0  2  0  0  0  0  0  0
  -27.4950  -13.1670   19.7340 C   0  0  0  0  0  3  0  0  0  0  0  0
  -28.5580  -13.3920   20.8340 C   0  0  0  0  0  2  0  0  0  0  0  0
  -29.7860  -13.8390   20.1550 N   0  0  0  0  0  0  0  0  0  0  0  0
  -31.6830  -14.9420   19.9750 O   0  0  0  0  0  0  0  0  0  0  0  0
  -31.0520  -21.0220   21.6210 C   0  0  0  0  0  0  0  0  0  0  0  0
  -28.0610  -21.4830   20.8600 C   0  0  0  0  0  2  0  0  0  0  0  0
  -29.3180  -21.6120   18.8350 C   0  0  0  0  0  2  0  0  0  0  0  0
  -28.0550  -23.1720   20.9040 C   0  0  0  0  0  2  0  0  0  0  0  0
  -29.2870  -23.2710   18.9670 C   0  0  0  0  0  2  0  0  0  0  0  0
  -28.6260  -18.9830   19.4910 C   0  0  0  0  0  2  0  0  0  0  0  0
  -28.6980  -17.3630   20.0920 C   0  0  0  0  0  2  0  0  0  0  0  0
  -31.1580  -18.8910   20.2780 C   0  0  0  0  0  2  0  0  0  0  0  0
  -30.7980  -17.5400   21.0610 C   0  0  0  0  0  2  0  0  0  0  0  0
  -29.1340  -20.5230   20.0450 C   0  0  2  0  0  0  0  0  0  0  0  0
  -28.0330  -24.0970   19.5720 C   0  0  1  0  0  0  0  0  0  0  0  0
  -26.8230  -23.6470   18.7370 C   0  0  0  0  0  1  0  0  0  0  0  0
  -30.4670  -20.1840   20.7130 N   0  0  0  0  0  0  0  0  0  0  0  0
  -29.9720  -16.4800   20.3700 N   0  0  0  0  0  0  0  0  0  0  0  0
  -30.3930  -21.7290   22.3840 O   0  0  0  0  0  0  0  0  0  0  0  0
  -25.1670  -13.7500   20.5840 C   0  0  0  0  0  0  0  0  0  0  0  0
  -24.0980  -12.9840   20.9590 C   0  0  0  0  0  0  0  0  0  0  0  0
  -24.5290  -11.6250   20.8680 C   0  0  0  0  0  0  0  0  0  0  0  0
  -26.1790  -12.8580   20.2790 N   0  0  0  0  0  0  0  0  0  0  0  0
  -25.8100  -11.5720   20.5180 N   0  0  0  0  0  0  0  0  0  0  0  0
  -23.7750  -10.3740   21.0400 C   0  0  0  0  0  0  0  0  0  0  0  0
  -24.2030   -9.3680   21.9330 C   0  0  0  0  0  3  0  0  0  0  0  0
  -23.4450   -8.1860   22.0960 C   0  0  0  0  0  3  0  0  0  0  0  0
  -22.2460   -8.0050   21.3680 C   0  0  0  0  0  0  0  0  0  0  0  0
  -21.8360   -9.0010   20.4650 C   0  0  0  0  0  3  0  0  0  0  0  0
  -22.5930  -10.1730   20.2980 C   0  0  0  0  0  3  0  0  0  0  0  0
  -21.4610   -6.8790   21.4420 O   0  0  0  0  0  0  0  0  0  0  0  0
  -21.4250   -6.1000   22.5700 C   0  0  0  0  0  0  0  0  0  0  0  0
  -21.0260   -6.6170   23.8220 C   0  0  0  0  0  3  0  0  0  0  0  0
  -20.9380   -5.7650   24.9410 C   0  0  0  0  0  3  0  0  0  0  0  0
  -21.2350   -4.3950   24.8090 C   0  0  0  0  0  0  0  0  0  0  0  0
  -21.6200   -3.8760   23.5600 C   0  0  0  0  0  3  0  0  0  0  0  0
  -21.7120   -4.7260   22.4440 C   0  0  0  0  0  0  0  0  0  0  0  0
  -22.0680   -4.2160   21.2400 F   0  0  0  0  0  0  0  0  0  0  0  0
  -21.1410   -3.5730   25.8800 F   0  0  0  0  0  0  0  0  0  0  0  0
  -22.7210  -13.4890   21.2810 C   0  0  0  0  0  0  0  0  0  0  0  0
  -22.0050  -12.7880   22.1570 N   0  0  0  0  0  0  0  0  0  0  0  0
  -22.2910  -14.5320   20.7950 O   0  0  0  0  0  0  0  0  0  0  0  0
  -22.3700  -11.9440   22.5720 H   0  0  0  0  0  0  0  0  0  0  0  0
  -21.0790  -13.0980   22.4110 H   0  0  0  0  0  0  0  0  0  0  0  0
  -25.3590  -15.1190   20.4480 N   0  0  0  0  0  0  0  0  0  0  0  0
  -24.6190  -15.7910   20.6180 H   0  0  0  0  0  0  0  0  0  0  0  0
  -26.2160  -15.5480   20.1160 H   0  0  0  0  0  0  0  0  0  0  0  0
  -33.0450  -21.0970   23.1800 C   0  0  0  0  0  1  0  0  0  0  0  0
  -32.5930  -21.2180   21.7130 C   0  0  0  0  0  3  0  0  0  0  0  0
  -33.2490  -22.5340   19.6170 C   0  0  0  0  0  1  0  0  0  0  0  0
  -33.0040  -22.5980   21.1290 C   0  0  0  0  0  2  0  0  0  0  0  0
  -28.1280  -25.7500   19.6210 O   0  0  0  0  0  0  0  0  0  0  0  0
  -24.6700  -31.5570   22.9700 C   0  0  0  0  0  0  0  0  0  0  0  0
  -27.0970  -26.8300   19.6440 C   0  0  0  0  0  0  0  0  0  0  0  0
  -23.4210  -30.2470   21.3100 C   0  0  0  0  0  3  0  0  0  0  0  0
  -24.8140  -28.7290   19.7610 C   0  0  0  0  0  0  0  0  0  0  0  0
  -25.9840  -30.4560   21.0970 C   0  0  0  0  0  2  0  0  0  0  0  0
  -26.0190  -29.0840   20.3730 C   0  0  0  0  0  0  0  0  0  0  0  0
  -27.1520  -28.1540   20.3000 C   0  0  0  0  0  3  0  0  0  0  0  0
  -25.8730  -26.6690   18.9510 C   0  0  0  0  0  3  0  0  0  0  0  0
  -24.7640  -27.5420   19.0270 C   0  0  0  0  0  3  0  0  0  0  0  0
  -23.6000  -29.6470   19.8910 C   0  0  0  0  0  2  0  0  0  0  0  0
  -24.7150  -30.7750   21.8460 N   0  0  0  0  0  0  0  0  0  0  0  0
  -23.5970  -31.8240   23.5350 O   0  0  0  0  0  0  0  0  0  0  0  0
  -22.7580  -29.1950   22.2360 C   0  0  0  0  0  0  0  0  0  0  0  0
  -21.4270  -29.0350   22.1370 N   0  0  0  0  0  0  0  0  0  0  0  0
  -23.4460  -28.5310   23.0160 O   0  0  0  0  0  0  0  0  0  0  0  0
  -20.9260  -29.6270   21.4890 H   0  0  0  0  0  0  0  0  0  0  0  0
  -18.0550  -27.8040   22.6710 C   0  0  0  0  0  0  0  0  0  0  0  0
  -20.6200  -28.0630   22.8840 C   0  0  0  0  0  3  0  0  0  0  0  0
  -20.7070  -26.6560   22.2480 C   0  0  0  0  0  2  0  0  0  0  0  0
  -19.5810  -26.3740   21.2470 C   0  0  0  0  0  2  0  0  0  0  0  0
  -18.2160  -26.4870   21.9310 C   0  0  0  0  0  2  0  0  0  0  0  0
  -19.1830  -28.5510   23.1050 C   0  0  0  0  0  0  0  0  0  0  0  0
  -18.9750  -29.7830   23.7630 C   0  0  0  0  0  3  0  0  0  0  0  0
  -17.6730  -30.2690   23.9880 C   0  0  0  0  0  3  0  0  0  0  0  0
  -16.5610  -29.5190   23.5670 C   0  0  0  0  0  3  0  0  0  0  0  0
  -16.7530  -28.2870   22.9160 C   0  0  0  0  0  3  0  0  0  0  0  0
  -25.9600  -32.1640   23.5930 C   0  0  0  0  0  3  0  0  0  0  0  0
  -25.6500  -33.5410   24.0160 N   0  0  0  0  0  0  0  0  0  0  0  0
  -25.9660  -34.6460   23.3270 C   0  0  0  0  0  0  0  0  0  0  0  0
  -26.6150  -34.6120   22.2790 O   0  0  0  0  0  0  0  0  0  0  0  0
  -25.0610  -33.6370   24.8310 H   0  0  0  0  0  0  0  0  0  0  0  0
  -24.2350  -36.4670   23.1370 C   0  0  0  0  0  1  0  0  0  0  0  0
  -25.4930  -36.0020   23.8880 C   0  0  0  0  0  3  0  0  0  0  0  0
  -27.6460  -36.8330   24.7330 C   0  0  0  0  0  1  0  0  0  0  0  0
  -26.5250  -37.0590   23.8230 N   0  0  0  0  0  0  0  0  0  0  0  0
  -26.1240  -37.9700   24.0330 H   0  0  0  0  0  0  0  0  0  0  0  0
  -26.5060  -31.3250   24.8150 C   0  0  1  0  0  0  0  0  0  0  0  0
  -25.4450  -31.0450   25.9060 C   0  0  0  0  0  1  0  0  0  0  0  0
  -27.0650  -29.9630   24.3470 C   0  0  0  0  0  1  0  0  0  0  0  0
  -27.6820  -32.0810   25.4780 C   0  0  0  0  0  1  0  0  0  0  0  0
  1 22  1  0
  2  7  1  0
  3  4  1  0
  3  2  1  0
  5  4  1  0
  5 27  1  0
  5  6  1  0
  7  1  1  0
  7  6  1  0
  8  1  2  0
  9 53  1  0
  9 23  2  0
 10 12  1  0
 11 13  1  0
 13 19  1  0
 18 14  1  6
 14 15  1  0
 15 22  1  0
 16 21  1  0
 16 17  1  0
 18 11  1  0
 18 21  1  0
 18 10  1  0
 19 20  1  6
 19 56  1  0
 19 12  1  0
 21  9  1  0
 22 17  1  0
 24 25  2  0
 25 44  1  0
 26 25  1  0
 26 29  1  0
 27 28  1  0
 27 24  1  0
 28 26  2  0
 29 30  1  0
 30 31  2  0
 32 35  1  0
 32 31  1  0
 33 32  2  0
 34 33  1  0
 34 29  2  0
 35 36  1  0
 36 37  1  0
 37 38  2  0
 39 38  1  0
 39 43  1  0
 40 39  2  0
 41 36  2  0
 41 40  1  0
 42 41  1  0
 44 45  1  0
 45 48  1  0
 45 47  1  0
 46 44  2  0
 49 24  1  0
 49 50  1  0
 51 49  1  0
 53 52  1  0
 54 55  1  0
 55 53  1  0
 56 58  1  0
 57 68  2  0
 58 63  1  0
 59 67  1  0
 59 69  1  0
 60 66  1  0
 60 62  1  0
 61 67  1  0
 62 61  1  0
 63 62  2  0
 64 65  1  0
 64 58  2  0
 65 60  2  0
 66 59  1  0
 67 57  1  0
 69 71  2  0
 70 69  1  0
 72 70  1  0
 73 82  2  0
 73 78  1  0
 74 70  1  0
 74 78  1  0
 75 74  1  0
 76 77  1  0
 76 75  1  0
 77 73  1  0
 78 79  2  0
 79 80  1  0
 81 80  2  0
 82 81  1  0
 83 57  1  0
 83 84  1  0
 83 93  1  0
 84 87  1  0
 85 89  1  0
 85 84  1  0
 86 85  2  0
 89 88  1  0
 91 89  1  0
 91 92  1  0
 91 90  1  0
 93 96  1  1
 93 94  1  0
 95 93  1  0
M  ISO  4   1 100  19 101  22 100  56 101
M  END
>  <TORSDO>  (34) 
F 17

>  <SCORE>  (34) 
-14.618

>  <name>  (34) 
33

>  <ligand_id>  (34) 
33

>  <original_smiles>  (34) 
[H]c1c([H])c([H])c2c(c1[H])C([H])([H])C([H])([H])C([H])([H])C2([H])N([H])C(=O)C1([H])N(C(=O)C([H])(N([H])C(=O)C([H])(N([H])C([H])([H])[H])C([H])([H])[H])C(C([H])([H])[H])(C([H])([H])[H])C([H])([H])[H])C([H])([H])c2c([H])c(OC3(C([H])([H])[H])C([H])([H])C([H])([H])C4(N(C(=O)C([H])(C([H])([H])[H])C([H])([H])C([H])([H])[H])C([H])([H])C([H])([H])N(C(=O)N5C([H])([H])C([H])([H])C([H])([H])C([H])(n6nc(-c7c([H])c([H])c(Oc8c([H])c([H])c(F)c([H])c8F)c([H])c7[H])c(C(=O)N([H])[H])c6N([H])[H])C5([H])[H])C([H])([H])C4([H])[H])C([H])([H])C3([H])[H])c([H])c([H])c2C1([H])[H]

>  <smiles>  (34) 
[H]c1c([H])c([H])c2c(c1[H])C([H])([H])C([H])([H])C([H])([H])C2([H])N([H])C(=O)C1([H])N(C(=O)C([H])(N([H])C(=O)C([H])(N([H])C([H])([H])[H])C([H])([H])[H])C(C([H])([H])[H])(C([H])([H])[H])C([H])([H])[H])C([H])([H])c2c([H])c(OC3(C([H])([H])[H])C([H])([H])C([H])([H])C4(N(C(=O)C([H])(C([H])([H])[H])C([H])([H])C([H])([H])[H])C([H])([H])C([H])([H])N(C(=O)N5C([H])([H])C([H])([H])C([H])([H])C([H])(n6nc(-c7c([H])c([H])c(Oc8c([H])c([H])c(F)c([H])c8F)c([H])c7[H])c(C(=O)N([H])[H])c6N([H])[H])C5([H])[H])C([H])([H])C4([H])[H])C([H])([H])C3([H])[H])c([H])c([H])c2C1([H])[H]

$$$$
34:0:0
     RDKit          3D

 94103  0  0  1  0  0  0  0  0999 V2000
  -27.0200  -22.6370   21.1000 C   0  0  0  0  0  2  0  0  0  0  0  0
  -29.0270  -23.5890   20.1900 C   0  0  0  0  0  2  0  0  0  0  0  0
  -26.7130  -23.9700   20.3260 C   0  0  0  0  0  3  0  0  0  0  0  0
  -28.0070  -24.8270   20.4340 C   0  0  0  0  0  3  0  0  0  0  0  0
  -28.5440  -22.2290   20.9670 C   0  0  1  0  0  0  0  0  0  0  0  0
  -26.2410  -23.5730   18.9080 C   0  0  0  0  0  1  0  0  0  0  0  0
  -29.1120  -22.3440   22.4010 C   0  0  0  0  0  1  0  0  0  0  0  0
  -28.1630  -26.2590   19.8720 O   0  0  0  0  0  0  0  0  0  0  0  0
  -24.5950  -31.8520   23.0780 C   0  0  0  0  0  0  0  0  0  0  0  0
  -27.1120  -27.2280   19.9100 C   0  0  0  0  0  0  0  0  0  0  0  0
  -23.3670  -30.4810   21.4440 C   0  0  0  0  0  3  0  0  0  0  0  0
  -24.7830  -28.9450   19.9540 C   0  0  0  0  0  0  0  0  0  0  0  0
  -25.9080  -30.7540   21.2290 C   0  0  0  0  0  2  0  0  0  0  0  0
  -25.9670  -29.3710   20.5700 C   0  0  0  0  0  0  0  0  0  0  0  0
  -27.1310  -28.5240   20.5490 C   0  0  0  0  0  3  0  0  0  0  0  0
  -25.9350  -26.9380   19.1930 C   0  0  0  0  0  3  0  0  0  0  0  0
  -24.7790  -27.7360   19.2420 C   0  0  0  0  0  3  0  0  0  0  0  0
  -23.5590  -29.8440   20.0410 C   0  0  0  0  0  2  0  0  0  0  0  0
  -24.6480  -31.0500   21.9730 N   0  0  0  0  0  0  0  0  0  0  0  0
  -23.5170  -32.1240   23.6270 O   0  0  0  0  0  0  0  0  0  0  0  0
  -22.7210  -29.4400   22.3930 C   0  0  0  0  0  0  0  0  0  0  0  0
  -21.3980  -29.2520   22.2720 N   0  0  0  0  0  0  0  0  0  0  0  0
  -23.4140  -28.8090   23.1930 O   0  0  0  0  0  0  0  0  0  0  0  0
  -20.8990  -29.8270   21.6060 H   0  0  0  0  0  0  0  0  0  0  0  0
  -18.0470  -27.9660   22.7560 C   0  0  0  0  0  0  0  0  0  0  0  0
  -20.5930  -28.2970   23.0370 C   0  0  0  0  0  3  0  0  0  0  0  0
  -20.7450  -26.8690   22.4660 C   0  0  0  0  0  2  0  0  0  0  0  0
  -19.6580  -26.5090   21.4480 C   0  0  0  0  0  2  0  0  0  0  0  0
  -18.2660  -26.6180   22.0820 C   0  0  0  0  0  2  0  0  0  0  0  0
  -19.1420  -28.7590   23.1860 C   0  0  0  0  0  0  0  0  0  0  0  0
  -18.8900  -30.0150   23.7770 C   0  0  0  0  0  3  0  0  0  0  0  0
  -17.5740  -30.4820   23.9450 C   0  0  0  0  0  3  0  0  0  0  0  0
  -16.4920  -29.6900   23.5260 C   0  0  0  0  0  3  0  0  0  0  0  0
  -16.7270  -28.4350   22.9380 C   0  0  0  0  0  3  0  0  0  0  0  0
  -25.8810  -32.4830   23.6950 C   0  0  0  0  0  3  0  0  0  0  0  0
  -25.5700  -33.8680   24.0730 N   0  0  0  0  0  0  0  0  0  0  0  0
  -25.8820  -34.9490   23.3450 C   0  0  0  0  0  0  0  0  0  0  0  0
  -26.5440  -34.8850   22.3040 O   0  0  0  0  0  0  0  0  0  0  0  0
  -25.0070  -34.0000   24.9030 H   0  0  0  0  0  0  0  0  0  0  0  0
  -24.1430  -36.7480   23.0560 C   0  0  0  0  0  1  0  0  0  0  0  0
  -25.3880  -36.3190   23.8480 C   0  0  0  0  0  3  0  0  0  0  0  0
  -27.5240  -37.1770   24.7030 C   0  0  0  0  0  1  0  0  0  0  0  0
  -26.4150  -37.3820   23.7750 N   0  0  0  0  0  0  0  0  0  0  0  0
  -26.0050  -38.2880   23.9780 H   0  0  0  0  0  0  0  0  0  0  0  0
  -26.4330  -31.6810   24.9380 C   0  0  1  0  0  0  0  0  0  0  0  0
  -25.3640  -31.4010   26.0280 C   0  0  0  0  0  1  0  0  0  0  0  0
  -27.0220  -30.3240   24.4870 C   0  0  0  0  0  1  0  0  0  0  0  0
  -27.5980  -32.4640   25.5940 C   0  0  0  0  0  1  0  0  0  0  0  0
  -28.6740  -20.6420   20.3490 C   0  0  0  0  0  2  0  0  0  0  0  0
  -31.1070  -19.8910   20.8100 C   0  0  0  0  0  3  0  0  0  0  0  0
  -29.8570  -19.5060   20.4910 C   0  0  0  0  0  0  0  0  0  0  0  0
  -32.2670  -18.9990   20.8470 C   0  0  0  0  0  0  0  0  0  0  0  0
  -33.4750  -19.5640   21.0900 C   0  0  0  0  0  3  0  0  0  0  0  0
  -29.6750  -17.9150   20.1240 C   0  0  0  0  0  2  0  0  0  0  0  0
  -32.1450  -17.5240   20.4370 C   0  0  0  0  0  2  0  0  0  0  0  0
  -30.7790  -16.7600   20.6310 C   0  0  1  0  0  0  0  0  0  0  0  0
  -34.8560  -18.9160   21.1120 C   0  0  0  0  0  1  0  0  0  0  0  0
  -30.5640  -16.5520   22.1450 C   0  0  0  0  0  1  0  0  0  0  0  0
  -31.0800  -15.2330   19.9320 C   0  0  0  0  0  0  0  0  0  0  0  0
  -30.7590  -12.8890   18.9800 C   0  0  0  0  0  2  0  0  0  0  0  0
  -29.7830  -12.8700   17.7800 C   0  0  0  0  0  2  0  0  0  0  0  0
  -28.3440  -12.6840   18.2790 C   0  0  0  0  0  2  0  0  0  0  0  0
  -28.0140  -13.6160   19.4680 C   0  0  0  0  0  3  0  0  0  0  0  0
  -29.1130  -13.6410   20.5530 C   0  0  0  0  0  2  0  0  0  0  0  0
  -30.3770  -14.0120   19.9090 N   0  0  0  0  0  0  0  0  0  0  0  0
  -32.1710  -15.1450   19.3590 O   0  0  0  0  0  0  0  0  0  0  0  0
  -25.6850  -14.2410   20.3170 C   0  0  0  0  0  0  0  0  0  0  0  0
  -24.6100  -13.4960   20.7020 C   0  0  0  0  0  0  0  0  0  0  0  0
  -25.0230  -12.1290   20.6150 C   0  0  0  0  0  0  0  0  0  0  0  0
  -26.6880  -13.3400   20.0130 N   0  0  0  0  0  0  0  0  0  0  0  0
  -26.2990  -12.0590   20.2570 N   0  0  0  0  0  0  0  0  0  0  0  0
  -24.2580  -10.8900   20.7990 C   0  0  0  0  0  0  0  0  0  0  0  0
  -24.6580   -9.9020   21.7290 C   0  0  0  0  0  3  0  0  0  0  0  0
  -23.8970   -8.7230   21.8970 C   0  0  0  0  0  3  0  0  0  0  0  0
  -22.7160   -8.5270   21.1420 C   0  0  0  0  0  0  0  0  0  0  0  0
  -22.3340   -9.5040   20.2020 C   0  0  0  0  0  3  0  0  0  0  0  0
  -23.0960  -10.6720   20.0300 C   0  0  0  0  0  3  0  0  0  0  0  0
  -21.9200   -7.4090   21.2290 O   0  0  0  0  0  0  0  0  0  0  0  0
  -21.8000   -6.6970   22.3970 C   0  0  0  0  0  0  0  0  0  0  0  0
  -21.3620   -7.3010   23.5950 C   0  0  0  0  0  3  0  0  0  0  0  0
  -21.1910   -6.5180   24.7550 C   0  0  0  0  0  3  0  0  0  0  0  0
  -21.4390   -5.1340   24.7150 C   0  0  0  0  0  0  0  0  0  0  0  0
  -21.8710   -4.5310   23.5210 C   0  0  0  0  0  3  0  0  0  0  0  0
  -22.0480   -5.3120   22.3640 C   0  0  0  0  0  0  0  0  0  0  0  0
  -22.4450   -4.7210   21.2110 F   0  0  0  0  0  0  0  0  0  0  0  0
  -21.2650   -4.3820   25.8260 F   0  0  0  0  0  0  0  0  0  0  0  0
  -23.2430  -14.0100   21.0410 C   0  0  0  0  0  0  0  0  0  0  0  0
  -22.5290  -13.3270   21.9270 N   0  0  0  0  0  0  0  0  0  0  0  0
  -22.8210  -15.0580   20.5560 O   0  0  0  0  0  0  0  0  0  0  0  0
  -22.8880  -12.4850   22.3530 H   0  0  0  0  0  0  0  0  0  0  0  0
  -21.6110  -13.6560   22.1840 H   0  0  0  0  0  0  0  0  0  0  0  0
  -25.8990  -15.6120   20.1690 N   0  0  0  0  0  0  0  0  0  0  0  0
  -25.1710  -16.3040   20.2980 H   0  0  0  0  0  0  0  0  0  0  0  0
  -26.7670  -16.0180   19.8460 H   0  0  0  0  0  0  0  0  0  0  0  0
  2  4  1  0
  2  5  1  0
  3  6  1  0
  3  4  1  0
  3  1  1  0
  4  8  1  0
  5  1  1  0
  5  7  1  1
  8 10  1  0
  9 20  2  0
 10 15  1  0
 11 19  1  0
 11 21  1  0
 12 18  1  0
 12 14  1  0
 13 19  1  0
 14 13  1  0
 15 14  2  0
 16 17  1  0
 16 10  2  0
 17 12  2  0
 18 11  1  0
 19  9  1  0
 21 23  2  0
 22 21  1  0
 24 22  1  0
 25 34  2  0
 25 30  1  0
 26 22  1  0
 26 30  1  0
 27 26  1  0
 28 29  1  0
 28 27  1  0
 29 25  1  0
 30 31  2  0
 31 32  1  0
 33 32  2  0
 34 33  1  0
 35  9  1  0
 35 36  1  0
 35 45  1  0
 36 39  1  0
 37 41  1  0
 37 36  1  0
 38 37  2  0
 41 40  1  0
 43 41  1  0
 43 44  1  0
 43 42  1  0
 45 48  1  1
 45 46  1  0
 47 45  1  0
 49 51  1  0
 49  5  1  0
 50 52  1  0
 51 50  2  0
 52 53  2  0
 53 57  1  0
 54 51  1  0
 54 56  1  0
 55 56  1  0
 55 52  1  0
 56 58  1  1
 59 56  1  0
 60 65  1  0
 61 62  1  0
 61 60  1  0
 63 62  1  0
 63 70  1  0
 63 64  1  0
 65 59  1  0
 65 64  1  0
 66 59  2  0
 67 68  2  0
 68 87  1  0
 69 68  1  0
 69 72  1  0
 70 71  1  0
 70 67  1  0
 71 69  2  0
 72 73  1  0
 73 74  2  0
 75 78  1  0
 75 74  1  0
 76 75  2  0
 77 76  1  0
 77 72  2  0
 78 79  1  0
 79 80  1  0
 80 81  2  0
 82 81  1  0
 82 86  1  0
 83 82  2  0
 84 79  2  0
 84 83  1  0
 85 84  1  0
 87 88  1  0
 88 91  1  0
 88 90  1  0
 89 87  2  0
 92 93  1  0
 92 67  1  0
 94 92  1  0
M  ISO  4   4 101   8 101  56 100  59 100
M  END
>  <TORSDO>  (35) 
F 18

>  <SCORE>  (35) 
-15.762

>  <name>  (35) 
34

>  <ligand_id>  (35) 
34

>  <original_smiles>  (35) 
[H]C1=C(C([H])([H])C2(C([H])([H])[H])C([H])([H])C([H])(Oc3c([H])c([H])c4c(c3[H])C([H])([H])N(C(=O)C([H])(N([H])C(=O)C([H])(N([H])C([H])([H])[H])C([H])([H])[H])C(C([H])([H])[H])(C([H])([H])[H])C([H])([H])[H])C([H])(C(=O)N([H])C3([H])c5c([H])c([H])c([H])c([H])c5C([H])([H])C([H])([H])C3([H])[H])C4([H])[H])C([H])(C([H])([H])[H])C2([H])[H])C([H])([H])C(C(=O)N2C([H])([H])C([H])([H])C([H])([H])C([H])(n3nc(-c4c([H])c([H])c(Oc5c([H])c([H])c(F)c([H])c5F)c([H])c4[H])c(C(=O)N([H])[H])c3N([H])[H])C2([H])[H])(C([H])([H])[H])C([H])([H])C1=C([H])C([H])([H])[H]

>  <smiles>  (35) 
[H]C1=C(C([H])([H])C2(C([H])([H])[H])C([H])([H])C([H])(Oc3c([H])c([H])c4c(c3[H])C([H])([H])N(C(=O)C([H])(N([H])C(=O)C([H])(N([H])C([H])([H])[H])C([H])([H])[H])C(C([H])([H])[H])(C([H])([H])[H])C([H])([H])[H])C([H])(C(=O)N([H])C3([H])c5c([H])c([H])c([H])c([H])c5C([H])([H])C([H])([H])C3([H])[H])C4([H])[H])C([H])(C([H])([H])[H])C2([H])[H])C([H])([H])C(C(=O)N2C([H])([H])C([H])([H])C([H])([H])C([H])(n3nc(-c4c([H])c([H])c(Oc5c([H])c([H])c(F)c([H])c5F)c([H])c4[H])c(C(=O)N([H])[H])c3N([H])[H])C2([H])[H])(C([H])([H])[H])C([H])([H])C1=C([H])C([H])([H])[H]

$$$$
35:0:0
     RDKit          3D

 89 97  0  0  1  0  0  0  0  0999 V2000
  -28.0770  -22.1460   21.2600 C   0  0  0  0  0  3  0  0  0  0  0  0
  -28.8990  -23.6750   19.1720 C   0  0  0  0  0  3  0  0  0  0  0  0
  -28.7290  -21.2890   20.2720 C   0  0  0  0  0  0  0  0  0  0  0  0
  -27.8560  -23.6190   21.2260 C   0  0  0  0  0  0  0  0  0  0  0  0
  -29.1180  -22.2000   19.2040 C   0  0  0  0  0  0  0  0  0  0  0  0
  -28.2370  -24.5290   20.1550 C   0  0  0  0  0  0  0  0  0  0  0  0
  -27.1740  -24.2500   22.4240 C   0  0  0  0  0  1  0  0  0  0  0  0
  -29.7860  -21.5760   17.9950 C   0  0  0  0  0  1  0  0  0  0  0  0
  -28.2140  -26.0580   20.1370 O   0  0  0  0  0  0  0  0  0  0  0  0
  -24.6560  -31.9220   23.2290 C   0  0  0  0  0  0  0  0  0  0  0  0
  -27.1460  -27.0810   20.1540 C   0  0  0  0  0  0  0  0  0  0  0  0
  -23.4270  -30.5380   21.6040 C   0  0  0  0  0  3  0  0  0  0  0  0
  -24.8420  -28.9320   20.1540 C   0  0  0  0  0  0  0  0  0  0  0  0
  -25.9870  -30.7510   21.4110 C   0  0  0  0  0  2  0  0  0  0  0  0
  -26.0380  -29.3450   20.7560 C   0  0  0  0  0  0  0  0  0  0  0  0
  -27.1830  -28.4380   20.7330 C   0  0  0  0  0  3  0  0  0  0  0  0
  -25.9230  -26.8050   19.5090 C   0  0  0  0  0  3  0  0  0  0  0  0
  -24.8050  -27.6810   19.5140 C   0  0  0  0  0  3  0  0  0  0  0  0
  -23.6280  -29.8550   20.2220 C   0  0  0  0  0  2  0  0  0  0  0  0
  -24.7120  -31.0970   22.1350 N   0  0  0  0  0  0  0  0  0  0  0  0
  -23.5790  -32.2140   23.7720 O   0  0  0  0  0  0  0  0  0  0  0  0
  -22.7490  -29.5410   22.5790 C   0  0  0  0  0  0  0  0  0  0  0  0
  -21.4200  -29.3640   22.4600 N   0  0  0  0  0  0  0  0  0  0  0  0
  -23.4250  -28.9240   23.4070 O   0  0  0  0  0  0  0  0  0  0  0  0
  -20.9290  -29.9120   21.7680 H   0  0  0  0  0  0  0  0  0  0  0  0
  -18.0530  -28.1180   22.9740 C   0  0  0  0  0  0  0  0  0  0  0  0
  -20.6090  -28.4230   23.2390 C   0  0  0  0  0  3  0  0  0  0  0  0
  -20.7300  -26.9870   22.6790 C   0  0  0  0  0  2  0  0  0  0  0  0
  -19.6350  -26.6390   21.6660 C   0  0  0  0  0  2  0  0  0  0  0  0
  -18.2510  -26.7680   22.3070 C   0  0  0  0  0  2  0  0  0  0  0  0
  -19.1600  -28.9030   23.3960 C   0  0  0  0  0  0  0  0  0  0  0  0
  -18.9190  -30.1640   23.9830 C   0  0  0  0  0  3  0  0  0  0  0  0
  -17.6050  -30.6430   24.1470 C   0  0  0  0  0  3  0  0  0  0  0  0
  -16.5130  -29.8570   23.7390 C   0  0  0  0  0  3  0  0  0  0  0  0
  -16.7390  -28.5960   23.1580 C   0  0  0  0  0  3  0  0  0  0  0  0
  -25.9430  -32.5550   23.8420 C   0  0  0  0  0  3  0  0  0  0  0  0
  -25.6360  -33.9530   24.1940 N   0  0  0  0  0  0  0  0  0  0  0  0
  -25.9360  -35.0180   23.4390 C   0  0  0  0  0  0  0  0  0  0  0  0
  -26.5600  -34.9280   22.3790 O   0  0  0  0  0  0  0  0  0  0  0  0
  -25.0750  -34.0950   25.0200 H   0  0  0  0  0  0  0  0  0  0  0  0
  -24.1810  -36.8090   23.2000 C   0  0  0  0  0  1  0  0  0  0  0  0
  -25.4680  -36.4020   23.9340 C   0  0  0  0  0  3  0  0  0  0  0  0
  -27.6380  -37.3010   24.6540 C   0  0  0  0  0  1  0  0  0  0  0  0
  -26.4870  -37.4630   23.7700 N   0  0  0  0  0  0  0  0  0  0  0  0
  -26.0830  -38.3800   23.9380 H   0  0  0  0  0  0  0  0  0  0  0  0
  -26.4710  -31.7780   25.1120 C   0  0  1  0  0  0  0  0  0  0  0  0
  -25.3900  -31.5420   26.1930 C   0  0  0  0  0  1  0  0  0  0  0  0
  -27.0440  -30.3980   24.7160 C   0  0  0  0  0  1  0  0  0  0  0  0
  -27.6330  -32.5660   25.7620 C   0  0  0  0  0  1  0  0  0  0  0  0
  -28.7110  -19.5440   20.2970 C   0  0  0  0  0  3  0  0  0  0  0  0
  -29.8760  -18.2010   20.2790 C   0  0  0  0  0  3  0  0  0  0  0  0
  -30.3940  -15.3200   20.1870 C   0  0  0  0  0  0  0  0  0  0  0  0
  -30.3610  -12.9020   19.2720 C   0  0  0  0  0  2  0  0  0  0  0  0
  -29.4190  -12.7340   18.0540 C   0  0  0  0  0  2  0  0  0  0  0  0
  -27.9760  -12.4590   18.5160 C   0  0  0  0  0  2  0  0  0  0  0  0
  -27.5460  -13.3970   19.6720 C   0  0  0  0  0  3  0  0  0  0  0  0
  -28.6140  -13.5130   20.7790 C   0  0  0  0  0  2  0  0  0  0  0  0
  -29.8350  -14.0180   20.1340 N   0  0  0  0  0  0  0  0  0  0  0  0
  -31.6060  -15.3480   19.9310 O   0  0  0  0  0  0  0  0  0  0  0  0
  -29.6140  -16.5620   20.3260 N   0  0  0  0  0  0  0  0  0  0  0  0
  -28.6410  -16.3460   20.4840 H   0  0  0  0  0  0  0  0  0  0  0  0
  -25.1810  -13.9270   20.4650 C   0  0  0  0  0  0  0  0  0  0  0  0
  -24.1350  -13.1350   20.8480 C   0  0  0  0  0  0  0  0  0  0  0  0
  -24.6160  -11.7910   20.8010 C   0  0  0  0  0  0  0  0  0  0  0  0
  -26.2290  -13.0650   20.1990 N   0  0  0  0  0  0  0  0  0  0  0  0
  -25.9040  -11.7740   20.4700 N   0  0  0  0  0  0  0  0  0  0  0  0
  -23.9080  -10.5190   20.9940 C   0  0  0  0  0  0  0  0  0  0  0  0
  -24.3480   -9.5620   21.9340 C   0  0  0  0  0  3  0  0  0  0  0  0
  -23.6350   -8.3560   22.1150 C   0  0  0  0  0  3  0  0  0  0  0  0
  -22.4680   -8.1000   21.3570 C   0  0  0  0  0  0  0  0  0  0  0  0
  -22.0460   -9.0480   20.4070 C   0  0  0  0  0  3  0  0  0  0  0  0
  -22.7600  -10.2440   20.2240 C   0  0  0  0  0  3  0  0  0  0  0  0
  -21.7270   -6.9470   21.4470 O   0  0  0  0  0  0  0  0  0  0  0  0
  -21.6630   -6.2220   22.6100 C   0  0  0  0  0  0  0  0  0  0  0  0
  -21.1690   -6.7800   23.8100 C   0  0  0  0  0  3  0  0  0  0  0  0
  -21.0560   -5.9790   24.9640 C   0  0  0  0  0  3  0  0  0  0  0  0
  -21.4250   -4.6220   24.9200 C   0  0  0  0  0  0  0  0  0  0  0  0
  -21.9120   -4.0630   23.7230 C   0  0  0  0  0  3  0  0  0  0  0  0
  -22.0270   -4.8620   22.5720 C   0  0  0  0  0  0  0  0  0  0  0  0
  -22.4760   -4.3130   21.4180 F   0  0  0  0  0  0  0  0  0  0  0  0
  -21.3100   -3.8500   26.0260 F   0  0  0  0  0  0  0  0  0  0  0  0
  -22.7350  -13.5950   21.1380 C   0  0  0  0  0  0  0  0  0  0  0  0
  -22.0300  -12.8920   22.0160 N   0  0  0  0  0  0  0  0  0  0  0  0
  -22.2790  -14.6130   20.6210 O   0  0  0  0  0  0  0  0  0  0  0  0
  -22.4140  -12.0690   22.4560 H   0  0  0  0  0  0  0  0  0  0  0  0
  -21.0920  -13.1820   22.2530 H   0  0  0  0  0  0  0  0  0  0  0  0
  -25.3210  -15.3010   20.2920 N   0  0  0  0  0  0  0  0  0  0  0  0
  -24.5420  -15.9380   20.4120 H   0  0  0  0  0  0  0  0  0  0  0  0
  -26.1420  -15.7500   19.9060 H   0  0  0  0  0  0  0  0  0  0  0  0
  2  5  2  0
  2  6  1  0
  3 50  1  0
  3  1  2  0
  4  1  1  0
  4  7  1  0
  5  3  1  0
  6  4  2  0
  8  5  1  0
  9 11  1  0
  9  6  1  0
 10 21  2  0
 11 16  1  0
 12 20  1  0
 12 22  1  0
 13 19  1  0
 13 15  1  0
 14 20  1  0
 15 14  1  0
 16 15  2  0
 17 18  1  0
 17 11  2  0
 18 13  2  0
 19 12  1  0
 20 10  1  0
 22 24  2  0
 23 22  1  0
 25 23  1  0
 26 35  2  0
 26 31  1  0
 27 23  1  0
 27 31  1  0
 28 27  1  0
 29 30  1  0
 29 28  1  0
 30 26  1  0
 31 32  2  0
 32 33  1  0
 34 33  2  0
 35 34  1  0
 36 10  1  0
 36 37  1  0
 36 46  1  0
 37 40  1  0
 38 42  1  0
 38 37  1  0
 39 38  2  0
 42 41  1  0
 44 42  1  0
 44 45  1  0
 44 43  1  0
 46 49  1  1
 46 47  1  0
 48 46  1  0
 51 50  2  0
 51 60  1  0
 52 60  1  0
 53 58  1  0
 54 55  1  0
 54 53  1  0
 56 55  1  0
 56 65  1  0
 56 57  1  0
 58 52  1  0
 58 57  1  0
 59 52  2  0
 60 61  1  0
 62 63  2  0
 63 82  1  0
 64 63  1  0
 64 67  1  0
 65 62  1  0
 65 66  1  0
 66 64  2  0
 67 68  1  0
 68 69  2  0
 70 73  1  0
 70 69  1  0
 71 70  2  0
 72 71  1  0
 72 67  2  0
 73 74  1  0
 74 75  1  0
 75 76  2  0
 77 76  1  0
 77 81  1  0
 78 77  2  0
 79 74  2  0
 79 78  1  0
 80 79  1  0
 82 83  1  0
 83 86  1  0
 83 85  1  0
 84 82  2  0
 87 88  1  0
 87 62  1  0
 89 87  1  0
M  ISO  4   6 101   9 101  52 100  60 100
M  END
>  <TORSDO>  (36) 
F 18

>  <SCORE>  (36) 
-15.471

>  <name>  (36) 
35

>  <ligand_id>  (36) 
35

>  <original_smiles>  (36) 
[H]c1c([H])c([H])c2c(c1[H])C([H])([H])C([H])([H])C([H])([H])C2([H])N([H])C(=O)C1([H])N(C(=O)C([H])(N([H])C(=O)C([H])(N([H])C([H])([H])[H])C([H])([H])[H])C(C([H])([H])[H])(C([H])([H])[H])C([H])([H])[H])C([H])([H])c2c([H])c(Oc3c([H])c(C([H])([H])[H])c(C([H])([H])C([H])([H])N([H])C(=O)N4C([H])([H])C([H])([H])C([H])([H])C([H])(n5nc(-c6c([H])c([H])c(Oc7c([H])c([H])c(F)c([H])c7F)c([H])c6[H])c(C(=O)N([H])[H])c5N([H])[H])C4([H])[H])c([H])c3C([H])([H])[H])c([H])c([H])c2C1([H])[H]

>  <smiles>  (36) 
[H]c1c([H])c([H])c2c(c1[H])C([H])([H])C([H])([H])C([H])([H])C2([H])N([H])C(=O)C1([H])N(C(=O)C([H])(N([H])C(=O)C([H])(N([H])C([H])([H])[H])C([H])([H])[H])C(C([H])([H])[H])(C([H])([H])[H])C([H])([H])[H])C([H])([H])c2c([H])c(Oc3c([H])c(C([H])([H])[H])c(C([H])([H])C([H])([H])N([H])C(=O)N4C([H])([H])C([H])([H])C([H])([H])C([H])(n5nc(-c6c([H])c([H])c(Oc7c([H])c([H])c(F)c([H])c7F)c([H])c6[H])c(C(=O)N([H])[H])c5N([H])[H])C4([H])[H])c([H])c3C([H])([H])[H])c([H])c([H])c2C1([H])[H]

$$$$
36:0:0
     RDKit          3D

 92101  0  0  1  0  0  0  0  0999 V2000
  -29.8600  -16.8800   20.5890 C   0  0  0  0  0  0  0  0  0  0  0  0
  -28.7390  -19.2440   19.9760 C   0  0  0  0  0  0  0  0  0  0  0  0
  -29.4820  -20.0450   20.8830 C   0  0  0  0  0  0  0  0  0  0  0  0
  -28.9340  -17.7550   19.8090 C   0  0  0  0  0  0  0  0  0  0  0  0
  -30.5070  -17.7450   21.5640 C   0  0  0  0  0  0  0  0  0  0  0  0
  -30.3710  -19.2160   21.6730 C   0  0  0  0  0  0  0  0  0  0  0  0
  -27.6920  -20.1370   19.2320 C   0  0  0  0  0  2  0  0  0  0  0  0
  -29.3460  -21.7250   20.9860 C   0  0  0  0  0  2  0  0  0  0  0  0
  -27.9720  -21.7200   19.0290 C   0  0  0  0  0  2  0  0  0  0  0  0
  -28.1840  -22.7060   20.2640 C   0  0  1  0  0  0  0  0  0  0  0  0
  -28.1110  -17.1000   18.7170 C   0  0  0  0  0  1  0  0  0  0  0  0
  -31.3920  -17.0110   22.5740 C   0  0  0  0  0  1  0  0  0  0  0  0
  -31.2800  -19.9640   22.6530 C   0  0  0  0  0  1  0  0  0  0  0  0
  -26.9240  -22.6380   21.1440 C   0  0  0  0  0  1  0  0  0  0  0  0
  -30.4190  -15.3040   20.3290 C   0  0  0  0  0  0  0  0  0  0  0  0
  -30.3590  -12.8550   19.4980 C   0  0  0  0  0  2  0  0  0  0  0  0
  -29.4770  -12.6500   18.2440 C   0  0  0  0  0  2  0  0  0  0  0  0
  -28.0270  -12.3660   18.6630 C   0  0  0  0  0  2  0  0  0  0  0  0
  -27.5480  -13.3490   19.7600 C   0  0  0  0  0  3  0  0  0  0  0  0
  -28.5630  -13.5500   20.9040 C   0  0  0  0  0  2  0  0  0  0  0  0
  -29.8130  -14.0190   20.2960 N   0  0  0  0  0  0  0  0  0  0  0  0
  -31.6280  -15.2230   20.0520 O   0  0  0  0  0  0  0  0  0  0  0  0
  -25.1740  -13.9170   20.4720 C   0  0  0  0  0  0  0  0  0  0  0  0
  -24.1060  -13.1410   20.8270 C   0  0  0  0  0  0  0  0  0  0  0  0
  -24.5780  -11.7940   20.8200 C   0  0  0  0  0  0  0  0  0  0  0  0
  -26.2180  -13.0380   20.2530 N   0  0  0  0  0  0  0  0  0  0  0  0
  -25.8740  -11.7560   20.5310 N   0  0  0  0  0  0  0  0  0  0  0  0
  -23.8530  -10.5320   21.0100 C   0  0  0  0  0  0  0  0  0  0  0  0
  -24.2780   -9.5700   21.9520 C   0  0  0  0  0  3  0  0  0  0  0  0
  -23.5520   -8.3740   22.1320 C   0  0  0  0  0  3  0  0  0  0  0  0
  -22.3850   -8.1330   21.3680 C   0  0  0  0  0  0  0  0  0  0  0  0
  -21.9770   -9.0840   20.4150 C   0  0  0  0  0  3  0  0  0  0  0  0
  -22.7050  -10.2710   20.2340 C   0  0  0  0  0  3  0  0  0  0  0  0
  -21.6290   -6.9890   21.4570 O   0  0  0  0  0  0  0  0  0  0  0  0
  -21.5820   -6.2450   22.6090 C   0  0  0  0  0  0  0  0  0  0  0  0
  -21.1700   -6.8020   23.8400 C   0  0  0  0  0  3  0  0  0  0  0  0
  -21.0700   -5.9850   24.9840 C   0  0  0  0  0  3  0  0  0  0  0  0
  -21.3720   -4.6120   24.8970 C   0  0  0  0  0  0  0  0  0  0  0  0
  -21.7770   -4.0550   23.6720 C   0  0  0  0  0  3  0  0  0  0  0  0
  -21.8800   -4.8700   22.5300 C   0  0  0  0  0  0  0  0  0  0  0  0
  -22.2490   -4.3230   21.3470 F   0  0  0  0  0  0  0  0  0  0  0  0
  -21.2680   -3.8250   25.9940 F   0  0  0  0  0  0  0  0  0  0  0  0
  -22.7050  -13.6210   21.0640 C   0  0  0  0  0  0  0  0  0  0  0  0
  -21.9600  -12.9360   21.9250 N   0  0  0  0  0  0  0  0  0  0  0  0
  -22.2760  -14.6370   20.5190 O   0  0  0  0  0  0  0  0  0  0  0  0
  -22.3210  -12.1150   22.3870 H   0  0  0  0  0  0  0  0  0  0  0  0
  -21.0180  -13.2390   22.1260 H   0  0  0  0  0  0  0  0  0  0  0  0
  -25.3400  -15.2850   20.2950 N   0  0  0  0  0  0  0  0  0  0  0  0
  -24.5770  -15.9420   20.4160 H   0  0  0  0  0  0  0  0  0  0  0  0
  -26.2170  -15.7290   20.0610 H   0  0  0  0  0  0  0  0  0  0  0  0
  -28.2650  -24.4280   19.7430 C   0  0  0  0  0  2  0  0  0  0  0  0
  -28.2020  -25.9640   20.2980 O   0  0  0  0  0  0  0  0  0  0  0  0
  -24.5770  -31.8550   23.1550 C   0  0  0  0  0  0  0  0  0  0  0  0
  -27.1860  -27.0340   20.1440 C   0  0  0  0  0  0  0  0  0  0  0  0
  -23.4050  -30.4560   21.5040 C   0  0  0  0  0  3  0  0  0  0  0  0
  -24.8750  -28.8810   20.0770 C   0  0  0  0  0  0  0  0  0  0  0  0
  -25.9660  -30.7000   21.3700 C   0  0  0  0  0  2  0  0  0  0  0  0
  -26.0500  -29.2970   20.7130 C   0  0  0  0  0  0  0  0  0  0  0  0
  -27.1970  -28.3910   20.7270 C   0  0  0  0  0  3  0  0  0  0  0  0
  -25.9850  -26.7680   19.4500 C   0  0  0  0  0  3  0  0  0  0  0  0
  -24.8670  -27.6380   19.4260 C   0  0  0  0  0  3  0  0  0  0  0  0
  -23.6460  -29.7880   20.1230 C   0  0  0  0  0  2  0  0  0  0  0  0
  -24.6700  -31.0290   22.0650 N   0  0  0  0  0  0  0  0  0  0  0  0
  -23.4840  -32.1280   23.6740 O   0  0  0  0  0  0  0  0  0  0  0  0
  -22.7210  -29.4430   22.4600 C   0  0  0  0  0  0  0  0  0  0  0  0
  -21.3890  -29.2840   22.3470 N   0  0  0  0  0  0  0  0  0  0  0  0
  -23.3960  -28.8040   23.2720 O   0  0  0  0  0  0  0  0  0  0  0  0
  -20.8970  -29.8490   21.6670 H   0  0  0  0  0  0  0  0  0  0  0  0
  -18.0070  -28.0980   22.8850 C   0  0  0  0  0  0  0  0  0  0  0  0
  -20.5720  -28.3410   23.1150 C   0  0  0  0  0  3  0  0  0  0  0  0
  -20.6560  -26.9170   22.5170 C   0  0  0  0  0  2  0  0  0  0  0  0
  -19.5360  -26.6200   21.5150 C   0  0  0  0  0  2  0  0  0  0  0  0
  -18.1650  -26.7610   22.1810 C   0  0  0  0  0  2  0  0  0  0  0  0
  -19.1370  -28.8470   23.3110 C   0  0  0  0  0  0  0  0  0  0  0  0
  -18.9310  -30.0970   23.9350 C   0  0  0  0  0  3  0  0  0  0  0  0
  -17.6320  -30.6000   24.1340 C   0  0  0  0  0  3  0  0  0  0  0  0
  -16.5170  -29.8470   23.7250 C   0  0  0  0  0  3  0  0  0  0  0  0
  -16.7060  -28.5980   23.1050 C   0  0  0  0  0  3  0  0  0  0  0  0
  -25.8400  -32.5080   23.7930 C   0  0  0  0  0  3  0  0  0  0  0  0
  -25.5050  -33.8990   24.1470 N   0  0  0  0  0  0  0  0  0  0  0  0
  -25.8150  -34.9750   23.4120 C   0  0  0  0  0  0  0  0  0  0  0  0
  -26.4810  -34.9040   22.3770 O   0  0  0  0  0  0  0  0  0  0  0  0
  -24.9100  -34.0260   24.9520 H   0  0  0  0  0  0  0  0  0  0  0  0
  -24.0550  -36.7500   23.1140 C   0  0  0  0  0  1  0  0  0  0  0  0
  -25.3110  -36.3480   23.9030 C   0  0  0  0  0  3  0  0  0  0  0  0
  -27.4380  -37.2560   24.7280 C   0  0  0  0  0  1  0  0  0  0  0  0
  -26.3240  -37.4210   23.7980 N   0  0  0  0  0  0  0  0  0  0  0  0
  -25.9030  -38.3310   23.9670 H   0  0  0  0  0  0  0  0  0  0  0  0
  -26.3580  -31.7350   25.0690 C   0  0  1  0  0  0  0  0  0  0  0  0
  -25.2630  -31.4790   26.1310 C   0  0  0  0  0  1  0  0  0  0  0  0
  -26.9610  -30.3650   24.6800 C   0  0  0  0  0  1  0  0  0  0  0  0
  -27.4970  -32.5380   25.7420 C   0  0  0  0  0  1  0  0  0  0  0  0
  1  5  1  0
  2  3  2  0
  3  8  1  0
  3  6  1  0
  4  2  1  0
  4  1  2  0
  5  6  2  0
  5 12  1  0
  6 13  1  0
  7  2  1  0
  9  7  1  0
  9 10  1  0
 10  8  1  0
 10 14  1  1
 11  4  1  0
 15  1  1  0
 16 21  1  0
 17 18  1  0
 17 16  1  0
 19 18  1  0
 19 26  1  0
 19 20  1  0
 21 15  1  0
 21 20  1  0
 22 15  2  0
 23 24  2  0
 24 43  1  0
 25 24  1  0
 25 28  1  0
 26 23  1  0
 26 27  1  0
 27 25  2  0
 28 29  1  0
 29 30  2  0
 31 34  1  0
 31 30  1  0
 32 31  2  0
 33 32  1  0
 33 28  2  0
 34 35  1  0
 35 36  1  0
 36 37  2  0
 38 37  1  0
 38 42  1  0
 39 38  2  0
 40 35  2  0
 40 39  1  0
 41 40  1  0
 43 44  1  0
 44 47  1  0
 44 46  1  0
 45 43  2  0
 48 49  1  0
 48 23  1  0
 50 48  1  0
 51 10  1  0
 51 52  1  0
 53 64  2  0
 54 52  1  0
 54 59  1  0
 55 63  1  0
 55 65  1  0
 56 62  1  0
 56 58  1  0
 57 63  1  0
 58 59  2  0
 58 57  1  0
 60 54  2  0
 61 60  1  0
 61 56  2  0
 62 55  1  0
 63 53  1  0
 65 67  2  0
 66 65  1  0
 68 66  1  0
 69 78  2  0
 69 74  1  0
 70 66  1  0
 70 74  1  0
 71 70  1  0
 72 73  1  0
 72 71  1  0
 73 69  1  0
 74 75  2  0
 75 76  1  0
 77 76  2  0
 78 77  1  0
 79 53  1  0
 79 80  1  0
 79 89  1  0
 80 83  1  0
 81 85  1  0
 81 80  1  0
 82 81  2  0
 85 84  1  0
 87 85  1  0
 87 88  1  0
 87 86  1  0
 89 92  1  1
 89 90  1  0
 91 89  1  0
M  ISO  4   1 100  15 100  51 101  52 101
M  END
>  <TORSDO>  (37) 
F 17

>  <SCORE>  (37) 
-15.561

>  <name>  (37) 
36

>  <ligand_id>  (37) 
36

>  <original_smiles>  (37) 
[H]c1c([H])c([H])c2c(c1[H])C([H])([H])C([H])([H])C([H])([H])C2([H])N([H])C(=O)C1([H])N(C(=O)C([H])(N([H])C(=O)C([H])(N([H])C([H])([H])[H])C([H])([H])[H])C(C([H])([H])[H])(C([H])([H])[H])C([H])([H])[H])C([H])([H])c2c([H])c(OC([H])([H])C3(C([H])([H])[H])C([H])([H])c4c(C([H])([H])[H])c(C([H])([H])[H])c(C(=O)N5C([H])([H])C([H])([H])C([H])([H])C([H])(n6nc(-c7c([H])c([H])c(Oc8c([H])c([H])c(F)c([H])c8F)c([H])c7[H])c(C(=O)N([H])[H])c6N([H])[H])C5([H])[H])c(C([H])([H])[H])c4C([H])([H])C3([H])[H])c([H])c([H])c2C1([H])[H]

>  <smiles>  (37) 
[H]c1c([H])c([H])c2c(c1[H])C([H])([H])C([H])([H])C([H])([H])C2([H])N([H])C(=O)C1([H])N(C(=O)C([H])(N([H])C(=O)C([H])(N([H])C([H])([H])[H])C([H])([H])[H])C(C([H])([H])[H])(C([H])([H])[H])C([H])([H])[H])C([H])([H])c2c([H])c(OC([H])([H])C3(C([H])([H])[H])C([H])([H])c4c(C([H])([H])[H])c(C([H])([H])[H])c(C(=O)N5C([H])([H])C([H])([H])C([H])([H])C([H])(n6nc(-c7c([H])c([H])c(Oc8c([H])c([H])c(F)c([H])c8F)c([H])c7[H])c(C(=O)N([H])[H])c6N([H])[H])C5([H])[H])c(C([H])([H])[H])c4C([H])([H])C3([H])[H])c([H])c([H])c2C1([H])[H]

$$$$
37:0:0
     RDKit          3D

 95104  0  0  1  0  0  0  0  0999 V2000
  -29.3290  -24.4680   19.4570 C   0  0  0  0  0  3  0  0  0  0  0  0
  -29.4070  -24.4980   22.2370 C   0  0  0  0  0  3  0  0  0  0  0  0
  -29.5500  -23.2270   20.1500 C   0  0  0  0  0  0  0  0  0  0  0  0
  -29.2180  -25.7120   21.5420 C   0  0  0  0  0  0  0  0  0  0  0  0
  -29.1300  -25.7210   20.1250 C   0  0  0  0  0  0  0  0  0  0  0  0
  -29.5620  -23.2600   21.5690 C   0  0  0  0  0  0  0  0  0  0  0  0
  -29.1680  -26.9900   22.3680 C   0  0  0  0  0  1  0  0  0  0  0  0
  -29.8780  -21.9450   19.3830 C   0  0  0  0  0  0  0  0  0  0  0  0
  -30.6800  -21.9580   18.4450 O   0  0  0  0  0  0  0  0  0  0  0  0
  -29.1340  -20.5980   19.6940 C   0  0  0  0  0  2  0  0  0  0  0  0
  -31.4010  -15.0440   20.1010 C   0  0  0  0  0  0  0  0  0  0  0  0
  -31.0850  -12.7730   19.1630 C   0  0  0  0  0  2  0  0  0  0  0  0
  -30.1340  -12.8320   17.9510 C   0  0  0  0  0  2  0  0  0  0  0  0
  -28.6640  -12.7250   18.4090 C   0  0  0  0  0  2  0  0  0  0  0  0
  -28.3310  -13.6570   19.6100 C   0  0  0  0  0  3  0  0  0  0  0  0
  -29.4090  -13.5350   20.7090 C   0  0  0  0  0  2  0  0  0  0  0  0
  -30.6860  -13.8710   20.0700 N   0  0  0  0  0  0  0  0  0  0  0  0
  -32.6040  -15.0060   19.8120 O   0  0  0  0  0  0  0  0  0  0  0  0
  -30.7980  -18.6770   18.9730 C   0  0  0  0  0  2  0  0  0  0  0  0
  -29.0420  -18.1470   20.5620 C   0  0  0  0  0  2  0  0  0  0  0  0
  -31.5570  -17.3910   19.4080 C   0  0  0  0  0  2  0  0  0  0  0  0
  -29.7490  -16.8070   20.9590 C   0  0  0  0  0  2  0  0  0  0  0  0
  -29.9610  -19.3030   20.0990 C   0  0  0  0  0  3  0  0  0  0  0  0
  -30.7580  -16.2770   20.0050 N   0  0  0  0  0  0  0  0  0  0  0  0
  -25.9900  -14.3280   20.4210 C   0  0  0  0  0  0  0  0  0  0  0  0
  -24.8970  -13.5860   20.7810 C   0  0  0  0  0  0  0  0  0  0  0  0
  -25.2960  -12.2200   20.6740 C   0  0  0  0  0  0  0  0  0  0  0  0
  -26.9880  -13.4130   20.1200 N   0  0  0  0  0  0  0  0  0  0  0  0
  -26.5750  -12.1380   20.3290 N   0  0  0  0  0  0  0  0  0  0  0  0
  -24.5170  -10.9850   20.8240 C   0  0  0  0  0  0  0  0  0  0  0  0
  -24.8490  -10.0130   21.7920 C   0  0  0  0  0  3  0  0  0  0  0  0
  -24.0720   -8.8420   21.9300 C   0  0  0  0  0  3  0  0  0  0  0  0
  -22.9460   -8.6360   21.0980 C   0  0  0  0  0  0  0  0  0  0  0  0
  -22.6310   -9.5960   20.1200 C   0  0  0  0  0  3  0  0  0  0  0  0
  -23.4090  -10.7580   19.9810 C   0  0  0  0  0  3  0  0  0  0  0  0
  -22.1500   -7.5170   21.1430 O   0  0  0  0  0  0  0  0  0  0  0  0
  -21.8860   -6.8690   22.3230 C   0  0  0  0  0  0  0  0  0  0  0  0
  -21.2520   -7.5170   23.4030 C   0  0  0  0  0  3  0  0  0  0  0  0
  -20.9360   -6.7960   24.5710 C   0  0  0  0  0  3  0  0  0  0  0  0
  -21.2440   -5.4250   24.6580 C   0  0  0  0  0  0  0  0  0  0  0  0
  -21.8720   -4.7750   23.5800 C   0  0  0  0  0  3  0  0  0  0  0  0
  -22.1880   -5.4950   22.4140 C   0  0  0  0  0  0  0  0  0  0  0  0
  -22.7740   -4.8590   21.3700 F   0  0  0  0  0  0  0  0  0  0  0  0
  -20.9340   -4.7270   25.7760 F   0  0  0  0  0  0  0  0  0  0  0  0
  -23.5310  -14.1170   21.1130 C   0  0  0  0  0  0  0  0  0  0  0  0
  -22.8020  -13.4310   21.9850 N   0  0  0  0  0  0  0  0  0  0  0  0
  -23.1220  -15.1710   20.6310 O   0  0  0  0  0  0  0  0  0  0  0  0
  -23.1500  -12.5800   22.4010 H   0  0  0  0  0  0  0  0  0  0  0  0
  -21.8850  -13.7660   22.2450 H   0  0  0  0  0  0  0  0  0  0  0  0
  -26.2110  -15.6980   20.3030 N   0  0  0  0  0  0  0  0  0  0  0  0
  -25.4760  -16.3760   20.4820 H   0  0  0  0  0  0  0  0  0  0  0  0
  -27.0760  -16.1210   19.9950 H   0  0  0  0  0  0  0  0  0  0  0  0
  -29.2790  -22.0520   23.6130 C   0  0  0  0  0  1  0  0  0  0  0  0
  -29.7870  -22.1030   22.2840 O   0  0  0  0  0  0  0  0  0  0  0  0
  -28.9270  -26.9190   19.4150 O   0  0  0  0  0  0  0  0  0  0  0  0
  -24.7120  -31.4000   23.0910 C   0  0  0  0  0  0  0  0  0  0  0  0
  -27.7040  -27.5740   19.5020 C   0  0  0  0  0  0  0  0  0  0  0  0
  -23.5940  -29.9630   21.4220 C   0  0  0  0  0  3  0  0  0  0  0  0
  -25.1370  -28.7580   19.7750 C   0  0  0  0  0  0  0  0  0  0  0  0
  -26.0260  -30.6900   21.0870 C   0  0  0  0  0  2  0  0  0  0  0  0
  -26.2550  -29.3960   20.3240 C   0  0  0  0  0  0  0  0  0  0  0  0
  -27.5450  -28.8200   20.1710 C   0  0  0  0  0  3  0  0  0  0  0  0
  -26.5630  -26.9710   18.9340 C   0  0  0  0  0  3  0  0  0  0  0  0
  -25.2870  -27.5530   19.0680 C   0  0  0  0  0  3  0  0  0  0  0  0
  -23.7920  -29.4240   19.9790 C   0  0  0  0  0  2  0  0  0  0  0  0
  -24.7980  -30.6990   21.9250 N   0  0  0  0  0  0  0  0  0  0  0  0
  -23.6460  -31.4750   23.7190 O   0  0  0  0  0  0  0  0  0  0  0  0
  -23.1650  -28.7930   22.3350 C   0  0  0  0  0  0  0  0  0  0  0  0
  -21.9300  -28.3000   22.1400 N   0  0  0  0  0  0  0  0  0  0  0  0
  -23.9390  -28.3320   23.1770 O   0  0  0  0  0  0  0  0  0  0  0  0
  -21.3520  -28.7380   21.4370 H   0  0  0  0  0  0  0  0  0  0  0  0
  -19.0510  -26.1150   22.2650 C   0  0  0  0  0  0  0  0  0  0  0  0
  -21.3350  -27.1710   22.8540 C   0  0  0  0  0  3  0  0  0  0  0  0
  -21.9580  -25.8320   22.3950 C   0  0  0  0  0  2  0  0  0  0  0  0
  -21.1690  -25.1480   21.2740 C   0  0  0  0  0  2  0  0  0  0  0  0
  -19.7330  -24.8700   21.7240 C   0  0  0  0  0  2  0  0  0  0  0  0
  -19.8030  -27.2020   22.7840 C   0  0  0  0  0  0  0  0  0  0  0  0
  -19.1230  -28.3510   23.2430 C   0  0  0  0  0  3  0  0  0  0  0  0
  -17.7170  -28.4220   23.1950 C   0  0  0  0  0  3  0  0  0  0  0  0
  -16.9780  -27.3370   22.6960 C   0  0  0  0  0  3  0  0  0  0  0  0
  -17.6420  -26.1860   22.2370 C   0  0  0  0  0  3  0  0  0  0  0  0
  -25.9400  -32.1680   23.6770 C   0  0  0  0  0  3  0  0  0  0  0  0
  -26.6050  -31.4310   24.9030 C   0  0  1  0  0  0  0  0  0  0  0  0
  -25.5990  -31.0370   26.0100 C   0  0  0  0  0  1  0  0  0  0  0  0
  -27.3260  -30.1440   24.4390 C   0  0  0  0  0  1  0  0  0  0  0  0
  -27.6820  -32.3390   25.5390 C   0  0  0  0  0  1  0  0  0  0  0  0
  -25.4810  -33.5080   24.0640 N   0  0  0  0  0  0  0  0  0  0  0  0
  -25.7290  -34.6280   23.3720 C   0  0  0  0  0  0  0  0  0  0  0  0
  -26.4370  -34.6480   22.3620 O   0  0  0  0  0  0  0  0  0  0  0  0
  -24.8510  -33.5570   24.8510 H   0  0  0  0  0  0  0  0  0  0  0  0
  -23.8620  -36.2760   23.0200 C   0  0  0  0  0  1  0  0  0  0  0  0
  -25.0880  -35.9340   23.8820 C   0  0  0  0  0  3  0  0  0  0  0  0
  -27.0810  -36.9510   24.8950 C   0  0  0  0  0  1  0  0  0  0  0  0
  -26.0240  -37.0810   23.8950 N   0  0  0  0  0  0  0  0  0  0  0  0
  -25.5250  -37.9490   24.0720 H   0  0  0  0  0  0  0  0  0  0  0  0
  1  5  2  0
  1  3  1  0
  3  6  2  0
  4  2  2  0
  4  7  1  0
  5  4  1  0
  6  2  1  0
  6 54  1  0
  8 10  1  0
  8  3  1  0
  9  8  2  0
 12 17  1  0
 13 14  1  0
 13 12  1  0
 15 14  1  0
 15 28  1  0
 15 16  1  0
 17 11  1  0
 17 16  1  0
 18 11  2  0
 19 21  1  0
 19 23  1  0
 20 22  1  0
 21 24  1  0
 23 10  1  0
 23 20  1  0
 24 11  1  0
 24 22  1  0
 25 26  2  0
 26 45  1  0
 27 26  1  0
 27 30  1  0
 28 29  1  0
 28 25  1  0
 29 27  2  0
 30 31  1  0
 31 32  2  0
 33 36  1  0
 33 32  1  0
 34 33  2  0
 35 34  1  0
 35 30  2  0
 36 37  1  0
 37 42  2  0
 37 38  1  0
 38 39  2  0
 39 40  1  0
 40 44  1  0
 41 40  2  0
 42 41  1  0
 43 42  1  0
 45 46  1  0
 46 49  1  0
 46 48  1  0
 47 45  2  0
 50 25  1  0
 50 51  1  0
 52 50  1  0
 54 53  1  0
 55 57  1  0
 55  5  1  0
 56 67  2  0
 57 62  1  0
 58 66  1  0
 58 68  1  0
 59 65  1  0
 59 61  1  0
 60 66  1  0
 61 60  1  0
 62 61  2  0
 63 64  1  0
 63 57  2  0
 64 59  2  0
 65 58  1  0
 66 56  1  0
 68 70  2  0
 69 68  1  0
 71 69  1  0
 72 77  1  0
 73 69  1  0
 74 73  1  0
 75 76  1  0
 75 74  1  0
 76 72  1  0
 77 73  1  0
 77 78  2  0
 79 78  1  0
 80 79  2  0
 81 72  2  0
 81 80  1  0
 82 56  1  0
 82 87  1  0
 82 83  1  0
 83 86  1  1
 83 84  1  0
 85 83  1  0
 87 90  1  0
 88 92  1  0
 88 87  1  0
 89 88  2  0
 92 91  1  0
 92 94  1  0
 94 95  1  0
 94 93  1  0
M  ISO  4   5 101  11 100  24 100  55 101
M  END
>  <TORSDO>  (38) 
F 19

>  <SCORE>  (38) 
-11.601

>  <name>  (38) 
37

>  <ligand_id>  (38) 
37

>  <original_smiles>  (38) 
[H]c1c([H])c([H])c2c(c1[H])C([H])([H])C([H])([H])C([H])([H])C2([H])N([H])C(=O)C1([H])N(C(=O)C([H])(N([H])C(=O)C([H])(N([H])C([H])([H])[H])C([H])([H])[H])C(C([H])([H])[H])(C([H])([H])[H])C([H])([H])[H])C([H])([H])c2c([H])c(Oc3c([H])c(C(=O)C([H])([H])C4([H])C([H])([H])C([H])([H])N(C(=O)N5C([H])([H])C([H])([H])C([H])([H])C([H])(n6nc(-c7c([H])c([H])c(Oc8c([H])c([H])c(F)c([H])c8F)c([H])c7[H])c(C(=O)N([H])[H])c6N([H])[H])C5([H])[H])C([H])([H])C4([H])[H])c(OC([H])([H])[H])c([H])c3C([H])([H])[H])c([H])c([H])c2C1([H])[H]

>  <smiles>  (38) 
[H]c1c([H])c([H])c2c(c1[H])C([H])([H])C([H])([H])C([H])([H])C2([H])N([H])C(=O)C1([H])N(C(=O)C([H])(N([H])C(=O)C([H])(N([H])C([H])([H])[H])C([H])([H])[H])C(C([H])([H])[H])(C([H])([H])[H])C([H])([H])[H])C([H])([H])c2c([H])c(Oc3c([H])c(C(=O)C([H])([H])C4([H])C([H])([H])C([H])([H])N(C(=O)N5C([H])([H])C([H])([H])C([H])([H])C([H])(n6nc(-c7c([H])c([H])c(Oc8c([H])c([H])c(F)c([H])c8F)c([H])c7[H])c(C(=O)N([H])[H])c6N([H])[H])C5([H])[H])C([H])([H])C4([H])[H])c(OC([H])([H])[H])c([H])c3C([H])([H])[H])c([H])c([H])c2C1([H])[H]

$$$$
38:0:0
     RDKit          3D

 98107  0  0  1  0  0  0  0  0999 V2000
  -28.5420  -20.6880   20.3470 C   0  0  0  0  0  3  0  0  0  0  0  0
  -27.3060  -20.5090   19.7100 C   0  0  0  0  0  3  0  0  0  0  0  0
  -29.6150  -19.2050   18.7180 C   0  0  0  0  0  0  0  0  0  0  0  0
  -29.7130  -20.0650   19.8540 C   0  0  0  0  0  0  0  0  0  0  0  0
  -27.2020  -19.6810   18.5810 C   0  0  0  0  0  0  0  0  0  0  0  0
  -28.3490  -19.0090   18.0900 C   0  0  0  0  0  0  0  0  0  0  0  0
  -31.4990  -17.5680   18.8410 C   0  0  0  0  0  3  0  0  0  0  0  0
  -30.8070  -18.5120   18.1630 C   0  0  0  0  0  0  0  0  0  0  0  0
  -31.4930  -18.6280   21.1310 C   0  0  0  0  0  2  0  0  0  0  0  0
  -31.0470  -20.2570   20.5930 C   0  0  0  0  0  3  0  0  0  0  0  0
  -31.2510  -17.1070   20.2670 C   0  0  0  0  0  3  0  0  0  0  0  0
  -25.8400  -19.5250   17.9230 C   0  0  0  0  0  1  0  0  0  0  0  0
  -28.2100  -18.0650   16.8950 C   0  0  0  0  0  1  0  0  0  0  0  0
  -31.8990  -15.4950   20.4160 C   0  0  0  0  0  0  0  0  0  0  0  0
  -31.6170  -13.1300   19.4250 C   0  0  0  0  0  2  0  0  0  0  0  0
  -30.7490  -13.1640   18.1400 C   0  0  0  0  0  2  0  0  0  0  0  0
  -29.2490  -13.0860   18.4840 C   0  0  0  0  0  2  0  0  0  0  0  0
  -28.8740  -14.0290   19.6550 C   0  0  0  0  0  3  0  0  0  0  0  0
  -29.8630  -13.9400   20.8310 C   0  0  0  0  0  2  0  0  0  0  0  0
  -31.1970  -14.2700   20.3100 N   0  0  0  0  0  0  0  0  0  0  0  0
  -33.1260  -15.3520   20.3140 O   0  0  0  0  0  0  0  0  0  0  0  0
  -26.5410  -14.8530   20.2770 C   0  0  0  0  0  0  0  0  0  0  0  0
  -25.3780  -14.2030   20.5740 C   0  0  0  0  0  0  0  0  0  0  0  0
  -25.6910  -12.8090   20.5660 C   0  0  0  0  0  0  0  0  0  0  0  0
  -27.4900  -13.8660   20.0830 N   0  0  0  0  0  0  0  0  0  0  0  0
  -26.9860  -12.6280   20.3310 N   0  0  0  0  0  0  0  0  0  0  0  0
  -24.8150  -11.6370   20.7090 C   0  0  0  0  0  0  0  0  0  0  0  0
  -25.1680  -10.5460   21.5330 C   0  0  0  0  0  3  0  0  0  0  0  0
  -24.2980   -9.4420   21.6710 C   0  0  0  0  0  3  0  0  0  0  0  0
  -23.0610   -9.4220   20.9830 C   0  0  0  0  0  0  0  0  0  0  0  0
  -22.7250  -10.5020   20.1460 C   0  0  0  0  0  3  0  0  0  0  0  0
  -23.5940  -11.5970   20.0060 C   0  0  0  0  0  3  0  0  0  0  0  0
  -22.1660   -8.3810   21.0350 O   0  0  0  0  0  0  0  0  0  0  0  0
  -22.0330   -7.6020   22.1560 C   0  0  0  0  0  0  0  0  0  0  0  0
  -21.6400   -8.1440   23.3990 C   0  0  0  0  0  3  0  0  0  0  0  0
  -21.4480   -7.2950   24.5090 C   0  0  0  0  0  3  0  0  0  0  0  0
  -21.6400   -5.9080   24.3760 C   0  0  0  0  0  0  0  0  0  0  0  0
  -22.0260   -5.3650   23.1370 C   0  0  0  0  0  3  0  0  0  0  0  0
  -22.2190   -6.2100   22.0300 C   0  0  0  0  0  0  0  0  0  0  0  0
  -22.5700   -5.6800   20.8340 F   0  0  0  0  0  0  0  0  0  0  0  0
  -21.4480   -5.0910   25.4380 F   0  0  0  0  0  0  0  0  0  0  0  0
  -24.0300  -14.8370   20.7560 C   0  0  0  0  0  0  0  0  0  0  0  0
  -23.2050  -14.2810   21.6380 N   0  0  0  0  0  0  0  0  0  0  0  0
  -23.7190  -15.8610   20.1500 O   0  0  0  0  0  0  0  0  0  0  0  0
  -23.4700  -13.4530   22.1510 H   0  0  0  0  0  0  0  0  0  0  0  0
  -22.2970  -14.6920   21.8020 H   0  0  0  0  0  0  0  0  0  0  0  0
  -26.8680  -16.1960   20.1280 N   0  0  0  0  0  0  0  0  0  0  0  0
  -26.1690  -16.9270   20.1930 H   0  0  0  0  0  0  0  0  0  0  0  0
  -27.7680  -16.5460   19.8260 H   0  0  0  0  0  0  0  0  0  0  0  0
  -31.0380  -21.6760   21.4460 N   0  0  0  0  0  4  0  0  0  0  0  0
  -31.8460  -21.6200   22.0450 H   0  0  0  0  0  0  0  0  0  0  0  0
  -30.2520  -21.5880   22.0710 H   0  0  0  0  0  0  0  0  0  0  0  0
  -31.0190  -23.2450   20.9080 C   0  0  0  0  0  3  0  0  0  0  0  0
  -30.2170  -24.6820   21.5880 C   0  0  0  0  0  3  0  0  0  0  0  0
  -30.1540  -26.2740   21.2200 O   0  0  0  0  0  0  0  0  0  0  0  0
  -25.1910  -31.4740   23.4890 C   0  0  0  0  0  0  0  0  0  0  0  0
  -28.9600  -27.1310   21.0450 C   0  0  0  0  0  0  0  0  0  0  0  0
  -24.5160  -29.8960   21.7230 C   0  0  0  0  0  3  0  0  0  0  0  0
  -26.4150  -28.5600   20.5920 C   0  0  0  0  0  0  0  0  0  0  0  0
  -26.9980  -30.5500   21.9630 C   0  0  0  0  0  2  0  0  0  0  0  0
  -27.4040  -29.1730   21.3690 C   0  0  0  0  0  0  0  0  0  0  0  0
  -28.6770  -28.4820   21.5660 C   0  0  0  0  0  3  0  0  0  0  0  0
  -27.9230  -26.6440   20.2220 C   0  0  0  0  0  3  0  0  0  0  0  0
  -26.6940  -27.3180   20.0000 C   0  0  0  0  0  3  0  0  0  0  0  0
  -25.0680  -29.2590   20.4190 C   0  0  0  0  0  2  0  0  0  0  0  0
  -25.5770  -30.6690   22.4480 N   0  0  0  0  0  0  0  0  0  0  0  0
  -24.0010  -31.5750   23.8300 O   0  0  0  0  0  0  0  0  0  0  0  0
  -23.8580  -28.7970   22.5960 C   0  0  0  0  0  0  0  0  0  0  0  0
  -22.7120  -28.2520   22.1480 N   0  0  0  0  0  0  0  0  0  0  0  0
  -24.3940  -28.4330   23.6470 O   0  0  0  0  0  0  0  0  0  0  0  0
  -22.3230  -28.6080   21.2860 H   0  0  0  0  0  0  0  0  0  0  0  0
  -19.7360  -26.1900   21.9270 C   0  0  0  0  0  0  0  0  0  0  0  0
  -21.9720  -27.1620   22.7920 C   0  0  0  0  0  3  0  0  0  0  0  0
  -22.5850  -25.7880   22.4360 C   0  0  0  0  0  2  0  0  0  0  0  0
  -21.9220  -25.1270   21.2230 C   0  0  0  0  0  2  0  0  0  0  0  0
  -20.4270  -24.9130   21.4780 C   0  0  0  0  0  2  0  0  0  0  0  0
  -20.4640  -27.2520   22.5290 C   0  0  0  0  0  0  0  0  0  0  0  0
  -19.7750  -28.4280   22.9000 C   0  0  0  0  0  3  0  0  0  0  0  0
  -18.3910  -28.5530   22.6770 C   0  0  0  0  0  3  0  0  0  0  0  0
  -17.6750  -27.4940   22.0930 C   0  0  0  0  0  3  0  0  0  0  0  0
  -18.3460  -26.3140   21.7230 C   0  0  0  0  0  3  0  0  0  0  0  0
  -26.2240  -32.3190   24.2950 C   0  0  0  0  0  3  0  0  0  0  0  0
  -25.7020  -33.6940   24.3980 N   0  0  0  0  0  0  0  0  0  0  0  0
  -26.0530  -34.7110   23.5990 C   0  0  0  0  0  0  0  0  0  0  0  0
  -26.9110  -34.5990   22.7190 O   0  0  0  0  0  0  0  0  0  0  0  0
  -24.9540  -33.8420   25.0590 H   0  0  0  0  0  0  0  0  0  0  0  0
  -24.2140  -36.2220   22.7760 C   0  0  0  0  0  1  0  0  0  0  0  0
  -25.3430  -36.0640   23.8070 C   0  0  0  0  0  3  0  0  0  0  0  0
  -27.1810  -37.3170   24.8500 C   0  0  0  0  0  1  0  0  0  0  0  0
  -26.2550  -37.2270   23.7250 N   0  0  0  0  0  0  0  0  0  0  0  0
  -25.7290  -38.0960   23.6770 H   0  0  0  0  0  0  0  0  0  0  0  0
  -26.5130  -31.7390   25.7340 C   0  0  1  0  0  0  0  0  0  0  0  0
  -25.2450  -31.2520   26.4750 C   0  0  0  0  0  1  0  0  0  0  0  0
  -27.4980  -30.5510   25.6620 C   0  0  0  0  0  1  0  0  0  0  0  0
  -27.1910  -32.8190   26.6080 C   0  0  0  0  0  1  0  0  0  0  0  0
  -31.2620  -18.9840   16.7870 C   0  0  0  0  0  2  0  0  0  0  0  0
  -33.1370  -19.9570   15.3550 C   0  0  0  0  0  1  0  0  0  0  0  0
  -32.7510  -19.3710   16.7180 C   0  0  0  0  0  2  0  0  0  0  0  0
  2  1  2  0
  3  4  2  0
  4  1  1  0
  4 10  1  0
  5  2  1  0
  6  5  2  0
  6  3  1  0
  7 11  1  0
  8  3  1  0
  8  7  2  0
 10  9  1  0
 10 50  1  0
 11 14  1  0
 11  9  1  0
 12  5  1  0
 13  6  1  0
 15 20  1  0
 16 17  1  0
 16 15  1  0
 18 17  1  0
 18 25  1  0
 18 19  1  0
 20 14  1  0
 20 19  1  0
 21 14  2  0
 22 23  2  0
 23 42  1  0
 24 23  1  0
 24 27  1  0
 25 22  1  0
 25 26  1  0
 26 24  2  0
 27 28  1  0
 28 29  2  0
 30 33  1  0
 30 29  1  0
 31 30  2  0
 32 31  1  0
 32 27  2  0
 33 34  1  0
 34 35  1  0
 35 36  2  0
 37 36  1  0
 37 41  1  0
 38 37  2  0
 39 34  2  0
 39 38  1  0
 40 39  1  0
 42 43  1  0
 43 46  1  0
 43 45  1  0
 44 42  2  0
 47 48  1  0
 47 22  1  0
 49 47  1  0
 50 51  1  0
 50 52  1  0
 53 50  1  0
 53 54  2  0
 55 54  1  0
 56 67  2  0
 57 55  1  0
 57 62  1  0
 58 66  1  0
 58 68  1  0
 59 61  1  0
 60 66  1  0
 61 62  2  0
 61 60  1  0
 63 57  2  0
 64 63  1  0
 64 59  2  0
 65 59  1  0
 65 58  1  0
 66 56  1  0
 68 70  2  0
 69 68  1  0
 71 69  1  0
 72 77  1  0
 73 69  1  0
 74 73  1  0
 75 76  1  0
 75 74  1  0
 76 72  1  0
 77 73  1  0
 77 78  2  0
 79 78  1  0
 80 79  2  0
 81 72  2  0
 81 80  1  0
 82 56  1  0
 82 83  1  0
 82 92  1  0
 83 86  1  0
 84 88  1  0
 84 83  1  0
 85 84  2  0
 88 87  1  0
 90 88  1  0
 90 89  1  0
 91 90  1  0
 92 93  1  1
 92 95  1  0
 94 92  1  0
 96  8  1  0
 97 98  1  0
 98 96  1  0
M  ISO  4  11 100  14 100  54 101  55 101
M  END
>  <TORSDO>  (39) 
F 21

>  <SCORE>  (39) 
-10.488

>  <name>  (39) 
38

>  <ligand_id>  (39) 
38

>  <original_smiles>  (39) 
[H]C1=C(C([H])([H])C([H])([H])C([H])([H])[H])c2c(C([H])([H])[H])c(C([H])([H])[H])c([H])c([H])c2C([H])([N+]([H])([H])C([H])([H])C([H])([H])Oc2c([H])c([H])c3c(c2[H])C([H])([H])N(C(=O)C([H])(N([H])C(=O)C([H])(N([H])C([H])([H])[H])C([H])([H])[H])C(C([H])([H])[H])(C([H])([H])[H])C([H])([H])[H])C([H])(C(=O)N([H])C2([H])c4c([H])c([H])c([H])c([H])c4C([H])([H])C([H])([H])C2([H])[H])C3([H])[H])C([H])([H])C1([H])C(=O)N1C([H])([H])C([H])([H])C([H])([H])C([H])(n2nc(-c3c([H])c([H])c(Oc4c([H])c([H])c(F)c([H])c4F)c([H])c3[H])c(C(=O)N([H])[H])c2N([H])[H])C1([H])[H]

>  <smiles>  (39) 
[H]C1=C(C([H])([H])C([H])([H])C([H])([H])[H])c2c(C([H])([H])[H])c(C([H])([H])[H])c([H])c([H])c2C([H])([N+]([H])([H])C([H])([H])C([H])([H])Oc2c([H])c([H])c3c(c2[H])C([H])([H])N(C(=O)C([H])(N([H])C(=O)C([H])(N([H])C([H])([H])[H])C([H])([H])[H])C(C([H])([H])[H])(C([H])([H])[H])C([H])([H])[H])C([H])(C(=O)N([H])C2([H])c4c([H])c([H])c([H])c([H])c4C([H])([H])C([H])([H])C2([H])[H])C3([H])[H])C([H])([H])C1([H])C(=O)N1C([H])([H])C([H])([H])C([H])([H])C([H])(n2nc(-c3c([H])c([H])c(Oc4c([H])c([H])c(F)c([H])c4F)c([H])c3[H])c(C(=O)N([H])[H])c2N([H])[H])C1([H])[H]

$$$$
39:0:0
     RDKit          3D

 95103  0  0  1  0  0  0  0  0999 V2000
  -28.7820  -22.7190   19.1740 C   0  0  0  0  0  3  0  0  0  0  0  0
  -29.1300  -23.0710   20.4930 C   0  0  0  0  0  0  0  0  0  0  0  0
  -28.3350  -23.6720   18.2430 C   0  0  0  0  0  0  0  0  0  0  0  0
  -28.9950  -24.4370   20.8920 C   0  0  0  0  0  0  0  0  0  0  0  0
  -28.2510  -25.0340   18.6250 C   0  0  0  0  0  0  0  0  0  0  0  0
  -28.5710  -25.4270   19.9520 C   0  0  0  0  0  0  0  0  0  0  0  0
  -29.2990  -24.8410   22.3270 C   0  0  0  0  0  1  0  0  0  0  0  0
  -27.8460  -25.9740   17.7190 O   0  0  0  0  0  0  0  0  0  0  0  0
  -27.4340  -25.5870   16.9550 H   0  0  0  0  0  0  0  0  0  0  0  0
  -28.5360  -26.7780   20.2920 O   0  0  0  0  0  0  0  0  0  0  0  0
  -24.7580  -31.9880   23.4040 C   0  0  0  0  0  0  0  0  0  0  0  0
  -27.3560  -27.5100   20.3040 C   0  0  0  0  0  0  0  0  0  0  0  0
  -23.5330  -30.5880   21.7730 C   0  0  0  0  0  3  0  0  0  0  0  0
  -24.9690  -29.0490   20.3330 C   0  0  0  0  0  0  0  0  0  0  0  0
  -26.0600  -30.9310   21.5560 C   0  0  0  0  0  2  0  0  0  0  0  0
  -26.1350  -29.5590   20.9170 C   0  0  0  0  0  0  0  0  0  0  0  0
  -27.3290  -28.7960   20.9010 C   0  0  0  0  0  3  0  0  0  0  0  0
  -26.1610  -27.0180   19.7300 C   0  0  0  0  0  3  0  0  0  0  0  0
  -24.9800  -27.7780   19.7370 C   0  0  0  0  0  3  0  0  0  0  0  0
  -23.7240  -29.9050   20.3930 C   0  0  0  0  0  2  0  0  0  0  0  0
  -24.8030  -31.1830   22.3030 N   0  0  0  0  0  0  0  0  0  0  0  0
  -23.6800  -32.2650   23.9520 O   0  0  0  0  0  0  0  0  0  0  0  0
  -22.8860  -29.5700   22.7400 C   0  0  0  0  0  0  0  0  0  0  0  0
  -21.5820  -29.3100   22.5480 N   0  0  0  0  0  0  0  0  0  0  0  0
  -23.5560  -29.0130   23.6130 O   0  0  0  0  0  0  0  0  0  0  0  0
  -21.1010  -29.8100   21.8130 H   0  0  0  0  0  0  0  0  0  0  0  0
  -18.2840  -27.8670   22.8340 C   0  0  0  0  0  0  0  0  0  0  0  0
  -20.7760  -28.3560   23.3080 C   0  0  0  0  0  3  0  0  0  0  0  0
  -21.0460  -26.9070   22.8410 C   0  0  0  0  0  2  0  0  0  0  0  0
  -20.0710  -26.4310   21.7600 C   0  0  0  0  0  2  0  0  0  0  0  0
  -18.6280  -26.4970   22.2730 C   0  0  0  0  0  2  0  0  0  0  0  0
  -19.2950  -28.7470   23.3050 C   0  0  0  0  0  0  0  0  0  0  0  0
  -18.9260  -30.0220   23.7830 C   0  0  0  0  0  3  0  0  0  0  0  0
  -17.5770  -30.4230   23.8000 C   0  0  0  0  0  3  0  0  0  0  0  0
  -16.5790  -29.5420   23.3490 C   0  0  0  0  0  3  0  0  0  0  0  0
  -16.9310  -28.2670   22.8720 C   0  0  0  0  0  3  0  0  0  0  0  0
  -26.0490  -32.6120   24.0130 C   0  0  0  0  0  3  0  0  0  0  0  0
  -26.5880  -31.8230   25.2690 C   0  0  1  0  0  0  0  0  0  0  0  0
  -25.5100  -31.5600   26.3450 C   0  0  0  0  0  1  0  0  0  0  0  0
  -27.1770  -30.4570   24.8460 C   0  0  0  0  0  1  0  0  0  0  0  0
  -27.7410  -32.6150   25.9330 C   0  0  0  0  0  1  0  0  0  0  0  0
  -25.7440  -34.0050   24.3660 N   0  0  0  0  0  0  0  0  0  0  0  0
  -26.0480  -35.0670   23.6100 C   0  0  0  0  0  0  0  0  0  0  0  0
  -26.6900  -34.9780   22.5570 O   0  0  0  0  0  0  0  0  0  0  0  0
  -25.1680  -34.1480   25.1840 H   0  0  0  0  0  0  0  0  0  0  0  0
  -24.2900  -36.8440   23.3330 C   0  0  0  0  0  1  0  0  0  0  0  0
  -25.5660  -36.4470   24.0950 C   0  0  0  0  0  3  0  0  0  0  0  0
  -27.7150  -37.3520   24.8580 C   0  0  0  0  0  1  0  0  0  0  0  0
  -26.5810  -37.5100   23.9500 N   0  0  0  0  0  0  0  0  0  0  0  0
  -26.1720  -38.4250   24.1120 H   0  0  0  0  0  0  0  0  0  0  0  0
  -29.6340  -21.9380   21.4140 C   0  0  0  0  0  2  0  0  0  0  0  0
  -30.7510  -21.0720   20.7660 C   0  0  0  0  0  2  0  0  0  0  0  0
  -31.1940  -19.7840   21.5130 C   0  0  0  0  0  2  0  0  0  0  0  0
  -30.3430  -18.5080   21.2670 C   0  0  0  0  0  2  0  0  0  0  0  0
  -31.2050  -17.2160   21.2110 C   0  0  0  0  0  2  0  0  0  0  0  0
  -30.4050  -15.8760   21.1950 C   0  0  0  0  0  2  0  0  0  0  0  0
  -31.1000  -14.6710   20.5000 C   0  0  0  0  0  0  0  0  0  0  0  0
  -30.7710  -12.5490   19.2620 C   0  0  0  0  0  2  0  0  0  0  0  0
  -29.8600  -12.8060   18.0430 C   0  0  0  0  0  2  0  0  0  0  0  0
  -28.3710  -12.7150   18.4330 C   0  0  0  0  0  2  0  0  0  0  0  0
  -28.0370  -13.5180   19.7190 C   0  0  0  0  0  3  0  0  0  0  0  0
  -29.0620  -13.2440   20.8380 C   0  0  0  0  0  2  0  0  0  0  0  0
  -30.4020  -13.5190   20.3070 N   0  0  0  0  0  0  0  0  0  0  0  0
  -32.2330  -14.8230   20.0350 O   0  0  0  0  0  0  0  0  0  0  0  0
  -25.6360  -14.1820   20.3570 C   0  0  0  0  0  0  0  0  0  0  0  0
  -24.5470  -13.4320   20.7170 C   0  0  0  0  0  0  0  0  0  0  0  0
  -24.9870  -12.0740   20.7210 C   0  0  0  0  0  0  0  0  0  0  0  0
  -26.6700  -13.2780   20.1700 N   0  0  0  0  0  0  0  0  0  0  0  0
  -26.2830  -12.0080   20.4480 N   0  0  0  0  0  0  0  0  0  0  0  0
  -24.2390  -10.8260   20.9220 C   0  0  0  0  0  0  0  0  0  0  0  0
  -24.6060   -9.9000   21.9220 C   0  0  0  0  0  3  0  0  0  0  0  0
  -23.8610   -8.7150   22.1080 C   0  0  0  0  0  3  0  0  0  0  0  0
  -22.7370   -8.4490   21.2920 C   0  0  0  0  0  0  0  0  0  0  0  0
  -22.3900   -9.3650   20.2840 C   0  0  0  0  0  3  0  0  0  0  0  0
  -23.1330  -10.5420   20.0980 C   0  0  0  0  0  3  0  0  0  0  0  0
  -21.9710   -7.3120   21.3800 O   0  0  0  0  0  0  0  0  0  0  0  0
  -21.8040   -6.6470   22.5670 C   0  0  0  0  0  0  0  0  0  0  0  0
  -21.2370   -7.2740   23.6970 C   0  0  0  0  0  3  0  0  0  0  0  0
  -21.0190   -6.5360   24.8770 C   0  0  0  0  0  3  0  0  0  0  0  0
  -21.3590   -5.1700   24.9260 C   0  0  0  0  0  0  0  0  0  0  0  0
  -21.9160   -4.5420   23.7970 C   0  0  0  0  0  3  0  0  0  0  0  0
  -22.1350   -5.2790   22.6210 C   0  0  0  0  0  0  0  0  0  0  0  0
  -22.6540   -4.6640   21.5300 F   0  0  0  0  0  0  0  0  0  0  0  0
  -21.1430   -4.4580   26.0550 F   0  0  0  0  0  0  0  0  0  0  0  0
  -23.1520  -13.9360   20.9490 C   0  0  0  0  0  0  0  0  0  0  0  0
  -22.3970  -13.2660   21.8140 N   0  0  0  0  0  0  0  0  0  0  0  0
  -22.7400  -14.9550   20.3960 O   0  0  0  0  0  0  0  0  0  0  0  0
  -22.7450  -12.4360   22.2730 H   0  0  0  0  0  0  0  0  0  0  0  0
  -21.4610  -13.5820   22.0190 H   0  0  0  0  0  0  0  0  0  0  0  0
  -25.8290  -15.5440   20.1540 N   0  0  0  0  0  0  0  0  0  0  0  0
  -25.0710  -16.2130   20.2290 H   0  0  0  0  0  0  0  0  0  0  0  0
  -26.7020  -15.9620   19.8570 H   0  0  0  0  0  0  0  0  0  0  0  0
  -28.0010  -23.1930   16.8320 C   0  0  0  0  0  2  0  0  0  0  0  0
  -26.6400  -21.0850   17.4440 C   0  0  0  0  0  1  0  0  0  0  0  0
  -26.6610  -22.4380   16.7190 C   0  0  0  0  0  2  0  0  0  0  0  0
  1  2  1  0
  2  4  2  0
  2 51  1  0
  3  5  1  0
  3  1  2  0
  4  7  1  0
  5  6  2  0
  6 10  1  0
  6  4  1  0
  8  5  1  0
  9  8  1  0
 10 12  1  0
 11 22  2  0
 12 17  1  0
 13 21  1  0
 13 23  1  0
 14 20  1  0
 14 16  1  0
 15 21  1  0
 16 15  1  0
 17 16  2  0
 18 19  1  0
 18 12  2  0
 19 14  2  0
 20 13  1  0
 21 11  1  0
 23 25  2  0
 24 23  1  0
 26 24  1  0
 27 36  2  0
 27 32  1  0
 28 24  1  0
 29 28  1  0
 30 31  1  0
 30 29  1  0
 31 27  1  0
 32 28  1  0
 32 33  2  0
 33 34  1  0
 35 34  2  0
 36 35  1  0
 37 11  1  0
 37 42  1  0
 37 38  1  0
 38 41  1  1
 38 39  1  0
 40 38  1  0
 42 45  1  0
 43 47  1  0
 43 42  1  0
 44 43  2  0
 47 46  1  0
 49 47  1  0
 49 50  1  0
 49 48  1  0
 52 51  1  0
 52 53  1  0
 54 53  1  0
 55 54  1  0
 56 55  1  0
 57 56  1  0
 58 63  1  0
 59 60  1  0
 59 58  1  0
 61 60  1  0
 61 68  1  0
 61 62  1  0
 63 57  1  0
 63 62  1  0
 64 57  2  0
 65 66  2  0
 66 67  1  0
 66 85  1  0
 67 70  1  0
 68 65  1  0
 68 69  1  0
 69 67  2  0
 70 71  1  0
 71 72  2  0
 73 76  1  0
 73 72  1  0
 74 73  2  0
 75 74  1  0
 75 70  2  0
 76 77  1  0
 77 82  2  0
 77 78  1  0
 78 79  2  0
 79 80  1  0
 80 84  1  0
 81 80  2  0
 82 81  1  0
 83 82  1  0
 85 86  1  0
 86 89  1  0
 86 88  1  0
 87 85  2  0
 90 91  1  0
 90 65  1  0
 92 90  1  0
 93  3  1  0
 95 93  1  0
 95 94  1  0
M  ISO  4   6 101  10 101  56 100  57 100
M  END
>  <TORSDO>  (40) 
F 25

>  <SCORE>  (40) 
-10.512

>  <name>  (40) 
39

>  <ligand_id>  (40) 
39

>  <original_smiles>  (40) 
[H]Oc1c(Oc2c([H])c([H])c3c(c2[H])C([H])([H])N(C(=O)C([H])(N([H])C(=O)C([H])(N([H])C([H])([H])[H])C([H])([H])[H])C(C([H])([H])[H])(C([H])([H])[H])C([H])([H])[H])C([H])(C(=O)N([H])C2([H])c4c([H])c([H])c([H])c([H])c4C([H])([H])C([H])([H])C2([H])[H])C3([H])[H])c(C([H])([H])[H])c(C([H])([H])C([H])([H])C([H])([H])C([H])([H])C([H])([H])C([H])([H])C(=O)N2C([H])([H])C([H])([H])C([H])([H])C([H])(n3nc(-c4c([H])c([H])c(Oc5c([H])c([H])c(F)c([H])c5F)c([H])c4[H])c(C(=O)N([H])[H])c3N([H])[H])C2([H])[H])c([H])c1C([H])([H])C([H])([H])C([H])([H])[H]

>  <smiles>  (40) 
[H]Oc1c(Oc2c([H])c([H])c3c(c2[H])C([H])([H])N(C(=O)C([H])(N([H])C(=O)C([H])(N([H])C([H])([H])[H])C([H])([H])[H])C(C([H])([H])[H])(C([H])([H])[H])C([H])([H])[H])C([H])(C(=O)N([H])C2([H])c4c([H])c([H])c([H])c([H])c4C([H])([H])C([H])([H])C2([H])[H])C3([H])[H])c(C([H])([H])[H])c(C([H])([H])C([H])([H])C([H])([H])C([H])([H])C([H])([H])C([H])([H])C(=O)N2C([H])([H])C([H])([H])C([H])([H])C([H])(n3nc(-c4c([H])c([H])c(Oc5c([H])c([H])c(F)c([H])c5F)c([H])c4[H])c(C(=O)N([H])[H])c3N([H])[H])C2([H])[H])c([H])c1C([H])([H])C([H])([H])C([H])([H])[H]

$$$$
40:0:0
     RDKit          3D

 94103  0  0  1  0  0  0  0  0999 V2000
  -31.3970  -22.1350   20.1900 C   0  0  0  0  0  3  0  0  0  0  0  0
  -32.3900  -23.1130   20.0980 C   0  0  0  0  0  3  0  0  0  0  0  0
  -30.6670  -24.7850   20.0010 C   0  0  0  0  0  3  0  0  0  0  0  0
  -29.9950  -22.3890   20.1910 C   0  0  0  0  0  0  0  0  0  0  0  0
  -29.5910  -23.8570   20.1050 C   0  0  0  0  0  0  0  0  0  0  0  0
  -32.0280  -24.4600   19.9930 C   0  0  0  0  0  0  0  0  0  0  0  0
  -29.6160  -20.1170   21.3560 C   0  0  0  0  0  3  0  0  0  0  0  0
  -29.4330  -20.8970   20.2400 C   0  0  0  0  0  0  0  0  0  0  0  0
  -29.6610  -18.5320   21.5020 C   0  0  0  0  0  3  0  0  0  0  0  0
  -29.2950  -19.9950   18.9730 C   0  0  0  0  0  3  0  0  0  0  0  0
  -29.9370  -18.5130   19.0220 C   0  0  0  0  0  3  0  0  0  0  0  0
  -29.4690  -17.6180   20.2210 C   0  0  0  0  0  0  0  0  0  0  0  0
  -30.5050  -14.9690   19.9840 C   0  0  0  0  0  0  0  0  0  0  0  0
  -30.3710  -12.6580   18.9570 C   0  0  0  0  0  2  0  0  0  0  0  0
  -29.3520  -12.6810   17.7930 C   0  0  0  0  0  2  0  0  0  0  0  0
  -27.9170  -12.4530   18.3090 C   0  0  0  0  0  2  0  0  0  0  0  0
  -27.5940  -13.3180   19.5560 C   0  0  0  0  0  3  0  0  0  0  0  0
  -28.7210  -13.2490   20.6090 C   0  0  0  0  0  2  0  0  0  0  0  0
  -29.9580  -13.6900   19.9470 N   0  0  0  0  0  0  0  0  0  0  0  0
  -31.6610  -15.1230   19.5750 O   0  0  0  0  0  0  0  0  0  0  0  0
  -29.6440  -16.0450   20.3000 N   0  0  0  0  0  0  0  0  0  0  0  0
  -28.7820  -15.6380   20.6300 H   0  0  0  0  0  0  0  0  0  0  0  0
  -25.2610  -13.8660   20.4610 C   0  0  0  0  0  0  0  0  0  0  0  0
  -24.2240  -13.0740   20.8720 C   0  0  0  0  0  0  0  0  0  0  0  0
  -24.6880  -11.7270   20.7630 C   0  0  0  0  0  0  0  0  0  0  0  0
  -26.2880  -13.0000   20.1230 N   0  0  0  0  0  0  0  0  0  0  0  0
  -25.9560  -11.7070   20.3670 N   0  0  0  0  0  0  0  0  0  0  0  0
  -23.9760  -10.4560   20.9530 C   0  0  0  0  0  0  0  0  0  0  0  0
  -24.4240   -9.4910   21.8830 C   0  0  0  0  0  3  0  0  0  0  0  0
  -23.7130   -8.2860   22.0620 C   0  0  0  0  0  3  0  0  0  0  0  0
  -22.5390   -8.0360   21.3120 C   0  0  0  0  0  0  0  0  0  0  0  0
  -22.1110   -8.9890   20.3710 C   0  0  0  0  0  3  0  0  0  0  0  0
  -22.8230  -10.1870   20.1910 C   0  0  0  0  0  3  0  0  0  0  0  0
  -21.7970   -6.8830   21.4000 O   0  0  0  0  0  0  0  0  0  0  0  0
  -21.7010   -6.1780   22.5730 C   0  0  0  0  0  0  0  0  0  0  0  0
  -21.1910   -6.7600   23.7530 C   0  0  0  0  0  3  0  0  0  0  0  0
  -21.0450   -5.9800   24.9180 C   0  0  0  0  0  3  0  0  0  0  0  0
  -21.3980   -4.6180   24.9020 C   0  0  0  0  0  0  0  0  0  0  0  0
  -21.9020   -4.0340   23.7260 C   0  0  0  0  0  3  0  0  0  0  0  0
  -22.0500   -4.8110   22.5640 C   0  0  0  0  0  0  0  0  0  0  0  0
  -22.5150   -4.2400   21.4270 F   0  0  0  0  0  0  0  0  0  0  0  0
  -21.2510   -3.8650   26.0180 F   0  0  0  0  0  0  0  0  0  0  0  0
  -22.8460  -13.5350   21.2490 C   0  0  0  0  0  0  0  0  0  0  0  0
  -22.1810  -12.8130   22.1430 N   0  0  0  0  0  0  0  0  0  0  0  0
  -22.3700  -14.5720   20.7860 O   0  0  0  0  0  0  0  0  0  0  0  0
  -22.5800  -11.9750   22.5380 H   0  0  0  0  0  0  0  0  0  0  0  0
  -21.2580  -13.1030   22.4370 H   0  0  0  0  0  0  0  0  0  0  0  0
  -25.4080  -15.2430   20.3210 N   0  0  0  0  0  0  0  0  0  0  0  0
  -24.6400  -15.8830   20.4960 H   0  0  0  0  0  0  0  0  0  0  0  0
  -26.2100  -15.6980   19.9040 H   0  0  0  0  0  0  0  0  0  0  0  0
  -34.3110  -25.1840   19.8070 C   0  0  0  0  0  1  0  0  0  0  0  0
  -32.9250  -25.5000   19.8800 O   0  0  0  0  0  0  0  0  0  0  0  0
  -28.2150  -24.7330   20.0930 C   0  0  0  0  0  2  0  0  0  0  0  0
  -28.3130  -26.2880   20.1770 O   0  0  0  0  0  0  0  0  0  0  0  0
  -24.6700  -31.8690   23.2610 C   0  0  0  0  0  0  0  0  0  0  0  0
  -27.2150  -27.2100   20.1510 C   0  0  0  0  0  0  0  0  0  0  0  0
  -23.4480  -30.4950   21.6150 C   0  0  0  0  0  3  0  0  0  0  0  0
  -24.8780  -28.9310   20.1610 C   0  0  0  0  0  0  0  0  0  0  0  0
  -25.9970  -30.7670   21.4230 C   0  0  0  0  0  2  0  0  0  0  0  0
  -26.0620  -29.3830   20.7570 C   0  0  0  0  0  0  0  0  0  0  0  0
  -27.2300  -28.5390   20.7300 C   0  0  0  0  0  3  0  0  0  0  0  0
  -26.0040  -26.8420   19.5300 C   0  0  0  0  0  3  0  0  0  0  0  0
  -24.8600  -27.6740   19.5330 C   0  0  0  0  0  3  0  0  0  0  0  0
  -23.6520  -29.8280   20.2280 C   0  0  0  0  0  2  0  0  0  0  0  0
  -24.7260  -31.0650   22.1550 N   0  0  0  0  0  0  0  0  0  0  0  0
  -23.5900  -32.1500   23.8040 O   0  0  0  0  0  0  0  0  0  0  0  0
  -22.7780  -29.4800   22.5740 C   0  0  0  0  0  0  0  0  0  0  0  0
  -21.4510  -29.3000   22.4430 N   0  0  0  0  0  0  0  0  0  0  0  0
  -23.4530  -28.8570   23.3960 O   0  0  0  0  0  0  0  0  0  0  0  0
  -20.9630  -29.8550   21.7540 H   0  0  0  0  0  0  0  0  0  0  0  0
  -18.0790  -28.0720   22.9280 C   0  0  0  0  0  0  0  0  0  0  0  0
  -20.6350  -28.3540   23.2080 C   0  0  0  0  0  3  0  0  0  0  0  0
  -20.7510  -26.9250   22.6310 C   0  0  0  0  0  2  0  0  0  0  0  0
  -19.6570  -26.5950   21.6100 C   0  0  0  0  0  2  0  0  0  0  0  0
  -18.2710  -26.7260   22.2480 C   0  0  0  0  0  2  0  0  0  0  0  0
  -19.1890  -28.8430   23.3640 C   0  0  0  0  0  0  0  0  0  0  0  0
  -18.9550  -30.1010   23.9600 C   0  0  0  0  0  3  0  0  0  0  0  0
  -17.6450  -30.5890   24.1240 C   0  0  0  0  0  3  0  0  0  0  0  0
  -16.5500  -29.8150   23.7040 C   0  0  0  0  0  3  0  0  0  0  0  0
  -16.7670  -28.5580   23.1100 C   0  0  0  0  0  3  0  0  0  0  0  0
  -25.9570  -32.4920   23.8830 C   0  0  0  0  0  3  0  0  0  0  0  0
  -26.4710  -31.7120   25.1550 C   0  0  1  0  0  0  0  0  0  0  0  0
  -25.3790  -31.4760   26.2250 C   0  0  0  0  0  1  0  0  0  0  0  0
  -27.0440  -30.3310   24.7580 C   0  0  0  0  0  1  0  0  0  0  0  0
  -27.6290  -32.4940   25.8180 C   0  0  0  0  0  1  0  0  0  0  0  0
  -25.6550  -33.8910   24.2270 N   0  0  0  0  0  0  0  0  0  0  0  0
  -25.9550  -34.9490   23.4620 C   0  0  0  0  0  0  0  0  0  0  0  0
  -26.5810  -34.8500   22.4040 O   0  0  0  0  0  0  0  0  0  0  0  0
  -25.0930  -34.0400   25.0520 H   0  0  0  0  0  0  0  0  0  0  0  0
  -24.1950  -36.7310   23.2130 C   0  0  0  0  0  1  0  0  0  0  0  0
  -25.4870  -36.3360   23.9470 C   0  0  0  0  0  3  0  0  0  0  0  0
  -27.6600  -37.2450   24.6440 C   0  0  0  0  0  1  0  0  0  0  0  0
  -26.5030  -37.3960   23.7660 N   0  0  0  0  0  0  0  0  0  0  0  0
  -26.0980  -38.3140   23.9280 H   0  0  0  0  0  0  0  0  0  0  0  0
  1  4  1  0
  2  1  2  0
  3  5  1  0
  4  8  1  0
  5  4  2  0
  6  3  2  0
  6  2  1  0
  7  9  1  0
  8  7  2  0
 10 11  2  0
 10  8  1  0
 11 12  1  0
 12 21  1  0
 12  9  2  0
 13 21  1  0
 14 19  1  0
 15 16  1  0
 15 14  1  0
 17 16  1  0
 17 26  1  0
 17 18  1  0
 19 13  1  0
 19 18  1  0
 20 13  2  0
 21 22  1  0
 23 24  2  0
 24 43  1  0
 25 24  1  0
 25 28  1  0
 26 27  1  0
 26 23  1  0
 27 25  2  0
 28 29  1  0
 29 30  2  0
 31 34  1  0
 31 30  1  0
 32 31  2  0
 33 32  1  0
 33 28  2  0
 34 35  1  0
 35 36  1  0
 36 37  2  0
 38 37  1  0
 38 42  1  0
 39 38  2  0
 40 35  2  0
 40 39  1  0
 41 40  1  0
 43 44  1  0
 44 47  1  0
 44 46  1  0
 45 43  2  0
 48 23  1  0
 48 49  1  0
 50 48  1  0
 51 52  1  0
 52  6  1  0
 53  5  1  0
 53 54  1  0
 55 66  2  0
 56 54  1  0
 56 61  1  0
 57 65  1  0
 57 67  1  0
 58 64  1  0
 58 60  1  0
 59 65  1  0
 60 59  1  0
 61 60  2  0
 62 63  1  0
 62 56  2  0
 63 58  2  0
 64 57  1  0
 65 55  1  0
 67 69  2  0
 68 67  1  0
 70 68  1  0
 71 80  2  0
 71 76  1  0
 72 68  1  0
 72 76  1  0
 73 72  1  0
 74 75  1  0
 74 73  1  0
 75 71  1  0
 76 77  2  0
 77 78  1  0
 79 78  2  0
 80 79  1  0
 81 55  1  0
 81 86  1  0
 81 82  1  0
 82 85  1  1
 82 83  1  0
 84 82  1  0
 86 89  1  0
 87 91  1  0
 87 86  1  0
 88 87  2  0
 91 90  1  0
 93 94  1  0
 93 91  1  0
 93 92  1  0
M  ISO  4  13 100  21 100  53 101  54 101
M  END
>  <TORSDO>  (41) 
F 19

>  <SCORE>  (41) 
-13.693

>  <name>  (41) 
40

>  <ligand_id>  (41) 
40

>  <original_smiles>  (41) 
[H]C1=C(c2c([H])c([H])c(OC([H])([H])[H])c([H])c2C([H])([H])Oc2c([H])c([H])c3c(c2[H])C([H])([H])N(C(=O)C([H])(N([H])C(=O)C([H])(N([H])C([H])([H])[H])C([H])([H])[H])C(C([H])([H])[H])(C([H])([H])[H])C([H])([H])[H])C([H])(C(=O)N([H])C2([H])c4c([H])c([H])c([H])c([H])c4C([H])([H])C([H])([H])C2([H])[H])C3([H])[H])C([H])([H])C([H])([H])C([H])(N([H])C(=O)N2C([H])([H])C([H])([H])C([H])([H])C([H])(n3nc(-c4c([H])c([H])c(Oc5c([H])c([H])c(F)c([H])c5F)c([H])c4[H])c(C(=O)N([H])[H])c3N([H])[H])C2([H])[H])C1([H])[H]

>  <smiles>  (41) 
[H]C1=C(c2c([H])c([H])c(OC([H])([H])[H])c([H])c2C([H])([H])Oc2c([H])c([H])c3c(c2[H])C([H])([H])N(C(=O)C([H])(N([H])C(=O)C([H])(N([H])C([H])([H])[H])C([H])([H])[H])C(C([H])([H])[H])(C([H])([H])[H])C([H])([H])[H])C([H])(C(=O)N([H])C2([H])c4c([H])c([H])c([H])c([H])c4C([H])([H])C([H])([H])C2([H])[H])C3([H])[H])C([H])([H])C([H])([H])C([H])(N([H])C(=O)N2C([H])([H])C([H])([H])C([H])([H])C([H])(n3nc(-c4c([H])c([H])c(Oc5c([H])c([H])c(F)c([H])c5F)c([H])c4[H])c(C(=O)N([H])[H])c3N([H])[H])C2([H])[H])C1([H])[H]

$$$$
41:0:0
     RDKit          3D

 92101  0  0  1  0  0  0  0  0999 V2000
  -32.3450  -23.3860   20.2770 C   0  0  0  0  0  3  0  0  0  0  0  0
  -32.0130  -24.7320   20.3820 C   0  0  0  0  0  3  0  0  0  0  0  0
  -31.3280  -22.4210   20.2480 C   0  0  0  0  0  3  0  0  0  0  0  0
  -30.6660  -25.0980   20.4090 C   0  0  0  0  0  3  0  0  0  0  0  0
  -29.9370  -22.7190   20.3400 C   0  0  0  0  0  0  0  0  0  0  0  0
  -29.5910  -24.1680   20.3590 C   0  0  0  0  0  0  0  0  0  0  0  0
  -29.0180  -21.4050   20.4340 C   0  0  0  0  0  2  0  0  0  0  0  0
  -30.0420  -19.4040   18.9430 C   0  0  0  0  0  2  0  0  0  0  0  0
  -30.4680  -17.9060   19.0260 C   0  0  0  0  0  2  0  0  0  0  0  0
  -29.1630  -18.5360   20.9520 C   0  0  0  0  0  2  0  0  0  0  0  0
  -29.7240  -19.9100   20.3640 C   0  0  0  0  0  3  0  0  0  0  0  0
  -30.1510  -17.3800   20.4440 C   0  0  0  0  0  3  0  0  0  0  0  0
  -30.5400  -14.7680   20.2450 C   0  0  0  0  0  0  0  0  0  0  0  0
  -30.3410  -12.4960   19.2240 C   0  0  0  0  0  2  0  0  0  0  0  0
  -29.3800  -12.5760   18.0160 C   0  0  0  0  0  2  0  0  0  0  0  0
  -27.9190  -12.3960   18.4740 C   0  0  0  0  0  2  0  0  0  0  0  0
  -27.5640  -13.2680   19.7080 C   0  0  0  0  0  3  0  0  0  0  0  0
  -28.6440  -13.1750   20.8070 C   0  0  0  0  0  2  0  0  0  0  0  0
  -29.9240  -13.5400   20.1880 N   0  0  0  0  0  0  0  0  0  0  0  0
  -31.7180  -14.8780   19.8910 O   0  0  0  0  0  0  0  0  0  0  0  0
  -29.7660  -15.8960   20.5000 N   0  0  0  0  0  0  0  0  0  0  0  0
  -28.8050  -15.7030   20.7400 H   0  0  0  0  0  0  0  0  0  0  0  0
  -25.1920  -13.8410   20.5000 C   0  0  0  0  0  0  0  0  0  0  0  0
  -24.1380  -13.0590   20.8890 C   0  0  0  0  0  0  0  0  0  0  0  0
  -24.6050  -11.7100   20.8330 C   0  0  0  0  0  0  0  0  0  0  0  0
  -26.2330  -12.9680   20.2270 N   0  0  0  0  0  0  0  0  0  0  0  0
  -25.8880  -11.6810   20.4910 N   0  0  0  0  0  0  0  0  0  0  0  0
  -23.8880  -10.4430   21.0290 C   0  0  0  0  0  0  0  0  0  0  0  0
  -24.3430   -9.4710   21.9470 C   0  0  0  0  0  3  0  0  0  0  0  0
  -23.6270   -8.2700   22.1320 C   0  0  0  0  0  3  0  0  0  0  0  0
  -22.4390   -8.0320   21.3980 C   0  0  0  0  0  0  0  0  0  0  0  0
  -22.0030   -8.9930   20.4700 C   0  0  0  0  0  3  0  0  0  0  0  0
  -22.7190  -10.1860   20.2830 C   0  0  0  0  0  3  0  0  0  0  0  0
  -21.6920   -6.8830   21.4920 O   0  0  0  0  0  0  0  0  0  0  0  0
  -21.6630   -6.1340   22.6420 C   0  0  0  0  0  0  0  0  0  0  0  0
  -21.2550   -6.6830   23.8770 C   0  0  0  0  0  3  0  0  0  0  0  0
  -21.1730   -5.8620   25.0190 C   0  0  0  0  0  3  0  0  0  0  0  0
  -21.4900   -4.4920   24.9280 C   0  0  0  0  0  0  0  0  0  0  0  0
  -21.8900   -3.9440   23.6970 C   0  0  0  0  0  3  0  0  0  0  0  0
  -21.9750   -4.7630   22.5570 C   0  0  0  0  0  0  0  0  0  0  0  0
  -22.3420   -4.2250   21.3690 F   0  0  0  0  0  0  0  0  0  0  0  0
  -21.4050   -3.7020   26.0220 F   0  0  0  0  0  0  0  0  0  0  0  0
  -22.7470  -13.5290   21.1980 C   0  0  0  0  0  0  0  0  0  0  0  0
  -22.0410  -12.8290   22.0780 N   0  0  0  0  0  0  0  0  0  0  0  0
  -22.2930  -14.5560   20.6930 O   0  0  0  0  0  0  0  0  0  0  0  0
  -22.4230  -12.0020   22.5150 H   0  0  0  0  0  0  0  0  0  0  0  0
  -21.1080  -13.1280   22.3240 H   0  0  0  0  0  0  0  0  0  0  0  0
  -25.3460  -15.2130   20.3310 N   0  0  0  0  0  0  0  0  0  0  0  0
  -24.5730  -15.8580   20.4540 H   0  0  0  0  0  0  0  0  0  0  0  0
  -26.1730  -15.6570   19.9520 H   0  0  0  0  0  0  0  0  0  0  0  0
  -28.2000  -24.9350   20.3210 C   0  0  0  0  0  2  0  0  0  0  0  0
  -28.2950  -26.4410   20.2430 O   0  0  0  0  0  0  0  0  0  0  0  0
  -24.6310  -31.8950   23.2730 C   0  0  0  0  0  0  0  0  0  0  0  0
  -27.1710  -27.2890   20.2100 C   0  0  0  0  0  0  0  0  0  0  0  0
  -23.4060  -30.5120   21.6360 C   0  0  0  0  0  3  0  0  0  0  0  0
  -24.8310  -28.9440   20.1990 C   0  0  0  0  0  0  0  0  0  0  0  0
  -25.9470  -30.8020   21.4370 C   0  0  0  0  0  2  0  0  0  0  0  0
  -26.0080  -29.4210   20.7880 C   0  0  0  0  0  0  0  0  0  0  0  0
  -27.1830  -28.6070   20.7750 C   0  0  0  0  0  3  0  0  0  0  0  0
  -25.9740  -26.8680   19.5970 C   0  0  0  0  0  3  0  0  0  0  0  0
  -24.8180  -27.6760   19.5920 C   0  0  0  0  0  3  0  0  0  0  0  0
  -23.6070  -29.8380   20.2520 C   0  0  0  0  0  2  0  0  0  0  0  0
  -24.6810  -31.0880   22.1730 N   0  0  0  0  0  0  0  0  0  0  0  0
  -23.5520  -32.1790   23.8160 O   0  0  0  0  0  0  0  0  0  0  0  0
  -22.7380  -29.5000   22.5970 C   0  0  0  0  0  0  0  0  0  0  0  0
  -21.4110  -29.3280   22.4720 N   0  0  0  0  0  0  0  0  0  0  0  0
  -23.4150  -28.8720   23.4160 O   0  0  0  0  0  0  0  0  0  0  0  0
  -20.9240  -29.8870   21.7850 H   0  0  0  0  0  0  0  0  0  0  0  0
  -18.0330  -28.1320   22.9650 C   0  0  0  0  0  0  0  0  0  0  0  0
  -20.5910  -28.3930   23.2440 C   0  0  0  0  0  3  0  0  0  0  0  0
  -20.6950  -26.9600   22.6730 C   0  0  0  0  0  2  0  0  0  0  0  0
  -19.5960  -26.6340   21.6550 C   0  0  0  0  0  2  0  0  0  0  0  0
  -18.2120  -26.7800   22.2940 C   0  0  0  0  0  2  0  0  0  0  0  0
  -19.1510  -28.8950   23.3970 C   0  0  0  0  0  0  0  0  0  0  0  0
  -18.9290  -30.1590   23.9860 C   0  0  0  0  0  3  0  0  0  0  0  0
  -17.6250  -30.6610   24.1470 C   0  0  0  0  0  3  0  0  0  0  0  0
  -16.5220  -29.8960   23.7310 C   0  0  0  0  0  3  0  0  0  0  0  0
  -16.7260  -28.6320   23.1460 C   0  0  0  0  0  3  0  0  0  0  0  0
  -25.9200  -32.5170   23.8910 C   0  0  0  0  0  3  0  0  0  0  0  0
  -26.4380  -31.7380   25.1630 C   0  0  1  0  0  0  0  0  0  0  0  0
  -25.3490  -31.5080   26.2370 C   0  0  0  0  0  1  0  0  0  0  0  0
  -27.0040  -30.3560   24.7640 C   0  0  0  0  0  1  0  0  0  0  0  0
  -27.6010  -32.5190   25.8190 C   0  0  0  0  0  1  0  0  0  0  0  0
  -25.6240  -33.9160   24.2300 N   0  0  0  0  0  0  0  0  0  0  0  0
  -25.9340  -34.9690   23.4610 C   0  0  0  0  0  0  0  0  0  0  0  0
  -26.5710  -34.8650   22.4090 O   0  0  0  0  0  0  0  0  0  0  0  0
  -25.0560  -34.0700   25.0490 H   0  0  0  0  0  0  0  0  0  0  0  0
  -24.1870  -36.7580   23.1760 C   0  0  0  0  0  1  0  0  0  0  0  0
  -25.4650  -36.3590   23.9330 C   0  0  0  0  0  3  0  0  0  0  0  0
  -27.6320  -37.2530   24.6630 C   0  0  0  0  0  1  0  0  0  0  0  0
  -26.4880  -37.4130   23.7700 N   0  0  0  0  0  0  0  0  0  0  0  0
  -26.0870  -38.3340   23.9310 H   0  0  0  0  0  0  0  0  0  0  0  0
  1  2  1  0
  2  4  2  0
  3  1  2  0
  3  5  1  0
  5  6  2  0
  5  7  1  0
  6  4  1  0
  8  9  1  0
  8 11  1  0
  9 12  1  0
 11  7  1  0
 11 10  1  0
 12 21  1  0
 12 10  1  0
 13 21  1  0
 14 19  1  0
 15 16  1  0
 15 14  1  0
 17 16  1  0
 17 26  1  0
 17 18  1  0
 19 13  1  0
 19 18  1  0
 20 13  2  0
 21 22  1  0
 23 24  2  0
 24 43  1  0
 25 24  1  0
 25 28  1  0
 26 27  1  0
 26 23  1  0
 27 25  2  0
 28 29  1  0
 29 30  2  0
 31 34  1  0
 31 30  1  0
 32 31  2  0
 33 32  1  0
 33 28  2  0
 34 35  1  0
 35 36  1  0
 36 37  2  0
 38 37  1  0
 38 42  1  0
 39 38  2  0
 40 35  2  0
 40 39  1  0
 41 40  1  0
 43 44  1  0
 44 47  1  0
 44 46  1  0
 45 43  2  0
 48 49  1  0
 48 23  1  0
 50 48  1  0
 51  6  1  0
 52 51  1  0
 53 64  2  0
 54 52  1  0
 54 59  1  0
 55 63  1  0
 55 65  1  0
 56 62  1  0
 56 58  1  0
 57 63  1  0
 58 57  1  0
 59 58  2  0
 60 54  2  0
 61 60  1  0
 61 56  2  0
 62 55  1  0
 63 53  1  0
 65 67  2  0
 66 65  1  0
 68 66  1  0
 69 78  2  0
 69 74  1  0
 70 66  1  0
 70 74  1  0
 71 70  1  0
 72 73  1  0
 72 71  1  0
 73 69  1  0
 74 75  2  0
 75 76  1  0
 77 76  2  0
 78 77  1  0
 79 53  1  0
 79 84  1  0
 79 80  1  0
 80 83  1  1
 80 81  1  0
 82 80  1  0
 84 87  1  0
 85 89  1  0
 85 84  1  0
 86 85  2  0
 89 88  1  0
 91 92  1  0
 91 89  1  0
 91 90  1  0
M  ISO  4  13 100  21 100  51 101  52 101
M  END
>  <TORSDO>  (42) 
F 19

>  <SCORE>  (42) 
-13.982

>  <name>  (42) 
41

>  <ligand_id>  (42) 
41

>  <original_smiles>  (42) 
[H]c1c([H])c([H])c(C([H])([H])C2([H])C([H])([H])C([H])([H])C([H])(N([H])C(=O)N3C([H])([H])C([H])([H])C([H])([H])C([H])(n4nc(-c5c([H])c([H])c(Oc6c([H])c([H])c(F)c([H])c6F)c([H])c5[H])c(C(=O)N([H])[H])c4N([H])[H])C3([H])[H])C2([H])[H])c(C([H])([H])Oc2c([H])c([H])c3c(c2[H])C([H])([H])N(C(=O)C([H])(N([H])C(=O)C([H])(N([H])C([H])([H])[H])C([H])([H])[H])C(C([H])([H])[H])(C([H])([H])[H])C([H])([H])[H])C([H])(C(=O)N([H])C2([H])c4c([H])c([H])c([H])c([H])c4C([H])([H])C([H])([H])C2([H])[H])C3([H])[H])c1[H]

>  <smiles>  (42) 
[H]c1c([H])c([H])c(C([H])([H])C2([H])C([H])([H])C([H])([H])C([H])(N([H])C(=O)N3C([H])([H])C([H])([H])C([H])([H])C([H])(n4nc(-c5c([H])c([H])c(Oc6c([H])c([H])c(F)c([H])c6F)c([H])c5[H])c(C(=O)N([H])[H])c4N([H])[H])C3([H])[H])C2([H])[H])c(C([H])([H])Oc2c([H])c([H])c3c(c2[H])C([H])([H])N(C(=O)C([H])(N([H])C(=O)C([H])(N([H])C([H])([H])[H])C([H])([H])[H])C(C([H])([H])[H])(C([H])([H])[H])C([H])([H])[H])C([H])(C(=O)N([H])C2([H])c4c([H])c([H])c([H])c([H])c4C([H])([H])C([H])([H])C2([H])[H])C3([H])[H])c1[H]

$$$$
42:0:0
     RDKit          3D

106116  0  0  1  0  0  0  0  0999 V2000
  -25.6880  -21.1430   19.8390 N   0  0  0  0  0  4  0  0  0  0  0  0
  -24.8820  -20.5450   19.9480 H   0  0  0  0  0  0  0  0  0  0  0  0
  -26.0830  -21.2610   20.7560 H   0  0  0  0  0  0  0  0  0  0  0  0
  -24.9850  -23.9170   21.4660 C   0  0  0  0  0  2  0  0  0  0  0  0
  -24.2540  -23.1190   20.3540 C   0  0  0  0  0  2  0  0  0  0  0  0
  -26.5220  -23.8490   21.3820 C   0  0  0  0  0  2  0  0  0  0  0  0
  -26.2990  -23.4600   18.8590 C   0  0  0  0  0  2  0  0  0  0  0  0
  -25.1950  -22.4530   19.3210 C   0  0  0  0  0  3  0  0  0  0  0  0
  -26.9970  -24.2810   19.9800 C   0  0  0  0  0  3  0  0  0  0  0  0
  -28.4770  -24.2840   19.8020 N   0  0  0  0  0  4  0  0  0  0  0  0
  -28.6860  -24.7310   18.9220 H   0  0  0  0  0  0  0  0  0  0  0  0
  -28.8120  -23.3360   19.7200 H   0  0  0  0  0  0  0  0  0  0  0  0
  -29.3120  -24.9550   20.8350 C   0  0  0  0  0  2  0  0  0  0  0  0
  -28.8550  -26.3820   21.2060 C   0  0  0  0  0  2  0  0  0  0  0  0
  -28.6550  -27.1690   20.0300 O   0  0  0  0  0  0  0  0  0  0  0  0
  -24.6410  -31.9650   23.4410 C   0  0  0  0  0  0  0  0  0  0  0  0
  -27.4930  -27.8970   20.0660 C   0  0  0  0  0  0  0  0  0  0  0  0
  -23.5210  -30.6780   21.6470 C   0  0  0  0  0  3  0  0  0  0  0  0
  -25.0550  -29.3060   20.1450 C   0  0  0  0  0  0  0  0  0  0  0  0
  -26.0370  -31.1200   21.5580 C   0  0  0  0  0  2  0  0  0  0  0  0
  -26.1780  -29.8100   20.8140 C   0  0  0  0  0  0  0  0  0  0  0  0
  -27.4020  -29.1090   20.7800 C   0  0  0  0  0  3  0  0  0  0  0  0
  -26.3660  -27.4090   19.3760 C   0  0  0  0  0  3  0  0  0  0  0  0
  -25.1420  -28.0990   19.4270 C   0  0  0  0  0  3  0  0  0  0  0  0
  -23.7870  -30.1250   20.2230 C   0  0  0  0  0  2  0  0  0  0  0  0
  -24.7490  -31.2640   22.2770 N   0  0  0  0  0  0  0  0  0  0  0  0
  -23.5380  -32.1650   23.9660 O   0  0  0  0  0  0  0  0  0  0  0  0
  -22.8740  -29.5610   22.4950 C   0  0  0  0  0  0  0  0  0  0  0  0
  -21.5560  -29.3700   22.3250 N   0  0  0  0  0  0  0  0  0  0  0  0
  -23.5540  -28.8780   23.2630 O   0  0  0  0  0  0  0  0  0  0  0  0
  -21.0660  -29.9860   21.6930 H   0  0  0  0  0  0  0  0  0  0  0  0
  -18.2000  -28.0740   22.6310 C   0  0  0  0  0  0  0  0  0  0  0  0
  -20.7430  -28.3520   22.9900 C   0  0  0  0  0  3  0  0  0  0  0  0
  -20.8870  -26.9790   22.2930 C   0  0  0  0  0  2  0  0  0  0  0  0
  -19.8140  -26.7280   21.2260 C   0  0  0  0  0  2  0  0  0  0  0  0
  -18.4180  -26.7920   21.8470 C   0  0  0  0  0  2  0  0  0  0  0  0
  -19.2910  -28.8140   23.1550 C   0  0  0  0  0  0  0  0  0  0  0  0
  -19.0340  -30.0170   23.8480 C   0  0  0  0  0  3  0  0  0  0  0  0
  -17.7160  -30.4800   24.0230 C   0  0  0  0  0  3  0  0  0  0  0  0
  -16.6370  -29.7360   23.5140 C   0  0  0  0  0  3  0  0  0  0  0  0
  -16.8800  -28.5340   22.8240 C   0  0  0  0  0  3  0  0  0  0  0  0
  -25.8940  -32.5720   24.1500 C   0  0  0  0  0  3  0  0  0  0  0  0
  -25.5980  -33.9790   24.4440 N   0  0  0  0  0  0  0  0  0  0  0  0
  -26.0100  -35.0150   23.7020 C   0  0  0  0  0  0  0  0  0  0  0  0
  -26.7520  -34.8840   22.7240 O   0  0  0  0  0  0  0  0  0  0  0  0
  -24.9500  -34.1560   25.2010 H   0  0  0  0  0  0  0  0  0  0  0  0
  -24.3540  -36.8390   23.1990 C   0  0  0  0  0  1  0  0  0  0  0  0
  -25.5210  -36.4190   24.1080 C   0  0  0  0  0  3  0  0  0  0  0  0
  -27.6050  -37.2660   25.0920 C   0  0  0  0  0  1  0  0  0  0  0  0
  -26.5830  -37.4460   24.0630 N   0  0  0  0  0  0  0  0  0  0  0  0
  -26.1860  -38.3780   24.1670 H   0  0  0  0  0  0  0  0  0  0  0  0
  -26.2990  -31.7980   25.4630 C   0  0  1  0  0  0  0  0  0  0  0  0
  -25.1280  -31.5980   26.4530 C   0  0  0  0  0  1  0  0  0  0  0  0
  -26.8710  -30.4020   25.1180 C   0  0  0  0  0  1  0  0  0  0  0  0
  -27.4190  -32.5680   26.1990 C   0  0  0  0  0  1  0  0  0  0  0  0
  -26.6490  -20.3800   19.0100 C   0  0  0  0  0  2  0  0  0  0  0  0
  -27.9660  -20.1060   19.7840 C   0  0  0  0  0  2  0  0  0  0  0  0
  -30.7700  -18.1080   17.1970 C   0  0  0  0  0  3  0  0  0  0  0  0
  -32.1630  -18.0420   17.0060 C   0  0  0  0  0  3  0  0  0  0  0  0
  -32.4730  -17.6380   19.3870 C   0  0  0  0  0  3  0  0  0  0  0  0
  -30.2270  -17.9160   18.4820 C   0  0  0  0  0  0  0  0  0  0  0  0
  -31.0780  -17.6920   19.5830 C   0  0  0  0  0  0  0  0  0  0  0  0
  -33.0170  -17.7880   18.0970 C   0  0  0  0  0  0  0  0  0  0  0  0
  -28.7260  -17.9330   18.6840 C   0  0  0  0  0  2  0  0  0  0  0  0
  -29.2730  -18.4120   21.1940 C   0  0  0  0  0  2  0  0  0  0  0  0
  -30.4780  -17.4730   20.9700 C   0  0  0  0  0  3  0  0  0  0  0  0
  -28.2800  -18.6060   20.0080 C   0  0  0  0  0  3  0  0  0  0  0  0
  -34.5080  -17.6520   17.8740 C   0  0  0  0  0  1  0  0  0  0  0  0
  -30.9210  -15.0390   20.8980 C   0  0  0  0  0  0  0  0  0  0  0  0
  -30.6600  -13.0800   19.4710 C   0  0  0  0  0  2  0  0  0  0  0  0
  -29.7730  -13.5050   18.2820 C   0  0  0  0  0  2  0  0  0  0  0  0
  -28.2760  -13.3390   18.6200 C   0  0  0  0  0  2  0  0  0  0  0  0
  -27.8940  -13.9630   19.9900 C   0  0  0  0  0  3  0  0  0  0  0  0
  -28.9010  -13.5560   21.0900 C   0  0  0  0  0  2  0  0  0  0  0  0
  -30.2530  -13.8960   20.6190 N   0  0  0  0  0  0  0  0  0  0  0  0
  -32.1140  -15.2090   20.6460 O   0  0  0  0  0  0  0  0  0  0  0  0
  -30.1190  -16.0730   21.1870 N   0  0  0  0  0  0  0  0  0  0  0  0
  -29.1450  -15.8590   21.3120 H   0  0  0  0  0  0  0  0  0  0  0  0
  -25.4380  -14.4990   20.5460 C   0  0  0  0  0  0  0  0  0  0  0  0
  -24.3690  -13.6860   20.8210 C   0  0  0  0  0  0  0  0  0  0  0  0
  -24.8740  -12.3500   20.7980 C   0  0  0  0  0  0  0  0  0  0  0  0
  -26.5210  -13.6500   20.3690 N   0  0  0  0  0  0  0  0  0  0  0  0
  -26.1830  -12.3540   20.5850 N   0  0  0  0  0  0  0  0  0  0  0  0
  -24.1810  -11.0620   20.9110 C   0  0  0  0  0  0  0  0  0  0  0  0
  -24.6000  -10.0790   21.8340 C   0  0  0  0  0  3  0  0  0  0  0  0
  -23.9070   -8.8530   21.9380 C   0  0  0  0  0  3  0  0  0  0  0  0
  -22.7820   -8.6030   21.1160 C   0  0  0  0  0  0  0  0  0  0  0  0
  -22.3830   -9.5750   20.1820 C   0  0  0  0  0  3  0  0  0  0  0  0
  -23.0780  -10.7900   20.0760 C   0  0  0  0  0  3  0  0  0  0  0  0
  -22.0620   -7.4350   21.1310 O   0  0  0  0  0  0  0  0  0  0  0  0
  -21.9240   -6.6870   22.2740 C   0  0  0  0  0  0  0  0  0  0  0  0
  -21.3870   -7.2300   23.4610 C   0  0  0  0  0  3  0  0  0  0  0  0
  -21.1960   -6.4060   24.5880 C   0  0  0  0  0  3  0  0  0  0  0  0
  -21.5370   -5.0420   24.5290 C   0  0  0  0  0  0  0  0  0  0  0  0
  -22.0720   -4.5000   23.3480 C   0  0  0  0  0  3  0  0  0  0  0  0
  -22.2590   -5.3200   22.2220 C   0  0  0  0  0  0  0  0  0  0  0  0
  -22.7540   -4.7860   21.0770 F   0  0  0  0  0  0  0  0  0  0  0  0
  -21.3460   -4.2470   25.6090 F   0  0  0  0  0  0  0  0  0  0  0  0
  -22.9420  -14.1150   20.9980 C   0  0  0  0  0  0  0  0  0  0  0  0
  -22.1840  -13.3880   21.8140 N   0  0  0  0  0  0  0  0  0  0  0  0
  -22.5050  -15.1270   20.4530 O   0  0  0  0  0  0  0  0  0  0  0  0
  -22.5520  -12.5670   22.2720 H   0  0  0  0  0  0  0  0  0  0  0  0
  -21.2220  -13.6460   21.9750 H   0  0  0  0  0  0  0  0  0  0  0  0
  -25.5680  -15.8780   20.4180 N   0  0  0  0  0  0  0  0  0  0  0  0
  -24.7610  -16.4870   20.5030 H   0  0  0  0  0  0  0  0  0  0  0  0
  -26.4070  -16.3500   20.1200 H   0  0  0  0  0  0  0  0  0  0  0  0
  1  2  1  0
  1  3  1  0
  5  4  1  0
  6  4  1  0
  7  8  1  0
  7  9  1  0
  8  1  1  0
  8  5  1  0
  9 10  1  0
  9  6  1  0
 10 13  1  0
 11 10  1  0
 12 10  1  0
 13 14  1  0
 15 17  1  0
 15 14  1  0
 16 27  2  0
 17 22  1  0
 18 26  1  0
 18 28  1  0
 19 25  1  0
 19 21  1  0
 20 26  1  0
 21 20  1  0
 22 21  2  0
 23 24  1  0
 23 17  2  0
 24 19  2  0
 25 18  1  0
 26 16  1  0
 28 30  2  0
 29 28  1  0
 31 29  1  0
 32 41  2  0
 32 37  1  0
 33 29  1  0
 33 37  1  0
 34 33  1  0
 35 36  1  0
 35 34  1  0
 36 32  1  0
 37 38  2  0
 38 39  1  0
 40 39  2  0
 41 40  1  0
 42 16  1  0
 42 43  1  0
 42 52  1  0
 43 46  1  0
 44 48  1  0
 44 43  1  0
 45 44  2  0
 48 47  1  0
 50 48  1  0
 50 51  1  0
 50 49  1  0
 52 55  1  1
 52 53  1  0
 54 52  1  0
 56 57  1  0
 56  1  1  0
 58 61  1  0
 59 58  2  0
 59 63  1  0
 60 62  1  0
 61 64  1  0
 61 62  2  0
 62 66  1  0
 63 60  2  0
 64 67  1  0
 66 77  1  0
 66 65  1  0
 67 57  1  0
 67 65  1  0
 68 63  1  0
 69 77  1  0
 70 75  1  0
 71 72  1  0
 71 70  1  0
 73 72  1  0
 73 82  1  0
 73 74  1  0
 75 69  1  0
 75 74  1  0
 76 69  2  0
 77 78  1  0
 79 80  2  0
 80 99  1  0
 81 80  1  0
 81 84  1  0
 82 79  1  0
 82 83  1  0
 83 81  2  0
 84 85  1  0
 85 86  2  0
 87 90  1  0
 87 86  1  0
 88 87  2  0
 89 88  1  0
 89 84  2  0
 90 91  1  0
 91 92  1  0
 92 93  2  0
 94 93  1  0
 94 98  1  0
 95 94  2  0
 96 91  2  0
 96 95  1  0
 97 96  1  0
 99100  1  0
100103  1  0
100102  1  0
101 99  2  0
104105  1  0
104 79  1  0
106104  1  0
M  ISO  4  14 101  15 101  69 100  77 100
M  END
>  <TORSDO>  (43) 
F 23

>  <SCORE>  (43) 
-11.343

>  <name>  (43) 
42

>  <ligand_id>  (43) 
42

>  <original_smiles>  (43) 
[H]c1c([H])c([H])c2c(c1[H])C([H])([H])C([H])([H])C([H])([H])C2([H])N([H])C(=O)C1([H])N(C(=O)C([H])(N([H])C(=O)C([H])(N([H])C([H])([H])[H])C([H])([H])[H])C(C([H])([H])[H])(C([H])([H])[H])C([H])([H])[H])C([H])([H])c2c([H])c(OC([H])([H])C([H])([H])[N+]([H])([H])C3([H])C([H])([H])C([H])([H])C([H])([H])C([H])([N+]([H])([H])C([H])([H])C([H])([H])C4([H])C([H])([H])c5c([H])c([H])c(C([H])([H])[H])c([H])c5C([H])(N([H])C(=O)N5C([H])([H])C([H])([H])C([H])([H])C([H])(n6nc(-c7c([H])c([H])c(Oc8c([H])c([H])c(F)c([H])c8F)c([H])c7[H])c(C(=O)N([H])[H])c6N([H])[H])C5([H])[H])C4([H])[H])C3([H])[H])c([H])c([H])c2C1([H])[H]

>  <smiles>  (43) 
[H]c1c([H])c([H])c2c(c1[H])C([H])([H])C([H])([H])C([H])([H])C2([H])N([H])C(=O)C1([H])N(C(=O)C([H])(N([H])C(=O)C([H])(N([H])C([H])([H])[H])C([H])([H])[H])C(C([H])([H])[H])(C([H])([H])[H])C([H])([H])[H])C([H])([H])c2c([H])c(OC([H])([H])C([H])([H])[N+]([H])([H])C3([H])C([H])([H])C([H])([H])C([H])([H])C([H])([N+]([H])([H])C([H])([H])C([H])([H])C4([H])C([H])([H])c5c([H])c([H])c(C([H])([H])[H])c([H])c5C([H])(N([H])C(=O)N5C([H])([H])C([H])([H])C([H])([H])C([H])(n6nc(-c7c([H])c([H])c(Oc8c([H])c([H])c(F)c([H])c8F)c([H])c7[H])c(C(=O)N([H])[H])c6N([H])[H])C5([H])[H])C4([H])[H])C3([H])[H])c([H])c([H])c2C1([H])[H]

$$$$
43:0:0
     RDKit          3D

 91 99  0  0  1  0  0  0  0  0999 V2000
  -30.5310  -23.9170   20.3590 C   0  0  0  0  0  3  0  0  0  0  0  0
  -28.0470  -24.9860   21.1230 C   0  0  0  0  0  3  0  0  0  0  0  0
  -29.7120  -23.1920   21.2440 C   0  0  0  0  0  0  0  0  0  0  0  0
  -30.1300  -25.1760   19.8750 C   0  0  0  0  0  0  0  0  0  0  0  0
  -28.4490  -23.7230   21.6160 C   0  0  0  0  0  0  0  0  0  0  0  0
  -28.8870  -25.7230   20.2580 C   0  0  0  0  0  0  0  0  0  0  0  0
  -31.0550  -25.9540   18.9580 C   0  0  0  0  0  1  0  0  0  0  0  0
  -27.5180  -22.9640   22.5430 C   0  0  0  0  0  1  0  0  0  0  0  0
  -28.5970  -26.9830   19.7910 O   0  0  0  0  0  0  0  0  0  0  0  0
  -24.5820  -31.8060   23.1480 C   0  0  0  0  0  0  0  0  0  0  0  0
  -27.3670  -27.5750   19.9330 C   0  0  0  0  0  0  0  0  0  0  0  0
  -23.4170  -30.4200   21.4580 C   0  0  0  0  0  3  0  0  0  0  0  0
  -24.9180  -28.9650   19.9990 C   0  0  0  0  0  0  0  0  0  0  0  0
  -25.9240  -30.8690   21.2720 C   0  0  0  0  0  2  0  0  0  0  0  0
  -26.0530  -29.5170   20.6070 C   0  0  0  0  0  0  0  0  0  0  0  0
  -27.2790  -28.8240   20.5790 C   0  0  0  0  0  3  0  0  0  0  0  0
  -26.2210  -27.0180   19.3300 C   0  0  0  0  0  3  0  0  0  0  0  0
  -24.9930  -27.7080   19.3670 C   0  0  0  0  0  3  0  0  0  0  0  0
  -23.6480  -29.7820   20.0610 C   0  0  0  0  0  2  0  0  0  0  0  0
  -24.6580  -31.0450   22.0200 N   0  0  0  0  0  0  0  0  0  0  0  0
  -23.4930  -32.0290   23.6940 O   0  0  0  0  0  0  0  0  0  0  0  0
  -22.7970  -29.3520   22.3870 C   0  0  0  0  0  0  0  0  0  0  0  0
  -21.4750  -29.1520   22.2680 N   0  0  0  0  0  0  0  0  0  0  0  0
  -23.5020  -28.7050   23.1660 O   0  0  0  0  0  0  0  0  0  0  0  0
  -20.9700  -29.7290   21.6090 H   0  0  0  0  0  0  0  0  0  0  0  0
  -18.1170  -27.9390   22.8060 C   0  0  0  0  0  0  0  0  0  0  0  0
  -20.6830  -28.1700   23.0070 C   0  0  0  0  0  3  0  0  0  0  0  0
  -20.7600  -26.7780   22.3400 C   0  0  0  0  0  2  0  0  0  0  0  0
  -19.6220  -26.5210   21.3460 C   0  0  0  0  0  2  0  0  0  0  0  0
  -18.2630  -26.6320   22.0450 C   0  0  0  0  0  2  0  0  0  0  0  0
  -19.2540  -28.6690   23.2440 C   0  0  0  0  0  0  0  0  0  0  0  0
  -19.0620  -29.8950   23.9160 C   0  0  0  0  0  3  0  0  0  0  0  0
  -17.7660  -30.3910   24.1540 C   0  0  0  0  0  3  0  0  0  0  0  0
  -16.6450  -29.6550   23.7340 C   0  0  0  0  0  3  0  0  0  0  0  0
  -16.8210  -28.4310   23.0650 C   0  0  0  0  0  3  0  0  0  0  0  0
  -25.8500  -32.4500   23.7900 C   0  0  0  0  0  3  0  0  0  0  0  0
  -25.5260  -33.8480   24.1000 N   0  0  0  0  0  0  0  0  0  0  0  0
  -25.8540  -34.8930   23.3280 C   0  0  0  0  0  0  0  0  0  0  0  0
  -26.5350  -34.7810   22.3040 O   0  0  0  0  0  0  0  0  0  0  0  0
  -24.9230  -34.0080   24.8940 H   0  0  0  0  0  0  0  0  0  0  0  0
  -24.1020  -36.6540   22.9370 C   0  0  0  0  0  1  0  0  0  0  0  0
  -25.3470  -36.2830   23.7590 C   0  0  0  0  0  3  0  0  0  0  0  0
  -27.4630  -37.2160   24.5840 C   0  0  0  0  0  1  0  0  0  0  0  0
  -26.3650  -37.3460   23.6280 N   0  0  0  0  0  0  0  0  0  0  0  0
  -25.9450  -38.2630   23.7500 H   0  0  0  0  0  0  0  0  0  0  0  0
  -26.3460  -31.6910   25.0820 C   0  0  1  0  0  0  0  0  0  0  0  0
  -25.2310  -31.4490   26.1250 C   0  0  0  0  0  1  0  0  0  0  0  0
  -26.9510  -30.3160   24.7070 C   0  0  0  0  0  1  0  0  0  0  0  0
  -27.4730  -32.5000   25.7640 C   0  0  0  0  0  1  0  0  0  0  0  0
  -30.2550  -21.8770   21.7950 C   0  0  0  0  0  2  0  0  0  0  0  0
  -29.7730  -20.6320   21.0320 C   0  0  0  0  0  2  0  0  0  0  0  0
  -30.7650  -19.4610   21.1480 C   0  0  0  0  0  2  0  0  0  0  0  0
  -30.1260  -18.0900   20.8740 C   0  0  0  0  0  2  0  0  0  0  0  0
  -31.1620  -16.9650   20.6790 C   0  0  0  0  0  2  0  0  0  0  0  0
  -30.5440  -15.5650   20.9030 C   0  0  0  0  0  2  0  0  0  0  0  0
  -31.1280  -14.4190   20.0540 C   0  0  0  0  0  0  0  0  0  0  0  0
  -30.6950  -12.2850   18.8850 C   0  0  0  0  0  2  0  0  0  0  0  0
  -29.6960  -12.5200   17.7340 C   0  0  0  0  0  2  0  0  0  0  0  0
  -28.2400  -12.4410   18.2390 C   0  0  0  0  0  2  0  0  0  0  0  0
  -28.0000  -13.3000   19.5090 C   0  0  0  0  0  3  0  0  0  0  0  0
  -29.0990  -13.0320   20.5600 C   0  0  0  0  0  2  0  0  0  0  0  0
  -30.4080  -13.2740   19.9310 N   0  0  0  0  0  0  0  0  0  0  0  0
  -32.1920  -14.5990   19.4530 O   0  0  0  0  0  0  0  0  0  0  0  0
  -25.6760  -14.0160   20.3640 C   0  0  0  0  0  0  0  0  0  0  0  0
  -24.5900  -13.2910   20.7750 C   0  0  0  0  0  0  0  0  0  0  0  0
  -24.9760  -11.9180   20.6860 C   0  0  0  0  0  0  0  0  0  0  0  0
  -26.6600  -13.0880   20.0560 N   0  0  0  0  0  0  0  0  0  0  0  0
  -26.2440  -11.8200   20.3050 N   0  0  0  0  0  0  0  0  0  0  0  0
  -24.1970  -10.6900   20.8890 C   0  0  0  0  0  0  0  0  0  0  0  0
  -24.5930   -9.7090   21.8250 C   0  0  0  0  0  3  0  0  0  0  0  0
  -23.8170   -8.5440   22.0130 C   0  0  0  0  0  3  0  0  0  0  0  0
  -22.6300   -8.3540   21.2650 C   0  0  0  0  0  0  0  0  0  0  0  0
  -22.2540   -9.3220   20.3180 C   0  0  0  0  0  3  0  0  0  0  0  0
  -23.0300  -10.4770   20.1270 C   0  0  0  0  0  3  0  0  0  0  0  0
  -21.8280   -7.2430   21.3630 O   0  0  0  0  0  0  0  0  0  0  0  0
  -21.7020   -6.5470   22.5390 C   0  0  0  0  0  0  0  0  0  0  0  0
  -21.2150   -7.1540   23.7170 C   0  0  0  0  0  3  0  0  0  0  0  0
  -21.0360   -6.3850   24.8850 C   0  0  0  0  0  3  0  0  0  0  0  0
  -21.3340   -5.0090   24.8730 C   0  0  0  0  0  0  0  0  0  0  0  0
  -21.8140   -4.4010   23.7000 C   0  0  0  0  0  3  0  0  0  0  0  0
  -21.9940   -5.1680   22.5360 C   0  0  0  0  0  0  0  0  0  0  0  0
  -22.4360   -4.5720   21.4020 F   0  0  0  0  0  0  0  0  0  0  0  0
  -21.1560   -4.2670   25.9920 F   0  0  0  0  0  0  0  0  0  0  0  0
  -23.2360  -13.8310   21.1400 C   0  0  0  0  0  0  0  0  0  0  0  0
  -22.5280  -13.1570   22.0400 N   0  0  0  0  0  0  0  0  0  0  0  0
  -22.8160  -14.8820   20.6580 O   0  0  0  0  0  0  0  0  0  0  0  0
  -22.8800  -12.3070   22.4540 H   0  0  0  0  0  0  0  0  0  0  0  0
  -21.6210  -13.5010   22.3200 H   0  0  0  0  0  0  0  0  0  0  0  0
  -25.9030  -15.3810   20.2100 N   0  0  0  0  0  0  0  0  0  0  0  0
  -25.1840  -16.0750   20.3810 H   0  0  0  0  0  0  0  0  0  0  0  0
  -26.7640  -15.7830   19.8590 H   0  0  0  0  0  0  0  0  0  0  0  0
  1  3  1  0
  2  5  1  0
  3  5  2  0
  3 50  1  0
  4  6  1  0
  4  1  2  0
  5  8  1  0
  6  2  2  0
  7  4  1  0
  9 11  1  0
  9  6  1  0
 10 21  2  0
 11 16  1  0
 12 20  1  0
 12 22  1  0
 13 19  1  0
 13 15  1  0
 14 20  1  0
 15 14  1  0
 16 15  2  0
 17 18  1  0
 17 11  2  0
 18 13  2  0
 19 12  1  0
 20 10  1  0
 22 24  2  0
 23 22  1  0
 25 23  1  0
 26 35  2  0
 26 31  1  0
 27 23  1  0
 27 31  1  0
 28 27  1  0
 29 30  1  0
 29 28  1  0
 30 26  1  0
 31 32  2  0
 32 33  1  0
 34 33  2  0
 35 34  1  0
 36 10  1  0
 36 37  1  0
 36 46  1  0
 37 40  1  0
 38 42  1  0
 38 37  1  0
 39 38  2  0
 42 41  1  0
 44 45  1  0
 44 42  1  0
 44 43  1  0
 46 49  1  1
 46 47  1  0
 48 46  1  0
 51 52  1  0
 51 50  1  0
 53 52  1  0
 54 53  1  0
 54 55  1  0
 56 55  1  0
 57 62  1  0
 58 59  1  0
 58 57  1  0
 60 59  1  0
 60 67  1  0
 60 61  1  0
 62 56  1  0
 62 61  1  0
 63 56  2  0
 64 65  2  0
 65 84  1  0
 66 65  1  0
 66 69  1  0
 67 68  1  0
 67 64  1  0
 68 66  2  0
 69 70  1  0
 70 71  2  0
 72 75  1  0
 72 71  1  0
 73 72  2  0
 74 73  1  0
 74 69  2  0
 75 76  1  0
 76 77  1  0
 77 78  2  0
 79 78  1  0
 79 83  1  0
 80 79  2  0
 81 76  2  0
 81 80  1  0
 82 81  1  0
 84 85  1  0
 85 88  1  0
 85 87  1  0
 86 84  2  0
 89 64  1  0
 89 90  1  0
 91 89  1  0
M  ISO  4   6 101   9 101  55 100  56 100
M  END
>  <TORSDO>  (44) 
F 22

>  <SCORE>  (44) 
-12.110

>  <name>  (44) 
43

>  <ligand_id>  (44) 
43

>  <original_smiles>  (44) 
[H]c1c([H])c([H])c2c(c1[H])C([H])([H])C([H])([H])C([H])([H])C2([H])N([H])C(=O)C1([H])N(C(=O)C([H])(N([H])C(=O)C([H])(N([H])C([H])([H])[H])C([H])([H])[H])C(C([H])([H])[H])(C([H])([H])[H])C([H])([H])[H])C([H])([H])c2c([H])c(Oc3c([H])c(C([H])([H])[H])c(C([H])([H])C([H])([H])C([H])([H])C([H])([H])C([H])([H])C([H])([H])C(=O)N4C([H])([H])C([H])([H])C([H])([H])C([H])(n5nc(-c6c([H])c([H])c(Oc7c([H])c([H])c(F)c([H])c7F)c([H])c6[H])c(C(=O)N([H])[H])c5N([H])[H])C4([H])[H])c([H])c3C([H])([H])[H])c([H])c([H])c2C1([H])[H]

>  <smiles>  (44) 
[H]c1c([H])c([H])c2c(c1[H])C([H])([H])C([H])([H])C([H])([H])C2([H])N([H])C(=O)C1([H])N(C(=O)C([H])(N([H])C(=O)C([H])(N([H])C([H])([H])[H])C([H])([H])[H])C(C([H])([H])[H])(C([H])([H])[H])C([H])([H])[H])C([H])([H])c2c([H])c(Oc3c([H])c(C([H])([H])[H])c(C([H])([H])C([H])([H])C([H])([H])C([H])([H])C([H])([H])C([H])([H])C(=O)N4C([H])([H])C([H])([H])C([H])([H])C([H])(n5nc(-c6c([H])c([H])c(Oc7c([H])c([H])c(F)c([H])c7F)c([H])c6[H])c(C(=O)N([H])[H])c5N([H])[H])C4([H])[H])c([H])c3C([H])([H])[H])c([H])c([H])c2C1([H])[H]

$$$$
44:0:0
     RDKit          3D

100109  0  0  1  0  0  0  0  0999 V2000
  -28.0980  -17.6240   19.8610 C   0  0  0  0  0  3  0  0  0  0  0  0
  -28.7820  -16.5160   20.6650 C   0  0  0  0  0  0  0  0  0  0  0  0
  -30.4060  -18.5860   19.2870 C   0  0  0  0  0  0  0  0  0  0  0  0
  -26.7410  -17.7250   20.0910 C   0  0  0  0  0  2  0  0  0  0  0  0
  -30.7550  -16.0130   22.2150 C   0  0  0  0  0  2  0  0  0  0  0  0
  -31.6550  -17.1780   22.6350 C   0  0  0  0  0  2  0  0  0  0  0  0
  -31.0330  -17.6070   20.3410 C   0  0  0  0  0  3  0  0  0  0  0  0
  -28.8890  -18.6060   18.9500 C   0  0  1  0  0  0  0  0  0  0  0  0
  -30.3230  -16.2150   20.7040 C   0  0  2  0  0  0  0  0  0  0  0  0
  -31.3250  -18.3370   21.6910 C   0  0  1  0  0  0  0  0  0  0  0  0
  -28.7530  -18.0460   17.5080 C   0  0  0  0  0  1  0  0  0  0  0  0
  -30.1220  -19.1090   22.2960 C   0  0  0  0  0  1  0  0  0  0  0  0
  -32.5350  -19.3050   21.5910 C   0  0  0  0  0  1  0  0  0  0  0  0
  -28.1000  -15.8350   21.4270 O   0  0  0  0  0  0  0  0  0  0  0  0
  -31.1560  -19.3420   18.6540 O   0  0  0  0  0  0  0  0  0  0  0  0
  -30.8770  -14.8940   19.8940 C   0  0  0  0  0  0  0  0  0  0  0  0
  -30.6500  -12.6550   18.7490 C   0  0  0  0  0  2  0  0  0  0  0  0
  -29.6360  -12.7190   17.5890 C   0  0  0  0  0  2  0  0  0  0  0  0
  -28.1990  -12.5030   18.1070 C   0  0  0  0  0  2  0  0  0  0  0  0
  -27.8850  -13.3620   19.3670 C   0  0  0  0  0  3  0  0  0  0  0  0
  -29.0150  -13.2040   20.4210 C   0  0  0  0  0  2  0  0  0  0  0  0
  -30.2540  -13.6540   19.7780 N   0  0  0  0  0  0  0  0  0  0  0  0
  -31.9630  -15.0270   19.3160 O   0  0  0  0  0  0  0  0  0  0  0  0
  -25.5060  -13.9280   20.1930 C   0  0  0  0  0  0  0  0  0  0  0  0
  -24.4810  -13.1840   20.6660 C   0  0  0  0  0  0  0  0  0  0  0  0
  -24.9420  -11.8350   20.5860 C   0  0  0  0  0  0  0  0  0  0  0  0
  -26.5590  -13.0730   19.9080 N   0  0  0  0  0  0  0  0  0  0  0  0
  -26.2110  -11.7940   20.1880 N   0  0  0  0  0  0  0  0  0  0  0  0
  -24.2220  -10.5880   20.8010 C   0  0  0  0  0  0  0  0  0  0  0  0
  -24.6600   -9.6410   21.7520 C   0  0  0  0  0  3  0  0  0  0  0  0
  -23.9270   -8.4580   21.9630 C   0  0  0  0  0  3  0  0  0  0  0  0
  -22.7500   -8.2170   21.2150 C   0  0  0  0  0  0  0  0  0  0  0  0
  -22.3290   -9.1540   20.2590 C   0  0  0  0  0  3  0  0  0  0  0  0
  -23.0650  -10.3280   20.0450 C   0  0  0  0  0  3  0  0  0  0  0  0
  -21.9930   -7.0770   21.3200 O   0  0  0  0  0  0  0  0  0  0  0  0
  -21.8670   -6.4090   22.5080 C   0  0  0  0  0  0  0  0  0  0  0  0
  -21.3710   -7.0430   23.6680 C   0  0  0  0  0  3  0  0  0  0  0  0
  -21.1910   -6.3020   24.8520 C   0  0  0  0  0  3  0  0  0  0  0  0
  -21.5040   -4.9280   24.8750 C   0  0  0  0  0  0  0  0  0  0  0  0
  -22.0010   -4.2970   23.7210 C   0  0  0  0  0  3  0  0  0  0  0  0
  -22.1790   -5.0370   22.5380 C   0  0  0  0  0  0  0  0  0  0  0  0
  -22.6330   -4.4180   21.4210 F   0  0  0  0  0  0  0  0  0  0  0  0
  -21.3300   -4.2140   26.0100 F   0  0  0  0  0  0  0  0  0  0  0  0
  -23.1180  -13.6870   21.0610 C   0  0  0  0  0  0  0  0  0  0  0  0
  -22.4500  -13.0050   21.9830 N   0  0  0  0  0  0  0  0  0  0  0  0
  -22.6650  -14.7340   20.5950 O   0  0  0  0  0  0  0  0  0  0  0  0
  -22.8310  -12.1650   22.3910 H   0  0  0  0  0  0  0  0  0  0  0  0
  -21.5370  -13.3110   22.2930 H   0  0  0  0  0  0  0  0  0  0  0  0
  -25.6120  -15.2680   19.9760 N   0  0  0  0  0  0  0  0  0  0  0  0
  -24.8530  -15.7930   20.3850 H   0  0  0  0  0  0  0  0  0  0  0  0
  -26.5100  -15.6490   20.2460 H   0  0  0  0  0  0  0  0  0  0  0  0
  -24.1830  -17.9160   19.8370 C   0  0  0  0  0  1  0  0  0  0  0  0
  -25.5800  -18.2590   19.2440 C   0  0  0  0  0  2  0  0  0  0  0  0
  -28.2130  -20.0710   19.0800 C   0  0  0  0  0  2  0  0  0  0  0  0
  -29.0610  -21.6040   17.0760 C   0  0  0  0  0  1  0  0  0  0  0  0
  -28.4560  -21.5220   18.4810 C   0  0  0  0  0  3  0  0  0  0  0  0
  -28.7590  -22.6290   19.4010 O   0  0  0  0  0  0  0  0  0  0  0  0
  -28.1300  -23.9310   19.0860 C   0  0  0  0  0  2  0  0  0  0  0  0
  -28.1440  -25.1230   20.1310 C   0  0  0  0  0  2  0  0  0  0  0  0
  -28.2290  -26.5240   19.6620 O   0  0  0  0  0  0  0  0  0  0  0  0
  -24.4250  -31.6490   23.0400 C   0  0  0  0  0  0  0  0  0  0  0  0
  -27.0830  -27.3150   19.7190 C   0  0  0  0  0  0  0  0  0  0  0  0
  -23.2110  -30.2980   21.3580 C   0  0  0  0  0  3  0  0  0  0  0  0
  -24.6690  -28.8230   19.8480 C   0  0  0  0  0  0  0  0  0  0  0  0
  -25.7300  -30.6850   21.1380 C   0  0  0  0  0  2  0  0  0  0  0  0
  -25.8340  -29.3290   20.4420 C   0  0  0  0  0  0  0  0  0  0  0  0
  -27.0460  -28.5810   20.3690 C   0  0  0  0  0  3  0  0  0  0  0  0
  -25.9000  -26.8560   19.1070 C   0  0  0  0  0  3  0  0  0  0  0  0
  -24.7000  -27.5950   19.1740 C   0  0  0  0  0  3  0  0  0  0  0  0
  -23.4130  -29.6660   19.9540 C   0  0  0  0  0  2  0  0  0  0  0  0
  -24.4730  -30.8970   21.9020 N   0  0  0  0  0  0  0  0  0  0  0  0
  -23.3520  -31.8770   23.6180 O   0  0  0  0  0  0  0  0  0  0  0  0
  -22.5910  -29.2350   22.2960 C   0  0  0  0  0  0  0  0  0  0  0  0
  -21.2660  -29.0300   22.1830 N   0  0  0  0  0  0  0  0  0  0  0  0
  -23.2980  -28.5910   23.0720 O   0  0  0  0  0  0  0  0  0  0  0  0
  -20.7410  -29.6030   21.5340 H   0  0  0  0  0  0  0  0  0  0  0  0
  -17.9390  -27.7090   22.6700 C   0  0  0  0  0  0  0  0  0  0  0  0
  -20.4880  -28.0390   22.9310 C   0  0  0  0  0  3  0  0  0  0  0  0
  -20.6290  -26.6340   22.3030 C   0  0  0  0  0  2  0  0  0  0  0  0
  -19.5300  -26.3110   21.2850 C   0  0  0  0  0  2  0  0  0  0  0  0
  -18.1500  -26.3910   21.9460 C   0  0  0  0  0  2  0  0  0  0  0  0
  -19.0350  -28.4900   23.1190 C   0  0  0  0  0  0  0  0  0  0  0  0
  -18.7860  -29.7260   23.7550 C   0  0  0  0  0  3  0  0  0  0  0  0
  -17.4670  -30.1790   23.9470 C   0  0  0  0  0  3  0  0  0  0  0  0
  -16.3850  -29.3960   23.5110 C   0  0  0  0  0  3  0  0  0  0  0  0
  -16.6210  -28.1620   22.8800 C   0  0  0  0  0  3  0  0  0  0  0  0
  -25.7120  -32.2740   23.6580 C   0  0  0  0  0  3  0  0  0  0  0  0
  -25.3880  -33.6490   24.0660 N   0  0  0  0  0  0  0  0  0  0  0  0
  -25.6850  -34.7410   23.3500 C   0  0  0  0  0  0  0  0  0  0  0  0
  -26.3360  -34.6950   22.3000 O   0  0  0  0  0  0  0  0  0  0  0  0
  -24.8070  -33.7540   24.8850 H   0  0  0  0  0  0  0  0  0  0  0  0
  -23.9200  -36.5190   23.1120 C   0  0  0  0  0  1  0  0  0  0  0  0
  -25.1870  -36.1000   23.8750 C   0  0  0  0  0  3  0  0  0  0  0  0
  -27.3270  -36.9900   24.6970 C   0  0  0  0  0  1  0  0  0  0  0  0
  -26.1990  -37.1780   23.7860 N   0  0  0  0  0  0  0  0  0  0  0  0
  -25.7780  -38.0780   23.9890 H   0  0  0  0  0  0  0  0  0  0  0  0
  -26.2740  -31.4530   24.8860 C   0  0  1  0  0  0  0  0  0  0  0  0
  -25.2130  -31.1510   25.9730 C   0  0  0  0  0  1  0  0  0  0  0  0
  -26.8630  -30.1000   24.4130 C   0  0  0  0  0  1  0  0  0  0  0  0
  -27.4380  -32.2270   25.5520 C   0  0  0  0  0  1  0  0  0  0  0  0
  1  4  1  0
  1  2  1  0
  2  9  1  0
  2 14  2  0
  5  6  1  0
  7  3  1  0
  7  9  1  0
  7 10  1  0
  8 11  1  6
  8 54  1  0
  8  3  1  0
  8  1  1  0
  9 16  1  6
  9  5  1  0
 10 12  1  1
 10  6  1  0
 13 10  1  0
 15  3  2  0
 17 22  1  0
 18 19  1  0
 18 17  1  0
 20 19  1  0
 20 27  1  0
 20 21  1  0
 22 16  1  0
 22 21  1  0
 23 16  2  0
 24 25  2  0
 25 44  1  0
 26 25  1  0
 26 29  1  0
 27 28  1  0
 27 24  1  0
 28 26  2  0
 29 30  1  0
 30 31  2  0
 32 35  1  0
 32 31  1  0
 33 32  2  0
 34 33  1  0
 34 29  2  0
 35 36  1  0
 36 41  2  0
 36 37  1  0
 37 38  2  0
 38 39  1  0
 39 43  1  0
 40 39  2  0
 41 40  1  0
 42 41  1  0
 44 45  1  0
 45 48  1  0
 45 47  1  0
 46 44  2  0
 49 24  1  0
 49 51  1  0
 49 50  1  0
 53 52  1  0
 53  4  1  0
 56 55  1  0
 56 54  1  0
 56 57  1  0
 58 57  1  0
 58 59  1  0
 60 62  1  0
 60 59  1  0
 61 72  2  0
 62 67  1  0
 63 71  1  0
 63 73  1  0
 64 70  1  0
 64 66  1  0
 65 71  1  0
 66 65  1  0
 67 66  2  0
 68 69  1  0
 68 62  2  0
 69 64  2  0
 70 63  1  0
 71 61  1  0
 73 75  2  0
 74 73  1  0
 76 74  1  0
 77 86  2  0
 77 82  1  0
 78 74  1  0
 78 82  1  0
 79 78  1  0
 80 81  1  0
 80 79  1  0
 81 77  1  0
 82 83  2  0
 83 84  1  0
 85 84  2  0
 86 85  1  0
 87 61  1  0
 87 88  1  0
 87 97  1  0
 88 91  1  0
 89 93  1  0
 89 88  1  0
 90 89  2  0
 93 92  1  0
 95 93  1  0
 95 96  1  0
 95 94  1  0
 97100  1  1
 97 98  1  0
 99 97  1  0
M  ISO  4   9 100  16 100  59 101  60 101
M  END
>  <TORSDO>  (45) 
F 22

>  <SCORE>  (45) 
-10.036

>  <name>  (45) 
44

>  <ligand_id>  (45) 
44

>  <original_smiles>  (45) 
[H]C(=C1C(=O)C2(C(=O)N3C([H])([H])C([H])([H])C([H])([H])C([H])(n4nc(-c5c([H])c([H])c(Oc6c([H])c([H])c(F)c([H])c6F)c([H])c5[H])c(C(=O)N([H])[H])c4N([H])[H])C3([H])[H])C([H])([H])C([H])([H])C(C([H])([H])[H])(C([H])([H])[H])C2([H])C(=O)C1(C([H])([H])[H])C([H])([H])C([H])(OC([H])([H])C([H])([H])Oc1c([H])c([H])c2c(c1[H])C([H])([H])N(C(=O)C([H])(N([H])C(=O)C([H])(N([H])C([H])([H])[H])C([H])([H])[H])C(C([H])([H])[H])(C([H])([H])[H])C([H])([H])[H])C([H])(C(=O)N([H])C1([H])c3c([H])c([H])c([H])c([H])c3C([H])([H])C([H])([H])C1([H])[H])C2([H])[H])C([H])([H])[H])C([H])([H])C([H])([H])[H]

>  <smiles>  (45) 
[H]C(=C1C(=O)C2(C(=O)N3C([H])([H])C([H])([H])C([H])([H])C([H])(n4nc(-c5c([H])c([H])c(Oc6c([H])c([H])c(F)c([H])c6F)c([H])c5[H])c(C(=O)N([H])[H])c4N([H])[H])C3([H])[H])C([H])([H])C([H])([H])C(C([H])([H])[H])(C([H])([H])[H])C2([H])C(=O)C1(C([H])([H])[H])C([H])([H])C([H])(OC([H])([H])C([H])([H])Oc1c([H])c([H])c2c(c1[H])C([H])([H])N(C(=O)C([H])(N([H])C(=O)C([H])(N([H])C([H])([H])[H])C([H])([H])[H])C(C([H])([H])[H])(C([H])([H])[H])C([H])([H])[H])C([H])(C(=O)N([H])C1([H])c3c([H])c([H])c([H])c([H])c3C([H])([H])C([H])([H])C1([H])[H])C2([H])[H])C([H])([H])[H])C([H])([H])C([H])([H])[H]

$$$$
45:0:0
     RDKit          3D

 94103  0  0  1  0  0  0  0  0999 V2000
  -28.6080  -25.8860   23.7110 C   0  0  0  0  0  3  0  0  0  0  0  0
  -28.5620  -26.4910   22.4500 C   0  0  0  0  0  3  0  0  0  0  0  0
  -28.8420  -23.7440   22.6230 C   0  0  0  0  0  3  0  0  0  0  0  0
  -28.8110  -24.3120   21.3140 C   0  0  0  0  0  0  0  0  0  0  0  0
  -28.7300  -24.4990   23.8000 C   0  0  0  0  0  0  0  0  0  0  0  0
  -28.6120  -25.7650   21.2280 C   0  0  0  0  0  0  0  0  0  0  0  0
  -28.7590  -23.8090   25.1500 C   0  0  0  0  0  1  0  0  0  0  0  0
  -28.9910  -23.2700   20.1860 C   0  0  0  0  0  0  0  0  0  0  0  0
  -28.9240  -23.5680   18.9910 O   0  0  0  0  0  0  0  0  0  0  0  0
  -29.2860  -21.7520   20.5880 C   0  0  0  0  0  3  0  0  0  0  0  0
  -29.4320  -20.5980   19.5080 C   0  0  0  0  0  3  0  0  0  0  0  0
  -31.1210  -14.8400   20.2970 C   0  0  0  0  0  0  0  0  0  0  0  0
  -30.8050  -12.5810   19.3230 C   0  0  0  0  0  2  0  0  0  0  0  0
  -29.8880  -12.6720   18.0880 C   0  0  0  0  0  2  0  0  0  0  0  0
  -28.4090  -12.5610   18.5090 C   0  0  0  0  0  2  0  0  0  0  0  0
  -28.0510  -13.4830   19.7080 C   0  0  0  0  0  3  0  0  0  0  0  0
  -29.0980  -13.3870   20.8360 C   0  0  0  0  0  2  0  0  0  0  0  0
  -30.4010  -13.6740   20.2320 N   0  0  0  0  0  0  0  0  0  0  0  0
  -32.3360  -14.8010   20.0790 O   0  0  0  0  0  0  0  0  0  0  0  0
  -30.3280  -18.2670   18.7180 C   0  0  0  0  0  2  0  0  0  0  0  0
  -29.2340  -18.2470   20.8730 C   0  0  0  0  0  2  0  0  0  0  0  0
  -31.0800  -16.9490   19.0760 C   0  0  0  0  0  2  0  0  0  0  0  0
  -29.9150  -16.8590   21.2230 C   0  0  0  0  0  2  0  0  0  0  0  0
  -30.0520  -19.1790   19.9340 C   0  0  0  0  0  3  0  0  0  0  0  0
  -30.4610  -16.0500   20.0940 N   0  0  0  0  0  0  0  0  0  0  0  0
  -25.6770  -14.1420   20.4190 C   0  0  0  0  0  0  0  0  0  0  0  0
  -24.5880  -13.3970   20.7780 C   0  0  0  0  0  0  0  0  0  0  0  0
  -25.0140  -12.0340   20.7550 C   0  0  0  0  0  0  0  0  0  0  0  0
  -26.6980  -13.2340   20.1920 N   0  0  0  0  0  0  0  0  0  0  0  0
  -26.3060  -11.9610   20.4590 N   0  0  0  0  0  0  0  0  0  0  0  0
  -24.2520  -10.7920   20.9400 C   0  0  0  0  0  0  0  0  0  0  0  0
  -24.6280   -9.8310   21.9050 C   0  0  0  0  0  3  0  0  0  0  0  0
  -23.8680   -8.6540   22.0770 C   0  0  0  0  0  3  0  0  0  0  0  0
  -22.7180   -8.4290   21.2840 C   0  0  0  0  0  0  0  0  0  0  0  0
  -22.3610   -9.3780   20.3090 C   0  0  0  0  0  3  0  0  0  0  0  0
  -23.1210  -10.5460   20.1350 C   0  0  0  0  0  3  0  0  0  0  0  0
  -21.9350   -7.3030   21.3640 O   0  0  0  0  0  0  0  0  0  0  0  0
  -21.7900   -6.6080   22.5380 C   0  0  0  0  0  0  0  0  0  0  0  0
  -21.3040   -7.2220   23.7130 C   0  0  0  0  0  3  0  0  0  0  0  0
  -21.1060   -6.4550   24.8780 C   0  0  0  0  0  3  0  0  0  0  0  0
  -21.3830   -5.0740   24.8680 C   0  0  0  0  0  0  0  0  0  0  0  0
  -21.8620   -4.4600   23.6980 C   0  0  0  0  0  3  0  0  0  0  0  0
  -22.0620   -5.2250   22.5340 C   0  0  0  0  0  0  0  0  0  0  0  0
  -22.5030   -4.6240   21.4030 F   0  0  0  0  0  0  0  0  0  0  0  0
  -21.1860   -4.3350   25.9840 F   0  0  0  0  0  0  0  0  0  0  0  0
  -23.2010  -13.9120   21.0350 C   0  0  0  0  0  0  0  0  0  0  0  0
  -22.4490  -13.2440   21.9020 N   0  0  0  0  0  0  0  0  0  0  0  0
  -22.7930  -14.9420   20.5010 O   0  0  0  0  0  0  0  0  0  0  0  0
  -22.7910  -12.4100   22.3570 H   0  0  0  0  0  0  0  0  0  0  0  0
  -21.5170  -13.5700   22.1150 H   0  0  0  0  0  0  0  0  0  0  0  0
  -25.8830  -15.5070   20.2420 N   0  0  0  0  0  0  0  0  0  0  0  0
  -25.1390  -16.1870   20.3520 H   0  0  0  0  0  0  0  0  0  0  0  0
  -26.7580  -15.9190   19.9440 H   0  0  0  0  0  0  0  0  0  0  0  0
  -28.4870  -26.5850   20.0870 O   0  0  0  0  0  0  0  0  0  0  0  0
  -24.7280  -31.8740   23.2090 C   0  0  0  0  0  0  0  0  0  0  0  0
  -27.3960  -27.4640   20.0340 C   0  0  0  0  0  0  0  0  0  0  0  0
  -23.5290  -30.4760   21.5600 C   0  0  0  0  0  3  0  0  0  0  0  0
  -24.9930  -28.9970   20.0720 C   0  0  0  0  0  0  0  0  0  0  0  0
  -26.0490  -30.8820   21.3260 C   0  0  0  0  0  2  0  0  0  0  0  0
  -26.1570  -29.5230   20.6470 C   0  0  0  0  0  0  0  0  0  0  0  0
  -27.3690  -28.7770   20.5980 C   0  0  0  0  0  3  0  0  0  0  0  0
  -26.2170  -26.9880   19.4290 C   0  0  0  0  0  3  0  0  0  0  0  0
  -25.0260  -27.7390   19.4440 C   0  0  0  0  0  3  0  0  0  0  0  0
  -23.7320  -29.8310   20.1630 C   0  0  0  0  0  2  0  0  0  0  0  0
  -24.7890  -31.0920   22.0900 N   0  0  0  0  0  0  0  0  0  0  0  0
  -23.6490  -32.1120   23.7700 O   0  0  0  0  0  0  0  0  0  0  0  0
  -22.9120  -29.4250   22.5140 C   0  0  0  0  0  0  0  0  0  0  0  0
  -21.5890  -29.2200   22.4100 N   0  0  0  0  0  0  0  0  0  0  0  0
  -23.6230  -28.7980   23.3040 O   0  0  0  0  0  0  0  0  0  0  0  0
  -21.0760  -29.7800   21.7440 H   0  0  0  0  0  0  0  0  0  0  0  0
  -18.2570  -27.9140   22.9260 C   0  0  0  0  0  0  0  0  0  0  0  0
  -20.8070  -28.2480   23.1770 C   0  0  0  0  0  3  0  0  0  0  0  0
  -20.9480  -26.8280   22.5820 C   0  0  0  0  0  2  0  0  0  0  0  0
  -19.8470  -26.4850   21.5740 C   0  0  0  0  0  2  0  0  0  0  0  0
  -18.4680  -26.5800   22.2310 C   0  0  0  0  0  2  0  0  0  0  0  0
  -19.3550  -28.7050   23.3560 C   0  0  0  0  0  0  0  0  0  0  0  0
  -19.1030  -29.9530   23.9650 C   0  0  0  0  0  3  0  0  0  0  0  0
  -17.7850  -30.4130   24.1490 C   0  0  0  0  0  3  0  0  0  0  0  0
  -16.7010  -29.6200   23.7340 C   0  0  0  0  0  3  0  0  0  0  0  0
  -16.9380  -28.3720   23.1290 C   0  0  0  0  0  3  0  0  0  0  0  0
  -26.0080  -32.5260   23.8190 C   0  0  0  0  0  3  0  0  0  0  0  0
  -26.5680  -31.7410   25.0700 C   0  0  1  0  0  0  0  0  0  0  0  0
  -25.5010  -31.4510   26.1510 C   0  0  0  0  0  1  0  0  0  0  0  0
  -27.1800  -30.3890   24.6370 C   0  0  0  0  0  1  0  0  0  0  0  0
  -27.7070  -32.5520   25.7310 C   0  0  0  0  0  1  0  0  0  0  0  0
  -25.6710  -33.9090   24.1850 N   0  0  0  0  0  0  0  0  0  0  0  0
  -25.9710  -34.9860   23.4470 C   0  0  0  0  0  0  0  0  0  0  0  0
  -26.6330  -34.9210   22.4070 O   0  0  0  0  0  0  0  0  0  0  0  0
  -25.0820  -34.0320   24.9950 H   0  0  0  0  0  0  0  0  0  0  0  0
  -24.2000  -36.7470   23.1510 C   0  0  0  0  0  1  0  0  0  0  0  0
  -25.4580  -36.3520   23.9400 C   0  0  0  0  0  3  0  0  0  0  0  0
  -27.5810  -37.2640   24.7710 C   0  0  0  0  0  1  0  0  0  0  0  0
  -26.4660  -37.4300   23.8430 N   0  0  0  0  0  0  0  0  0  0  0  0
  -26.0430  -38.3370   24.0180 H   0  0  0  0  0  0  0  0  0  0  0  0
  1  5  1  0
  2  1  2  0
  3  5  2  0
  4  3  1  0
  5  7  1  0
  6  4  2  0
  6  2  1  0
  8 10  1  0
  8  4  1  0
  9  8  2  0
 11 10  2  0
 13 18  1  0
 14 15  1  0
 14 13  1  0
 16 15  1  0
 16 29  1  0
 16 17  1  0
 18 12  1  0
 18 17  1  0
 19 12  2  0
 20 22  1  0
 20 24  1  0
 21 23  1  0
 22 25  1  0
 24 11  1  0
 24 21  1  0
 25 12  1  0
 25 23  1  0
 26 27  2  0
 27 46  1  0
 28 27  1  0
 28 31  1  0
 29 26  1  0
 29 30  1  0
 30 28  2  0
 31 32  1  0
 32 33  2  0
 34 37  1  0
 34 33  1  0
 35 34  2  0
 36 35  1  0
 36 31  2  0
 37 38  1  0
 38 39  1  0
 39 40  2  0
 41 40  1  0
 41 45  1  0
 42 41  2  0
 43 38  2  0
 43 42  1  0
 44 43  1  0
 46 47  1  0
 47 50  1  0
 47 49  1  0
 48 46  2  0
 51 52  1  0
 51 26  1  0
 53 51  1  0
 54  6  1  0
 55 66  2  0
 56 54  1  0
 56 61  1  0
 57 65  1  0
 57 67  1  0
 58 64  1  0
 58 60  1  0
 59 65  1  0
 60 59  1  0
 61 60  2  0
 62 63  1  0
 62 56  2  0
 63 58  2  0
 64 57  1  0
 65 55  1  0
 67 69  2  0
 68 67  1  0
 70 68  1  0
 71 80  2  0
 71 76  1  0
 72 68  1  0
 72 76  1  0
 73 72  1  0
 74 75  1  0
 74 73  1  0
 75 71  1  0
 76 77  2  0
 77 78  1  0
 79 78  2  0
 80 79  1  0
 81 55  1  0
 81 86  1  0
 81 82  1  0
 82 85  1  1
 82 83  1  0
 84 82  1  0
 86 89  1  0
 87 91  1  0
 87 86  1  0
 88 87  2  0
 91 90  1  0
 93 91  1  0
 93 94  1  0
 93 92  1  0
M  ISO  4   6 101  12 100  25 100  54 101
M  END
>  <TORSDO>  (46) 
F 19

>  <SCORE>  (46) 
-11.558

>  <name>  (46) 
45

>  <ligand_id>  (46) 
45

>  <original_smiles>  (46) 
[H]c1c([H])c([H])c2c(c1[H])C([H])([H])C([H])([H])C([H])([H])C2([H])N([H])C(=O)C1([H])N(C(=O)C([H])(N([H])C(=O)C([H])(N([H])C([H])([H])[H])C([H])([H])[H])C(C([H])([H])[H])(C([H])([H])[H])C([H])([H])[H])C([H])([H])c2c([H])c(Oc3c([H])c([H])c(C([H])([H])[H])c([H])c3C(=O)C([H])([H])C([H])([H])C3([H])C([H])([H])C([H])([H])N(C(=O)N4C([H])([H])C([H])([H])C([H])([H])C([H])(n5nc(-c6c([H])c([H])c(Oc7c([H])c([H])c(F)c([H])c7F)c([H])c6[H])c(C(=O)N([H])[H])c5N([H])[H])C4([H])[H])C([H])([H])C3([H])[H])c([H])c([H])c2C1([H])[H]

>  <smiles>  (46) 
[H]c1c([H])c([H])c2c(c1[H])C([H])([H])C([H])([H])C([H])([H])C2([H])N([H])C(=O)C1([H])N(C(=O)C([H])(N([H])C(=O)C([H])(N([H])C([H])([H])[H])C([H])([H])[H])C(C([H])([H])[H])(C([H])([H])[H])C([H])([H])[H])C([H])([H])c2c([H])c(Oc3c([H])c([H])c(C([H])([H])[H])c([H])c3C(=O)C([H])([H])C([H])([H])C3([H])C([H])([H])C([H])([H])N(C(=O)N4C([H])([H])C([H])([H])C([H])([H])C([H])(n5nc(-c6c([H])c([H])c(Oc7c([H])c([H])c(F)c([H])c7F)c([H])c6[H])c(C(=O)N([H])[H])c5N([H])[H])C4([H])[H])C([H])([H])C3([H])[H])c([H])c([H])c2C1([H])[H]

$$$$
46:0:0
     RDKit          3D

 93102  0  0  1  0  0  0  0  0999 V2000
  -29.6320  -19.5780   20.9610 C   0  0  0  0  0  0  0  0  0  0  0  0
  -29.7760  -16.9370   20.3730 C   0  0  0  0  0  0  0  0  0  0  0  0
  -28.7930  -19.9350   19.8710 C   0  0  0  0  0  0  0  0  0  0  0  0
  -30.0990  -18.1500   21.1920 C   0  0  0  0  0  0  0  0  0  0  0  0
  -28.9470  -17.4010   19.2680 C   0  0  0  0  0  0  0  0  0  0  0  0
  -28.4500  -18.7780   19.0690 C   0  0  0  0  0  0  0  0  0  0  0  0
  -30.0090  -20.8570   21.7600 C   0  0  0  0  0  0  0  0  0  0  0  0
  -28.2750  -21.4900   19.5490 C   0  0  0  0  0  2  0  0  0  0  0  0
  -29.1870  -22.2410   21.6580 C   0  0  0  0  0  2  0  0  0  0  0  0
  -28.8310  -22.9070   20.2530 C   0  0  1  0  0  0  0  0  0  0  0  0
  -31.0130  -17.9130   22.3880 C   0  0  0  0  0  1  0  0  0  0  0  0
  -28.6260  -16.4130   18.1490 C   0  0  0  0  0  1  0  0  0  0  0  0
  -27.5110  -19.0400   17.8900 C   0  0  0  0  0  1  0  0  0  0  0  0
  -30.1390  -23.2690   19.5260 C   0  0  0  0  0  1  0  0  0  0  0  0
  -30.9620  -20.8600   22.5440 O   0  0  0  0  0  0  0  0  0  0  0  0
  -30.4660  -15.3940   20.4580 C   0  0  0  0  0  0  0  0  0  0  0  0
  -30.4550  -12.9420   19.6250 C   0  0  0  0  0  2  0  0  0  0  0  0
  -29.5780  -12.6830   18.3750 C   0  0  0  0  0  2  0  0  0  0  0  0
  -28.1110  -12.4440   18.7700 C   0  0  0  0  0  2  0  0  0  0  0  0
  -27.6180  -13.4170   19.8700 C   0  0  0  0  0  3  0  0  0  0  0  0
  -28.6330  -13.6130   21.0120 C   0  0  0  0  0  2  0  0  0  0  0  0
  -29.8810  -14.0980   20.4040 N   0  0  0  0  0  0  0  0  0  0  0  0
  -31.6990  -15.3410   20.3440 O   0  0  0  0  0  0  0  0  0  0  0  0
  -25.2280  -13.9480   20.5750 C   0  0  0  0  0  0  0  0  0  0  0  0
  -24.1680  -13.1550   20.9180 C   0  0  0  0  0  0  0  0  0  0  0  0
  -24.6540  -11.8120   20.9020 C   0  0  0  0  0  0  0  0  0  0  0  0
  -26.2870  -13.0860   20.3570 N   0  0  0  0  0  0  0  0  0  0  0  0
  -25.9540  -11.7960   20.6260 N   0  0  0  0  0  0  0  0  0  0  0  0
  -23.9420  -10.5400   21.0740 C   0  0  0  0  0  0  0  0  0  0  0  0
  -24.3510   -9.5840   22.0290 C   0  0  0  0  0  3  0  0  0  0  0  0
  -23.6360   -8.3780   22.1890 C   0  0  0  0  0  3  0  0  0  0  0  0
  -22.4950   -8.1180   21.3930 C   0  0  0  0  0  0  0  0  0  0  0  0
  -22.1030   -9.0630   20.4270 C   0  0  0  0  0  3  0  0  0  0  0  0
  -22.8210  -10.2590   20.2660 C   0  0  0  0  0  3  0  0  0  0  0  0
  -21.7520   -6.9640   21.4620 O   0  0  0  0  0  0  0  0  0  0  0  0
  -21.6560   -6.2370   22.6210 C   0  0  0  0  0  0  0  0  0  0  0  0
  -21.1340   -6.7960   23.8090 C   0  0  0  0  0  3  0  0  0  0  0  0
  -20.9870   -5.9940   24.9590 C   0  0  0  0  0  3  0  0  0  0  0  0
  -21.3530   -4.6350   24.9220 C   0  0  0  0  0  0  0  0  0  0  0  0
  -21.8670   -4.0760   23.7390 C   0  0  0  0  0  3  0  0  0  0  0  0
  -22.0140   -4.8750   22.5910 C   0  0  0  0  0  0  0  0  0  0  0  0
  -22.4910   -4.3250   21.4480 F   0  0  0  0  0  0  0  0  0  0  0  0
  -21.2050   -3.8630   26.0230 F   0  0  0  0  0  0  0  0  0  0  0  0
  -22.7570  -13.6110   21.1460 C   0  0  0  0  0  0  0  0  0  0  0  0
  -22.0190  -12.9140   22.0010 N   0  0  0  0  0  0  0  0  0  0  0  0
  -22.3170  -14.6230   20.6020 O   0  0  0  0  0  0  0  0  0  0  0  0
  -22.3860  -12.0930   22.4600 H   0  0  0  0  0  0  0  0  0  0  0  0
  -21.0710  -13.2040   22.1980 H   0  0  0  0  0  0  0  0  0  0  0  0
  -25.3780  -15.3200   20.4020 N   0  0  0  0  0  0  0  0  0  0  0  0
  -24.6060  -15.9680   20.5100 H   0  0  0  0  0  0  0  0  0  0  0  0
  -26.2390  -15.7760   20.1300 H   0  0  0  0  0  0  0  0  0  0  0  0
  -27.8860  -24.4300   20.2030 C   0  0  0  0  0  2  0  0  0  0  0  0
  -28.1780  -26.0330   20.3230 O   0  0  0  0  0  0  0  0  0  0  0  0
  -24.6390  -31.9690   23.2890 C   0  0  0  0  0  0  0  0  0  0  0  0
  -27.1660  -27.1160   20.2600 C   0  0  0  0  0  0  0  0  0  0  0  0
  -23.4320  -30.5790   21.6550 C   0  0  0  0  0  3  0  0  0  0  0  0
  -24.8700  -28.9790   20.2230 C   0  0  0  0  0  0  0  0  0  0  0  0
  -25.9960  -30.7920   21.4960 C   0  0  0  0  0  2  0  0  0  0  0  0
  -26.0600  -29.3860   20.8370 C   0  0  0  0  0  0  0  0  0  0  0  0
  -27.2050  -28.4760   20.8310 C   0  0  0  0  0  3  0  0  0  0  0  0
  -25.9450  -26.8500   19.6010 C   0  0  0  0  0  3  0  0  0  0  0  0
  -24.8340  -27.7290   19.5840 C   0  0  0  0  0  3  0  0  0  0  0  0
  -23.6520  -29.9000   20.2760 C   0  0  0  0  0  2  0  0  0  0  0  0
  -24.7110  -31.1390   22.1990 N   0  0  0  0  0  0  0  0  0  0  0  0
  -23.5530  -32.2620   23.8160 O   0  0  0  0  0  0  0  0  0  0  0  0
  -22.7420  -29.5820   22.6200 C   0  0  0  0  0  0  0  0  0  0  0  0
  -21.4150  -29.4030   22.4850 N   0  0  0  0  0  0  0  0  0  0  0  0
  -23.4070  -28.9720   23.4610 O   0  0  0  0  0  0  0  0  0  0  0  0
  -20.9320  -29.9450   21.7830 H   0  0  0  0  0  0  0  0  0  0  0  0
  -18.0410  -28.1580   22.9650 C   0  0  0  0  0  0  0  0  0  0  0  0
  -20.5940  -28.4640   23.2580 C   0  0  0  0  0  3  0  0  0  0  0  0
  -20.7230  -27.0260   22.7040 C   0  0  0  0  0  2  0  0  0  0  0  0
  -19.6390  -26.6740   21.6810 C   0  0  0  0  0  2  0  0  0  0  0  0
  -18.2470  -26.8050   22.3050 C   0  0  0  0  0  2  0  0  0  0  0  0
  -19.1430  -28.9440   23.3970 C   0  0  0  0  0  0  0  0  0  0  0  0
  -18.8950  -30.2070   23.9770 C   0  0  0  0  0  3  0  0  0  0  0  0
  -17.5800  -30.6860   24.1250 C   0  0  0  0  0  3  0  0  0  0  0  0
  -16.4940  -29.8990   23.7060 C   0  0  0  0  0  3  0  0  0  0  0  0
  -16.7250  -28.6360   23.1330 C   0  0  0  0  0  3  0  0  0  0  0  0
  -25.9160  -32.6050   23.9150 C   0  0  0  0  0  3  0  0  0  0  0  0
  -25.6100  -34.0110   24.2380 N   0  0  0  0  0  0  0  0  0  0  0  0
  -25.9260  -35.0610   23.4700 C   0  0  0  0  0  0  0  0  0  0  0  0
  -26.5700  -34.9510   22.4230 O   0  0  0  0  0  0  0  0  0  0  0  0
  -25.0390  -34.1690   25.0540 H   0  0  0  0  0  0  0  0  0  0  0  0
  -24.1850  -36.8540   23.1650 C   0  0  0  0  0  1  0  0  0  0  0  0
  -25.4570  -36.4550   23.9320 C   0  0  0  0  0  3  0  0  0  0  0  0
  -27.6150  -37.3550   24.6810 C   0  0  0  0  0  1  0  0  0  0  0  0
  -26.4830  -37.5080   23.7720 N   0  0  0  0  0  0  0  0  0  0  0  0
  -26.0800  -38.4290   23.9220 H   0  0  0  0  0  0  0  0  0  0  0  0
  -26.4160  -31.8490   25.2080 C   0  0  1  0  0  0  0  0  0  0  0  0
  -25.3110  -31.6340   26.2700 C   0  0  0  0  0  1  0  0  0  0  0  0
  -26.9930  -30.4610   24.8480 C   0  0  0  0  0  1  0  0  0  0  0  0
  -27.5670  -32.6430   25.8690 C   0  0  0  0  0  1  0  0  0  0  0  0
  1  4  1  0
  1  7  1  0
  2 16  1  0
  2  4  2  0
  3  1  2  0
  4 11  1  0
  5  2  1  0
  6  5  2  0
  6  3  1  0
  7 15  2  0
  8  3  1  0
  8 10  1  0
  9  7  1  0
 10 14  1  6
 10  9  1  0
 12  5  1  0
 13  6  1  0
 17 22  1  0
 18 19  1  0
 18 17  1  0
 20 19  1  0
 20 27  1  0
 20 21  1  0
 22 16  1  0
 22 21  1  0
 23 16  2  0
 24 25  2  0
 25 44  1  0
 26 25  1  0
 26 29  1  0
 27 24  1  0
 27 28  1  0
 28 26  2  0
 29 30  1  0
 30 31  2  0
 32 35  1  0
 32 31  1  0
 33 32  2  0
 34 33  1  0
 34 29  2  0
 35 36  1  0
 36 37  1  0
 37 38  2  0
 39 38  1  0
 39 43  1  0
 40 39  2  0
 41 36  2  0
 41 40  1  0
 42 41  1  0
 44 45  1  0
 45 48  1  0
 45 47  1  0
 46 44  2  0
 49 50  1  0
 49 24  1  0
 51 49  1  0
 52 10  1  0
 52 53  1  0
 54 65  2  0
 55 53  1  0
 55 60  1  0
 56 64  1  0
 56 66  1  0
 57 63  1  0
 57 59  1  0
 58 64  1  0
 59 58  1  0
 60 59  2  0
 61 55  2  0
 62 61  1  0
 62 57  2  0
 63 56  1  0
 64 54  1  0
 66 68  2  0
 67 66  1  0
 69 67  1  0
 70 79  2  0
 70 75  1  0
 71 67  1  0
 71 75  1  0
 72 71  1  0
 73 74  1  0
 73 72  1  0
 74 70  1  0
 75 76  2  0
 76 77  1  0
 78 77  2  0
 79 78  1  0
 80 54  1  0
 80 81  1  0
 80 90  1  0
 81 84  1  0
 82 86  1  0
 82 81  1  0
 83 82  2  0
 86 85  1  0
 88 89  1  0
 88 86  1  0
 88 87  1  0
 90 93  1  1
 90 91  1  0
 92 90  1  0
M  ISO  4   2 100  16 100  52 101  53 101
M  END
>  <TORSDO>  (47) 
F 17

>  <SCORE>  (47) 
-15.062

>  <name>  (47) 
46

>  <ligand_id>  (47) 
46

>  <original_smiles>  (47) 
[H]c1c([H])c([H])c2c(c1[H])C([H])([H])C([H])([H])C([H])([H])C2([H])N([H])C(=O)C1([H])N(C(=O)C([H])(N([H])C(=O)C([H])(N([H])C([H])([H])[H])C([H])([H])[H])C(C([H])([H])[H])(C([H])([H])[H])C([H])([H])[H])C([H])([H])c2c([H])c(OC([H])([H])C3(C([H])([H])[H])C([H])([H])C(=O)c4c(C([H])([H])[H])c(C(=O)N5C([H])([H])C([H])([H])C([H])([H])C([H])(n6nc(-c7c([H])c([H])c(Oc8c([H])c([H])c(F)c([H])c8F)c([H])c7[H])c(C(=O)N([H])[H])c6N([H])[H])C5([H])[H])c(C([H])([H])[H])c(C([H])([H])[H])c4C3([H])[H])c([H])c([H])c2C1([H])[H]

>  <smiles>  (47) 
[H]c1c([H])c([H])c2c(c1[H])C([H])([H])C([H])([H])C([H])([H])C2([H])N([H])C(=O)C1([H])N(C(=O)C([H])(N([H])C(=O)C([H])(N([H])C([H])([H])[H])C([H])([H])[H])C(C([H])([H])[H])(C([H])([H])[H])C([H])([H])[H])C([H])([H])c2c([H])c(OC([H])([H])C3(C([H])([H])[H])C([H])([H])C(=O)c4c(C([H])([H])[H])c(C(=O)N5C([H])([H])C([H])([H])C([H])([H])C([H])(n6nc(-c7c([H])c([H])c(Oc8c([H])c([H])c(F)c([H])c8F)c([H])c7[H])c(C(=O)N([H])[H])c6N([H])[H])C5([H])[H])c(C([H])([H])[H])c(C([H])([H])[H])c4C3([H])[H])c([H])c([H])c2C1([H])[H]

$$$$
47:0:0
     RDKit          3D

 97103  0  0  1  0  0  0  0  0999 V2000
  -22.6070  -27.6550   20.8420 C   0  0  0  0  0  2  0  0  0  0  0  0
  -22.2450  -24.8140   22.2380 C   0  0  0  0  0  1  0  0  0  0  0  0
  -24.7340  -26.2300   21.5540 C   0  0  0  0  0  0  0  0  0  0  0  0
  -26.1700  -25.9480   21.5000 C   0  0  0  0  0  0  0  0  0  0  0  0
  -21.4340  -26.5550   21.3120 C   0  0  0  0  0  2  0  0  0  0  0  0
  -24.1970  -27.7070   21.1680 C   0  0  0  0  0  3  0  0  0  0  0  0
  -23.9320  -24.8910   22.1280 C   0  0  0  0  0  0  0  0  0  0  0  0
  -26.5210  -24.6780   21.9120 C   0  0  0  0  0  0  0  0  0  0  0  0
  -27.1650  -26.9560   20.9750 C   0  0  0  0  0  1  0  0  0  0  0  0
  -25.1700  -23.6820   22.4960 S   0  0  0  0  0  0  0  0  0  0  0  0
  -20.1780  -26.9100   20.8390 O   0  0  0  0  0  0  0  0  0  0  0  0
  -19.5510  -26.2370   21.0980 H   0  0  0  0  0  0  0  0  0  0  0  0
  -25.2170  -28.9940   21.4500 O   0  0  0  0  0  0  0  0  0  0  0  0
  -26.9060  -32.1280   26.5370 C   0  0  0  0  0  0  0  0  0  0  0  0
  -25.3500  -30.4090   21.1530 C   0  0  0  0  0  3  0  0  0  0  0  0
  -24.8260  -31.1280   25.7490 C   0  0  0  0  0  3  0  0  0  0  0  0
  -24.1980  -31.3900   23.2560 C   0  0  0  0  0  0  0  0  0  0  0  0
  -26.1530  -32.6360   24.1900 C   0  0  0  0  0  2  0  0  0  0  0  0
  -25.5040  -31.8350   23.0670 C   0  0  0  0  0  3  0  0  0  0  0  0
  -26.1440  -31.3410   21.9120 C   0  0  0  0  0  2  0  0  0  0  0  0
  -24.0640  -30.7880   20.9000 C   0  0  0  0  0  2  0  0  0  0  0  0
  -23.4380  -30.9820   22.1340 C   0  0  0  0  0  3  0  0  0  0  0  0
  -23.7060  -31.3590   24.6810 C   0  0  0  0  0  2  0  0  0  0  0  0
  -25.9760  -32.0410   25.5390 N   0  0  0  0  0  0  0  0  0  0  0  0
  -26.7610  -31.5360   27.6220 O   0  0  0  0  0  0  0  0  0  0  0  0
  -25.4590  -29.7310   25.8510 C   0  0  0  0  0  0  0  0  0  0  0  0
  -25.8730  -29.2790   27.0230 N   0  0  0  0  0  0  0  0  0  0  0  0
  -25.7500  -29.1290   24.8140 O   0  0  0  0  0  0  0  0  0  0  0  0
  -25.6680  -29.8220   27.8510 H   0  0  0  0  0  0  0  0  0  0  0  0
  -26.3590  -27.3200   30.2310 C   0  0  0  0  0  0  0  0  0  0  0  0
  -26.1300  -27.8550   27.2080 C   0  0  0  0  0  3  0  0  0  0  0  0
  -24.4950  -27.1100   26.7070 C   0  0  0  0  0  1  0  0  0  0  0  0
  -23.0510  -26.4550   29.5520 C   0  0  0  0  0 15  0  0  0  0  0  0
  -24.6870  -26.7210   30.7820 C   0  0  0  0  0  1  0  0  0  0  0  0
  -26.8590  -27.7920   28.8100 C   0  0  0  0  0  0  0  0  0  0  0  0
  -28.0990  -28.5000   28.7390 C   0  0  0  0  0  3  0  0  0  0  0  0
  -28.9990  -28.6400   29.8050 C   0  0  0  0  0  3  0  0  0  0  0  0
  -28.6760  -28.0430   31.0270 C   0  0  0  0  0  3  0  0  0  0  0  0
  -27.4060  -27.4260   31.2250 C   0  0  0  0  0  3  0  0  0  0  0  0
  -28.1720  -32.9870   26.3700 C   0  0  0  0  0  3  0  0  0  0  0  0
  -29.3330  -32.2790   25.5700 C   0  0  1  0  0  0  0  0  0  0  0  0
  -29.8110  -30.9430   26.1840 C   0  0  0  0  0  1  0  0  0  0  0  0
  -28.9220  -32.0000   24.1060 C   0  0  0  0  0  1  0  0  0  0  0  0
  -30.5430  -33.2380   25.5090 C   0  0  0  0  0  1  0  0  0  0  0  0
  -28.6050  -33.2970   27.7340 N   0  0  0  0  0  0  0  0  0  0  0  0
  -28.2760  -34.4180   28.3820 C   0  0  0  0  0  0  0  0  0  0  0  0
  -27.6840  -35.3530   27.8390 O   0  0  0  0  0  0  0  0  0  0  0  0
  -29.0660  -32.5580   28.2450 H   0  0  0  0  0  0  0  0  0  0  0  0
  -27.4540  -34.3210   30.7580 C   0  0  0  0  0  1  0  0  0  0  0  0
  -28.6860  -34.5190   29.8610 C   0  0  0  0  0  3  0  0  0  0  0  0
  -30.6410  -35.9670   29.5420 C   0  0  0  0  0  1  0  0  0  0  0  0
  -29.3440  -35.7980   30.1920 N   0  0  0  0  0  0  0  0  0  0  0  0
  -29.4770  -35.8860   31.1960 H   0  0  0  0  0  0  0  0  0  0  0  0
  -27.9280  -24.0660   21.8700 C   0  0  0  0  0  2  0  0  0  0  0  0
  -29.1000  -24.8080   22.6130 C   0  0  0  0  0  2  0  0  0  0  0  0
  -29.9780  -25.8330   21.7950 C   0  0  0  0  0  2  0  0  0  0  0  0
  -31.5140  -25.5450   21.6420 C   0  0  0  0  0  2  0  0  0  0  0  0
  -32.4790  -26.7900   21.5660 C   0  0  0  0  0  2  0  0  0  0  0  0
  -33.9010  -26.4860   20.9680 C   0  0  0  0  0  2  0  0  0  0  0  0
  -35.1620  -27.3660   21.3440 C   0  0  0  0  0  2  0  0  0  0  0  0
  -35.2860  -28.8010   20.7240 C   0  0  0  0  0  2  0  0  0  0  0  0
  -36.5100  -29.1950   19.8020 C   0  0  0  0  0  0  0  0  0  0  0  0
  -36.9890  -30.3310   17.6370 C   0  0  0  0  0  2  0  0  0  0  0  0
  -35.9560  -31.4640   17.4190 C   0  0  0  0  0  2  0  0  0  0  0  0
  -34.6690  -30.9090   16.7740 C   0  0  0  0  0  2  0  0  0  0  0  0
  -34.1390  -29.6410   17.4900 C   0  0  0  0  0  3  0  0  0  0  0  0
  -35.2690  -28.6140   17.7230 C   0  0  0  0  0  2  0  0  0  0  0  0
  -36.3470  -29.2830   18.4520 N   0  0  0  0  0  0  0  0  0  0  0  0
  -37.5190  -29.6600   20.3470 O   0  0  0  0  0  0  0  0  0  0  0  0
  -31.8070  -28.5830   17.2910 C   0  0  0  0  0  0  0  0  0  0  0  0
  -31.0790  -28.1770   16.2070 C   0  0  0  0  0  0  0  0  0  0  0  0
  -31.9110  -28.4050   15.0680 C   0  0  0  0  0  0  0  0  0  0  0  0
  -33.0160  -29.0350   16.7870 N   0  0  0  0  0  0  0  0  0  0  0  0
  -33.0960  -28.8620   15.4440 N   0  0  0  0  0  0  0  0  0  0  0  0
  -31.6300  -28.2700   13.6350 C   0  0  0  0  0  0  0  0  0  0  0  0
  -32.4260  -27.4520   12.8060 C   0  0  0  0  0  3  0  0  0  0  0  0
  -32.1270  -27.3220   11.4330 C   0  0  0  0  0  3  0  0  0  0  0  0
  -31.0220  -28.0110   10.8800 C   0  0  0  0  0  0  0  0  0  0  0  0
  -30.2460  -28.8400   11.7070 C   0  0  0  0  0  3  0  0  0  0  0  0
  -30.5470  -28.9730   13.0720 C   0  0  0  0  0  3  0  0  0  0  0  0
  -30.6740  -27.9700    9.5520 O   0  0  0  0  0  0  0  0  0  0  0  0
  -30.9530  -26.8810    8.7680 C   0  0  0  0  0  0  0  0  0  0  0  0
  -30.4710  -25.5920    9.0840 C   0  0  0  0  0  3  0  0  0  0  0  0
  -30.7220  -24.5130    8.2140 C   0  0  0  0  0  3  0  0  0  0  0  0
  -31.4470  -24.7200    7.0250 C   0  0  0  0  0  0  0  0  0  0  0  0
  -31.9240  -26.0040    6.7060 C   0  0  0  0  0  3  0  0  0  0  0  0
  -31.6750  -27.0810    7.5740 C   0  0  0  0  0  0  0  0  0  0  0  0
  -32.1180  -28.3200    7.2500 F   0  0  0  0  0  0  0  0  0  0  0  0
  -31.6820  -23.6840    6.1850 F   0  0  0  0  0  0  0  0  0  0  0  0
  -29.6550  -27.7010   16.2130 C   0  0  0  0  0  0  0  0  0  0  0  0
  -29.3190  -26.7740   15.3230 N   0  0  0  0  0  0  0  0  0  0  0  0
  -28.8450  -28.1150   17.0410 O   0  0  0  0  0  0  0  0  0  0  0  0
  -29.9910  -26.4260   14.6560 H   0  0  0  0  0  0  0  0  0  0  0  0
  -28.3770  -26.4110   15.3040 H   0  0  0  0  0  0  0  0  0  0  0  0
  -31.5380  -28.6200   18.6560 N   0  0  0  0  0  0  0  0  0  0  0  0
  -30.6540  -28.2930   19.0290 H   0  0  0  0  0  0  0  0  0  0  0  0
  -32.1860  -28.9180   19.3750 H   0  0  0  0  0  0  0  0  0  0  0  0
  1  5  1  0
  3  7  2  0
  4  3  1  0
  4  8  2  0
  6  1  1  0
  6 13  1  0
  6  3  1  0
  7  2  1  0
  7 10  1  0
  8 10  1  0
  9  4  1  0
 11 12  1  0
 11  5  1  0
 14 25  2  0
 15 13  1  0
 15 20  1  0
 16 26  1  0
 17 23  1  0
 18 24  1  0
 19 20  1  0
 19 17  1  0
 19 18  1  0
 21 15  1  0
 21 22  1  0
 22 17  2  0
 23 16  1  0
 24 16  1  0
 24 14  1  0
 26 27  1  0
 27 31  1  0
 27 29  1  0
 28 26  2  0
 30 34  1  0
 30 39  1  0
 31 32  1  0
 31 35  1  0
 35 30  2  0
 36 35  1  0
 36 37  2  0
 37 38  1  0
 38 39  2  0
 40 14  1  0
 40 45  1  0
 41 42  1  1
 41 40  1  0
 43 41  1  0
 44 41  1  0
 45 48  1  0
 45 46  1  0
 46 50  1  0
 47 46  2  0
 50 52  1  0
 50 49  1  0
 51 52  1  0
 52 53  1  0
 54  8  1  0
 54 55  1  0
 56 55  1  0
 57 56  1  0
 58 57  1  0
 59 60  1  0
 59 58  1  0
 61 60  1  0
 62 69  2  0
 62 61  1  0
 63 68  1  0
 64 63  1  0
 65 64  1  0
 66 65  1  0
 66 67  1  0
 67 68  1  0
 68 62  1  0
 70 95  1  0
 71 90  1  0
 71 70  2  0
 72 74  2  0
 72 71  1  0
 73 70  1  0
 73 66  1  0
 74 73  1  0
 75 72  1  0
 76 75  2  0
 77 76  1  0
 78 77  2  0
 78 79  1  0
 79 80  2  0
 80 75  1  0
 81 78  1  0
 82 83  1  0
 82 81  1  0
 84 83  2  0
 85 84  1  0
 86 85  2  0
 86 87  1  0
 87 82  2  0
 88 87  1  0
 89 85  1  0
 90 92  2  0
 91 90  1  0
 93 91  1  0
 94 91  1  0
 95 96  1  0
 95 97  1  0
M  ISO  4   6 101  13 101  61 100  62 100
M  END
>  <TORSDO>  (48) 
F 25

>  <SCORE>  (48) 
-4.188

>  <name>  (48) 
47

>  <ligand_id>  (48) 
47

>  <original_smiles>  (48) 
[H]Oc1c([H])c(Oc2c([H])c([H])c3c(c2[H])C([H])([H])N(C(=O)C([H])(N([H])C(=O)C([H])(N([H])C([H])([H])[H])C([H])([H])[H])C(C([H])([H])[H])(C([H])([H])[H])C([H])([H])[H])C([H])(C(=O)N([H])C2([H])c4c([H])c([H])c([H])c([H])c4C([H])([H])C([H])([H])C2([H])[H])C3([H])[H])c2c(C([H])([H])[H])c(C([H])([H])C([H])([H])C([H])([H])C([H])([H])C([H])([H])C([H])([H])C([H])([H])C([H])([H])C(=O)N3C([H])([H])C([H])([H])C([H])([H])C([H])(n4nc(-c5c([H])c([H])c(Oc6c([H])c([H])c(F)c([H])c6F)c([H])c5[H])c(C(=O)N([H])[H])c4N([H])[H])C3([H])[H])sc2c1[H]

>  <smiles>  (48) 
[H]Oc1c([H])c(Oc2c([H])c([H])c3c(c2[H])C([H])([H])N(C(=O)C([H])(N([H])C(=O)C([H])(N([H])C([H])([H])[H])C([H])([H])[H])C(C([H])([H])[H])(C([H])([H])[H])C([H])([H])[H])C([H])(C(=O)N([H])C2([H])c4c([H])c([H])c([H])c([H])c4C([H])([H])C([H])([H])C2([H])[H])C3([H])[H])c2c(C([H])([H])[H])c(C([H])([H])C([H])([H])C([H])([H])C([H])([H])C([H])([H])C([H])([H])C([H])([H])C([H])([H])C(=O)N3C([H])([H])C([H])([H])C([H])([H])C([H])(n4nc(-c5c([H])c([H])c(Oc6c([H])c([H])c(F)c([H])c6F)c([H])c5[H])c(C(=O)N([H])[H])c4N([H])[H])C3([H])[H])sc2c1[H]

$$$$
48:0:0
     RDKit          3D

 95105  0  0  1  0  0  0  0  0999 V2000
  -29.8010  -18.9840   20.4490 C   0  0  0  0  0  3  0  0  0  0  0  0
  -29.0250  -20.3990   20.2480 C   0  0  0  0  0  0  0  0  0  0  0  0
  -27.6970  -20.1620   19.8030 C   0  0  0  0  0  0  0  0  0  0  0  0
  -29.4460  -17.4340   20.1530 C   0  0  0  0  0  0  0  0  0  0  0  0
  -27.3330  -18.7950   19.4420 C   0  0  0  0  0  0  0  0  0  0  0  0
  -28.1980  -17.6070   19.4420 C   0  0  0  0  0  0  0  0  0  0  0  0
  -29.2850  -22.1850   20.3990 C   0  0  0  0  0  0  0  0  0  0  0  0
  -26.7520  -21.4010   19.5740 C   0  0  0  0  0  0  0  0  0  0  0  0
  -25.5080  -23.4200   20.7300 C   0  0  0  0  0  2  0  0  0  0  0  0
  -26.7220  -22.3310   22.0160 C   0  0  0  0  0  2  0  0  0  0  0  0
  -28.1140  -23.5680   20.0930 C   0  0  0  0  0  3  0  0  0  0  0  0
  -25.2040  -22.5050   21.9240 C   0  0  0  0  0  3  0  0  0  0  0  0
  -26.8610  -22.6920   20.5110 C   0  0  1  0  0  0  0  0  0  0  0  0
  -25.8850  -18.5530   19.0030 C   0  0  0  0  0  1  0  0  0  0  0  0
  -27.8360  -16.5610   18.3900 C   0  0  0  0  0  1  0  0  0  0  0  0
  -24.4440  -23.0280   23.1350 C   0  0  0  0  0  1  0  0  0  0  0  0
  -30.4090  -22.5450   20.7570 O   0  0  0  0  0  0  0  0  0  0  0  0
  -25.9430  -21.3870   18.6420 O   0  0  0  0  0  0  0  0  0  0  0  0
  -30.2440  -15.7890   20.2490 C   0  0  0  0  0  0  0  0  0  0  0  0
  -30.4220  -13.1850   19.5370 C   0  0  0  0  0  2  0  0  0  0  0  0
  -29.5590  -12.6810   18.3400 C   0  0  0  0  0  2  0  0  0  0  0  0
  -28.1500  -12.2770   18.7970 C   0  0  0  0  0  2  0  0  0  0  0  0
  -27.5930  -13.2900   19.8150 C   0  0  0  0  0  3  0  0  0  0  0  0
  -28.5990  -13.7340   20.9050 C   0  0  0  0  0  2  0  0  0  0  0  0
  -29.7600  -14.3870   20.2400 N   0  0  0  0  0  0  0  0  0  0  0  0
  -31.4870  -15.6970   20.1670 O   0  0  0  0  0  0  0  0  0  0  0  0
  -25.2350  -13.8150   20.6010 C   0  0  0  0  0  0  0  0  0  0  0  0
  -24.1690  -13.0330   20.9330 C   0  0  0  0  0  0  0  0  0  0  0  0
  -24.6400  -11.6840   20.8760 C   0  0  0  0  0  0  0  0  0  0  0  0
  -26.2790  -12.9470   20.3350 N   0  0  0  0  0  0  0  0  0  0  0  0
  -25.9340  -11.6550   20.5700 N   0  0  0  0  0  0  0  0  0  0  0  0
  -23.9100  -10.4220   21.0380 C   0  0  0  0  0  0  0  0  0  0  0  0
  -24.3630   -9.4150   21.9180 C   0  0  0  0  0  3  0  0  0  0  0  0
  -23.6290   -8.2200   22.0740 C   0  0  0  0  0  3  0  0  0  0  0  0
  -22.4270   -8.0250   21.3540 C   0  0  0  0  0  0  0  0  0  0  0  0
  -21.9920   -9.0220   20.4630 C   0  0  0  0  0  3  0  0  0  0  0  0
  -22.7260  -10.2090   20.3040 C   0  0  0  0  0  3  0  0  0  0  0  0
  -21.6620   -6.8860   21.4250 O   0  0  0  0  0  0  0  0  0  0  0  0
  -21.6830   -6.0730   22.5290 C   0  0  0  0  0  0  0  0  0  0  0  0
  -21.4000   -6.5640   23.8220 C   0  0  0  0  0  3  0  0  0  0  0  0
  -21.3660   -5.6800   24.9190 C   0  0  0  0  0  3  0  0  0  0  0  0
  -21.6040   -4.3060   24.7230 C   0  0  0  0  0  0  0  0  0  0  0  0
  -21.8820   -3.8150   23.4350 C   0  0  0  0  0  3  0  0  0  0  0  0
  -21.9180   -4.6960   22.3410 C   0  0  0  0  0  0  0  0  0  0  0  0
  -22.1650   -4.2160   21.0980 F   0  0  0  0  0  0  0  0  0  0  0  0
  -21.5630   -3.4540   25.7740 F   0  0  0  0  0  0  0  0  0  0  0  0
  -22.7710  -13.5090   21.1970 C   0  0  0  0  0  0  0  0  0  0  0  0
  -22.0360  -12.8070   22.0510 N   0  0  0  0  0  0  0  0  0  0  0  0
  -22.3400  -14.5400   20.6810 O   0  0  0  0  0  0  0  0  0  0  0  0
  -22.3960  -11.9700   22.4860 H   0  0  0  0  0  0  0  0  0  0  0  0
  -21.0990  -13.1100   22.2770 H   0  0  0  0  0  0  0  0  0  0  0  0
  -25.3990  -15.1880   20.4810 N   0  0  0  0  0  0  0  0  0  0  0  0
  -24.6420  -15.8390   20.6530 H   0  0  0  0  0  0  0  0  0  0  0  0
  -26.2810  -15.6430   20.2850 H   0  0  0  0  0  0  0  0  0  0  0  0
  -28.1790  -25.3620   20.3640 O   0  0  0  0  0  0  0  0  0  0  0  0
  -24.6910  -31.7920   23.1450 C   0  0  0  0  0  0  0  0  0  0  0  0
  -27.2310  -26.6200   20.2310 C   0  0  0  0  0  0  0  0  0  0  0  0
  -23.5210  -30.3900   21.5000 C   0  0  0  0  0  3  0  0  0  0  0  0
  -24.9810  -28.7150   20.1170 C   0  0  0  0  0  0  0  0  0  0  0  0
  -26.1020  -30.4990   21.4210 C   0  0  0  0  0  2  0  0  0  0  0  0
  -26.1680  -29.0530   20.7780 C   0  0  0  0  0  0  0  0  0  0  0  0
  -27.2690  -28.0330   20.8050 C   0  0  0  0  0  3  0  0  0  0  0  0
  -26.0230  -26.5260   19.4860 C   0  0  0  0  0  3  0  0  0  0  0  0
  -24.9530  -27.4760   19.4490 C   0  0  0  0  0  3  0  0  0  0  0  0
  -23.7810  -29.6810   20.1370 C   0  0  0  0  0  2  0  0  0  0  0  0
  -24.7960  -30.9280   22.0750 N   0  0  0  0  0  0  0  0  0  0  0  0
  -23.5920  -32.1040   23.6340 O   0  0  0  0  0  0  0  0  0  0  0  0
  -22.7790  -29.4270   22.4680 C   0  0  0  0  0  0  0  0  0  0  0  0
  -21.4430  -29.3020   22.3440 N   0  0  0  0  0  0  0  0  0  0  0  0
  -23.4200  -28.7890   23.3070 O   0  0  0  0  0  0  0  0  0  0  0  0
  -20.9720  -29.8670   21.6500 H   0  0  0  0  0  0  0  0  0  0  0  0
  -18.0350  -28.1440   22.8480 C   0  0  0  0  0  0  0  0  0  0  0  0
  -20.5990  -28.3800   23.1140 C   0  0  0  0  0  3  0  0  0  0  0  0
  -20.6820  -26.9450   22.5420 C   0  0  0  0  0  2  0  0  0  0  0  0
  -19.5790  -26.6380   21.5250 C   0  0  0  0  0  2  0  0  0  0  0  0
  -18.1970  -26.7970   22.1640 C   0  0  0  0  0  2  0  0  0  0  0  0
  -19.1620  -28.8940   23.2790 C   0  0  0  0  0  0  0  0  0  0  0  0
  -18.9530  -30.1530   23.8830 C   0  0  0  0  0  3  0  0  0  0  0  0
  -17.6520  -30.6620   24.0560 C   0  0  0  0  0  3  0  0  0  0  0  0
  -16.5410  -29.9110   23.6360 C   0  0  0  0  0  3  0  0  0  0  0  0
  -16.7330  -28.6530   23.0380 C   0  0  0  0  0  3  0  0  0  0  0  0
  -25.9460  -32.4430   23.8020 C   0  0  0  0  0  3  0  0  0  0  0  0
  -25.6050  -33.8270   24.1930 N   0  0  0  0  0  0  0  0  0  0  0  0
  -25.9130  -34.9270   23.4930 C   0  0  0  0  0  0  0  0  0  0  0  0
  -26.5730  -34.8860   22.4530 O   0  0  0  0  0  0  0  0  0  0  0  0
  -25.0290  -33.9320   25.0150 H   0  0  0  0  0  0  0  0  0  0  0  0
  -24.1480  -36.7100   23.2650 C   0  0  0  0  0  1  0  0  0  0  0  0
  -25.4140  -36.2870   24.0290 C   0  0  0  0  0  3  0  0  0  0  0  0
  -27.5540  -37.1720   24.8490 C   0  0  0  0  0  1  0  0  0  0  0  0
  -26.4250  -37.3650   23.9410 N   0  0  0  0  0  0  0  0  0  0  0  0
  -26.0070  -38.2690   24.1430 H   0  0  0  0  0  0  0  0  0  0  0  0
  -26.4620  -31.6480   25.0660 C   0  0  1  0  0  0  0  0  0  0  0  0
  -25.3660  -31.3840   26.1240 C   0  0  0  0  0  1  0  0  0  0  0  0
  -27.0550  -30.2800   24.6600 C   0  0  0  0  0  1  0  0  0  0  0  0
  -27.6070  -32.4330   25.7500 C   0  0  0  0  0  1  0  0  0  0  0  0
  2  7  1  0
  2  1  1  0
  3  2  2  0
  4 19  1  0
  4  1  2  0
  5  6  2  0
  5  3  1  0
  6  4  1  0
  7 17  2  0
  8  3  1  0
  8 13  1  0
  9 12  1  0
 11 55  1  0
 11  7  1  0
 11 13  1  0
 12 10  1  0
 12 16  1  0
 13  9  1  6
 13 10  1  0
 14  5  1  0
 15  6  1  0
 18  8  2  0
 20 25  1  0
 21 22  1  0
 21 20  1  0
 23 22  1  0
 23 30  1  0
 23 24  1  0
 25 19  1  0
 25 24  1  0
 26 19  2  0
 27 28  2  0
 28 47  1  0
 29 28  1  0
 29 32  1  0
 30 31  1  0
 30 27  1  0
 31 29  2  0
 32 33  1  0
 33 34  2  0
 35 38  1  0
 35 34  1  0
 36 35  2  0
 37 36  1  0
 37 32  2  0
 38 39  1  0
 39 40  1  0
 40 41  2  0
 42 41  1  0
 42 46  1  0
 43 42  2  0
 44 39  2  0
 44 43  1  0
 45 44  1  0
 47 48  1  0
 48 51  1  0
 48 50  1  0
 49 47  2  0
 52 27  1  0
 52 53  1  0
 54 52  1  0
 56 67  2  0
 57 55  1  0
 57 62  1  0
 58 66  1  0
 58 68  1  0
 59 65  1  0
 59 61  1  0
 60 66  1  0
 61 62  2  0
 61 60  1  0
 63 57  2  0
 64 63  1  0
 64 59  2  0
 65 58  1  0
 66 56  1  0
 68 70  2  0
 69 68  1  0
 71 69  1  0
 72 81  2  0
 72 77  1  0
 73 69  1  0
 73 77  1  0
 74 73  1  0
 75 76  1  0
 75 74  1  0
 76 72  1  0
 77 78  2  0
 78 79  1  0
 80 79  2  0
 81 80  1  0
 82 56  1  0
 82 83  1  0
 82 92  1  0
 83 86  1  0
 84 88  1  0
 84 83  1  0
 85 84  2  0
 88 87  1  0
 90 88  1  0
 90 91  1  0
 90 89  1  0
 92 95  1  1
 92 93  1  0
 94 92  1  0
M  ISO  4   4 100  11 101  19 100  55 101
M  END
>  <TORSDO>  (49) 
F 16

>  <SCORE>  (49) 
-10.717

>  <name>  (49) 
48

>  <ligand_id>  (49) 
48

>  <original_smiles>  (49) 
[H]c1c([H])c([H])c2c(c1[H])C([H])([H])C([H])([H])C([H])([H])C2([H])N([H])C(=O)C1([H])N(C(=O)C([H])(N([H])C(=O)C([H])(N([H])C([H])([H])[H])C([H])([H])[H])C(C([H])([H])[H])(C([H])([H])[H])C([H])([H])[H])C([H])([H])c2c([H])c(OC3([H])C(=O)c4c([H])c(C(=O)N5C([H])([H])C([H])([H])C([H])([H])C([H])(n6nc(-c7c([H])c([H])c(Oc8c([H])c([H])c(F)c([H])c8F)c([H])c7[H])c(C(=O)N([H])[H])c6N([H])[H])C5([H])[H])c(C([H])([H])[H])c(C([H])([H])[H])c4C(=O)C34C([H])([H])C([H])(C([H])([H])[H])C4([H])[H])c([H])c([H])c2C1([H])[H]

>  <smiles>  (49) 
[H]c1c([H])c([H])c2c(c1[H])C([H])([H])C([H])([H])C([H])([H])C2([H])N([H])C(=O)C1([H])N(C(=O)C([H])(N([H])C(=O)C([H])(N([H])C([H])([H])[H])C([H])([H])[H])C(C([H])([H])[H])(C([H])([H])[H])C([H])([H])[H])C([H])([H])c2c([H])c(OC3([H])C(=O)c4c([H])c(C(=O)N5C([H])([H])C([H])([H])C([H])([H])C([H])(n6nc(-c7c([H])c([H])c(Oc8c([H])c([H])c(F)c([H])c8F)c([H])c7[H])c(C(=O)N([H])[H])c6N([H])[H])C5([H])[H])c(C([H])([H])[H])c(C([H])([H])[H])c4C(=O)C34C([H])([H])C([H])(C([H])([H])[H])C4([H])[H])c([H])c([H])c2C1([H])[H]

$$$$
49:0:0
     RDKit          3D

 92100  0  0  1  0  0  0  0  0999 V2000
  -28.4240  -22.9980   19.0620 C   0  0  0  0  0  3  0  0  0  0  0  0
  -28.5960  -22.3030   20.2850 C   0  0  0  0  0  0  0  0  0  0  0  0
  -28.3820  -24.4160   18.9830 C   0  0  0  0  0  0  0  0  0  0  0  0
  -28.7630  -23.1050   21.4540 C   0  0  0  0  0  0  0  0  0  0  0  0
  -28.7170  -24.5410   21.3780 C   0  0  0  0  0  0  0  0  0  0  0  0
  -28.4890  -25.2220   20.1470 C   0  0  0  0  0  0  0  0  0  0  0  0
  -28.2160  -25.0530   17.6150 C   0  0  0  0  0  1  0  0  0  0  0  0
  -28.9890  -22.4390   22.8080 C   0  0  0  0  0  1  0  0  0  0  0  0
  -28.9180  -25.3730   22.6390 C   0  0  0  0  0  1  0  0  0  0  0  0
  -28.4930  -26.6280   20.0670 O   0  0  0  0  0  0  0  0  0  0  0  0
  -24.6830  -31.8550   23.2280 C   0  0  0  0  0  0  0  0  0  0  0  0
  -27.3270  -27.3930   20.1000 C   0  0  0  0  0  0  0  0  0  0  0  0
  -23.4870  -30.4860   21.5530 C   0  0  0  0  0  3  0  0  0  0  0  0
  -24.9460  -28.9590   20.1140 C   0  0  0  0  0  0  0  0  0  0  0  0
  -26.0220  -30.8200   21.3880 C   0  0  0  0  0  2  0  0  0  0  0  0
  -26.1060  -29.4540   20.7230 C   0  0  0  0  0  0  0  0  0  0  0  0
  -27.2990  -28.6800   20.7090 C   0  0  0  0  0  3  0  0  0  0  0  0
  -26.1430  -26.9300   19.4870 C   0  0  0  0  0  3  0  0  0  0  0  0
  -24.9630  -27.7000   19.4920 C   0  0  0  0  0  3  0  0  0  0  0  0
  -23.7080  -29.8300   20.1640 C   0  0  0  0  0  2  0  0  0  0  0  0
  -24.7490  -31.0690   22.1140 N   0  0  0  0  0  0  0  0  0  0  0  0
  -23.5970  -32.1220   23.7640 O   0  0  0  0  0  0  0  0  0  0  0  0
  -22.8210  -29.4520   22.4910 C   0  0  0  0  0  0  0  0  0  0  0  0
  -21.4960  -29.2810   22.3540 N   0  0  0  0  0  0  0  0  0  0  0  0
  -23.4960  -28.8090   23.2990 O   0  0  0  0  0  0  0  0  0  0  0  0
  -21.0110  -29.8510   21.6740 H   0  0  0  0  0  0  0  0  0  0  0  0
  -18.1110  -28.0980   22.8250 C   0  0  0  0  0  0  0  0  0  0  0  0
  -20.6720  -28.3310   23.1030 C   0  0  0  0  0  3  0  0  0  0  0  0
  -20.7640  -26.9130   22.4930 C   0  0  0  0  0  2  0  0  0  0  0  0
  -19.6600  -26.6230   21.4720 C   0  0  0  0  0  2  0  0  0  0  0  0
  -18.2790  -26.7630   22.1170 C   0  0  0  0  0  2  0  0  0  0  0  0
  -19.2360  -28.8400   23.2740 C   0  0  0  0  0  0  0  0  0  0  0  0
  -19.0270  -30.0920   23.8950 C   0  0  0  0  0  3  0  0  0  0  0  0
  -17.7260  -30.5980   24.0720 C   0  0  0  0  0  3  0  0  0  0  0  0
  -16.6160  -29.8530   23.6410 C   0  0  0  0  0  3  0  0  0  0  0  0
  -16.8100  -28.6030   23.0230 C   0  0  0  0  0  3  0  0  0  0  0  0
  -25.9640  -32.4730   23.8690 C   0  0  0  0  0  3  0  0  0  0  0  0
  -26.4820  -31.6690   25.1250 C   0  0  1  0  0  0  0  0  0  0  0  0
  -25.3890  -31.4020   26.1860 C   0  0  0  0  0  1  0  0  0  0  0  0
  -27.0670  -30.3030   24.6980 C   0  0  0  0  0  1  0  0  0  0  0  0
  -27.6310  -32.4470   25.8080 C   0  0  0  0  0  1  0  0  0  0  0  0
  -25.6500  -33.8610   24.2370 N   0  0  0  0  0  0  0  0  0  0  0  0
  -25.9380  -34.9310   23.4850 C   0  0  0  0  0  0  0  0  0  0  0  0
  -26.5660  -34.8550   22.4250 O   0  0  0  0  0  0  0  0  0  0  0  0
  -25.0870  -33.9930   25.0640 H   0  0  0  0  0  0  0  0  0  0  0  0
  -24.1540  -36.6900   23.2580 C   0  0  0  0  0  1  0  0  0  0  0  0
  -25.4520  -36.3040   23.9870 C   0  0  0  0  0  3  0  0  0  0  0  0
  -27.6120  -37.2320   24.6970 C   0  0  0  0  0  1  0  0  0  0  0  0
  -26.4540  -37.3800   23.8200 N   0  0  0  0  0  0  0  0  0  0  0  0
  -26.0380  -38.2920   23.9930 H   0  0  0  0  0  0  0  0  0  0  0  0
  -28.4200  -20.7440   20.3020 C   0  0  0  0  0  2  0  0  0  0  0  0
  -29.6540  -19.7680   20.4430 C   0  0  0  0  0  2  0  0  0  0  0  0
  -29.2800  -18.2240   20.5060 C   0  0  0  0  0  3  0  0  0  0  0  0
  -30.4520  -17.1670   20.5960 C   0  0  0  0  0  3  0  0  0  0  0  0
  -30.7990  -14.6380   20.3550 C   0  0  0  0  0  0  0  0  0  0  0  0
  -30.5600  -12.3970   19.3230 C   0  0  0  0  0  2  0  0  0  0  0  0
  -29.6200  -12.5080   18.1040 C   0  0  0  0  0  2  0  0  0  0  0  0
  -28.1460  -12.3610   18.5330 C   0  0  0  0  0  2  0  0  0  0  0  0
  -27.7870  -13.2490   19.7540 C   0  0  0  0  0  3  0  0  0  0  0  0
  -28.8430  -13.1220   20.8750 C   0  0  0  0  0  2  0  0  0  0  0  0
  -30.1540  -13.4340   20.2890 N   0  0  0  0  0  0  0  0  0  0  0  0
  -31.9640  -14.7700   19.9690 O   0  0  0  0  0  0  0  0  0  0  0  0
  -30.0410  -15.7260   20.6660 N   0  0  0  0  0  0  0  0  0  0  0  0
  -29.0880  -15.5360   20.9410 H   0  0  0  0  0  0  0  0  0  0  0  0
  -25.3990  -13.8560   20.4830 C   0  0  0  0  0  0  0  0  0  0  0  0
  -24.3290  -13.0870   20.8500 C   0  0  0  0  0  0  0  0  0  0  0  0
  -24.7830  -11.7330   20.8090 C   0  0  0  0  0  0  0  0  0  0  0  0
  -26.4390  -12.9720   20.2420 N   0  0  0  0  0  0  0  0  0  0  0  0
  -26.0730  -11.6890   20.4970 N   0  0  0  0  0  0  0  0  0  0  0  0
  -24.0500  -10.4740   20.9910 C   0  0  0  0  0  0  0  0  0  0  0  0
  -24.4600   -9.5120   21.9410 C   0  0  0  0  0  3  0  0  0  0  0  0
  -23.7270   -8.3170   22.1100 C   0  0  0  0  0  3  0  0  0  0  0  0
  -22.5720   -8.0740   21.3300 C   0  0  0  0  0  0  0  0  0  0  0  0
  -22.1830   -9.0250   20.3690 C   0  0  0  0  0  3  0  0  0  0  0  0
  -22.9160  -10.2110   20.1970 C   0  0  0  0  0  3  0  0  0  0  0  0
  -21.8120   -6.9330   21.4100 O   0  0  0  0  0  0  0  0  0  0  0  0
  -21.6990   -6.2240   22.5790 C   0  0  0  0  0  0  0  0  0  0  0  0
  -21.1740   -6.8050   23.7540 C   0  0  0  0  0  3  0  0  0  0  0  0
  -21.0080   -6.0210   24.9140 C   0  0  0  0  0  3  0  0  0  0  0  0
  -21.3580   -4.6580   24.8990 C   0  0  0  0  0  0  0  0  0  0  0  0
  -21.8750   -4.0760   23.7280 C   0  0  0  0  0  3  0  0  0  0  0  0
  -22.0430   -4.8570   22.5710 C   0  0  0  0  0  0  0  0  0  0  0  0
  -22.5210   -4.2860   21.4400 F   0  0  0  0  0  0  0  0  0  0  0  0
  -21.1920   -3.9040   26.0110 F   0  0  0  0  0  0  0  0  0  0  0  0
  -22.9340  -13.5690   21.1290 C   0  0  0  0  0  0  0  0  0  0  0  0
  -22.2090  -12.8760   21.9980 N   0  0  0  0  0  0  0  0  0  0  0  0
  -22.4980  -14.5960   20.6110 O   0  0  0  0  0  0  0  0  0  0  0  0
  -22.5750  -12.0450   22.4410 H   0  0  0  0  0  0  0  0  0  0  0  0
  -21.2730  -13.1800   22.2290 H   0  0  0  0  0  0  0  0  0  0  0  0
  -25.5710  -15.2280   20.3120 N   0  0  0  0  0  0  0  0  0  0  0  0
  -24.8090  -15.8880   20.4240 H   0  0  0  0  0  0  0  0  0  0  0  0
  -26.4170  -15.6600   19.9640 H   0  0  0  0  0  0  0  0  0  0  0  0
  1  2  1  0
  2 51  1  0
  2  4  2  0
  3  1  2  0
  3  6  1  0
  4  8  1  0
  5  4  1  0
  5  9  1  0
  6  5  2  0
  7  3  1  0
 10 12  1  0
 10  6  1  0
 11 22  2  0
 12 17  1  0
 13 21  1  0
 13 23  1  0
 14 20  1  0
 14 16  1  0
 15 21  1  0
 16 15  1  0
 17 16  2  0
 18 19  1  0
 18 12  2  0
 19 14  2  0
 20 13  1  0
 21 11  1  0
 23 25  2  0
 24 23  1  0
 26 24  1  0
 27 36  2  0
 27 32  1  0
 28 24  1  0
 28 32  1  0
 29 28  1  0
 30 31  1  0
 30 29  1  0
 31 27  1  0
 32 33  2  0
 33 34  1  0
 35 34  2  0
 36 35  1  0
 37 11  1  0
 37 42  1  0
 37 38  1  0
 38 41  1  1
 38 39  1  0
 40 38  1  0
 42 45  1  0
 43 47  1  0
 43 42  1  0
 44 43  2  0
 47 46  1  0
 49 47  1  0
 49 50  1  0
 49 48  1  0
 51 52  1  0
 52 53  1  0
 53 54  2  0
 54 63  1  0
 55 63  1  0
 56 61  1  0
 57 58  1  0
 57 56  1  0
 59 58  1  0
 59 68  1  0
 59 60  1  0
 61 55  1  0
 61 60  1  0
 62 55  2  0
 63 64  1  0
 65 66  2  0
 66 85  1  0
 67 66  1  0
 67 70  1  0
 68 65  1  0
 68 69  1  0
 69 67  2  0
 70 71  1  0
 71 72  2  0
 73 76  1  0
 73 72  1  0
 74 73  2  0
 75 74  1  0
 75 70  2  0
 76 77  1  0
 77 78  1  0
 78 79  2  0
 80 79  1  0
 80 84  1  0
 81 80  2  0
 82 77  2  0
 82 81  1  0
 83 82  1  0
 85 86  1  0
 86 89  1  0
 86 88  1  0
 87 85  2  0
 90 91  1  0
 90 65  1  0
 92 90  1  0
M  ISO  4   6 101  10 101  55 100  63 100
M  END
>  <TORSDO>  (50) 
F 20

>  <SCORE>  (50) 
-13.803

>  <name>  (50) 
49

>  <ligand_id>  (50) 
49

>  <original_smiles>  (50) 
[H]c1c([H])c([H])c2c(c1[H])C([H])([H])C([H])([H])C([H])([H])C2([H])N([H])C(=O)C1([H])N(C(=O)C([H])(N([H])C(=O)C([H])(N([H])C([H])([H])[H])C([H])([H])[H])C(C([H])([H])[H])(C([H])([H])[H])C([H])([H])[H])C([H])([H])c2c([H])c(Oc3c(C([H])([H])[H])c([H])c(C([H])([H])C([H])([H])C([H])([H])C([H])([H])N([H])C(=O)N4C([H])([H])C([H])([H])C([H])([H])C([H])(n5nc(-c6c([H])c([H])c(Oc7c([H])c([H])c(F)c([H])c7F)c([H])c6[H])c(C(=O)N([H])[H])c5N([H])[H])C4([H])[H])c(C([H])([H])[H])c3C([H])([H])[H])c([H])c([H])c2C1([H])[H]

>  <smiles>  (50) 
[H]c1c([H])c([H])c2c(c1[H])C([H])([H])C([H])([H])C([H])([H])C2([H])N([H])C(=O)C1([H])N(C(=O)C([H])(N([H])C(=O)C([H])(N([H])C([H])([H])[H])C([H])([H])[H])C(C([H])([H])[H])(C([H])([H])[H])C([H])([H])[H])C([H])([H])c2c([H])c(Oc3c(C([H])([H])[H])c([H])c(C([H])([H])C([H])([H])C([H])([H])C([H])([H])N([H])C(=O)N4C([H])([H])C([H])([H])C([H])([H])C([H])(n5nc(-c6c([H])c([H])c(Oc7c([H])c([H])c(F)c([H])c7F)c([H])c6[H])c(C(=O)N([H])[H])c5N([H])[H])C4([H])[H])c(C([H])([H])[H])c3C([H])([H])[H])c([H])c([H])c2C1([H])[H]

$$$$
50:0:0
     RDKit          3D

 93101  0  0  1  0  0  0  0  0999 V2000
  -28.8980  -22.6740   18.4810 C   0  0  0  0  0  3  0  0  0  0  0  0
  -28.8920  -23.8610   17.7180 C   0  0  0  0  0  0  0  0  0  0  0  0
  -28.6650  -22.6750   19.8700 C   0  0  0  0  0  0  0  0  0  0  0  0
  -28.6750  -25.1260   18.3250 C   0  0  0  0  0  0  0  0  0  0  0  0
  -28.4620  -23.9800   20.4880 C   0  0  0  0  0  0  0  0  0  0  0  0
  -28.4600  -25.2200   19.7230 C   0  0  0  0  0  0  0  0  0  0  0  0
  -29.0790  -23.7510   16.2160 C   0  0  0  0  0  1  0  0  0  0  0  0
  -28.6570  -26.3810   17.4550 C   0  0  0  0  0  1  0  0  0  0  0  0
  -28.2140  -24.0680   21.9870 C   0  0  0  0  0  1  0  0  0  0  0  0
  -28.3450  -26.5200   20.2890 O   0  0  0  0  0  0  0  0  0  0  0  0
  -24.5880  -31.9270   23.2200 C   0  0  0  0  0  0  0  0  0  0  0  0
  -27.2090  -27.3490   20.2090 C   0  0  0  0  0  0  0  0  0  0  0  0
  -23.3850  -30.5080   21.5880 C   0  0  0  0  0  3  0  0  0  0  0  0
  -24.8370  -28.9580   20.1650 C   0  0  0  0  0  0  0  0  0  0  0  0
  -25.9150  -30.8480   21.3910 C   0  0  0  0  0  2  0  0  0  0  0  0
  -26.0010  -29.4590   20.7600 C   0  0  0  0  0  0  0  0  0  0  0  0
  -27.1830  -28.6630   20.7770 C   0  0  0  0  0  3  0  0  0  0  0  0
  -26.0190  -26.8990   19.5920 C   0  0  0  0  0  3  0  0  0  0  0  0
  -24.8520  -27.6850   19.5660 C   0  0  0  0  0  3  0  0  0  0  0  0
  -23.5940  -29.8210   20.2140 C   0  0  0  0  0  2  0  0  0  0  0  0
  -24.6480  -31.1160   22.1230 N   0  0  0  0  0  0  0  0  0  0  0  0
  -23.5070  -32.1960   23.7630 O   0  0  0  0  0  0  0  0  0  0  0  0
  -22.7360  -29.4970   22.5640 C   0  0  0  0  0  0  0  0  0  0  0  0
  -21.4150  -29.2930   22.4360 N   0  0  0  0  0  0  0  0  0  0  0  0
  -23.4240  -28.8960   23.3940 O   0  0  0  0  0  0  0  0  0  0  0  0
  -20.9200  -29.8340   21.7400 H   0  0  0  0  0  0  0  0  0  0  0  0
  -18.0570  -28.0440   22.9320 C   0  0  0  0  0  0  0  0  0  0  0  0
  -20.6060  -28.3560   23.2180 C   0  0  0  0  0  3  0  0  0  0  0  0
  -20.7400  -26.9190   22.6660 C   0  0  0  0  0  2  0  0  0  0  0  0
  -19.6550  -26.5640   21.6440 C   0  0  0  0  0  2  0  0  0  0  0  0
  -18.2650  -26.6880   22.2770 C   0  0  0  0  0  2  0  0  0  0  0  0
  -19.1570  -28.8350   23.3600 C   0  0  0  0  0  0  0  0  0  0  0  0
  -18.9120  -30.0990   23.9370 C   0  0  0  0  0  3  0  0  0  0  0  0
  -17.5960  -30.5760   24.0870 C   0  0  0  0  0  3  0  0  0  0  0  0
  -16.5100  -29.7890   23.6670 C   0  0  0  0  0  3  0  0  0  0  0  0
  -16.7440  -28.5240   23.1000 C   0  0  0  0  0  3  0  0  0  0  0  0
  -25.8690  -32.5720   23.8290 C   0  0  0  0  0  3  0  0  0  0  0  0
  -26.3950  -31.8170   25.1130 C   0  0  1  0  0  0  0  0  0  0  0  0
  -25.3100  -31.5820   26.1910 C   0  0  0  0  0  1  0  0  0  0  0  0
  -26.9860  -30.4390   24.7300 C   0  0  0  0  0  1  0  0  0  0  0  0
  -27.5430  -32.6260   25.7620 C   0  0  0  0  0  1  0  0  0  0  0  0
  -25.5470  -33.9710   24.1480 N   0  0  0  0  0  0  0  0  0  0  0  0
  -25.8930  -35.0220   23.3920 C   0  0  0  0  0  0  0  0  0  0  0  0
  -26.5740  -34.9130   22.3670 O   0  0  0  0  0  0  0  0  0  0  0  0
  -24.9270  -34.1270   24.9300 H   0  0  0  0  0  0  0  0  0  0  0  0
  -24.1790  -36.8310   23.0050 C   0  0  0  0  0  1  0  0  0  0  0  0
  -25.4000  -36.4140   23.8400 C   0  0  0  0  0  3  0  0  0  0  0  0
  -27.5180  -37.3000   24.7150 C   0  0  0  0  0  1  0  0  0  0  0  0
  -26.4390  -37.4630   23.7460 N   0  0  0  0  0  0  0  0  0  0  0  0
  -26.0330  -38.3880   23.8650 H   0  0  0  0  0  0  0  0  0  0  0  0
  -28.4850  -21.2490   20.5590 C   0  0  0  0  0  2  0  0  0  0  0  0
  -29.5830  -20.0720   20.4270 C   0  0  0  0  0  3  0  0  0  0  0  0
  -29.1620  -18.5100   20.4250 C   0  0  0  0  0  3  0  0  0  0  0  0
  -31.6140  -17.7330   19.9680 C   0  0  0  0  0  1  0  0  0  0  0  0
  -30.2990  -17.3950   20.7160 C   0  0  0  0  0  3  0  0  0  0  0  0
  -30.6310  -14.7710   20.4000 C   0  0  0  0  0  0  0  0  0  0  0  0
  -30.3860  -12.5220   19.3690 C   0  0  0  0  0  2  0  0  0  0  0  0
  -29.4750  -12.6530   18.1340 C   0  0  0  0  0  2  0  0  0  0  0  0
  -27.9930  -12.4920   18.5380 C   0  0  0  0  0  2  0  0  0  0  0  0
  -27.6110  -13.3340   19.7870 C   0  0  0  0  0  3  0  0  0  0  0  0
  -28.6680  -13.2320   20.9100 C   0  0  0  0  0  2  0  0  0  0  0  0
  -29.9700  -13.5680   20.3230 N   0  0  0  0  0  0  0  0  0  0  0  0
  -31.8220  -14.8300   20.0930 O   0  0  0  0  0  0  0  0  0  0  0  0
  -29.8950  -15.9180   20.6210 N   0  0  0  0  0  0  0  0  0  0  0  0
  -28.9180  -15.7400   20.7930 H   0  0  0  0  0  0  0  0  0  0  0  0
  -25.2070  -13.8670   20.5050 C   0  0  0  0  0  0  0  0  0  0  0  0
  -24.1580  -13.0710   20.8620 C   0  0  0  0  0  0  0  0  0  0  0  0
  -24.6490  -11.7280   20.8410 C   0  0  0  0  0  0  0  0  0  0  0  0
  -26.2720  -13.0140   20.2680 N   0  0  0  0  0  0  0  0  0  0  0  0
  -25.9410  -11.7210   20.5330 N   0  0  0  0  0  0  0  0  0  0  0  0
  -23.9470  -10.4530   21.0300 C   0  0  0  0  0  0  0  0  0  0  0  0
  -24.3750   -9.5090   21.9890 C   0  0  0  0  0  3  0  0  0  0  0  0
  -23.6700   -8.2990   22.1680 C   0  0  0  0  0  3  0  0  0  0  0  0
  -22.5260   -8.0230   21.3820 C   0  0  0  0  0  0  0  0  0  0  0  0
  -22.1200   -8.9550   20.4110 C   0  0  0  0  0  3  0  0  0  0  0  0
  -22.8270  -10.1550   20.2320 C   0  0  0  0  0  3  0  0  0  0  0  0
  -21.7950   -6.8620   21.4650 O   0  0  0  0  0  0  0  0  0  0  0  0
  -21.7100   -6.1480   22.6340 C   0  0  0  0  0  0  0  0  0  0  0  0
  -21.1820   -6.7110   23.8170 C   0  0  0  0  0  3  0  0  0  0  0  0
  -21.0480   -5.9180   24.9740 C   0  0  0  0  0  3  0  0  0  0  0  0
  -21.4350   -4.5650   24.9510 C   0  0  0  0  0  0  0  0  0  0  0  0
  -21.9560   -4.0020   23.7740 C   0  0  0  0  0  3  0  0  0  0  0  0
  -22.0920   -4.7900   22.6180 C   0  0  0  0  0  0  0  0  0  0  0  0
  -22.5750   -4.2380   21.4780 F   0  0  0  0  0  0  0  0  0  0  0  0
  -21.3010   -3.8020   26.0600 F   0  0  0  0  0  0  0  0  0  0  0  0
  -22.7470  -13.5170   21.1250 C   0  0  0  0  0  0  0  0  0  0  0  0
  -22.0270  -12.8030   21.9780 N   0  0  0  0  0  0  0  0  0  0  0  0
  -22.2930  -14.5400   20.6060 O   0  0  0  0  0  0  0  0  0  0  0  0
  -22.4090  -11.9760   22.4130 H   0  0  0  0  0  0  0  0  0  0  0  0
  -21.0810  -13.0840   22.1980 H   0  0  0  0  0  0  0  0  0  0  0  0
  -25.3400  -15.2420   20.3310 N   0  0  0  0  0  0  0  0  0  0  0  0
  -24.5600  -15.8760   20.4640 H   0  0  0  0  0  0  0  0  0  0  0  0
  -26.1600  -15.7060   19.9590 H   0  0  0  0  0  0  0  0  0  0  0  0
  1  3  1  0
  2  4  1  0
  2  1  2  0
  3  5  2  0
  3 51  1  0
  4  6  2  0
  5  9  1  0
  6 10  1  0
  6  5  1  0
  7  2  1  0
  8  4  1  0
 11 22  2  0
 12 10  1  0
 12 17  1  0
 13 21  1  0
 13 23  1  0
 14 20  1  0
 14 16  1  0
 15 21  1  0
 16 17  2  0
 16 15  1  0
 18 12  2  0
 19 18  1  0
 19 14  2  0
 20 13  1  0
 21 11  1  0
 23 25  2  0
 24 23  1  0
 26 24  1  0
 27 36  2  0
 27 32  1  0
 28 24  1  0
 28 32  1  0
 29 28  1  0
 30 31  1  0
 30 29  1  0
 31 27  1  0
 32 33  2  0
 33 34  1  0
 35 34  2  0
 36 35  1  0
 37 11  1  0
 37 42  1  0
 37 38  1  0
 38 41  1  1
 38 39  1  0
 40 38  1  0
 42 45  1  0
 43 47  1  0
 43 42  1  0
 44 43  2  0
 47 46  1  0
 49 47  1  0
 49 50  1  0
 49 48  1  0
 52 51  1  0
 53 52  2  0
 53 55  1  0
 55 54  1  0
 56 64  1  0
 57 62  1  0
 58 59  1  0
 58 57  1  0
 60 59  1  0
 60 69  1  0
 60 61  1  0
 62 56  1  0
 62 61  1  0
 63 56  2  0
 64 55  1  0
 64 65  1  0
 66 67  2  0
 67 86  1  0
 68 67  1  0
 68 71  1  0
 69 66  1  0
 69 70  1  0
 70 68  2  0
 71 72  1  0
 72 73  2  0
 74 77  1  0
 74 73  1  0
 75 74  2  0
 76 75  1  0
 76 71  2  0
 77 78  1  0
 78 79  1  0
 79 80  2  0
 81 80  1  0
 81 85  1  0
 82 81  2  0
 83 78  2  0
 83 82  1  0
 84 83  1  0
 86 87  1  0
 87 90  1  0
 87 89  1  0
 88 86  2  0
 91 92  1  0
 91 66  1  0
 93 91  1  0
M  ISO  4   6 101  10 101  56 100  64 100
M  END
>  <TORSDO>  (51) 
F 20

>  <SCORE>  (51) 
-13.783

>  <name>  (51) 
50

>  <ligand_id>  (51) 
50

>  <original_smiles>  (51) 
[H]c1c([H])c([H])c2c(c1[H])C([H])([H])C([H])([H])C([H])([H])C2([H])N([H])C(=O)C1([H])N(C(=O)C([H])(N([H])C(=O)C([H])(N([H])C([H])([H])[H])C([H])([H])[H])C(C([H])([H])[H])(C([H])([H])[H])C([H])([H])[H])C([H])([H])c2c([H])c(Oc3c(C([H])([H])[H])c(C([H])([H])[H])c([H])c(C([H])([H])C([H])([H])C([H])([H])C([H])(N([H])C(=O)N4C([H])([H])C([H])([H])C([H])([H])C([H])(n5nc(-c6c([H])c([H])c(Oc7c([H])c([H])c(F)c([H])c7F)c([H])c6[H])c(C(=O)N([H])[H])c5N([H])[H])C4([H])[H])C([H])([H])[H])c3C([H])([H])[H])c([H])c([H])c2C1([H])[H]

>  <smiles>  (51) 
[H]c1c([H])c([H])c2c(c1[H])C([H])([H])C([H])([H])C([H])([H])C2([H])N([H])C(=O)C1([H])N(C(=O)C([H])(N([H])C(=O)C([H])(N([H])C([H])([H])[H])C([H])([H])[H])C(C([H])([H])[H])(C([H])([H])[H])C([H])([H])[H])C([H])([H])c2c([H])c(Oc3c(C([H])([H])[H])c(C([H])([H])[H])c([H])c(C([H])([H])C([H])([H])C([H])([H])C([H])(N([H])C(=O)N4C([H])([H])C([H])([H])C([H])([H])C([H])(n5nc(-c6c([H])c([H])c(Oc7c([H])c([H])c(F)c([H])c7F)c([H])c6[H])c(C(=O)N([H])[H])c5N([H])[H])C4([H])[H])C([H])([H])[H])c3C([H])([H])[H])c([H])c([H])c2C1([H])[H]

$$$$
51:0:0
     RDKit          3D

 91 99  0  0  1  0  0  0  0  0999 V2000
  -29.8550  -20.7140   21.2260 C   0  0  0  0  0  3  0  0  0  0  0  0
  -29.3470  -19.6300   20.3920 C   0  0  0  0  0  0  0  0  0  0  0  0
  -29.4660  -22.1470   21.2530 C   0  0  0  0  0  0  0  0  0  0  0  0
  -28.3560  -20.2730   19.5340 C   0  0  0  0  0  0  0  0  0  0  0  0
  -27.9770  -21.7270   19.5230 C   0  0  0  0  0  0  0  0  0  0  0  0
  -28.4880  -22.7950   20.3940 C   0  0  0  0  0  0  0  0  0  0  0  0
  -30.1280  -23.0170   22.3060 C   0  0  0  0  0  1  0  0  0  0  0  0
  -27.6650  -19.3430   18.5430 C   0  0  0  0  0  1  0  0  0  0  0  0
  -26.9270  -22.1690   18.5090 C   0  0  0  0  0  1  0  0  0  0  0  0
  -29.5810  -16.6560   20.3690 C   0  0  0  0  0  3  0  0  0  0  0  0
  -29.9910  -18.0640   20.3710 C   0  0  0  0  0  0  0  0  0  0  0  0
  -30.3970  -15.2590   20.2470 C   0  0  0  0  0  0  0  0  0  0  0  0
  -30.3230  -12.8310   19.3670 C   0  0  0  0  0  2  0  0  0  0  0  0
  -29.3840  -12.6740   18.1440 C   0  0  0  0  0  2  0  0  0  0  0  0
  -27.9380  -12.4130   18.6000 C   0  0  0  0  0  2  0  0  0  0  0  0
  -27.5120  -13.3610   19.7480 C   0  0  0  0  0  3  0  0  0  0  0  0
  -28.5770  -13.4860   20.8550 C   0  0  0  0  0  2  0  0  0  0  0  0
  -29.8150  -13.9640   20.2220 N   0  0  0  0  0  0  0  0  0  0  0  0
  -31.6100  -15.2200   19.9970 O   0  0  0  0  0  0  0  0  0  0  0  0
  -25.1560  -13.9050   20.5580 C   0  0  0  0  0  0  0  0  0  0  0  0
  -24.1030  -13.1200   20.9380 C   0  0  0  0  0  0  0  0  0  0  0  0
  -24.5730  -11.7710   20.8820 C   0  0  0  0  0  0  0  0  0  0  0  0
  -26.1950  -13.0350   20.2800 N   0  0  0  0  0  0  0  0  0  0  0  0
  -25.8580  -11.7460   20.5440 N   0  0  0  0  0  0  0  0  0  0  0  0
  -23.8510  -10.5050   21.0690 C   0  0  0  0  0  0  0  0  0  0  0  0
  -24.3010   -9.5250   21.9820 C   0  0  0  0  0  3  0  0  0  0  0  0
  -23.5770   -8.3260   22.1600 C   0  0  0  0  0  3  0  0  0  0  0  0
  -22.3900   -8.0980   21.4250 C   0  0  0  0  0  0  0  0  0  0  0  0
  -21.9600   -9.0660   20.5000 C   0  0  0  0  0  3  0  0  0  0  0  0
  -22.6830  -10.2570   20.3200 C   0  0  0  0  0  3  0  0  0  0  0  0
  -21.6360   -6.9520   21.5120 O   0  0  0  0  0  0  0  0  0  0  0  0
  -21.6080   -6.1950   22.6560 C   0  0  0  0  0  0  0  0  0  0  0  0
  -21.1980   -6.7330   23.8950 C   0  0  0  0  0  3  0  0  0  0  0  0
  -21.1170   -5.9020   25.0310 C   0  0  0  0  0  3  0  0  0  0  0  0
  -21.4350   -4.5350   24.9280 C   0  0  0  0  0  0  0  0  0  0  0  0
  -21.8390   -3.9970   23.6930 C   0  0  0  0  0  3  0  0  0  0  0  0
  -21.9210   -4.8250   22.5600 C   0  0  0  0  0  0  0  0  0  0  0  0
  -22.2890   -4.2960   21.3680 F   0  0  0  0  0  0  0  0  0  0  0  0
  -21.3510   -3.7350   26.0160 F   0  0  0  0  0  0  0  0  0  0  0  0
  -22.7100  -13.5910   21.2370 C   0  0  0  0  0  0  0  0  0  0  0  0
  -21.9980  -12.8840   22.1080 N   0  0  0  0  0  0  0  0  0  0  0  0
  -22.2620  -14.6210   20.7340 O   0  0  0  0  0  0  0  0  0  0  0  0
  -22.3750  -12.0520   22.5360 H   0  0  0  0  0  0  0  0  0  0  0  0
  -21.0640  -13.1810   22.3510 H   0  0  0  0  0  0  0  0  0  0  0  0
  -25.3110  -15.2780   20.3960 N   0  0  0  0  0  0  0  0  0  0  0  0
  -24.5440  -15.9270   20.5360 H   0  0  0  0  0  0  0  0  0  0  0  0
  -26.1500  -15.7260   20.0510 H   0  0  0  0  0  0  0  0  0  0  0  0
  -31.3140  -18.2360   20.2730 O   0  0  0  0  0  0  0  0  0  0  0  0
  -31.4700  -19.1710   20.2100 H   0  0  0  0  0  0  0  0  0  0  0  0
  -27.7620  -24.3710   20.6000 C   0  0  0  0  0  2  0  0  0  0  0  0
  -28.1720  -25.9310   20.3680 O   0  0  0  0  0  0  0  0  0  0  0  0
  -24.6200  -31.9200   23.2640 C   0  0  0  0  0  0  0  0  0  0  0  0
  -27.1760  -27.0310   20.3180 C   0  0  0  0  0  0  0  0  0  0  0  0
  -23.4290  -30.5100   21.6360 C   0  0  0  0  0  3  0  0  0  0  0  0
  -24.8810  -28.8950   20.2390 C   0  0  0  0  0  0  0  0  0  0  0  0
  -25.9960  -30.7220   21.4970 C   0  0  0  0  0  2  0  0  0  0  0  0
  -26.0670  -29.3090   20.8600 C   0  0  0  0  0  0  0  0  0  0  0  0
  -27.2130  -28.3970   20.8760 C   0  0  0  0  0  3  0  0  0  0  0  0
  -25.9650  -26.7710   19.6360 C   0  0  0  0  0  3  0  0  0  0  0  0
  -24.8540  -27.6450   19.6060 C   0  0  0  0  0  3  0  0  0  0  0  0
  -23.6630  -29.8140   20.2680 C   0  0  0  0  0  2  0  0  0  0  0  0
  -24.7030  -31.0770   22.1860 N   0  0  0  0  0  0  0  0  0  0  0  0
  -23.5280  -32.2170   23.7770 O   0  0  0  0  0  0  0  0  0  0  0  0
  -22.7320  -29.5210   22.6080 C   0  0  0  0  0  0  0  0  0  0  0  0
  -21.4040  -29.3530   22.4750 N   0  0  0  0  0  0  0  0  0  0  0  0
  -23.3930  -28.9070   23.4490 O   0  0  0  0  0  0  0  0  0  0  0  0
  -20.9230  -29.9000   21.7730 H   0  0  0  0  0  0  0  0  0  0  0  0
  -18.0180  -28.1470   22.9720 C   0  0  0  0  0  0  0  0  0  0  0  0
  -20.5750  -28.4260   23.2530 C   0  0  0  0  0  3  0  0  0  0  0  0
  -20.6860  -26.9850   22.7030 C   0  0  0  0  0  2  0  0  0  0  0  0
  -19.5930  -26.6420   21.6840 C   0  0  0  0  0  2  0  0  0  0  0  0
  -18.2050  -26.7900   22.3150 C   0  0  0  0  0  2  0  0  0  0  0  0
  -19.1300  -28.9220   23.3980 C   0  0  0  0  0  0  0  0  0  0  0  0
  -18.8990  -30.1890   23.9760 C   0  0  0  0  0  3  0  0  0  0  0  0
  -17.5900  -30.6830   24.1290 C   0  0  0  0  0  3  0  0  0  0  0  0
  -16.4930  -29.9070   23.7160 C   0  0  0  0  0  3  0  0  0  0  0  0
  -16.7070  -28.6410   23.1440 C   0  0  0  0  0  3  0  0  0  0  0  0
  -25.8900  -32.5670   23.8930 C   0  0  0  0  0  3  0  0  0  0  0  0
  -26.3900  -31.8130   25.1880 C   0  0  1  0  0  0  0  0  0  0  0  0
  -25.2840  -31.5940   26.2490 C   0  0  0  0  0  1  0  0  0  0  0  0
  -26.9750  -30.4280   24.8300 C   0  0  0  0  0  1  0  0  0  0  0  0
  -27.5350  -32.6150   25.8500 C   0  0  0  0  0  1  0  0  0  0  0  0
  -25.5720  -33.9690   24.2130 N   0  0  0  0  0  0  0  0  0  0  0  0
  -25.8960  -35.0230   23.4510 C   0  0  0  0  0  0  0  0  0  0  0  0
  -26.5570  -34.9160   22.4160 O   0  0  0  0  0  0  0  0  0  0  0  0
  -24.9820  -34.1250   25.0180 H   0  0  0  0  0  0  0  0  0  0  0  0
  -24.1570  -36.8140   23.1180 C   0  0  0  0  0  1  0  0  0  0  0  0
  -25.4130  -36.4140   23.9090 C   0  0  0  0  0  3  0  0  0  0  0  0
  -27.5570  -37.3150   24.7000 C   0  0  0  0  0  1  0  0  0  0  0  0
  -26.4400  -37.4700   23.7720 N   0  0  0  0  0  0  0  0  0  0  0  0
  -26.0330  -38.3900   23.9170 H   0  0  0  0  0  0  0  0  0  0  0  0
  1  3  1  0
  2  1  2  0
  3  7  1  0
  4  2  1  0
  5  4  2  0
  5  6  1  0
  6 50  1  0
  6  3  2  0
  8  4  1  0
  9  5  1  0
 10 11  2  0
 11  2  1  0
 12 10  1  0
 13 18  1  0
 14 15  1  0
 14 13  1  0
 16 15  1  0
 16 23  1  0
 16 17  1  0
 18 12  1  0
 18 17  1  0
 19 12  2  0
 20 21  2  0
 21 40  1  0
 22 21  1  0
 22 25  1  0
 23 24  1  0
 23 20  1  0
 24 22  2  0
 25 26  1  0
 26 27  2  0
 28 31  1  0
 28 27  1  0
 29 28  2  0
 30 29  1  0
 30 25  2  0
 31 32  1  0
 32 33  1  0
 33 34  2  0
 35 34  1  0
 35 39  1  0
 36 35  2  0
 37 32  2  0
 37 36  1  0
 38 37  1  0
 40 41  1  0
 41 44  1  0
 41 43  1  0
 42 40  2  0
 45 46  1  0
 45 20  1  0
 47 45  1  0
 48 11  1  0
 49 48  1  0
 51 50  1  0
 52 63  2  0
 53 51  1  0
 53 58  1  0
 54 62  1  0
 54 64  1  0
 55 61  1  0
 55 57  1  0
 56 62  1  0
 57 58  2  0
 57 56  1  0
 59 53  2  0
 60 59  1  0
 60 55  2  0
 61 54  1  0
 62 52  1  0
 64 66  2  0
 65 64  1  0
 67 65  1  0
 68 77  2  0
 68 73  1  0
 69 65  1  0
 69 73  1  0
 70 69  1  0
 71 72  1  0
 71 70  1  0
 72 68  1  0
 73 74  2  0
 74 75  1  0
 76 75  2  0
 77 76  1  0
 78 52  1  0
 78 83  1  0
 78 79  1  0
 79 82  1  1
 79 80  1  0
 81 79  1  0
 83 86  1  0
 84 88  1  0
 84 83  1  0
 85 84  2  0
 88 87  1  0
 90 88  1  0
 90 91  1  0
 90 89  1  0
M  ISO  4  10 100  12 100  50 101  51 101
M  END
>  <TORSDO>  (52) 
F 19

>  <SCORE>  (52) 
-15.431

>  <name>  (52) 
51

>  <ligand_id>  (52) 
51

>  <original_smiles>  (52) 
[H]OC(=C([H])C(=O)N1C([H])([H])C([H])([H])C([H])([H])C([H])(n2nc(-c3c([H])c([H])c(Oc4c([H])c([H])c(F)c([H])c4F)c([H])c3[H])c(C(=O)N([H])[H])c2N([H])[H])C1([H])[H])c1c([H])c(C([H])([H])[H])c(C([H])([H])Oc2c([H])c([H])c3c(c2[H])C([H])([H])N(C(=O)C([H])(N([H])C(=O)C([H])(N([H])C([H])([H])[H])C([H])([H])[H])C(C([H])([H])[H])(C([H])([H])[H])C([H])([H])[H])C([H])(C(=O)N([H])C2([H])c4c([H])c([H])c([H])c([H])c4C([H])([H])C([H])([H])C2([H])[H])C3([H])[H])c(C([H])([H])[H])c1C([H])([H])[H]

>  <smiles>  (52) 
[H]OC(=C([H])C(=O)N1C([H])([H])C([H])([H])C([H])([H])C([H])(n2nc(-c3c([H])c([H])c(Oc4c([H])c([H])c(F)c([H])c4F)c([H])c3[H])c(C(=O)N([H])[H])c2N([H])[H])C1([H])[H])c1c([H])c(C([H])([H])[H])c(C([H])([H])Oc2c([H])c([H])c3c(c2[H])C([H])([H])N(C(=O)C([H])(N([H])C(=O)C([H])(N([H])C([H])([H])[H])C([H])([H])[H])C(C([H])([H])[H])(C([H])([H])[H])C([H])([H])[H])C([H])(C(=O)N([H])C2([H])c4c([H])c([H])c([H])c([H])c4C([H])([H])C([H])([H])C2([H])[H])C3([H])[H])c(C([H])([H])[H])c1C([H])([H])[H]

$$$$
52:0:0
     RDKit          3D

 98100  0  0  1  0  0  0  0  0999 V2000
  -24.8020  -25.6740   19.5210 C   0  0  0  0  0  3  0  0  0  0  0  0
  -25.0700  -25.5390   21.0730 C   0  0  0  0  0  2  0  0  0  0  0  0
  -23.8780  -29.0160   20.5080 C   0  0  0  0  0  3  0  0  0  0  0  0
  -24.1180  -26.8410   18.5590 C   0  0  0  0  0  0  0  0  0  0  0  0
  -24.5420  -27.1220   21.9420 C   0  0  0  0  0  2  0  0  0  0  0  0
  -23.7520  -28.4380   18.9110 C   0  0  0  0  0  0  0  0  0  0  0  0
  -24.6740  -27.0990   23.2910 F   0  0  0  0  0  0  0  0  0  0  0  0
  -23.3650  -29.2580   17.9040 F   0  0  0  0  0  0  0  0  0  0  0  0
  -24.0110  -26.5220   17.2340 O   0  0  0  0  0  0  0  0  0  0  0  0
  -23.6850  -27.2670   16.7380 H   0  0  0  0  0  0  0  0  0  0  0  0
  -22.2010  -31.1040   20.2500 C   0  0  0  0  0  1  0  0  0  0  0  0
  -23.6400  -30.5870   20.5000 C   0  0  0  0  0  2  0  0  0  0  0  0
  -26.1040  -24.9890   18.9450 C   0  0  0  0  0  3  0  0  0  0  0  0
  -27.5990  -25.1890   19.6590 C   0  0  0  0  0  3  0  0  0  0  0  0
  -27.9660  -25.9290   20.9520 O   0  0  0  0  0  0  0  0  0  0  0  0
  -25.9480  -31.5000   25.0910 C   0  0  0  0  0  0  0  0  0  0  0  0
  -28.3760  -27.2250   20.8330 C   0  0  0  0  0  3  0  0  0  0  0  0
  -24.2160  -30.2150   23.4940 C   0  0  0  0  0  2  0  0  0  0  0  0
  -26.4320  -28.6040   20.7840 C   0  0  0  0  0  2  0  0  0  0  0  0
  -27.2740  -30.2330   23.2000 C   0  0  0  0  0  2  0  0  0  0  0  0
  -27.5530  -29.2440   21.7560 C   0  0  0  0  0  3  0  0  0  0  0  0
  -28.4150  -28.1560   21.9110 C   0  0  0  0  0  2  0  0  0  0  0  0
  -27.9560  -27.7210   19.5970 C   0  0  0  0  0  2  0  0  0  0  0  0
  -26.8470  -28.4750   19.5200 C   0  0  0  0  0  2  0  0  0  0  0  0
  -23.7680  -28.9380   21.9800 C   0  0  0  0  0  1  0  0  0  0  0  0
  -25.8240  -30.6460   23.9850 N   0  0  0  0  0  0  0  0  0  0  0  0
  -24.9690  -32.0920   25.5700 O   0  0  0  0  0  0  0  0  0  0  0  0
  -23.3180  -29.8470   24.4520 C   0  0  0  0  0  0  0  0  0  0  0  0
  -22.1400  -29.6710   23.8950 N   0  0  0  0  0  0  0  0  0  0  0  0
  -23.7580  -29.4400   25.5030 O   0  0  0  0  0  0  0  0  0  0  0  0
  -21.9570  -30.0500   22.9780 H   0  0  0  0  0  0  0  0  0  0  0  0
  -19.0450  -28.2000   23.2110 C   0  0  0  0  0  0  0  0  0  0  0  0
  -21.2140  -28.7320   24.3960 C   0  0  0  0  0  3  0  0  0  0  0  0
  -21.6370  -27.2840   24.0670 C   0  0  0  0  0  2  0  0  0  0  0  0
  -21.0990  -26.7940   22.7260 C   0  0  0  0  0  2  0  0  0  0  0  0
  -19.5700  -26.8290   22.8030 C   0  0  0  0  0  2  0  0  0  0  0  0
  -19.8590  -29.1270   23.8970 C   0  0  0  0  0  0  0  0  0  0  0  0
  -19.3940  -30.4340   24.1600 C   0  0  0  0  0  3  0  0  0  0  0  0
  -18.0900  -30.8000   23.7990 C   0  0  0  0  0  3  0  0  0  0  0  0
  -17.2500  -29.8530   23.1890 C   0  0  0  0  0  3  0  0  0  0  0  0
  -17.7250  -28.5630   22.8920 C   0  0  0  0  0  3  0  0  0  0  0  0
  -27.3060  -31.7540   25.8740 C   0  0  0  0  0  3  0  0  0  0  0  0
  -27.4140  -33.1760   26.3110 N   0  0  0  0  0  0  0  0  0  0  0  0
  -28.2130  -34.1280   25.7940 C   0  0  0  0  0  0  0  0  0  0  0  0
  -28.9670  -33.9090   24.8440 O   0  0  0  0  0  0  0  0  0  0  0  0
  -26.7710  -33.4550   27.0390 H   0  0  0  0  0  0  0  0  0  0  0  0
  -27.2410  -36.4530   25.5830 C   0  0  0  0  0  1  0  0  0  0  0  0
  -28.1660  -35.5500   26.4140 C   0  0  0  0  0  3  0  0  0  0  0  0
  -30.3520  -35.6020   27.5500 C   0  0  0  0  0  1  0  0  0  0  0  0
  -29.4920  -36.2040   26.5360 N   0  0  0  0  0  0  0  0  0  0  0  0
  -29.3880  -37.1900   26.7560 H   0  0  0  0  0  0  0  0  0  0  0  0
  -27.4440  -30.8360   27.1640 C   0  0  1  0  0  0  0  0  0  0  0  0
  -26.1910  -30.8730   28.0720 C   0  0  0  0  0  1  0  0  0  0  0  0
  -27.6880  -29.3630   26.7960 C   0  0  0  0  0  1  0  0  0  0  0  0
  -28.6690  -31.2430   28.0200 C   0  0  0  0  0  1  0  0  0  0  0  0
  -25.9680  -23.6180   21.3390 C   0  0  0  0  0 15  0  0  0  0  0  0
  -27.2320  -21.8390   20.7010 C   0  0  0  0  0 15  0  0  0  0  0  0
  -27.7940  -19.7160   20.1460 C   0  0  0  0  0 15  0  0  0  0  0  0
  -30.9140  -19.4190   19.9610 C   0  0  0  0  0  2  0  0  0  0  0  0
  -30.3820  -18.3380   20.9030 C   0  0  0  0  0  2  0  0  0  0  0  0
  -30.2070  -18.6690   18.8390 C   0  0  0  0  0  2  0  0  0  0  0  0
  -29.2580  -17.9920   19.8850 C   0  0  0  0  0  2  0  0  0  0  0  0
  -29.9250  -15.9580   19.5190 C   0  0  0  0  0  2  0  0  0  0  0  0
  -30.4350  -13.2400   18.7870 C   0  0  0  0  0  2  0  0  0  0  0  0
  -29.5950  -12.4330   17.7220 C   0  0  0  0  0  2  0  0  0  0  0  0
  -28.3050  -11.8920   18.3390 C   0  0  0  0  0  2  0  0  0  0  0  0
  -27.7440  -12.9520   19.3000 C   0  0  0  0  0  3  0  0  0  0  0  0
  -28.7490  -13.5660   20.3040 C   0  0  0  0  0  2  0  0  0  0  0  0
  -29.6690  -14.4360   19.5290 N   0  0  0  0  0  0  0  0  0  0  0  0
  -31.1280  -15.8020   19.1280 O   0  0  0  0  0  1  0  0  0  0  0  0
  -25.5520  -13.4440   20.3950 C   0  0  0  0  0  0  0  0  0  0  0  0
  -24.5500  -12.6610   20.8780 C   0  0  0  0  0  0  0  0  0  0  0  0
  -24.9900  -11.3090   20.7220 C   0  0  0  0  0  0  0  0  0  0  0  0
  -26.5230  -12.5720   19.9610 N   0  0  0  0  0  0  0  0  0  0  0  0
  -26.2200  -11.2740   20.2180 N   0  0  0  0  0  0  0  0  0  0  0  0
  -24.2770  -10.0520   20.9640 C   0  0  0  0  0  0  0  0  0  0  0  0
  -24.6930   -9.1420   21.9610 C   0  0  0  0  0  3  0  0  0  0  0  0
  -23.9720   -7.9490   22.1860 C   0  0  0  0  0  3  0  0  0  0  0  0
  -22.8200   -7.6620   21.4150 C   0  0  0  0  0  0  0  0  0  0  0  0
  -22.4220   -8.5610   20.4090 C   0  0  0  0  0  3  0  0  0  0  0  0
  -23.1450   -9.7440   20.1830 C   0  0  0  0  0  3  0  0  0  0  0  0
  -22.0710   -6.5170   21.5450 O   0  0  0  0  0  0  0  0  0  0  0  0
  -21.8240   -5.9570   22.7720 C   0  0  0  0  0  0  0  0  0  0  0  0
  -21.1350   -6.6570   23.7860 C   0  0  0  0  0  3  0  0  0  0  0  0
  -20.8390   -6.0170   25.0070 C   0  0  0  0  0  3  0  0  0  0  0  0
  -21.2230   -4.6800   25.2130 C   0  0  0  0  0  0  0  0  0  0  0  0
  -21.9050   -3.9790   24.2020 C   0  0  0  0  0  3  0  0  0  0  0  0
  -22.2020   -4.6160   22.9840 C   0  0  0  0  0  0  0  0  0  0  0  0
  -22.8390   -3.9290   22.0060 F   0  0  0  0  0  0  0  0  0  0  0  0
  -20.9330   -4.0630   26.3820 F   0  0  0  0  0  0  0  0  0  0  0  0
  -23.2180  -13.1480   21.3590 C   0  0  0  0  0  0  0  0  0  0  0  0
  -22.6170  -12.4440   22.3070 N   0  0  0  0  0  0  0  0  0  0  0  0
  -22.7330  -14.1940   20.9320 O   0  0  0  0  0  0  0  0  0  0  0  0
  -23.0290  -11.5990   22.6740 H   0  0  0  0  0  0  0  0  0  0  0  0
  -21.7270  -12.7540   22.6730 H   0  0  0  0  0  0  0  0  0  0  0  0
  -25.7140  -14.8210   20.2570 N   0  0  0  0  0  0  0  0  0  0  0  0
  -24.9870  -15.4780   20.5180 H   0  0  0  0  0  0  0  0  0  0  0  0
  -26.5140  -15.2670   19.8220 H   0  0  0  0  0  0  0  0  0  0  0  0
  1 13  1  0
  1  2  1  0
  2  5  1  0
  3 25  1  0
  4  6  2  0
  4  1  1  0
  5  7  1  0
  6  3  1  0
  8  6  1  0
  9  4  1  0
 10  9  1  0
 11 12  1  0
 12  3  1  0
 13 14  2  0
 14 15  1  0
 16 27  2  0
 17 15  1  0
 17 22  1  0
 18 26  1  0
 18 28  1  0
 19 21  1  0
 20 26  1  0
 21 22  1  0
 21 20  1  0
 23 17  1  0
 24 23  1  0
 24 19  1  0
 26 16  1  0
 28 30  2  0
 29 28  1  0
 31 29  1  0
 32 37  1  0
 33 29  1  0
 34 33  1  0
 35 36  1  0
 35 34  1  0
 36 32  1  0
 37 38  2  0
 37 33  1  0
 39 38  1  0
 40 39  2  0
 41 40  1  0
 41 32  2  0
 42 16  1  0
 42 43  1  0
 42 52  1  0
 43 46  1  0
 44 43  1  0
 44 48  1  0
 45 44  2  0
 48 47  1  0
 48 50  1  0
 50 51  1  0
 50 49  1  0
 52 55  1  1
 52 53  1  0
 54 52  1  0
 59 60  1  0
 61 62  1  0
 61 59  1  0
 62 60  1  0
 63 69  1  0
 64 69  1  0
 65 66  1  0
 65 64  1  0
 67 66  1  0
 67 74  1  0
 67 68  1  0
 69 68  1  0
 70 63  1  0
 71 72  2  0
 72 91  1  0
 73 72  1  0
 73 76  1  0
 74 75  1  0
 74 71  1  0
 75 73  2  0
 76 77  1  0
 77 78  2  0
 79 82  1  0
 79 78  1  0
 80 79  2  0
 81 80  1  0
 81 76  2  0
 82 83  1  0
 83 88  2  0
 83 84  1  0
 84 85  2  0
 85 86  1  0
 86 90  1  0
 87 86  2  0
 88 87  1  0
 89 88  1  0
 91 92  1  0
 92 95  1  0
 92 94  1  0
 93 91  2  0
 96 71  1  0
 96 97  1  0
 98 96  1  0
M  ISO  4  14 101  15 101  62 100  63 100
M  END
>  <TORSDO>  (53) 
F 24

>  <SCORE>  (53) 
-6.887

>  <name>  (53) 
52

>  <ligand_id>  (53) 
52

>  <original_smiles>  (53) 
[H]Oc1c(F)c(C([H])([H])C([H])([H])[H])c(F)c(C([H])([H])C([H])([H])C([H])([H])C2(C(=O)N3C([H])([H])C([H])([H])C([H])([H])C([H])(n4nc(-c5c([H])c([H])c(Oc6c([H])c([H])c(F)c([H])c6F)c([H])c5[H])c(C(=O)N([H])[H])c4N([H])[H])C3([H])[H])C([H])([H])C([H])([H])C2([H])[H])c1C([H])([H])C([H])([H])Oc1c([H])c([H])c2c(c1[H])C([H])([H])N(C(=O)C([H])(N([H])C(=O)C([H])(N([H])C([H])([H])[H])C([H])([H])[H])C(C([H])([H])[H])(C([H])([H])[H])C([H])([H])[H])C([H])(C(=O)N([H])C1([H])c3c([H])c([H])c([H])c([H])c3C([H])([H])C([H])([H])C1([H])[H])C2([H])[H]

>  <smiles>  (53) 
[H]Oc1c(F)c(C([H])([H])C([H])([H])[H])c(F)c(C([H])([H])C([H])([H])C([H])([H])C2(C(=O)N3C([H])([H])C([H])([H])C([H])([H])C([H])(n4nc(-c5c([H])c([H])c(Oc6c([H])c([H])c(F)c([H])c6F)c([H])c5[H])c(C(=O)N([H])[H])c4N([H])[H])C3([H])[H])C([H])([H])C([H])([H])C2([H])[H])c1C([H])([H])C([H])([H])Oc1c([H])c([H])c2c(c1[H])C([H])([H])N(C(=O)C([H])(N([H])C(=O)C([H])(N([H])C([H])([H])[H])C([H])([H])[H])C(C([H])([H])[H])(C([H])([H])[H])C([H])([H])[H])C([H])(C(=O)N([H])C1([H])c3c([H])c([H])c([H])c([H])c3C([H])([H])C([H])([H])C1([H])[H])C2([H])[H]

$$$$
54:0:0
     RDKit          3D

 92101  0  0  1  0  0  0  0  0999 V2000
  -28.3430  -25.1310   21.8240 C   0  0  0  0  0  3  0  0  0  0  0  0
  -28.5650  -23.9950   22.6210 C   0  0  0  0  0  3  0  0  0  0  0  0
  -28.7160  -23.7230   19.8670 C   0  0  0  0  0  3  0  0  0  0  0  0
  -28.9010  -22.4840   20.6750 C   0  0  0  0  0  0  0  0  0  0  0  0
  -28.4310  -25.0790   20.4220 C   0  0  0  0  0  0  0  0  0  0  0  0
  -28.8600  -22.7300   22.0770 C   0  0  0  0  0  0  0  0  0  0  0  0
  -29.1430  -21.7420   22.9590 F   0  0  0  0  0  0  0  0  0  0  0  0
  -29.9430  -20.3750   19.3310 C   0  0  0  0  0  3  0  0  0  0  0  0
  -29.1630  -20.9350   20.3090 C   0  0  0  0  0  0  0  0  0  0  0  0
  -30.0910  -18.8070   19.0250 C   0  0  0  0  0  2  0  0  0  0  0  0
  -28.4320  -19.7630   21.0340 C   0  0  0  0  0  2  0  0  0  0  0  0
  -29.2900  -18.4540   21.3730 C   0  0  0  0  0  2  0  0  0  0  0  0
  -30.1870  -17.7830   20.2560 C   0  0  0  0  0  3  0  0  0  0  0  0
  -30.8020  -15.0940   19.8790 C   0  0  0  0  0  0  0  0  0  0  0  0
  -30.6560  -12.7430   18.9540 C   0  0  0  0  0  2  0  0  0  0  0  0
  -29.6270  -12.6850   17.8000 C   0  0  0  0  0  2  0  0  0  0  0  0
  -28.2030  -12.4650   18.3470 C   0  0  0  0  0  2  0  0  0  0  0  0
  -27.8770  -13.3890   19.5490 C   0  0  0  0  0  3  0  0  0  0  0  0
  -29.0190  -13.4070   20.5880 C   0  0  0  0  0  2  0  0  0  0  0  0
  -30.2340  -13.8270   19.8780 N   0  0  0  0  0  0  0  0  0  0  0  0
  -31.9800  -15.2030   19.5270 O   0  0  0  0  0  0  0  0  0  0  0  0
  -29.9810  -16.2300   20.0870 N   0  0  0  0  0  0  0  0  0  0  0  0
  -29.0270  -15.9510   20.2620 H   0  0  0  0  0  0  0  0  0  0  0  0
  -25.5920  -13.9510   20.5570 C   0  0  0  0  0  0  0  0  0  0  0  0
  -24.5510  -13.1660   20.9730 C   0  0  0  0  0  0  0  0  0  0  0  0
  -24.9820  -11.8140   20.7990 C   0  0  0  0  0  0  0  0  0  0  0  0
  -26.5870  -13.0770   20.1530 N   0  0  0  0  0  0  0  0  0  0  0  0
  -26.2350  -11.7820   20.3630 N   0  0  0  0  0  0  0  0  0  0  0  0
  -24.2480  -10.5530   20.9670 C   0  0  0  0  0  0  0  0  0  0  0  0
  -24.6810   -9.5630   21.8760 C   0  0  0  0  0  3  0  0  0  0  0  0
  -23.9490   -8.3660   22.0330 C   0  0  0  0  0  3  0  0  0  0  0  0
  -22.7690   -8.1520   21.2810 C   0  0  0  0  0  0  0  0  0  0  0  0
  -22.3560   -9.1320   20.3600 C   0  0  0  0  0  3  0  0  0  0  0  0
  -23.0890  -10.3200   20.2010 C   0  0  0  0  0  3  0  0  0  0  0  0
  -22.0060   -7.0120   21.3510 O   0  0  0  0  0  0  0  0  0  0  0  0
  -21.8730   -6.3030   22.5180 C   0  0  0  0  0  0  0  0  0  0  0  0
  -21.3470   -6.8910   23.6900 C   0  0  0  0  0  3  0  0  0  0  0  0
  -21.1640   -6.1080   24.8470 C   0  0  0  0  0  3  0  0  0  0  0  0
  -21.4960   -4.7400   24.8340 C   0  0  0  0  0  0  0  0  0  0  0  0
  -22.0140   -4.1520   23.6660 C   0  0  0  0  0  3  0  0  0  0  0  0
  -22.1990   -4.9320   22.5110 C   0  0  0  0  0  0  0  0  0  0  0  0
  -22.6800   -4.3570   21.3820 F   0  0  0  0  0  0  0  0  0  0  0  0
  -21.3120   -3.9860   25.9430 F   0  0  0  0  0  0  0  0  0  0  0  0
  -23.1960  -13.6430   21.4080 C   0  0  0  0  0  0  0  0  0  0  0  0
  -22.5480  -12.9080   22.3030 N   0  0  0  0  0  0  0  0  0  0  0  0
  -22.7260  -14.7010   20.9910 O   0  0  0  0  0  0  0  0  0  0  0  0
  -22.9430  -12.0510   22.6610 H   0  0  0  0  0  0  0  0  0  0  0  0
  -21.6410  -13.2040   22.6360 H   0  0  0  0  0  0  0  0  0  0  0  0
  -25.7650  -15.3290   20.4610 N   0  0  0  0  0  0  0  0  0  0  0  0
  -25.0200  -15.9770   20.6890 H   0  0  0  0  0  0  0  0  0  0  0  0
  -26.5650  -15.7810   20.0400 H   0  0  0  0  0  0  0  0  0  0  0  0
  -28.3500  -26.3770   19.7670 O   0  0  0  0  0  0  0  0  0  0  0  0
  -24.5040  -31.7620   23.0420 C   0  0  0  0  0  0  0  0  0  0  0  0
  -27.2370  -27.2730   19.8600 C   0  0  0  0  0  0  0  0  0  0  0  0
  -23.3370  -30.3560   21.3860 C   0  0  0  0  0  3  0  0  0  0  0  0
  -24.8280  -28.8790   19.9090 C   0  0  0  0  0  0  0  0  0  0  0  0
  -25.8700  -30.7470   21.1860 C   0  0  0  0  0  2  0  0  0  0  0  0
  -25.9940  -29.3750   20.5090 C   0  0  0  0  0  0  0  0  0  0  0  0
  -27.2020  -28.5870   20.4690 C   0  0  0  0  0  3  0  0  0  0  0  0
  -26.0430  -26.8620   19.2360 C   0  0  0  0  0  3  0  0  0  0  0  0
  -24.8610  -27.6330   19.2620 C   0  0  0  0  0  3  0  0  0  0  0  0
  -23.5640  -29.7190   19.9900 C   0  0  0  0  0  2  0  0  0  0  0  0
  -24.5900  -30.9770   21.9260 N   0  0  0  0  0  0  0  0  0  0  0  0
  -23.4170  -31.9840   23.5960 O   0  0  0  0  0  0  0  0  0  0  0  0
  -22.7220  -29.2970   22.3350 C   0  0  0  0  0  0  0  0  0  0  0  0
  -21.4000  -29.0710   22.2270 N   0  0  0  0  0  0  0  0  0  0  0  0
  -23.4350  -28.6800   23.1310 O   0  0  0  0  0  0  0  0  0  0  0  0
  -20.8770  -29.6260   21.5640 H   0  0  0  0  0  0  0  0  0  0  0  0
  -18.0880  -27.6980   22.7360 C   0  0  0  0  0  0  0  0  0  0  0  0
  -20.6330  -28.0820   22.9880 C   0  0  0  0  0  3  0  0  0  0  0  0
  -20.8000  -26.6660   22.3890 C   0  0  0  0  0  2  0  0  0  0  0  0
  -19.7080  -26.3050   21.3780 C   0  0  0  0  0  2  0  0  0  0  0  0
  -18.3250  -26.3710   22.0340 C   0  0  0  0  0  2  0  0  0  0  0  0
  -19.1710  -28.5080   23.1690 C   0  0  0  0  0  0  0  0  0  0  0  0
  -18.8950  -29.7470   23.7870 C   0  0  0  0  0  3  0  0  0  0  0  0
  -17.5680  -30.1790   23.9740 C   0  0  0  0  0  3  0  0  0  0  0  0
  -16.5000  -29.3670   23.5540 C   0  0  0  0  0  3  0  0  0  0  0  0
  -16.7600  -28.1280   22.9420 C   0  0  0  0  0  3  0  0  0  0  0  0
  -25.7670  -32.4370   23.6630 C   0  0  0  0  0  3  0  0  0  0  0  0
  -25.3970  -33.8070   24.0510 N   0  0  0  0  0  0  0  0  0  0  0  0
  -25.6680  -34.9040   23.3320 C   0  0  0  0  0  0  0  0  0  0  0  0
  -26.3210  -34.8730   22.2860 O   0  0  0  0  0  0  0  0  0  0  0  0
  -24.8110  -33.9020   24.8670 H   0  0  0  0  0  0  0  0  0  0  0  0
  -23.8580  -36.6350   23.0810 C   0  0  0  0  0  1  0  0  0  0  0  0
  -25.1290  -36.2510   23.8550 C   0  0  0  0  0  3  0  0  0  0  0  0
  -27.2330  -37.1990   24.6940 C   0  0  0  0  0  1  0  0  0  0  0  0
  -26.1130  -37.3520   23.7700 N   0  0  0  0  0  0  0  0  0  0  0  0
  -25.6680  -38.2470   23.9570 H   0  0  0  0  0  0  0  0  0  0  0  0
  -26.3420  -31.6500   24.9050 C   0  0  1  0  0  0  0  0  0  0  0  0
  -25.2810  -31.3240   25.9820 C   0  0  0  0  0  1  0  0  0  0  0  0
  -26.9840  -30.3160   24.4590 C   0  0  0  0  0  1  0  0  0  0  0  0
  -27.4640  -32.4760   25.5750 C   0  0  0  0  0  1  0  0  0  0  0  0
  1  2  1  0
  3  5  1  0
  3  4  2  0
  4  6  1  0
  5  1  2  0
  6  2  2  0
  6  7  1  0
  8  9  2  0
  9  4  1  0
  9 11  1  0
 10  8  1  0
 10 13  1  0
 11 12  1  0
 13 22  1  0
 13 12  1  0
 14 22  1  0
 15 20  1  0
 16 17  1  0
 16 15  1  0
 18 17  1  0
 18 27  1  0
 18 19  1  0
 20 14  1  0
 20 19  1  0
 21 14  2  0
 22 23  1  0
 24 25  2  0
 25 44  1  0
 26 29  1  0
 26 25  1  0
 27 28  1  0
 27 24  1  0
 28 26  2  0
 29 30  1  0
 30 31  2  0
 32 35  1  0
 32 31  1  0
 33 32  2  0
 34 33  1  0
 34 29  2  0
 35 36  1  0
 36 37  1  0
 37 38  2  0
 39 38  1  0
 39 43  1  0
 40 39  2  0
 41 36  2  0
 41 40  1  0
 42 41  1  0
 44 45  1  0
 45 48  1  0
 45 47  1  0
 46 44  2  0
 49 24  1  0
 49 50  1  0
 51 49  1  0
 52 54  1  0
 52  5  1  0
 53 64  2  0
 54 59  1  0
 55 63  1  0
 55 65  1  0
 56 62  1  0
 56 58  1  0
 57 63  1  0
 58 57  1  0
 59 58  2  0
 60 61  1  0
 60 54  2  0
 61 56  2  0
 62 55  1  0
 63 53  1  0
 65 67  2  0
 66 65  1  0
 68 66  1  0
 69 78  2  0
 69 74  1  0
 70 66  1  0
 70 74  1  0
 71 70  1  0
 72 73  1  0
 72 71  1  0
 73 69  1  0
 74 75  2  0
 75 76  1  0
 77 76  2  0
 78 77  1  0
 79 53  1  0
 79 80  1  0
 79 89  1  0
 80 83  1  0
 81 85  1  0
 81 80  1  0
 82 81  2  0
 85 84  1  0
 87 85  1  0
 87 88  1  0
 87 86  1  0
 89 92  1  1
 89 90  1  0
 91 89  1  0
M  ISO  4   5 101  14 100  22 100  52 101
M  END
>  <TORSDO>  (54) 
F 17

>  <SCORE>  (54) 
-13.494

>  <name>  (54) 
54

>  <ligand_id>  (54) 
54

>  <original_smiles>  (54) 
[H]C1=C(c2c([H])c(Oc3c([H])c([H])c4c(c3[H])C([H])([H])N(C(=O)C([H])(N([H])C(=O)C([H])(N([H])C([H])([H])[H])C([H])([H])[H])C(C([H])([H])[H])(C([H])([H])[H])C([H])([H])[H])C([H])(C(=O)N([H])C3([H])c5c([H])c([H])c([H])c([H])c5C([H])([H])C([H])([H])C3([H])[H])C4([H])[H])c([H])c([H])c2F)C([H])([H])C([H])([H])C([H])(N([H])C(=O)N2C([H])([H])C([H])([H])C([H])([H])C([H])(n3nc(-c4c([H])c([H])c(Oc5c([H])c([H])c(F)c([H])c5F)c([H])c4[H])c(C(=O)N([H])[H])c3N([H])[H])C2([H])[H])C1([H])[H]

>  <smiles>  (54) 
[H]C1=C(c2c([H])c(Oc3c([H])c([H])c4c(c3[H])C([H])([H])N(C(=O)C([H])(N([H])C(=O)C([H])(N([H])C([H])([H])[H])C([H])([H])[H])C(C([H])([H])[H])(C([H])([H])[H])C([H])([H])[H])C([H])(C(=O)N([H])C3([H])c5c([H])c([H])c([H])c([H])c5C([H])([H])C([H])([H])C3([H])[H])C4([H])[H])c([H])c([H])c2F)C([H])([H])C([H])([H])C([H])(N([H])C(=O)N2C([H])([H])C([H])([H])C([H])([H])C([H])(n3nc(-c4c([H])c([H])c(Oc5c([H])c([H])c(F)c([H])c5F)c([H])c4[H])c(C(=O)N([H])[H])c3N([H])[H])C2([H])[H])C1([H])[H]

$$$$
55:0:0
     RDKit          3D

 93102  0  0  1  0  0  0  0  0999 V2000
  -30.5260  -23.0150   20.2920 C   0  0  0  0  0  0  0  0  0  0  0  0
  -29.9840  -24.2920   20.0740 C   0  0  0  0  0  3  0  0  0  0  0  0
  -32.0050  -22.9790   20.7180 C   0  0  0  0  0  2  0  0  0  0  0  0
  -29.8920  -21.5600   20.3410 C   0  0  0  0  0  2  0  0  0  0  0  0
  -32.8400  -21.7710   20.2410 C   0  0  0  0  0  2  0  0  0  0  0  0
  -32.2270  -20.4070   20.6200 C   0  0  0  0  0  2  0  0  0  0  0  0
  -30.8240  -20.2630   19.9940 C   0  0  0  0  0  3  0  0  0  0  0  0
  -30.7170  -17.5630   20.7010 C   0  0  0  0  0  3  0  0  0  0  0  0
  -28.9850  -18.6440   19.3800 C   0  0  0  0  0  3  0  0  0  0  0  0
  -30.1200  -16.2270   20.5230 C   0  0  0  0  0  0  0  0  0  0  0  0
  -30.1950  -18.7890   20.0810 C   0  0  0  0  0  0  0  0  0  0  0  0
  -28.4220  -17.3800   19.1500 C   0  0  0  0  0  0  0  0  0  0  0  0
  -29.1170  -16.2090   19.5030 C   0  0  0  0  0  0  0  0  0  0  0  0
  -27.0650  -17.2900   18.4860 C   0  0  0  0  0  1  0  0  0  0  0  0
  -28.9900  -15.0700   18.4990 C   0  0  0  0  0  1  0  0  0  0  0  0
  -30.7010  -14.8840   21.1390 C   0  0  0  0  0  0  0  0  0  0  0  0
  -30.6070  -12.4430   20.5970 C   0  0  0  0  0  2  0  0  0  0  0  0
  -29.8470  -12.1070   19.2930 C   0  0  0  0  0  2  0  0  0  0  0  0
  -28.3090  -12.1170   19.4680 C   0  0  0  0  0  2  0  0  0  0  0  0
  -27.7380  -13.1420   20.5060 C   0  0  0  0  0  3  0  0  0  0  0  0
  -28.6800  -13.3510   21.7070 C   0  0  0  0  0  2  0  0  0  0  0  0
  -30.0260  -13.6660   21.1930 N   0  0  0  0  0  0  0  0  0  0  0  0
  -31.9130  -14.8900   21.3390 O   0  0  0  0  0  0  0  0  0  0  0  0
  -25.2620  -13.6880   20.9190 C   0  0  0  0  0  0  0  0  0  0  0  0
  -24.1810  -12.8890   21.1440 C   0  0  0  0  0  0  0  0  0  0  0  0
  -24.6860  -11.5510   21.2250 C   0  0  0  0  0  0  0  0  0  0  0  0
  -26.3590  -12.8360   20.8650 N   0  0  0  0  0  0  0  0  0  0  0  0
  -26.0060  -11.5520   21.1180 N   0  0  0  0  0  0  0  0  0  0  0  0
  -23.9860  -10.2670   21.3360 C   0  0  0  0  0  0  0  0  0  0  0  0
  -24.3460   -9.3070   22.3080 C   0  0  0  0  0  3  0  0  0  0  0  0
  -23.6390   -8.0900   22.4110 C   0  0  0  0  0  3  0  0  0  0  0  0
  -22.5540   -7.8260   21.5400 C   0  0  0  0  0  0  0  0  0  0  0  0
  -22.2100   -8.7750   20.5600 C   0  0  0  0  0  3  0  0  0  0  0  0
  -22.9300   -9.9800   20.4490 C   0  0  0  0  0  3  0  0  0  0  0  0
  -21.8240   -6.6610   21.5510 O   0  0  0  0  0  0  0  0  0  0  0  0
  -21.7100   -5.8930   22.6820 C   0  0  0  0  0  0  0  0  0  0  0  0
  -21.1880   -6.4200   23.8820 C   0  0  0  0  0  3  0  0  0  0  0  0
  -21.0170   -5.5840   25.0030 C   0  0  0  0  0  3  0  0  0  0  0  0
  -21.3520   -4.2180   24.9240 C   0  0  0  0  0  0  0  0  0  0  0  0
  -21.8640   -3.6920   23.7270 C   0  0  0  0  0  3  0  0  0  0  0  0
  -22.0380   -4.5260   22.6100 C   0  0  0  0  0  0  0  0  0  0  0  0
  -22.5190   -4.0070   21.4520 F   0  0  0  0  0  0  0  0  0  0  0  0
  -21.1900   -3.4110   25.9990 F   0  0  0  0  0  0  0  0  0  0  0  0
  -22.7430  -13.3250   21.1950 C   0  0  0  0  0  0  0  0  0  0  0  0
  -21.9170  -12.6200   21.9490 N   0  0  0  0  0  0  0  0  0  0  0  0
  -22.3620  -14.3260   20.5880 O   0  0  0  0  0  0  0  0  0  0  0  0
  -22.2330  -11.7940   22.4350 H   0  0  0  0  0  0  0  0  0  0  0  0
  -20.9490  -12.8970   22.0270 H   0  0  0  0  0  0  0  0  0  0  0  0
  -25.4000  -15.0650   20.7240 N   0  0  0  0  0  0  0  0  0  0  0  0
  -24.6040  -15.6910   20.7260 H   0  0  0  0  0  0  0  0  0  0  0  0
  -26.2630  -15.5410   20.4920 H   0  0  0  0  0  0  0  0  0  0  0  0
  -28.5700  -24.9810   19.7940 C   0  0  0  0  0  2  0  0  0  0  0  0
  -28.5090  -26.4760   20.0220 O   0  0  0  0  0  0  0  0  0  0  0  0
  -24.6200  -31.8350   23.0790 C   0  0  0  0  0  0  0  0  0  0  0  0
  -27.3210  -27.2620   20.0100 C   0  0  0  0  0  0  0  0  0  0  0  0
  -23.4280  -30.4130   21.4420 C   0  0  0  0  0  3  0  0  0  0  0  0
  -24.9010  -28.8450   20.0380 C   0  0  0  0  0  0  0  0  0  0  0  0
  -25.9680  -30.7440   21.2570 C   0  0  0  0  0  2  0  0  0  0  0  0
  -26.0670  -29.3570   20.6160 C   0  0  0  0  0  0  0  0  0  0  0  0
  -27.2660  -28.5750   20.5950 C   0  0  0  0  0  3  0  0  0  0  0  0
  -26.1190  -26.7980   19.4290 C   0  0  0  0  0  3  0  0  0  0  0  0
  -24.9300  -27.5670   19.4420 C   0  0  0  0  0  3  0  0  0  0  0  0
  -23.6530  -29.7090   20.0770 C   0  0  0  0  0  2  0  0  0  0  0  0
  -24.6920  -31.0150   21.9840 N   0  0  0  0  0  0  0  0  0  0  0  0
  -23.5340  -32.1120   23.6120 O   0  0  0  0  0  0  0  0  0  0  0  0
  -22.7630  -29.4140   22.4200 C   0  0  0  0  0  0  0  0  0  0  0  0
  -21.4330  -29.2480   22.3140 N   0  0  0  0  0  0  0  0  0  0  0  0
  -23.4490  -28.7830   23.2260 O   0  0  0  0  0  0  0  0  0  0  0  0
  -20.9360  -29.8100   21.6380 H   0  0  0  0  0  0  0  0  0  0  0  0
  -18.0560  -28.0670   22.8760 C   0  0  0  0  0  0  0  0  0  0  0  0
  -20.6220  -28.3110   23.0960 C   0  0  0  0  0  3  0  0  0  0  0  0
  -20.7010  -26.8820   22.5090 C   0  0  0  0  0  2  0  0  0  0  0  0
  -19.5770  -26.5730   21.5140 C   0  0  0  0  0  2  0  0  0  0  0  0
  -18.2110  -26.7230   22.1850 C   0  0  0  0  0  2  0  0  0  0  0  0
  -19.1890  -28.8180   23.2900 C   0  0  0  0  0  0  0  0  0  0  0  0
  -18.9870  -30.0780   23.8980 C   0  0  0  0  0  3  0  0  0  0  0  0
  -17.6890  -30.5840   24.0920 C   0  0  0  0  0  3  0  0  0  0  0  0
  -16.5730  -29.8290   23.6940 C   0  0  0  0  0  3  0  0  0  0  0  0
  -16.7580  -28.5710   23.0940 C   0  0  0  0  0  3  0  0  0  0  0  0
  -25.9010  -32.4810   23.6990 C   0  0  0  0  0  3  0  0  0  0  0  0
  -25.5670  -33.8640   24.0700 N   0  0  0  0  0  0  0  0  0  0  0  0
  -25.8790  -34.9480   23.3440 C   0  0  0  0  0  0  0  0  0  0  0  0
  -26.5410  -34.8860   22.3040 O   0  0  0  0  0  0  0  0  0  0  0  0
  -24.9720  -33.9860   24.8760 H   0  0  0  0  0  0  0  0  0  0  0  0
  -24.1190  -36.7250   23.0620 C   0  0  0  0  0  1  0  0  0  0  0  0
  -25.3760  -36.3140   23.8470 C   0  0  0  0  0  3  0  0  0  0  0  0
  -27.5110  -37.2050   24.6780 C   0  0  0  0  0  1  0  0  0  0  0  0
  -26.3920  -37.3860   23.7560 N   0  0  0  0  0  0  0  0  0  0  0  0
  -25.9740  -38.2950   23.9370 H   0  0  0  0  0  0  0  0  0  0  0  0
  -26.4540  -31.6940   24.9490 C   0  0  1  0  0  0  0  0  0  0  0  0
  -25.3840  -31.4280   26.0320 C   0  0  0  0  0  1  0  0  0  0  0  0
  -27.0490  -30.3320   24.5250 C   0  0  0  0  0  1  0  0  0  0  0  0
  -27.6070  -32.4930   25.6050 C   0  0  0  0  0  1  0  0  0  0  0  0
  1  4  1  0
  1  3  1  0
  2  1  2  0
  5  6  1  0
  5  3  1  0
  7 11  1  0
  7  4  1  0
  7  6  1  0
  9 11  1  0
 10  8  1  0
 10 16  1  0
 11  8  2  0
 12  9  2  0
 12 13  1  0
 13 10  2  0
 14 12  1  0
 15 13  1  0
 16 22  1  0
 16 23  2  0
 17 22  1  0
 18 19  1  0
 18 17  1  0
 20 19  1  0
 20 27  1  0
 20 21  1  0
 22 21  1  0
 24 25  2  0
 25 44  1  0
 25 26  1  0
 26 29  1  0
 27 24  1  0
 27 28  1  0
 28 26  2  0
 29 30  1  0
 30 31  2  0
 32 35  1  0
 32 31  1  0
 33 32  2  0
 34 33  1  0
 34 29  2  0
 35 36  1  0
 36 37  1  0
 37 38  2  0
 39 38  1  0
 39 43  1  0
 40 39  2  0
 41 36  2  0
 41 40  1  0
 42 41  1  0
 44 45  1  0
 45 48  1  0
 45 47  1  0
 46 44  2  0
 49 50  1  0
 49 24  1  0
 51 49  1  0
 52 53  1  0
 52  2  1  0
 54 65  2  0
 55 53  1  0
 55 60  1  0
 56 64  1  0
 56 66  1  0
 57 63  1  0
 57 59  1  0
 58 64  1  0
 59 58  1  0
 60 59  2  0
 61 62  1  0
 61 55  2  0
 62 57  2  0
 63 56  1  0
 64 54  1  0
 66 68  2  0
 67 66  1  0
 69 67  1  0
 70 79  2  0
 70 75  1  0
 71 67  1  0
 71 75  1  0
 72 71  1  0
 73 74  1  0
 73 72  1  0
 74 70  1  0
 75 76  2  0
 76 77  1  0
 78 77  2  0
 79 78  1  0
 80 54  1  0
 80 81  1  0
 80 90  1  0
 81 84  1  0
 82 86  1  0
 82 81  1  0
 83 82  2  0
 86 85  1  0
 88 86  1  0
 88 89  1  0
 88 87  1  0
 90 93  1  1
 90 91  1  0
 92 90  1  0
M  ISO  4  10 100  16 100  52 101  53 101
M  END
>  <TORSDO>  (55) 
F 18

>  <SCORE>  (55) 
-12.774

>  <name>  (55) 
55

>  <ligand_id>  (55) 
55

>  <original_smiles>  (55) 
[H]C(=C1C([H])([H])C([H])([H])C([H])([H])C([H])(c2c([H])c(C(=O)N3C([H])([H])C([H])([H])C([H])([H])C([H])(n4nc(-c5c([H])c([H])c(Oc6c([H])c([H])c(F)c([H])c6F)c([H])c5[H])c(C(=O)N([H])[H])c4N([H])[H])C3([H])[H])c(C([H])([H])[H])c(C([H])([H])[H])c2[H])C1([H])[H])C([H])([H])Oc1c([H])c([H])c2c(c1[H])C([H])([H])N(C(=O)C([H])(N([H])C(=O)C([H])(N([H])C([H])([H])[H])C([H])([H])[H])C(C([H])([H])[H])(C([H])([H])[H])C([H])([H])[H])C([H])(C(=O)N([H])C1([H])c3c([H])c([H])c([H])c([H])c3C([H])([H])C([H])([H])C1([H])[H])C2([H])[H]

>  <smiles>  (55) 
[H]C(=C1C([H])([H])C([H])([H])C([H])([H])C([H])(c2c([H])c(C(=O)N3C([H])([H])C([H])([H])C([H])([H])C([H])(n4nc(-c5c([H])c([H])c(Oc6c([H])c([H])c(F)c([H])c6F)c([H])c5[H])c(C(=O)N([H])[H])c4N([H])[H])C3([H])[H])c(C([H])([H])[H])c(C([H])([H])[H])c2[H])C1([H])[H])C([H])([H])Oc1c([H])c([H])c2c(c1[H])C([H])([H])N(C(=O)C([H])(N([H])C(=O)C([H])(N([H])C([H])([H])[H])C([H])([H])[H])C(C([H])([H])[H])(C([H])([H])[H])C([H])([H])[H])C([H])(C(=O)N([H])C1([H])c3c([H])c([H])c([H])c([H])c3C([H])([H])C([H])([H])C1([H])[H])C2([H])[H]

$$$$
56:0:0
     RDKit          3D

 93103  0  0  1  0  0  0  0  0999 V2000
  -27.3450  -21.0100   18.9190 C   0  0  0  0  0  0  0  0  0  0  0  0
  -27.7310  -20.1200   20.0320 C   0  0  0  0  0  0  0  0  0  0  0  0
  -26.9010  -20.4400   17.7830 C   0  0  0  0  0  2  0  0  0  0  0  0
  -28.1650  -23.2260   17.8960 C   0  0  0  0  0  2  0  0  0  0  0  0
  -28.5460  -24.6480   18.3430 C   0  0  0  0  0  2  0  0  0  0  0  0
  -29.4240  -22.0160   20.5340 C   0  0  0  0  0  2  0  0  0  0  0  0
  -27.4660  -22.5370   19.0910 C   0  0  0  0  0  3  0  0  0  0  0  0
  -29.0660  -20.3900   20.7210 C   0  0  0  0  0  3  0  0  0  0  0  0
  -28.2030  -23.1270   20.3380 C   0  0  0  0  0  3  0  0  0  0  0  0
  -28.1560  -24.7450   19.8130 C   0  0  0  0  0  3  0  0  0  0  0  0
  -27.0440  -19.1610   20.3940 O   0  0  0  0  0  0  0  0  0  0  0  0
  -30.1810  -18.3890   19.1760 C   0  0  0  0  0  2  0  0  0  0  0  0
  -30.2010  -19.2300   20.4300 C   0  0  0  0  0  3  0  0  0  0  0  0
  -30.5630  -17.5920   20.4130 C   0  0  0  0  0  3  0  0  0  0  0  0
  -30.6570  -14.9720   20.2450 C   0  0  0  0  0  0  0  0  0  0  0  0
  -30.4350  -12.6820   19.2070 C   0  0  0  0  0  2  0  0  0  0  0  0
  -29.4730  -12.7530   18.0020 C   0  0  0  0  0  2  0  0  0  0  0  0
  -28.0190  -12.5410   18.4690 C   0  0  0  0  0  2  0  0  0  0  0  0
  -27.6660  -13.3950   19.7170 C   0  0  0  0  0  3  0  0  0  0  0  0
  -28.7580  -13.3420   20.8060 C   0  0  0  0  0  2  0  0  0  0  0  0
  -30.0150  -13.7400   20.1670 N   0  0  0  0  0  0  0  0  0  0  0  0
  -31.8460  -15.0090   19.9170 O   0  0  0  0  0  0  0  0  0  0  0  0
  -29.9530  -16.1810   20.4670 N   0  0  0  0  0  0  0  0  0  0  0  0
  -28.9660  -16.1030   20.6690 H   0  0  0  0  0  0  0  0  0  0  0  0
  -25.3060  -13.9310   20.5450 C   0  0  0  0  0  0  0  0  0  0  0  0
  -24.2630  -13.1360   20.9280 C   0  0  0  0  0  0  0  0  0  0  0  0
  -24.7380  -11.7910   20.8490 C   0  0  0  0  0  0  0  0  0  0  0  0
  -26.3520  -13.0700   20.2500 N   0  0  0  0  0  0  0  0  0  0  0  0
  -26.0200  -11.7760   20.4960 N   0  0  0  0  0  0  0  0  0  0  0  0
  -24.0290  -10.5170   21.0260 C   0  0  0  0  0  0  0  0  0  0  0  0
  -24.4620   -9.5510   21.9600 C   0  0  0  0  0  3  0  0  0  0  0  0
  -23.7450   -8.3470   22.1260 C   0  0  0  0  0  3  0  0  0  0  0  0
  -22.5820   -8.1010   21.3590 C   0  0  0  0  0  0  0  0  0  0  0  0
  -22.1690   -9.0560   20.4140 C   0  0  0  0  0  3  0  0  0  0  0  0
  -22.8860  -10.2520   20.2460 C   0  0  0  0  0  3  0  0  0  0  0  0
  -21.8400   -6.9470   21.4350 O   0  0  0  0  0  0  0  0  0  0  0  0
  -21.7350   -6.2320   22.6010 C   0  0  0  0  0  0  0  0  0  0  0  0
  -21.1830   -6.7930   23.7730 C   0  0  0  0  0  3  0  0  0  0  0  0
  -21.0320   -6.0030   24.9300 C   0  0  0  0  0  3  0  0  0  0  0  0
  -21.4220   -4.6510   24.9140 C   0  0  0  0  0  0  0  0  0  0  0  0
  -21.9640   -4.0860   23.7460 C   0  0  0  0  0  3  0  0  0  0  0  0
  -22.1170   -4.8760   22.5920 C   0  0  0  0  0  0  0  0  0  0  0  0
  -22.6240   -4.3200   21.4640 F   0  0  0  0  0  0  0  0  0  0  0  0
  -21.2670   -3.8890   26.0230 F   0  0  0  0  0  0  0  0  0  0  0  0
  -22.8700  -13.5970   21.2520 C   0  0  0  0  0  0  0  0  0  0  0  0
  -22.1780  -12.8790   22.1300 N   0  0  0  0  0  0  0  0  0  0  0  0
  -22.4080  -14.6290   20.7680 O   0  0  0  0  0  0  0  0  0  0  0  0
  -22.5660  -12.0480   22.5440 H   0  0  0  0  0  0  0  0  0  0  0  0
  -21.2460  -13.1670   22.3890 H   0  0  0  0  0  0  0  0  0  0  0  0
  -25.4430  -15.3080   20.3990 N   0  0  0  0  0  0  0  0  0  0  0  0
  -24.6570  -15.9330   20.5510 H   0  0  0  0  0  0  0  0  0  0  0  0
  -26.2740  -15.7890   20.0750 H   0  0  0  0  0  0  0  0  0  0  0  0
  -28.3140  -26.2200   20.2940 O   0  0  0  0  0  0  0  0  0  0  0  0
  -24.6440  -31.8820   23.2080 C   0  0  0  0  0  0  0  0  0  0  0  0
  -27.2770  -27.2260   20.1400 C   0  0  0  0  0  0  0  0  0  0  0  0
  -23.4670  -30.5030   21.5350 C   0  0  0  0  0  3  0  0  0  0  0  0
  -24.9450  -28.9720   20.0950 C   0  0  0  0  0  0  0  0  0  0  0  0
  -26.0230  -30.7790   21.4160 C   0  0  0  0  0  2  0  0  0  0  0  0
  -26.1080  -29.4000   20.7410 C   0  0  0  0  0  0  0  0  0  0  0  0
  -27.2680  -28.5380   20.7620 C   0  0  0  0  0  3  0  0  0  0  0  0
  -26.1090  -26.9430   19.3890 C   0  0  0  0  0  3  0  0  0  0  0  0
  -24.9640  -27.7590   19.3940 C   0  0  0  0  0  3  0  0  0  0  0  0
  -23.7030  -29.8480   20.1500 C   0  0  0  0  0  2  0  0  0  0  0  0
  -24.7280  -31.0770   22.1040 N   0  0  0  0  0  0  0  0  0  0  0  0
  -23.5530  -32.1590   23.7270 O   0  0  0  0  0  0  0  0  0  0  0  0
  -22.7850  -29.4810   22.4790 C   0  0  0  0  0  0  0  0  0  0  0  0
  -21.4590  -29.3090   22.3370 N   0  0  0  0  0  0  0  0  0  0  0  0
  -23.4540  -28.8500   23.3030 O   0  0  0  0  0  0  0  0  0  0  0  0
  -20.9790  -29.8650   21.6420 H   0  0  0  0  0  0  0  0  0  0  0  0
  -18.0750  -28.0990   22.8100 C   0  0  0  0  0  0  0  0  0  0  0  0
  -20.6320  -28.3630   23.0930 C   0  0  0  0  0  3  0  0  0  0  0  0
  -20.7370  -26.9380   22.5020 C   0  0  0  0  0  2  0  0  0  0  0  0
  -19.6420  -26.6290   21.4760 C   0  0  0  0  0  2  0  0  0  0  0  0
  -18.2560  -26.7620   22.1120 C   0  0  0  0  0  2  0  0  0  0  0  0
  -19.1890  -28.8590   23.2560 C   0  0  0  0  0  0  0  0  0  0  0  0
  -18.9650  -30.1080   23.8710 C   0  0  0  0  0  3  0  0  0  0  0  0
  -17.6570  -30.6040   24.0380 C   0  0  0  0  0  3  0  0  0  0  0  0
  -16.5570  -29.8430   23.6070 C   0  0  0  0  0  3  0  0  0  0  0  0
  -16.7680  -28.5910   23.0030 C   0  0  0  0  0  3  0  0  0  0  0  0
  -25.9160  -32.5110   23.8550 C   0  0  0  0  0  3  0  0  0  0  0  0
  -25.6000  -33.9100   24.1870 N   0  0  0  0  0  0  0  0  0  0  0  0
  -25.9240  -34.9680   23.4310 C   0  0  0  0  0  0  0  0  0  0  0  0
  -26.5840  -34.8690   22.3920 O   0  0  0  0  0  0  0  0  0  0  0  0
  -24.9960  -34.0590   24.9820 H   0  0  0  0  0  0  0  0  0  0  0  0
  -24.1850  -36.7520   23.1070 C   0  0  0  0  0  1  0  0  0  0  0  0
  -25.4420  -36.3540   23.8980 C   0  0  0  0  0  3  0  0  0  0  0  0
  -27.5820  -37.2520   24.7010 C   0  0  0  0  0  1  0  0  0  0  0  0
  -26.4710  -37.4090   23.7660 N   0  0  0  0  0  0  0  0  0  0  0  0
  -26.0650  -38.3310   23.9060 H   0  0  0  0  0  0  0  0  0  0  0  0
  -26.4090  -31.7330   25.1370 C   0  0  1  0  0  0  0  0  0  0  0  0
  -25.2960  -31.4950   26.1840 C   0  0  0  0  0  1  0  0  0  0  0  0
  -26.9950  -30.3510   24.7640 C   0  0  0  0  0  1  0  0  0  0  0  0
  -27.5550  -32.5210   25.8170 C   0  0  0  0  0  1  0  0  0  0  0  0
  1  7  1  0
  1  2  1  0
  2 11  2  0
  2  8  1  0
  3  1  2  0
  4  5  1  0
  5 10  1  0
  7  4  1  0
  7  9  1  0
  8  6  1  0
  9  6  1  0
 10 53  1  0
 10  9  1  0
 12 14  1  0
 13 12  1  0
 13  8  1  0
 14 13  1  0
 14 23  1  0
 15 23  1  0
 16 21  1  0
 17 18  1  0
 17 16  1  0
 19 18  1  0
 19 28  1  0
 19 20  1  0
 21 15  1  0
 21 20  1  0
 22 15  2  0
 23 24  1  0
 25 26  2  0
 26 45  1  0
 27 26  1  0
 27 30  1  0
 28 29  1  0
 28 25  1  0
 29 27  2  0
 30 31  1  0
 31 32  2  0
 33 36  1  0
 33 32  1  0
 34 33  2  0
 35 34  1  0
 35 30  2  0
 36 37  1  0
 37 38  1  0
 38 39  2  0
 40 39  1  0
 40 44  1  0
 41 40  2  0
 42 37  2  0
 42 41  1  0
 43 42  1  0
 45 46  1  0
 46 49  1  0
 46 48  1  0
 47 45  2  0
 50 25  1  0
 50 51  1  0
 52 50  1  0
 54 65  2  0
 55 53  1  0
 55 60  1  0
 56 64  1  0
 56 66  1  0
 57 63  1  0
 57 59  1  0
 58 64  1  0
 59 60  2  0
 59 58  1  0
 61 62  1  0
 61 55  2  0
 62 57  2  0
 63 56  1  0
 64 54  1  0
 66 68  2  0
 67 66  1  0
 69 67  1  0
 70 79  2  0
 70 75  1  0
 71 67  1  0
 71 75  1  0
 72 71  1  0
 73 74  1  0
 73 72  1  0
 74 70  1  0
 75 76  2  0
 76 77  1  0
 78 77  2  0
 79 78  1  0
 80 54  1  0
 80 81  1  0
 80 90  1  0
 81 84  1  0
 82 86  1  0
 82 81  1  0
 83 82  2  0
 86 85  1  0
 88 86  1  0
 88 89  1  0
 88 87  1  0
 90 93  1  1
 90 91  1  0
 92 90  1  0
M  ISO  4  10 101  15 100  23 100  53 101
M  END
>  <TORSDO>  (56) 
F 17

>  <SCORE>  (56) 
-14.985

>  <name>  (56) 
56

>  <ligand_id>  (56) 
56

>  <original_smiles>  (56) 
[H]C([H])=C1C(=O)C([H])(C2([H])C([H])([H])C2([H])N([H])C(=O)N2C([H])([H])C([H])([H])C([H])([H])C([H])(n3nc(-c4c([H])c([H])c(Oc5c([H])c([H])c(F)c([H])c5F)c([H])c4[H])c(C(=O)N([H])[H])c3N([H])[H])C2([H])[H])C([H])([H])C2([H])C([H])(Oc3c([H])c([H])c4c(c3[H])C([H])([H])N(C(=O)C([H])(N([H])C(=O)C([H])(N([H])C([H])([H])[H])C([H])([H])[H])C(C([H])([H])[H])(C([H])([H])[H])C([H])([H])[H])C([H])(C(=O)N([H])C3([H])c5c([H])c([H])c([H])c([H])c5C([H])([H])C([H])([H])C3([H])[H])C4([H])[H])C([H])([H])C([H])([H])C12[H]

>  <smiles>  (56) 
[H]C([H])=C1C(=O)C([H])(C2([H])C([H])([H])C2([H])N([H])C(=O)N2C([H])([H])C([H])([H])C([H])([H])C([H])(n3nc(-c4c([H])c([H])c(Oc5c([H])c([H])c(F)c([H])c5F)c([H])c4[H])c(C(=O)N([H])[H])c3N([H])[H])C2([H])[H])C([H])([H])C2([H])C([H])(Oc3c([H])c([H])c4c(c3[H])C([H])([H])N(C(=O)C([H])(N([H])C(=O)C([H])(N([H])C([H])([H])[H])C([H])([H])[H])C(C([H])([H])[H])(C([H])([H])[H])C([H])([H])[H])C([H])(C(=O)N([H])C3([H])c5c([H])c([H])c([H])c([H])c5C([H])([H])C([H])([H])C3([H])[H])C4([H])[H])C([H])([H])C([H])([H])C12[H]

$$$$
57:0:0
     RDKit          3D

 98108  0  0  1  0  0  0  0  0999 V2000
  -30.4420  -16.6750   19.7560 C   0  0  0  0  0  0  0  0  0  0  0  0
  -30.4610  -17.9400   20.5270 C   0  0  0  0  0  0  0  0  0  0  0  0
  -29.9870  -19.2610   20.0420 C   0  0  0  0  0  0  0  0  0  0  0  0
  -29.9860  -16.8760   18.4090 C   0  0  0  0  0  0  0  0  0  0  0  0
  -29.2480  -19.2180   18.8360 C   0  0  0  0  0  0  0  0  0  0  0  0
  -29.3170  -18.0720   17.9990 C   0  0  0  0  0  0  0  0  0  0  0  0
  -30.9830  -17.9180   21.9510 C   0  0  0  0  0  2  0  0  0  0  0  0
  -30.2460  -18.9220   22.8660 C   0  0  0  0  0  3  0  0  0  0  0  0
  -29.9330  -20.3420   22.3090 C   0  0  0  0  0  3  0  0  0  0  0  0
  -30.2910  -20.6670   20.8320 C   0  0  1  0  0  0  0  0  0  0  0  0
  -30.2790  -15.8580   17.3070 C   0  0  0  0  0  1  0  0  0  0  0  0
  -28.3520  -20.3820   18.4230 C   0  0  0  0  0  1  0  0  0  0  0  0
  -28.6800  -18.1740   16.6030 C   0  0  0  0  0  1  0  0  0  0  0  0
  -31.8290  -20.8440   20.7380 C   0  0  0  0  0  1  0  0  0  0  0  0
  -31.1390  -15.2700   20.1350 C   0  0  0  0  0  0  0  0  0  0  0  0
  -30.9680  -12.9160   19.2310 C   0  0  0  0  0  2  0  0  0  0  0  0
  -29.9680  -12.7730   18.0610 C   0  0  0  0  0  2  0  0  0  0  0  0
  -28.5230  -12.6180   18.5600 C   0  0  0  0  0  2  0  0  0  0  0  0
  -28.1680  -13.5460   19.7510 C   0  0  0  0  0  3  0  0  0  0  0  0
  -29.2870  -13.6180   20.8030 C   0  0  0  0  0  2  0  0  0  0  0  0
  -30.5110  -14.0270   20.1060 N   0  0  0  0  0  0  0  0  0  0  0  0
  -32.3680  -15.2630   20.0320 O   0  0  0  0  0  0  0  0  0  0  0  0
  -25.8600  -14.0430   20.7450 C   0  0  0  0  0  0  0  0  0  0  0  0
  -24.8200  -13.2310   21.1120 C   0  0  0  0  0  0  0  0  0  0  0  0
  -25.2740  -11.8920   20.9160 C   0  0  0  0  0  0  0  0  0  0  0  0
  -26.8770  -13.1960   20.3400 N   0  0  0  0  0  0  0  0  0  0  0  0
  -26.5410  -11.8910   20.5170 N   0  0  0  0  0  0  0  0  0  0  0  0
  -24.5580  -10.6130   21.0280 C   0  0  0  0  0  0  0  0  0  0  0  0
  -24.9610   -9.6160   21.9440 C   0  0  0  0  0  3  0  0  0  0  0  0
  -24.2410   -8.4070   22.0500 C   0  0  0  0  0  3  0  0  0  0  0  0
  -23.1050   -8.1820   21.2370 C   0  0  0  0  0  0  0  0  0  0  0  0
  -22.7210   -9.1680   20.3110 C   0  0  0  0  0  3  0  0  0  0  0  0
  -23.4420  -10.3700   20.2030 C   0  0  0  0  0  3  0  0  0  0  0  0
  -22.3610   -7.0270   21.2520 O   0  0  0  0  0  0  0  0  0  0  0  0
  -22.1140   -6.3440   22.4150 C   0  0  0  0  0  0  0  0  0  0  0  0
  -21.4400   -6.9430   23.5010 C   0  0  0  0  0  3  0  0  0  0  0  0
  -21.1450   -6.1840   24.6520 C   0  0  0  0  0  3  0  0  0  0  0  0
  -21.5130   -4.8280   24.7160 C   0  0  0  0  0  0  0  0  0  0  0  0
  -22.1810   -4.2270   23.6330 C   0  0  0  0  0  3  0  0  0  0  0  0
  -22.4760   -4.9830   22.4850 C   0  0  0  0  0  0  0  0  0  0  0  0
  -23.1000   -4.3960   21.4350 F   0  0  0  0  0  0  0  0  0  0  0  0
  -21.2240   -4.0960   25.8170 F   0  0  0  0  0  0  0  0  0  0  0  0
  -23.4490  -13.6750   21.5250 C   0  0  0  0  0  0  0  0  0  0  0  0
  -22.7830  -12.8980   22.3720 N   0  0  0  0  0  0  0  0  0  0  0  0
  -22.9760  -14.7400   21.1300 O   0  0  0  0  0  0  0  0  0  0  0  0
  -23.1820  -12.0350   22.7100 H   0  0  0  0  0  0  0  0  0  0  0  0
  -21.8650  -13.1720   22.6910 H   0  0  0  0  0  0  0  0  0  0  0  0
  -26.0190  -15.4230   20.6920 N   0  0  0  0  0  0  0  0  0  0  0  0
  -25.2700  -16.0640   20.9320 H   0  0  0  0  0  0  0  0  0  0  0  0
  -26.8530  -15.8940   20.3630 H   0  0  0  0  0  0  0  0  0  0  0  0
  -30.4740  -23.1600   19.6750 C   0  0  0  0  0  3  0  0  0  0  0  0
  -30.1600  -24.5740   19.5940 C   0  0  0  0  0  3  0  0  0  0  0  0
  -28.6700  -22.8680   21.1530 C   0  0  0  0  0  3  0  0  0  0  0  0
  -29.7620  -22.2080   20.4790 C   0  0  0  0  0  0  0  0  0  0  0  0
  -28.3510  -24.2860   21.0840 C   0  0  0  0  0  0  0  0  0  0  0  0
  -29.0960  -25.2300   20.2970 C   0  0  0  0  0  0  0  0  0  0  0  0
  -27.2060  -24.7840   21.9460 C   0  0  0  0  0  1  0  0  0  0  0  0
  -28.9900  -26.6880   20.3070 O   0  0  0  0  0  0  0  0  0  0  0  0
  -24.8160  -31.9040   23.3130 C   0  0  0  0  0  0  0  0  0  0  0  0
  -27.8300  -27.5190   20.2600 C   0  0  0  0  0  0  0  0  0  0  0  0
  -23.7950  -30.5400   21.5280 C   0  0  0  0  0  3  0  0  0  0  0  0
  -25.4090  -29.1040   20.1360 C   0  0  0  0  0  0  0  0  0  0  0  0
  -26.3300  -30.9460   21.5440 C   0  0  0  0  0  2  0  0  0  0  0  0
  -26.5130  -29.5910   20.8460 C   0  0  0  0  0  0  0  0  0  0  0  0
  -27.7220  -28.8140   20.8950 C   0  0  0  0  0  3  0  0  0  0  0  0
  -26.7050  -27.1130   19.5140 C   0  0  0  0  0  3  0  0  0  0  0  0
  -25.5160  -27.8770   19.4550 C   0  0  0  0  0  3  0  0  0  0  0  0
  -24.1350  -29.9340   20.1380 C   0  0  0  0  0  2  0  0  0  0  0  0
  -24.9950  -31.1500   22.1860 N   0  0  0  0  0  0  0  0  0  0  0  0
  -23.6860  -32.1080   23.7820 O   0  0  0  0  0  0  0  0  0  0  0  0
  -23.1070  -29.4570   22.3940 C   0  0  0  0  0  0  0  0  0  0  0  0
  -21.7880  -29.2720   22.2060 N   0  0  0  0  0  0  0  0  0  0  0  0
  -23.7620  -28.7850   23.1950 O   0  0  0  0  0  0  0  0  0  0  0  0
  -21.3160  -29.8690   21.5410 H   0  0  0  0  0  0  0  0  0  0  0  0
  -18.3910  -28.0820   22.6080 C   0  0  0  0  0  0  0  0  0  0  0  0
  -20.9570  -28.2700   22.8770 C   0  0  0  0  0  3  0  0  0  0  0  0
  -21.0270  -26.9070   22.1490 C   0  0  0  0  0  2  0  0  0  0  0  0
  -19.9090  -26.7150   21.1190 C   0  0  0  0  0  2  0  0  0  0  0  0
  -18.5350  -26.8130   21.7870 C   0  0  0  0  0  2  0  0  0  0  0  0
  -19.5270  -28.7740   23.1080 C   0  0  0  0  0  0  0  0  0  0  0  0
  -19.3330  -29.9680   23.8360 C   0  0  0  0  0  3  0  0  0  0  0  0
  -18.0380  -30.4650   24.0720 C   0  0  0  0  0  3  0  0  0  0  0  0
  -16.9180  -29.7670   23.5910 C   0  0  0  0  0  3  0  0  0  0  0  0
  -17.0960  -28.5780   22.8600 C   0  0  0  0  0  3  0  0  0  0  0  0
  -26.0180  -32.5640   24.0560 C   0  0  0  0  0  3  0  0  0  0  0  0
  -25.6710  -33.9710   24.3120 N   0  0  0  0  0  0  0  0  0  0  0  0
  -26.0470  -35.0030   23.5470 C   0  0  0  0  0  0  0  0  0  0  0  0
  -26.7930  -34.8730   22.5710 O   0  0  0  0  0  0  0  0  0  0  0  0
  -25.0210  -34.1440   25.0640 H   0  0  0  0  0  0  0  0  0  0  0  0
  -24.3320  -36.7650   23.0150 C   0  0  0  0  0  1  0  0  0  0  0  0
  -25.5170  -36.3990   23.9230 C   0  0  0  0  0  3  0  0  0  0  0  0
  -27.5760  -37.3400   24.8710 C   0  0  0  0  0  1  0  0  0  0  0  0
  -26.5420  -37.4610   23.8470 N   0  0  0  0  0  0  0  0  0  0  0  0
  -26.1170  -38.3800   23.9330 H   0  0  0  0  0  0  0  0  0  0  0  0
  -26.3850  -31.8370   25.4090 C   0  0  1  0  0  0  0  0  0  0  0  0
  -25.1760  -31.6260   26.3520 C   0  0  0  0  0  1  0  0  0  0  0  0
  -27.0110  -30.4520   25.1320 C   0  0  0  0  0  1  0  0  0  0  0  0
  -27.4500  -32.6610   26.1710 C   0  0  0  0  0  1  0  0  0  0  0  0
  1 15  1  0
  1  2  1  0
  2  7  1  0
  3  2  2  0
  3 10  1  0
  4  1  2  0
  5  3  1  0
  6  4  1  0
  6  5  2  0
  7  8  1  0
  9  8  2  0
 10 14  1  1
 10  9  1  0
 11  4  1  0
 12  5  1  0
 13  6  1  0
 16 21  1  0
 17 18  1  0
 17 16  1  0
 19 18  1  0
 19 26  1  0
 19 20  1  0
 21 15  1  0
 21 20  1  0
 22 15  2  0
 23 24  2  0
 24 43  1  0
 25 28  1  0
 25 24  1  0
 26 27  1  0
 26 23  1  0
 27 25  2  0
 28 29  1  0
 29 30  2  0
 31 34  1  0
 31 30  1  0
 32 31  2  0
 33 32  1  0
 33 28  2  0
 34 35  1  0
 35 40  2  0
 35 36  1  0
 36 37  2  0
 37 38  1  0
 38 42  1  0
 39 38  2  0
 40 39  1  0
 41 40  1  0
 43 44  1  0
 44 47  1  0
 44 46  1  0
 45 43  2  0
 48 23  1  0
 48 49  1  0
 50 48  1  0
 51 54  1  0
 52 51  2  0
 52 56  1  0
 54 10  1  0
 54 53  2  0
 55 53  1  0
 55 57  1  0
 56 58  1  0
 56 55  2  0
 59 70  2  0
 60 58  1  0
 60 65  1  0
 61 69  1  0
 61 71  1  0
 62 68  1  0
 62 64  1  0
 63 69  1  0
 64 65  2  0
 64 63  1  0
 66 60  2  0
 67 66  1  0
 67 62  2  0
 68 61  1  0
 69 59  1  0
 71 73  2  0
 72 71  1  0
 74 72  1  0
 75 84  2  0
 75 80  1  0
 76 72  1  0
 76 80  1  0
 77 76  1  0
 78 79  1  0
 78 77  1  0
 79 75  1  0
 80 81  2  0
 81 82  1  0
 83 82  2  0
 84 83  1  0
 85 59  1  0
 85 86  1  0
 85 95  1  0
 86 89  1  0
 87 91  1  0
 87 86  1  0
 88 87  2  0
 91 90  1  0
 93 91  1  0
 93 94  1  0
 93 92  1  0
 95 98  1  1
 95 96  1  0
 97 95  1  0
M  ISO  4   1 100  15 100  56 101  58 101
M  END
>  <TORSDO>  (57) 
F 17

>  <SCORE>  (57) 
-10.558

>  <name>  (57) 
57

>  <ligand_id>  (57) 
57

>  <original_smiles>  (57) 
[H]c1c([H])c([H])c2c(c1[H])C([H])([H])C([H])([H])C([H])([H])C2([H])N([H])C(=O)C1([H])N(C(=O)C([H])(N([H])C(=O)C([H])(N([H])C([H])([H])[H])C([H])([H])[H])C(C([H])([H])[H])(C([H])([H])[H])C([H])([H])[H])C([H])([H])c2c([H])c(Oc3c([H])c([H])c(C4(C([H])([H])[H])c5c(C([H])([H])[H])c(C([H])([H])[H])c(C([H])([H])[H])c(C(=O)N6C([H])([H])C([H])([H])C([H])([H])C([H])(n7nc(-c8c([H])c([H])c(Oc9c([H])c([H])c(F)c([H])c9F)c([H])c8[H])c(C(=O)N([H])[H])c7N([H])[H])C6([H])[H])c5C([H])([H])C([H])([H])C4([H])[H])c([H])c3C([H])([H])[H])c([H])c([H])c2C1([H])[H]

>  <smiles>  (57) 
[H]c1c([H])c([H])c2c(c1[H])C([H])([H])C([H])([H])C([H])([H])C2([H])N([H])C(=O)C1([H])N(C(=O)C([H])(N([H])C(=O)C([H])(N([H])C([H])([H])[H])C([H])([H])[H])C(C([H])([H])[H])(C([H])([H])[H])C([H])([H])[H])C([H])([H])c2c([H])c(Oc3c([H])c([H])c(C4(C([H])([H])[H])c5c(C([H])([H])[H])c(C([H])([H])[H])c(C([H])([H])[H])c(C(=O)N6C([H])([H])C([H])([H])C([H])([H])C([H])(n7nc(-c8c([H])c([H])c(Oc9c([H])c([H])c(F)c([H])c9F)c([H])c8[H])c(C(=O)N([H])[H])c7N([H])[H])C6([H])[H])c5C([H])([H])C([H])([H])C4([H])[H])c([H])c3C([H])([H])[H])c([H])c([H])c2C1([H])[H]

$$$$
58:0:0
     RDKit          3D

 95103  0  0  1  0  0  0  0  0999 V2000
  -27.9090  -19.5920   18.6090 C   0  0  0  0  0  0  0  0  0  0  0  0
  -29.8990  -18.4780   19.4520 C   0  0  0  0  0  3  0  0  0  0  0  0
  -29.1570  -19.9000   19.2110 C   0  0  0  0  0  0  0  0  0  0  0  0
  -27.1920  -18.4560   19.1010 C   0  0  0  0  0  0  0  0  0  0  0  0
  -29.1470  -17.9140   20.4920 C   0  0  0  0  0  3  0  0  0  0  0  0
  -27.7770  -17.6910   20.1700 C   0  0  0  0  0  3  0  0  0  0  0  0
  -27.2680  -20.6030   17.6670 C   0  0  0  0  0  1  0  0  0  0  0  0
  -30.6630  -16.1620   21.6370 C   0  0  0  0  0  1  0  0  0  0  0  0
  -29.8060  -17.4240   21.7790 C   0  0  0  0  0  2  0  0  0  0  0  0
  -24.7870  -19.3260   18.6500 C   0  0  0  0  0  1  0  0  0  0  0  0
  -25.7810  -18.1510   18.5760 C   0  0  0  0  0  2  0  0  0  0  0  0
  -30.2330  -16.9830   18.4270 C   0  0  0  0  0  2  0  0  0  0  0  0
  -30.9650  -15.2790   18.4940 C   0  0  0  0  0  0  0  0  0  0  0  0
  -30.7280  -12.7540   17.7110 C   0  0  0  0  0  2  0  0  0  0  0  0
  -29.5820  -12.4900   16.6920 C   0  0  0  0  0  2  0  0  0  0  0  0
  -28.2440  -12.2580   17.4130 C   0  0  0  0  0  2  0  0  0  0  0  0
  -28.0410  -13.2640   18.5680 C   0  0  0  0  0  3  0  0  0  0  0  0
  -29.2900  -13.4500   19.4540 C   0  0  0  0  0  2  0  0  0  0  0  0
  -30.3750  -13.9530   18.5840 N   0  0  0  0  0  0  0  0  0  0  0  0
  -32.1530  -15.1300   18.1470 O   0  0  0  0  0  0  0  0  0  0  0  0
  -25.9460  -13.9410   19.8370 C   0  0  0  0  0  0  0  0  0  0  0  0
  -24.9190  -13.2300   20.3900 C   0  0  0  0  0  0  0  0  0  0  0  0
  -25.2530  -11.8510   20.2120 C   0  0  0  0  0  0  0  0  0  0  0  0
  -26.8350  -13.0050   19.3440 N   0  0  0  0  0  0  0  0  0  0  0  0
  -26.4460  -11.7350   19.6370 N   0  0  0  0  0  0  0  0  0  0  0  0
  -24.4680  -10.6430   20.5010 C   0  0  0  0  0  0  0  0  0  0  0  0
  -24.9300   -9.6570   21.4010 C   0  0  0  0  0  3  0  0  0  0  0  0
  -24.1450   -8.5160   21.6800 C   0  0  0  0  0  3  0  0  0  0  0  0
  -22.8850   -8.3530   21.0580 C   0  0  0  0  0  0  0  0  0  0  0  0
  -22.4400   -9.3250   20.1440 C   0  0  0  0  0  3  0  0  0  0  0  0
  -23.2240  -10.4570   19.8650 C   0  0  0  0  0  3  0  0  0  0  0  0
  -22.0670   -7.2650   21.2490 O   0  0  0  0  0  0  0  0  0  0  0  0
  -21.9830   -6.6310   22.4620 C   0  0  0  0  0  0  0  0  0  0  0  0
  -21.5890   -7.3130   23.6350 C   0  0  0  0  0  3  0  0  0  0  0  0
  -21.4490   -6.6070   24.8460 C   0  0  0  0  0  3  0  0  0  0  0  0
  -21.6930   -5.2210   24.8870 C   0  0  0  0  0  0  0  0  0  0  0  0
  -22.0780   -4.5390   23.7200 C   0  0  0  0  0  3  0  0  0  0  0  0
  -22.2200   -5.2420   22.5100 C   0  0  0  0  0  0  0  0  0  0  0  0
  -22.5710   -4.5770   21.3830 F   0  0  0  0  0  0  0  0  0  0  0  0
  -21.5530   -4.5400   26.0480 F   0  0  0  0  0  0  0  0  0  0  0  0
  -23.6530  -13.8030   20.9550 C   0  0  0  0  0  0  0  0  0  0  0  0
  -23.0790  -13.1430   21.9540 N   0  0  0  0  0  0  0  0  0  0  0  0
  -23.1930  -14.8660   20.5420 O   0  0  0  0  0  0  0  0  0  0  0  0
  -23.4740  -12.2830   22.3040 H   0  0  0  0  0  0  0  0  0  0  0  0
  -22.2340  -13.5050   22.3740 H   0  0  0  0  0  0  0  0  0  0  0  0
  -26.1820  -15.3010   19.6750 N   0  0  0  0  0  0  0  0  0  0  0  0
  -25.4920  -15.9920   19.9440 H   0  0  0  0  0  0  0  0  0  0  0  0
  -26.9680  -15.6910   19.1750 H   0  0  0  0  0  0  0  0  0  0  0  0
  -27.0000  -16.6160   20.9270 C   0  0  0  0  0  2  0  0  0  0  0  0
  -26.0300  -17.1940   21.9620 C   0  0  0  0  0  2  0  0  0  0  0  0
  -24.2100  -16.7030   23.6590 C   0  0  0  0  0  1  0  0  0  0  0  0
  -25.1800  -16.1110   22.6330 C   0  0  0  0  0  2  0  0  0  0  0  0
  -29.1370  -21.6360   19.8760 C   0  0  0  0  0  3  0  0  0  0  0  0
  -28.2010  -23.3320   19.8610 C   0  0  0  0  0  2  0  0  0  0  0  0
  -28.3490  -25.0210   20.2570 O   0  0  0  0  0  0  0  0  0  0  0  0
  -24.7570  -31.2650   23.0540 C   0  0  0  0  0  0  0  0  0  0  0  0
  -27.3730  -26.2130   20.1630 C   0  0  0  0  0  0  0  0  0  0  0  0
  -23.6180  -29.8660   21.3820 C   0  0  0  0  0  3  0  0  0  0  0  0
  -25.1060  -28.2180   20.0210 C   0  0  0  0  0  0  0  0  0  0  0  0
  -26.1980  -30.0130   21.3410 C   0  0  0  0  0  2  0  0  0  0  0  0
  -26.2800  -28.5830   20.6910 C   0  0  0  0  0  0  0  0  0  0  0  0
  -27.4030  -27.6100   20.7260 C   0  0  0  0  0  3  0  0  0  0  0  0
  -26.1670  -26.0410   19.4400 C   0  0  0  0  0  3  0  0  0  0  0  0
  -25.0860  -26.9710   19.3740 C   0  0  0  0  0  3  0  0  0  0  0  0
  -23.8990  -29.1660   20.0220 C   0  0  0  0  0  2  0  0  0  0  0  0
  -24.8810  -30.4130   21.9790 N   0  0  0  0  0  0  0  0  0  0  0  0
  -23.6490  -31.5680   23.5270 O   0  0  0  0  0  0  0  0  0  0  0  0
  -22.8690  -28.8910   22.3300 C   0  0  0  0  0  0  0  0  0  0  0  0
  -21.5380  -28.7550   22.1710 N   0  0  0  0  0  0  0  0  0  0  0  0
  -23.4960  -28.2560   23.1820 O   0  0  0  0  0  0  0  0  0  0  0  0
  -21.0850  -29.3150   21.4630 H   0  0  0  0  0  0  0  0  0  0  0  0
  -18.1200  -27.6090   22.6150 C   0  0  0  0  0  0  0  0  0  0  0  0
  -20.6810  -27.8270   22.9190 C   0  0  0  0  0  3  0  0  0  0  0  0
  -20.7630  -26.3990   22.3320 C   0  0  0  0  0  2  0  0  0  0  0  0
  -19.6730  -26.1090   21.2960 C   0  0  0  0  0  2  0  0  0  0  0  0
  -18.2820  -26.2690   21.9190 C   0  0  0  0  0  2  0  0  0  0  0  0
  -19.2450  -28.3490   23.0690 C   0  0  0  0  0  0  0  0  0  0  0  0
  -19.0350  -29.6030   23.6820 C   0  0  0  0  0  3  0  0  0  0  0  0
  -17.7350  -30.1190   23.8410 C   0  0  0  0  0  3  0  0  0  0  0  0
  -16.6260  -29.3780   23.4000 C   0  0  0  0  0  3  0  0  0  0  0  0
  -16.8180  -28.1240   22.7940 C   0  0  0  0  0  3  0  0  0  0  0  0
  -26.0010  -31.9100   23.7340 C   0  0  0  0  0  3  0  0  0  0  0  0
  -25.6870  -33.3250   24.0210 N   0  0  0  0  0  0  0  0  0  0  0  0
  -26.0880  -34.3690   23.2820 C   0  0  0  0  0  0  0  0  0  0  0  0
  -26.8220  -34.2410   22.2980 O   0  0  0  0  0  0  0  0  0  0  0  0
  -25.0430  -33.4970   24.7790 H   0  0  0  0  0  0  0  0  0  0  0  0
  -24.4240  -36.2010   22.8120 C   0  0  0  0  0  1  0  0  0  0  0  0
  -25.6080  -35.7750   23.6970 C   0  0  0  0  0  3  0  0  0  0  0  0
  -27.7080  -36.6300   24.6440 C   0  0  0  0  0  1  0  0  0  0  0  0
  -26.6680  -36.8070   23.6320 N   0  0  0  0  0  0  0  0  0  0  0  0
  -26.2740  -37.7370   23.7410 H   0  0  0  0  0  0  0  0  0  0  0  0
  -26.4250  -31.1760   25.0680 C   0  0  1  0  0  0  0  0  0  0  0  0
  -25.2670  -30.9960   26.0800 C   0  0  0  0  0  1  0  0  0  0  0  0
  -27.0030  -29.7750   24.7710 C   0  0  0  0  0  1  0  0  0  0  0  0
  -27.5500  -31.9740   25.7680 C   0  0  0  0  0  1  0  0  0  0  0  0
  1  4  2  0
  1  3  1  0
  2 12  1  0
  2  5  1  0
  3  2  1  0
  3 53  2  0
  4  6  1  0
  5  9  1  0
  6  5  1  0
  6 49  1  0
  7  1  1  0
  8  9  1  0
 11 10  1  0
 11  4  1  0
 12 13  1  0
 13 19  1  0
 14 19  1  0
 15 16  1  0
 15 14  1  0
 17 16  1  0
 17 24  1  0
 17 18  1  0
 19 18  1  0
 20 13  2  0
 21 22  2  0
 22 41  1  0
 23 22  1  0
 23 26  1  0
 24 25  1  0
 24 21  1  0
 25 23  2  0
 26 27  1  0
 27 28  2  0
 29 32  1  0
 29 28  1  0
 30 29  2  0
 31 30  1  0
 31 26  2  0
 32 33  1  0
 33 38  2  0
 33 34  1  0
 34 35  2  0
 35 36  1  0
 36 40  1  0
 37 36  2  0
 38 37  1  0
 39 38  1  0
 41 42  1  0
 42 44  1  0
 42 45  1  0
 43 41  2  0
 46 21  1  0
 46 47  1  0
 48 46  1  0
 49 50  1  0
 50 52  1  0
 52 51  1  0
 54 53  1  0
 54 55  1  0
 56 67  2  0
 57 55  1  0
 57 62  1  0
 58 66  1  0
 58 68  1  0
 59 65  1  0
 59 61  1  0
 60 66  1  0
 61 62  2  0
 61 60  1  0
 63 57  2  0
 64 63  1  0
 64 59  2  0
 65 58  1  0
 66 56  1  0
 68 70  2  0
 69 68  1  0
 71 69  1  0
 72 81  2  0
 72 77  1  0
 73 69  1  0
 73 77  1  0
 74 73  1  0
 75 76  1  0
 75 74  1  0
 76 72  1  0
 77 78  2  0
 78 79  1  0
 80 79  2  0
 81 80  1  0
 82 56  1  0
 82 83  1  0
 82 92  1  0
 83 86  1  0
 84 88  1  0
 84 83  1  0
 85 84  2  0
 88 87  1  0
 90 88  1  0
 90 91  1  0
 90 89  1  0
 92 95  1  1
 92 93  1  0
 94 92  1  0
M  ISO  4  12 100  13 100  54 101  55 101
M  END
>  <TORSDO>  (58) 
F 24

>  <SCORE>  (58) 
7.297

>  <name>  (58) 
58

>  <ligand_id>  (58) 
58

>  <original_smiles>  (58) 
[H]c1c([H])c([H])c2c(c1[H])C([H])([H])C([H])([H])C([H])([H])C2([H])N([H])C(=O)C1([H])N(C(=O)C([H])(N([H])C(=O)C([H])(N([H])C([H])([H])[H])C([H])([H])[H])C(C([H])([H])[H])(C([H])([H])[H])C([H])([H])[H])C([H])([H])c2c([H])c(OC([H])([H])C([H])([H])c3c(C([H])([H])[H])c(C([H])([H])C([H])([H])[H])c(C([H])([H])C([H])([H])C([H])([H])C([H])([H])[H])c(C([H])([H])C([H])([H])[H])c3C([H])([H])C(=O)N3C([H])([H])C([H])([H])C([H])([H])C([H])(n4nc(-c5c([H])c([H])c(Oc6c([H])c([H])c(F)c([H])c6F)c([H])c5[H])c(C(=O)N([H])[H])c4N([H])[H])C3([H])[H])c([H])c([H])c2C1([H])[H]

>  <smiles>  (58) 
[H]c1c([H])c([H])c2c(c1[H])C([H])([H])C([H])([H])C([H])([H])C2([H])N([H])C(=O)C1([H])N(C(=O)C([H])(N([H])C(=O)C([H])(N([H])C([H])([H])[H])C([H])([H])[H])C(C([H])([H])[H])(C([H])([H])[H])C([H])([H])[H])C([H])([H])c2c([H])c(OC([H])([H])C([H])([H])c3c(C([H])([H])[H])c(C([H])([H])C([H])([H])[H])c(C([H])([H])C([H])([H])C([H])([H])C([H])([H])[H])c(C([H])([H])C([H])([H])[H])c3C([H])([H])C(=O)N3C([H])([H])C([H])([H])C([H])([H])C([H])(n4nc(-c5c([H])c([H])c(Oc6c([H])c([H])c(F)c([H])c6F)c([H])c5[H])c(C(=O)N([H])[H])c4N([H])[H])C3([H])[H])c([H])c([H])c2C1([H])[H]

$$$$
59:0:0
     RDKit          3D

 94102  0  0  1  0  0  0  0  0999 V2000
  -29.1880  -24.4760   20.2240 C   0  0  0  0  0  3  0  0  0  0  0  0
  -29.6860  -23.5230   21.1530 C   0  0  0  0  0  0  0  0  0  0  0  0
  -29.4580  -25.2040   22.9270 C   0  0  0  0  0  0  0  0  0  0  0  0
  -28.8350  -25.7880   20.6270 C   0  0  0  0  0  0  0  0  0  0  0  0
  -29.7950  -23.8870   22.5160 C   0  0  0  0  0  0  0  0  0  0  0  0
  -28.9800  -26.1420   21.9860 C   0  0  0  0  0  0  0  0  0  0  0  0
  -29.6730  -25.6680   24.3610 C   0  0  0  0  0  1  0  0  0  0  0  0
  -28.7120  -27.4070   22.3930 F   0  0  0  0  0  0  0  0  0  0  0  0
  -29.4290  -22.5840   24.4550 C   0  0  0  0  0  1  0  0  0  0  0  0
  -30.3080  -22.9690   23.4020 O   0  0  0  0  0  0  0  0  0  0  0  0
  -28.4800  -26.7300   19.6770 O   0  0  0  0  0  0  0  0  0  0  0  0
  -24.6790  -31.7440   23.0640 C   0  0  0  0  0  0  0  0  0  0  0  0
  -27.2940  -27.4230   19.8020 C   0  0  0  0  0  0  0  0  0  0  0  0
  -23.4340  -30.3390   21.4530 C   0  0  0  0  0  3  0  0  0  0  0  0
  -24.8600  -28.8540   19.9430 C   0  0  0  0  0  0  0  0  0  0  0  0
  -25.9350  -30.7670   21.1440 C   0  0  0  0  0  2  0  0  0  0  0  0
  -26.0280  -29.4080   20.4830 C   0  0  0  0  0  0  0  0  0  0  0  0
  -27.2490  -28.7010   20.4040 C   0  0  0  0  0  3  0  0  0  0  0  0
  -26.1140  -26.8790   19.2600 C   0  0  0  0  0  3  0  0  0  0  0  0
  -24.8960  -27.5880   19.3290 C   0  0  0  0  0  3  0  0  0  0  0  0
  -23.5970  -29.6790   20.0560 C   0  0  0  0  0  2  0  0  0  0  0  0
  -24.7040  -30.9640   21.9450 N   0  0  0  0  0  0  0  0  0  0  0  0
  -23.6180  -31.9820   23.6570 O   0  0  0  0  0  0  0  0  0  0  0  0
  -22.8490  -29.2900   22.4260 C   0  0  0  0  0  0  0  0  0  0  0  0
  -21.5380  -29.0250   22.3030 N   0  0  0  0  0  0  0  0  0  0  0  0
  -23.5730  -28.7150   23.2430 O   0  0  0  0  0  0  0  0  0  0  0  0
  -21.0140  -29.5440   21.6120 H   0  0  0  0  0  0  0  0  0  0  0  0
  -18.2750  -27.5340   22.7270 C   0  0  0  0  0  0  0  0  0  0  0  0
  -20.7840  -28.0450   23.0830 C   0  0  0  0  0  3  0  0  0  0  0  0
  -21.0420  -26.6090   22.5710 C   0  0  0  0  0  2  0  0  0  0  0  0
  -20.0180  -26.1460   21.5300 C   0  0  0  0  0  2  0  0  0  0  0  0
  -18.6040  -26.1820   22.1170 C   0  0  0  0  0  2  0  0  0  0  0  0
  -19.2990  -28.4150   23.1660 C   0  0  0  0  0  0  0  0  0  0  0  0
  -18.9390  -29.6750   23.6930 C   0  0  0  0  0  3  0  0  0  0  0  0
  -17.5880  -30.0560   23.7860 C   0  0  0  0  0  3  0  0  0  0  0  0
  -16.5770  -29.1740   23.3640 C   0  0  0  0  0  3  0  0  0  0  0  0
  -16.9220  -27.9150   22.8420 C   0  0  0  0  0  3  0  0  0  0  0  0
  -25.9780  -32.3940   23.6360 C   0  0  0  0  0  3  0  0  0  0  0  0
  -25.6440  -33.7680   24.0370 N   0  0  0  0  0  0  0  0  0  0  0  0
  -25.9390  -34.8610   23.3200 C   0  0  0  0  0  0  0  0  0  0  0  0
  -26.5910  -34.8200   22.2730 O   0  0  0  0  0  0  0  0  0  0  0  0
  -25.0580  -33.8720   24.8520 H   0  0  0  0  0  0  0  0  0  0  0  0
  -24.1670  -36.6290   23.0690 C   0  0  0  0  0  1  0  0  0  0  0  0
  -25.4270  -36.2160   23.8460 C   0  0  0  0  0  3  0  0  0  0  0  0
  -27.5550  -37.1040   24.6930 C   0  0  0  0  0  1  0  0  0  0  0  0
  -26.4370  -37.2950   23.7710 N   0  0  0  0  0  0  0  0  0  0  0  0
  -26.0150  -38.1980   23.9680 H   0  0  0  0  0  0  0  0  0  0  0  0
  -26.5900  -31.5920   24.8490 C   0  0  1  0  0  0  0  0  0  0  0  0
  -25.5700  -31.2770   25.9670 C   0  0  0  0  0  1  0  0  0  0  0  0
  -27.1900  -30.2500   24.3680 C   0  0  0  0  0  1  0  0  0  0  0  0
  -27.7550  -32.3970   25.4750 C   0  0  0  0  0  1  0  0  0  0  0  0
  -30.2490  -22.1790   20.6570 C   0  0  0  0  0  2  0  0  0  0  0  0
  -29.5310  -20.8680   21.0950 C   0  0  0  0  0  2  0  0  0  0  0  0
  -30.4050  -19.6140   20.8160 C   0  0  0  0  0  2  0  0  0  0  0  0
  -29.7940  -18.2250   21.1550 C   0  0  0  0  0  2  0  0  0  0  0  0
  -30.8300  -17.0860   20.9470 C   0  0  0  0  0  2  0  0  0  0  0  0
  -30.9780  -14.6400   20.5470 C   0  0  0  0  0  0  0  0  0  0  0  0
  -30.6640  -12.4800   19.4090 C   0  0  0  0  0  2  0  0  0  0  0  0
  -29.7570  -12.6900   18.1800 C   0  0  0  0  0  2  0  0  0  0  0  0
  -28.2720  -12.5750   18.5760 C   0  0  0  0  0  2  0  0  0  0  0  0
  -27.9150  -13.4220   19.8280 C   0  0  0  0  0  3  0  0  0  0  0  0
  -28.9420  -13.2070   20.9620 C   0  0  0  0  0  2  0  0  0  0  0  0
  -30.2810  -13.4800   20.4180 N   0  0  0  0  0  0  0  0  0  0  0  0
  -32.1270  -14.7760   20.1160 O   0  0  0  0  0  0  0  0  0  0  0  0
  -30.2970  -15.7110   21.0110 N   0  0  0  0  0  0  0  0  0  0  0  0
  -29.3510  -15.5690   21.3290 H   0  0  0  0  0  0  0  0  0  0  0  0
  -25.5060  -14.0530   20.4760 C   0  0  0  0  0  0  0  0  0  0  0  0
  -24.4240  -13.2930   20.8270 C   0  0  0  0  0  0  0  0  0  0  0  0
  -24.8740  -11.9360   20.8200 C   0  0  0  0  0  0  0  0  0  0  0  0
  -26.5500  -13.1610   20.2780 N   0  0  0  0  0  0  0  0  0  0  0  0
  -26.1710  -11.8840   20.5430 N   0  0  0  0  0  0  0  0  0  0  0  0
  -24.1340  -10.6820   21.0040 C   0  0  0  0  0  0  0  0  0  0  0  0
  -24.5280   -9.7240   21.9630 C   0  0  0  0  0  3  0  0  0  0  0  0
  -23.7880   -8.5340   22.1330 C   0  0  0  0  0  3  0  0  0  0  0  0
  -22.6380   -8.2940   21.3430 C   0  0  0  0  0  0  0  0  0  0  0  0
  -22.2630   -9.2400   20.3750 C   0  0  0  0  0  3  0  0  0  0  0  0
  -23.0040  -10.4210   20.2030 C   0  0  0  0  0  3  0  0  0  0  0  0
  -21.8740   -7.1560   21.4220 O   0  0  0  0  0  0  0  0  0  0  0  0
  -21.7730   -6.4340   22.5860 C   0  0  0  0  0  0  0  0  0  0  0  0
  -21.3030   -7.0160   23.7830 C   0  0  0  0  0  3  0  0  0  0  0  0
  -21.1490   -6.2220   24.9370 C   0  0  0  0  0  3  0  0  0  0  0  0
  -21.4540   -4.8480   24.8950 C   0  0  0  0  0  0  0  0  0  0  0  0
  -21.9170   -4.2660   23.7010 C   0  0  0  0  0  3  0  0  0  0  0  0
  -22.0720   -5.0580   22.5480 C   0  0  0  0  0  0  0  0  0  0  0  0
  -22.4980   -4.4880   21.3950 F   0  0  0  0  0  0  0  0  0  0  0  0
  -21.2990   -4.0830   26.0000 F   0  0  0  0  0  0  0  0  0  0  0  0
  -23.0240  -13.7840   21.0610 C   0  0  0  0  0  0  0  0  0  0  0  0
  -22.2710  -13.1030   21.9190 N   0  0  0  0  0  0  0  0  0  0  0  0
  -22.6070  -14.8060   20.5180 O   0  0  0  0  0  0  0  0  0  0  0  0
  -22.6210  -12.2770   22.3800 H   0  0  0  0  0  0  0  0  0  0  0  0
  -21.3300  -13.4140   22.1170 H   0  0  0  0  0  0  0  0  0  0  0  0
  -25.6890  -15.4210   20.2890 N   0  0  0  0  0  0  0  0  0  0  0  0
  -24.9270  -16.0840   20.3720 H   0  0  0  0  0  0  0  0  0  0  0  0
  -26.5500  -15.8460   19.9670 H   0  0  0  0  0  0  0  0  0  0  0  0
  1  4  2  0
  1  2  1  0
  2  5  2  0
  3  7  1  0
  4  6  1  0
  5  3  1  0
  5 10  1  0
  6  8  1  0
  6  3  2  0
 10  9  1  0
 11 13  1  0
 11  4  1  0
 12 23  2  0
 13 18  1  0
 14 22  1  0
 14 24  1  0
 15 21  1  0
 15 17  1  0
 16 22  1  0
 17 16  1  0
 18 17  2  0
 19 20  1  0
 19 13  2  0
 20 15  2  0
 21 14  1  0
 22 12  1  0
 24 26  2  0
 25 24  1  0
 27 25  1  0
 28 37  2  0
 28 33  1  0
 29 25  1  0
 29 33  1  0
 30 29  1  0
 31 32  1  0
 31 30  1  0
 32 28  1  0
 33 34  2  0
 34 35  1  0
 36 35  2  0
 37 36  1  0
 38 12  1  0
 38 39  1  0
 38 48  1  0
 39 42  1  0
 40 44  1  0
 40 39  1  0
 41 40  2  0
 44 43  1  0
 46 44  1  0
 46 47  1  0
 46 45  1  0
 48 51  1  1
 48 49  1  0
 50 48  1  0
 52 53  1  0
 52  2  1  0
 54 53  1  0
 54 55  1  0
 56 65  1  0
 56 55  1  0
 57 65  1  0
 58 63  1  0
 59 60  1  0
 59 58  1  0
 61 60  1  0
 61 70  1  0
 61 62  1  0
 63 57  1  0
 63 62  1  0
 64 57  2  0
 65 66  1  0
 67 68  2  0
 68 87  1  0
 69 68  1  0
 69 72  1  0
 70 67  1  0
 70 71  1  0
 71 69  2  0
 72 73  1  0
 73 74  2  0
 75 78  1  0
 75 74  1  0
 76 75  2  0
 77 76  1  0
 77 72  2  0
 78 79  1  0
 79 80  1  0
 80 81  2  0
 82 81  1  0
 82 86  1  0
 83 82  2  0
 84 79  2  0
 84 83  1  0
 85 84  1  0
 87 88  1  0
 88 91  1  0
 88 90  1  0
 89 87  2  0
 92 93  1  0
 92 67  1  0
 94 92  1  0
M  ISO  4   4 101  11 101  57 100  65 100
M  END
>  <TORSDO>  (59) 
F 22

>  <SCORE>  (59) 
-11.723

>  <name>  (59) 
59

>  <ligand_id>  (59) 
59

>  <original_smiles>  (59) 
[H]c1c([H])c([H])c2c(c1[H])C([H])([H])C([H])([H])C([H])([H])C2([H])N([H])C(=O)C1([H])N(C(=O)C([H])(N([H])C(=O)C([H])(N([H])C([H])([H])[H])C([H])([H])[H])C(C([H])([H])[H])(C([H])([H])[H])C([H])([H])[H])C([H])([H])c2c([H])c(Oc3c([H])c(C([H])([H])C([H])([H])C([H])([H])C([H])([H])C([H])([H])N([H])C(=O)N4C([H])([H])C([H])([H])C([H])([H])C([H])(n5nc(-c6c([H])c([H])c(Oc7c([H])c([H])c(F)c([H])c7F)c([H])c6[H])c(C(=O)N([H])[H])c5N([H])[H])C4([H])[H])c(OC([H])([H])[H])c(C([H])([H])[H])c3F)c([H])c([H])c2C1([H])[H]

>  <smiles>  (59) 
[H]c1c([H])c([H])c2c(c1[H])C([H])([H])C([H])([H])C([H])([H])C2([H])N([H])C(=O)C1([H])N(C(=O)C([H])(N([H])C(=O)C([H])(N([H])C([H])([H])[H])C([H])([H])[H])C(C([H])([H])[H])(C([H])([H])[H])C([H])([H])[H])C([H])([H])c2c([H])c(Oc3c([H])c(C([H])([H])C([H])([H])C([H])([H])C([H])([H])C([H])([H])N([H])C(=O)N4C([H])([H])C([H])([H])C([H])([H])C([H])(n5nc(-c6c([H])c([H])c(Oc7c([H])c([H])c(F)c([H])c7F)c([H])c6[H])c(C(=O)N([H])[H])c5N([H])[H])C4([H])[H])c(OC([H])([H])[H])c(C([H])([H])[H])c3F)c([H])c([H])c2C1([H])[H]

$$$$
60:0:0
     RDKit          3D

 90 98  0  0  1  0  0  0  0  0999 V2000
  -30.0330  -16.9630   20.1050 C   0  0  0  0  0  0  0  0  0  0  0  0
  -29.6100  -17.1670   18.7500 C   0  0  0  0  0  0  0  0  0  0  0  0
  -29.9390  -18.3140   20.8540 C   0  0  0  0  0  0  0  0  0  0  0  0
  -28.9300  -18.3420   18.2910 C   0  0  0  0  0  0  0  0  0  0  0  0
  -28.7990  -19.5360   19.0690 C   0  0  0  0  0  0  0  0  0  0  0  0
  -29.3790  -19.6720   20.3610 C   0  0  0  0  0  0  0  0  0  0  0  0
  -29.9760  -16.1430   17.6760 C   0  0  0  0  0  1  0  0  0  0  0  0
  -30.4540  -18.3220   22.2800 C   0  0  0  0  0  1  0  0  0  0  0  0
  -28.3010  -18.3420   16.8850 C   0  0  0  0  0  1  0  0  0  0  0  0
  -28.0090  -20.7130   18.4910 C   0  0  0  0  0  1  0  0  0  0  0  0
  -30.7260  -15.4560   20.4650 C   0  0  0  0  0  0  0  0  0  0  0  0
  -30.7110  -13.0140   19.5730 C   0  0  0  0  0  2  0  0  0  0  0  0
  -29.8200  -12.7360   18.3330 C   0  0  0  0  0  2  0  0  0  0  0  0
  -28.3400  -12.5560   18.7160 C   0  0  0  0  0  2  0  0  0  0  0  0
  -27.8650  -13.5250   19.8280 C   0  0  0  0  0  3  0  0  0  0  0  0
  -28.8880  -13.6690   20.9700 C   0  0  0  0  0  2  0  0  0  0  0  0
  -30.1370  -14.1610   20.3660 N   0  0  0  0  0  0  0  0  0  0  0  0
  -31.9640  -15.3950   20.4570 O   0  0  0  0  0  0  0  0  0  0  0  0
  -25.4750  -14.0680   20.5350 C   0  0  0  0  0  0  0  0  0  0  0  0
  -24.4060  -13.2820   20.8630 C   0  0  0  0  0  0  0  0  0  0  0  0
  -24.8810  -11.9340   20.8380 C   0  0  0  0  0  0  0  0  0  0  0  0
  -26.5290  -13.2010   20.3120 N   0  0  0  0  0  0  0  0  0  0  0  0
  -26.1820  -11.9120   20.5700 N   0  0  0  0  0  0  0  0  0  0  0  0
  -24.1550  -10.6650   20.9890 C   0  0  0  0  0  0  0  0  0  0  0  0
  -24.5530   -9.6920   21.9310 C   0  0  0  0  0  3  0  0  0  0  0  0
  -23.8250   -8.4910   22.0750 C   0  0  0  0  0  3  0  0  0  0  0  0
  -22.6830   -8.2550   21.2720 C   0  0  0  0  0  0  0  0  0  0  0  0
  -22.3040   -9.2160   20.3190 C   0  0  0  0  0  3  0  0  0  0  0  0
  -23.0340  -10.4080   20.1750 C   0  0  0  0  0  3  0  0  0  0  0  0
  -21.9270   -7.1100   21.3250 O   0  0  0  0  0  0  0  0  0  0  0  0
  -21.8360   -6.3610   22.4680 C   0  0  0  0  0  0  0  0  0  0  0  0
  -21.3380   -6.9010   23.6760 C   0  0  0  0  0  3  0  0  0  0  0  0
  -21.1920   -6.0740   24.8080 C   0  0  0  0  0  3  0  0  0  0  0  0
  -21.5340   -4.7110   24.7340 C   0  0  0  0  0  0  0  0  0  0  0  0
  -22.0270   -4.1720   23.5330 C   0  0  0  0  0  3  0  0  0  0  0  0
  -22.1740   -4.9930   22.4040 C   0  0  0  0  0  0  0  0  0  0  0  0
  -22.6280   -4.4630   21.2410 F   0  0  0  0  0  0  0  0  0  0  0  0
  -21.3900   -3.9160   25.8210 F   0  0  0  0  0  0  0  0  0  0  0  0
  -22.9990  -13.7510   21.0830 C   0  0  0  0  0  0  0  0  0  0  0  0
  -22.2510  -13.0710   21.9430 N   0  0  0  0  0  0  0  0  0  0  0  0
  -22.5670  -14.7620   20.5280 O   0  0  0  0  0  0  0  0  0  0  0  0
  -22.6140  -12.2590   22.4220 H   0  0  0  0  0  0  0  0  0  0  0  0
  -21.3040  -13.3710   22.1240 H   0  0  0  0  0  0  0  0  0  0  0  0
  -25.6290  -15.4420   20.3810 N   0  0  0  0  0  0  0  0  0  0  0  0
  -24.8490  -16.0790   20.5040 H   0  0  0  0  0  0  0  0  0  0  0  0
  -26.4830  -15.9080   20.0950 H   0  0  0  0  0  0  0  0  0  0  0  0
  -29.1720  -21.2270   21.1420 C   0  0  0  0  0  2  0  0  0  0  0  0
  -29.2660  -22.9550   20.6210 C   0  0  0  0  0  3  0  0  0  0  0  0
  -28.4300  -24.4600   21.1280 C   0  0  0  0  0  3  0  0  0  0  0  0
  -28.6250  -26.0700   20.8700 O   0  0  0  0  0  0  0  0  0  0  0  0
  -24.7600  -32.0670   23.3480 C   0  0  0  0  0  0  0  0  0  0  0  0
  -27.5740  -27.1140   20.7540 C   0  0  0  0  0  0  0  0  0  0  0  0
  -23.6890  -30.5730   21.7110 C   0  0  0  0  0  3  0  0  0  0  0  0
  -25.2470  -28.9260   20.4690 C   0  0  0  0  0  0  0  0  0  0  0  0
  -26.2550  -30.8300   21.7100 C   0  0  0  0  0  2  0  0  0  0  0  0
  -26.3880  -29.3920   21.1340 C   0  0  0  0  0  0  0  0  0  0  0  0
  -27.5510  -28.5080   21.2470 C   0  0  0  0  0  3  0  0  0  0  0  0
  -26.4010  -26.7870   20.0410 C   0  0  0  0  0  3  0  0  0  0  0  0
  -25.2770  -27.6400   19.9030 C   0  0  0  0  0  3  0  0  0  0  0  0
  -24.0120  -29.8240   20.3890 C   0  0  0  0  0  2  0  0  0  0  0  0
  -24.9180  -31.1870   22.3080 N   0  0  0  0  0  0  0  0  0  0  0  0
  -23.6370  -32.3610   23.7890 O   0  0  0  0  0  0  0  0  0  0  0  0
  -22.9530  -29.6120   22.6820 C   0  0  0  0  0  0  0  0  0  0  0  0
  -21.6340  -29.4260   22.4900 N   0  0  0  0  0  0  0  0  0  0  0  0
  -23.5790  -29.0310   23.5720 O   0  0  0  0  0  0  0  0  0  0  0  0
  -21.1850  -29.9430   21.7460 H   0  0  0  0  0  0  0  0  0  0  0  0
  -18.2280  -28.2540   22.9080 C   0  0  0  0  0  0  0  0  0  0  0  0
  -20.7770  -28.5170   23.2580 C   0  0  0  0  0  3  0  0  0  0  0  0
  -20.8920  -27.0680   22.7280 C   0  0  0  0  0  2  0  0  0  0  0  0
  -19.8270  -26.7210   21.6840 C   0  0  0  0  0  2  0  0  0  0  0  0
  -18.4230  -26.8880   22.2720 C   0  0  0  0  0  2  0  0  0  0  0  0
  -19.3330  -29.0260   23.3540 C   0  0  0  0  0  0  0  0  0  0  0  0
  -19.0970  -30.3040   23.9080 C   0  0  0  0  0  3  0  0  0  0  0  0
  -17.7880  -30.8090   24.0180 C   0  0  0  0  0  3  0  0  0  0  0  0
  -16.6980  -30.0370   23.5850 C   0  0  0  0  0  3  0  0  0  0  0  0
  -16.9170  -28.7610   23.0370 C   0  0  0  0  0  3  0  0  0  0  0  0
  -25.9830  -32.7600   24.0230 C   0  0  0  0  0  3  0  0  0  0  0  0
  -26.4260  -32.0600   25.3670 C   0  0  1  0  0  0  0  0  0  0  0  0
  -25.2570  -31.7960   26.3460 C   0  0  0  0  0  1  0  0  0  0  0  0
  -27.1150  -30.7050   25.0870 C   0  0  0  0  0  1  0  0  0  0  0  0
  -27.4650  -32.9410   26.0990 C   0  0  0  0  0  1  0  0  0  0  0  0
  -25.6210  -34.1650   24.2790 N   0  0  0  0  0  0  0  0  0  0  0  0
  -25.9690  -35.2000   23.5060 C   0  0  0  0  0  0  0  0  0  0  0  0
  -26.6920  -35.0760   22.5140 O   0  0  0  0  0  0  0  0  0  0  0  0
  -24.9830  -34.3320   25.0430 H   0  0  0  0  0  0  0  0  0  0  0  0
  -24.2150  -36.9420   23.0210 C   0  0  0  0  0  1  0  0  0  0  0  0
  -25.4340  -36.5950   23.8910 C   0  0  0  0  0  3  0  0  0  0  0  0
  -27.5110  -37.5710   24.7650 C   0  0  0  0  0  1  0  0  0  0  0  0
  -26.4450  -37.6690   23.7730 N   0  0  0  0  0  0  0  0  0  0  0  0
  -26.0080  -38.5830   23.8650 H   0  0  0  0  0  0  0  0  0  0  0  0
  1 11  1  0
  1  3  1  0
  2  1  2  0
  3  8  1  0
  4  2  1  0
  4  5  2  0
  5  6  1  0
  6  3  2  0
  6 47  1  0
  7  2  1  0
  9  4  1  0
 10  5  1  0
 12 17  1  0
 13 14  1  0
 13 12  1  0
 15 14  1  0
 15 22  1  0
 15 16  1  0
 17 11  1  0
 17 16  1  0
 18 11  2  0
 19 20  2  0
 20 39  1  0
 21 20  1  0
 21 24  1  0
 22 19  1  0
 22 23  1  0
 23 21  2  0
 24 25  1  0
 25 26  2  0
 27 30  1  0
 27 26  1  0
 28 27  2  0
 29 28  1  0
 29 24  2  0
 30 31  1  0
 31 32  1  0
 32 33  2  0
 34 33  1  0
 34 38  1  0
 35 34  2  0
 36 31  2  0
 36 35  1  0
 37 36  1  0
 39 40  1  0
 40 43  1  0
 40 42  1  0
 41 39  2  0
 44 45  1  0
 44 19  1  0
 46 44  1  0
 48 49  2  0
 48 47  1  0
 50 49  1  0
 51 62  2  0
 52 50  1  0
 52 57  1  0
 53 61  1  0
 53 63  1  0
 54 56  1  0
 55 61  1  0
 56 57  2  0
 56 55  1  0
 58 52  2  0
 59 58  1  0
 59 54  2  0
 60 54  1  0
 60 53  1  0
 61 51  1  0
 63 65  2  0
 64 63  1  0
 66 64  1  0
 67 76  2  0
 67 72  1  0
 68 64  1  0
 68 72  1  0
 69 68  1  0
 70 71  1  0
 70 69  1  0
 71 67  1  0
 72 73  2  0
 73 74  1  0
 75 74  2  0
 76 75  1  0
 77 51  1  0
 77 82  1  0
 77 78  1  0
 78 81  1  1
 78 79  1  0
 80 78  1  0
 82 85  1  0
 83 87  1  0
 83 82  1  0
 84 83  2  0
 87 86  1  0
 89 90  1  0
 89 87  1  0
 89 88  1  0
M  ISO  4   1 100  11 100  49 101  50 101
M  END
>  <TORSDO>  (60) 
F 19

>  <SCORE>  (60) 
-14.129

>  <name>  (60) 
60

>  <ligand_id>  (60) 
60

>  <original_smiles>  (60) 
[H]c1c([H])c([H])c2c(c1[H])C([H])([H])C([H])([H])C([H])([H])C2([H])N([H])C(=O)C1([H])N(C(=O)C([H])(N([H])C(=O)C([H])(N([H])C([H])([H])[H])C([H])([H])[H])C(C([H])([H])[H])(C([H])([H])[H])C([H])([H])[H])C([H])([H])c2c([H])c(OC([H])([H])C([H])([H])C([H])([H])c3c(C([H])([H])[H])c(C(=O)N4C([H])([H])C([H])([H])C([H])([H])C([H])(n5nc(-c6c([H])c([H])c(Oc7c([H])c([H])c(F)c([H])c7F)c([H])c6[H])c(C(=O)N([H])[H])c5N([H])[H])C4([H])[H])c(C([H])([H])[H])c(C([H])([H])[H])c3C([H])([H])[H])c([H])c([H])c2C1([H])[H]

>  <smiles>  (60) 
[H]c1c([H])c([H])c2c(c1[H])C([H])([H])C([H])([H])C([H])([H])C2([H])N([H])C(=O)C1([H])N(C(=O)C([H])(N([H])C(=O)C([H])(N([H])C([H])([H])[H])C([H])([H])[H])C(C([H])([H])[H])(C([H])([H])[H])C([H])([H])[H])C([H])([H])c2c([H])c(OC([H])([H])C([H])([H])C([H])([H])c3c(C([H])([H])[H])c(C(=O)N4C([H])([H])C([H])([H])C([H])([H])C([H])(n5nc(-c6c([H])c([H])c(Oc7c([H])c([H])c(F)c([H])c7F)c([H])c6[H])c(C(=O)N([H])[H])c5N([H])[H])C4([H])[H])c(C([H])([H])[H])c(C([H])([H])[H])c3C([H])([H])[H])c([H])c([H])c2C1([H])[H]

$$$$
61:0:0
     RDKit          3D

 94102  0  0  1  0  0  0  0  0999 V2000
  -29.6380  -19.7660   20.5560 C   0  0  0  0  0  3  0  0  0  0  0  0
  -31.9750  -20.2770   19.1360 C   0  0  0  0  0  3  0  0  0  0  0  0
  -30.4950  -18.6380   20.2250 C   0  0  0  0  0  0  0  0  0  0  0  0
  -29.9280  -21.1490   20.1920 C   0  0  0  0  0  0  0  0  0  0  0  0
  -31.6620  -18.9480   19.4750 C   0  0  0  0  0  0  0  0  0  0  0  0
  -31.1690  -21.3600   19.5290 C   0  0  0  0  0  0  0  0  0  0  0  0
  -32.6980  -17.8850   19.1060 C   0  0  0  0  0  1  0  0  0  0  0  0
  -31.6880  -22.6240   19.2680 N   0  0  0  0  0  0  0  0  0  0  0  0
  -32.6920  -22.6970   19.1450 H   0  0  0  0  0  0  0  0  0  0  0  0
  -31.3290  -23.3860   19.8350 H   0  0  0  0  0  0  0  0  0  0  0  0
  -30.0650  -16.0340   20.1380 C   0  0  0  0  0  2  0  0  0  0  0  0
  -30.4770  -17.1970   20.7660 C   0  0  0  0  0  3  0  0  0  0  0  0
  -30.6890  -14.6880   20.3660 C   0  0  0  0  0  0  0  0  0  0  0  0
  -30.3370  -12.4480   19.3530 C   0  0  0  0  0  2  0  0  0  0  0  0
  -29.4250  -12.5800   18.1180 C   0  0  0  0  0  2  0  0  0  0  0  0
  -27.9570  -12.4090   18.5460 C   0  0  0  0  0  2  0  0  0  0  0  0
  -27.5780  -13.3060   19.7560 C   0  0  0  0  0  3  0  0  0  0  0  0
  -28.6350  -13.2660   20.8770 C   0  0  0  0  0  2  0  0  0  0  0  0
  -29.9460  -13.5350   20.2770 N   0  0  0  0  0  0  0  0  0  0  0  0
  -31.9070  -14.6150   20.2150 O   0  0  0  0  0  0  0  0  0  0  0  0
  -25.1910  -13.8850   20.4870 C   0  0  0  0  0  0  0  0  0  0  0  0
  -24.1270  -13.1080   20.8510 C   0  0  0  0  0  0  0  0  0  0  0  0
  -24.5920  -11.7580   20.8280 C   0  0  0  0  0  0  0  0  0  0  0  0
  -26.2390  -13.0080   20.2550 N   0  0  0  0  0  0  0  0  0  0  0  0
  -25.8860  -11.7230   20.5260 N   0  0  0  0  0  0  0  0  0  0  0  0
  -23.8670  -10.4930   21.0210 C   0  0  0  0  0  0  0  0  0  0  0  0
  -24.2880   -9.5330   21.9660 C   0  0  0  0  0  3  0  0  0  0  0  0
  -23.5660   -8.3330   22.1440 C   0  0  0  0  0  3  0  0  0  0  0  0
  -22.4030   -8.0880   21.3760 C   0  0  0  0  0  0  0  0  0  0  0  0
  -21.9970   -9.0370   20.4210 C   0  0  0  0  0  3  0  0  0  0  0  0
  -22.7210  -10.2270   20.2420 C   0  0  0  0  0  3  0  0  0  0  0  0
  -21.6490   -6.9430   21.4620 O   0  0  0  0  0  0  0  0  0  0  0  0
  -21.5810   -6.2120   22.6200 C   0  0  0  0  0  0  0  0  0  0  0  0
  -21.1290   -6.7770   23.8320 C   0  0  0  0  0  3  0  0  0  0  0  0
  -21.0140   -5.9720   24.9840 C   0  0  0  0  0  3  0  0  0  0  0  0
  -21.3320   -4.6020   24.9210 C   0  0  0  0  0  0  0  0  0  0  0  0
  -21.7740   -4.0360   23.7120 C   0  0  0  0  0  3  0  0  0  0  0  0
  -21.8940   -4.8400   22.5650 C   0  0  0  0  0  0  0  0  0  0  0  0
  -22.3050   -4.2860   21.3990 F   0  0  0  0  0  0  0  0  0  0  0  0
  -21.2110   -3.8270   26.0230 F   0  0  0  0  0  0  0  0  0  0  0  0
  -22.7250  -13.5860   21.1090 C   0  0  0  0  0  0  0  0  0  0  0  0
  -21.9860  -12.8900   21.9670 N   0  0  0  0  0  0  0  0  0  0  0  0
  -22.2940  -14.6110   20.5850 O   0  0  0  0  0  0  0  0  0  0  0  0
  -22.3450  -12.0620   22.4200 H   0  0  0  0  0  0  0  0  0  0  0  0
  -21.0480  -13.1970   22.1810 H   0  0  0  0  0  0  0  0  0  0  0  0
  -25.3560  -15.2540   20.3090 N   0  0  0  0  0  0  0  0  0  0  0  0
  -24.5930  -15.9120   20.4300 H   0  0  0  0  0  0  0  0  0  0  0  0
  -26.2140  -15.6960   20.0060 H   0  0  0  0  0  0  0  0  0  0  0  0
  -31.1590  -17.1300   21.9200 O   0  0  0  0  0  0  0  0  0  0  0  0
  -31.5170  -17.9920   22.0920 H   0  0  0  0  0  0  0  0  0  0  0  0
  -28.9000  -22.3440   20.4770 C   0  0  0  0  0  2  0  0  0  0  0  0
  -29.2500  -23.9180   20.3000 C   0  0  0  0  0  3  0  0  0  0  0  0
  -28.0690  -24.9910   20.3360 C   0  0  0  0  0  3  0  0  0  0  0  0
  -28.3200  -26.4590   20.2300 O   0  0  0  0  0  0  0  0  0  0  0  0
  -24.6080  -31.9060   23.2430 C   0  0  0  0  0  0  0  0  0  0  0  0
  -27.2030  -27.3200   20.1930 C   0  0  0  0  0  0  0  0  0  0  0  0
  -23.4010  -30.5110   21.6060 C   0  0  0  0  0  3  0  0  0  0  0  0
  -24.8450  -28.9550   20.1840 C   0  0  0  0  0  0  0  0  0  0  0  0
  -25.9440  -30.8140   21.4260 C   0  0  0  0  0  2  0  0  0  0  0  0
  -26.0170  -29.4330   20.7810 C   0  0  0  0  0  0  0  0  0  0  0  0
  -27.2020  -28.6300   20.7670 C   0  0  0  0  0  3  0  0  0  0  0  0
  -26.0000  -26.9040   19.5700 C   0  0  0  0  0  3  0  0  0  0  0  0
  -24.8400  -27.6990   19.5630 C   0  0  0  0  0  3  0  0  0  0  0  0
  -23.6140  -29.8380   20.2250 C   0  0  0  0  0  2  0  0  0  0  0  0
  -24.6700  -31.0940   22.1500 N   0  0  0  0  0  0  0  0  0  0  0  0
  -23.5260  -32.1880   23.7780 O   0  0  0  0  0  0  0  0  0  0  0  0
  -22.7330  -29.4960   22.5660 C   0  0  0  0  0  0  0  0  0  0  0  0
  -21.4050  -29.3280   22.4410 N   0  0  0  0  0  0  0  0  0  0  0  0
  -23.4080  -28.8660   23.3840 O   0  0  0  0  0  0  0  0  0  0  0  0
  -20.9200  -29.8830   21.7500 H   0  0  0  0  0  0  0  0  0  0  0  0
  -18.0210  -28.1610   22.9610 C   0  0  0  0  0  0  0  0  0  0  0  0
  -20.5830  -28.3990   23.2160 C   0  0  0  0  0  3  0  0  0  0  0  0
  -20.6690  -26.9660   22.6410 C   0  0  0  0  0  2  0  0  0  0  0  0
  -19.5610  -26.6520   21.6320 C   0  0  0  0  0  2  0  0  0  0  0  0
  -18.1830  -26.8100   22.2830 C   0  0  0  0  0  2  0  0  0  0  0  0
  -19.1480  -28.9140   23.3850 C   0  0  0  0  0  0  0  0  0  0  0  0
  -18.9440  -30.1750   23.9840 C   0  0  0  0  0  3  0  0  0  0  0  0
  -17.6440  -30.6910   24.1550 C   0  0  0  0  0  3  0  0  0  0  0  0
  -16.5310  -29.9360   23.7450 C   0  0  0  0  0  3  0  0  0  0  0  0
  -16.7200  -28.6710   23.1590 C   0  0  0  0  0  3  0  0  0  0  0  0
  -25.8930  -32.5380   23.8610 C   0  0  0  0  0  3  0  0  0  0  0  0
  -25.5890  -33.9380   24.1910 N   0  0  0  0  0  0  0  0  0  0  0  0
  -25.9200  -34.9880   23.4290 C   0  0  0  0  0  0  0  0  0  0  0  0
  -26.5820  -34.8820   22.3930 O   0  0  0  0  0  0  0  0  0  0  0  0
  -25.0070  -34.0960   25.0020 H   0  0  0  0  0  0  0  0  0  0  0  0
  -24.1960  -36.7870   23.0810 C   0  0  0  0  0  1  0  0  0  0  0  0
  -25.4400  -36.3790   23.8860 C   0  0  0  0  0  3  0  0  0  0  0  0
  -27.5820  -37.2590   24.7060 C   0  0  0  0  0  1  0  0  0  0  0  0
  -26.4750  -37.4280   23.7680 N   0  0  0  0  0  0  0  0  0  0  0  0
  -26.0710  -38.3490   23.9240 H   0  0  0  0  0  0  0  0  0  0  0  0
  -26.4130  -31.7670   25.1380 C   0  0  1  0  0  0  0  0  0  0  0  0
  -25.3220  -31.5280   26.2070 C   0  0  0  0  0  1  0  0  0  0  0  0
  -26.9910  -30.3880   24.7440 C   0  0  0  0  0  1  0  0  0  0  0  0
  -27.5690  -32.5580   25.7970 C   0  0  0  0  0  1  0  0  0  0  0  0
  2  5  1  0
  2  6  2  0
  3  1  1  0
  3 12  1  0
  4 51  1  0
  4  1  2  0
  5  3  2  0
  6  4  1  0
  7  5  1  0
  8  6  1  0
  8 10  1  0
  9  8  1  0
 11 13  1  0
 12 11  1  0
 12 49  1  0
 14 19  1  0
 15 16  1  0
 15 14  1  0
 17 16  1  0
 17 24  1  0
 17 18  1  0
 19 13  1  0
 19 18  1  0
 20 13  2  0
 21 22  2  0
 22 41  1  0
 23 22  1  0
 23 26  1  0
 24 21  1  0
 24 25  1  0
 25 23  2  0
 26 27  1  0
 27 28  2  0
 29 32  1  0
 29 28  1  0
 30 29  2  0
 31 30  1  0
 31 26  2  0
 32 33  1  0
 33 34  1  0
 34 35  2  0
 36 35  1  0
 36 40  1  0
 37 36  2  0
 38 33  2  0
 38 37  1  0
 39 38  1  0
 41 42  1  0
 42 45  1  0
 42 44  1  0
 43 41  2  0
 46 47  1  0
 46 21  1  0
 48 46  1  0
 49 50  1  0
 52 53  2  0
 52 51  1  0
 54 53  1  0
 55 66  2  0
 56 54  1  0
 56 61  1  0
 57 65  1  0
 57 67  1  0
 58 64  1  0
 58 60  1  0
 59 65  1  0
 60 59  1  0
 61 60  2  0
 62 56  2  0
 63 62  1  0
 63 58  2  0
 64 57  1  0
 65 55  1  0
 67 69  2  0
 68 67  1  0
 70 68  1  0
 71 80  2  0
 71 76  1  0
 72 68  1  0
 72 76  1  0
 73 72  1  0
 74 75  1  0
 74 73  1  0
 75 71  1  0
 76 77  2  0
 77 78  1  0
 79 78  2  0
 80 79  1  0
 81 55  1  0
 81 82  1  0
 81 91  1  0
 82 85  1  0
 83 87  1  0
 83 82  1  0
 84 83  2  0
 87 86  1  0
 89 87  1  0
 89 90  1  0
 89 88  1  0
 91 94  1  1
 91 92  1  0
 93 91  1  0
M  ISO  4  11 100  13 100  53 101  54 101
M  END
>  <TORSDO>  (61) 
F 22

>  <SCORE>  (61) 
-13.552

>  <name>  (61) 
61

>  <ligand_id>  (61) 
61

>  <original_smiles>  (61) 
[H]OC(=C([H])C(=O)N1C([H])([H])C([H])([H])C([H])([H])C([H])(n2nc(-c3c([H])c([H])c(Oc4c([H])c([H])c(F)c([H])c4F)c([H])c3[H])c(C(=O)N([H])[H])c2N([H])[H])C1([H])[H])c1c([H])c(C([H])([H])C([H])([H])C([H])([H])Oc2c([H])c([H])c3c(c2[H])C([H])([H])N(C(=O)C([H])(N([H])C(=O)C([H])(N([H])C([H])([H])[H])C([H])([H])[H])C(C([H])([H])[H])(C([H])([H])[H])C([H])([H])[H])C([H])(C(=O)N([H])C2([H])c4c([H])c([H])c([H])c([H])c4C([H])([H])C([H])([H])C2([H])[H])C3([H])[H])c(N([H])[H])c([H])c1C([H])([H])[H]

>  <smiles>  (61) 
[H]OC(=C([H])C(=O)N1C([H])([H])C([H])([H])C([H])([H])C([H])(n2nc(-c3c([H])c([H])c(Oc4c([H])c([H])c(F)c([H])c4F)c([H])c3[H])c(C(=O)N([H])[H])c2N([H])[H])C1([H])[H])c1c([H])c(C([H])([H])C([H])([H])C([H])([H])Oc2c([H])c([H])c3c(c2[H])C([H])([H])N(C(=O)C([H])(N([H])C(=O)C([H])(N([H])C([H])([H])[H])C([H])([H])[H])C(C([H])([H])[H])(C([H])([H])[H])C([H])([H])[H])C([H])(C(=O)N([H])C2([H])c4c([H])c([H])c([H])c([H])c4C([H])([H])C([H])([H])C2([H])[H])C3([H])[H])c(N([H])[H])c([H])c1C([H])([H])[H]

$$$$
62:0:0
     RDKit          3D

 96105  0  0  1  0  0  0  0  0999 V2000
  -28.2510  -23.7080   21.8840 C   0  0  0  0  0  3  0  0  0  0  0  0
  -27.6910  -24.7890   21.1700 C   0  0  0  0  0  0  0  0  0  0  0  0
  -29.6290  -23.4490   21.8810 C   0  0  0  0  0  0  0  0  0  0  0  0
  -29.9400  -25.4110   20.4400 C   0  0  0  0  0  0  0  0  0  0  0  0
  -28.5350  -25.6370   20.3800 C   0  0  0  0  0  0  0  0  0  0  0  0
  -30.4810  -24.3260   21.1760 C   0  0  0  0  0  0  0  0  0  0  0  0
  -26.1850  -24.9370   21.3220 C   0  0  0  0  0  1  0  0  0  0  0  0
  -30.9020  -26.3450   19.7130 C   0  0  0  0  0  1  0  0  0  0  0  0
  -31.8340  -24.1310   21.1870 O   0  0  0  0  0  0  0  0  0  0  0  0
  -32.0950  -23.3700   21.6930 H   0  0  0  0  0  0  0  0  0  0  0  0
  -28.1210  -26.6030   19.4650 O   0  0  0  0  0  0  0  0  0  0  0  0
  -24.6430  -31.6470   23.1010 C   0  0  0  0  0  0  0  0  0  0  0  0
  -26.9890  -27.3660   19.6110 C   0  0  0  0  0  0  0  0  0  0  0  0
  -23.3010  -30.3510   21.4740 C   0  0  0  0  0  3  0  0  0  0  0  0
  -24.6330  -28.8960   19.8540 C   0  0  0  0  0  0  0  0  0  0  0  0
  -25.8110  -30.6960   21.1210 C   0  0  0  0  0  2  0  0  0  0  0  0
  -25.8310  -29.3610   20.4100 C   0  0  0  0  0  0  0  0  0  0  0  0
  -27.0120  -28.5940   20.3070 C   0  0  0  0  0  3  0  0  0  0  0  0
  -25.8000  -26.9640   18.9680 C   0  0  0  0  0  3  0  0  0  0  0  0
  -24.6090  -27.6920   19.1300 C   0  0  0  0  0  3  0  0  0  0  0  0
  -23.4030  -29.7550   20.0440 C   0  0  0  0  0  2  0  0  0  0  0  0
  -24.6070  -30.9110   21.9550 N   0  0  0  0  0  0  0  0  0  0  0  0
  -23.6090  -31.8970   23.7340 O   0  0  0  0  0  0  0  0  0  0  0  0
  -22.7130  -29.2780   22.4190 C   0  0  0  0  0  0  0  0  0  0  0  0
  -21.3930  -29.0490   22.3190 N   0  0  0  0  0  0  0  0  0  0  0  0
  -23.4400  -28.6550   23.1980 O   0  0  0  0  0  0  0  0  0  0  0  0
  -20.8650  -29.6100   21.6640 H   0  0  0  0  0  0  0  0  0  0  0  0
  -18.1070  -27.6150   22.7460 C   0  0  0  0  0  0  0  0  0  0  0  0
  -20.6310  -28.0630   23.0830 C   0  0  0  0  0  3  0  0  0  0  0  0
  -20.8550  -26.6370   22.5290 C   0  0  0  0  0  2  0  0  0  0  0  0
  -19.8090  -26.2200   21.4930 C   0  0  0  0  0  2  0  0  0  0  0  0
  -18.4010  -26.2740   22.0960 C   0  0  0  0  0  2  0  0  0  0  0  0
  -19.1550  -28.4610   23.1950 C   0  0  0  0  0  0  0  0  0  0  0  0
  -18.8290  -29.7140   23.7610 C   0  0  0  0  0  3  0  0  0  0  0  0
  -17.4880  -30.1210   23.8840 C   0  0  0  0  0  3  0  0  0  0  0  0
  -16.4530  -29.2710   23.4540 C   0  0  0  0  0  3  0  0  0  0  0  0
  -16.7640  -28.0200   22.8900 C   0  0  0  0  0  3  0  0  0  0  0  0
  -25.9800  -32.2310   23.6550 C   0  0  0  0  0  3  0  0  0  0  0  0
  -26.5830  -31.3860   24.8420 C   0  0  1  0  0  0  0  0  0  0  0  0
  -25.5700  -31.1020   25.9750 C   0  0  0  0  0  1  0  0  0  0  0  0
  -27.1150  -30.0260   24.3320 C   0  0  0  0  0  1  0  0  0  0  0  0
  -27.7920  -32.1310   25.4560 C   0  0  0  0  0  1  0  0  0  0  0  0
  -25.7170  -33.6120   24.0770 N   0  0  0  0  0  0  0  0  0  0  0  0
  -26.0290  -34.7000   23.3590 C   0  0  0  0  0  0  0  0  0  0  0  0
  -26.6410  -34.6440   22.2900 O   0  0  0  0  0  0  0  0  0  0  0  0
  -25.1710  -33.7350   24.9180 H   0  0  0  0  0  0  0  0  0  0  0  0
  -24.3220  -36.5380   23.1890 C   0  0  0  0  0  1  0  0  0  0  0  0
  -25.5900  -36.0680   23.9180 C   0  0  0  0  0  3  0  0  0  0  0  0
  -27.7800  -36.8660   24.6900 C   0  0  0  0  0  1  0  0  0  0  0  0
  -26.6380  -37.1080   23.8140 N   0  0  0  0  0  0  0  0  0  0  0  0
  -26.2580  -38.0250   24.0330 H   0  0  0  0  0  0  0  0  0  0  0  0
  -30.1310  -22.2430   22.6780 C   0  0  0  0  0  2  0  0  0  0  0  0
  -30.3360  -20.9690   21.8220 C   0  0  0  0  0  2  0  0  0  0  0  0
  -30.4040  -19.6700   22.6620 C   0  0  0  0  0  2  0  0  0  0  0  0
  -31.0790  -14.6260   19.9400 C   0  0  0  0  0  0  0  0  0  0  0  0
  -30.6080  -12.5160   18.7530 C   0  0  0  0  0  2  0  0  0  0  0  0
  -29.6030  -12.7630   17.6120 C   0  0  0  0  0  2  0  0  0  0  0  0
  -28.1590  -12.6430   18.1350 C   0  0  0  0  0  2  0  0  0  0  0  0
  -27.9190  -13.4720   19.4260 C   0  0  0  0  0  3  0  0  0  0  0  0
  -29.0370  -13.2290   20.4660 C   0  0  0  0  0  2  0  0  0  0  0  0
  -30.3320  -13.4940   19.8190 N   0  0  0  0  0  0  0  0  0  0  0  0
  -32.1320  -14.7890   19.3150 O   0  0  0  0  0  0  0  0  0  0  0  0
  -29.7940  -18.0960   20.6900 C   0  0  0  0  0  2  0  0  0  0  0  0
  -30.6960  -17.1210   22.7480 C   0  0  0  0  0  2  0  0  0  0  0  0
  -30.2860  -16.8790   19.8780 C   0  0  0  0  0  2  0  0  0  0  0  0
  -31.1710  -15.8610   21.9910 C   0  0  0  0  0  2  0  0  0  0  0  0
  -30.7350  -18.3800   21.8670 C   0  0  0  0  0  3  0  0  0  0  0  0
  -30.5550  -15.6500   20.6620 N   0  0  0  0  0  0  0  0  0  0  0  0
  -25.5850  -14.1080   20.3010 C   0  0  0  0  0  0  0  0  0  0  0  0
  -24.5260  -13.3500   20.7210 C   0  0  0  0  0  0  0  0  0  0  0  0
  -24.9540  -11.9900   20.6290 C   0  0  0  0  0  0  0  0  0  0  0  0
  -26.5940  -13.2130   19.9840 N   0  0  0  0  0  0  0  0  0  0  0  0
  -26.2210  -11.9320   20.2370 N   0  0  0  0  0  0  0  0  0  0  0  0
  -24.2150  -10.7380   20.8370 C   0  0  0  0  0  0  0  0  0  0  0  0
  -24.6330   -9.7800   21.7880 C   0  0  0  0  0  3  0  0  0  0  0  0
  -23.8950   -8.5940   21.9820 C   0  0  0  0  0  3  0  0  0  0  0  0
  -22.7220   -8.3550   21.2270 C   0  0  0  0  0  0  0  0  0  0  0  0
  -22.3220   -9.3010   20.2660 C   0  0  0  0  0  3  0  0  0  0  0  0
  -23.0610  -10.4790   20.0700 C   0  0  0  0  0  3  0  0  0  0  0  0
  -21.9560   -7.2190   21.3290 O   0  0  0  0  0  0  0  0  0  0  0  0
  -21.8130   -6.5530   22.5200 C   0  0  0  0  0  0  0  0  0  0  0  0
  -21.3090   -7.1910   23.6750 C   0  0  0  0  0  3  0  0  0  0  0  0
  -21.1140   -6.4510   24.8590 C   0  0  0  0  0  3  0  0  0  0  0  0
  -21.4100   -5.0760   24.8880 C   0  0  0  0  0  0  0  0  0  0  0  0
  -21.9070   -4.4380   23.7370 C   0  0  0  0  0  3  0  0  0  0  0  0
  -22.1040   -5.1750   22.5550 C   0  0  0  0  0  0  0  0  0  0  0  0
  -22.5620   -4.5510   21.4440 F   0  0  0  0  0  0  0  0  0  0  0  0
  -21.2150   -4.3630   26.0220 F   0  0  0  0  0  0  0  0  0  0  0  0
  -23.1600  -13.8490   21.0950 C   0  0  0  0  0  0  0  0  0  0  0  0
  -22.4860  -13.1640   22.0130 N   0  0  0  0  0  0  0  0  0  0  0  0
  -22.7000  -14.8810   20.6100 O   0  0  0  0  0  0  0  0  0  0  0  0
  -22.8700  -12.3260   22.4280 H   0  0  0  0  0  0  0  0  0  0  0  0
  -21.5730  -13.4800   22.3070 H   0  0  0  0  0  0  0  0  0  0  0  0
  -25.7680  -15.4790   20.1440 N   0  0  0  0  0  0  0  0  0  0  0  0
  -25.0310  -16.1520   20.3280 H   0  0  0  0  0  0  0  0  0  0  0  0
  -26.6190  -15.9090   19.8030 H   0  0  0  0  0  0  0  0  0  0  0  0
  2  7  1  0
  2  1  2  0
  3  1  1  0
  3 52  1  0
  4  6  1  0
  5  4  2  0
  5  2  1  0
  6  9  1  0
  6  3  2  0
  8  4  1  0
  9 10  1  0
 11 13  1  0
 11  5  1  0
 12 23  2  0
 13 18  1  0
 14 22  1  0
 14 24  1  0
 15 21  1  0
 15 17  1  0
 16 22  1  0
 17 16  1  0
 18 17  2  0
 19 20  1  0
 19 13  2  0
 20 15  2  0
 21 14  1  0
 22 12  1  0
 24 26  2  0
 25 24  1  0
 27 25  1  0
 28 37  2  0
 28 33  1  0
 29 25  1  0
 29 33  1  0
 30 29  1  0
 31 32  1  0
 31 30  1  0
 32 28  1  0
 33 34  2  0
 34 35  1  0
 36 35  2  0
 37 36  1  0
 38 12  1  0
 38 43  1  0
 38 39  1  0
 39 42  1  1
 39 40  1  0
 41 39  1  0
 43 46  1  0
 44 48  1  0
 44 43  1  0
 45 44  2  0
 48 47  1  0
 50 48  1  0
 50 51  1  0
 50 49  1  0
 53 54  1  0
 53 52  1  0
 55 68  1  0
 56 61  1  0
 57 58  1  0
 57 56  1  0
 59 58  1  0
 59 72  1  0
 59 60  1  0
 61 55  1  0
 61 60  1  0
 62 55  2  0
 63 67  1  0
 65 68  1  0
 65 63  1  0
 66 64  1  0
 67 54  1  0
 67 64  1  0
 68 66  1  0
 69 70  2  0
 70 89  1  0
 71 70  1  0
 71 74  1  0
 72 73  1  0
 72 69  1  0
 73 71  2  0
 74 75  1  0
 75 76  2  0
 77 80  1  0
 77 76  1  0
 78 77  2  0
 79 78  1  0
 79 74  2  0
 80 81  1  0
 81 86  2  0
 81 82  1  0
 82 83  2  0
 83 84  1  0
 84 88  1  0
 85 84  2  0
 86 85  1  0
 87 86  1  0
 89 90  1  0
 90 93  1  0
 90 92  1  0
 91 89  2  0
 94 69  1  0
 94 95  1  0
 96 94  1  0
M  ISO  4   5 101  11 101  55 100  68 100
M  END
>  <TORSDO>  (62) 
F 20

>  <SCORE>  (62) 
-12.853

>  <name>  (62) 
62

>  <ligand_id>  (62) 
62

>  <original_smiles>  (62) 
[H]Oc1c(C([H])([H])[H])c(Oc2c([H])c([H])c3c(c2[H])C([H])([H])N(C(=O)C([H])(N([H])C(=O)C([H])(N([H])C([H])([H])[H])C([H])([H])[H])C(C([H])([H])[H])(C([H])([H])[H])C([H])([H])[H])C([H])(C(=O)N([H])C2([H])c4c([H])c([H])c([H])c([H])c4C([H])([H])C([H])([H])C2([H])[H])C3([H])[H])c(C([H])([H])[H])c([H])c1C([H])([H])C([H])([H])C([H])([H])C1([H])C([H])([H])C([H])([H])N(C(=O)N2C([H])([H])C([H])([H])C([H])([H])C([H])(n3nc(-c4c([H])c([H])c(Oc5c([H])c([H])c(F)c([H])c5F)c([H])c4[H])c(C(=O)N([H])[H])c3N([H])[H])C2([H])[H])C([H])([H])C1([H])[H]

>  <smiles>  (62) 
[H]Oc1c(C([H])([H])[H])c(Oc2c([H])c([H])c3c(c2[H])C([H])([H])N(C(=O)C([H])(N([H])C(=O)C([H])(N([H])C([H])([H])[H])C([H])([H])[H])C(C([H])([H])[H])(C([H])([H])[H])C([H])([H])[H])C([H])(C(=O)N([H])C2([H])c4c([H])c([H])c([H])c([H])c4C([H])([H])C([H])([H])C2([H])[H])C3([H])[H])c(C([H])([H])[H])c([H])c1C([H])([H])C([H])([H])C([H])([H])C1([H])C([H])([H])C([H])([H])N(C(=O)N2C([H])([H])C([H])([H])C([H])([H])C([H])(n3nc(-c4c([H])c([H])c(Oc5c([H])c([H])c(F)c([H])c5F)c([H])c4[H])c(C(=O)N([H])[H])c3N([H])[H])C2([H])[H])C([H])([H])C1([H])[H]

$$$$
63:0:0
     RDKit          3D

 93101  0  0  1  0  0  0  0  0999 V2000
  -29.0050  -23.2440   20.6240 C   0  0  0  0  0  3  0  0  0  0  0  0
  -30.3950  -23.3530   20.8300 C   0  0  0  0  0  0  0  0  0  0  0  0
  -28.2000  -24.3130   20.1880 C   0  0  0  0  0  0  0  0  0  0  0  0
  -30.9830  -24.6440   20.6160 C   0  0  0  0  0  0  0  0  0  0  0  0
  -30.1640  -25.7440   20.2020 C   0  0  0  0  0  0  0  0  0  0  0  0
  -28.7680  -25.5980   19.9630 C   0  0  0  0  0  0  0  0  0  0  0  0
  -26.7520  -23.9580   19.9140 C   0  0  0  0  0  1  0  0  0  0  0  0
  -32.4940  -24.8660   20.7340 C   0  0  0  0  0  1  0  0  0  0  0  0
  -30.8070  -27.0980   19.9080 C   0  0  0  0  0  1  0  0  0  0  0  0
  -31.1560  -22.0750   21.1360 C   0  0  0  0  0  0  0  0  0  0  0  0
  -32.3680  -21.9460   20.9420 O   0  0  0  0  0  0  0  0  0  0  0  0
  -30.3590  -20.8520   21.6680 C   0  0  0  0  0  2  0  0  0  0  0  0
  -31.1360  -19.5080   21.7640 C   0  0  0  0  0  2  0  0  0  0  0  0
  -30.2570  -18.2880   21.3930 C   0  0  0  0  0  2  0  0  0  0  0  0
  -31.0130  -16.9380   21.3600 C   0  0  0  0  0  2  0  0  0  0  0  0
  -30.0940  -15.7130   21.0670 C   0  0  0  0  0  2  0  0  0  0  0  0
  -30.6980  -14.5730   20.2110 C   0  0  0  0  0  0  0  0  0  0  0  0
  -30.3330  -12.4550   18.9760 C   0  0  0  0  0  2  0  0  0  0  0  0
  -29.3470  -12.6890   17.8140 C   0  0  0  0  0  2  0  0  0  0  0  0
  -27.8870  -12.5530   18.2950 C   0  0  0  0  0  2  0  0  0  0  0  0
  -27.6040  -13.3660   19.5860 C   0  0  0  0  0  3  0  0  0  0  0  0
  -28.6970  -13.1030   20.6450 C   0  0  0  0  0  2  0  0  0  0  0  0
  -30.0050  -13.4110   20.0460 N   0  0  0  0  0  0  0  0  0  0  0  0
  -31.7620  -14.7790   19.6170 O   0  0  0  0  0  0  0  0  0  0  0  0
  -25.2320  -13.9730   20.3850 C   0  0  0  0  0  0  0  0  0  0  0  0
  -24.1750  -13.2000   20.7890 C   0  0  0  0  0  0  0  0  0  0  0  0
  -24.6330  -11.8480   20.7350 C   0  0  0  0  0  0  0  0  0  0  0  0
  -26.2670  -13.0920   20.1110 N   0  0  0  0  0  0  0  0  0  0  0  0
  -25.9110  -11.8080   20.3780 N   0  0  0  0  0  0  0  0  0  0  0  0
  -23.9120  -10.5870   20.9470 C   0  0  0  0  0  0  0  0  0  0  0  0
  -24.3740   -9.6180   21.8660 C   0  0  0  0  0  3  0  0  0  0  0  0
  -23.6530   -8.4210   22.0660 C   0  0  0  0  0  3  0  0  0  0  0  0
  -22.4580   -8.1830   21.3460 C   0  0  0  0  0  0  0  0  0  0  0  0
  -22.0150   -9.1410   20.4160 C   0  0  0  0  0  3  0  0  0  0  0  0
  -22.7360  -10.3290   20.2150 C   0  0  0  0  0  3  0  0  0  0  0  0
  -21.7050   -7.0390   21.4560 O   0  0  0  0  0  0  0  0  0  0  0  0
  -21.6820   -6.3000   22.6120 C   0  0  0  0  0  0  0  0  0  0  0  0
  -21.2800   -6.8580   23.8440 C   0  0  0  0  0  3  0  0  0  0  0  0
  -21.2050   -6.0460   24.9940 C   0  0  0  0  0  3  0  0  0  0  0  0
  -21.5210   -4.6780   24.9110 C   0  0  0  0  0  0  0  0  0  0  0  0
  -21.9150   -4.1180   23.6830 C   0  0  0  0  0  3  0  0  0  0  0  0
  -21.9930   -4.9260   22.5370 C   0  0  0  0  0  0  0  0  0  0  0  0
  -22.3540   -4.3780   21.3510 F   0  0  0  0  0  0  0  0  0  0  0  0
  -21.4400   -3.8950   26.0140 F   0  0  0  0  0  0  0  0  0  0  0  0
  -22.7900  -13.6790   21.1140 C   0  0  0  0  0  0  0  0  0  0  0  0
  -22.0950  -12.9860   22.0100 N   0  0  0  0  0  0  0  0  0  0  0  0
  -22.3320  -14.7030   20.6090 O   0  0  0  0  0  0  0  0  0  0  0  0
  -22.4780  -12.1580   22.4420 H   0  0  0  0  0  0  0  0  0  0  0  0
  -21.1670  -13.2890   22.2670 H   0  0  0  0  0  0  0  0  0  0  0  0
  -25.3880  -15.3450   20.2080 N   0  0  0  0  0  0  0  0  0  0  0  0
  -24.6240  -15.9960   20.3540 H   0  0  0  0  0  0  0  0  0  0  0  0
  -26.2310  -15.7930   19.8740 H   0  0  0  0  0  0  0  0  0  0  0  0
  -28.1370  -26.6320   19.2790 O   0  0  0  0  0  0  0  0  0  0  0  0
  -24.6590  -31.6770   23.0880 C   0  0  0  0  0  0  0  0  0  0  0  0
  -26.9750  -27.2990   19.6280 C   0  0  0  0  0  0  0  0  0  0  0  0
  -23.3100  -30.3850   21.4700 C   0  0  0  0  0  3  0  0  0  0  0  0
  -24.6260  -28.8720   19.9000 C   0  0  0  0  0  0  0  0  0  0  0  0
  -25.8300  -30.6740   21.1300 C   0  0  0  0  0  2  0  0  0  0  0  0
  -25.8330  -29.3220   20.4430 C   0  0  0  0  0  0  0  0  0  0  0  0
  -27.0080  -28.5360   20.3260 C   0  0  0  0  0  3  0  0  0  0  0  0
  -25.7520  -26.9010   19.0550 C   0  0  0  0  0  3  0  0  0  0  0  0
  -24.5720  -27.6480   19.2190 C   0  0  0  0  0  3  0  0  0  0  0  0
  -23.4180  -29.7710   20.0500 C   0  0  0  0  0  2  0  0  0  0  0  0
  -24.6210  -30.9290   21.9510 N   0  0  0  0  0  0  0  0  0  0  0  0
  -23.6240  -31.9460   23.7130 O   0  0  0  0  0  0  0  0  0  0  0  0
  -22.7040  -29.3270   22.4200 C   0  0  0  0  0  0  0  0  0  0  0  0
  -21.3800  -29.1210   22.3240 N   0  0  0  0  0  0  0  0  0  0  0  0
  -23.4190  -28.6960   23.2000 O   0  0  0  0  0  0  0  0  0  0  0  0
  -20.8550  -29.6830   21.6680 H   0  0  0  0  0  0  0  0  0  0  0  0
  -18.0630  -27.7850   22.8150 C   0  0  0  0  0  0  0  0  0  0  0  0
  -20.6050  -28.1520   23.0970 C   0  0  0  0  0  3  0  0  0  0  0  0
  -20.7690  -26.7240   22.5230 C   0  0  0  0  0  2  0  0  0  0  0  0
  -19.6840  -26.3530   21.5070 C   0  0  0  0  0  2  0  0  0  0  0  0
  -18.2960  -26.4420   22.1460 C   0  0  0  0  0  2  0  0  0  0  0  0
  -19.1450  -28.5940   23.2490 C   0  0  0  0  0  0  0  0  0  0  0  0
  -18.8680  -29.8520   23.8290 C   0  0  0  0  0  3  0  0  0  0  0  0
  -17.5410  -30.2950   23.9860 C   0  0  0  0  0  3  0  0  0  0  0  0
  -16.4730  -29.4830   23.5670 C   0  0  0  0  0  3  0  0  0  0  0  0
  -16.7360  -28.2300   22.9850 C   0  0  0  0  0  3  0  0  0  0  0  0
  -25.9990  -32.2450   23.6460 C   0  0  0  0  0  3  0  0  0  0  0  0
  -25.7440  -33.6210   24.0890 N   0  0  0  0  0  0  0  0  0  0  0  0
  -26.0440  -34.7160   23.3770 C   0  0  0  0  0  0  0  0  0  0  0  0
  -26.6420  -34.6700   22.2980 O   0  0  0  0  0  0  0  0  0  0  0  0
  -25.2050  -33.7290   24.9360 H   0  0  0  0  0  0  0  0  0  0  0  0
  -24.3270  -36.5460   23.2560 C   0  0  0  0  0  1  0  0  0  0  0  0
  -25.6110  -36.0750   23.9580 C   0  0  0  0  0  3  0  0  0  0  0  0
  -27.8140  -36.8750   24.6930 C   0  0  0  0  0  1  0  0  0  0  0  0
  -26.6520  -37.1200   23.8430 N   0  0  0  0  0  0  0  0  0  0  0  0
  -26.2720  -38.0330   24.0790 H   0  0  0  0  0  0  0  0  0  0  0  0
  -26.5990  -31.3860   24.8240 C   0  0  1  0  0  0  0  0  0  0  0  0
  -25.5910  -31.0980   25.9600 C   0  0  0  0  0  1  0  0  0  0  0  0
  -27.1220  -30.0280   24.2990 C   0  0  0  0  0  1  0  0  0  0  0  0
  -27.8160  -32.1150   25.4400 C   0  0  0  0  0  1  0  0  0  0  0  0
  1  2  1  0
  2 10  1  0
  3  1  2  0
  4  8  1  0
  4  2  2  0
  5  4  1  0
  6  3  1  0
  6  5  2  0
  7  3  1  0
  9  5  1  0
 10 12  1  0
 11 10  2  0
 12 13  1  0
 14 13  1  0
 15 14  1  0
 16 15  1  0
 17 16  1  0
 18 23  1  0
 19 20  1  0
 19 18  1  0
 21 20  1  0
 21 28  1  0
 21 22  1  0
 23 17  1  0
 23 22  1  0
 24 17  2  0
 25 26  2  0
 26 45  1  0
 27 26  1  0
 27 30  1  0
 28 29  1  0
 28 25  1  0
 29 27  2  0
 30 31  1  0
 31 32  2  0
 33 36  1  0
 33 32  1  0
 34 33  2  0
 35 34  1  0
 35 30  2  0
 36 37  1  0
 37 38  1  0
 38 39  2  0
 40 39  1  0
 40 44  1  0
 41 40  2  0
 42 37  2  0
 42 41  1  0
 43 42  1  0
 45 46  1  0
 46 49  1  0
 46 48  1  0
 47 45  2  0
 50 51  1  0
 50 25  1  0
 52 50  1  0
 53 55  1  0
 53  6  1  0
 54 65  2  0
 55 60  1  0
 56 64  1  0
 56 66  1  0
 57 63  1  0
 57 59  1  0
 58 64  1  0
 59 58  1  0
 60 59  2  0
 61 62  1  0
 61 55  2  0
 62 57  2  0
 63 56  1  0
 64 54  1  0
 66 68  2  0
 67 66  1  0
 69 67  1  0
 70 79  2  0
 70 75  1  0
 71 67  1  0
 71 75  1  0
 72 71  1  0
 73 74  1  0
 73 72  1  0
 74 70  1  0
 75 76  2  0
 76 77  1  0
 78 77  2  0
 79 78  1  0
 80 54  1  0
 80 81  1  0
 80 90  1  0
 81 84  1  0
 82 86  1  0
 82 81  1  0
 83 82  2  0
 86 85  1  0
 88 86  1  0
 88 89  1  0
 88 87  1  0
 90 93  1  1
 90 91  1  0
 92 90  1  0
M  ISO  4   6 101  16 100  17 100  53 101
M  END
>  <TORSDO>  (63) 
F 22

>  <SCORE>  (63) 
-12.584

>  <name>  (63) 
63

>  <ligand_id>  (63) 
63

>  <original_smiles>  (63) 
[H]c1c([H])c([H])c2c(c1[H])C([H])([H])C([H])([H])C([H])([H])C2([H])N([H])C(=O)C1([H])N(C(=O)C([H])(N([H])C(=O)C([H])(N([H])C([H])([H])[H])C([H])([H])[H])C(C([H])([H])[H])(C([H])([H])[H])C([H])([H])[H])C([H])([H])c2c([H])c(Oc3c(C([H])([H])[H])c([H])c(C(=O)C([H])([H])C([H])([H])C([H])([H])C([H])([H])C([H])([H])C(=O)N4C([H])([H])C([H])([H])C([H])([H])C([H])(n5nc(-c6c([H])c([H])c(Oc7c([H])c([H])c(F)c([H])c7F)c([H])c6[H])c(C(=O)N([H])[H])c5N([H])[H])C4([H])[H])c(C([H])([H])[H])c3C([H])([H])[H])c([H])c([H])c2C1([H])[H]

>  <smiles>  (63) 
[H]c1c([H])c([H])c2c(c1[H])C([H])([H])C([H])([H])C([H])([H])C2([H])N([H])C(=O)C1([H])N(C(=O)C([H])(N([H])C(=O)C([H])(N([H])C([H])([H])[H])C([H])([H])[H])C(C([H])([H])[H])(C([H])([H])[H])C([H])([H])[H])C([H])([H])c2c([H])c(Oc3c(C([H])([H])[H])c([H])c(C(=O)C([H])([H])C([H])([H])C([H])([H])C([H])([H])C([H])([H])C(=O)N4C([H])([H])C([H])([H])C([H])([H])C([H])(n5nc(-c6c([H])c([H])c(Oc7c([H])c([H])c(F)c([H])c7F)c([H])c6[H])c(C(=O)N([H])[H])c5N([H])[H])C4([H])[H])c(C([H])([H])[H])c3C([H])([H])[H])c([H])c([H])c2C1([H])[H]

$$$$
64:0:0
     RDKit          3D

 92 99  0  0  1  0  0  0  0  0999 V2000
  -26.0750  -21.4360   19.0680 C   0  0  0  0  0  3  0  0  0  0  0  0
  -27.4250  -21.1100   19.2420 C   0  0  0  0  0  0  0  0  0  0  0  0
  -28.4840  -21.7180   18.4910 C   0  0  0  0  0  2  0  0  0  0  0  0
  -25.6990  -22.3400   18.0810 C   0  0  0  0  0  0  0  0  0  0  0  0
  -26.6490  -23.2390   17.5680 C   0  0  0  0  0  0  0  0  0  0  0  0
  -27.9340  -23.4100   18.1600 C   0  0  0  0  0  3  0  0  0  0  0  0
  -29.0550  -20.1580   20.9590 C   0  0  0  0  0  0  0  0  0  0  0  0
  -27.6870  -20.0150   20.2800 C   0  0  0  0  0  2  0  0  0  0  0  0
  -30.2470  -20.3850   20.0220 C   0  0  0  0  0  2  0  0  0  0  0  0
  -29.7740  -20.1180   18.5870 C   0  0  0  0  0  1  0  0  0  0  0  0
  -24.2520  -22.3500   17.6200 C   0  0  0  0  0  1  0  0  0  0  0  0
  -26.2780  -24.0050   16.3010 C   0  0  0  0  0  1  0  0  0  0  0  0
  -29.1840  -20.0770   22.1820 O   0  0  0  0  0  0  0  0  0  0  0  0
  -30.7580  -16.7060   18.9300 C   0  0  0  0  0  0  0  0  0  0  0  0
  -31.1530  -13.9530   18.6380 C   0  0  0  0  0  2  0  0  0  0  0  0
  -30.3300  -13.0290   17.6770 C   0  0  0  0  0  2  0  0  0  0  0  0
  -28.9990  -12.5860   18.3050 C   0  0  0  0  0  2  0  0  0  0  0  0
  -28.3970  -13.7410   19.1230 C   0  0  0  0  0  3  0  0  0  0  0  0
  -29.4010  -14.5340   20.0140 C   0  0  0  0  0  2  0  0  0  0  0  0
  -30.3780  -15.2370   19.1080 N   0  0  0  0  0  0  0  0  0  0  0  0
  -32.0110  -16.6060   18.8560 O   0  0  0  0  0  0  0  0  0  0  0  0
  -29.9150  -18.1470   18.6750 N   0  0  0  0  0  2  0  0  0  0  0  0
  -28.9680  -17.8180   18.5590 H   0  0  0  0  0  0  0  0  0  0  0  0
  -26.1930  -14.3110   20.2150 C   0  0  0  0  0  0  0  0  0  0  0  0
  -25.1430  -13.5660   20.6670 C   0  0  0  0  0  0  0  0  0  0  0  0
  -25.5240  -12.1980   20.4990 C   0  0  0  0  0  0  0  0  0  0  0  0
  -27.1490  -13.4060   19.7990 N   0  0  0  0  0  0  0  0  0  0  0  0
  -26.7670  -12.1180   20.0250 N   0  0  0  0  0  0  0  0  0  0  0  0
  -24.7420  -10.9690   20.7080 C   0  0  0  0  0  0  0  0  0  0  0  0
  -25.1200  -10.0060   21.6700 C   0  0  0  0  0  3  0  0  0  0  0  0
  -24.3380   -8.8480   21.8680 C   0  0  0  0  0  3  0  0  0  0  0  0
  -23.1610   -8.6450   21.1090 C   0  0  0  0  0  0  0  0  0  0  0  0
  -22.8000   -9.5980   20.1400 C   0  0  0  0  0  3  0  0  0  0  0  0
  -23.5820  -10.7470   19.9390 C   0  0  0  0  0  3  0  0  0  0  0  0
  -22.3550   -7.5360   21.2180 O   0  0  0  0  0  0  0  0  0  0  0  0
  -22.1010   -6.9410   22.4280 C   0  0  0  0  0  0  0  0  0  0  0  0
  -21.5410   -7.6590   23.5080 C   0  0  0  0  0  3  0  0  0  0  0  0
  -21.2320   -6.9940   24.7110 C   0  0  0  0  0  3  0  0  0  0  0  0
  -21.4730   -5.6130   24.8360 C   0  0  0  0  0  0  0  0  0  0  0  0
  -22.0250   -4.8950   23.7590 C   0  0  0  0  0  3  0  0  0  0  0  0
  -22.3350   -5.5560   22.5590 C   0  0  0  0  0  0  0  0  0  0  0  0
  -22.8460   -4.8540   21.5160 F   0  0  0  0  0  0  0  0  0  0  0  0
  -21.1740   -4.9720   25.9900 F   0  0  0  0  0  0  0  0  0  0  0  0
  -23.8200  -14.1040   21.1240 C   0  0  0  0  0  0  0  0  0  0  0  0
  -23.1740  -13.4260   22.0650 N   0  0  0  0  0  0  0  0  0  0  0  0
  -23.3740  -15.1620   20.6810 O   0  0  0  0  0  0  0  0  0  0  0  0
  -23.5440  -12.5710   22.4450 H   0  0  0  0  0  0  0  0  0  0  0  0
  -22.2930  -13.7750   22.4110 H   0  0  0  0  0  0  0  0  0  0  0  0
  -26.4150  -15.6800   20.0800 N   0  0  0  0  0  0  0  0  0  0  0  0
  -25.7090  -16.3790   20.2840 H   0  0  0  0  0  0  0  0  0  0  0  0
  -27.2200  -16.0620   19.6010 H   0  0  0  0  0  0  0  0  0  0  0  0
  -28.0450  -25.1650   18.0660 O   0  0  0  0  0  0  0  0  0  0  0  0
  -24.9770  -31.2980   22.4860 C   0  0  0  0  0  0  0  0  0  0  0  0
  -27.1290  -26.5360   18.3750 C   0  0  0  0  0  0  0  0  0  0  0  0
  -23.6170  -30.1410   20.8110 C   0  0  0  0  0  3  0  0  0  0  0  0
  -24.8860  -28.7340   18.9750 C   0  0  0  0  0  0  0  0  0  0  0  0
  -26.1780  -30.2780   20.3990 C   0  0  0  0  0  2  0  0  0  0  0  0
  -26.1680  -28.9410   19.4950 C   0  0  0  0  0  0  0  0  0  0  0  0
  -27.2460  -27.8930   19.1650 C   0  0  0  0  0  3  0  0  0  0  0  0
  -25.7780  -26.6330   17.8940 C   0  0  0  0  0  3  0  0  0  0  0  0
  -24.7470  -27.6060   18.1500 C   0  0  0  0  0  3  0  0  0  0  0  0
  -23.6990  -29.6720   19.3270 C   0  0  0  0  0  2  0  0  0  0  0  0
  -24.9600  -30.6070   21.2840 N   0  0  0  0  0  0  0  0  0  0  0  0
  -23.9470  -31.4870   23.1590 O   0  0  0  0  0  0  0  0  0  0  0  0
  -23.0220  -29.0130   21.7010 C   0  0  0  0  0  0  0  0  0  0  0  0
  -21.6900  -28.7920   21.6620 N   0  0  0  0  0  0  0  0  0  0  0  0
  -23.7740  -28.3330   22.4050 O   0  0  0  0  0  0  0  0  0  0  0  0
  -21.1220  -29.3880   21.0750 H   0  0  0  0  0  0  0  0  0  0  0  0
  -18.4630  -27.1860   22.1740 C   0  0  0  0  0  0  0  0  0  0  0  0
  -20.9920  -27.7060   22.3640 C   0  0  0  0  0  3  0  0  0  0  0  0
  -21.2130  -26.3550   21.6460 C   0  0  0  0  0  2  0  0  0  0  0  0
  -20.1060  -26.0190   20.6420 C   0  0  0  0  0  2  0  0  0  0  0  0
  -18.7450  -25.9470   21.3440 C   0  0  0  0  0  2  0  0  0  0  0  0
  -19.5140  -28.0240   22.6360 C   0  0  0  0  0  0  0  0  0  0  0  0
  -19.1890  -29.1780   23.3800 C   0  0  0  0  0  3  0  0  0  0  0  0
  -17.8470  -29.5030   23.6580 C   0  0  0  0  0  3  0  0  0  0  0  0
  -16.8120  -28.6680   23.2030 C   0  0  0  0  0  3  0  0  0  0  0  0
  -17.1220  -27.5100   22.4680 C   0  0  0  0  0  3  0  0  0  0  0  0
  -26.2900  -31.8970   23.0790 C   0  0  0  0  0  3  0  0  0  0  0  0
  -25.9480  -33.1110   23.8500 N   0  0  0  0  0  0  0  0  0  0  0  0
  -26.1060  -34.3750   23.4310 C   0  0  0  0  0  0  0  0  0  0  0  0
  -26.6010  -34.6480   22.3350 O   0  0  0  0  0  0  0  0  0  0  0  0
  -25.4840  -32.9610   24.7360 H   0  0  0  0  0  0  0  0  0  0  0  0
  -24.2510  -36.0100   23.9400 C   0  0  0  0  0  1  0  0  0  0  0  0
  -25.6440  -35.5180   24.3670 C   0  0  0  0  0  3  0  0  0  0  0  0
  -27.8450  -36.3560   25.0680 C   0  0  0  0  0  1  0  0  0  0  0  0
  -26.5800  -36.6650   24.4090 N   0  0  0  0  0  0  0  0  0  0  0  0
  -26.1570  -37.4580   24.8860 H   0  0  0  0  0  0  0  0  0  0  0  0
  -27.0570  -30.8840   24.0180 C   0  0  1  0  0  0  0  0  0  0  0  0
  -26.1780  -30.2860   25.1430 C   0  0  0  0  0  1  0  0  0  0  0  0
  -27.6390  -29.7040   23.2110 C   0  0  0  0  0  1  0  0  0  0  0  0
  -28.2610  -31.5970   24.6810 C   0  0  0  0  0  1  0  0  0  0  0  0
  1  2  2  0
  2  8  1  0
  3  2  1  0
  4  1  1  0
  5  4  2  0
  5  6  1  0
  6 52  1  0
  6  3  1  0
  7 13  2  0
  8  7  1  0
  9  7  1  0
 10  9  1  0
 11  4  1  0
 12  5  1  0
 14 20  1  0
 15 20  1  0
 16 17  1  0
 16 15  1  0
 18 17  1  0
 18 27  1  0
 18 19  1  0
 20 19  1  0
 21 14  2  0
 22 14  1  0
 23 22  1  0
 24 25  2  0
 25 44  1  0
 26 25  1  0
 26 29  1  0
 27 28  1  0
 27 24  1  0
 28 26  2  0
 29 30  1  0
 30 31  2  0
 32 35  1  0
 32 31  1  0
 33 32  2  0
 34 33  1  0
 34 29  2  0
 35 36  1  0
 36 41  2  0
 36 37  1  0
 37 38  2  0
 38 39  1  0
 39 43  1  0
 40 39  2  0
 41 40  1  0
 42 41  1  0
 44 45  1  0
 45 48  1  0
 45 47  1  0
 46 44  2  0
 49 24  1  0
 49 50  1  0
 51 49  1  0
 52 54  1  0
 53 64  2  0
 54 59  1  0
 55 63  1  0
 55 65  1  0
 56 62  1  0
 56 58  1  0
 57 63  1  0
 58 57  1  0
 59 58  2  0
 60 61  1  0
 60 54  2  0
 61 56  2  0
 62 55  1  0
 63 53  1  0
 65 67  2  0
 66 65  1  0
 68 66  1  0
 69 78  2  0
 69 74  1  0
 70 66  1  0
 70 74  1  0
 71 70  1  0
 72 73  1  0
 72 71  1  0
 73 69  1  0
 74 75  2  0
 75 76  1  0
 77 76  2  0
 78 77  1  0
 79 53  1  0
 79 80  1  0
 79 89  1  0
 80 83  1  0
 81 80  1  0
 81 85  1  0
 82 81  2  0
 85 84  1  0
 85 87  1  0
 87 88  1  0
 87 86  1  0
 89 92  1  1
 89 90  1  0
 91 89  1  0
M  ISO  4   6 101  14 100  22 100  52 101
M  END
>  <TORSDO>  (64) 
F 16

>  <SCORE>  (64) 
-10.133

>  <name>  (64) 
64

>  <ligand_id>  (64) 
64

>  <original_smiles>  (64) 
[H]c1c([H])c([H])c2c(c1[H])C([H])([H])C([H])([H])C([H])([H])C2([H])N([H])C(=O)C1([H])N(C(=O)C([H])(N([H])C(=O)C([H])(N([H])C([H])([H])[H])C([H])([H])[H])C(C([H])([H])[H])(C([H])([H])[H])C([H])([H])[H])C([H])([H])c2c([H])c(Oc3c(C([H])([H])[H])c(C([H])([H])[H])c([H])c4c3C([H])(N([H])C(=O)N3C([H])([H])C([H])([H])C([H])([H])C([H])(n5nc(-c6c([H])c([H])c(Oc7c([H])c([H])c(F)c([H])c7F)c([H])c6[H])c(C(=O)N([H])[H])c5N([H])[H])C3([H])[H])C([H])([H])C(=O)C4([H])[H])c([H])c([H])c2C1([H])[H]

>  <smiles>  (64) 
[H]c1c([H])c([H])c2c(c1[H])C([H])([H])C([H])([H])C([H])([H])C2([H])N([H])C(=O)C1([H])N(C(=O)C([H])(N([H])C(=O)C([H])(N([H])C([H])([H])[H])C([H])([H])[H])C(C([H])([H])[H])(C([H])([H])[H])C([H])([H])[H])C([H])([H])c2c([H])c(Oc3c(C([H])([H])[H])c(C([H])([H])[H])c([H])c4c3C([H])(N([H])C(=O)N3C([H])([H])C([H])([H])C([H])([H])C([H])(n5nc(-c6c([H])c([H])c(Oc7c([H])c([H])c(F)c([H])c7F)c([H])c6[H])c(C(=O)N([H])[H])c5N([H])[H])C3([H])[H])C([H])([H])C(=O)C4([H])[H])c([H])c([H])c2C1([H])[H]

$$$$
65:0:0
     RDKit          3D

 98107  0  0  1  0  0  0  0  0999 V2000
  -27.6170  -23.8550   20.1510 C   0  0  0  0  0  2  0  0  0  0  0  0
  -29.7000  -24.9190   20.8470 C   0  0  0  0  0  2  0  0  0  0  0  0
  -29.1540  -23.6770   20.0680 C   0  0  0  0  0  3  0  0  0  0  0  0
  -27.4350  -24.7840   21.3590 C   0  0  0  0  0  3  0  0  0  0  0  0
  -28.5110  -25.8710   21.1250 C   0  0  0  0  0  3  0  0  0  0  0  0
  -28.8370  -21.3980   21.2350 C   0  0  0  0  0  3  0  0  0  0  0  0
  -29.2130  -20.0740   21.5140 C   0  0  0  0  0  3  0  0  0  0  0  0
  -29.6860  -22.2820   20.5220 C   0  0  0  0  0  0  0  0  0  0  0  0
  -30.4750  -19.5810   21.1320 C   0  0  0  0  0  0  0  0  0  0  0  0
  -30.9940  -21.8090   20.1950 C   0  0  0  0  0  0  0  0  0  0  0  0
  -31.3790  -20.4610   20.4860 C   0  0  0  0  0  0  0  0  0  0  0  0
  -32.0060  -22.7410   19.5370 C   0  0  0  0  0  1  0  0  0  0  0  0
  -32.7780  -19.9590   20.1330 C   0  0  0  0  0  1  0  0  0  0  0  0
  -30.8190  -18.1190   21.4700 C   0  0  0  0  0  2  0  0  0  0  0  0
  -30.5040  -17.1240   20.3240 C   0  0  0  0  0  2  0  0  0  0  0  0
  -31.0540  -14.6830   20.2850 C   0  0  0  0  0  0  0  0  0  0  0  0
  -30.7170  -12.5130   19.1790 C   0  0  0  0  0  2  0  0  0  0  0  0
  -29.7640  -12.7190   17.9810 C   0  0  0  0  0  2  0  0  0  0  0  0
  -28.2900  -12.6090   18.4180 C   0  0  0  0  0  2  0  0  0  0  0  0
  -27.9750  -13.4660   19.6740 C   0  0  0  0  0  3  0  0  0  0  0  0
  -29.0360  -13.2460   20.7780 C   0  0  0  0  0  2  0  0  0  0  0  0
  -30.3670  -13.5100   20.2020 N   0  0  0  0  0  0  0  0  0  0  0  0
  -32.1680  -14.8480   19.7840 O   0  0  0  0  0  0  0  0  0  0  0  0
  -30.3450  -15.7240   20.7550 N   0  0  0  0  0  0  0  0  0  0  0  0
  -29.4600  -15.4940   21.1800 H   0  0  0  0  0  0  0  0  0  0  0  0
  -25.6000  -14.1220   20.4200 C   0  0  0  0  0  0  0  0  0  0  0  0
  -24.5190  -13.3690   20.7980 C   0  0  0  0  0  0  0  0  0  0  0  0
  -24.9500  -12.0090   20.7480 C   0  0  0  0  0  0  0  0  0  0  0  0
  -26.6210  -13.2200   20.1650 N   0  0  0  0  0  0  0  0  0  0  0  0
  -26.2330  -11.9450   20.4210 N   0  0  0  0  0  0  0  0  0  0  0  0
  -24.1990  -10.7600   20.9410 C   0  0  0  0  0  0  0  0  0  0  0  0
  -24.6040   -9.7890   21.8830 C   0  0  0  0  0  3  0  0  0  0  0  0
  -23.8520   -8.6070   22.0610 C   0  0  0  0  0  3  0  0  0  0  0  0
  -22.6830   -8.3880   21.2960 C   0  0  0  0  0  0  0  0  0  0  0  0
  -22.3010   -9.3460   20.3410 C   0  0  0  0  0  3  0  0  0  0  0  0
  -23.0530  -10.5170   20.1600 C   0  0  0  0  0  3  0  0  0  0  0  0
  -21.9030   -7.2590   21.3860 O   0  0  0  0  0  0  0  0  0  0  0  0
  -21.7970   -6.5480   22.5540 C   0  0  0  0  0  0  0  0  0  0  0  0
  -21.3080   -7.1350   23.7410 C   0  0  0  0  0  3  0  0  0  0  0  0
  -21.1450   -6.3490   24.9000 C   0  0  0  0  0  3  0  0  0  0  0  0
  -21.4650   -4.9780   24.8720 C   0  0  0  0  0  0  0  0  0  0  0  0
  -21.9490   -4.3910   23.6900 C   0  0  0  0  0  3  0  0  0  0  0  0
  -22.1110   -5.1740   22.5330 C   0  0  0  0  0  0  0  0  0  0  0  0
  -22.5570   -4.5990   21.3890 F   0  0  0  0  0  0  0  0  0  0  0  0
  -21.3040   -4.2210   25.9820 F   0  0  0  0  0  0  0  0  0  0  0  0
  -23.1360  -13.8720   21.0960 C   0  0  0  0  0  0  0  0  0  0  0  0
  -22.4150  -13.1870   21.9780 N   0  0  0  0  0  0  0  0  0  0  0  0
  -22.7070  -14.9050   20.5830 O   0  0  0  0  0  0  0  0  0  0  0  0
  -22.7820  -12.3520   22.4100 H   0  0  0  0  0  0  0  0  0  0  0  0
  -21.4840  -13.4970   22.2190 H   0  0  0  0  0  0  0  0  0  0  0  0
  -25.7950  -15.4890   20.2540 N   0  0  0  0  0  0  0  0  0  0  0  0
  -25.0620  -16.1700   20.4180 H   0  0  0  0  0  0  0  0  0  0  0  0
  -26.6550  -15.9080   19.9210 H   0  0  0  0  0  0  0  0  0  0  0  0
  -26.0570  -25.2560   21.6220 N   0  0  0  0  0  4  0  0  0  0  0  0
  -25.7690  -25.9160   20.9160 H   0  0  0  0  0  0  0  0  0  0  0  0
  -26.0000  -25.7140   22.5190 H   0  0  0  0  0  0  0  0  0  0  0  0
  -25.4140  -24.4850   21.6380 H   0  0  0  0  0  0  0  0  0  0  0  0
  -28.3130  -26.7310   19.9690 O   0  0  0  0  0  0  0  0  0  0  0  0
  -24.6710  -31.8620   23.3610 C   0  0  0  0  0  0  0  0  0  0  0  0
  -27.2110  -27.5580   20.0010 C   0  0  0  0  0  0  0  0  0  0  0  0
  -23.4290  -30.5650   21.6600 C   0  0  0  0  0  3  0  0  0  0  0  0
  -24.8480  -29.0980   20.1260 C   0  0  0  0  0  0  0  0  0  0  0  0
  -25.9630  -30.8840   21.4740 C   0  0  0  0  0  2  0  0  0  0  0  0
  -26.0170  -29.5570   20.7480 C   0  0  0  0  0  0  0  0  0  0  0  0
  -27.2000  -28.7820   20.7080 C   0  0  0  0  0  3  0  0  0  0  0  0
  -26.0510  -27.1560   19.3060 C   0  0  0  0  0  3  0  0  0  0  0  0
  -24.8570  -27.8900   19.4100 C   0  0  0  0  0  3  0  0  0  0  0  0
  -23.6130  -29.9630   20.2430 C   0  0  0  0  0  2  0  0  0  0  0  0
  -24.7040  -31.1210   22.2180 N   0  0  0  0  0  0  0  0  0  0  0  0
  -23.5990  -32.1230   23.9260 O   0  0  0  0  0  0  0  0  0  0  0  0
  -22.7760  -29.5040   22.5720 C   0  0  0  0  0  0  0  0  0  0  0  0
  -21.4600  -29.3000   22.4070 N   0  0  0  0  0  0  0  0  0  0  0  0
  -23.4530  -28.8660   23.3830 O   0  0  0  0  0  0  0  0  0  0  0  0
  -20.9750  -29.8560   21.7160 H   0  0  0  0  0  0  0  0  0  0  0  0
  -18.1250  -27.9400   22.7150 C   0  0  0  0  0  0  0  0  0  0  0  0
  -20.6470  -28.3250   23.1340 C   0  0  0  0  0  3  0  0  0  0  0  0
  -20.8590  -26.9030   22.5660 C   0  0  0  0  0  2  0  0  0  0  0  0
  -19.8340  -26.5260   21.4920 C   0  0  0  0  0  2  0  0  0  0  0  0
  -18.4100  -26.6030   22.0500 C   0  0  0  0  0  2  0  0  0  0  0  0
  -19.1790  -28.7550   23.2090 C   0  0  0  0  0  0  0  0  0  0  0  0
  -18.8640  -30.0050   23.7860 C   0  0  0  0  0  3  0  0  0  0  0  0
  -17.5280  -30.4390   23.8800 C   0  0  0  0  0  3  0  0  0  0  0  0
  -16.4880  -29.6210   23.4030 C   0  0  0  0  0  3  0  0  0  0  0  0
  -16.7880  -28.3730   22.8260 C   0  0  0  0  0  3  0  0  0  0  0  0
  -25.9730  -32.4410   23.9940 C   0  0  0  0  0  3  0  0  0  0  0  0
  -26.4790  -31.6170   25.2420 C   0  0  1  0  0  0  0  0  0  0  0  0
  -25.3790  -31.3630   26.3000 C   0  0  0  0  0  1  0  0  0  0  0  0
  -27.0400  -30.2390   24.8170 C   0  0  0  0  0  1  0  0  0  0  0  0
  -27.6440  -32.3730   25.9220 C   0  0  0  0  0  1  0  0  0  0  0  0
  -25.6920  -33.8310   24.3700 N   0  0  0  0  0  0  0  0  0  0  0  0
  -26.0410  -34.9020   23.6450 C   0  0  0  0  0  0  0  0  0  0  0  0
  -26.7020  -34.8200   22.6080 O   0  0  0  0  0  0  0  0  0  0  0  0
  -25.0930  -33.9690   25.1710 H   0  0  0  0  0  0  0  0  0  0  0  0
  -24.3460  -36.7470   23.3720 C   0  0  0  0  0  1  0  0  0  0  0  0
  -25.5870  -36.2840   24.1520 C   0  0  0  0  0  3  0  0  0  0  0  0
  -27.7430  -37.1060   24.9930 C   0  0  0  0  0  1  0  0  0  0  0  0
  -26.6410  -37.3180   24.0590 N   0  0  0  0  0  0  0  0  0  0  0  0
  -26.2530  -38.2400   24.2330 H   0  0  0  0  0  0  0  0  0  0  0  0
  1  4  1  0
  2  5  1  0
  3  1  1  0
  3  8  1  0
  3  2  1  0
  4 54  1  0
  5 58  1  0
  5  4  1  0
  6  7  1  0
  8  6  2  0
  9 14  1  0
  9  7  2  0
 10 11  2  0
 10  8  1  0
 11  9  1  0
 12 10  1  0
 13 11  1  0
 15 24  1  0
 15 14  1  0
 16 24  1  0
 17 22  1  0
 18 19  1  0
 18 17  1  0
 20 19  1  0
 20 29  1  0
 20 21  1  0
 22 16  1  0
 22 21  1  0
 23 16  2  0
 24 25  1  0
 26 27  2  0
 27 46  1  0
 28 27  1  0
 28 31  1  0
 29 26  1  0
 29 30  1  0
 30 28  2  0
 31 32  1  0
 32 33  2  0
 34 37  1  0
 34 33  1  0
 35 34  2  0
 36 35  1  0
 36 31  2  0
 37 38  1  0
 38 39  1  0
 39 40  2  0
 41 40  1  0
 41 45  1  0
 42 41  2  0
 43 38  2  0
 43 42  1  0
 44 43  1  0
 46 47  1  0
 47 50  1  0
 47 49  1  0
 48 46  2  0
 51 52  1  0
 51 26  1  0
 53 51  1  0
 54 57  1  0
 54 56  1  0
 55 54  1  0
 58 60  1  0
 59 70  2  0
 60 65  1  0
 61 69  1  0
 61 71  1  0
 62 68  1  0
 62 64  1  0
 63 69  1  0
 64 63  1  0
 65 64  2  0
 66 67  1  0
 66 60  2  0
 67 62  2  0
 68 61  1  0
 69 59  1  0
 71 73  2  0
 72 71  1  0
 74 72  1  0
 75 84  2  0
 75 80  1  0
 76 72  1  0
 76 80  1  0
 77 76  1  0
 78 79  1  0
 78 77  1  0
 79 75  1  0
 80 81  2  0
 81 82  1  0
 83 82  2  0
 84 83  1  0
 85 59  1  0
 85 90  1  0
 85 86  1  0
 86 89  1  1
 86 87  1  0
 88 86  1  0
 90 93  1  0
 91 95  1  0
 91 90  1  0
 92 91  2  0
 95 94  1  0
 97 95  1  0
 97 98  1  0
 97 96  1  0
M  ISO  4   5 101  16 100  24 100  58 101
M  END
>  <TORSDO>  (65) 
F 20

>  <SCORE>  (65) 
-13.722

>  <name>  (65) 
65

>  <ligand_id>  (65) 
65

>  <original_smiles>  (65) 
[H]c1c([H])c([H])c2c(c1[H])C([H])([H])C([H])([H])C([H])([H])C2([H])N([H])C(=O)C1([H])N(C(=O)C([H])(N([H])C(=O)C([H])(N([H])C([H])([H])[H])C([H])([H])[H])C(C([H])([H])[H])(C([H])([H])[H])C([H])([H])[H])C([H])([H])c2c([H])c(OC3([H])C([H])([H])C([H])(c4c([H])c([H])c(C([H])([H])C([H])([H])N([H])C(=O)N5C([H])([H])C([H])([H])C([H])([H])C([H])(n6nc(-c7c([H])c([H])c(Oc8c([H])c([H])c(F)c([H])c8F)c([H])c7[H])c(C(=O)N([H])[H])c6N([H])[H])C5([H])[H])c(C([H])([H])[H])c4C([H])([H])[H])C([H])([H])C3([H])[N+]([H])([H])[H])c([H])c([H])c2C1([H])[H]

>  <smiles>  (65) 
[H]c1c([H])c([H])c2c(c1[H])C([H])([H])C([H])([H])C([H])([H])C2([H])N([H])C(=O)C1([H])N(C(=O)C([H])(N([H])C(=O)C([H])(N([H])C([H])([H])[H])C([H])([H])[H])C(C([H])([H])[H])(C([H])([H])[H])C([H])([H])[H])C([H])([H])c2c([H])c(OC3([H])C([H])([H])C([H])(c4c([H])c([H])c(C([H])([H])C([H])([H])N([H])C(=O)N5C([H])([H])C([H])([H])C([H])([H])C([H])(n6nc(-c7c([H])c([H])c(Oc8c([H])c([H])c(F)c([H])c8F)c([H])c7[H])c(C(=O)N([H])[H])c6N([H])[H])C5([H])[H])c(C([H])([H])[H])c4C([H])([H])[H])C([H])([H])C3([H])[N+]([H])([H])[H])c([H])c([H])c2C1([H])[H]

$$$$
66:0:0
     RDKit          3D

 93102  0  0  1  0  0  0  0  0999 V2000
  -30.4210  -16.8310   19.8050 C   0  0  0  0  0  0  0  0  0  0  0  0
  -29.7090  -19.9510   20.1270 C   0  0  0  0  0  0  0  0  0  0  0  0
  -30.0140  -19.3060   18.8800 C   0  0  0  0  0  0  0  0  0  0  0  0
  -30.3150  -17.8440   18.7260 C   0  0  0  0  0  0  0  0  0  0  0  0
  -30.1710  -17.5290   21.0560 C   0  0  0  0  0  0  0  0  0  0  0  0
  -29.7880  -18.9590   21.1930 C   0  0  0  0  0  0  0  0  0  0  0  0
  -28.9370  -22.6730   18.1270 C   0  0  0  0  0  3  0  0  0  0  0  0
  -29.1150  -22.9660   19.4320 C   0  0  0  0  0  0  0  0  0  0  0  0
  -29.3550  -21.6060   20.3970 C   0  0  0  0  0  2  0  0  0  0  0  0
  -30.0850  -20.3240   17.7170 C   0  0  0  0  0  2  0  0  0  0  0  0
  -28.8230  -21.2390   17.5530 C   0  0  0  0  0  3  0  0  0  0  0  0
  -30.5460  -17.3560   17.2980 C   0  0  0  0  0  1  0  0  0  0  0  0
  -30.4100  -16.7440   22.3440 C   0  0  0  0  0  1  0  0  0  0  0  0
  -29.4890  -19.4920   22.5950 C   0  0  0  0  0  1  0  0  0  0  0  0
  -28.3460  -21.2870   16.0910 C   0  0  0  0  0  1  0  0  0  0  0  0
  -30.9980  -15.2620   19.6280 C   0  0  0  0  0  0  0  0  0  0  0  0
  -30.7480  -12.8440   18.7880 C   0  0  0  0  0  2  0  0  0  0  0  0
  -29.7360  -12.7430   17.6180 C   0  0  0  0  0  2  0  0  0  0  0  0
  -28.3090  -12.5500   18.1590 C   0  0  0  0  0  2  0  0  0  0  0  0
  -27.9990  -13.5080   19.3360 C   0  0  0  0  0  3  0  0  0  0  0  0
  -29.1320  -13.5730   20.3780 C   0  0  0  0  0  2  0  0  0  0  0  0
  -30.3500  -14.0000   19.6730 N   0  0  0  0  0  0  0  0  0  0  0  0
  -32.1780  -15.1640   19.2640 O   0  0  0  0  0  0  0  0  0  0  0  0
  -25.7480  -14.1520   20.3420 C   0  0  0  0  0  0  0  0  0  0  0  0
  -24.6770  -13.4150   20.7640 C   0  0  0  0  0  0  0  0  0  0  0  0
  -25.0550  -12.0450   20.6160 C   0  0  0  0  0  0  0  0  0  0  0  0
  -26.7060  -13.2380   19.9490 N   0  0  0  0  0  0  0  0  0  0  0  0
  -26.3090  -11.9580   20.1810 N   0  0  0  0  0  0  0  0  0  0  0  0
  -24.2730  -10.8160   20.8010 C   0  0  0  0  0  0  0  0  0  0  0  0
  -24.6930   -9.7940   21.6820 C   0  0  0  0  0  3  0  0  0  0  0  0
  -23.9090   -8.6340   21.8580 C   0  0  0  0  0  3  0  0  0  0  0  0
  -22.6900   -8.4860   21.1530 C   0  0  0  0  0  0  0  0  0  0  0  0
  -22.2880   -9.4950   20.2610 C   0  0  0  0  0  3  0  0  0  0  0  0
  -23.0730  -10.6470   20.0820 C   0  0  0  0  0  3  0  0  0  0  0  0
  -21.8760   -7.3820   21.2420 O   0  0  0  0  0  0  0  0  0  0  0  0
  -21.7870   -6.6430   22.3950 C   0  0  0  0  0  0  0  0  0  0  0  0
  -21.3640   -7.2150   23.6150 C   0  0  0  0  0  3  0  0  0  0  0  0
  -21.2190   -6.4050   24.7590 C   0  0  0  0  0  3  0  0  0  0  0  0
  -21.4890   -5.0250   24.6840 C   0  0  0  0  0  0  0  0  0  0  0  0
  -21.9060   -4.4530   23.4680 C   0  0  0  0  0  3  0  0  0  0  0  0
  -22.0520   -5.2610   22.3270 C   0  0  0  0  0  0  0  0  0  0  0  0
  -22.4320   -4.7010   21.1530 F   0  0  0  0  0  0  0  0  0  0  0  0
  -21.3440   -4.2450   25.7810 F   0  0  0  0  0  0  0  0  0  0  0  0
  -23.3410  -13.9530   21.1860 C   0  0  0  0  0  0  0  0  0  0  0  0
  -22.6560  -13.2490   22.0810 N   0  0  0  0  0  0  0  0  0  0  0  0
  -22.9220  -15.0280   20.7610 O   0  0  0  0  0  0  0  0  0  0  0  0
  -23.0150  -12.3790   22.4430 H   0  0  0  0  0  0  0  0  0  0  0  0
  -21.7610  -13.5840   22.4050 H   0  0  0  0  0  0  0  0  0  0  0  0
  -25.9780  -15.5190   20.2350 N   0  0  0  0  0  0  0  0  0  0  0  0
  -25.2730  -16.2060   20.4780 H   0  0  0  0  0  0  0  0  0  0  0  0
  -26.8340  -15.9360   19.8890 H   0  0  0  0  0  0  0  0  0  0  0  0
  -28.7840  -24.5520   20.0200 C   0  0  0  0  0  2  0  0  0  0  0  0
  -28.8010  -26.0270   19.3460 O   0  0  0  0  0  0  0  0  0  0  0  0
  -24.9100  -31.4000   22.9260 C   0  0  0  0  0  0  0  0  0  0  0  0
  -27.7190  -27.0260   19.4640 C   0  0  0  0  0  0  0  0  0  0  0  0
  -23.7810  -30.0810   21.1800 C   0  0  0  0  0  3  0  0  0  0  0  0
  -25.3050  -28.7130   19.6090 C   0  0  0  0  0  0  0  0  0  0  0  0
  -26.3220  -30.4870   21.0220 C   0  0  0  0  0  2  0  0  0  0  0  0
  -26.4740  -29.1510   20.2470 C   0  0  0  0  0  0  0  0  0  0  0  0
  -27.6810  -28.3320   20.1480 C   0  0  0  0  0  3  0  0  0  0  0  0
  -26.5140  -26.7290   18.7950 C   0  0  0  0  0  3  0  0  0  0  0  0
  -25.3450  -27.5240   18.8650 C   0  0  0  0  0  3  0  0  0  0  0  0
  -24.0320  -29.5420   19.7470 C   0  0  0  0  0  2  0  0  0  0  0  0
  -25.0250  -30.6780   21.7650 N   0  0  0  0  0  0  0  0  0  0  0  0
  -23.8140  -31.5660   23.4850 O   0  0  0  0  0  0  0  0  0  0  0  0
  -23.1730  -28.9550   22.0580 C   0  0  0  0  0  0  0  0  0  0  0  0
  -21.8630  -28.6870   21.9030 N   0  0  0  0  0  0  0  0  0  0  0  0
  -23.8860  -28.3260   22.8440 O   0  0  0  0  0  0  0  0  0  0  0  0
  -21.3370  -29.2490   21.2500 H   0  0  0  0  0  0  0  0  0  0  0  0
  -18.5980  -27.1430   22.2480 C   0  0  0  0  0  0  0  0  0  0  0  0
  -21.1180  -27.6260   22.5900 C   0  0  0  0  0  3  0  0  0  0  0  0
  -21.3630  -26.2510   21.9240 C   0  0  0  0  0  2  0  0  0  0  0  0
  -20.3130  -25.9000   20.8640 C   0  0  0  0  0  2  0  0  0  0  0  0
  -18.9140  -25.8680   21.4840 C   0  0  0  0  0  2  0  0  0  0  0  0
  -19.6340  -27.9760   22.7530 C   0  0  0  0  0  0  0  0  0  0  0  0
  -19.2840  -29.1650   23.4290 C   0  0  0  0  0  3  0  0  0  0  0  0
  -17.9350  -29.5270   23.6000 C   0  0  0  0  0  3  0  0  0  0  0  0
  -16.9160  -28.6910   23.1110 C   0  0  0  0  0  3  0  0  0  0  0  0
  -17.2480  -27.5010   22.4410 C   0  0  0  0  0  3  0  0  0  0  0  0
  -26.1490  -32.0670   23.5990 C   0  0  0  0  0  3  0  0  0  0  0  0
  -25.7280  -33.3760   24.1280 N   0  0  0  0  0  0  0  0  0  0  0  0
  -25.9330  -34.5510   23.5180 C   0  0  0  0  0  0  0  0  0  0  0  0
  -26.5640  -34.6510   22.4630 O   0  0  0  0  0  0  0  0  0  0  0  0
  -25.1620  -33.3640   24.9650 H   0  0  0  0  0  0  0  0  0  0  0  0
  -24.0410  -36.2110   23.4810 C   0  0  0  0  0  1  0  0  0  0  0  0
  -25.3510  -35.8160   24.1830 C   0  0  0  0  0  3  0  0  0  0  0  0
  -27.4350  -36.7770   25.0590 C   0  0  0  0  0  1  0  0  0  0  0  0
  -26.2810  -36.9660   24.1820 N   0  0  0  0  0  0  0  0  0  0  0  0
  -25.8020  -37.8150   24.4670 H   0  0  0  0  0  0  0  0  0  0  0  0
  -26.7670  -31.1900   24.7550 C   0  0  1  0  0  0  0  0  0  0  0  0
  -25.7370  -30.7310   25.8140 C   0  0  0  0  0  1  0  0  0  0  0  0
  -27.4430  -29.9230   24.1830 C   0  0  0  0  0  1  0  0  0  0  0  0
  -27.8730  -31.9860   25.4860 C   0  0  0  0  0  1  0  0  0  0  0  0
  1  5  1  0
  2  9  1  0
  2  6  1  0
  3  2  2  0
  4  3  1  0
  4  1  2  0
  5  6  2  0
  5 13  1  0
  6 14  1  0
  7  8  2  0
  8 52  1  0
  8  9  1  0
 10  3  1  0
 11 15  1  0
 11 10  1  0
 11  7  1  0
 12  4  1  0
 16 22  1  0
 16  1  1  0
 17 22  1  0
 18 19  1  0
 18 17  1  0
 20 19  1  0
 20 27  1  0
 20 21  1  0
 22 21  1  0
 23 16  2  0
 24 25  2  0
 25 44  1  0
 26 25  1  0
 26 29  1  0
 27 28  1  0
 27 24  1  0
 28 26  2  0
 29 30  1  0
 30 31  2  0
 32 35  1  0
 32 31  1  0
 33 32  2  0
 34 33  1  0
 34 29  2  0
 35 36  1  0
 36 37  1  0
 37 38  2  0
 39 38  1  0
 39 43  1  0
 40 39  2  0
 41 36  2  0
 41 40  1  0
 42 41  1  0
 44 45  1  0
 45 48  1  0
 45 47  1  0
 46 44  2  0
 49 24  1  0
 49 50  1  0
 51 49  1  0
 53 55  1  0
 53 52  1  0
 54 65  2  0
 55 60  1  0
 56 64  1  0
 56 66  1  0
 57 63  1  0
 57 59  1  0
 58 64  1  0
 59 58  1  0
 60 59  2  0
 61 62  1  0
 61 55  2  0
 62 57  2  0
 63 56  1  0
 64 54  1  0
 66 68  2  0
 67 66  1  0
 69 67  1  0
 70 79  2  0
 70 75  1  0
 71 67  1  0
 71 75  1  0
 72 71  1  0
 73 74  1  0
 73 72  1  0
 74 70  1  0
 75 76  2  0
 76 77  1  0
 78 77  2  0
 79 78  1  0
 80 54  1  0
 80 81  1  0
 80 90  1  0
 81 84  1  0
 82 81  1  0
 82 86  1  0
 83 82  2  0
 86 85  1  0
 88 86  1  0
 88 89  1  0
 88 87  1  0
 90 93  1  1
 90 91  1  0
 92 90  1  0
M  ISO  4   1 100  16 100  52 101  53 101
M  END
>  <TORSDO>  (66) 
F 17

>  <SCORE>  (66) 
-9.909

>  <name>  (66) 
66

>  <ligand_id>  (66) 
66

>  <original_smiles>  (66) 
[H]C1=C(C([H])([H])Oc2c([H])c([H])c3c(c2[H])C([H])([H])N(C(=O)C([H])(N([H])C(=O)C([H])(N([H])C([H])([H])[H])C([H])([H])[H])C(C([H])([H])[H])(C([H])([H])[H])C([H])([H])[H])C([H])(C(=O)N([H])C2([H])c4c([H])c([H])c([H])c([H])c4C([H])([H])C([H])([H])C2([H])[H])C3([H])[H])C([H])([H])c2c(C([H])([H])[H])c(C([H])([H])[H])c(C(=O)N3C([H])([H])C([H])([H])C([H])([H])C([H])(n4nc(-c5c([H])c([H])c(Oc6c([H])c([H])c(F)c([H])c6F)c([H])c5[H])c(C(=O)N([H])[H])c4N([H])[H])C3([H])[H])c(C([H])([H])[H])c2C([H])([H])C1([H])C([H])([H])[H]

>  <smiles>  (66) 
[H]C1=C(C([H])([H])Oc2c([H])c([H])c3c(c2[H])C([H])([H])N(C(=O)C([H])(N([H])C(=O)C([H])(N([H])C([H])([H])[H])C([H])([H])[H])C(C([H])([H])[H])(C([H])([H])[H])C([H])([H])[H])C([H])(C(=O)N([H])C2([H])c4c([H])c([H])c([H])c([H])c4C([H])([H])C([H])([H])C2([H])[H])C3([H])[H])C([H])([H])c2c(C([H])([H])[H])c(C([H])([H])[H])c(C(=O)N3C([H])([H])C([H])([H])C([H])([H])C([H])(n4nc(-c5c([H])c([H])c(Oc6c([H])c([H])c(F)c([H])c6F)c([H])c5[H])c(C(=O)N([H])[H])c4N([H])[H])C3([H])[H])c(C([H])([H])[H])c2C([H])([H])C1([H])C([H])([H])[H]

$$$$
67:0:0
     RDKit          3D

 96105  0  0  1  0  0  0  0  0999 V2000
  -29.1550  -23.1640   18.2840 C   0  0  0  0  0  3  0  0  0  0  0  0
  -29.5990  -21.1850   19.6640 C   0  0  0  0  0  0  0  0  0  0  0  0
  -28.9860  -21.7870   18.5300 C   0  0  0  0  0  0  0  0  0  0  0  0
  -29.9010  -23.9830   19.1520 C   0  0  0  0  0  0  0  0  0  0  0  0
  -30.4710  -23.4050   20.3120 C   0  0  0  0  0  0  0  0  0  0  0  0
  -30.3380  -22.0140   20.5480 C   0  0  0  0  0  0  0  0  0  0  0  0
  -28.1640  -20.9840   17.5320 C   0  0  0  0  0  1  0  0  0  0  0  0
  -31.2530  -24.2570   21.3000 C   0  0  0  0  0  1  0  0  0  0  0  0
  -30.9670  -21.4790   21.6210 F   0  0  0  0  0  0  0  0  0  0  0  0
  -29.3490  -19.1340   21.3020 C   0  0  0  0  0  2  0  0  0  0  0  0
  -30.7260  -18.9530   19.1980 C   0  0  0  0  0  2  0  0  0  0  0  0
  -29.1810  -17.5970   21.3170 C   0  0  0  0  0  2  0  0  0  0  0  0
  -30.5320  -17.4290   19.1840 C   0  0  0  0  0  2  0  0  0  0  0  0
  -29.5270  -19.6550   19.8580 C   0  0  0  0  0  3  0  0  0  0  0  0
  -30.3450  -16.8580   20.6100 C   0  0  0  0  0  3  0  0  0  0  0  0
  -30.8090  -14.4190   20.1080 C   0  0  0  0  0  0  0  0  0  0  0  0
  -30.4620  -12.2900   18.9290 C   0  0  0  0  0  2  0  0  0  0  0  0
  -29.4490  -12.5260   17.7890 C   0  0  0  0  0  2  0  0  0  0  0  0
  -27.9990  -12.3970   18.3000 C   0  0  0  0  0  2  0  0  0  0  0  0
  -27.7400  -13.2100   19.5990 C   0  0  0  0  0  3  0  0  0  0  0  0
  -28.8520  -12.9340   20.6360 C   0  0  0  0  0  2  0  0  0  0  0  0
  -30.1470  -13.2400   20.0020 N   0  0  0  0  0  0  0  0  0  0  0  0
  -31.9310  -14.6140   19.6320 O   0  0  0  0  0  0  0  0  0  0  0  0
  -30.0590  -15.4200   20.5970 N   0  0  0  0  0  0  0  0  0  0  0  0
  -29.1450  -15.1430   20.9230 H   0  0  0  0  0  0  0  0  0  0  0  0
  -25.3900  -13.8280   20.4530 C   0  0  0  0  0  0  0  0  0  0  0  0
  -24.3370  -13.0580   20.8680 C   0  0  0  0  0  0  0  0  0  0  0  0
  -24.7820  -11.7040   20.7890 C   0  0  0  0  0  0  0  0  0  0  0  0
  -26.4120  -12.9410   20.1460 N   0  0  0  0  0  0  0  0  0  0  0  0
  -26.0530  -11.6580   20.4060 N   0  0  0  0  0  0  0  0  0  0  0  0
  -24.0580  -10.4440   20.9980 C   0  0  0  0  0  0  0  0  0  0  0  0
  -24.5110   -9.4790   21.9250 C   0  0  0  0  0  3  0  0  0  0  0  0
  -23.7890   -8.2820   22.1220 C   0  0  0  0  0  3  0  0  0  0  0  0
  -22.6000   -8.0420   21.3920 C   0  0  0  0  0  0  0  0  0  0  0  0
  -22.1680   -8.9950   20.4530 C   0  0  0  0  0  3  0  0  0  0  0  0
  -22.8910  -10.1830   20.2530 C   0  0  0  0  0  3  0  0  0  0  0  0
  -21.8490   -6.8970   21.4980 O   0  0  0  0  0  0  0  0  0  0  0  0
  -21.7810   -6.1850   22.6690 C   0  0  0  0  0  0  0  0  0  0  0  0
  -21.3220   -6.7680   23.8700 C   0  0  0  0  0  3  0  0  0  0  0  0
  -21.2020   -5.9820   25.0330 C   0  0  0  0  0  3  0  0  0  0  0  0
  -21.5310   -4.6130   24.9950 C   0  0  0  0  0  0  0  0  0  0  0  0
  -21.9820   -4.0290   23.7980 C   0  0  0  0  0  3  0  0  0  0  0  0
  -22.1030   -4.8130   22.6370 C   0  0  0  0  0  0  0  0  0  0  0  0
  -22.5190   -4.2400   21.4810 F   0  0  0  0  0  0  0  0  0  0  0  0
  -21.4080   -3.8560   26.1090 F   0  0  0  0  0  0  0  0  0  0  0  0
  -22.9600  -13.5400   21.2250 C   0  0  0  0  0  0  0  0  0  0  0  0
  -22.2780  -12.8400   22.1240 N   0  0  0  0  0  0  0  0  0  0  0  0
  -22.4990  -14.5730   20.7400 O   0  0  0  0  0  0  0  0  0  0  0  0
  -22.6640  -12.0070   22.5420 H   0  0  0  0  0  0  0  0  0  0  0  0
  -21.3540  -13.1430   22.3980 H   0  0  0  0  0  0  0  0  0  0  0  0
  -25.5560  -15.2010   20.2910 N   0  0  0  0  0  0  0  0  0  0  0  0
  -24.8040  -15.8600   20.4610 H   0  0  0  0  0  0  0  0  0  0  0  0
  -26.3860  -15.6360   19.9080 H   0  0  0  0  0  0  0  0  0  0  0  0
  -30.1270  -25.4430   18.7500 C   0  0  0  0  0  2  0  0  0  0  0  0
  -28.8500  -26.2970   18.6790 C   0  0  0  0  0  2  0  0  0  0  0  0
  -28.4350  -26.7310   19.9740 O   0  0  0  0  0  0  0  0  0  0  0  0
  -24.6370  -31.8530   23.1460 C   0  0  0  0  0  0  0  0  0  0  0  0
  -27.2580  -27.4430   20.0030 C   0  0  0  0  0  0  0  0  0  0  0  0
  -23.4170  -30.4600   21.5040 C   0  0  0  0  0  3  0  0  0  0  0  0
  -24.8580  -28.9300   20.0600 C   0  0  0  0  0  0  0  0  0  0  0  0
  -25.9390  -30.8190   21.2920 C   0  0  0  0  0  2  0  0  0  0  0  0
  -26.0170  -29.4500   20.6490 C   0  0  0  0  0  0  0  0  0  0  0  0
  -27.2170  -28.7060   20.6350 C   0  0  0  0  0  3  0  0  0  0  0  0
  -26.0760  -26.9220   19.4340 C   0  0  0  0  0  3  0  0  0  0  0  0
  -24.8790  -27.6620   19.4570 C   0  0  0  0  0  3  0  0  0  0  0  0
  -23.6140  -29.7860   20.1190 C   0  0  0  0  0  2  0  0  0  0  0  0
  -24.6820  -31.0600   22.0390 N   0  0  0  0  0  0  0  0  0  0  0  0
  -23.5600  -32.1220   23.6970 O   0  0  0  0  0  0  0  0  0  0  0  0
  -22.7740  -29.4330   22.4640 C   0  0  0  0  0  0  0  0  0  0  0  0
  -21.4450  -29.2720   22.3630 N   0  0  0  0  0  0  0  0  0  0  0  0
  -23.4660  -28.7880   23.2540 O   0  0  0  0  0  0  0  0  0  0  0  0
  -20.9470  -29.8460   21.6970 H   0  0  0  0  0  0  0  0  0  0  0  0
  -18.0640  -28.1280   22.9230 C   0  0  0  0  0  0  0  0  0  0  0  0
  -20.6320  -28.3330   23.1360 C   0  0  0  0  0  3  0  0  0  0  0  0
  -20.6920  -26.9120   22.5300 C   0  0  0  0  0  2  0  0  0  0  0  0
  -19.5600  -26.6300   21.5370 C   0  0  0  0  0  2  0  0  0  0  0  0
  -18.1980  -26.7890   22.2180 C   0  0  0  0  0  2  0  0  0  0  0  0
  -19.2070  -28.8600   23.3400 C   0  0  0  0  0  0  0  0  0  0  0  0
  -19.0280  -30.1170   23.9580 C   0  0  0  0  0  3  0  0  0  0  0  0
  -17.7380  -30.6410   24.1640 C   0  0  0  0  0  3  0  0  0  0  0  0
  -16.6090  -29.9050   23.7630 C   0  0  0  0  0  3  0  0  0  0  0  0
  -16.7730  -28.6490   23.1500 C   0  0  0  0  0  3  0  0  0  0  0  0
  -25.9300  -32.4780   23.7580 C   0  0  0  0  0  3  0  0  0  0  0  0
  -26.4770  -31.6800   25.0050 C   0  0  1  0  0  0  0  0  0  0  0  0
  -25.4100  -31.4080   26.0900 C   0  0  0  0  0  1  0  0  0  0  0  0
  -27.0610  -30.3170   24.5660 C   0  0  0  0  0  1  0  0  0  0  0  0
  -27.6360  -32.4670   25.6620 C   0  0  0  0  0  1  0  0  0  0  0  0
  -25.6200  -33.8660   24.1240 N   0  0  0  0  0  0  0  0  0  0  0  0
  -25.9250  -34.9350   23.3760 C   0  0  0  0  0  0  0  0  0  0  0  0
  -26.5690  -34.8560   22.3260 O   0  0  0  0  0  0  0  0  0  0  0  0
  -25.0470  -34.0000   24.9430 H   0  0  0  0  0  0  0  0  0  0  0  0
  -24.1700  -36.7150   23.1000 C   0  0  0  0  0  1  0  0  0  0  0  0
  -25.4360  -36.3100   23.8720 C   0  0  0  0  0  3  0  0  0  0  0  0
  -27.5830  -37.1990   24.6630 C   0  0  0  0  0  1  0  0  0  0  0  0
  -26.4560  -37.3750   23.7510 N   0  0  0  0  0  0  0  0  0  0  0  0
  -26.0450  -38.2880   23.9280 H   0  0  0  0  0  0  0  0  0  0  0  0
  1  3  2  0
  1  4  1  0
  2  6  2  0
  3  2  1  0
  4  5  2  0
  5  6  1  0
  5  8  1  0
  6  9  1  0
  7  3  1  0
 10 12  1  0
 11 14  1  0
 13 11  1  0
 13 15  1  0
 14  2  1  0
 14 10  1  0
 15 24  1  0
 15 12  1  0
 16 24  1  0
 17 22  1  0
 18 19  1  0
 18 17  1  0
 20 19  1  0
 20 29  1  0
 20 21  1  0
 22 16  1  0
 22 21  1  0
 23 16  2  0
 24 25  1  0
 26 27  2  0
 27 46  1  0
 28 27  1  0
 28 31  1  0
 29 30  1  0
 29 26  1  0
 30 28  2  0
 31 32  1  0
 32 33  2  0
 34 37  1  0
 34 33  1  0
 35 34  2  0
 36 35  1  0
 36 31  2  0
 37 38  1  0
 38 39  1  0
 39 40  2  0
 41 40  1  0
 41 45  1  0
 42 41  2  0
 43 38  2  0
 43 42  1  0
 44 43  1  0
 46 47  1  0
 47 50  1  0
 47 49  1  0
 48 46  2  0
 51 26  1  0
 51 52  1  0
 53 51  1  0
 54  4  1  0
 55 54  1  0
 55 56  1  0
 56 58  1  0
 57 68  2  0
 58 63  1  0
 59 67  1  0
 59 69  1  0
 60 66  1  0
 60 62  1  0
 61 67  1  0
 62 61  1  0
 63 62  2  0
 64 65  1  0
 64 58  2  0
 65 60  2  0
 66 59  1  0
 67 57  1  0
 69 71  2  0
 70 69  1  0
 72 70  1  0
 73 82  2  0
 73 78  1  0
 74 70  1  0
 74 78  1  0
 75 74  1  0
 76 77  1  0
 76 75  1  0
 77 73  1  0
 78 79  2  0
 79 80  1  0
 81 80  2  0
 82 81  1  0
 83 57  1  0
 83 88  1  0
 83 84  1  0
 84 87  1  1
 84 85  1  0
 86 84  1  0
 88 91  1  0
 89 93  1  0
 89 88  1  0
 90 89  2  0
 93 92  1  0
 95 93  1  0
 95 96  1  0
 95 94  1  0
M  ISO  4  16 100  24 100  55 101  56 101
M  END
>  <TORSDO>  (67) 
F 19

>  <SCORE>  (67) 
-13.462

>  <name>  (67) 
67

>  <ligand_id>  (67) 
67

>  <original_smiles>  (67) 
[H]c1c([H])c([H])c2c(c1[H])C([H])([H])C([H])([H])C([H])([H])C2([H])N([H])C(=O)C1([H])N(C(=O)C([H])(N([H])C(=O)C([H])(N([H])C([H])([H])[H])C([H])([H])[H])C(C([H])([H])[H])(C([H])([H])[H])C([H])([H])[H])C([H])([H])c2c([H])c(OC([H])([H])C([H])([H])c3c([H])c(C([H])([H])[H])c(C4([H])C([H])([H])C([H])([H])C([H])(N([H])C(=O)N5C([H])([H])C([H])([H])C([H])([H])C([H])(n6nc(-c7c([H])c([H])c(Oc8c([H])c([H])c(F)c([H])c8F)c([H])c7[H])c(C(=O)N([H])[H])c6N([H])[H])C5([H])[H])C([H])([H])C4([H])[H])c(F)c3C([H])([H])[H])c([H])c([H])c2C1([H])[H]

>  <smiles>  (67) 
[H]c1c([H])c([H])c2c(c1[H])C([H])([H])C([H])([H])C([H])([H])C2([H])N([H])C(=O)C1([H])N(C(=O)C([H])(N([H])C(=O)C([H])(N([H])C([H])([H])[H])C([H])([H])[H])C(C([H])([H])[H])(C([H])([H])[H])C([H])([H])[H])C([H])([H])c2c([H])c(OC([H])([H])C([H])([H])c3c([H])c(C([H])([H])[H])c(C4([H])C([H])([H])C([H])([H])C([H])(N([H])C(=O)N5C([H])([H])C([H])([H])C([H])([H])C([H])(n6nc(-c7c([H])c([H])c(Oc8c([H])c([H])c(F)c([H])c8F)c([H])c7[H])c(C(=O)N([H])[H])c6N([H])[H])C5([H])[H])C([H])([H])C4([H])[H])c(F)c3C([H])([H])[H])c([H])c([H])c2C1([H])[H]

$$$$
68:0:0
     RDKit          3D

 89 97  0  0  1  0  0  0  0  0999 V2000
  -27.6720  -20.8580   20.7500 C   0  0  0  0  0  3  0  0  0  0  0  0
  -26.8440  -21.9700   21.1090 C   0  0  0  0  0  3  0  0  0  0  0  0
  -28.9280  -20.9660   20.1170 C   0  0  0  0  0  0  0  0  0  0  0  0
  -27.0760  -23.3750   20.9020 C   0  0  0  0  0  0  0  0  0  0  0  0
  -29.1000  -22.5880   19.8700 C   0  0  0  0  0  0  0  0  0  0  0  0
  -28.1940  -23.9230   20.1980 C   0  0  0  0  0  0  0  0  0  0  0  0
  -26.0580  -24.2980   21.5470 C   0  0  0  0  0  1  0  0  0  0  0  0
  -30.4080  -22.9390   19.1930 C   0  0  0  0  0  1  0  0  0  0  0  0
  -30.5700  -19.4790   18.4990 C   0  0  0  0  0  1  0  0  0  0  0  0
  -29.8690  -19.3080   19.8540 C   0  0  0  0  0  0  0  0  0  0  0  0
  -30.4410  -16.0780   19.8600 C   0  0  0  0  0  0  0  0  0  0  0  0
  -30.5510  -13.5090   19.0140 C   0  0  0  0  0  2  0  0  0  0  0  0
  -29.6090  -13.0290   17.8680 C   0  0  0  0  0  2  0  0  0  0  0  0
  -28.2350  -12.6200   18.4100 C   0  0  0  0  0  2  0  0  0  0  0  0
  -27.7560  -13.6120   19.4910 C   0  0  0  0  0  3  0  0  0  0  0  0
  -28.8380  -13.9930   20.5340 C   0  0  0  0  0  2  0  0  0  0  0  0
  -29.9350  -14.6840   19.8060 N   0  0  0  0  0  0  0  0  0  0  0  0
  -31.6620  -15.9910   19.6110 O   0  0  0  0  0  0  0  0  0  0  0  0
  -29.7000  -17.4870   19.9910 N   0  0  0  0  0  4  0  0  0  0  0  0
  -28.7310  -17.2850   20.1920 H   0  0  0  0  0  0  0  0  0  0  0  0
  -25.4530  -14.0880   20.4360 C   0  0  0  0  0  0  0  0  0  0  0  0
  -24.4230  -13.2870   20.8390 C   0  0  0  0  0  0  0  0  0  0  0  0
  -24.8940  -11.9420   20.7170 C   0  0  0  0  0  0  0  0  0  0  0  0
  -26.4820  -13.2350   20.0860 N   0  0  0  0  0  0  0  0  0  0  0  0
  -26.1640  -11.9330   20.3180 N   0  0  0  0  0  0  0  0  0  0  0  0
  -24.1810  -10.6700   20.8990 C   0  0  0  0  0  0  0  0  0  0  0  0
  -24.6150   -9.7040   21.8340 C   0  0  0  0  0  3  0  0  0  0  0  0
  -23.8970   -8.5010   22.0060 C   0  0  0  0  0  3  0  0  0  0  0  0
  -22.7310   -8.2540   21.2440 C   0  0  0  0  0  0  0  0  0  0  0  0
  -22.3140   -9.2080   20.3000 C   0  0  0  0  0  3  0  0  0  0  0  0
  -23.0330  -10.4040   20.1260 C   0  0  0  0  0  3  0  0  0  0  0  0
  -21.9840   -7.1030   21.3280 O   0  0  0  0  0  0  0  0  0  0  0  0
  -21.8570   -6.4100   22.5050 C   0  0  0  0  0  0  0  0  0  0  0  0
  -21.2860   -6.9960   23.6570 C   0  0  0  0  0  3  0  0  0  0  0  0
  -21.1100   -6.2270   24.8250 C   0  0  0  0  0  3  0  0  0  0  0  0
  -21.4950   -4.8730   24.8420 C   0  0  0  0  0  0  0  0  0  0  0  0
  -22.0560   -4.2860   23.6950 C   0  0  0  0  0  3  0  0  0  0  0  0
  -22.2330   -5.0510   22.5290 C   0  0  0  0  0  0  0  0  0  0  0  0
  -22.7560   -4.4750   21.4200 F   0  0  0  0  0  0  0  0  0  0  0  0
  -21.3180   -4.1330   25.9610 F   0  0  0  0  0  0  0  0  0  0  0  0
  -23.0450  -13.7460   21.2130 C   0  0  0  0  0  0  0  0  0  0  0  0
  -22.3780  -13.0230   22.1030 N   0  0  0  0  0  0  0  0  0  0  0  0
  -22.5730  -14.7830   20.7510 O   0  0  0  0  0  0  0  0  0  0  0  0
  -22.7750  -12.1850   22.5010 H   0  0  0  0  0  0  0  0  0  0  0  0
  -21.4540  -13.3120   22.3920 H   0  0  0  0  0  0  0  0  0  0  0  0
  -25.5990  -15.4660   20.3070 N   0  0  0  0  0  0  0  0  0  0  0  0
  -24.8390  -16.1120   20.4920 H   0  0  0  0  0  0  0  0  0  0  0  0
  -26.4200  -15.9170   19.9230 H   0  0  0  0  0  0  0  0  0  0  0  0
  -28.2740  -25.5780   20.0400 O   0  0  0  0  0  0  0  0  0  0  0  0
  -24.7210  -31.9210   23.1380 C   0  0  0  0  0  0  0  0  0  0  0  0
  -27.3060  -26.8410   20.0580 C   0  0  0  0  0  0  0  0  0  0  0  0
  -23.5600  -30.5480   21.4650 C   0  0  0  0  0  3  0  0  0  0  0  0
  -25.0340  -28.9310   20.0250 C   0  0  0  0  0  0  0  0  0  0  0  0
  -26.1420  -30.6830   21.3780 C   0  0  0  0  0  2  0  0  0  0  0  0
  -26.2200  -29.2530   20.6940 C   0  0  0  0  0  0  0  0  0  0  0  0
  -27.3310  -28.2390   20.6820 C   0  0  0  0  0  3  0  0  0  0  0  0
  -26.0960  -26.7800   19.3080 C   0  0  0  0  0  3  0  0  0  0  0  0
  -25.0170  -27.7220   19.3080 C   0  0  0  0  0  3  0  0  0  0  0  0
  -23.8210  -29.8800   20.0810 C   0  0  0  0  0  2  0  0  0  0  0  0
  -24.8330  -31.0850   22.0460 N   0  0  0  0  0  0  0  0  0  0  0  0
  -23.6220  -32.2060   23.6440 O   0  0  0  0  0  0  0  0  0  0  0  0
  -22.8380  -29.5500   22.4110 C   0  0  0  0  0  0  0  0  0  0  0  0
  -21.5050  -29.3980   22.2820 N   0  0  0  0  0  0  0  0  0  0  0  0
  -23.4920  -28.9090   23.2380 O   0  0  0  0  0  0  0  0  0  0  0  0
  -21.0250  -29.9670   21.5990 H   0  0  0  0  0  0  0  0  0  0  0  0
  -18.1110  -28.2050   22.8180 C   0  0  0  0  0  0  0  0  0  0  0  0
  -20.6800  -28.4390   23.0300 C   0  0  0  0  0  3  0  0  0  0  0  0
  -20.7510  -27.0300   22.3950 C   0  0  0  0  0  2  0  0  0  0  0  0
  -19.6260  -26.7640   21.3900 C   0  0  0  0  0  2  0  0  0  0  0  0
  -18.2600  -26.8890   22.0730 C   0  0  0  0  0  2  0  0  0  0  0  0
  -19.2470  -28.9400   23.2530 C   0  0  0  0  0  0  0  0  0  0  0  0
  -19.0500  -30.1690   23.9190 C   0  0  0  0  0  3  0  0  0  0  0  0
  -17.7520  -30.6660   24.1470 C   0  0  0  0  0  3  0  0  0  0  0  0
  -16.6320  -29.9290   23.7230 C   0  0  0  0  0  3  0  0  0  0  0  0
  -16.8130  -28.7000   23.0660 C   0  0  0  0  0  3  0  0  0  0  0  0
  -25.9720  -32.5740   23.8020 C   0  0  0  0  0  3  0  0  0  0  0  0
  -25.6380  -33.9710   24.1500 N   0  0  0  0  0  0  0  0  0  0  0  0
  -25.9420  -35.0490   23.4120 C   0  0  0  0  0  0  0  0  0  0  0  0
  -26.5870  -34.9730   22.3660 O   0  0  0  0  0  0  0  0  0  0  0  0
  -25.0590  -34.1020   24.9660 H   0  0  0  0  0  0  0  0  0  0  0  0
  -24.1720  -36.8300   23.1660 C   0  0  0  0  0  1  0  0  0  0  0  0
  -25.4570  -36.4280   23.9100 C   0  0  0  0  0  3  0  0  0  0  0  0
  -27.6070  -37.3530   24.6610 C   0  0  0  0  0  1  0  0  0  0  0  0
  -26.4650  -37.5000   23.7620 N   0  0  0  0  0  0  0  0  0  0  0  0
  -26.0480  -38.4120   23.9300 H   0  0  0  0  0  0  0  0  0  0  0  0
  -26.4540  -31.8080   25.0980 C   0  0  1  0  0  0  0  0  0  0  0  0
  -25.3320  -31.5690   26.1360 C   0  0  0  0  0  1  0  0  0  0  0  0
  -27.0520  -30.4300   24.7380 C   0  0  0  0  0  1  0  0  0  0  0  0
  -27.5840  -32.6070   25.7900 C   0  0  0  0  0  1  0  0  0  0  0  0
  1  2  1  0
  3  1  2  0
  4  2  2  0
  4  7  1  0
  5  3  1  0
  5  6  2  0
  6  4  1  0
  8  5  1  0
  9 10  1  0
 10 19  2  0
 10  3  1  0
 11 19  1  0
 12 17  1  0
 13 14  1  0
 13 12  1  0
 15 14  1  0
 15 24  1  0
 15 16  1  0
 17 11  1  0
 17 16  1  0
 18 11  2  0
 19 20  1  0
 21 22  2  0
 22 41  1  0
 23 22  1  0
 23 26  1  0
 24 25  1  0
 24 21  1  0
 25 23  2  0
 26 27  1  0
 27 28  2  0
 29 32  1  0
 29 28  1  0
 30 29  2  0
 31 30  1  0
 31 26  2  0
 32 33  1  0
 33 38  2  0
 33 34  1  0
 34 35  2  0
 35 36  1  0
 36 40  1  0
 37 36  2  0
 38 37  1  0
 39 38  1  0
 41 42  1  0
 42 45  1  0
 42 44  1  0
 43 41  2  0
 46 21  1  0
 46 47  1  0
 48 46  1  0
 49 51  1  0
 49  6  1  0
 50 61  2  0
 51 56  1  0
 52 60  1  0
 52 62  1  0
 53 59  1  0
 53 55  1  0
 54 60  1  0
 55 54  1  0
 56 55  2  0
 57 51  2  0
 58 57  1  0
 58 53  2  0
 59 52  1  0
 60 50  1  0
 62 64  2  0
 63 62  1  0
 65 63  1  0
 66 75  2  0
 66 71  1  0
 67 63  1  0
 67 71  1  0
 68 67  1  0
 69 70  1  0
 69 68  1  0
 70 66  1  0
 71 72  2  0
 72 73  1  0
 74 73  2  0
 75 74  1  0
 76 50  1  0
 76 77  1  0
 76 86  1  0
 77 80  1  0
 78 82  1  0
 78 77  1  0
 79 78  2  0
 82 81  1  0
 84 82  1  0
 84 85  1  0
 84 83  1  0
 86 89  1  1
 86 87  1  0
 88 86  1  0
M  ISO  4   6 101  11 100  19 100  49 101
M  END
>  <TORSDO>  (68) 
F 17

>  <SCORE>  (68) 
-15.375

>  <name>  (68) 
68

>  <ligand_id>  (68) 
68

>  <original_smiles>  (68) 
[H]c1c([H])c([H])c2c(c1[H])C([H])([H])C([H])([H])C([H])([H])C2([H])N([H])C(=O)C1([H])N(C(=O)C([H])(N([H])C(=O)C([H])(N([H])C([H])([H])[H])C([H])([H])[H])C(C([H])([H])[H])(C([H])([H])[H])C([H])([H])[H])C([H])([H])c2c([H])c(Oc3c(C([H])([H])[H])c([H])c([H])c(C([H])(N([H])C(=O)N4C([H])([H])C([H])([H])C([H])([H])C([H])(n5nc(-c6c([H])c([H])c(Oc7c([H])c([H])c(F)c([H])c7F)c([H])c6[H])c(C(=O)N([H])[H])c5N([H])[H])C4([H])[H])C([H])([H])[H])c3C([H])([H])[H])c([H])c([H])c2C1([H])[H]

>  <smiles>  (68) 
[H]c1c([H])c([H])c2c(c1[H])C([H])([H])C([H])([H])C([H])([H])C2([H])N([H])C(=O)C1([H])N(C(=O)C([H])(N([H])C(=O)C([H])(N([H])C([H])([H])[H])C([H])([H])[H])C(C([H])([H])[H])(C([H])([H])[H])C([H])([H])[H])C([H])([H])c2c([H])c(Oc3c(C([H])([H])[H])c([H])c([H])c(C([H])(N([H])C(=O)N4C([H])([H])C([H])([H])C([H])([H])C([H])(n5nc(-c6c([H])c([H])c(Oc7c([H])c([H])c(F)c([H])c7F)c([H])c6[H])c(C(=O)N([H])[H])c5N([H])[H])C4([H])[H])C([H])([H])[H])c3C([H])([H])[H])c([H])c([H])c2C1([H])[H]

$$$$
69:0:0
     RDKit          3D

101111  0  0  1  0  0  0  0  0999 V2000
  -30.2980  -21.7220   20.9440 C   0  0  0  0  0  3  0  0  0  0  0  0
  -31.2790  -22.8400   22.8600 C   0  0  0  0  0  3  0  0  0  0  0  0
  -30.8820  -22.8890   21.5060 C   0  0  0  0  0  0  0  0  0  0  0  0
  -30.0820  -20.5520   21.7200 C   0  0  0  0  0  0  0  0  0  0  0  0
  -30.4450  -20.5540   23.0950 C   0  0  0  0  0  0  0  0  0  0  0  0
  -31.0720  -21.6910   23.6600 C   0  0  0  0  0  0  0  0  0  0  0  0
  -31.1200  -25.5060   21.4600 C   0  0  0  0  0  2  0  0  0  0  0  0
  -30.3820  -24.3160   19.3440 C   0  0  0  0  0  2  0  0  0  0  0  0
  -31.7780  -26.5230   19.1670 C   0  0  0  0  0  2  0  0  0  0  0  0
  -31.1710  -24.1610   20.6720 C   0  0  0  0  0  3  0  0  0  0  0  0
  -29.8430  -26.8730   19.6230 C   0  0  0  0  0  3  0  0  0  0  0  0
  -31.0860  -26.7460   20.5310 C   0  0  1  0  0  0  0  0  0  0  0  0
  -30.4940  -25.7610   18.7650 C   0  0  2  0  0  0  0  0  0  0  0  0
  -31.4610  -27.9870   21.3380 C   0  0  0  0  0  1  0  0  0  0  0  0
  -30.1040  -25.7350   17.2890 C   0  0  0  0  0  1  0  0  0  0  0  0
  -28.6320  -26.4220   20.1890 O   0  0  0  0  0  0  0  0  0  0  0  0
  -24.5430  -31.5160   23.0840 C   0  0  0  0  0  0  0  0  0  0  0  0
  -27.5050  -27.2050   20.1240 C   0  0  0  0  0  0  0  0  0  0  0  0
  -23.4530  -30.0080   21.4580 C   0  0  0  0  0  3  0  0  0  0  0  0
  -25.0240  -28.5490   20.0760 C   0  0  0  0  0  0  0  0  0  0  0  0
  -25.9520  -30.5340   21.2770 C   0  0  0  0  0  2  0  0  0  0  0  0
  -26.1410  -29.1620   20.6610 C   0  0  0  0  0  0  0  0  0  0  0  0
  -27.3940  -28.5010   20.6790 C   0  0  0  0  0  3  0  0  0  0  0  0
  -26.3710  -26.6000   19.5540 C   0  0  0  0  0  3  0  0  0  0  0  0
  -25.1340  -27.2650   19.5160 C   0  0  0  0  0  3  0  0  0  0  0  0
  -23.7240  -29.3200   20.0930 C   0  0  0  0  0  2  0  0  0  0  0  0
  -24.6670  -30.7020   21.9990 N   0  0  0  0  0  0  0  0  0  0  0  0
  -23.4390  -31.7260   23.6070 O   0  0  0  0  0  0  0  0  0  0  0  0
  -22.8570  -28.9650   22.4300 C   0  0  0  0  0  0  0  0  0  0  0  0
  -21.5660  -28.6400   22.2470 N   0  0  0  0  0  0  0  0  0  0  0  0
  -23.5530  -28.4500   23.3090 O   0  0  0  0  0  0  0  0  0  0  0  0
  -21.0610  -29.1140   21.5100 H   0  0  0  0  0  0  0  0  0  0  0  0
  -18.3430  -27.0310   22.5440 C   0  0  0  0  0  0  0  0  0  0  0  0
  -20.8060  -27.6560   23.0180 C   0  0  0  0  0  3  0  0  0  0  0  0
  -21.1510  -26.2160   22.5740 C   0  0  0  0  0  2  0  0  0  0  0  0
  -20.2040  -25.6740   21.4980 C   0  0  0  0  0  2  0  0  0  0  0  0
  -18.7590  -25.6740   22.0040 C   0  0  0  0  0  2  0  0  0  0  0  0
  -19.3050  -27.9680   23.0070 C   0  0  0  0  0  0  0  0  0  0  0  0
  -18.8670  -29.2280   23.4680 C   0  0  0  0  0  3  0  0  0  0  0  0
  -17.4980  -29.5570   23.4750 C   0  0  0  0  0  3  0  0  0  0  0  0
  -16.5490  -28.6200   23.0300 C   0  0  0  0  0  3  0  0  0  0  0  0
  -16.9710  -27.3600   22.5710 C   0  0  0  0  0  3  0  0  0  0  0  0
  -25.7770  -32.2410   23.7070 C   0  0  0  0  0  3  0  0  0  0  0  0
  -25.3690  -33.6160   24.0210 N   0  0  0  0  0  0  0  0  0  0  0  0
  -25.6830  -34.6890   23.2840 C   0  0  0  0  0  0  0  0  0  0  0  0
  -26.4150  -34.6300   22.2910 O   0  0  0  0  0  0  0  0  0  0  0  0
  -24.7200  -33.7320   24.7870 H   0  0  0  0  0  0  0  0  0  0  0  0
  -23.8820  -36.3840   22.8270 C   0  0  0  0  0  1  0  0  0  0  0  0
  -25.0900  -36.0440   23.7140 C   0  0  0  0  0  3  0  0  0  0  0  0
  -27.1170  -37.0380   24.6810 C   0  0  0  0  0  1  0  0  0  0  0  0
  -26.0670  -37.1540   23.6710 N   0  0  0  0  0  0  0  0  0  0  0  0
  -25.6020  -38.0490   23.7990 H   0  0  0  0  0  0  0  0  0  0  0  0
  -26.3400  -31.5160   24.9910 C   0  0  1  0  0  0  0  0  0  0  0  0
  -25.2640  -31.2170   26.0600 C   0  0  0  0  0  1  0  0  0  0  0  0
  -27.0140  -30.1770   24.6080 C   0  0  0  0  0  1  0  0  0  0  0  0
  -27.4350  -32.3890   25.6470 C   0  0  0  0  0  1  0  0  0  0  0  0
  -29.1270  -19.6820   25.0910 C   0  0  0  0  0  1  0  0  0  0  0  0
  -30.1670  -19.3590   24.0110 C   0  0  0  0  0  2  0  0  0  0  0  0
  -29.4150  -19.3260   21.0720 C   0  0  0  0  0  2  0  0  0  0  0  0
  -30.3640  -18.1290   20.7830 C   0  0  0  0  0  2  0  0  0  0  0  0
  -29.6220  -16.8190   20.3860 C   0  0  0  0  0  2  0  0  0  0  0  0
  -30.0650  -15.5250   21.1410 C   0  0  0  0  0  2  0  0  0  0  0  0
  -30.5340  -14.3840   20.2060 C   0  0  0  0  0  0  0  0  0  0  0  0
  -30.1610  -12.2790   18.9640 C   0  0  0  0  0  2  0  0  0  0  0  0
  -29.1620  -12.5230   17.8180 C   0  0  0  0  0  2  0  0  0  0  0  0
  -27.7120  -12.3530   18.3140 C   0  0  0  0  0  2  0  0  0  0  0  0
  -27.4340  -13.1400   19.6220 C   0  0  0  0  0  3  0  0  0  0  0  0
  -28.5440  -12.8830   20.6660 C   0  0  0  0  0  2  0  0  0  0  0  0
  -29.8390  -13.2210   20.0520 N   0  0  0  0  0  0  0  0  0  0  0  0
  -31.5700  -14.6030   19.5700 O   0  0  0  0  0  0  0  0  0  0  0  0
  -25.0470  -13.6920   20.4120 C   0  0  0  0  0  0  0  0  0  0  0  0
  -24.0160  -12.8990   20.8360 C   0  0  0  0  0  0  0  0  0  0  0  0
  -24.5120  -11.5580   20.8060 C   0  0  0  0  0  0  0  0  0  0  0  0
  -26.1060  -12.8360   20.1550 N   0  0  0  0  0  0  0  0  0  0  0  0
  -25.7900  -11.5480   20.4470 N   0  0  0  0  0  0  0  0  0  0  0  0
  -23.8280  -10.2810   21.0470 C   0  0  0  0  0  0  0  0  0  0  0  0
  -24.2860   -9.3700   22.0240 C   0  0  0  0  0  3  0  0  0  0  0  0
  -23.6020   -8.1560   22.2490 C   0  0  0  0  0  3  0  0  0  0  0  0
  -22.4450   -7.8440   21.4950 C   0  0  0  0  0  0  0  0  0  0  0  0
  -22.0070   -8.7440   20.5080 C   0  0  0  0  0  3  0  0  0  0  0  0
  -22.6920   -9.9500   20.2820 C   0  0  0  0  0  3  0  0  0  0  0  0
  -21.7300   -6.6780   21.6270 O   0  0  0  0  0  0  0  0  0  0  0  0
  -21.6510   -6.0140   22.8250 C   0  0  0  0  0  0  0  0  0  0  0  0
  -21.1430   -6.6320   23.9880 C   0  0  0  0  0  3  0  0  0  0  0  0
  -21.0140   -5.8910   25.1800 C   0  0  0  0  0  3  0  0  0  0  0  0
  -21.3830   -4.5330   25.2090 C   0  0  0  0  0  0  0  0  0  0  0  0
  -21.8830   -3.9140   24.0500 C   0  0  0  0  0  3  0  0  0  0  0  0
  -22.0140   -4.6530   22.8610 C   0  0  0  0  0  0  0  0  0  0  0  0
  -22.4770   -4.0460   21.7400 F   0  0  0  0  0  0  0  0  0  0  0  0
  -21.2530   -3.8170   26.3510 F   0  0  0  0  0  0  0  0  0  0  0  0
  -22.6170  -13.3420   21.1600 C   0  0  0  0  0  0  0  0  0  0  0  0
  -21.9530  -12.6500   22.0790 N   0  0  0  0  0  0  0  0  0  0  0  0
  -22.1220  -14.3370   20.6310 O   0  0  0  0  0  0  0  0  0  0  0  0
  -22.3660  -11.8460   22.5270 H   0  0  0  0  0  0  0  0  0  0  0  0
  -21.0170  -12.9280   22.3370 H   0  0  0  0  0  0  0  0  0  0  0  0
  -25.1680  -15.0630   20.2060 N   0  0  0  0  0  0  0  0  0  0  0  0
  -24.3930  -15.7030   20.3430 H   0  0  0  0  0  0  0  0  0  0  0  0
  -25.9990  -15.5200   19.8520 H   0  0  0  0  0  0  0  0  0  0  0  0
  -31.4540  -21.6190   24.9850 O   0  0  0  0  0  0  0  0  0  0  0  0
  -32.7780  -22.1960   26.9020 C   0  0  0  0  0  1  0  0  0  0  0  0
  -32.2870  -22.6390   25.5220 C   0  0  0  0  0  2  0  0  0  0  0  0
  1  3  2  0
  1  4  1  0
  2  6  2  0
  3  2  1  0
  4  5  2  0
  5  6  1  0
  5 58  1  0
  6 99  1  0
  8 10  1  0
  9 12  1  0
 10  7  1  0
 10  3  1  0
 11 16  1  0
 11 12  1  0
 12 14  1  1
 12  7  1  0
 13 15  1  6
 13  9  1  0
 13  8  1  0
 13 11  1  0
 17 28  2  0
 18 16  1  0
 18 23  1  0
 19 27  1  0
 19 29  1  0
 20 26  1  0
 20 22  1  0
 21 27  1  0
 22 23  2  0
 22 21  1  0
 24 18  2  0
 25 24  1  0
 25 20  2  0
 26 19  1  0
 27 17  1  0
 29 31  2  0
 30 29  1  0
 32 30  1  0
 33 42  2  0
 33 38  1  0
 34 30  1  0
 35 34  1  0
 36 37  1  0
 36 35  1  0
 37 33  1  0
 38 34  1  0
 38 39  2  0
 39 40  1  0
 41 40  2  0
 42 41  1  0
 43 17  1  0
 43 44  1  0
 43 53  1  0
 44 47  1  0
 45 49  1  0
 45 44  1  0
 46 45  2  0
 49 48  1  0
 51 49  1  0
 51 52  1  0
 51 50  1  0
 53 56  1  1
 53 54  1  0
 55 53  1  0
 58 57  1  0
 59  4  1  0
 60 59  1  0
 61 60  1  0
 61 62  1  0
 63 62  1  0
 64 69  1  0
 65 66  1  0
 65 64  1  0
 67 66  1  0
 67 74  1  0
 67 68  1  0
 69 63  1  0
 69 68  1  0
 70 63  2  0
 71 72  2  0
 72 91  1  0
 73 72  1  0
 73 76  1  0
 74 71  1  0
 74 75  1  0
 75 73  2  0
 76 77  1  0
 77 78  2  0
 79 82  1  0
 79 78  1  0
 80 79  2  0
 81 80  1  0
 81 76  2  0
 82 83  1  0
 83 88  2  0
 83 84  1  0
 84 85  2  0
 85 86  1  0
 86 90  1  0
 87 86  2  0
 88 87  1  0
 89 88  1  0
 91 92  1  0
 92 95  1  0
 92 94  1  0
 93 91  2  0
 96 97  1  0
 96 71  1  0
 98 96  1  0
 99101  1  0
101100  1  0
M  ISO  4  11 101  16 101  62 100  63 100
M  END
>  <TORSDO>  (69) 
F 24

>  <SCORE>  (69) 
-2.577

>  <name>  (69) 
69

>  <ligand_id>  (69) 
69

>  <original_smiles>  (69) 
[H]c1c([H])c([H])c2c(c1[H])C([H])([H])C([H])([H])C([H])([H])C2([H])N([H])C(=O)C1([H])N(C(=O)C([H])(N([H])C(=O)C([H])(N([H])C([H])([H])[H])C([H])([H])[H])C(C([H])([H])[H])(C([H])([H])[H])C([H])([H])[H])C([H])([H])c2c([H])c(OC3([H])C4(C([H])([H])[H])C([H])([H])C([H])(c5c([H])c(OC([H])([H])C([H])([H])[H])c(C([H])([H])C([H])([H])[H])c(C([H])([H])C([H])([H])C([H])([H])C([H])([H])C(=O)N6C([H])([H])C([H])([H])C([H])([H])C([H])(n7nc(-c8c([H])c([H])c(Oc9c([H])c([H])c(F)c([H])c9F)c([H])c8[H])c(C(=O)N([H])[H])c7N([H])[H])C6([H])[H])c5[H])C([H])([H])C3(C([H])([H])[H])C4([H])[H])c([H])c([H])c2C1([H])[H]

>  <smiles>  (69) 
[H]c1c([H])c([H])c2c(c1[H])C([H])([H])C([H])([H])C([H])([H])C2([H])N([H])C(=O)C1([H])N(C(=O)C([H])(N([H])C(=O)C([H])(N([H])C([H])([H])[H])C([H])([H])[H])C(C([H])([H])[H])(C([H])([H])[H])C([H])([H])[H])C([H])([H])c2c([H])c(OC3([H])C4(C([H])([H])[H])C([H])([H])C([H])(c5c([H])c(OC([H])([H])C([H])([H])[H])c(C([H])([H])C([H])([H])[H])c(C([H])([H])C([H])([H])C([H])([H])C([H])([H])C(=O)N6C([H])([H])C([H])([H])C([H])([H])C([H])(n7nc(-c8c([H])c([H])c(Oc9c([H])c([H])c(F)c([H])c9F)c([H])c8[H])c(C(=O)N([H])[H])c7N([H])[H])C6([H])[H])c5[H])C([H])([H])C3(C([H])([H])[H])C4([H])[H])c([H])c([H])c2C1([H])[H]

$$$$
71:0:0
     RDKit          3D

 93102  0  0  1  0  0  0  0  0999 V2000
  -30.1200  -16.5980   20.2230 C   0  0  0  0  0  0  0  0  0  0  0  0
  -29.5760  -19.1820   20.6230 C   0  0  0  0  0  0  0  0  0  0  0  0
  -29.1070  -19.2520   19.2910 C   0  0  0  0  0  0  0  0  0  0  0  0
  -30.0590  -17.8340   21.0680 C   0  0  0  0  0  0  0  0  0  0  0  0
  -29.7080  -16.8660   18.8750 C   0  0  0  0  0  0  0  0  0  0  0  0
  -29.1140  -18.0970   18.4620 C   0  0  0  0  0  0  0  0  0  0  0  0
  -28.7070  -20.6070   18.6720 C   0  0  0  0  0  2  0  0  0  0  0  0
  -29.4950  -20.5940   21.4700 C   0  0  0  0  0  2  0  0  0  0  0  0
  -28.2580  -21.7300   19.6180 C   0  0  0  0  0  2  0  0  0  0  0  0
  -29.2170  -22.0980   20.7610 C   0  0  2  0  0  0  0  0  0  0  0  0
  -30.5830  -17.7280   22.4900 C   0  0  0  0  0  1  0  0  0  0  0  0
  -30.0240  -15.8790   17.7580 C   0  0  0  0  0  1  0  0  0  0  0  0
  -28.5060  -18.2080   17.0560 C   0  0  0  0  0  1  0  0  0  0  0  0
  -30.5600  -22.6120   20.2150 C   0  0  0  0  0  1  0  0  0  0  0  0
  -30.8140  -15.1530   20.5330 C   0  0  0  0  0  0  0  0  0  0  0  0
  -30.6960  -12.7970   19.5660 C   0  0  0  0  0  2  0  0  0  0  0  0
  -29.7900  -12.6170   18.3210 C   0  0  0  0  0  2  0  0  0  0  0  0
  -28.2890  -12.5720   18.6780 C   0  0  0  0  0  2  0  0  0  0  0  0
  -27.8710  -13.4940   19.8570 C   0  0  0  0  0  3  0  0  0  0  0  0
  -28.9010  -13.4990   20.9970 C   0  0  0  0  0  2  0  0  0  0  0  0
  -30.1810  -13.9110   20.4150 N   0  0  0  0  0  0  0  0  0  0  0  0
  -32.0480  -15.1280   20.4830 O   0  0  0  0  0  0  0  0  0  0  0  0
  -25.4670  -14.0600   20.5310 C   0  0  0  0  0  0  0  0  0  0  0  0
  -24.3980  -13.2770   20.8720 C   0  0  0  0  0  0  0  0  0  0  0  0
  -24.8760  -11.9310   20.8780 C   0  0  0  0  0  0  0  0  0  0  0  0
  -26.5250  -13.1900   20.3340 N   0  0  0  0  0  0  0  0  0  0  0  0
  -26.1780  -11.9080   20.6200 N   0  0  0  0  0  0  0  0  0  0  0  0
  -24.1590  -10.6620   21.0540 C   0  0  0  0  0  0  0  0  0  0  0  0
  -24.5620   -9.7110   22.0180 C   0  0  0  0  0  3  0  0  0  0  0  0
  -23.8420   -8.5080   22.1820 C   0  0  0  0  0  3  0  0  0  0  0  0
  -22.7050   -8.2460   21.3810 C   0  0  0  0  0  0  0  0  0  0  0  0
  -22.3220   -9.1840   20.4060 C   0  0  0  0  0  3  0  0  0  0  0  0
  -23.0430  -10.3790   20.2410 C   0  0  0  0  0  3  0  0  0  0  0  0
  -21.9580   -7.0940   21.4530 O   0  0  0  0  0  0  0  0  0  0  0  0
  -21.8670   -6.3670   22.6130 C   0  0  0  0  0  0  0  0  0  0  0  0
  -21.3630   -6.9280   23.8060 C   0  0  0  0  0  3  0  0  0  0  0  0
  -21.2210   -6.1270   24.9560 C   0  0  0  0  0  3  0  0  0  0  0  0
  -21.5730   -4.7640   24.9130 C   0  0  0  0  0  0  0  0  0  0  0  0
  -22.0690   -4.2020   23.7240 C   0  0  0  0  0  3  0  0  0  0  0  0
  -22.2120   -5.0020   22.5750 C   0  0  0  0  0  0  0  0  0  0  0  0
  -22.6720   -4.4500   21.4260 F   0  0  0  0  0  0  0  0  0  0  0  0
  -21.4300   -3.9900   26.0150 F   0  0  0  0  0  0  0  0  0  0  0  0
  -22.9860  -13.7410   21.0820 C   0  0  0  0  0  0  0  0  0  0  0  0
  -22.2440  -13.0650   21.9500 N   0  0  0  0  0  0  0  0  0  0  0  0
  -22.5500  -14.7380   20.5100 O   0  0  0  0  0  0  0  0  0  0  0  0
  -22.6110  -12.2580   22.4340 H   0  0  0  0  0  0  0  0  0  0  0  0
  -21.2940  -13.3560   22.1350 H   0  0  0  0  0  0  0  0  0  0  0  0
  -25.6250  -15.4300   20.3440 N   0  0  0  0  0  0  0  0  0  0  0  0
  -24.8550  -16.0830   20.4320 H   0  0  0  0  0  0  0  0  0  0  0  0
  -26.4910  -15.8740   20.0610 H   0  0  0  0  0  0  0  0  0  0  0  0
  -28.4600  -23.4220   21.5050 C   0  0  0  0  0  2  0  0  0  0  0  0
  -28.8640  -25.0580   21.6640 C   0  0  0  0  0  2  0  0  0  0  0  0
  -28.7130  -26.3520   20.8300 O   0  0  0  0  0  0  0  0  0  0  0  0
  -24.6480  -31.9820   23.3780 C   0  0  0  0  0  0  0  0  0  0  0  0
  -27.5890  -27.2420   20.8010 C   0  0  0  0  0  0  0  0  0  0  0  0
  -23.6210  -30.4810   21.7120 C   0  0  0  0  0  3  0  0  0  0  0  0
  -25.2220  -28.8880   20.4890 C   0  0  0  0  0  0  0  0  0  0  0  0
  -26.1680  -30.8310   21.7300 C   0  0  0  0  0  2  0  0  0  0  0  0
  -26.3330  -29.4100   21.1640 C   0  0  0  0  0  0  0  0  0  0  0  0
  -27.5250  -28.6040   21.2950 C   0  0  0  0  0  3  0  0  0  0  0  0
  -26.4520  -26.8060   20.0940 C   0  0  0  0  0  3  0  0  0  0  0  0
  -25.2930  -27.5990   19.9380 C   0  0  0  0  0  3  0  0  0  0  0  0
  -23.9710  -29.7480   20.3890 C   0  0  0  0  0  2  0  0  0  0  0  0
  -24.8260  -31.1230   22.3290 N   0  0  0  0  0  0  0  0  0  0  0  0
  -23.5160  -32.2510   23.8100 O   0  0  0  0  0  0  0  0  0  0  0  0
  -22.9010  -29.4930   22.6640 C   0  0  0  0  0  0  0  0  0  0  0  0
  -21.5930  -29.2740   22.4420 N   0  0  0  0  0  0  0  0  0  0  0  0
  -23.5240  -28.9250   23.5640 O   0  0  0  0  0  0  0  0  0  0  0  0
  -21.1470  -29.7840   21.6930 H   0  0  0  0  0  0  0  0  0  0  0  0
  -18.2100  -28.0200   22.7620 C   0  0  0  0  0  0  0  0  0  0  0  0
  -20.7400  -28.3440   23.1880 C   0  0  0  0  0  3  0  0  0  0  0  0
  -20.9070  -26.8980   22.6670 C   0  0  0  0  0  2  0  0  0  0  0  0
  -19.8820  -26.5210   21.5940 C   0  0  0  0  0  2  0  0  0  0  0  0
  -18.4580  -26.6550   22.1420 C   0  0  0  0  0  2  0  0  0  0  0  0
  -19.2830  -28.8190   23.2390 C   0  0  0  0  0  0  0  0  0  0  0  0
  -19.0000  -30.0930   23.7780 C   0  0  0  0  0  3  0  0  0  0  0  0
  -17.6770  -30.5690   23.8470 C   0  0  0  0  0  3  0  0  0  0  0  0
  -16.6170  -29.7680   23.3850 C   0  0  0  0  0  3  0  0  0  0  0  0
  -16.8850  -28.4950   22.8490 C   0  0  0  0  0  3  0  0  0  0  0  0
  -25.8550  -32.6840   24.0730 C   0  0  0  0  0  3  0  0  0  0  0  0
  -25.4800  -34.0850   24.3180 N   0  0  0  0  0  0  0  0  0  0  0  0
  -25.8500  -35.1190   23.5500 C   0  0  0  0  0  0  0  0  0  0  0  0
  -26.6080  -34.9960   22.5850 O   0  0  0  0  0  0  0  0  0  0  0  0
  -24.8190  -34.2530   25.0610 H   0  0  0  0  0  0  0  0  0  0  0  0
  -24.1190  -36.8530   22.9780 C   0  0  0  0  0  1  0  0  0  0  0  0
  -25.2920  -36.5110   23.9100 C   0  0  0  0  0  3  0  0  0  0  0  0
  -27.3200  -37.4850   24.8950 C   0  0  0  0  0  1  0  0  0  0  0  0
  -26.3050  -37.5870   23.8500 N   0  0  0  0  0  0  0  0  0  0  0  0
  -25.8650  -38.5000   23.9240 H   0  0  0  0  0  0  0  0  0  0  0  0
  -26.2840  -31.9860   25.4230 C   0  0  1  0  0  0  0  0  0  0  0  0
  -25.1030  -31.7060   26.3810 C   0  0  0  0  0  1  0  0  0  0  0  0
  -26.9930  -30.6410   25.1460 C   0  0  0  0  0  1  0  0  0  0  0  0
  -27.3050  -32.8760   26.1720 C   0  0  0  0  0  1  0  0  0  0  0  0
  1 15  1  0
  1  4  1  0
  2  4  2  0
  2  8  1  0
  3  2  1  0
  4 11  1  0
  5  1  2  0
  6  5  1  0
  6  3  2  0
  7  3  1  0
  7  9  1  0
  9 10  1  0
 10 14  1  6
 10  8  1  0
 10 51  1  0
 12  5  1  0
 13  6  1  0
 16 21  1  0
 17 18  1  0
 17 16  1  0
 19 18  1  0
 19 26  1  0
 19 20  1  0
 21 15  1  0
 21 20  1  0
 22 15  2  0
 23 24  2  0
 24 25  1  0
 24 43  1  0
 25 28  1  0
 26 23  1  0
 26 27  1  0
 27 25  2  0
 28 29  1  0
 29 30  2  0
 31 34  1  0
 31 30  1  0
 32 31  2  0
 33 32  1  0
 33 28  2  0
 34 35  1  0
 35 36  1  0
 36 37  2  0
 38 37  1  0
 38 42  1  0
 39 38  2  0
 40 35  2  0
 40 39  1  0
 41 40  1  0
 43 44  1  0
 44 47  1  0
 44 46  1  0
 45 43  2  0
 48 49  1  0
 48 23  1  0
 50 48  1  0
 51 52  1  0
 53 52  1  0
 54 65  2  0
 55 53  1  0
 55 60  1  0
 56 64  1  0
 56 66  1  0
 57 59  1  0
 58 64  1  0
 59 60  2  0
 59 58  1  0
 61 55  2  0
 62 61  1  0
 62 57  2  0
 63 57  1  0
 63 56  1  0
 64 54  1  0
 66 68  2  0
 67 66  1  0
 69 67  1  0
 70 79  2  0
 70 75  1  0
 71 67  1  0
 71 75  1  0
 72 71  1  0
 73 74  1  0
 73 72  1  0
 74 70  1  0
 75 76  2  0
 76 77  1  0
 78 77  2  0
 79 78  1  0
 80 54  1  0
 80 81  1  0
 80 90  1  0
 81 84  1  0
 82 86  1  0
 82 81  1  0
 83 82  2  0
 86 85  1  0
 88 86  1  0
 88 89  1  0
 88 87  1  0
 90 93  1  1
 90 91  1  0
 92 90  1  0
M  ISO  4   1 100  15 100  52 101  53 101
M  END
>  <TORSDO>  (70) 
F 18

>  <SCORE>  (70) 
-13.519

>  <name>  (70) 
71

>  <ligand_id>  (70) 
71

>  <original_smiles>  (70) 
[H]c1c([H])c([H])c2c(c1[H])C([H])([H])C([H])([H])C([H])([H])C2([H])N([H])C(=O)C1([H])N(C(=O)C([H])(N([H])C(=O)C([H])(N([H])C([H])([H])[H])C([H])([H])[H])C(C([H])([H])[H])(C([H])([H])[H])C([H])([H])[H])C([H])([H])c2c([H])c(OC([H])([H])C([H])([H])C3(C([H])([H])[H])C([H])([H])c4c(C([H])([H])[H])c(C(=O)N5C([H])([H])C([H])([H])C([H])([H])C([H])(n6nc(-c7c([H])c([H])c(Oc8c([H])c([H])c(F)c([H])c8F)c([H])c7[H])c(C(=O)N([H])[H])c6N([H])[H])C5([H])[H])c(C([H])([H])[H])c(C([H])([H])[H])c4C([H])([H])C3([H])[H])c([H])c([H])c2C1([H])[H]

>  <smiles>  (70) 
[H]c1c([H])c([H])c2c(c1[H])C([H])([H])C([H])([H])C([H])([H])C2([H])N([H])C(=O)C1([H])N(C(=O)C([H])(N([H])C(=O)C([H])(N([H])C([H])([H])[H])C([H])([H])[H])C(C([H])([H])[H])(C([H])([H])[H])C([H])([H])[H])C([H])([H])c2c([H])c(OC([H])([H])C([H])([H])C3(C([H])([H])[H])C([H])([H])c4c(C([H])([H])[H])c(C(=O)N5C([H])([H])C([H])([H])C([H])([H])C([H])(n6nc(-c7c([H])c([H])c(Oc8c([H])c([H])c(F)c([H])c8F)c([H])c7[H])c(C(=O)N([H])[H])c6N([H])[H])C5([H])[H])c(C([H])([H])[H])c(C([H])([H])[H])c4C([H])([H])C3([H])[H])c([H])c([H])c2C1([H])[H]

$$$$
72:0:0
     RDKit          3D

 92101  0  0  1  0  0  0  0  0999 V2000
  -30.3540  -16.9330   20.4120 C   0  0  0  0  0  0  0  0  0  0  0  0
  -29.5590  -19.6010   20.1900 C   0  0  0  0  0  0  0  0  0  0  0  0
  -30.0170  -19.7960   21.5050 C   0  0  0  0  0  0  0  0  0  0  0  0
  -29.7760  -18.1620   19.6720 C   0  0  0  0  0  0  0  0  0  0  0  0
  -30.6940  -17.3340   21.7500 C   0  0  0  0  0  0  0  0  0  0  0  0
  -30.5100  -18.6770   22.2650 C   0  0  0  0  0  0  0  0  0  0  0  0
  -29.9660  -21.2320   22.1320 C   0  0  0  0  0  2  0  0  0  0  0  0
  -28.8950  -21.0280   19.4960 C   0  0  0  0  0  2  0  0  0  0  0  0
  -29.8020  -22.5320   21.2430 C   0  0  0  0  0  2  0  0  0  0  0  0
  -28.5860  -22.5790   20.2870 C   0  0  2  0  0  0  0  0  0  0  0  0
  -29.3630  -17.9530   18.2270 C   0  0  0  0  0  1  0  0  0  0  0  0
  -31.3440  -16.3100   22.6960 C   0  0  0  0  0  1  0  0  0  0  0  0
  -30.8940  -18.9430   23.7270 C   0  0  0  0  0  1  0  0  0  0  0  0
  -27.3000  -22.3490   21.1070 C   0  0  0  0  0  1  0  0  0  0  0  0
  -30.8600  -15.4000   19.8770 C   0  0  0  0  0  0  0  0  0  0  0  0
  -30.6760  -12.9610   18.9850 C   0  0  0  0  0  2  0  0  0  0  0  0
  -29.7130  -12.8390   17.7750 C   0  0  0  0  0  2  0  0  0  0  0  0
  -28.2720  -12.6160   18.2560 C   0  0  0  0  0  2  0  0  0  0  0  0
  -27.9050  -13.5630   19.4240 C   0  0  0  0  0  3  0  0  0  0  0  0
  -28.9940  -13.6510   20.5160 C   0  0  0  0  0  2  0  0  0  0  0  0
  -30.2340  -14.1110   19.8700 N   0  0  0  0  0  0  0  0  0  0  0  0
  -32.0180  -15.3260   19.4390 O   0  0  0  0  0  0  0  0  0  0  0  0
  -25.5910  -14.1880   20.2890 C   0  0  0  0  0  0  0  0  0  0  0  0
  -24.5140  -13.4430   20.6790 C   0  0  0  0  0  0  0  0  0  0  0  0
  -24.9250  -12.0760   20.5920 C   0  0  0  0  0  0  0  0  0  0  0  0
  -26.5870  -13.2810   19.9770 N   0  0  0  0  0  0  0  0  0  0  0  0
  -26.2010  -12.0010   20.2270 N   0  0  0  0  0  0  0  0  0  0  0  0
  -24.1530  -10.8390   20.7780 C   0  0  0  0  0  0  0  0  0  0  0  0
  -24.5780   -9.8270   21.6670 C   0  0  0  0  0  3  0  0  0  0  0  0
  -23.8040   -8.6590   21.8450 C   0  0  0  0  0  3  0  0  0  0  0  0
  -22.5920   -8.4940   21.1330 C   0  0  0  0  0  0  0  0  0  0  0  0
  -22.1870   -9.4940   20.2320 C   0  0  0  0  0  3  0  0  0  0  0  0
  -22.9600  -10.6530   20.0520 C   0  0  0  0  0  3  0  0  0  0  0  0
  -21.7910   -7.3820   21.2220 O   0  0  0  0  0  0  0  0  0  0  0  0
  -21.7640   -6.6020   22.3500 C   0  0  0  0  0  0  0  0  0  0  0  0
  -21.4280   -7.1310   23.6150 C   0  0  0  0  0  3  0  0  0  0  0  0
  -21.3440   -6.2800   24.7350 C   0  0  0  0  0  3  0  0  0  0  0  0
  -21.5870   -4.9010   24.5930 C   0  0  0  0  0  0  0  0  0  0  0  0
  -21.9160   -4.3700   23.3330 C   0  0  0  0  0  3  0  0  0  0  0  0
  -22.0010   -5.2180   22.2140 C   0  0  0  0  0  0  0  0  0  0  0  0
  -22.2980   -4.6990   20.9990 F   0  0  0  0  0  0  0  0  0  0  0  0
  -21.5000   -4.0820   25.6670 F   0  0  0  0  0  0  0  0  0  0  0  0
  -23.1510  -13.9680   21.0170 C   0  0  0  0  0  0  0  0  0  0  0  0
  -22.4390  -13.2950   21.9130 N   0  0  0  0  0  0  0  0  0  0  0  0
  -22.7270  -15.0120   20.5200 O   0  0  0  0  0  0  0  0  0  0  0  0
  -22.7940  -12.4490   22.3350 H   0  0  0  0  0  0  0  0  0  0  0  0
  -21.5240  -13.6310   22.1830 H   0  0  0  0  0  0  0  0  0  0  0  0
  -25.8050  -15.5560   20.1470 N   0  0  0  0  0  0  0  0  0  0  0  0
  -25.0780  -16.2410   20.3270 H   0  0  0  0  0  0  0  0  0  0  0  0
  -26.6760  -15.9750   19.8450 H   0  0  0  0  0  0  0  0  0  0  0  0
  -28.2490  -24.2250   19.5760 C   0  0  0  0  0  2  0  0  0  0  0  0
  -28.1840  -25.8240   20.0210 O   0  0  0  0  0  0  0  0  0  0  0  0
  -24.6360  -31.7430   23.0450 C   0  0  0  0  0  0  0  0  0  0  0  0
  -27.1590  -26.9090   19.9140 C   0  0  0  0  0  0  0  0  0  0  0  0
  -23.4190  -30.3620   21.4080 C   0  0  0  0  0  3  0  0  0  0  0  0
  -24.8490  -28.7840   19.9290 C   0  0  0  0  0  0  0  0  0  0  0  0
  -25.9810  -30.5830   21.2220 C   0  0  0  0  0  2  0  0  0  0  0  0
  -26.0430  -29.1840   20.5400 C   0  0  0  0  0  0  0  0  0  0  0  0
  -27.1860  -28.2640   20.5140 C   0  0  0  0  0  3  0  0  0  0  0  0
  -25.9380  -26.6630   19.2480 C   0  0  0  0  0  3  0  0  0  0  0  0
  -24.8220  -27.5450   19.2630 C   0  0  0  0  0  3  0  0  0  0  0  0
  -23.6260  -29.6980   20.0160 C   0  0  0  0  0  2  0  0  0  0  0  0
  -24.7000  -30.9240   21.9440 N   0  0  0  0  0  0  0  0  0  0  0  0
  -23.5550  -32.0220   23.5880 O   0  0  0  0  0  0  0  0  0  0  0  0
  -22.7460  -29.3520   22.3730 C   0  0  0  0  0  0  0  0  0  0  0  0
  -21.4150  -29.1820   22.2720 N   0  0  0  0  0  0  0  0  0  0  0  0
  -23.4300  -28.7200   23.1830 O   0  0  0  0  0  0  0  0  0  0  0  0
  -20.9160  -29.7440   21.5950 H   0  0  0  0  0  0  0  0  0  0  0  0
  -18.0540  -27.9220   22.7990 C   0  0  0  0  0  0  0  0  0  0  0  0
  -20.6110  -28.2310   23.0460 C   0  0  0  0  0  3  0  0  0  0  0  0
  -20.7320  -26.8020   22.4670 C   0  0  0  0  0  2  0  0  0  0  0  0
  -19.6300  -26.4640   21.4600 C   0  0  0  0  0  2  0  0  0  0  0  0
  -18.2490  -26.5800   22.1120 C   0  0  0  0  0  2  0  0  0  0  0  0
  -19.1610  -28.7040   23.2230 C   0  0  0  0  0  0  0  0  0  0  0  0
  -18.9230  -29.9570   23.8280 C   0  0  0  0  0  3  0  0  0  0  0  0
  -17.6090  -30.4290   24.0120 C   0  0  0  0  0  3  0  0  0  0  0  0
  -16.5160  -29.6450   23.6030 C   0  0  0  0  0  3  0  0  0  0  0  0
  -16.7390  -28.3930   23.0030 C   0  0  0  0  0  3  0  0  0  0  0  0
  -25.9150  -32.3830   23.6630 C   0  0  0  0  0  3  0  0  0  0  0  0
  -25.5920  -33.7730   24.0390 N   0  0  0  0  0  0  0  0  0  0  0  0
  -25.9180  -34.8590   23.3260 C   0  0  0  0  0  0  0  0  0  0  0  0
  -26.5850  -34.7980   22.2910 O   0  0  0  0  0  0  0  0  0  0  0  0
  -25.0020  -33.8940   24.8490 H   0  0  0  0  0  0  0  0  0  0  0  0
  -24.1810  -36.6620   23.0560 C   0  0  0  0  0  1  0  0  0  0  0  0
  -25.4290  -36.2290   23.8410 C   0  0  0  0  0  3  0  0  0  0  0  0
  -27.5630  -37.0970   24.6930 C   0  0  0  0  0  1  0  0  0  0  0  0
  -26.4560  -37.2910   23.7600 N   0  0  0  0  0  0  0  0  0  0  0  0
  -26.0460  -38.2030   23.9410 H   0  0  0  0  0  0  0  0  0  0  0  0
  -26.4560  -31.5970   24.9210 C   0  0  1  0  0  0  0  0  0  0  0  0
  -25.3850  -31.3420   26.0080 C   0  0  0  0  0  1  0  0  0  0  0  0
  -27.0360  -30.2260   24.5090 C   0  0  0  0  0  1  0  0  0  0  0  0
  -27.6190  -32.3860   25.5720 C   0  0  0  0  0  1  0  0  0  0  0  0
  1  5  1  0
  2  3  2  0
  3  7  1  0
  3  6  1  0
  4  2  1  0
  4  1  2  0
  5  6  2  0
  5 12  1  0
  6 13  1  0
  8  2  1  0
  8 10  1  0
  9  7  1  0
 10 14  1  1
 10  9  1  0
 11  4  1  0
 15  1  1  0
 16 21  1  0
 17 18  1  0
 17 16  1  0
 19 18  1  0
 19 26  1  0
 19 20  1  0
 21 15  1  0
 21 20  1  0
 22 15  2  0
 23 24  2  0
 24 43  1  0
 25 24  1  0
 25 28  1  0
 26 27  1  0
 26 23  1  0
 27 25  2  0
 28 29  1  0
 29 30  2  0
 31 34  1  0
 31 30  1  0
 32 31  2  0
 33 32  1  0
 33 28  2  0
 34 35  1  0
 35 36  1  0
 36 37  2  0
 38 37  1  0
 38 42  1  0
 39 38  2  0
 40 35  2  0
 40 39  1  0
 41 40  1  0
 43 44  1  0
 44 47  1  0
 44 46  1  0
 45 43  2  0
 48 23  1  0
 48 49  1  0
 50 48  1  0
 51 52  1  0
 51 10  1  0
 53 64  2  0
 54 52  1  0
 54 59  1  0
 55 63  1  0
 55 65  1  0
 56 62  1  0
 56 58  1  0
 57 63  1  0
 58 57  1  0
 59 58  2  0
 60 61  1  0
 60 54  2  0
 61 56  2  0
 62 55  1  0
 63 53  1  0
 65 67  2  0
 66 65  1  0
 68 66  1  0
 69 78  2  0
 69 74  1  0
 70 66  1  0
 70 74  1  0
 71 70  1  0
 72 73  1  0
 72 71  1  0
 73 69  1  0
 74 75  2  0
 75 76  1  0
 77 76  2  0
 78 77  1  0
 79 53  1  0
 79 80  1  0
 79 89  1  0
 80 83  1  0
 81 85  1  0
 81 80  1  0
 82 81  2  0
 85 84  1  0
 87 85  1  0
 87 88  1  0
 87 86  1  0
 89 92  1  1
 89 90  1  0
 91 89  1  0
M  ISO  4   1 100  15 100  51 101  52 101
M  END
>  <TORSDO>  (71) 
F 17

>  <SCORE>  (71) 
-14.854

>  <name>  (71) 
72

>  <ligand_id>  (71) 
72

>  <original_smiles>  (71) 
[H]c1c([H])c([H])c2c(c1[H])C([H])([H])C([H])([H])C([H])([H])C2([H])N([H])C(=O)C1([H])N(C(=O)C([H])(N([H])C(=O)C([H])(N([H])C([H])([H])[H])C([H])([H])[H])C(C([H])([H])[H])(C([H])([H])[H])C([H])([H])[H])C([H])([H])c2c([H])c(OC([H])([H])C3(C([H])([H])[H])C([H])([H])c4c(C([H])([H])[H])c(C(=O)N5C([H])([H])C([H])([H])C([H])([H])C([H])(n6nc(-c7c([H])c([H])c(Oc8c([H])c([H])c(F)c([H])c8F)c([H])c7[H])c(C(=O)N([H])[H])c6N([H])[H])C5([H])[H])c(C([H])([H])[H])c(C([H])([H])[H])c4C([H])([H])C3([H])[H])c([H])c([H])c2C1([H])[H]

>  <smiles>  (71) 
[H]c1c([H])c([H])c2c(c1[H])C([H])([H])C([H])([H])C([H])([H])C2([H])N([H])C(=O)C1([H])N(C(=O)C([H])(N([H])C(=O)C([H])(N([H])C([H])([H])[H])C([H])([H])[H])C(C([H])([H])[H])(C([H])([H])[H])C([H])([H])[H])C([H])([H])c2c([H])c(OC([H])([H])C3(C([H])([H])[H])C([H])([H])c4c(C([H])([H])[H])c(C(=O)N5C([H])([H])C([H])([H])C([H])([H])C([H])(n6nc(-c7c([H])c([H])c(Oc8c([H])c([H])c(F)c([H])c8F)c([H])c7[H])c(C(=O)N([H])[H])c6N([H])[H])C5([H])[H])c(C([H])([H])[H])c(C([H])([H])[H])c4C([H])([H])C3([H])[H])c([H])c([H])c2C1([H])[H]

$$$$
73:0:0
     RDKit          3D

 97106  0  0  1  0  0  0  0  0999 V2000
  -31.6720  -16.8750   18.9480 C   0  0  0  0  0  3  0  0  0  0  0  0
  -30.8550  -16.0610   19.7780 C   0  0  0  0  0  0  0  0  0  0  0  0
  -31.6530  -18.2830   18.9580 C   0  0  0  0  0  0  0  0  0  0  0  0
  -30.6340  -18.9680   19.6650 C   0  0  0  0  0  0  0  0  0  0  0  0
  -29.9690  -16.7580   20.6500 C   0  0  0  0  0  0  0  0  0  0  0  0
  -29.7910  -18.1790   20.5150 C   0  0  0  0  0  0  0  0  0  0  0  0
  -32.8290  -18.9700   18.2700 C   0  0  0  0  0  2  0  0  0  0  0  0
  -30.4000  -20.5060   19.5400 C   0  0  0  0  0  2  0  0  0  0  0  0
  -33.5890  -19.9270   19.2120 C   0  0  0  0  0  2  0  0  0  0  0  0
  -32.8730  -21.2410   19.5880 C   0  0  0  0  0  2  0  0  0  0  0  0
  -31.4940  -21.4440   18.9250 C   0  0  0  0  0  3  0  0  0  0  0  0
  -29.3220  -16.0530   21.8340 C   0  0  0  0  0  1  0  0  0  0  0  0
  -28.7420  -18.8990   21.3610 C   0  0  0  0  0  1  0  0  0  0  0  0
  -31.2570  -14.5810   19.7960 C   0  0  0  0  0  0  0  0  0  0  0  0
  -30.7140  -12.3900   18.8360 C   0  0  0  0  0  2  0  0  0  0  0  0
  -29.7250  -12.5360   17.6690 C   0  0  0  0  0  2  0  0  0  0  0  0
  -28.2780  -12.4230   18.1830 C   0  0  0  0  0  2  0  0  0  0  0  0
  -28.0090  -13.3470   19.4020 C   0  0  0  0  0  3  0  0  0  0  0  0
  -29.1360  -13.2300   20.4450 C   0  0  0  0  0  2  0  0  0  0  0  0
  -30.4240  -13.4890   19.7840 N   0  0  0  0  0  0  0  0  0  0  0  0
  -32.4380  -14.4350   19.4820 O   0  0  0  0  0  0  0  0  0  0  0  0
  -25.7170  -14.0010   20.3630 C   0  0  0  0  0  0  0  0  0  0  0  0
  -24.6480  -13.2560   20.7770 C   0  0  0  0  0  0  0  0  0  0  0  0
  -25.0450  -11.8880   20.6440 C   0  0  0  0  0  0  0  0  0  0  0  0
  -26.6970  -13.0940   19.9920 N   0  0  0  0  0  0  0  0  0  0  0  0
  -26.3020  -11.8140   20.2210 N   0  0  0  0  0  0  0  0  0  0  0  0
  -24.2770  -10.6490   20.8330 C   0  0  0  0  0  0  0  0  0  0  0  0
  -24.7040   -9.6460   21.7300 C   0  0  0  0  0  3  0  0  0  0  0  0
  -23.9400   -8.4730   21.9110 C   0  0  0  0  0  3  0  0  0  0  0  0
  -22.7320   -8.2950   21.1970 C   0  0  0  0  0  0  0  0  0  0  0  0
  -22.3180   -9.2900   20.2930 C   0  0  0  0  0  3  0  0  0  0  0  0
  -23.0830  -10.4550   20.1090 C   0  0  0  0  0  3  0  0  0  0  0  0
  -21.9430   -7.1720   21.2850 O   0  0  0  0  0  0  0  0  0  0  0  0
  -21.8830   -6.4220   22.4320 C   0  0  0  0  0  0  0  0  0  0  0  0
  -21.4760   -6.9760   23.6650 C   0  0  0  0  0  3  0  0  0  0  0  0
  -21.3630   -6.1540   24.8030 C   0  0  0  0  0  3  0  0  0  0  0  0
  -21.6430   -4.7780   24.7090 C   0  0  0  0  0  0  0  0  0  0  0  0
  -22.0400   -4.2230   23.4800 C   0  0  0  0  0  3  0  0  0  0  0  0
  -22.1560   -5.0420   22.3430 C   0  0  0  0  0  0  0  0  0  0  0  0
  -22.5190   -4.4980   21.1570 F   0  0  0  0  0  0  0  0  0  0  0  0
  -21.5230   -3.9850   25.7990 F   0  0  0  0  0  0  0  0  0  0  0  0
  -23.2980  -13.7770   21.1820 C   0  0  0  0  0  0  0  0  0  0  0  0
  -22.6070  -13.0860   22.0780 N   0  0  0  0  0  0  0  0  0  0  0  0
  -22.8630  -14.8340   20.7260 O   0  0  0  0  0  0  0  0  0  0  0  0
  -22.9670  -12.2350   22.4830 H   0  0  0  0  0  0  0  0  0  0  0  0
  -21.7030  -13.4280   22.3710 H   0  0  0  0  0  0  0  0  0  0  0  0
  -25.9350  -15.3720   20.2480 N   0  0  0  0  0  0  0  0  0  0  0  0
  -25.2170  -16.0560   20.4610 H   0  0  0  0  0  0  0  0  0  0  0  0
  -26.8050  -15.7920   19.9490 H   0  0  0  0  0  0  0  0  0  0  0  0
  -31.9610  -23.7050   17.7100 C   0  0  0  0  0  1  0  0  0  0  0  0
  -31.0800  -22.9560   18.7520 C   0  0  0  0  0  3  0  0  0  0  0  0
  -31.0370  -23.7170   20.0330 N   0  0  0  0  0  4  0  0  0  0  0  0
  -30.5500  -23.1800   20.7340 H   0  0  0  0  0  0  0  0  0  0  0  0
  -31.9950  -23.7840   20.3440 H   0  0  0  0  0  0  0  0  0  0  0  0
  -30.5360  -25.1290   20.0190 C   0  0  0  0  0  2  0  0  0  0  0  0
  -29.0620  -25.3670   19.5810 C   0  0  0  0  0  2  0  0  0  0  0  0
  -28.8520  -26.7930   19.5870 O   0  0  0  0  0  0  0  0  0  0  0  0
  -24.6850  -31.4520   22.9710 C   0  0  0  0  0  0  0  0  0  0  0  0
  -27.5870  -27.3540   19.6400 C   0  0  0  0  0  0  0  0  0  0  0  0
  -23.5520  -30.1040   21.2280 C   0  0  0  0  0  3  0  0  0  0  0  0
  -25.0940  -28.7200   19.7240 C   0  0  0  0  0  0  0  0  0  0  0  0
  -26.0570  -30.5870   21.0800 C   0  0  0  0  0  2  0  0  0  0  0  0
  -26.2130  -29.2640   20.3600 C   0  0  0  0  0  0  0  0  0  0  0  0
  -27.4520  -28.5860   20.3210 C   0  0  0  0  0  3  0  0  0  0  0  0
  -26.4440  -26.8050   19.0190 C   0  0  0  0  0  3  0  0  0  0  0  0
  -25.2030  -27.4820   19.0600 C   0  0  0  0  0  3  0  0  0  0  0  0
  -23.8060  -29.5180   19.8090 C   0  0  0  0  0  2  0  0  0  0  0  0
  -24.7800  -30.7290   21.8190 N   0  0  0  0  0  0  0  0  0  0  0  0
  -23.5920  -31.6310   23.5270 O   0  0  0  0  0  0  0  0  0  0  0  0
  -22.9490  -28.9950   22.1170 C   0  0  0  0  0  0  0  0  0  0  0  0
  -21.6350  -28.7620   21.9840 N   0  0  0  0  0  0  0  0  0  0  0  0
  -23.6640  -28.3470   22.8900 O   0  0  0  0  0  0  0  0  0  0  0  0
  -21.1120  -29.3490   21.3490 H   0  0  0  0  0  0  0  0  0  0  0  0
  -18.3280  -27.3810   22.4100 C   0  0  0  0  0  0  0  0  0  0  0  0
  -20.8720  -27.7340   22.6930 C   0  0  0  0  0  3  0  0  0  0  0  0
  -21.0360  -26.3520   22.0200 C   0  0  0  0  0  2  0  0  0  0  0  0
  -19.9460  -26.0530   20.9850 C   0  0  0  0  0  2  0  0  0  0  0  0
  -18.5620  -26.0920   21.6410 C   0  0  0  0  0  2  0  0  0  0  0  0
  -19.4140  -28.1590   22.8930 C   0  0  0  0  0  0  0  0  0  0  0  0
  -19.1410  -29.3680   23.5690 C   0  0  0  0  0  3  0  0  0  0  0  0
  -17.8150  -29.7980   23.7720 C   0  0  0  0  0  3  0  0  0  0  0  0
  -16.7450  -29.0140   23.3080 C   0  0  0  0  0  3  0  0  0  0  0  0
  -17.0020  -27.8090   22.6280 C   0  0  0  0  0  3  0  0  0  0  0  0
  -25.9380  -32.1050   23.6350 C   0  0  0  0  0  3  0  0  0  0  0  0
  -26.4730  -31.3050   24.8890 C   0  0  1  0  0  0  0  0  0  0  0  0
  -25.3900  -30.9890   25.9460 C   0  0  0  0  0  1  0  0  0  0  0  0
  -27.1050  -29.9630   24.4490 C   0  0  0  0  0  1  0  0  0  0  0  0
  -27.5880  -32.1110   25.5980 C   0  0  0  0  0  1  0  0  0  0  0  0
  -25.5710  -33.4740   24.0150 N   0  0  0  0  0  0  0  0  0  0  0  0
  -25.8820  -34.5730   23.3130 C   0  0  0  0  0  0  0  0  0  0  0  0
  -26.5820  -34.5410   22.2970 O   0  0  0  0  0  0  0  0  0  0  0  0
  -24.9540  -33.5630   24.8090 H   0  0  0  0  0  0  0  0  0  0  0  0
  -24.0920  -36.3170   23.0020 C   0  0  0  0  0  1  0  0  0  0  0  0
  -25.3310  -35.9220   23.8190 C   0  0  0  0  0  3  0  0  0  0  0  0
  -27.4020  -36.8620   24.7470 C   0  0  0  0  0  1  0  0  0  0  0  0
  -26.3230  -37.0180   23.7770 N   0  0  0  0  0  0  0  0  0  0  0  0
  -25.8720  -37.9120   23.9520 H   0  0  0  0  0  0  0  0  0  0  0  0
  1  3  2  0
  1  2  1  0
  2 14  1  0
  2  5  2  0
  3  4  1  0
  4  6  2  0
  5 12  1  0
  6  5  1  0
  6 13  1  0
  7  3  1  0
  7  9  1  0
  8  4  1  0
  9 10  1  0
 11 51  1  0
 11  8  1  0
 11 10  1  0
 15 20  1  0
 16 17  1  0
 16 15  1  0
 18 17  1  0
 18 25  1  0
 18 19  1  0
 20 14  1  0
 20 19  1  0
 21 14  2  0
 22 23  2  0
 23 42  1  0
 24 23  1  0
 24 27  1  0
 25 26  1  0
 25 22  1  0
 26 24  2  0
 27 28  1  0
 28 29  2  0
 30 33  1  0
 30 29  1  0
 31 30  2  0
 32 31  1  0
 32 27  2  0
 33 34  1  0
 34 35  1  0
 35 36  2  0
 37 36  1  0
 37 41  1  0
 38 37  2  0
 39 34  2  0
 39 38  1  0
 40 39  1  0
 42 43  1  0
 43 46  1  0
 43 45  1  0
 44 42  2  0
 47 22  1  0
 47 48  1  0
 49 47  1  0
 51 50  1  0
 51 52  1  0
 52 54  1  0
 52 53  1  0
 55 52  1  0
 56 57  1  0
 56 55  1  0
 57 59  1  0
 58 69  2  0
 59 64  1  0
 60 68  1  0
 60 70  1  0
 61 67  1  0
 61 63  1  0
 62 68  1  0
 63 62  1  0
 64 63  2  0
 65 66  1  0
 65 59  2  0
 66 61  2  0
 67 60  1  0
 68 58  1  0
 70 72  2  0
 71 70  1  0
 73 71  1  0
 74 83  2  0
 74 79  1  0
 75 71  1  0
 75 79  1  0
 76 75  1  0
 77 78  1  0
 77 76  1  0
 78 74  1  0
 79 80  2  0
 80 81  1  0
 82 81  2  0
 83 82  1  0
 84 58  1  0
 84 89  1  0
 84 85  1  0
 85 88  1  1
 85 86  1  0
 87 85  1  0
 89 92  1  0
 90 94  1  0
 90 89  1  0
 91 90  2  0
 94 93  1  0
 96 94  1  0
 96 97  1  0
 96 95  1  0
M  ISO  4   2 100  14 100  56 101  57 101
M  END
>  <TORSDO>  (72) 
F 20

>  <SCORE>  (72) 
-11.163

>  <name>  (72) 
73

>  <ligand_id>  (72) 
73

>  <original_smiles>  (72) 
[H]c1c([H])c([H])c2c(c1[H])C([H])([H])C([H])([H])C([H])([H])C2([H])N([H])C(=O)C1([H])N(C(=O)C([H])(N([H])C(=O)C([H])(N([H])C([H])([H])[H])C([H])([H])[H])C(C([H])([H])[H])(C([H])([H])[H])C([H])([H])[H])C([H])([H])c2c([H])c(OC([H])([H])C([H])([H])[N+]([H])([H])C([H])(C([H])([H])[H])C3([H])C([H])([H])c4c(C([H])([H])[H])c(C([H])([H])[H])c(C(=O)N5C([H])([H])C([H])([H])C([H])([H])C([H])(n6nc(-c7c([H])c([H])c(Oc8c([H])c([H])c(F)c([H])c8F)c([H])c7[H])c(C(=O)N([H])[H])c6N([H])[H])C5([H])[H])c([H])c4C([H])([H])C([H])([H])C3([H])[H])c([H])c([H])c2C1([H])[H]

>  <smiles>  (72) 
[H]c1c([H])c([H])c2c(c1[H])C([H])([H])C([H])([H])C([H])([H])C2([H])N([H])C(=O)C1([H])N(C(=O)C([H])(N([H])C(=O)C([H])(N([H])C([H])([H])[H])C([H])([H])[H])C(C([H])([H])[H])(C([H])([H])[H])C([H])([H])[H])C([H])([H])c2c([H])c(OC([H])([H])C([H])([H])[N+]([H])([H])C([H])(C([H])([H])[H])C3([H])C([H])([H])c4c(C([H])([H])[H])c(C([H])([H])[H])c(C(=O)N5C([H])([H])C([H])([H])C([H])([H])C([H])(n6nc(-c7c([H])c([H])c(Oc8c([H])c([H])c(F)c([H])c8F)c([H])c7[H])c(C(=O)N([H])[H])c6N([H])[H])C5([H])[H])c([H])c4C([H])([H])C([H])([H])C3([H])[H])c([H])c([H])c2C1([H])[H]

$$$$
74:0:0
     RDKit          3D

 95104  0  0  1  0  0  0  0  0999 V2000
  -31.0440  -24.2050   19.1500 C   0  0  0  0  0  3  0  0  0  0  0  0
  -30.3390  -24.6950   18.0290 C   0  0  0  0  0  3  0  0  0  0  0  0
  -30.3140  -23.6870   20.2370 C   0  0  0  0  0  0  0  0  0  0  0  0
  -28.9210  -23.5600   20.0420 C   0  0  0  0  0  3  0  0  0  0  0  0
  -28.9570  -24.9810   18.1480 C   0  0  0  0  0  0  0  0  0  0  0  0
  -28.3100  -24.7880   19.4010 C   0  0  0  0  0  3  0  0  0  0  0  0
  -28.3630  -25.7240   17.1300 N   0  0  0  0  0  0  0  0  0  0  0  0
  -28.9840  -26.1100   16.4280 H   0  0  0  0  0  0  0  0  0  0  0  0
  -27.6690  -26.4010   17.4300 H   0  0  0  0  0  0  0  0  0  0  0  0
  -31.6510  -21.8780   21.5290 C   0  0  0  0  0  1  0  0  0  0  0  0
  -31.0080  -23.2670   21.5270 C   0  0  0  0  0  2  0  0  0  0  0  0
  -28.2060  -26.1510   19.9750 O   0  0  0  0  0  0  0  0  0  0  0  0
  -24.5360  -31.7410   23.0920 C   0  0  0  0  0  0  0  0  0  0  0  0
  -27.1230  -27.1160   19.9100 C   0  0  0  0  0  0  0  0  0  0  0  0
  -23.3270  -30.3800   21.4290 C   0  0  0  0  0  3  0  0  0  0  0  0
  -24.7710  -28.8480   19.9460 C   0  0  0  0  0  0  0  0  0  0  0  0
  -25.8760  -30.6680   21.2420 C   0  0  0  0  0  2  0  0  0  0  0  0
  -25.9540  -29.2910   20.5510 C   0  0  0  0  0  0  0  0  0  0  0  0
  -27.1240  -28.4420   20.5150 C   0  0  0  0  0  3  0  0  0  0  0  0
  -25.9060  -26.7690   19.2830 C   0  0  0  0  0  3  0  0  0  0  0  0
  -24.7600  -27.6020   19.3000 C   0  0  0  0  0  3  0  0  0  0  0  0
  -23.5360  -29.7360   20.0320 C   0  0  0  0  0  2  0  0  0  0  0  0
  -24.6000  -30.9500   21.9760 N   0  0  0  0  0  0  0  0  0  0  0  0
  -23.4530  -32.0040   23.6400 O   0  0  0  0  0  0  0  0  0  0  0  0
  -22.6630  -29.3470   22.3740 C   0  0  0  0  0  0  0  0  0  0  0  0
  -21.3330  -29.1750   22.2600 N   0  0  0  0  0  0  0  0  0  0  0  0
  -23.3470  -28.7030   23.1720 O   0  0  0  0  0  0  0  0  0  0  0  0
  -20.8380  -29.7470   21.5910 H   0  0  0  0  0  0  0  0  0  0  0  0
  -17.9640  -27.9530   22.7810 C   0  0  0  0  0  0  0  0  0  0  0  0
  -20.5250  -28.2150   23.0160 C   0  0  0  0  0  3  0  0  0  0  0  0
  -20.6200  -26.8000   22.3990 C   0  0  0  0  0  2  0  0  0  0  0  0
  -19.5040  -26.5050   21.3910 C   0  0  0  0  0  2  0  0  0  0  0  0
  -18.1320  -26.6270   22.0600 C   0  0  0  0  0  2  0  0  0  0  0  0
  -19.0860  -28.7070   23.2160 C   0  0  0  0  0  0  0  0  0  0  0  0
  -18.8730  -29.9480   23.8530 C   0  0  0  0  0  3  0  0  0  0  0  0
  -17.5690  -30.4380   24.0580 C   0  0  0  0  0  3  0  0  0  0  0  0
  -16.4610  -29.6820   23.6380 C   0  0  0  0  0  3  0  0  0  0  0  0
  -16.6590  -28.4420   23.0060 C   0  0  0  0  0  3  0  0  0  0  0  0
  -25.8170  -32.3690   23.7230 C   0  0  0  0  0  3  0  0  0  0  0  0
  -26.3460  -31.5690   24.9770 C   0  0  1  0  0  0  0  0  0  0  0  0
  -25.2610  -31.3000   26.0460 C   0  0  0  0  0  1  0  0  0  0  0  0
  -26.9350  -30.2030   24.5520 C   0  0  0  0  0  1  0  0  0  0  0  0
  -27.4970  -32.3520   25.6520 C   0  0  0  0  0  1  0  0  0  0  0  0
  -25.4950  -33.7540   24.1020 N   0  0  0  0  0  0  0  0  0  0  0  0
  -25.8100  -34.8370   23.3800 C   0  0  0  0  0  0  0  0  0  0  0  0
  -26.4680  -34.7760   22.3390 O   0  0  0  0  0  0  0  0  0  0  0  0
  -24.9090  -33.8760   24.9150 H   0  0  0  0  0  0  0  0  0  0  0  0
  -24.0690  -36.6360   23.1110 C   0  0  0  0  0  1  0  0  0  0  0  0
  -25.3200  -36.2070   23.8940 C   0  0  0  0  0  3  0  0  0  0  0  0
  -27.4540  -37.0790   24.7420 C   0  0  0  0  0  1  0  0  0  0  0  0
  -26.3460  -37.2700   23.8100 N   0  0  0  0  0  0  0  0  0  0  0  0
  -25.9340  -38.1820   23.9900 H   0  0  0  0  0  0  0  0  0  0  0  0
  -28.4150  -21.9730   20.1140 C   0  0  0  0  0  2  0  0  0  0  0  0
  -29.2220  -20.5890   19.5030 C   0  0  0  0  0  2  0  0  0  0  0  0
  -30.4690  -15.0420   19.8510 C   0  0  0  0  0  0  0  0  0  0  0  0
  -30.2840  -12.6640   18.9540 C   0  0  0  0  0  2  0  0  0  0  0  0
  -29.2770  -12.5350   17.7870 C   0  0  0  0  0  2  0  0  0  0  0  0
  -27.8590  -12.2850   18.3270 C   0  0  0  0  0  2  0  0  0  0  0  0
  -27.5010  -13.2450   19.4890 C   0  0  0  0  0  3  0  0  0  0  0  0
  -28.6280  -13.3360   20.5440 C   0  0  0  0  0  2  0  0  0  0  0  0
  -29.8350  -13.7880   19.8370 N   0  0  0  0  0  0  0  0  0  0  0  0
  -31.6530  -15.0320   19.4890 O   0  0  0  0  0  0  0  0  0  0  0  0
  -28.0810  -18.1430   20.2830 C   0  0  0  0  0  2  0  0  0  0  0  0
  -28.5050  -16.6530   20.5970 C   0  0  0  0  0  2  0  0  0  0  0  0
  -30.2730  -17.7610   19.5910 C   0  0  0  0  0  2  0  0  0  0  0  0
  -29.3450  -19.0080   20.1620 C   0  0  0  0  0  3  0  0  0  0  0  0
  -29.7960  -16.3230   19.9690 N   0  0  0  0  0  0  0  0  0  0  0  0
  -25.1820  -13.8070   20.4140 C   0  0  0  0  0  0  0  0  0  0  0  0
  -24.1490  -13.0230   20.8470 C   0  0  0  0  0  0  0  0  0  0  0  0
  -24.6100  -11.6750   20.7500 C   0  0  0  0  0  0  0  0  0  0  0  0
  -26.2060  -12.9360   20.0820 N   0  0  0  0  0  0  0  0  0  0  0  0
  -25.8760  -11.6470   20.3500 N   0  0  0  0  0  0  0  0  0  0  0  0
  -23.8940  -10.4090   20.9570 C   0  0  0  0  0  0  0  0  0  0  0  0
  -24.3330   -9.4600   21.9060 C   0  0  0  0  0  3  0  0  0  0  0  0
  -23.6160   -8.2600   22.1000 C   0  0  0  0  0  3  0  0  0  0  0  0
  -22.4460   -8.0030   21.3460 C   0  0  0  0  0  0  0  0  0  0  0  0
  -22.0270   -8.9400   20.3860 C   0  0  0  0  0  3  0  0  0  0  0  0
  -22.7460  -10.1310   20.1900 C   0  0  0  0  0  3  0  0  0  0  0  0
  -21.6980   -6.8540   21.4510 O   0  0  0  0  0  0  0  0  0  0  0  0
  -21.5910   -6.1720   22.6360 C   0  0  0  0  0  0  0  0  0  0  0  0
  -21.0660   -6.7760   23.7990 C   0  0  0  0  0  3  0  0  0  0  0  0
  -20.9080   -6.0190   24.9760 C   0  0  0  0  0  3  0  0  0  0  0  0
  -21.2650   -4.6570   24.9910 C   0  0  0  0  0  0  0  0  0  0  0  0
  -21.7820   -4.0520   23.8320 C   0  0  0  0  0  3  0  0  0  0  0  0
  -21.9410   -4.8070   22.6570 C   0  0  0  0  0  0  0  0  0  0  0  0
  -22.4220   -4.2140   21.5360 F   0  0  0  0  0  0  0  0  0  0  0  0
  -21.1060   -3.9260   26.1190 F   0  0  0  0  0  0  0  0  0  0  0  0
  -22.7780  -13.4960   21.2290 C   0  0  0  0  0  0  0  0  0  0  0  0
  -22.1100  -12.7800   22.1260 N   0  0  0  0  0  0  0  0  0  0  0  0
  -22.3090  -14.5330   20.7650 O   0  0  0  0  0  0  0  0  0  0  0  0
  -22.5040  -11.9390   22.5220 H   0  0  0  0  0  0  0  0  0  0  0  0
  -21.1920  -13.0790   22.4250 H   0  0  0  0  0  0  0  0  0  0  0  0
  -25.3130  -15.1800   20.2500 N   0  0  0  0  0  0  0  0  0  0  0  0
  -24.5420  -15.8140   20.4280 H   0  0  0  0  0  0  0  0  0  0  0  0
  -26.1140  -15.6370   19.8340 H   0  0  0  0  0  0  0  0  0  0  0  0
  1  3  2  0
  2  5  2  0
  2  1  1  0
  3 11  1  0
  4 53  1  0
  4  3  1  0
  5  6  1  0
  6 12  1  0
  6  4  1  0
  7  9  1  0
  7  5  1  0
  8  7  1  0
 11 10  1  0
 13 24  2  0
 14 12  1  0
 14 19  1  0
 15 23  1  0
 15 25  1  0
 16 22  1  0
 16 18  1  0
 17 23  1  0
 18 17  1  0
 19 18  2  0
 20 21  1  0
 20 14  2  0
 21 16  2  0
 22 15  1  0
 23 13  1  0
 25 27  2  0
 26 25  1  0
 28 26  1  0
 29 38  2  0
 29 34  1  0
 30 26  1  0
 30 34  1  0
 31 30  1  0
 32 33  1  0
 32 31  1  0
 33 29  1  0
 34 35  2  0
 35 36  1  0
 37 36  2  0
 38 37  1  0
 39 13  1  0
 39 44  1  0
 39 40  1  0
 40 43  1  1
 40 41  1  0
 42 40  1  0
 44 47  1  0
 45 49  1  0
 45 44  1  0
 46 45  2  0
 49 48  1  0
 51 49  1  0
 51 52  1  0
 51 50  1  0
 54 53  1  0
 55 67  1  0
 56 61  1  0
 57 58  1  0
 57 56  1  0
 59 58  1  0
 59 71  1  0
 59 60  1  0
 61 55  1  0
 61 60  1  0
 62 55  2  0
 63 64  1  0
 65 67  1  0
 65 66  1  0
 66 54  1  0
 66 63  1  0
 67 64  1  0
 68 69  2  0
 69 88  1  0
 70 69  1  0
 70 73  1  0
 71 72  1  0
 71 68  1  0
 72 70  2  0
 73 74  1  0
 74 75  2  0
 76 79  1  0
 76 75  1  0
 77 76  2  0
 78 77  1  0
 78 73  2  0
 79 80  1  0
 80 85  2  0
 80 81  1  0
 81 82  2  0
 82 83  1  0
 83 87  1  0
 84 83  2  0
 85 84  1  0
 86 85  1  0
 88 89  1  0
 89 92  1  0
 89 91  1  0
 90 88  2  0
 93 68  1  0
 93 94  1  0
 95 93  1  0
M  ISO  4   6 101  12 101  55 100  67 100
M  END
>  <TORSDO>  (73) 
F 20

>  <SCORE>  (73) 
-14.772

>  <name>  (73) 
74

>  <ligand_id>  (73) 
74

>  <original_smiles>  (73) 
[H]c1c([H])c([H])c2c(c1[H])C([H])([H])C([H])([H])C([H])([H])C2([H])N([H])C(=O)C1([H])N(C(=O)C([H])(N([H])C(=O)C([H])(N([H])C([H])([H])[H])C([H])([H])[H])C(C([H])([H])[H])(C([H])([H])[H])C([H])([H])[H])C([H])([H])c2c([H])c(Oc3c(N([H])[H])c([H])c([H])c(C([H])([H])C([H])([H])[H])c3C([H])([H])C([H])([H])C3([H])C([H])([H])N(C(=O)N4C([H])([H])C([H])([H])C([H])([H])C([H])(n5nc(-c6c([H])c([H])c(Oc7c([H])c([H])c(F)c([H])c7F)c([H])c6[H])c(C(=O)N([H])[H])c5N([H])[H])C4([H])[H])C([H])([H])C3([H])[H])c([H])c([H])c2C1([H])[H]

>  <smiles>  (73) 
[H]c1c([H])c([H])c2c(c1[H])C([H])([H])C([H])([H])C([H])([H])C2([H])N([H])C(=O)C1([H])N(C(=O)C([H])(N([H])C(=O)C([H])(N([H])C([H])([H])[H])C([H])([H])[H])C(C([H])([H])[H])(C([H])([H])[H])C([H])([H])[H])C([H])([H])c2c([H])c(Oc3c(N([H])[H])c([H])c([H])c(C([H])([H])C([H])([H])[H])c3C([H])([H])C([H])([H])C3([H])C([H])([H])N(C(=O)N4C([H])([H])C([H])([H])C([H])([H])C([H])(n5nc(-c6c([H])c([H])c(Oc7c([H])c([H])c(F)c([H])c7F)c([H])c6[H])c(C(=O)N([H])[H])c5N([H])[H])C4([H])[H])C([H])([H])C3([H])[H])c([H])c([H])c2C1([H])[H]

$$$$
75:0:0
     RDKit          3D

 92101  0  0  1  0  0  0  0  0999 V2000
  -28.8820  -19.5930   20.9060 C   0  0  0  0  0  0  0  0  0  0  0  0
  -27.5010  -20.1660   20.6320 C   0  0  0  0  0  2  0  0  0  0  0  0
  -27.5640  -21.6960   20.5060 C   0  0  0  0  0  2  0  0  0  0  0  0
  -30.6990  -22.6030   20.4570 C   0  0  0  0  0  2  0  0  0  0  0  0
  -30.7030  -24.2080   20.0970 C   0  0  0  0  0  2  0  0  0  0  0  0
  -28.3510  -23.9240   19.6520 C   0  0  0  0  0  2  0  0  0  0  0  0
  -29.8970  -19.8160   19.7940 C   0  0  0  0  0  3  0  0  0  0  0  0
  -29.9610  -21.5390   19.5320 C   0  0  0  0  0  3  0  0  0  0  0  0
  -28.5160  -22.2900   19.4190 C   0  0  1  0  0  0  0  0  0  0  0  0
  -29.4910  -24.9890   19.3700 C   0  0  2  0  0  0  0  0  0  0  0  0
  -27.9330  -21.9610   18.0280 C   0  0  0  0  0  1  0  0  0  0  0  0
  -29.8340  -25.0120   17.8660 C   0  0  0  0  0  1  0  0  0  0  0  0
  -29.1510  -19.0040   21.9560 O   0  0  0  0  0  0  0  0  0  0  0  0
  -29.3310  -26.5160   19.7840 O   0  0  0  0  0  0  0  0  0  0  0  0
  -25.0490  -31.4380   23.2780 C   0  0  0  0  0  0  0  0  0  0  0  0
  -28.1750  -27.4010   19.7650 C   0  0  0  0  0  0  0  0  0  0  0  0
  -24.0580  -30.2110   21.3850 C   0  0  0  0  0  3  0  0  0  0  0  0
  -25.7060  -28.9720   19.8420 C   0  0  0  0  0  0  0  0  0  0  0  0
  -26.5890  -30.6850   21.4190 C   0  0  0  0  0  2  0  0  0  0  0  0
  -26.8140  -29.4110   20.5770 C   0  0  0  0  0  0  0  0  0  0  0  0
  -28.0440  -28.6460   20.5180 C   0  0  0  0  0  3  0  0  0  0  0  0
  -27.0220  -27.0640   19.0240 C   0  0  0  0  0  3  0  0  0  0  0  0
  -25.8260  -27.8180   19.0520 C   0  0  0  0  0  3  0  0  0  0  0  0
  -24.4070  -29.7600   19.9410 C   0  0  0  0  0  2  0  0  0  0  0  0
  -25.2480  -30.7940   22.0860 N   0  0  0  0  0  0  0  0  0  0  0  0
  -23.9160  -31.5580   23.7710 O   0  0  0  0  0  0  0  0  0  0  0  0
  -23.4170  -29.0270   22.1510 C   0  0  0  0  0  0  0  0  0  0  0  0
  -22.1080  -28.7960   21.9430 N   0  0  0  0  0  0  0  0  0  0  0  0
  -24.1020  -28.3220   22.8970 O   0  0  0  0  0  0  0  0  0  0  0  0
  -21.6080  -29.4220   21.3280 H   0  0  0  0  0  0  0  0  0  0  0  0
  -18.7880  -27.3630   22.1710 C   0  0  0  0  0  0  0  0  0  0  0  0
  -21.3270  -27.7000   22.5240 C   0  0  0  0  0  3  0  0  0  0  0  0
  -21.5070  -26.3980   21.7100 C   0  0  0  0  0  2  0  0  0  0  0  0
  -20.4310  -26.2050   20.6350 C   0  0  0  0  0  2  0  0  0  0  0  0
  -19.0390  -26.1660   21.2700 C   0  0  0  0  0  2  0  0  0  0  0  0
  -19.8620  -28.0920   22.7460 C   0  0  0  0  0  0  0  0  0  0  0  0
  -19.5710  -29.2160   23.5510 C   0  0  0  0  0  3  0  0  0  0  0  0
  -18.2410  -29.6120   23.7820 C   0  0  0  0  0  3  0  0  0  0  0  0
  -17.1810  -28.8790   23.2210 C   0  0  0  0  0  3  0  0  0  0  0  0
  -17.4550  -27.7540   22.4210 C   0  0  0  0  0  3  0  0  0  0  0  0
  -26.2320  -32.0730   24.0700 C   0  0  0  0  0  3  0  0  0  0  0  0
  -25.8370  -33.4390   24.4520 N   0  0  0  0  0  0  0  0  0  0  0  0
  -26.1740  -34.5490   23.7810 C   0  0  0  0  0  0  0  0  0  0  0  0
  -26.9160  -34.5330   22.7960 O   0  0  0  0  0  0  0  0  0  0  0  0
  -25.1840  -33.5220   25.2170 H   0  0  0  0  0  0  0  0  0  0  0  0
  -24.3900  -36.2890   23.4270 C   0  0  0  0  0  1  0  0  0  0  0  0
  -25.6020  -35.8900   24.2840 C   0  0  0  0  0  3  0  0  0  0  0  0
  -27.6380  -36.8240   25.2900 C   0  0  0  0  0  1  0  0  0  0  0  0
  -26.5900  -36.9900   24.2860 N   0  0  0  0  0  0  0  0  0  0  0  0
  -26.1350  -37.8840   24.4500 H   0  0  0  0  0  0  0  0  0  0  0  0
  -26.6370  -31.2430   25.3510 C   0  0  1  0  0  0  0  0  0  0  0  0
  -25.4470  -30.9230   26.2870 C   0  0  0  0  0  1  0  0  0  0  0  0
  -27.2930  -29.9010   24.9530 C   0  0  0  0  0  1  0  0  0  0  0  0
  -27.6910  -32.0230   26.1700 C   0  0  0  0  0  1  0  0  0  0  0  0
  -31.0220  -18.5100   19.7700 C   0  0  0  0  0  3  0  0  0  0  0  0
  -30.6750  -16.8640   20.1560 C   0  0  0  0  0  3  0  0  0  0  0  0
  -31.5620  -15.4450   19.9310 C   0  0  0  0  0  0  0  0  0  0  0  0
  -31.5170  -13.0080   19.1640 C   0  0  0  0  0  2  0  0  0  0  0  0
  -30.5530  -12.8580   17.9600 C   0  0  0  0  0  2  0  0  0  0  0  0
  -29.1030  -12.6450   18.4370 C   0  0  0  0  0  2  0  0  0  0  0  0
  -28.7060  -13.6400   19.5580 C   0  0  0  0  0  3  0  0  0  0  0  0
  -29.7850  -13.7450   20.6540 C   0  0  0  0  0  2  0  0  0  0  0  0
  -31.0380  -14.1480   20.0030 N   0  0  0  0  0  0  0  0  0  0  0  0
  -32.7450  -15.5200   19.5770 O   0  0  0  0  0  0  0  0  0  0  0  0
  -26.3940  -14.2550   20.4640 C   0  0  0  0  0  0  0  0  0  0  0  0
  -25.3200  -13.4990   20.8410 C   0  0  0  0  0  0  0  0  0  0  0  0
  -25.7260  -12.1360   20.7000 C   0  0  0  0  0  0  0  0  0  0  0  0
  -27.3850  -13.3560   20.1100 N   0  0  0  0  0  0  0  0  0  0  0  0
  -26.9960  -12.0710   20.3170 N   0  0  0  0  0  0  0  0  0  0  0  0
  -24.9570  -10.8930   20.8480 C   0  0  0  0  0  0  0  0  0  0  0  0
  -25.3000   -9.9230   21.8160 C   0  0  0  0  0  3  0  0  0  0  0  0
  -24.5330   -8.7460   21.9530 C   0  0  0  0  0  3  0  0  0  0  0  0
  -23.4090   -8.5300   21.1210 C   0  0  0  0  0  0  0  0  0  0  0  0
  -23.0860   -9.4880   20.1440 C   0  0  0  0  0  3  0  0  0  0  0  0
  -23.8530  -10.6560   20.0050 C   0  0  0  0  0  3  0  0  0  0  0  0
  -22.6210   -7.4050   21.1640 O   0  0  0  0  0  0  0  0  0  0  0  0
  -22.2990   -6.7980   22.3520 C   0  0  0  0  0  0  0  0  0  0  0  0
  -21.6090   -7.4830   23.3750 C   0  0  0  0  0  3  0  0  0  0  0  0
  -21.2350   -6.8010   24.5500 C   0  0  0  0  0  3  0  0  0  0  0  0
  -21.5420   -5.4360   24.7000 C   0  0  0  0  0  0  0  0  0  0  0  0
  -22.2240   -4.7510   23.6800 C   0  0  0  0  0  3  0  0  0  0  0  0
  -22.5980   -5.4300   22.5070 C   0  0  0  0  0  0  0  0  0  0  0  0
  -23.2370   -4.7590   21.5180 F   0  0  0  0  0  0  0  0  0  0  0  0
  -21.1770   -4.7790   25.8270 F   0  0  0  0  0  0  0  0  0  0  0  0
  -23.9590  -14.0100   21.2140 C   0  0  0  0  0  0  0  0  0  0  0  0
  -23.2560  -13.3000   22.0900 N   0  0  0  0  0  0  0  0  0  0  0  0
  -23.5310  -15.0730   20.7650 O   0  0  0  0  0  0  0  0  0  0  0  0
  -23.6170  -12.4400   22.4730 H   0  0  0  0  0  0  0  0  0  0  0  0
  -22.3450  -13.6240   22.3820 H   0  0  0  0  0  0  0  0  0  0  0  0
  -26.6040  -15.6280   20.3670 N   0  0  0  0  0  0  0  0  0  0  0  0
  -25.8710  -16.3000   20.5600 H   0  0  0  0  0  0  0  0  0  0  0  0
  -27.4510  -16.0550   20.0160 H   0  0  0  0  0  0  0  0  0  0  0  0
  1 13  2  0
  2  1  1  0
  3  2  1  0
  5  4  1  0
  7 55  1  0
  7  1  1  0
  8  7  1  0
  8  4  1  0
  9 11  1  6
  9  8  1  0
  9  6  1  0
  9  3  1  0
 10 12  1  6
 10  6  1  0
 10 14  1  0
 10  5  1  0
 15 26  2  0
 16 14  1  0
 16 21  1  0
 17 25  1  0
 17 27  1  0
 18 24  1  0
 18 20  1  0
 19 25  1  0
 20 19  1  0
 21 20  2  0
 22 23  1  0
 22 16  2  0
 23 18  2  0
 24 17  1  0
 25 15  1  0
 27 29  2  0
 28 27  1  0
 30 28  1  0
 31 40  2  0
 31 36  1  0
 32 28  1  0
 32 36  1  0
 33 32  1  0
 34 35  1  0
 34 33  1  0
 35 31  1  0
 36 37  2  0
 37 38  1  0
 39 38  2  0
 40 39  1  0
 41 15  1  0
 41 42  1  0
 41 51  1  0
 42 45  1  0
 43 47  1  0
 43 42  1  0
 44 43  2  0
 47 46  1  0
 47 49  1  0
 49 50  1  0
 49 48  1  0
 51 54  1  1
 51 52  1  0
 53 51  1  0
 55 56  2  0
 57 63  1  0
 57 56  1  0
 58 63  1  0
 59 60  1  0
 59 58  1  0
 61 60  1  0
 61 68  1  0
 61 62  1  0
 63 62  1  0
 64 57  2  0
 65 66  2  0
 66 85  1  0
 67 66  1  0
 67 70  1  0
 68 69  1  0
 68 65  1  0
 69 67  2  0
 70 71  1  0
 71 72  2  0
 73 76  1  0
 73 72  1  0
 74 73  2  0
 75 74  1  0
 75 70  2  0
 76 77  1  0
 77 82  2  0
 77 78  1  0
 78 79  2  0
 79 80  1  0
 80 84  1  0
 81 80  2  0
 82 81  1  0
 83 82  1  0
 85 86  1  0
 86 89  1  0
 86 88  1  0
 87 85  2  0
 90 65  1  0
 90 91  1  0
 92 90  1  0
M  ISO  4  10 101  14 101  56 100  57 100
M  END
>  <TORSDO>  (74) 
F 18

>  <SCORE>  (74) 
-9.985

>  <name>  (74) 
75

>  <ligand_id>  (74) 
75

>  <original_smiles>  (74) 
[H]c1c([H])c([H])c2c(c1[H])C([H])([H])C([H])([H])C([H])([H])C2([H])N([H])C(=O)C1([H])N(C(=O)C([H])(N([H])C(=O)C([H])(N([H])C([H])([H])[H])C([H])([H])[H])C(C([H])([H])[H])(C([H])([H])[H])C([H])([H])[H])C([H])([H])c2c([H])c(OC3(C([H])([H])[H])C([H])([H])C([H])([H])C4([H])C([H])(C([H])([H])C([H])([H])C(=O)N5C([H])([H])C([H])([H])C([H])([H])C([H])(n6nc(-c7c([H])c([H])c(Oc8c([H])c([H])c(F)c([H])c8F)c([H])c7[H])c(C(=O)N([H])[H])c6N([H])[H])C5([H])[H])C(=O)C([H])([H])C([H])([H])C4(C([H])([H])[H])C3([H])[H])c([H])c([H])c2C1([H])[H]

>  <smiles>  (74) 
[H]c1c([H])c([H])c2c(c1[H])C([H])([H])C([H])([H])C([H])([H])C2([H])N([H])C(=O)C1([H])N(C(=O)C([H])(N([H])C(=O)C([H])(N([H])C([H])([H])[H])C([H])([H])[H])C(C([H])([H])[H])(C([H])([H])[H])C([H])([H])[H])C([H])([H])c2c([H])c(OC3(C([H])([H])[H])C([H])([H])C([H])([H])C4([H])C([H])(C([H])([H])C([H])([H])C(=O)N5C([H])([H])C([H])([H])C([H])([H])C([H])(n6nc(-c7c([H])c([H])c(Oc8c([H])c([H])c(F)c([H])c8F)c([H])c7[H])c(C(=O)N([H])[H])c6N([H])[H])C5([H])[H])C(=O)C([H])([H])C([H])([H])C4(C([H])([H])[H])C3([H])[H])c([H])c([H])c2C1([H])[H]

$$$$
76:0:0
     RDKit          3D

 95104  0  0  1  0  0  0  0  0999 V2000
  -28.8940  -22.9010   19.3840 C   0  0  0  0  0  3  0  0  0  0  0  0
  -28.9490  -23.2800   21.7530 C   0  0  0  0  0  3  0  0  0  0  0  0
  -29.1260  -22.3710   20.6780 C   0  0  0  0  0  0  0  0  0  0  0  0
  -28.5670  -24.2800   19.1740 C   0  0  0  0  0  0  0  0  0  0  0  0
  -28.6310  -24.6570   21.5600 C   0  0  0  0  0  0  0  0  0  0  0  0
  -28.4530  -25.2030   20.2580 C   0  0  0  0  0  0  0  0  0  0  0  0
  -28.4030  -24.7690   17.7470 C   0  0  0  0  0  1  0  0  0  0  0  0
  -29.9330  -26.2020   23.0820 C   0  0  0  0  0  1  0  0  0  0  0  0
  -28.5750  -25.5600   22.7800 C   0  0  0  0  0  2  0  0  0  0  0  0
  -28.3890  -26.6010   20.0570 O   0  0  0  0  0  0  0  0  0  0  0  0
  -24.5750  -31.8740   23.1580 C   0  0  0  0  0  0  0  0  0  0  0  0
  -27.2170  -27.3590   20.0980 C   0  0  0  0  0  0  0  0  0  0  0  0
  -23.3740  -30.4660   21.5190 C   0  0  0  0  0  3  0  0  0  0  0  0
  -24.8300  -28.9200   20.0950 C   0  0  0  0  0  0  0  0  0  0  0  0
  -25.9040  -30.8130   21.3210 C   0  0  0  0  0  2  0  0  0  0  0  0
  -25.9920  -29.4330   20.6840 C   0  0  0  0  0  0  0  0  0  0  0  0
  -27.1880  -28.6620   20.6760 C   0  0  0  0  0  3  0  0  0  0  0  0
  -26.0350  -26.8810   19.4970 C   0  0  0  0  0  3  0  0  0  0  0  0
  -24.8510  -27.6480   19.4950 C   0  0  0  0  0  3  0  0  0  0  0  0
  -23.5850  -29.7830   20.1400 C   0  0  0  0  0  2  0  0  0  0  0  0
  -24.6360  -31.0680   22.0570 N   0  0  0  0  0  0  0  0  0  0  0  0
  -23.4930  -32.1430   23.6980 O   0  0  0  0  0  0  0  0  0  0  0  0
  -22.7220  -29.4480   22.4830 C   0  0  0  0  0  0  0  0  0  0  0  0
  -21.3940  -29.2760   22.3730 N   0  0  0  0  0  0  0  0  0  0  0  0
  -23.4100  -28.8140   23.2880 O   0  0  0  0  0  0  0  0  0  0  0  0
  -20.9000  -29.8370   21.6920 H   0  0  0  0  0  0  0  0  0  0  0  0
  -18.0170  -28.1030   22.9200 C   0  0  0  0  0  0  0  0  0  0  0  0
  -20.5820  -28.3370   23.1460 C   0  0  0  0  0  3  0  0  0  0  0  0
  -20.6620  -26.9120   22.5520 C   0  0  0  0  0  2  0  0  0  0  0  0
  -19.5380  -26.6120   21.5550 C   0  0  0  0  0  2  0  0  0  0  0  0
  -18.1700  -26.7600   22.2250 C   0  0  0  0  0  2  0  0  0  0  0  0
  -19.1500  -28.8500   23.3390 C   0  0  0  0  0  0  0  0  0  0  0  0
  -18.9540  -30.1070   23.9510 C   0  0  0  0  0  3  0  0  0  0  0  0
  -17.6570  -30.6180   24.1460 C   0  0  0  0  0  3  0  0  0  0  0  0
  -16.5400  -29.8680   23.7430 C   0  0  0  0  0  3  0  0  0  0  0  0
  -16.7200  -28.6120   23.1370 C   0  0  0  0  0  3  0  0  0  0  0  0
  -25.8580  -32.5120   23.7760 C   0  0  0  0  0  3  0  0  0  0  0  0
  -26.3910  -31.7320   25.0420 C   0  0  1  0  0  0  0  0  0  0  0  0
  -25.3070  -31.4720   26.1140 C   0  0  0  0  0  1  0  0  0  0  0  0
  -26.9870  -30.3650   24.6330 C   0  0  0  0  0  1  0  0  0  0  0  0
  -27.5370  -32.5330   25.7040 C   0  0  0  0  0  1  0  0  0  0  0  0
  -25.5360  -33.9040   24.1230 N   0  0  0  0  0  0  0  0  0  0  0  0
  -25.8640  -34.9690   23.3780 C   0  0  0  0  0  0  0  0  0  0  0  0
  -26.5380  -34.8820   22.3480 O   0  0  0  0  0  0  0  0  0  0  0  0
  -24.9360  -34.0450   24.9220 H   0  0  0  0  0  0  0  0  0  0  0  0
  -24.1360  -36.7640   23.0290 C   0  0  0  0  0  1  0  0  0  0  0  0
  -25.3650  -36.3480   23.8510 C   0  0  0  0  0  3  0  0  0  0  0  0
  -27.4820  -37.2270   24.7330 C   0  0  0  0  0  1  0  0  0  0  0  0
  -26.3970  -37.4060   23.7720 N   0  0  0  0  0  0  0  0  0  0  0  0
  -25.9850  -38.3230   23.9250 H   0  0  0  0  0  0  0  0  0  0  0  0
  -29.7590  -20.9530   20.9520 C   0  0  0  0  0  2  0  0  0  0  0  0
  -29.9760  -17.6770   18.9320 C   0  0  0  0  0  2  0  0  0  0  0  0
  -29.9100  -19.2140   19.0110 C   0  0  0  0  0  2  0  0  0  0  0  0
  -29.5750  -18.2950   21.2180 C   0  0  0  0  0  2  0  0  0  0  0  0
  -30.3130  -17.2070   20.3500 C   0  0  0  0  0  3  0  0  0  0  0  0
  -29.2190  -19.5790   20.3440 C   0  0  1  0  0  0  0  0  0  0  0  0
  -27.6950  -19.6610   20.1370 C   0  0  0  0  0  1  0  0  0  0  0  0
  -30.7170  -14.6710   20.2020 C   0  0  0  0  0  0  0  0  0  0  0  0
  -30.4230  -12.4860   19.0660 C   0  0  0  0  0  2  0  0  0  0  0  0
  -29.4470  -12.6880   17.8880 C   0  0  0  0  0  2  0  0  0  0  0  0
  -27.9860  -12.5340   18.3550 C   0  0  0  0  0  2  0  0  0  0  0  0
  -27.6820  -13.3470   19.6430 C   0  0  0  0  0  3  0  0  0  0  0  0
  -28.7730  -13.1380   20.7160 C   0  0  0  0  0  2  0  0  0  0  0  0
  -30.0660  -13.4710   20.1060 N   0  0  0  0  0  0  0  0  0  0  0  0
  -31.8670  -14.8100   19.7740 O   0  0  0  0  0  0  0  0  0  0  0  0
  -29.9730  -15.7570   20.5770 N   0  0  0  0  0  0  0  0  0  0  0  0
  -29.0400  -15.5530   20.9030 H   0  0  0  0  0  0  0  0  0  0  0  0
  -25.3100  -13.9360   20.4250 C   0  0  0  0  0  0  0  0  0  0  0  0
  -24.2540  -13.1590   20.8160 C   0  0  0  0  0  0  0  0  0  0  0  0
  -24.7160  -11.8090   20.7650 C   0  0  0  0  0  0  0  0  0  0  0  0
  -26.3490  -13.0590   20.1590 N   0  0  0  0  0  0  0  0  0  0  0  0
  -25.9980  -11.7740   20.4220 N   0  0  0  0  0  0  0  0  0  0  0  0
  -23.9970  -10.5440   20.9650 C   0  0  0  0  0  0  0  0  0  0  0  0
  -24.4410   -9.5790   21.8940 C   0  0  0  0  0  3  0  0  0  0  0  0
  -23.7210   -8.3800   22.0840 C   0  0  0  0  0  3  0  0  0  0  0  0
  -22.5420   -8.1360   21.3420 C   0  0  0  0  0  0  0  0  0  0  0  0
  -22.1150   -9.0890   20.4010 C   0  0  0  0  0  3  0  0  0  0  0  0
  -22.8360  -10.2800   20.2110 C   0  0  0  0  0  3  0  0  0  0  0  0
  -21.7920   -6.9890   21.4400 O   0  0  0  0  0  0  0  0  0  0  0  0
  -21.7390   -6.2600   22.6010 C   0  0  0  0  0  0  0  0  0  0  0  0
  -21.2900   -6.8240   23.8150 C   0  0  0  0  0  3  0  0  0  0  0  0
  -21.1870   -6.0210   24.9680 C   0  0  0  0  0  3  0  0  0  0  0  0
  -21.5200   -4.6550   24.9090 C   0  0  0  0  0  0  0  0  0  0  0  0
  -21.9610   -4.0900   23.7000 C   0  0  0  0  0  3  0  0  0  0  0  0
  -22.0670   -4.8910   22.5480 C   0  0  0  0  0  0  0  0  0  0  0  0
  -22.4740   -4.3360   21.3800 F   0  0  0  0  0  0  0  0  0  0  0  0
  -21.4120   -3.8820   26.0140 F   0  0  0  0  0  0  0  0  0  0  0  0
  -22.8640  -13.6330   21.1280 C   0  0  0  0  0  0  0  0  0  0  0  0
  -22.1600  -12.9290   22.0090 N   0  0  0  0  0  0  0  0  0  0  0  0
  -22.4120  -14.6610   20.6270 O   0  0  0  0  0  0  0  0  0  0  0  0
  -22.5400  -12.0950   22.4340 H   0  0  0  0  0  0  0  0  0  0  0  0
  -21.2300  -13.2290   22.2620 H   0  0  0  0  0  0  0  0  0  0  0  0
  -25.4690  -15.3090   20.2520 N   0  0  0  0  0  0  0  0  0  0  0  0
  -24.7020  -15.9600   20.3790 H   0  0  0  0  0  0  0  0  0  0  0  0
  -26.3030  -15.7500   19.8880 H   0  0  0  0  0  0  0  0  0  0  0  0
  1  3  1  0
  3 51  1  0
  3  2  2  0
  4  1  2  0
  4  6  1  0
  5  2  1  0
  5  9  1  0
  6  5  2  0
  7  4  1  0
  9  8  1  0
 10 12  1  0
 10  6  1  0
 11 22  2  0
 12 17  1  0
 13 21  1  0
 13 23  1  0
 14 20  1  0
 14 16  1  0
 15 21  1  0
 16 15  1  0
 17 16  2  0
 18 12  2  0
 19 18  1  0
 19 14  2  0
 20 13  1  0
 21 11  1  0
 23 25  2  0
 24 23  1  0
 26 24  1  0
 27 36  2  0
 27 32  1  0
 28 24  1  0
 28 32  1  0
 29 28  1  0
 30 31  1  0
 30 29  1  0
 31 27  1  0
 32 33  2  0
 33 34  1  0
 35 34  2  0
 36 35  1  0
 37 11  1  0
 37 42  1  0
 37 38  1  0
 38 41  1  1
 38 39  1  0
 40 38  1  0
 42 45  1  0
 43 47  1  0
 43 42  1  0
 44 43  2  0
 47 46  1  0
 49 47  1  0
 49 50  1  0
 49 48  1  0
 52 53  1  0
 52 55  1  0
 53 56  1  0
 55 66  1  0
 55 54  1  0
 56 57  1  6
 56 51  1  0
 56 54  1  0
 58 66  1  0
 59 64  1  0
 60 61  1  0
 60 59  1  0
 62 61  1  0
 62 71  1  0
 62 63  1  0
 64 58  1  0
 64 63  1  0
 65 58  2  0
 66 67  1  0
 68 69  2  0
 69 88  1  0
 70 69  1  0
 70 73  1  0
 71 72  1  0
 71 68  1  0
 72 70  2  0
 73 74  1  0
 74 75  2  0
 76 79  1  0
 76 75  1  0
 77 76  2  0
 78 77  1  0
 78 73  2  0
 79 80  1  0
 80 81  1  0
 81 82  2  0
 83 82  1  0
 83 87  1  0
 84 83  2  0
 85 80  2  0
 85 84  1  0
 86 85  1  0
 88 89  1  0
 89 92  1  0
 89 91  1  0
 90 88  2  0
 93 94  1  0
 93 68  1  0
 95 93  1  0
M  ISO  4   6 101  10 101  58 100  66 100
M  END
>  <TORSDO>  (75) 
F 19

>  <SCORE>  (75) 
-14.205

>  <name>  (75) 
76

>  <ligand_id>  (75) 
76

>  <original_smiles>  (75) 
[H]c1c([H])c([H])c2c(c1[H])C([H])([H])C([H])([H])C([H])([H])C2([H])N([H])C(=O)C1([H])N(C(=O)C([H])(N([H])C(=O)C([H])(N([H])C([H])([H])[H])C([H])([H])[H])C(C([H])([H])[H])(C([H])([H])[H])C([H])([H])[H])C([H])([H])c2c([H])c(Oc3c(C([H])([H])[H])c([H])c(C([H])([H])C4(C([H])([H])[H])C([H])([H])C([H])([H])C([H])(N([H])C(=O)N5C([H])([H])C([H])([H])C([H])([H])C([H])(n6nc(-c7c([H])c([H])c(Oc8c([H])c([H])c(F)c([H])c8F)c([H])c7[H])c(C(=O)N([H])[H])c6N([H])[H])C5([H])[H])C4([H])[H])c([H])c3C([H])([H])C([H])([H])[H])c([H])c([H])c2C1([H])[H]

>  <smiles>  (75) 
[H]c1c([H])c([H])c2c(c1[H])C([H])([H])C([H])([H])C([H])([H])C2([H])N([H])C(=O)C1([H])N(C(=O)C([H])(N([H])C(=O)C([H])(N([H])C([H])([H])[H])C([H])([H])[H])C(C([H])([H])[H])(C([H])([H])[H])C([H])([H])[H])C([H])([H])c2c([H])c(Oc3c(C([H])([H])[H])c([H])c(C([H])([H])C4(C([H])([H])[H])C([H])([H])C([H])([H])C([H])(N([H])C(=O)N5C([H])([H])C([H])([H])C([H])([H])C([H])(n6nc(-c7c([H])c([H])c(Oc8c([H])c([H])c(F)c([H])c8F)c([H])c7[H])c(C(=O)N([H])[H])c6N([H])[H])C5([H])[H])C4([H])[H])c([H])c3C([H])([H])C([H])([H])[H])c([H])c([H])c2C1([H])[H]

$$$$
77:0:0
     RDKit          3D

 90 98  0  0  1  0  0  0  0  0999 V2000
  -30.3040  -17.2710   17.9890 C   0  0  0  0  0  2  0  0  0  0  0  0
  -29.9190  -16.9270   20.3390 C   0  0  0  0  0  3  0  0  0  0  0  0
  -29.3930  -16.9510   19.0220 C   0  0  0  0  0  3  0  0  0  0  0  0
  -31.4940  -17.9590   18.3290 C   0  0  0  0  0  0  0  0  0  0  0  0
  -30.4330  -18.3870   20.4490 C   0  0  0  0  0  3  0  0  0  0  0  0
  -31.5410  -18.6040   19.5940 C   0  0  0  0  0  0  0  0  0  0  0  0
  -27.9400  -16.7060   18.6750 C   0  0  0  0  0  1  0  0  0  0  0  0
  -32.5640  -18.1730   17.2780 C   0  0  0  0  0  1  0  0  0  0  0  0
  -32.5770  -19.6810   19.8880 C   0  0  0  0  0  1  0  0  0  0  0  0
  -30.7140  -15.4500   20.5310 C   0  0  0  0  0  0  0  0  0  0  0  0
  -30.6860  -13.0320   19.6090 C   0  0  0  0  0  2  0  0  0  0  0  0
  -29.7950  -12.8970   18.3490 C   0  0  0  0  0  2  0  0  0  0  0  0
  -28.3310  -12.6270   18.7430 C   0  0  0  0  0  2  0  0  0  0  0  0
  -27.8630  -13.5390   19.9070 C   0  0  0  0  0  3  0  0  0  0  0  0
  -28.8860  -13.6620   21.0500 C   0  0  0  0  0  2  0  0  0  0  0  0
  -30.1400  -14.1530   20.4540 N   0  0  0  0  0  0  0  0  0  0  0  0
  -31.9520  -15.4200   20.4570 O   0  0  0  0  0  0  0  0  0  0  0  0
  -25.4660  -14.1170   20.5420 C   0  0  0  0  0  0  0  0  0  0  0  0
  -24.3870  -13.3430   20.8630 C   0  0  0  0  0  0  0  0  0  0  0  0
  -24.8580  -11.9950   20.8690 C   0  0  0  0  0  0  0  0  0  0  0  0
  -26.5180  -13.2370   20.3590 N   0  0  0  0  0  0  0  0  0  0  0  0
  -26.1620  -11.9560   20.6240 N   0  0  0  0  0  0  0  0  0  0  0  0
  -24.1260  -10.7370   21.0380 C   0  0  0  0  0  0  0  0  0  0  0  0
  -24.5180   -9.7870   22.0060 C   0  0  0  0  0  3  0  0  0  0  0  0
  -23.7870   -8.5890   22.1700 C   0  0  0  0  0  3  0  0  0  0  0  0
  -22.6500   -8.3390   21.3630 C   0  0  0  0  0  0  0  0  0  0  0  0
  -22.2780   -9.2780   20.3870 C   0  0  0  0  0  3  0  0  0  0  0  0
  -23.0100  -10.4650   20.2220 C   0  0  0  0  0  3  0  0  0  0  0  0
  -21.8960   -7.1920   21.4330 O   0  0  0  0  0  0  0  0  0  0  0  0
  -21.7880   -6.4740   22.5960 C   0  0  0  0  0  0  0  0  0  0  0  0
  -21.2800   -7.0490   23.7820 C   0  0  0  0  0  3  0  0  0  0  0  0
  -21.1220   -6.2550   24.9360 C   0  0  0  0  0  3  0  0  0  0  0  0
  -21.4580   -4.8880   24.9040 C   0  0  0  0  0  0  0  0  0  0  0  0
  -21.9580   -4.3140   23.7230 C   0  0  0  0  0  3  0  0  0  0  0  0
  -22.1190   -5.1050   22.5720 C   0  0  0  0  0  0  0  0  0  0  0  0
  -22.5820   -4.5420   21.4280 F   0  0  0  0  0  0  0  0  0  0  0  0
  -21.2970   -4.1230   26.0090 F   0  0  0  0  0  0  0  0  0  0  0  0
  -22.9810  -13.8230   21.0640 C   0  0  0  0  0  0  0  0  0  0  0  0
  -22.2210  -13.1400   21.9110 N   0  0  0  0  0  0  0  0  0  0  0  0
  -22.5650  -14.8390   20.5100 O   0  0  0  0  0  0  0  0  0  0  0  0
  -22.5700  -12.3160   22.3760 H   0  0  0  0  0  0  0  0  0  0  0  0
  -21.2770  -13.4480   22.0990 H   0  0  0  0  0  0  0  0  0  0  0  0
  -25.6310  -15.4860   20.3660 N   0  0  0  0  0  0  0  0  0  0  0  0
  -24.8620  -16.1410   20.4540 H   0  0  0  0  0  0  0  0  0  0  0  0
  -26.5110  -15.9300   20.1410 H   0  0  0  0  0  0  0  0  0  0  0  0
  -29.6980  -19.8710   20.9380 C   0  0  0  0  0  3  0  0  0  0  0  0
  -29.5360  -21.4540   20.1340 C   0  0  0  0  0  3  0  0  0  0  0  0
  -29.2060  -23.1020   20.7310 C   0  0  0  0  0  3  0  0  0  0  0  0
  -28.6000  -24.5870   19.9610 C   0  0  0  0  0  3  0  0  0  0  0  0
  -28.6100  -26.1700   20.3500 O   0  0  0  0  0  0  0  0  0  0  0  0
  -24.7400  -31.8810   23.2500 C   0  0  0  0  0  0  0  0  0  0  0  0
  -27.5440  -27.1880   20.2240 C   0  0  0  0  0  0  0  0  0  0  0  0
  -23.6300  -30.4590   21.5750 C   0  0  0  0  0  3  0  0  0  0  0  0
  -25.1640  -28.9400   20.1560 C   0  0  0  0  0  0  0  0  0  0  0  0
  -26.1820  -30.7880   21.4710 C   0  0  0  0  0  2  0  0  0  0  0  0
  -26.3190  -29.3940   20.8050 C   0  0  0  0  0  0  0  0  0  0  0  0
  -27.5000  -28.5350   20.8220 C   0  0  0  0  0  3  0  0  0  0  0  0
  -26.3610  -26.8780   19.5160 C   0  0  0  0  0  3  0  0  0  0  0  0
  -25.2060  -27.7030   19.4930 C   0  0  0  0  0  3  0  0  0  0  0  0
  -23.9050  -29.8030   20.1950 C   0  0  0  0  0  2  0  0  0  0  0  0
  -24.8700  -31.0690   22.1550 N   0  0  0  0  0  0  0  0  0  0  0  0
  -23.6320  -32.1230   23.7570 O   0  0  0  0  0  0  0  0  0  0  0  0
  -22.9630  -29.4220   22.5150 C   0  0  0  0  0  0  0  0  0  0  0  0
  -21.6490  -29.1870   22.3460 N   0  0  0  0  0  0  0  0  0  0  0  0
  -23.6350  -28.8300   23.3640 O   0  0  0  0  0  0  0  0  0  0  0  0
  -21.1620  -29.7150   21.6350 H   0  0  0  0  0  0  0  0  0  0  0  0
  -18.3250  -27.7850   22.7230 C   0  0  0  0  0  0  0  0  0  0  0  0
  -20.8520  -28.2070   23.0900 C   0  0  0  0  0  3  0  0  0  0  0  0
  -21.0650  -26.7810   22.5280 C   0  0  0  0  0  2  0  0  0  0  0  0
  -20.0260  -26.3870   21.4750 C   0  0  0  0  0  2  0  0  0  0  0  0
  -18.6110  -26.4490   22.0590 C   0  0  0  0  0  2  0  0  0  0  0  0
  -19.3770  -28.6170   23.1920 C   0  0  0  0  0  0  0  0  0  0  0  0
  -19.0560  -29.8620   23.7740 C   0  0  0  0  0  3  0  0  0  0  0  0
  -17.7180  -30.2800   23.8910 C   0  0  0  0  0  3  0  0  0  0  0  0
  -16.6790  -29.4480   23.4370 C   0  0  0  0  0  3  0  0  0  0  0  0
  -16.9830  -28.2030   22.8600 C   0  0  0  0  0  3  0  0  0  0  0  0
  -25.9760  -32.5620   23.9140 C   0  0  0  0  0  3  0  0  0  0  0  0
  -26.4770  -31.8100   25.2100 C   0  0  1  0  0  0  0  0  0  0  0  0
  -25.3570  -31.5390   26.2430 C   0  0  0  0  0  1  0  0  0  0  0  0
  -27.1180  -30.4520   24.8430 C   0  0  0  0  0  1  0  0  0  0  0  0
  -27.5810  -32.6440   25.9040 C   0  0  0  0  0  1  0  0  0  0  0  0
  -25.6030  -33.9480   24.2440 N   0  0  0  0  0  0  0  0  0  0  0  0
  -25.9230  -35.0220   23.5100 C   0  0  0  0  0  0  0  0  0  0  0  0
  -26.6260  -34.9520   22.4990 O   0  0  0  0  0  0  0  0  0  0  0  0
  -24.9780  -34.0730   25.0260 H   0  0  0  0  0  0  0  0  0  0  0  0
  -24.1540  -36.7730   23.1250 C   0  0  0  0  0  1  0  0  0  0  0  0
  -25.3800  -36.3900   23.9690 C   0  0  0  0  0  3  0  0  0  0  0  0
  -27.4580  -37.3300   24.8790 C   0  0  0  0  0  1  0  0  0  0  0  0
  -26.3820  -37.4780   23.9020 N   0  0  0  0  0  0  0  0  0  0  0  0
  -25.9440  -38.3830   24.0490 H   0  0  0  0  0  0  0  0  0  0  0  0
  1  4  1  0
  1  3  1  0
  2  5  1  0
  2 10  1  0
  3  7  1  0
  3  2  1  0
  4  6  2  0
  5 46  1  0
  6  9  1  0
  6  5  1  0
  8  4  1  0
 11 16  1  0
 12 13  1  0
 12 11  1  0
 14 13  1  0
 14 21  1  0
 14 15  1  0
 16 10  1  0
 16 15  1  0
 17 10  2  0
 18 19  2  0
 19 20  1  0
 19 38  1  0
 20 23  1  0
 21 18  1  0
 21 22  1  0
 22 20  2  0
 23 24  1  0
 24 25  2  0
 26 29  1  0
 26 25  1  0
 27 26  2  0
 28 27  1  0
 28 23  2  0
 29 30  1  0
 30 31  1  0
 31 32  2  0
 33 32  1  0
 33 37  1  0
 34 33  2  0
 35 30  2  0
 35 34  1  0
 36 35  1  0
 38 39  1  0
 39 42  1  0
 39 41  1  0
 40 38  2  0
 43 44  1  0
 43 18  1  0
 45 43  1  0
 47 48  1  0
 47 46  2  0
 49 50  1  0
 49 48  2  0
 51 62  2  0
 52 50  1  0
 52 57  1  0
 53 61  1  0
 53 63  1  0
 54 60  1  0
 54 56  1  0
 55 61  1  0
 56 57  2  0
 56 55  1  0
 58 52  2  0
 59 58  1  0
 59 54  2  0
 60 53  1  0
 61 51  1  0
 63 65  2  0
 64 63  1  0
 66 64  1  0
 67 76  2  0
 67 72  1  0
 68 64  1  0
 68 72  1  0
 69 68  1  0
 70 71  1  0
 70 69  1  0
 71 67  1  0
 72 73  2  0
 73 74  1  0
 75 74  2  0
 76 75  1  0
 77 51  1  0
 77 82  1  0
 77 78  1  0
 78 81  1  1
 78 79  1  0
 80 78  1  0
 82 85  1  0
 83 87  1  0
 83 82  1  0
 84 83  2  0
 87 86  1  0
 89 87  1  0
 89 90  1  0
 89 88  1  0
M  ISO  4   2 100  10 100  49 101  50 101
M  END
>  <TORSDO>  (76) 
F 20

>  <SCORE>  (76) 
-15.287

>  <name>  (76) 
77

>  <ligand_id>  (76) 
77

>  <original_smiles>  (76) 
[H]c1c([H])c([H])c2c(c1[H])C([H])([H])C([H])([H])C([H])([H])C2([H])N([H])C(=O)C1([H])N(C(=O)C([H])(N([H])C(=O)C([H])(N([H])C([H])([H])[H])C([H])([H])[H])C(C([H])([H])[H])(C([H])([H])[H])C([H])([H])[H])C([H])([H])c2c([H])c(OC([H])([H])C([H])([H])C([H])([H])C([H])([H])c3c(C(=O)N4C([H])([H])C([H])([H])C([H])([H])C([H])(n5nc(-c6c([H])c([H])c(Oc7c([H])c([H])c(F)c([H])c7F)c([H])c6[H])c(C(=O)N([H])[H])c5N([H])[H])C4([H])[H])c(C([H])([H])[H])c([H])c(C([H])([H])[H])c3C([H])([H])[H])c([H])c([H])c2C1([H])[H]

>  <smiles>  (76) 
[H]c1c([H])c([H])c2c(c1[H])C([H])([H])C([H])([H])C([H])([H])C2([H])N([H])C(=O)C1([H])N(C(=O)C([H])(N([H])C(=O)C([H])(N([H])C([H])([H])[H])C([H])([H])[H])C(C([H])([H])[H])(C([H])([H])[H])C([H])([H])[H])C([H])([H])c2c([H])c(OC([H])([H])C([H])([H])C([H])([H])C([H])([H])c3c(C(=O)N4C([H])([H])C([H])([H])C([H])([H])C([H])(n5nc(-c6c([H])c([H])c(Oc7c([H])c([H])c(F)c([H])c7F)c([H])c6[H])c(C(=O)N([H])[H])c5N([H])[H])C4([H])[H])c(C([H])([H])[H])c([H])c(C([H])([H])[H])c3C([H])([H])[H])c([H])c([H])c2C1([H])[H]

$$$$
78:0:0
     RDKit          3D

 96105  0  0  1  0  0  0  0  0999 V2000
  -28.8200  -22.5830   18.6490 C   0  0  0  0  0  2  0  0  0  0  0  0
  -27.9850  -23.9390   18.8240 C   0  0  0  0  0  2  0  0  0  0  0  0
  -28.2250  -22.2050   21.0450 C   0  0  0  0  0  2  0  0  0  0  0  0
  -29.1990  -21.6860   19.9190 C   0  0  0  0  0  3  0  0  0  0  0  0
  -28.1340  -23.8260   21.2890 C   0  0  0  0  0  3  0  0  0  0  0  0
  -28.3880  -24.8020   20.0520 C   0  0  0  0  0  3  0  0  0  0  0  0
  -30.4110  -20.0020   18.4530 C   0  0  0  0  0  3  0  0  0  0  0  0
  -30.9390  -18.7900   17.9930 C   0  0  0  0  0  3  0  0  0  0  0  0
  -29.4460  -18.8180   20.3260 C   0  0  0  0  0  3  0  0  0  0  0  0
  -29.6190  -20.1140   19.6140 C   0  0  0  0  0  0  0  0  0  0  0  0
  -30.7440  -17.5660   18.6590 C   0  0  0  0  0  0  0  0  0  0  0  0
  -30.0180  -17.5040   19.8940 C   0  0  0  0  0  0  0  0  0  0  0  0
  -31.3210  -16.3590   17.9280 C   0  0  0  0  0  1  0  0  0  0  0  0
  -30.5810  -14.9540   20.6070 C   0  0  0  0  0  0  0  0  0  0  0  0
  -30.4720  -12.5940   19.7590 C   0  0  0  0  0  2  0  0  0  0  0  0
  -29.6230  -12.5770   18.4700 C   0  0  0  0  0  2  0  0  0  0  0  0
  -28.1310  -12.3960   18.8100 C   0  0  0  0  0  2  0  0  0  0  0  0
  -27.6640  -13.3260   19.9640 C   0  0  0  0  0  3  0  0  0  0  0  0
  -28.6570  -13.3450   21.1450 C   0  0  0  0  0  2  0  0  0  0  0  0
  -29.9690  -13.7100   20.6000 N   0  0  0  0  0  0  0  0  0  0  0  0
  -31.8080  -14.9830   20.4750 O   0  0  0  0  0  0  0  0  0  0  0  0
  -29.8110  -16.1450   20.5660 N   0  0  0  0  0  0  0  0  0  0  0  0
  -28.8790  -16.0110   20.9310 H   0  0  0  0  0  0  0  0  0  0  0  0
  -25.2430  -13.9000   20.5670 C   0  0  0  0  0  0  0  0  0  0  0  0
  -24.1660  -13.1260   20.8930 C   0  0  0  0  0  0  0  0  0  0  0  0
  -24.6410  -11.7770   20.9130 C   0  0  0  0  0  0  0  0  0  0  0  0
  -26.3040  -13.0270   20.3970 N   0  0  0  0  0  0  0  0  0  0  0  0
  -25.9460  -11.7450   20.6710 N   0  0  0  0  0  0  0  0  0  0  0  0
  -23.9110  -10.5140   21.0870 C   0  0  0  0  0  0  0  0  0  0  0  0
  -24.3130   -9.5550   22.0430 C   0  0  0  0  0  3  0  0  0  0  0  0
  -23.5800   -8.3600   22.2090 C   0  0  0  0  0  3  0  0  0  0  0  0
  -22.4350   -8.1130   21.4160 C   0  0  0  0  0  0  0  0  0  0  0  0
  -22.0550   -9.0580   20.4480 C   0  0  0  0  0  3  0  0  0  0  0  0
  -22.7860  -10.2450   20.2800 C   0  0  0  0  0  3  0  0  0  0  0  0
  -21.6790   -6.9670   21.4870 O   0  0  0  0  0  0  0  0  0  0  0  0
  -21.6040   -6.2260   22.6400 C   0  0  0  0  0  0  0  0  0  0  0  0
  -21.1630   -6.7840   23.8590 C   0  0  0  0  0  3  0  0  0  0  0  0
  -21.0330   -5.9700   25.0020 C   0  0  0  0  0  3  0  0  0  0  0  0
  -21.3360   -4.5960   24.9260 C   0  0  0  0  0  0  0  0  0  0  0  0
  -21.7700   -4.0370   23.7130 C   0  0  0  0  0  3  0  0  0  0  0  0
  -21.9030   -4.8490   22.5730 C   0  0  0  0  0  0  0  0  0  0  0  0
  -22.3020   -4.3000   21.4000 F   0  0  0  0  0  0  0  0  0  0  0  0
  -21.2050   -3.8130   26.0220 F   0  0  0  0  0  0  0  0  0  0  0  0
  -22.7530  -13.5980   21.0770 C   0  0  0  0  0  0  0  0  0  0  0  0
  -21.9850  -12.9200   21.9190 N   0  0  0  0  0  0  0  0  0  0  0  0
  -22.3400  -14.6070   20.5050 O   0  0  0  0  0  0  0  0  0  0  0  0
  -22.3330  -12.1100   22.4100 H   0  0  0  0  0  0  0  0  0  0  0  0
  -21.0320  -13.2150   22.0780 H   0  0  0  0  0  0  0  0  0  0  0  0
  -25.4000  -15.2710   20.3770 N   0  0  0  0  0  0  0  0  0  0  0  0
  -24.6130  -15.9080   20.4400 H   0  0  0  0  0  0  0  0  0  0  0  0
  -26.2490  -15.7240   20.0640 H   0  0  0  0  0  0  0  0  0  0  0  0
  -26.8480  -24.1800   21.9350 N   0  0  0  0  0  4  0  0  0  0  0  0
  -26.0730  -24.0550   21.3080 H   0  0  0  0  0  0  0  0  0  0  0  0
  -26.8580  -25.1450   22.2230 H   0  0  0  0  0  0  0  0  0  0  0  0
  -26.6810  -23.6230   22.7540 H   0  0  0  0  0  0  0  0  0  0  0  0
  -28.2820  -26.3460   20.1380 O   0  0  0  0  0  0  0  0  0  0  0  0
  -24.5520  -31.8880   23.1300 C   0  0  0  0  0  0  0  0  0  0  0  0
  -27.1520  -27.2150   20.0970 C   0  0  0  0  0  0  0  0  0  0  0  0
  -23.3510  -30.4710   21.5020 C   0  0  0  0  0  3  0  0  0  0  0  0
  -24.8000  -28.8990   20.0770 C   0  0  0  0  0  0  0  0  0  0  0  0
  -25.8960  -30.7690   21.3150 C   0  0  0  0  0  2  0  0  0  0  0  0
  -25.9730  -29.3750   20.6720 C   0  0  0  0  0  0  0  0  0  0  0  0
  -27.1490  -28.5470   20.6620 C   0  0  0  0  0  3  0  0  0  0  0  0
  -25.9530  -26.8150   19.4760 C   0  0  0  0  0  3  0  0  0  0  0  0
  -24.7990  -27.6330   19.4660 C   0  0  0  0  0  3  0  0  0  0  0  0
  -23.5680  -29.7890   20.1230 C   0  0  0  0  0  2  0  0  0  0  0  0
  -24.6170  -31.0690   22.0350 N   0  0  0  0  0  0  0  0  0  0  0  0
  -23.4690  -32.1620   23.6700 O   0  0  0  0  0  0  0  0  0  0  0  0
  -22.6980  -29.4590   22.4750 C   0  0  0  0  0  0  0  0  0  0  0  0
  -21.3690  -29.2870   22.3720 N   0  0  0  0  0  0  0  0  0  0  0  0
  -23.3890  -28.8310   23.2810 O   0  0  0  0  0  0  0  0  0  0  0  0
  -20.8730  -29.8440   21.6900 H   0  0  0  0  0  0  0  0  0  0  0  0
  -17.9970  -28.0780   22.9280 C   0  0  0  0  0  0  0  0  0  0  0  0
  -20.5600  -28.3460   23.1540 C   0  0  0  0  0  3  0  0  0  0  0  0
  -20.6540  -26.9140   22.5780 C   0  0  0  0  0  2  0  0  0  0  0  0
  -19.5360  -26.5900   21.5810 C   0  0  0  0  0  2  0  0  0  0  0  0
  -18.1640  -26.7310   22.2450 C   0  0  0  0  0  2  0  0  0  0  0  0
  -19.1200  -28.8430   23.3390 C   0  0  0  0  0  0  0  0  0  0  0  0
  -18.9080  -30.1030   23.9410 C   0  0  0  0  0  3  0  0  0  0  0  0
  -17.6040  -30.6000   24.1300 C   0  0  0  0  0  3  0  0  0  0  0  0
  -16.4960  -29.8340   23.7300 C   0  0  0  0  0  3  0  0  0  0  0  0
  -16.6920  -28.5740   23.1370 C   0  0  0  0  0  3  0  0  0  0  0  0
  -25.8320  -32.5360   23.7450 C   0  0  0  0  0  3  0  0  0  0  0  0
  -26.3780  -31.7560   25.0060 C   0  0  1  0  0  0  0  0  0  0  0  0
  -25.3070  -31.4880   26.0900 C   0  0  0  0  0  1  0  0  0  0  0  0
  -26.9780  -30.3920   24.5910 C   0  0  0  0  0  1  0  0  0  0  0  0
  -27.5250  -32.5610   25.6600 C   0  0  0  0  0  1  0  0  0  0  0  0
  -25.5000  -33.9240   24.1080 N   0  0  0  0  0  0  0  0  0  0  0  0
  -25.8100  -34.9990   23.3720 C   0  0  0  0  0  0  0  0  0  0  0  0
  -26.4750  -34.9260   22.3350 O   0  0  0  0  0  0  0  0  0  0  0  0
  -24.9090  -34.0500   24.9170 H   0  0  0  0  0  0  0  0  0  0  0  0
  -24.0630  -36.7840   23.0540 C   0  0  0  0  0  1  0  0  0  0  0  0
  -25.3060  -36.3730   23.8600 C   0  0  0  0  0  3  0  0  0  0  0  0
  -27.4310  -37.2600   24.7160 C   0  0  0  0  0  1  0  0  0  0  0  0
  -26.3270  -37.4400   23.7770 N   0  0  0  0  0  0  0  0  0  0  0  0
  -25.9120  -38.3540   23.9440 H   0  0  0  0  0  0  0  0  0  0  0  0
  1  2  1  0
  1  4  1  0
  2  6  1  0
  3  5  1  0
  4 10  1  0
  4  3  1  0
  5 52  1  0
  6 56  1  0
  6  5  1  0
  7 10  1  0
  8  7  2  0
  8 11  1  0
 10  9  2  0
 11 12  2  0
 12  9  1  0
 12 22  1  0
 13 11  1  0
 15 20  1  0
 16 17  1  0
 16 15  1  0
 18 17  1  0
 18 27  1  0
 18 19  1  0
 20 14  1  0
 20 19  1  0
 21 14  2  0
 22 14  1  0
 22 23  1  0
 24 25  2  0
 25 26  1  0
 25 44  1  0
 26 29  1  0
 27 24  1  0
 27 28  1  0
 28 26  2  0
 29 30  1  0
 30 31  2  0
 32 35  1  0
 32 31  1  0
 33 32  2  0
 34 33  1  0
 34 29  2  0
 35 36  1  0
 36 37  1  0
 37 38  2  0
 39 38  1  0
 39 43  1  0
 40 39  2  0
 41 36  2  0
 41 40  1  0
 42 41  1  0
 44 45  1  0
 45 48  1  0
 45 47  1  0
 46 44  2  0
 49 50  1  0
 49 24  1  0
 51 49  1  0
 52 54  1  0
 52 55  1  0
 53 52  1  0
 57 68  2  0
 58 56  1  0
 58 63  1  0
 59 67  1  0
 59 69  1  0
 60 66  1  0
 60 62  1  0
 61 67  1  0
 62 61  1  0
 63 62  2  0
 64 58  2  0
 65 64  1  0
 65 60  2  0
 66 59  1  0
 67 57  1  0
 69 71  2  0
 70 69  1  0
 72 70  1  0
 73 82  2  0
 73 78  1  0
 74 70  1  0
 74 78  1  0
 75 74  1  0
 76 77  1  0
 76 75  1  0
 77 73  1  0
 78 79  2  0
 79 80  1  0
 81 80  2  0
 82 81  1  0
 83 57  1  0
 83 88  1  0
 83 84  1  0
 84 87  1  1
 84 85  1  0
 86 84  1  0
 88 91  1  0
 89 93  1  0
 89 88  1  0
 90 89  2  0
 93 92  1  0
 95 93  1  0
 95 96  1  0
 95 94  1  0
M  ISO  4   6 101  14 100  22 100  56 101
M  END
>  <TORSDO>  (77) 
F 18

>  <SCORE>  (77) 
-14.960

>  <name>  (77) 
78

>  <ligand_id>  (77) 
78

>  <original_smiles>  (77) 
[H]c1c([H])c([H])c2c(c1[H])C([H])([H])C([H])([H])C([H])([H])C2([H])N([H])C(=O)C1([H])N(C(=O)C([H])(N([H])C(=O)C([H])(N([H])C([H])([H])[H])C([H])([H])[H])C(C([H])([H])[H])(C([H])([H])[H])C([H])([H])[H])C([H])([H])c2c([H])c(OC3([H])C([H])([H])C([H])([H])C([H])(c4c([H])c([H])c(C([H])([H])[H])c(N([H])C(=O)N5C([H])([H])C([H])([H])C([H])([H])C([H])(n6nc(-c7c([H])c([H])c(Oc8c([H])c([H])c(F)c([H])c8F)c([H])c7[H])c(C(=O)N([H])[H])c6N([H])[H])C5([H])[H])c4[H])C([H])([H])C3([H])[N+]([H])([H])[H])c([H])c([H])c2C1([H])[H]

>  <smiles>  (77) 
[H]c1c([H])c([H])c2c(c1[H])C([H])([H])C([H])([H])C([H])([H])C2([H])N([H])C(=O)C1([H])N(C(=O)C([H])(N([H])C(=O)C([H])(N([H])C([H])([H])[H])C([H])([H])[H])C(C([H])([H])[H])(C([H])([H])[H])C([H])([H])[H])C([H])([H])c2c([H])c(OC3([H])C([H])([H])C([H])([H])C([H])(c4c([H])c([H])c(C([H])([H])[H])c(N([H])C(=O)N5C([H])([H])C([H])([H])C([H])([H])C([H])(n6nc(-c7c([H])c([H])c(Oc8c([H])c([H])c(F)c([H])c8F)c([H])c7[H])c(C(=O)N([H])[H])c6N([H])[H])C5([H])[H])c4[H])C([H])([H])C3([H])[N+]([H])([H])[H])c([H])c([H])c2C1([H])[H]

$$$$
79:0:0
     RDKit          3D

 99 98  0  0  1  0  0  0  0  0999 V2000
  -23.3660  -22.1650   19.3250 C   0  0  0  0  0  3  0  0  0  0  0  0
  -24.9530  -23.1370   20.3700 C   0  0  0  0  0  3  0  0  0  0  0  0
  -24.9050  -21.8020   19.6230 C   0  0  0  0  0  3  0  0  0  0  0  0
  -22.3380  -23.4000   19.6550 C   0  0  0  0  0  0  0  0  0  0  0  0
  -22.4980  -24.6640   20.2710 C   0  0  0  0  0  3  0  0  0  0  0  0
  -23.9760  -24.3580   20.6600 C   0  0  0  0  0  0  0  0  0  0  0  0
  -19.6340  -27.4220   16.2120 C   0  0  0  0  0  3  0  0  0  0  0  0
  -20.8960  -24.0660   19.2180 C   0  0  0  0  0  3  0  0  0  0  0  0
  -18.5600  -28.1320   17.4200 C   0  0  0  0  0  1  0  0  0  0  0  0
  -20.5430  -25.5580   17.0640 C   0  0  0  0  0  3  0  0  0  0  0  0
  -19.6150  -27.2390   20.3790 C   0  0  0  0  0 15  0  0  0  0  0  0
  -21.2740  -26.1460   19.6530 C   0  0  0  0  0  2  0  0  0  0  0  0
  -20.9990  -26.4000   16.8700 C   0  0  0  0  0  2  0  0  0  0  0  0
  -24.6890  -25.3970   21.5130 C   0  0  0  0  0  1  0  0  0  0  0  0
  -22.0420  -27.0410   20.7450 C   0  0  0  0  0  2  0  0  0  0  0  0
  -19.4950  -27.6430   15.0070 O   0  0  0  0  0  0  0  0  0  0  0  0
  -26.2120  -20.2630   19.1260 C   0  0  0  0  0  2  0  0  0  0  0  0
  -26.0870  -20.1350   17.9050 O   0  0  0  0  0  0  0  0  0  0  0  0
  -26.9600  -18.0790   20.7680 C   0  0  0  0  0  1  0  0  0  0  0  0
  -27.6320  -18.7930   19.5910 C   0  0  0  0  0  1  0  0  0  0  0  0
  -29.0010  -17.2150   18.8520 C   0  0  0  0  0 15  0  0  0  0  0  0
  -30.4480  -15.6750   18.9720 C   0  0  0  0  0  2  0  0  0  0  0  0
  -31.2890  -12.9760   18.6500 C   0  0  0  0  0  2  0  0  0  0  0  0
  -30.4480  -12.0220   17.7110 C   0  0  0  0  0  2  0  0  0  0  0  0
  -29.0670  -11.7160   18.3120 C   0  0  0  0  0  2  0  0  0  0  0  0
  -28.5740  -12.9820   19.0340 C   0  0  0  0  0  3  0  0  0  0  0  0
  -29.5490  -13.5180   20.0650 C   0  0  0  0  0  2  0  0  0  0  0  0
  -30.4740  -14.2020   19.2280 N   0  0  0  0  0  0  0  0  0  0  0  0
  -31.6580  -15.7380   18.5500 O   0  0  0  0  0  1  0  0  0  0  0  0
  -26.6310  -13.9380   20.2500 C   0  0  0  0  0  0  0  0  0  0  0  0
  -25.5100  -13.3760   20.7590 C   0  0  0  0  0  0  0  0  0  0  0  0
  -25.6160  -11.9780   20.4890 C   0  0  0  0  0  0  0  0  0  0  0  0
  -27.3230  -12.8940   19.6820 N   0  0  0  0  0  0  0  0  0  0  0  0
  -26.7640  -11.6890   19.9020 N   0  0  0  0  0  0  0  0  0  0  0  0
  -24.6530  -10.9060   20.6800 C   0  0  0  0  0  0  0  0  0  0  0  0
  -24.9220   -9.8170   21.5340 C   0  0  0  0  0  3  0  0  0  0  0  0
  -23.9590   -8.8020   21.7050 C   0  0  0  0  0  3  0  0  0  0  0  0
  -22.7220   -8.8800   21.0220 C   0  0  0  0  0  0  0  0  0  0  0  0
  -22.4770   -9.9550   20.1510 C   0  0  0  0  0  3  0  0  0  0  0  0
  -23.4380  -10.9600   19.9760 C   0  0  0  0  0  3  0  0  0  0  0  0
  -21.7330   -7.9340   21.1120 O   0  0  0  0  0  0  0  0  0  0  0  0
  -21.4530   -7.3040   22.2970 C   0  0  0  0  0  0  0  0  0  0  0  0
  -21.0450   -8.0190   23.4440 C   0  0  0  0  0  3  0  0  0  0  0  0
  -20.7010   -7.3230   24.6190 C   0  0  0  0  0  3  0  0  0  0  0  0
  -20.7540   -5.9160   24.6450 C   0  0  0  0  0  0  0  0  0  0  0  0
  -21.1570   -5.2040   23.5020 C   0  0  0  0  0  3  0  0  0  0  0  0
  -21.5040   -5.8970   22.3290 C   0  0  0  0  0  0  0  0  0  0  0  0
  -21.8720   -5.2070   21.2230 F   0  0  0  0  0  0  0  0  0  0  0  0
  -20.4140   -5.2460   25.7710 F   0  0  0  0  0  0  0  0  0  0  0  0
  -24.3610  -14.1240   21.3510 C   0  0  0  0  0  0  0  0  0  0  0  0
  -23.6900  -13.5300   22.3280 N   0  0  0  0  0  0  0  0  0  0  0  0
  -24.0850  -15.2650   20.9800 O   0  0  0  0  0  0  0  0  0  0  0  0
  -23.9330  -12.6010   22.6410 H   0  0  0  0  0  0  0  0  0  0  0  0
  -22.9190  -14.0090   22.7700 H   0  0  0  0  0  0  0  0  0  0  0  0
  -27.0920  -15.2460   20.1990 N   0  0  0  0  0  0  0  0  0  0  0  0
  -26.5220  -16.0140   20.5330 H   0  0  0  0  0  0  0  0  0  0  0  0
  -27.8800  -15.5470   19.6440 H   0  0  0  0  0  0  0  0  0  0  0  0
  -22.6720  -26.1330   15.5690 C   0  0  0  0  0  1  0  0  0  0  0  0
  -24.5110  -25.8850   15.5480 O   0  0  0  0  0  0  0  0  0  0  0  0
  -24.3540  -28.5130   20.1980 C   0  0  0  0  0  3  0  0  0  0  0  0
  -25.7200  -26.5650   15.0840 C   0  0  0  0  0  3  0  0  0  0  0  0
  -23.0810  -28.2270   18.1680 C   0  0  0  0  0  3  0  0  0  0  0  0
  -24.2720  -28.4990   15.8780 C   0  0  0  0  0  3  0  0  0  0  0  0
  -25.5100  -28.8930   18.0070 C   0  0  0  0  0  2  0  0  0  0  0  0
  -25.4340  -28.2870   16.6190 C   0  0  0  0  0  3  0  0  0  0  0  0
  -26.3480  -27.3690   16.0830 C   0  0  0  0  0  2  0  0  0  0  0  0
  -25.2810  -27.2830   14.0070 C   0  0  0  0  0  2  0  0  0  0  0  0
  -24.2820  -28.1530   14.4840 C   0  0  0  0  0  2  0  0  0  0  0  0
  -23.0570  -28.8570   16.7210 C   0  0  0  0  0  2  0  0  0  0  0  0
  -24.3190  -28.6180   18.8460 N   0  0  0  0  0  0  0  0  0  0  0  0
  -23.3450  -28.2130   20.8590 O   0  0  0  0  0  0  0  0  0  0  0  0
  -23.1240  -26.6950   18.3260 C   0  0  0  0  0  0  0  0  0  0  0  0
  -22.0960  -25.9970   18.0910 N   0  0  1  0  0  4  0  0  0  0  0  0
  -24.0820  -26.0620   18.7390 O   0  0  0  0  0  0  0  0  0  0  0  0
  -21.1930  -26.4180   17.9360 H   0  0  0  0  0  0  0  0  0  0  0  0
  -19.2900  -23.8810   15.8070 C   0  0  0  0  0  1  0  0  0  0  0  0
  -22.3220  -24.5880   17.7130 C   0  0  0  0  0  2  0  0  0  0  0  0
  -23.2660  -23.7690   15.6350 C   0  0  0  0  0 15  0  0  0  0  0  0
  -22.1960  -23.6700   13.3800 C   0  0  0  0  0 15  0  0  0  0  0  0
  -19.8030  -23.4480   13.9330 C   0  0  0  0  0 15  0  0  0  0  0  0
  -20.4180  -24.6110   17.6440 C   0  0  1  0  0  0  0  0  0  0  0  0
  -19.4530  -24.8400   18.9020 C   0  0  0  0  0  3  0  0  0  0  0  0
  -17.9250  -24.5910   18.8260 C   0  0  0  0  0  3  0  0  0  0  0  0
  -17.1400  -24.0730   17.6140 C   0  0  0  0  0  3  0  0  0  0  0  0
  -17.7070  -23.7190   16.2020 C   0  0  0  0  0  2  0  0  0  0  0  0
  -25.6690  -28.7890   20.9520 C   0  0  0  0  0  3  0  0  0  0  0  0
  -26.9040  -28.0020   20.3750 C   0  0  1  0  0  0  0  0  0  0  0  0
  -26.6210  -26.5120   20.0740 C   0  0  0  0  0  1  0  0  0  0  0  0
  -27.4320  -28.6500   19.0750 C   0  0  0  0  0  1  0  0  0  0  0  0
  -28.0600  -28.0840   21.3960 C   0  0  0  0  0  1  0  0  0  0  0  0
  -25.3990  -28.4180   22.3390 N   0  0  0  0  0  0  0  0  0  0  0  0
  -25.0400  -29.2930   23.2830 C   0  0  0  0  0  0  0  0  0  0  0  0
  -25.0070  -30.5110   23.0890 O   0  0  0  0  0  0  0  0  0  0  0  0
  -25.3620  -27.4310   22.5530 H   0  0  0  0  0  0  0  0  0  0  0  0
  -23.1510  -28.7160   24.8370 C   0  0  0  0  0  1  0  0  0  0  0  0
  -24.6780  -28.7230   24.6650 C   0  0  0  0  0  3  0  0  0  0  0  0
  -26.7590  -29.2910   25.8340 C   0  0  0  0  0  1  0  0  0  0  0  0
  -25.3090  -29.4630   25.7780 N   0  0  0  0  0  0  0  0  0  0  0  0
  -24.9200  -29.1700   26.6710 H   0  0  0  0  0  0  0  0  0  0  0  0
  1  3  2  0
  1  4  1  0
  2  6  2  0
  3  2  1  0
  4  5  2  0
  5  6  1  0
  6 14  1  0
  7  9  1  0
  8  4  1  0
 12 15  1  0
 13 10  2  0
 15 71  1  0
 16  7  2  0
 18 17  2  0
 20 19  1  0
 22 28  1  0
 23 28  1  0
 24 25  1  0
 24 23  1  0
 26 25  1  0
 26 33  1  0
 26 27  1  0
 28 27  1  0
 29 22  1  0
 30 31  2  0
 31 50  1  0
 32 35  1  0
 32 31  1  0
 33 34  1  0
 33 30  1  0
 34 32  2  0
 35 36  1  0
 36 37  2  0
 38 41  1  0
 38 37  1  0
 39 38  2  0
 40 39  1  0
 40 35  2  0
 41 42  1  0
 42 47  2  0
 42 43  1  0
 43 44  2  0
 44 45  1  0
 45 49  1  0
 46 45  2  0
 47 46  1  0
 48 47  1  0
 50 51  1  0
 51 53  1  0
 51 54  1  0
 52 50  2  0
 55 30  1  0
 55 56  1  0
 57 55  1  0
 59 58  1  0
 60 71  1  0
 60 86  1  0
 61 59  1  0
 61 66  1  0
 62 69  1  0
 62 72  1  0
 62 70  1  0
 63 68  1  0
 63 65  1  0
 63 69  1  0
 65 66  1  0
 65 64  1  0
 67 68  1  0
 67 61  1  0
 70 64  1  0
 70 60  1  0
 72 74  2  0
 73 72  1  0
 73 12  1  0
 73 75  1  6
 76 85  1  0
 77 73  1  0
 81 10  1  0
 81 77  1  1
 81 82  1  0
 81  8  1  0
 82 83  1  0
 82  8  1  0
 84 83  2  0
 85 84  1  0
 86 87  1  0
 86 91  1  0
 87 90  1  1
 88 87  1  0
 89 87  1  0
 91 94  1  0
 91 92  1  0
 92 96  1  0
 93 92  2  0
 96 95  1  0
 96 98  1  0
 98 97  1  0
 98 99  1  0
M  ISO  4  21 100  22 100  58 101  59 101
M  END
>  <TORSDO>  (78) 
F 20

>  <SCORE>  (78) 
-5.127

>  <name>  (78) 
79

>  <ligand_id>  (78) 
79

>  <original_smiles>  (78) 
[H]c1c([H])c([H])c2c(c1[H])C([H])([H])C([H])([H])C([H])([H])C2([H])N([H])C(=O)C1([H])N(C(=O)C([H])(N([H])C(=O)C([H])(N([H])C([H])([H])[H])C([H])([H])[H])C(C([H])([H])[H])(C([H])([H])[H])C([H])([H])[H])C([H])([H])c2c([H])c(OC([H])([H])C34C(=O)C([H])([H])C([H])([H])C3(C([H])([H])[H])c3c(C([H])([H])[H])c([H])c(C(=O)C([H])(C([H])([H])[H])C([H])([H])C(=O)N5C([H])([H])C([H])([H])C([H])([H])C([H])(n6nc(-c7c([H])c([H])c(Oc8c([H])c([H])c(F)c([H])c8F)c([H])c7[H])c(C(=O)N([H])[H])c6N([H])[H])C5([H])[H])c([H])c3C([H])([H])C4([H])[H])c([H])c([H])c2C1([H])[H]

>  <smiles>  (78) 
[H]c1c([H])c([H])c2c(c1[H])C([H])([H])C([H])([H])C([H])([H])C2([H])N([H])C(=O)C1([H])N(C(=O)C([H])(N([H])C(=O)C([H])(N([H])C([H])([H])[H])C([H])([H])[H])C(C([H])([H])[H])(C([H])([H])[H])C([H])([H])[H])C([H])([H])c2c([H])c(OC([H])([H])C34C(=O)C([H])([H])C([H])([H])C3(C([H])([H])[H])c3c(C([H])([H])[H])c([H])c(C(=O)C([H])(C([H])([H])[H])C([H])([H])C(=O)N5C([H])([H])C([H])([H])C([H])([H])C([H])(n6nc(-c7c([H])c([H])c(Oc8c([H])c([H])c(F)c([H])c8F)c([H])c7[H])c(C(=O)N([H])[H])c6N([H])[H])C5([H])[H])c([H])c3C([H])([H])C4([H])[H])c([H])c([H])c2C1([H])[H]

$$$$
80:0:0
     RDKit          3D

 92101  0  0  1  0  0  0  0  0999 V2000
  -30.4280  -17.9830   21.1280 C   0  0  0  0  0  3  0  0  0  0  0  0
  -29.8410  -16.8210   20.4700 C   0  0  0  0  0  0  0  0  0  0  0  0
  -30.0530  -19.4140   20.9910 C   0  0  0  0  0  0  0  0  0  0  0  0
  -28.9540  -19.8970   20.1970 C   0  0  0  0  0  0  0  0  0  0  0  0
  -28.7980  -17.3440   19.5910 C   0  0  0  0  0  0  0  0  0  0  0  0
  -28.3340  -18.7550   19.5370 C   0  0  0  0  0  0  0  0  0  0  0  0
  -30.9480  -20.4690   21.6380 C   0  0  0  0  0  2  0  0  0  0  0  0
  -28.5470  -21.5140   19.8340 C   0  0  0  0  0  2  0  0  0  0  0  0
  -30.2370  -21.6850   22.3000 C   0  0  0  0  0  2  0  0  0  0  0  0
  -29.9440  -22.9640   21.4380 C   0  0  0  0  0  2  0  0  0  0  0  0
  -28.5820  -23.0090   20.6910 C   0  0  2  0  0  0  0  0  0  0  0  0
  -28.2570  -16.4170   18.5100 C   0  0  0  0  0  1  0  0  0  0  0  0
  -27.1280  -19.1050   18.6600 C   0  0  0  0  0  1  0  0  0  0  0  0
  -27.4370  -22.9460   21.7270 C   0  0  0  0  0  1  0  0  0  0  0  0
  -30.5200  -15.3000   20.4810 C   0  0  0  0  0  0  0  0  0  0  0  0
  -30.4590  -12.8780   19.6340 C   0  0  0  0  0  2  0  0  0  0  0  0
  -29.5730  -12.7110   18.3750 C   0  0  0  0  0  2  0  0  0  0  0  0
  -28.1040  -12.4810   18.7760 C   0  0  0  0  0  2  0  0  0  0  0  0
  -27.6440  -13.4250   19.9150 C   0  0  0  0  0  3  0  0  0  0  0  0
  -28.6660  -13.5620   21.0540 C   0  0  0  0  0  2  0  0  0  0  0  0
  -29.9220  -14.0200   20.4480 N   0  0  0  0  0  0  0  0  0  0  0  0
  -31.7510  -15.2570   20.3480 O   0  0  0  0  0  0  0  0  0  0  0  0
  -25.2630  -14.0120   20.6050 C   0  0  0  0  0  0  0  0  0  0  0  0
  -24.1890  -13.2390   20.9390 C   0  0  0  0  0  0  0  0  0  0  0  0
  -24.6560  -11.8880   20.9270 C   0  0  0  0  0  0  0  0  0  0  0  0
  -26.3080  -13.1290   20.3940 N   0  0  0  0  0  0  0  0  0  0  0  0
  -25.9530  -11.8470   20.6560 N   0  0  0  0  0  0  0  0  0  0  0  0
  -23.9290  -10.6270   21.0960 C   0  0  0  0  0  0  0  0  0  0  0  0
  -24.3350   -9.6650   22.0480 C   0  0  0  0  0  3  0  0  0  0  0  0
  -23.6080   -8.4670   22.2070 C   0  0  0  0  0  3  0  0  0  0  0  0
  -22.4620   -8.2230   21.4130 C   0  0  0  0  0  0  0  0  0  0  0  0
  -22.0760   -9.1730   20.4520 C   0  0  0  0  0  3  0  0  0  0  0  0
  -22.8040  -10.3630   20.2910 C   0  0  0  0  0  3  0  0  0  0  0  0
  -21.7060   -7.0780   21.4820 O   0  0  0  0  0  0  0  0  0  0  0  0
  -21.6220   -6.3410   22.6360 C   0  0  0  0  0  0  0  0  0  0  0  0
  -21.1200   -6.8910   23.8360 C   0  0  0  0  0  3  0  0  0  0  0  0
  -20.9850   -6.0780   24.9800 C   0  0  0  0  0  3  0  0  0  0  0  0
  -21.3420   -4.7160   24.9230 C   0  0  0  0  0  0  0  0  0  0  0  0
  -21.8380   -4.1670   23.7270 C   0  0  0  0  0  3  0  0  0  0  0  0
  -21.9740   -4.9770   22.5860 C   0  0  0  0  0  0  0  0  0  0  0  0
  -22.4310   -4.4370   21.4310 F   0  0  0  0  0  0  0  0  0  0  0  0
  -21.2050   -3.9340   26.0190 F   0  0  0  0  0  0  0  0  0  0  0  0
  -22.7850  -13.7160   21.1650 C   0  0  0  0  0  0  0  0  0  0  0  0
  -22.0310  -13.0230   22.0090 N   0  0  0  0  0  0  0  0  0  0  0  0
  -22.3660  -14.7410   20.6270 O   0  0  0  0  0  0  0  0  0  0  0  0
  -22.3830  -12.1930   22.4630 H   0  0  0  0  0  0  0  0  0  0  0  0
  -21.0870  -13.3240   22.2040 H   0  0  0  0  0  0  0  0  0  0  0  0
  -25.4400  -15.3830   20.4370 N   0  0  0  0  0  0  0  0  0  0  0  0
  -24.6800  -16.0440   20.5510 H   0  0  0  0  0  0  0  0  0  0  0  0
  -26.3260  -15.8250   20.2250 H   0  0  0  0  0  0  0  0  0  0  0  0
  -28.2770  -24.5710   19.9260 C   0  0  0  0  0  2  0  0  0  0  0  0
  -28.2870  -26.1170   20.3990 O   0  0  0  0  0  0  0  0  0  0  0  0
  -24.6450  -31.9700   23.2640 C   0  0  0  0  0  0  0  0  0  0  0  0
  -27.2500  -27.1540   20.2710 C   0  0  0  0  0  0  0  0  0  0  0  0
  -23.4580  -30.5410   21.6450 C   0  0  0  0  0  3  0  0  0  0  0  0
  -24.9210  -28.9570   20.2220 C   0  0  0  0  0  0  0  0  0  0  0  0
  -26.0190  -30.7940   21.4910 C   0  0  0  0  0  2  0  0  0  0  0  0
  -26.1000  -29.3900   20.8400 C   0  0  0  0  0  0  0  0  0  0  0  0
  -27.2570  -28.5060   20.8470 C   0  0  0  0  0  3  0  0  0  0  0  0
  -26.0500  -26.8600   19.5880 C   0  0  0  0  0  3  0  0  0  0  0  0
  -24.9180  -27.7110   19.5720 C   0  0  0  0  0  3  0  0  0  0  0  0
  -23.6880  -29.8520   20.2720 C   0  0  0  0  0  2  0  0  0  0  0  0
  -24.7260  -31.1310   22.1820 N   0  0  0  0  0  0  0  0  0  0  0  0
  -23.5560  -32.2480   23.7900 O   0  0  0  0  0  0  0  0  0  0  0  0
  -22.7900  -29.5400   22.6240 C   0  0  0  0  0  0  0  0  0  0  0  0
  -21.4670  -29.3320   22.4920 N   0  0  0  0  0  0  0  0  0  0  0  0
  -23.4700  -28.9540   23.4710 O   0  0  0  0  0  0  0  0  0  0  0  0
  -20.9740  -29.8580   21.7840 H   0  0  0  0  0  0  0  0  0  0  0  0
  -18.1190  -28.0320   23.0000 C   0  0  0  0  0  0  0  0  0  0  0  0
  -20.6660  -28.3890   23.2800 C   0  0  0  0  0  3  0  0  0  0  0  0
  -20.8210  -26.9450   22.7450 C   0  0  0  0  0  2  0  0  0  0  0  0
  -19.7390  -26.5610   21.7310 C   0  0  0  0  0  2  0  0  0  0  0  0
  -18.3460  -26.6740   22.3550 C   0  0  0  0  0  2  0  0  0  0  0  0
  -19.2070  -28.8420   23.4170 C   0  0  0  0  0  0  0  0  0  0  0  0
  -18.9380  -30.1100   23.9800 C   0  0  0  0  0  3  0  0  0  0  0  0
  -17.6140  -30.5660   24.1280 C   0  0  0  0  0  3  0  0  0  0  0  0
  -16.5420  -29.7520   23.7230 C   0  0  0  0  0  3  0  0  0  0  0  0
  -16.7940  -28.4870   23.1630 C   0  0  0  0  0  3  0  0  0  0  0  0
  -25.9110  -32.6380   23.8760 C   0  0  0  0  0  3  0  0  0  0  0  0
  -25.5800  -34.0400   24.1790 N   0  0  0  0  0  0  0  0  0  0  0  0
  -25.9020  -35.0910   23.4140 C   0  0  0  0  0  0  0  0  0  0  0  0
  -26.5760  -34.9820   22.3860 O   0  0  0  0  0  0  0  0  0  0  0  0
  -24.9850  -34.1970   24.9790 H   0  0  0  0  0  0  0  0  0  0  0  0
  -24.1660  -36.8780   23.0330 C   0  0  0  0  0  1  0  0  0  0  0  0
  -25.4000  -36.4810   23.8580 C   0  0  0  0  0  3  0  0  0  0  0  0
  -27.5130  -37.3930   24.7170 C   0  0  0  0  0  1  0  0  0  0  0  0
  -26.4250  -37.5430   23.7540 N   0  0  0  0  0  0  0  0  0  0  0  0
  -26.0060  -38.4580   23.8900 H   0  0  0  0  0  0  0  0  0  0  0  0
  -26.4260  -31.9140   25.1820 C   0  0  1  0  0  0  0  0  0  0  0  0
  -25.3220  -31.6820   26.2420 C   0  0  0  0  0  1  0  0  0  0  0  0
  -27.0500  -30.5400   24.8490 C   0  0  0  0  0  1  0  0  0  0  0  0
  -27.5430  -32.7580   25.8400 C   0  0  0  0  0  1  0  0  0  0  0  0
  2 15  1  0
  2  1  2  0
  3  1  1  0
  3  7  1  0
  4  3  2  0
  5  2  1  0
  6  5  2  0
  6  4  1  0
  7  9  1  0
  8  4  1  0
  8 11  1  0
 10  9  1  0
 11 10  1  0
 11 14  1  1
 12  5  1  0
 13  6  1  0
 16 21  1  0
 17 18  1  0
 17 16  1  0
 19 18  1  0
 19 26  1  0
 19 20  1  0
 21 15  1  0
 21 20  1  0
 22 15  2  0
 23 24  2  0
 24 43  1  0
 25 24  1  0
 25 28  1  0
 26 23  1  0
 26 27  1  0
 27 25  2  0
 28 29  1  0
 29 30  2  0
 31 34  1  0
 31 30  1  0
 32 31  2  0
 33 32  1  0
 33 28  2  0
 34 35  1  0
 35 36  1  0
 36 37  2  0
 38 37  1  0
 38 42  1  0
 39 38  2  0
 40 35  2  0
 40 39  1  0
 41 40  1  0
 43 44  1  0
 44 47  1  0
 44 46  1  0
 45 43  2  0
 48 49  1  0
 48 23  1  0
 50 48  1  0
 51 52  1  0
 51 11  1  0
 53 64  2  0
 54 52  1  0
 54 59  1  0
 55 63  1  0
 55 65  1  0
 56 62  1  0
 56 58  1  0
 57 63  1  0
 58 59  2  0
 58 57  1  0
 60 54  2  0
 61 60  1  0
 61 56  2  0
 62 55  1  0
 63 53  1  0
 65 67  2  0
 66 65  1  0
 68 66  1  0
 69 78  2  0
 69 74  1  0
 70 66  1  0
 70 74  1  0
 71 70  1  0
 72 73  1  0
 72 71  1  0
 73 69  1  0
 74 75  2  0
 75 76  1  0
 77 76  2  0
 78 77  1  0
 79 53  1  0
 79 80  1  0
 79 89  1  0
 80 83  1  0
 81 85  1  0
 81 80  1  0
 82 81  2  0
 85 84  1  0
 87 85  1  0
 87 88  1  0
 87 86  1  0
 89 92  1  1
 89 90  1  0
 91 89  1  0
M  ISO  4   2 100  15 100  51 101  52 101
M  END
>  <TORSDO>  (79) 
F 17

>  <SCORE>  (79) 
-15.832

>  <name>  (79) 
80

>  <ligand_id>  (79) 
80

>  <original_smiles>  (79) 
[H]c1c([H])c([H])c2c(c1[H])C([H])([H])C([H])([H])C([H])([H])C2([H])N([H])C(=O)C1([H])N(C(=O)C([H])(N([H])C(=O)C([H])(N([H])C([H])([H])[H])C([H])([H])[H])C(C([H])([H])[H])(C([H])([H])[H])C([H])([H])[H])C([H])([H])c2c([H])c(OC([H])([H])C3(C([H])([H])[H])C([H])([H])c4c(C([H])([H])[H])c(C([H])([H])[H])c(C(=O)N5C([H])([H])C([H])([H])C([H])([H])C([H])(n6nc(-c7c([H])c([H])c(Oc8c([H])c([H])c(F)c([H])c8F)c([H])c7[H])c(C(=O)N([H])[H])c6N([H])[H])C5([H])[H])c([H])c4C([H])([H])C([H])([H])C3([H])[H])c([H])c([H])c2C1([H])[H]

>  <smiles>  (79) 
[H]c1c([H])c([H])c2c(c1[H])C([H])([H])C([H])([H])C([H])([H])C2([H])N([H])C(=O)C1([H])N(C(=O)C([H])(N([H])C(=O)C([H])(N([H])C([H])([H])[H])C([H])([H])[H])C(C([H])([H])[H])(C([H])([H])[H])C([H])([H])[H])C([H])([H])c2c([H])c(OC([H])([H])C3(C([H])([H])[H])C([H])([H])c4c(C([H])([H])[H])c(C([H])([H])[H])c(C(=O)N5C([H])([H])C([H])([H])C([H])([H])C([H])(n6nc(-c7c([H])c([H])c(Oc8c([H])c([H])c(F)c([H])c8F)c([H])c7[H])c(C(=O)N([H])[H])c6N([H])[H])C5([H])[H])c([H])c4C([H])([H])C([H])([H])C3([H])[H])c([H])c([H])c2C1([H])[H]

$$$$
81:0:0
     RDKit          3D

 92101  0  0  1  0  0  0  0  0999 V2000
  -29.9400  -21.2790   19.7110 C   0  0  0  0  0  3  0  0  0  0  0  0
  -29.4390  -20.4260   20.6550 C   0  0  0  0  0  0  0  0  0  0  0  0
  -29.7600  -22.8370   19.5670 C   0  0  0  0  0  2  0  0  0  0  0  0
  -28.5680  -21.1510   21.6910 C   0  0  0  0  0  2  0  0  0  0  0  0
  -27.9170  -22.5130   21.1900 C   0  0  0  0  0  2  0  0  0  0  0  0
  -28.8510  -23.6370   20.5880 C   0  0  1  0  0  0  0  0  0  0  0  0
  -29.7180  -24.2100   21.7220 C   0  0  0  0  0  1  0  0  0  0  0  0
  -28.7400  -18.6540   19.1680 C   0  0  0  0  0  3  0  0  0  0  0  0
  -28.7500  -17.4000   18.5650 C   0  0  0  0  0  3  0  0  0  0  0  0
  -29.9450  -17.6910   21.0640 C   0  0  0  0  0  3  0  0  0  0  0  0
  -29.4100  -18.8860   20.3780 C   0  0  0  0  0  0  0  0  0  0  0  0
  -29.9150  -16.3250   20.4910 C   0  0  0  0  0  0  0  0  0  0  0  0
  -29.4120  -16.3060   19.1480 C   0  0  0  0  0  0  0  0  0  0  0  0
  -29.6860  -15.1970   18.1580 C   0  0  0  0  0  1  0  0  0  0  0  0
  -30.6190  -15.0120   21.0680 C   0  0  0  0  0  0  0  0  0  0  0  0
  -30.6200  -12.5720   20.4340 C   0  0  0  0  0  2  0  0  0  0  0  0
  -29.8540  -12.2250   19.1340 C   0  0  0  0  0  2  0  0  0  0  0  0
  -28.3190  -12.2420   19.3080 C   0  0  0  0  0  2  0  0  0  0  0  0
  -27.7660  -13.2830   20.3230 C   0  0  0  0  0  3  0  0  0  0  0  0
  -28.6680  -13.4330   21.5580 C   0  0  0  0  0  2  0  0  0  0  0  0
  -30.0140  -13.7630   21.0770 N   0  0  0  0  0  0  0  0  0  0  0  0
  -31.8490  -15.0530   21.1560 O   0  0  0  0  0  0  0  0  0  0  0  0
  -25.3150  -13.8900   20.7730 C   0  0  0  0  0  0  0  0  0  0  0  0
  -24.2110  -13.1220   21.0250 C   0  0  0  0  0  0  0  0  0  0  0  0
  -24.6720  -11.7720   21.0840 C   0  0  0  0  0  0  0  0  0  0  0  0
  -26.3770  -13.0070   20.6820 N   0  0  0  0  0  0  0  0  0  0  0  0
  -25.9910  -11.7310   20.9460 N   0  0  0  0  0  0  0  0  0  0  0  0
  -23.9290  -10.5110   21.2050 C   0  0  0  0  0  0  0  0  0  0  0  0
  -24.2740   -9.5380   22.1690 C   0  0  0  0  0  3  0  0  0  0  0  0
  -23.5300   -8.3440   22.2800 C   0  0  0  0  0  3  0  0  0  0  0  0
  -22.4280   -8.1120   21.4240 C   0  0  0  0  0  0  0  0  0  0  0  0
  -22.1040   -9.0720   20.4490 C   0  0  0  0  0  3  0  0  0  0  0  0
  -22.8470  -10.2590   20.3370 C   0  0  0  0  0  3  0  0  0  0  0  0
  -21.6630   -6.9700   21.4420 O   0  0  0  0  0  0  0  0  0  0  0  0
  -21.5460   -6.2010   22.5720 C   0  0  0  0  0  0  0  0  0  0  0  0
  -21.0750   -6.7350   23.7910 C   0  0  0  0  0  3  0  0  0  0  0  0
  -20.9040   -5.8930   24.9090 C   0  0  0  0  0  3  0  0  0  0  0  0
  -21.1940   -4.5200   24.8080 C   0  0  0  0  0  0  0  0  0  0  0  0
  -21.6590   -3.9860   23.5930 C   0  0  0  0  0  3  0  0  0  0  0  0
  -21.8310   -4.8240   22.4770 C   0  0  0  0  0  0  0  0  0  0  0  0
  -22.2590   -4.3000   21.3030 F   0  0  0  0  0  0  0  0  0  0  0  0
  -21.0240   -3.7100   25.8790 F   0  0  0  0  0  0  0  0  0  0  0  0
  -22.7910  -13.6010   21.1040 C   0  0  0  0  0  0  0  0  0  0  0  0
  -21.9610  -12.9280   21.8950 N   0  0  0  0  0  0  0  0  0  0  0  0
  -22.4190  -14.6060   20.5000 O   0  0  0  0  0  0  0  0  0  0  0  0
  -22.2710  -12.1160   22.4070 H   0  0  0  0  0  0  0  0  0  0  0  0
  -21.0020  -13.2320   21.9920 H   0  0  0  0  0  0  0  0  0  0  0  0
  -25.5030  -15.2560   20.5880 N   0  0  0  0  0  0  0  0  0  0  0  0
  -24.7350  -15.9170   20.5980 H   0  0  0  0  0  0  0  0  0  0  0  0
  -26.3960  -15.6870   20.3770 H   0  0  0  0  0  0  0  0  0  0  0  0
  -27.9680  -24.8780   19.9540 C   0  0  0  0  0  2  0  0  0  0  0  0
  -28.2770  -26.3660   19.9250 O   0  0  0  0  0  0  0  0  0  0  0  0
  -24.5390  -31.7970   23.0090 C   0  0  0  0  0  0  0  0  0  0  0  0
  -27.1830  -27.2760   19.8600 C   0  0  0  0  0  0  0  0  0  0  0  0
  -23.3380  -30.3960   21.3720 C   0  0  0  0  0  3  0  0  0  0  0  0
  -24.7970  -28.8990   19.8920 C   0  0  0  0  0  0  0  0  0  0  0  0
  -25.8740  -30.7560   21.1530 C   0  0  0  0  0  2  0  0  0  0  0  0
  -25.9720  -29.3840   20.4820 C   0  0  0  0  0  0  0  0  0  0  0  0
  -27.1660  -28.5880   20.4530 C   0  0  0  0  0  3  0  0  0  0  0  0
  -25.9840  -26.8780   19.2200 C   0  0  0  0  0  3  0  0  0  0  0  0
  -24.8120  -27.6550   19.2460 C   0  0  0  0  0  3  0  0  0  0  0  0
  -23.5440  -29.7490   19.9770 C   0  0  0  0  0  2  0  0  0  0  0  0
  -24.6040  -31.0020   21.9000 N   0  0  0  0  0  0  0  0  0  0  0  0
  -23.4600  -32.0450   23.5650 O   0  0  0  0  0  0  0  0  0  0  0  0
  -22.7130  -29.3520   22.3290 C   0  0  0  0  0  0  0  0  0  0  0  0
  -21.3860  -29.1570   22.2340 N   0  0  0  0  0  0  0  0  0  0  0  0
  -23.4200  -28.7230   23.1210 O   0  0  0  0  0  0  0  0  0  0  0  0
  -20.8720  -29.7180   21.5690 H   0  0  0  0  0  0  0  0  0  0  0  0
  -18.0430  -27.8850   22.7930 C   0  0  0  0  0  0  0  0  0  0  0  0
  -20.6010  -28.1930   23.0100 C   0  0  0  0  0  3  0  0  0  0  0  0
  -20.7180  -26.7710   22.4110 C   0  0  0  0  0  2  0  0  0  0  0  0
  -19.6010  -26.4420   21.4170 C   0  0  0  0  0  2  0  0  0  0  0  0
  -18.2310  -26.5500   22.0940 C   0  0  0  0  0  2  0  0  0  0  0  0
  -19.1550  -28.6640   23.2080 C   0  0  0  0  0  0  0  0  0  0  0  0
  -18.9240  -29.9130   23.8250 C   0  0  0  0  0  3  0  0  0  0  0  0
  -17.6140  -30.3840   24.0280 C   0  0  0  0  0  3  0  0  0  0  0  0
  -16.5160  -29.6030   23.6280 C   0  0  0  0  0  3  0  0  0  0  0  0
  -16.7310  -28.3550   23.0150 C   0  0  0  0  0  3  0  0  0  0  0  0
  -25.8180  -32.4520   23.6160 C   0  0  0  0  0  3  0  0  0  0  0  0
  -25.4650  -33.8200   24.0250 N   0  0  0  0  0  0  0  0  0  0  0  0
  -25.7490  -34.9230   23.3210 C   0  0  0  0  0  0  0  0  0  0  0  0
  -26.4030  -34.8990   22.2750 O   0  0  0  0  0  0  0  0  0  0  0  0
  -24.8810  -33.9100   24.8440 H   0  0  0  0  0  0  0  0  0  0  0  0
  -23.9570  -36.6740   23.0940 C   0  0  0  0  0  1  0  0  0  0  0  0
  -25.2250  -36.2680   23.8620 C   0  0  0  0  0  3  0  0  0  0  0  0
  -27.3480  -37.1760   24.7000 C   0  0  0  0  0  1  0  0  0  0  0  0
  -26.2200  -37.3600   23.7890 N   0  0  0  0  0  0  0  0  0  0  0  0
  -25.7880  -38.2560   23.9970 H   0  0  0  0  0  0  0  0  0  0  0  0
  -26.4070  -31.6450   24.8370 C   0  0  1  0  0  0  0  0  0  0  0  0
  -25.3640  -31.3240   25.9350 C   0  0  0  0  0  1  0  0  0  0  0  0
  -27.0210  -30.3060   24.3660 C   0  0  0  0  0  1  0  0  0  0  0  0
  -27.5570  -32.4500   25.4910 C   0  0  0  0  0  1  0  0  0  0  0  0
  1  2  2  0
  2  4  1  0
  3  1  1  0
  3  6  1  0
  5  4  1  0
  6  5  1  0
  6  7  1  1
  8 11  1  0
  9 13  1  0
  9  8  2  0
 11  2  1  0
 11 10  2  0
 12 10  1  0
 12 15  1  0
 13 12  2  0
 14 13  1  0
 15 21  1  0
 15 22  2  0
 16 21  1  0
 17 18  1  0
 17 16  1  0
 19 18  1  0
 19 26  1  0
 19 20  1  0
 21 20  1  0
 23 24  2  0
 24 25  1  0
 24 43  1  0
 25 28  1  0
 26 23  1  0
 26 27  1  0
 27 25  2  0
 28 29  1  0
 29 30  2  0
 31 34  1  0
 31 30  1  0
 32 31  2  0
 33 32  1  0
 33 28  2  0
 34 35  1  0
 35 36  1  0
 36 37  2  0
 38 37  1  0
 38 42  1  0
 39 38  2  0
 40 35  2  0
 40 39  1  0
 41 40  1  0
 43 44  1  0
 44 47  1  0
 44 46  1  0
 45 43  2  0
 48 49  1  0
 48 23  1  0
 50 48  1  0
 51  6  1  0
 52 51  1  0
 53 64  2  0
 54 52  1  0
 54 59  1  0
 55 63  1  0
 55 65  1  0
 56 62  1  0
 56 58  1  0
 57 63  1  0
 58 57  1  0
 59 58  2  0
 60 61  1  0
 60 54  2  0
 61 56  2  0
 62 55  1  0
 63 53  1  0
 65 67  2  0
 66 65  1  0
 68 66  1  0
 69 78  2  0
 69 74  1  0
 70 66  1  0
 70 74  1  0
 71 70  1  0
 72 73  1  0
 72 71  1  0
 73 69  1  0
 74 75  2  0
 75 76  1  0
 77 76  2  0
 78 77  1  0
 79 53  1  0
 79 80  1  0
 79 89  1  0
 80 83  1  0
 81 85  1  0
 81 80  1  0
 82 81  2  0
 85 84  1  0
 87 85  1  0
 87 88  1  0
 87 86  1  0
 89 92  1  1
 89 90  1  0
 91 89  1  0
M  ISO  4  12 100  15 100  51 101  52 101
M  END
>  <TORSDO>  (80) 
F 18

>  <SCORE>  (80) 
-13.165

>  <name>  (80) 
81

>  <ligand_id>  (80) 
81

>  <original_smiles>  (80) 
[H]C1=C(c2c([H])c([H])c(C([H])([H])[H])c(C(=O)N3C([H])([H])C([H])([H])C([H])([H])C([H])(n4nc(-c5c([H])c([H])c(Oc6c([H])c([H])c(F)c([H])c6F)c([H])c5[H])c(C(=O)N([H])[H])c4N([H])[H])C3([H])[H])c2[H])C([H])([H])C([H])([H])C(C([H])([H])[H])(C([H])([H])Oc2c([H])c([H])c3c(c2[H])C([H])([H])N(C(=O)C([H])(N([H])C(=O)C([H])(N([H])C([H])([H])[H])C([H])([H])[H])C(C([H])([H])[H])(C([H])([H])[H])C([H])([H])[H])C([H])(C(=O)N([H])C2([H])c4c([H])c([H])c([H])c([H])c4C([H])([H])C([H])([H])C2([H])[H])C3([H])[H])C1([H])[H]

>  <smiles>  (80) 
[H]C1=C(c2c([H])c([H])c(C([H])([H])[H])c(C(=O)N3C([H])([H])C([H])([H])C([H])([H])C([H])(n4nc(-c5c([H])c([H])c(Oc6c([H])c([H])c(F)c([H])c6F)c([H])c5[H])c(C(=O)N([H])[H])c4N([H])[H])C3([H])[H])c2[H])C([H])([H])C([H])([H])C(C([H])([H])[H])(C([H])([H])Oc2c([H])c([H])c3c(c2[H])C([H])([H])N(C(=O)C([H])(N([H])C(=O)C([H])(N([H])C([H])([H])[H])C([H])([H])[H])C(C([H])([H])[H])(C([H])([H])[H])C([H])([H])[H])C([H])(C(=O)N([H])C2([H])c4c([H])c([H])c([H])c([H])c4C([H])([H])C([H])([H])C2([H])[H])C3([H])[H])C1([H])[H]

$$$$
82:0:0
     RDKit          3D

 89 97  0  0  1  0  0  0  0  0999 V2000
  -28.7590  -20.0590   18.7710 C   0  0  0  0  0  3  0  0  0  0  0  0
  -28.3150  -21.2790   18.1880 C   0  0  0  0  0  3  0  0  0  0  0  0
  -29.2900  -19.9420   20.0720 C   0  0  0  0  0  0  0  0  0  0  0  0
  -29.1950  -21.3490   20.7490 C   0  0  0  0  0  0  0  0  0  0  0  0
  -28.6860  -22.7170   20.1790 C   0  0  0  0  0  0  0  0  0  0  0  0
  -28.2860  -22.5570   18.8340 C   0  0  0  0  0  0  0  0  0  0  0  0
  -29.6650  -21.4040   22.1870 C   0  0  0  0  0  1  0  0  0  0  0  0
  -29.9240  -18.3630   20.4100 C   0  0  0  0  0  3  0  0  0  0  0  0
  -29.6880  -16.9270   20.0760 C   0  0  0  0  0  3  0  0  0  0  0  0
  -30.5060  -15.4930   20.1630 C   0  0  0  0  0  0  0  0  0  0  0  0
  -30.4780  -13.0390   19.2500 C   0  0  0  0  0  2  0  0  0  0  0  0
  -29.5310  -12.8180   18.0410 C   0  0  0  0  0  2  0  0  0  0  0  0
  -28.0980  -12.5190   18.5120 C   0  0  0  0  0  2  0  0  0  0  0  0
  -27.6620  -13.4670   19.6570 C   0  0  0  0  0  3  0  0  0  0  0  0
  -28.7360  -13.6390   20.7490 C   0  0  0  0  0  2  0  0  0  0  0  0
  -29.9410  -14.1760   20.0930 N   0  0  0  0  0  0  0  0  0  0  0  0
  -31.7360  -15.4370   20.0120 O   0  0  0  0  0  0  0  0  0  0  0  0
  -25.3160  -13.9900   20.4960 C   0  0  0  0  0  0  0  0  0  0  0  0
  -24.2700  -13.2000   20.8800 C   0  0  0  0  0  0  0  0  0  0  0  0
  -24.7460  -11.8540   20.8170 C   0  0  0  0  0  0  0  0  0  0  0  0
  -26.3560  -13.1260   20.2070 N   0  0  0  0  0  0  0  0  0  0  0  0
  -26.0290  -11.8340   20.4710 N   0  0  0  0  0  0  0  0  0  0  0  0
  -24.0310  -10.5840   21.0080 C   0  0  0  0  0  0  0  0  0  0  0  0
  -24.4660   -9.6220   21.9450 C   0  0  0  0  0  3  0  0  0  0  0  0
  -23.7470   -8.4200   22.1240 C   0  0  0  0  0  3  0  0  0  0  0  0
  -22.5790   -8.1710   21.3650 C   0  0  0  0  0  0  0  0  0  0  0  0
  -22.1620   -9.1220   20.4170 C   0  0  0  0  0  3  0  0  0  0  0  0
  -22.8810  -10.3160   20.2370 C   0  0  0  0  0  3  0  0  0  0  0  0
  -21.8310   -7.0210   21.4530 O   0  0  0  0  0  0  0  0  0  0  0  0
  -21.7640   -6.2940   22.6140 C   0  0  0  0  0  0  0  0  0  0  0  0
  -21.2690   -6.8490   23.8140 C   0  0  0  0  0  3  0  0  0  0  0  0
  -21.1520   -6.0460   24.9650 C   0  0  0  0  0  3  0  0  0  0  0  0
  -21.5190   -4.6870   24.9170 C   0  0  0  0  0  0  0  0  0  0  0  0
  -22.0080   -4.1320   23.7220 C   0  0  0  0  0  3  0  0  0  0  0  0
  -22.1270   -4.9320   22.5720 C   0  0  0  0  0  0  0  0  0  0  0  0
  -22.5770   -4.3870   21.4170 F   0  0  0  0  0  0  0  0  0  0  0  0
  -21.4010   -3.9130   26.0210 F   0  0  0  0  0  0  0  0  0  0  0  0
  -22.8760  -13.6640   21.1870 C   0  0  0  0  0  0  0  0  0  0  0  0
  -22.1690  -12.9490   22.0530 N   0  0  0  0  0  0  0  0  0  0  0  0
  -22.4250  -14.6970   20.6940 O   0  0  0  0  0  0  0  0  0  0  0  0
  -22.5490  -12.1140   22.4730 H   0  0  0  0  0  0  0  0  0  0  0  0
  -21.2340  -13.2410   22.3020 H   0  0  0  0  0  0  0  0  0  0  0  0
  -25.4660  -15.3650   20.3390 N   0  0  0  0  0  0  0  0  0  0  0  0
  -24.7010  -16.0130   20.4910 H   0  0  0  0  0  0  0  0  0  0  0  0
  -26.3110  -15.8190   20.0180 H   0  0  0  0  0  0  0  0  0  0  0  0
  -27.7200  -23.7100   16.7930 C   0  0  0  0  0  1  0  0  0  0  0  0
  -27.8300  -23.6990   18.2100 O   0  0  0  0  0  0  0  0  0  0  0  0
  -28.3100  -24.3060   20.8870 C   0  0  0  0  0  2  0  0  0  0  0  0
  -28.4420  -25.9120   20.4300 O   0  0  0  0  0  0  0  0  0  0  0  0
  -24.6910  -31.9340   23.2580 C   0  0  0  0  0  0  0  0  0  0  0  0
  -27.4070  -27.0050   20.4220 C   0  0  0  0  0  0  0  0  0  0  0  0
  -23.5690  -30.4910   21.6090 C   0  0  0  0  0  3  0  0  0  0  0  0
  -25.0850  -28.8750   20.2670 C   0  0  0  0  0  0  0  0  0  0  0  0
  -26.1390  -30.7310   21.5390 C   0  0  0  0  0  2  0  0  0  0  0  0
  -26.2500  -29.3040   20.9150 C   0  0  0  0  0  0  0  0  0  0  0  0
  -27.4090  -28.3940   20.9590 C   0  0  0  0  0  3  0  0  0  0  0  0
  -26.2060  -26.7360   19.7290 C   0  0  0  0  0  3  0  0  0  0  0  0
  -25.0900  -27.6130   19.6520 C   0  0  0  0  0  3  0  0  0  0  0  0
  -23.8540  -29.7850   20.2550 C   0  0  0  0  0  2  0  0  0  0  0  0
  -24.8190  -31.0820   22.1880 N   0  0  0  0  0  0  0  0  0  0  0  0
  -23.5810  -32.2150   23.7410 O   0  0  0  0  0  0  0  0  0  0  0  0
  -22.8580  -29.5040   22.5720 C   0  0  0  0  0  0  0  0  0  0  0  0
  -21.5290  -29.3380   22.4290 N   0  0  0  0  0  0  0  0  0  0  0  0
  -23.5110  -28.8860   23.4170 O   0  0  0  0  0  0  0  0  0  0  0  0
  -21.0550  -29.8900   21.7280 H   0  0  0  0  0  0  0  0  0  0  0  0
  -18.1340  -28.1550   22.9290 C   0  0  0  0  0  0  0  0  0  0  0  0
  -20.6970  -28.4020   23.1940 C   0  0  0  0  0  3  0  0  0  0  0  0
  -20.7870  -26.9720   22.6110 C   0  0  0  0  0  2  0  0  0  0  0  0
  -19.6830  -26.6640   21.5940 C   0  0  0  0  0  2  0  0  0  0  0  0
  -18.3020  -26.8110   22.2400 C   0  0  0  0  0  2  0  0  0  0  0  0
  -19.2590  -28.9080   23.3630 C   0  0  0  0  0  0  0  0  0  0  0  0
  -19.0440  -30.1640   23.9720 C   0  0  0  0  0  3  0  0  0  0  0  0
  -17.7400  -30.6660   24.1500 C   0  0  0  0  0  3  0  0  0  0  0  0
  -16.6330  -29.9100   23.7300 C   0  0  0  0  0  3  0  0  0  0  0  0
  -16.8300  -28.6560   23.1260 C   0  0  0  0  0  3  0  0  0  0  0  0
  -25.9300  -32.6110   23.9190 C   0  0  0  0  0  3  0  0  0  0  0  0
  -26.3990  -31.8830   25.2400 C   0  0  1  0  0  0  0  0  0  0  0  0
  -25.2620  -31.6570   26.2650 C   0  0  0  0  0  1  0  0  0  0  0  0
  -27.0210  -30.5040   24.9220 C   0  0  0  0  0  1  0  0  0  0  0  0
  -27.5070  -32.7140   25.9300 C   0  0  0  0  0  1  0  0  0  0  0  0
  -25.5810  -34.0120   24.2130 N   0  0  0  0  0  0  0  0  0  0  0  0
  -25.9190  -35.0640   23.4540 C   0  0  0  0  0  0  0  0  0  0  0  0
  -26.6170  -34.9570   22.4420 O   0  0  0  0  0  0  0  0  0  0  0  0
  -24.9620  -34.1680   24.9940 H   0  0  0  0  0  0  0  0  0  0  0  0
  -24.1790  -36.8390   23.0350 C   0  0  0  0  0  1  0  0  0  0  0  0
  -25.4040  -36.4540   23.8820 C   0  0  0  0  0  3  0  0  0  0  0  0
  -27.4980  -37.3860   24.7660 C   0  0  0  0  0  1  0  0  0  0  0  0
  -26.4250  -37.5200   23.7830 N   0  0  0  0  0  0  0  0  0  0  0  0
  -26.0010  -38.4360   23.8980 H   0  0  0  0  0  0  0  0  0  0  0  0
  1  3  1  0
  2  1  2  0
  2  6  1  0
  3  8  1  0
  3  4  2  0
  4  7  1  0
  5  4  1  0
  5 48  1  0
  6  5  2  0
  9 10  1  0
  9  8  2  0
 11 16  1  0
 12 13  1  0
 12 11  1  0
 14 13  1  0
 14 21  1  0
 14 15  1  0
 16 10  1  0
 16 15  1  0
 17 10  2  0
 18 19  2  0
 19 38  1  0
 20 19  1  0
 20 23  1  0
 21 22  1  0
 21 18  1  0
 22 20  2  0
 23 24  1  0
 24 25  2  0
 26 29  1  0
 26 25  1  0
 27 26  2  0
 28 27  1  0
 28 23  2  0
 29 30  1  0
 30 31  1  0
 31 32  2  0
 33 32  1  0
 33 37  1  0
 34 33  2  0
 35 30  2  0
 35 34  1  0
 36 35  1  0
 38 39  1  0
 39 42  1  0
 39 41  1  0
 40 38  2  0
 43 44  1  0
 43 18  1  0
 45 43  1  0
 46 47  1  0
 47  6  1  0
 49 48  1  0
 50 61  2  0
 51 49  1  0
 51 56  1  0
 52 60  1  0
 52 62  1  0
 53 55  1  0
 54 60  1  0
 55 56  2  0
 55 54  1  0
 57 51  2  0
 58 57  1  0
 58 53  2  0
 59 53  1  0
 59 52  1  0
 60 50  1  0
 62 64  2  0
 63 62  1  0
 65 63  1  0
 66 75  2  0
 66 71  1  0
 67 63  1  0
 67 71  1  0
 68 67  1  0
 69 70  1  0
 69 68  1  0
 70 66  1  0
 71 72  2  0
 72 73  1  0
 74 73  2  0
 75 74  1  0
 76 50  1  0
 76 81  1  0
 76 77  1  0
 77 80  1  1
 77 78  1  0
 79 77  1  0
 81 84  1  0
 82 86  1  0
 82 81  1  0
 83 82  2  0
 86 85  1  0
 88 86  1  0
 88 89  1  0
 88 87  1  0
M  ISO  4   9 100  10 100  48 101  49 101
M  END
>  <TORSDO>  (81) 
F 19

>  <SCORE>  (81) 
-15.377

>  <name>  (81) 
82

>  <ligand_id>  (81) 
82

>  <original_smiles>  (81) 
[H]C(C(=O)N1C([H])([H])C([H])([H])C([H])([H])C([H])(n2nc(-c3c([H])c([H])c(Oc4c([H])c([H])c(F)c([H])c4F)c([H])c3[H])c(C(=O)N([H])[H])c2N([H])[H])C1([H])[H])=C([H])c1c([H])c([H])c(OC([H])([H])[H])c(C([H])([H])Oc2c([H])c([H])c3c(c2[H])C([H])([H])N(C(=O)C([H])(N([H])C(=O)C([H])(N([H])C([H])([H])[H])C([H])([H])[H])C(C([H])([H])[H])(C([H])([H])[H])C([H])([H])[H])C([H])(C(=O)N([H])C2([H])c4c([H])c([H])c([H])c([H])c4C([H])([H])C([H])([H])C2([H])[H])C3([H])[H])c1C([H])([H])[H]

>  <smiles>  (81) 
[H]C(C(=O)N1C([H])([H])C([H])([H])C([H])([H])C([H])(n2nc(-c3c([H])c([H])c(Oc4c([H])c([H])c(F)c([H])c4F)c([H])c3[H])c(C(=O)N([H])[H])c2N([H])[H])C1([H])[H])=C([H])c1c([H])c([H])c(OC([H])([H])[H])c(C([H])([H])Oc2c([H])c([H])c3c(c2[H])C([H])([H])N(C(=O)C([H])(N([H])C(=O)C([H])(N([H])C([H])([H])[H])C([H])([H])[H])C(C([H])([H])[H])(C([H])([H])[H])C([H])([H])[H])C([H])(C(=O)N([H])C2([H])c4c([H])c([H])c([H])c([H])c4C([H])([H])C([H])([H])C2([H])[H])C3([H])[H])c1C([H])([H])[H]

$$$$
83:0:0
     RDKit          3D

101111  0  0  1  0  0  0  0  0999 V2000
  -30.9610  -16.2010   19.6620 C   0  0  0  0  0  0  0  0  0  0  0  0
  -30.0700  -17.2470   20.1140 C   0  0  0  0  0  0  0  0  0  0  0  0
  -29.2080  -17.8380   19.1630 C   0  0  0  0  0  0  0  0  0  0  0  0
  -31.4400  -16.3490   18.3200 C   0  0  0  0  0  0  0  0  0  0  0  0
  -29.4860  -17.7240   17.7760 C   0  0  0  0  0  0  0  0  0  0  0  0
  -30.6910  -17.1000   17.3780 C   0  0  0  0  0  0  0  0  0  0  0  0
  -30.1960  -18.0420   21.4510 C   0  0  0  0  0  2  0  0  0  0  0  0
  -28.0830  -18.7270   19.6700 C   0  0  0  0  0  2  0  0  0  0  0  0
  -28.5220  -20.1830   19.6430 C   0  0  0  0  0  2  0  0  0  0  0  0
  -30.9370  -20.2800   22.6750 C   0  0  0  0  0  2  0  0  0  0  0  0
  -28.9350  -21.3050   21.8670 C   0  0  0  0  0  2  0  0  0  0  0  0
  -30.0080  -21.5230   22.9310 C   0  0  0  0  0  3  0  0  0  0  0  0
  -30.6470  -19.5860   21.2820 C   0  0  2  0  0  0  0  0  0  0  0  0
  -29.6260  -20.6460   20.6450 C   0  0  1  0  0  0  0  0  0  0  0  0
  -32.7310  -15.6850   17.8150 C   0  0  0  0  0  1  0  0  0  0  0  0
  -28.5950  -18.3780   16.7180 C   0  0  0  0  0  1  0  0  0  0  0  0
  -31.1580  -17.1770   15.9220 C   0  0  0  0  0  1  0  0  0  0  0  0
  -31.9850  -19.5000   20.4920 C   0  0  0  0  0  1  0  0  0  0  0  0
  -30.3800  -21.7750   19.8770 C   0  0  0  0  0  1  0  0  0  0  0  0
  -31.3750  -14.9430   20.4570 C   0  0  0  0  0  0  0  0  0  0  0  0
  -30.9010  -12.9510   19.0850 C   0  0  0  0  0  2  0  0  0  0  0  0
  -29.9570  -13.3410   17.9230 C   0  0  0  0  0  2  0  0  0  0  0  0
  -28.4870  -13.3250   18.3570 C   0  0  0  0  0  2  0  0  0  0  0  0
  -28.2220  -13.9790   19.7380 C   0  0  0  0  0  3  0  0  0  0  0  0
  -29.2780  -13.5550   20.7830 C   0  0  0  0  0  2  0  0  0  0  0  0
  -30.6170  -13.8210   20.2350 N   0  0  0  0  0  0  0  0  0  0  0  0
  -32.5760  -14.8610   20.6940 O   0  0  0  0  0  0  0  0  0  0  0  0
  -25.8050  -14.6020   20.3510 C   0  0  0  0  0  0  0  0  0  0  0  0
  -24.7100  -13.8370   20.6580 C   0  0  0  0  0  0  0  0  0  0  0  0
  -25.1610  -12.4840   20.6640 C   0  0  0  0  0  0  0  0  0  0  0  0
  -26.8530  -13.7130   20.1810 N   0  0  0  0  0  0  0  0  0  0  0  0
  -26.4680  -12.4360   20.4430 N   0  0  0  0  0  0  0  0  0  0  0  0
  -24.4160  -11.2260   20.8100 C   0  0  0  0  0  0  0  0  0  0  0  0
  -24.7760  -10.2620   21.7760 C   0  0  0  0  0  3  0  0  0  0  0  0
  -24.0320   -9.0700   21.9130 C   0  0  0  0  0  3  0  0  0  0  0  0
  -22.9130   -8.8320   21.0810 C   0  0  0  0  0  0  0  0  0  0  0  0
  -22.5710   -9.7840   20.1050 C   0  0  0  0  0  3  0  0  0  0  0  0
  -23.3170  -10.9670   19.9660 C   0  0  0  0  0  3  0  0  0  0  0  0
  -22.1480   -7.6900   21.1240 O   0  0  0  0  0  0  0  0  0  0  0  0
  -21.9930   -6.9730   22.2850 C   0  0  0  0  0  0  0  0  0  0  0  0
  -21.4790   -7.5610   23.4610 C   0  0  0  0  0  3  0  0  0  0  0  0
  -21.2690   -6.7720   24.6090 C   0  0  0  0  0  3  0  0  0  0  0  0
  -21.5620   -5.3950   24.5810 C   0  0  0  0  0  0  0  0  0  0  0  0
  -22.0670   -4.8060   23.4100 C   0  0  0  0  0  3  0  0  0  0  0  0
  -22.2800   -5.5930   22.2640 C   0  0  0  0  0  0  0  0  0  0  0  0
  -22.7460   -5.0160   21.1300 F   0  0  0  0  0  0  0  0  0  0  0  0
  -21.3510   -4.6360   25.6810 F   0  0  0  0  0  0  0  0  0  0  0  0
  -23.3020  -14.3250   20.8370 C   0  0  0  0  0  0  0  0  0  0  0  0
  -22.5240  -13.6510   21.6780 N   0  0  0  0  0  0  0  0  0  0  0  0
  -22.8980  -15.3360   20.2660 O   0  0  0  0  0  0  0  0  0  0  0  0
  -22.8620  -12.8330   22.1620 H   0  0  0  0  0  0  0  0  0  0  0  0
  -21.5750  -13.9580   21.8390 H   0  0  0  0  0  0  0  0  0  0  0  0
  -25.9940  -15.9690   20.1740 N   0  0  0  0  0  0  0  0  0  0  0  0
  -25.2280  -16.6330   20.2140 H   0  0  0  0  0  0  0  0  0  0  0  0
  -26.8690  -16.3810   19.8750 H   0  0  0  0  0  0  0  0  0  0  0  0
  -30.6770  -22.8740   22.8170 N   0  0  0  0  0  4  0  0  0  0  0  0
  -31.1490  -22.9430   21.9290 H   0  0  0  0  0  0  0  0  0  0  0  0
  -31.4050  -22.8600   23.5150 H   0  0  0  0  0  0  0  0  0  0  0  0
  -29.9100  -24.1440   23.1090 C   0  0  0  0  0  2  0  0  0  0  0  0
  -29.2730  -24.9000   21.8890 C   0  0  0  0  0  2  0  0  0  0  0  0
  -29.1700  -26.3530   22.0610 O   0  0  0  0  0  0  0  0  0  0  0  0
  -24.7260  -31.8240   23.3440 C   0  0  0  0  0  0  0  0  0  0  0  0
  -28.0170  -27.0290   21.6580 C   0  0  0  0  0  0  0  0  0  0  0  0
  -23.8740  -30.0650   21.8320 C   0  0  0  0  0  3  0  0  0  0  0  0
  -25.6100  -28.3990   20.9720 C   0  0  0  0  0  0  0  0  0  0  0  0
  -26.3860  -30.5420   21.9830 C   0  0  0  0  0  2  0  0  0  0  0  0
  -26.6330  -29.0820   21.6400 C   0  0  0  0  0  0  0  0  0  0  0  0
  -27.8360  -28.4050   21.9780 C   0  0  0  0  0  3  0  0  0  0  0  0
  -26.9780  -26.3860   20.9390 C   0  0  0  0  0  3  0  0  0  0  0  0
  -25.7830  -27.0540   20.6140 C   0  0  0  0  0  3  0  0  0  0  0  0
  -24.3440  -29.1670   20.6580 C   0  0  0  0  0  2  0  0  0  0  0  0
  -25.0040  -30.8380   22.4420 N   0  0  0  0  0  0  0  0  0  0  0  0
  -23.5590  -32.1140   23.6400 O   0  0  0  0  0  0  0  0  0  0  0  0
  -23.1100  -29.1910   22.8520 C   0  0  0  0  0  0  0  0  0  0  0  0
  -21.8220  -28.9330   22.5750 N   0  0  0  0  0  0  0  0  0  0  0  0
  -23.6790  -28.7420   23.8500 O   0  0  0  0  0  0  0  0  0  0  0  0
  -21.4240  -29.3510   21.7450 H   0  0  0  0  0  0  0  0  0  0  0  0
  -18.3870  -27.8560   22.9180 C   0  0  0  0  0  0  0  0  0  0  0  0
  -20.9210  -28.1020   23.3730 C   0  0  0  0  0  3  0  0  0  0  0  0
  -21.0310  -26.6120   22.9710 C   0  0  0  0  0  2  0  0  0  0  0  0
  -20.0080  -26.1960   21.9090 C   0  0  0  0  0  2  0  0  0  0  0  0
  -18.5830  -26.4350   22.4150 C   0  0  0  0  0  2  0  0  0  0  0  0
  -19.4870  -28.6430   23.3540 C   0  0  0  0  0  0  0  0  0  0  0  0
  -19.2550  -29.9680   23.7800 C   0  0  0  0  0  3  0  0  0  0  0  0
  -17.9550  -30.5090   23.7790 C   0  0  0  0  0  3  0  0  0  0  0  0
  -16.8680  -29.7220   23.3600 C   0  0  0  0  0  3  0  0  0  0  0  0
  -17.0850  -28.3980   22.9360 C   0  0  0  0  0  3  0  0  0  0  0  0
  -25.8610  -32.6480   24.0280 C   0  0  0  0  0  3  0  0  0  0  0  0
  -26.3200  -32.0440   25.4120 C   0  0  1  0  0  0  0  0  0  0  0  0
  -25.1470  -31.6690   26.3480 C   0  0  0  0  0  1  0  0  0  0  0  0
  -27.1730  -30.7710   25.1940 C   0  0  0  0  0  1  0  0  0  0  0  0
  -27.2190  -33.0590   26.1560 C   0  0  0  0  0  1  0  0  0  0  0  0
  -25.3660  -34.0210   24.2010 N   0  0  0  0  0  0  0  0  0  0  0  0
  -25.6370  -35.0380   23.3730 C   0  0  0  0  0  0  0  0  0  0  0  0
  -26.4000  -34.9310   22.4080 O   0  0  0  0  0  0  0  0  0  0  0  0
  -24.6840  -34.1670   24.9310 H   0  0  0  0  0  0  0  0  0  0  0  0
  -23.7370  -36.5640   22.7390 C   0  0  0  0  0  1  0  0  0  0  0  0
  -24.9550  -36.3910   23.6590 C   0  0  0  0  0  3  0  0  0  0  0  0
  -26.9120  -37.6020   24.5170 C   0  0  0  0  0  1  0  0  0  0  0  0
  -25.8600  -37.5500   23.5060 N   0  0  0  0  0  0  0  0  0  0  0  0
  -25.3380  -38.4210   23.5480 H   0  0  0  0  0  0  0  0  0  0  0  0
  1  2  1  0
  1 20  1  0
  2  7  1  0
  3  8  1  0
  3  2  2  0
  4  1  2  0
  5  3  1  0
  6  5  2  0
  6  4  1  0
  9  8  1  0
  9 14  1  0
 10 12  1  0
 11 12  1  0
 12 56  1  0
 13 18  1  6
 13  7  1  0
 13 10  1  0
 14 19  1  6
 14 13  1  0
 14 11  1  0
 15  4  1  0
 16  5  1  0
 17  6  1  0
 20 27  2  0
 21 26  1  0
 22 23  1  0
 22 21  1  0
 24 23  1  0
 24 31  1  0
 24 25  1  0
 26 20  1  0
 26 25  1  0
 28 29  2  0
 29 30  1  0
 29 48  1  0
 30 33  1  0
 31 28  1  0
 31 32  1  0
 32 30  2  0
 33 34  1  0
 34 35  2  0
 36 39  1  0
 36 35  1  0
 37 36  2  0
 38 37  1  0
 38 33  2  0
 39 40  1  0
 40 41  1  0
 41 42  2  0
 43 42  1  0
 43 47  1  0
 44 43  2  0
 45 40  2  0
 45 44  1  0
 46 45  1  0
 48 49  1  0
 49 52  1  0
 49 51  1  0
 50 48  2  0
 53 54  1  0
 53 28  1  0
 55 53  1  0
 56 59  1  0
 56 58  1  0
 57 56  1  0
 60 61  1  0
 60 59  1  0
 62 73  2  0
 63 68  1  0
 63 61  1  0
 64 72  1  0
 64 74  1  0
 65 67  1  0
 66 72  1  0
 67 68  2  0
 67 66  1  0
 69 63  2  0
 70 69  1  0
 70 65  2  0
 71 65  1  0
 71 64  1  0
 72 62  1  0
 74 76  2  0
 75 74  1  0
 77 75  1  0
 78 87  2  0
 78 83  1  0
 79 75  1  0
 80 79  1  0
 81 82  1  0
 81 80  1  0
 82 78  1  0
 83 79  1  0
 83 84  2  0
 85 84  1  0
 86 85  2  0
 87 86  1  0
 88 62  1  0
 88 93  1  0
 88 89  1  0
 89 92  1  1
 89 90  1  0
 91 89  1  0
 93 96  1  0
 94 98  1  0
 94 93  1  0
 95 94  2  0
 98 97  1  0
100101  1  0
100 98  1  0
100 99  1  0
M  ISO  4   1 100  20 100  60 101  61 101
M  END
>  <TORSDO>  (82) 
F 19

>  <SCORE>  (82) 
-11.588

>  <name>  (82) 
83

>  <ligand_id>  (82) 
83

>  <original_smiles>  (82) 
[H]c1c([H])c([H])c2c(c1[H])C([H])([H])C([H])([H])C([H])([H])C2([H])N([H])C(=O)C1([H])N(C(=O)C([H])(N([H])C(=O)C([H])(N([H])C([H])([H])[H])C([H])([H])[H])C(C([H])([H])[H])(C([H])([H])[H])C([H])([H])[H])C([H])([H])c2c([H])c(OC([H])([H])C([H])([H])[N+]([H])([H])C3([H])C([H])([H])C4(C([H])([H])[H])C([H])([H])c5c(C(=O)N6C([H])([H])C([H])([H])C([H])([H])C([H])(n7nc(-c8c([H])c([H])c(Oc9c([H])c([H])c(F)c([H])c9F)c([H])c8[H])c(C(=O)N([H])[H])c7N([H])[H])C6([H])[H])c(C([H])([H])[H])c(C([H])([H])[H])c(C([H])([H])[H])c5C([H])([H])C([H])([H])C4(C([H])([H])[H])C3([H])[H])c([H])c([H])c2C1([H])[H]

>  <smiles>  (82) 
[H]c1c([H])c([H])c2c(c1[H])C([H])([H])C([H])([H])C([H])([H])C2([H])N([H])C(=O)C1([H])N(C(=O)C([H])(N([H])C(=O)C([H])(N([H])C([H])([H])[H])C([H])([H])[H])C(C([H])([H])[H])(C([H])([H])[H])C([H])([H])[H])C([H])([H])c2c([H])c(OC([H])([H])C([H])([H])[N+]([H])([H])C3([H])C([H])([H])C4(C([H])([H])[H])C([H])([H])c5c(C(=O)N6C([H])([H])C([H])([H])C([H])([H])C([H])(n7nc(-c8c([H])c([H])c(Oc9c([H])c([H])c(F)c([H])c9F)c([H])c8[H])c(C(=O)N([H])[H])c7N([H])[H])C6([H])[H])c(C([H])([H])[H])c(C([H])([H])[H])c(C([H])([H])[H])c5C([H])([H])C([H])([H])C4(C([H])([H])[H])C3([H])[H])c([H])c([H])c2C1([H])[H]

$$$$
84:0:0
     RDKit          3D

 96102  0  0  1  0  0  0  0  0999 V2000
  -20.5490  -26.0250   23.0140 C   0  0  0  0  0  1  0  0  0  0  0  0
  -20.9900  -27.3490   21.4290 C   0  0  0  0  0  1  0  0  0  0  0  0
  -23.1000  -24.6250   21.9690 C   0  0  0  0  0  3  0  0  0  0  0  0
  -21.7330  -24.7470   22.9500 C   0  0  0  0  0  3  0  0  0  0  0  0
  -22.4000  -26.8920   20.5970 C   0  0  0  0  0  3  0  0  0  0  0  0
  -23.6200  -25.8400   21.0260 C   0  0  0  0  0  3  0  0  0  0  0  0
  -21.4630  -23.5980   23.8990 C   0  0  0  0  0  1  0  0  0  0  0  0
  -22.2060  -27.1400   19.0940 C   0  0  0  0  0  1  0  0  0  0  0  0
  -23.8120  -23.0760   21.7190 C   0  0  0  0  0  0  0  0  0  0  0  0
  -25.1630  -22.4230   21.7630 N   0  0  0  0  0  0  0  0  0  0  0  0
  -22.9490  -22.2690   21.3690 O   0  0  0  0  0  0  0  0  0  0  0  0
  -25.8580  -23.0610   22.1300 H   0  0  0  0  0  0  0  0  0  0  0  0
  -25.8800  -21.0350   21.0620 C   0  0  0  0  0  2  0  0  0  0  0  0
  -30.1060  -15.3200   20.5720 C   0  0  0  0  0  0  0  0  0  0  0  0
  -30.3830  -12.8980   19.5750 C   0  0  0  0  0  2  0  0  0  0  0  0
  -29.5160  -12.5950   18.3210 C   0  0  0  0  0  2  0  0  0  0  0  0
  -28.0660  -12.2660   18.7260 C   0  0  0  0  0  2  0  0  0  0  0  0
  -27.5550  -13.2290   19.8230 C   0  0  0  0  0  3  0  0  0  0  0  0
  -28.5300  -13.3550   20.9950 C   0  0  0  0  0  2  0  0  0  0  0  0
  -29.7080  -13.9670   20.4160 N   0  0  0  0  0  0  0  0  0  0  0  0
  -31.3420  -15.4120   20.3820 O   0  0  0  0  0  0  0  0  0  0  0  0
  -28.5560  -19.3530   21.4950 C   0  0  0  0  0  2  0  0  0  0  0  0
  -26.9300  -18.2720   20.4090 C   0  0  0  0  0  2  0  0  0  0  0  0
  -29.4810  -17.8980   21.5440 C   0  0  0  0  0  2  0  0  0  0  0  0
  -27.7100  -16.7850   20.6000 C   0  0  0  0  0  2  0  0  0  0  0  0
  -26.9080  -19.5370   21.4550 C   0  0  0  0  0  3  0  0  0  0  0  0
  -29.1980  -16.5190   20.8550 N   0  0  0  0  0  0  0  0  0  0  0  0
  -25.1830  -13.7880   20.5420 C   0  0  0  0  0  0  0  0  0  0  0  0
  -24.1360  -13.0140   20.9250 C   0  0  0  0  0  0  0  0  0  0  0  0
  -24.6120  -11.6700   20.8850 C   0  0  0  0  0  0  0  0  0  0  0  0
  -26.2310  -12.9190   20.3000 N   0  0  0  0  0  0  0  0  0  0  0  0
  -25.9010  -11.6360   20.5760 N   0  0  0  0  0  0  0  0  0  0  0  0
  -23.8910  -10.4110   21.0510 C   0  0  0  0  0  0  0  0  0  0  0  0
  -24.3520   -9.4050   21.9270 C   0  0  0  0  0  3  0  0  0  0  0  0
  -23.6210   -8.2080   22.0780 C   0  0  0  0  0  3  0  0  0  0  0  0
  -22.4200   -8.0150   21.3550 C   0  0  0  0  0  0  0  0  0  0  0  0
  -21.9820   -9.0110   20.4660 C   0  0  0  0  0  3  0  0  0  0  0  0
  -22.7120  -10.1990   20.3110 C   0  0  0  0  0  3  0  0  0  0  0  0
  -21.6560   -6.8770   21.4240 O   0  0  0  0  0  0  0  0  0  0  0  0
  -21.6800   -6.0660   22.5290 C   0  0  0  0  0  0  0  0  0  0  0  0
  -21.3970   -6.5590   23.8210 C   0  0  0  0  0  3  0  0  0  0  0  0
  -21.3650   -5.6770   24.9190 C   0  0  0  0  0  3  0  0  0  0  0  0
  -21.6050   -4.3030   24.7260 C   0  0  0  0  0  0  0  0  0  0  0  0
  -21.8820   -3.8100   23.4390 C   0  0  0  0  0  3  0  0  0  0  0  0
  -21.9180   -4.6900   22.3430 C   0  0  0  0  0  0  0  0  0  0  0  0
  -22.1660   -4.2080   21.1010 F   0  0  0  0  0  0  0  0  0  0  0  0
  -21.5640   -3.4530   25.7790 F   0  0  0  0  0  0  0  0  0  0  0  0
  -22.7450  -13.4980   21.1950 C   0  0  0  0  0  0  0  0  0  0  0  0
  -22.0150  -12.8060   22.0590 N   0  0  0  0  0  0  0  0  0  0  0  0
  -22.3170  -14.5310   20.6800 O   0  0  0  0  0  0  0  0  0  0  0  0
  -22.3740  -11.9750   22.5030 H   0  0  0  0  0  0  0  0  0  0  0  0
  -21.0820  -13.1200   22.2840 H   0  0  0  0  0  0  0  0  0  0  0  0
  -25.2830  -15.1520   20.3430 N   0  0  0  0  0  0  0  0  0  0  0  0
  -24.4820  -15.7630   20.4620 H   0  0  0  0  0  0  0  0  0  0  0  0
  -26.1030  -15.6330   20.0030 H   0  0  0  0  0  0  0  0  0  0  0  0
  -25.2600  -26.0140   20.8610 O   0  0  0  0  0  0  0  0  0  0  0  0
  -24.7020  -32.0000   23.2040 C   0  0  0  0  0  0  0  0  0  0  0  0
  -26.1870  -27.0230   20.3800 C   0  0  0  0  0  3  0  0  0  0  0  0
  -23.4760  -30.7100   21.5540 C   0  0  0  0  0  3  0  0  0  0  0  0
  -24.8030  -29.2010   19.9420 C   0  0  0  0  0  3  0  0  0  0  0  0
  -26.0090  -30.7530   21.4600 C   0  0  0  0  0  2  0  0  0  0  0  0
  -25.8860  -29.3870   20.7910 C   0  0  0  0  0  0  0  0  0  0  0  0
  -26.6480  -28.2220   21.0530 C   0  0  0  0  0  3  0  0  0  0  0  0
  -25.8520  -27.1820   19.0720 C   0  0  0  0  0  2  0  0  0  0  0  0
  -24.9020  -28.1940   18.9610 C   0  0  0  0  0  2  0  0  0  0  0  0
  -23.6230  -30.1250   20.1240 C   0  0  0  0  0  2  0  0  0  0  0  0
  -24.7530  -31.2390   22.0750 N   0  0  0  0  0  0  0  0  0  0  0  0
  -23.6210  -32.3090   23.7360 O   0  0  0  0  0  0  0  0  0  0  0  0
  -22.9700  -29.7360   22.6210 C   0  0  0  0  0  0  0  0  0  0  0  0
  -21.6810  -29.5500   22.7750 N   0  0  0  0  0  0  0  0  0  0  0  0
  -23.7560  -29.2520   23.4380 O   0  0  0  0  0  0  0  0  0  0  0  0
  -20.9980  -30.0200   22.2010 H   0  0  0  0  0  0  0  0  0  0  0  0
  -18.5090  -27.7250   22.5150 C   0  0  0  0  0  0  0  0  0  0  0  0
  -21.2650  -28.4070   23.5670 C   0  0  0  0  0  3  0  0  0  0  0  0
  -22.4720  -26.9960   22.9960 C   0  0  0  0  0  1  0  0  0  0  0  0
  -20.5110  -25.2970   20.9710 C   0  0  0  0  0 15  0  0  0  0  0  0
  -18.7510  -26.2780   21.4070 C   0  0  0  0  0  1  0  0  0  0  0  0
  -19.5420  -28.5520   23.3290 C   0  0  0  0  0  0  0  0  0  0  0  0
  -19.0880  -29.7920   23.9280 C   0  0  0  0  0  3  0  0  0  0  0  0
  -17.7650  -30.2740   23.9430 C   0  0  0  0  0  3  0  0  0  0  0  0
  -16.7830  -29.4700   23.3610 C   0  0  0  0  0  3  0  0  0  0  0  0
  -17.1540  -28.2610   22.6840 C   0  0  0  0  0  3  0  0  0  0  0  0
  -25.9940  -32.5210   23.8630 C   0  0  0  0  0  3  0  0  0  0  0  0
  -25.6870  -33.8940   24.2670 N   0  0  0  0  0  0  0  0  0  0  0  0
  -25.9310  -34.9680   23.5120 C   0  0  0  0  0  0  0  0  0  0  0  0
  -26.5480  -34.9080   22.4460 O   0  0  0  0  0  0  0  0  0  0  0  0
  -25.1300  -34.0090   25.1000 H   0  0  0  0  0  0  0  0  0  0  0  0
  -24.1550  -36.7350   23.2590 C   0  0  0  0  0  1  0  0  0  0  0  0
  -25.4190  -36.3230   24.0310 C   0  0  0  0  0  3  0  0  0  0  0  0
  -27.5620  -37.1930   24.8470 C   0  0  0  0  0  1  0  0  0  0  0  0
  -26.4310  -37.3950   23.9440 N   0  0  0  0  0  0  0  0  0  0  0  0
  -26.0160  -38.2990   24.1530 H   0  0  0  0  0  0  0  0  0  0  0  0
  -26.4720  -31.6680   25.1000 C   0  0  1  0  0  0  0  0  0  0  0  0
  -25.3660  -31.3930   26.1450 C   0  0  0  0  0  1  0  0  0  0  0  0
  -27.0450  -30.3010   24.6610 C   0  0  0  0  0  1  0  0  0  0  0  0
  -27.6240  -32.4180   25.8040 C   0  0  0  0  0  1  0  0  0  0  0  0
  3  9  1  0
  3  4  1  0
  4  1  1  0
  4  7  1  0
  5  2  1  0
  6  5  1  0
  6  3  1  0
  8  5  1  0
  9 10  1  0
 10 12  1  0
 11  9  2  0
 13 10  1  0
 14 27  1  0
 15 20  1  0
 16 17  1  0
 16 15  1  0
 18 17  1  0
 18 31  1  0
 18 19  1  0
 20 14  1  0
 20 19  1  0
 21 14  2  0
 22 24  1  0
 23 25  1  0
 23 26  1  0
 25 27  1  0
 26 13  1  0
 26 22  1  0
 27 24  1  0
 28 29  2  0
 29 48  1  0
 30 29  1  0
 30 33  1  0
 31 28  1  0
 31 32  1  0
 32 30  2  0
 33 34  1  0
 34 35  2  0
 36 39  1  0
 36 35  1  0
 37 36  2  0
 38 37  1  0
 38 33  2  0
 39 40  1  0
 40 41  1  0
 41 42  2  0
 43 42  1  0
 43 47  1  0
 44 43  2  0
 45 40  2  0
 45 44  1  0
 46 45  1  0
 48 49  1  0
 49 52  1  0
 49 51  1  0
 50 48  2  0
 53 54  1  0
 53 28  1  0
 55 53  1  0
 56  6  1  0
 57 68  2  0
 58 56  1  0
 58 63  1  0
 59 67  1  0
 59 69  1  0
 60 65  1  0
 60 66  1  0
 60 62  1  0
 61 67  1  0
 62 63  2  0
 62 61  1  0
 64 58  1  0
 65 64  1  0
 66 59  1  0
 67 57  1  0
 69 70  1  0
 69 71  2  0
 70 74  1  0
 72 70  1  0
 73 82  2  0
 73 78  1  0
 74 75  1  0
 77 73  1  0
 78 74  1  0
 78 79  2  0
 79 80  1  0
 81 80  2  0
 82 81  1  0
 83 57  1  0
 83 84  1  0
 83 93  1  0
 84 87  1  0
 85 89  1  0
 85 84  1  0
 86 85  2  0
 89 88  1  0
 91 89  1  0
 91 92  1  0
 91 90  1  0
 93 96  1  1
 93 94  1  0
 95 93  1  0
M  ISO  4   6 101  14 100  27 100  56 101
M  END
>  <TORSDO>  (83) 
F 18

>  <SCORE>  (83) 
6.480

>  <name>  (83) 
84

>  <ligand_id>  (83) 
84

>  <original_smiles>  (83) 
[H]c1c([H])c([H])c2c(c1[H])C([H])([H])C([H])([H])C([H])([H])C2([H])N([H])C(=O)C1([H])N(C(=O)C([H])(N([H])C(=O)C([H])(N([H])C([H])([H])[H])C([H])([H])[H])C(C([H])([H])[H])(C([H])([H])[H])C([H])([H])[H])C([H])([H])c2c([H])c(Oc3c(C(=O)N([H])C([H])([H])C4([H])C([H])([H])C([H])([H])N(C(=O)N5C([H])([H])C([H])([H])C([H])([H])C([H])(n6nc(-c7c([H])c([H])c(Oc8c([H])c([H])c(F)c([H])c8F)c([H])c7[H])c(C(=O)N([H])[H])c6N([H])[H])C5([H])[H])C([H])([H])C4([H])[H])c(C([H])([H])[H])c([H])c([H])c3C([H])([H])[H])c([H])c([H])c2C1([H])[H]

>  <smiles>  (83) 
[H]c1c([H])c([H])c2c(c1[H])C([H])([H])C([H])([H])C([H])([H])C2([H])N([H])C(=O)C1([H])N(C(=O)C([H])(N([H])C(=O)C([H])(N([H])C([H])([H])[H])C([H])([H])[H])C(C([H])([H])[H])(C([H])([H])[H])C([H])([H])[H])C([H])([H])c2c([H])c(Oc3c(C(=O)N([H])C([H])([H])C4([H])C([H])([H])C([H])([H])N(C(=O)N5C([H])([H])C([H])([H])C([H])([H])C([H])(n6nc(-c7c([H])c([H])c(Oc8c([H])c([H])c(F)c([H])c8F)c([H])c7[H])c(C(=O)N([H])[H])c6N([H])[H])C5([H])[H])C([H])([H])C4([H])[H])c(C([H])([H])[H])c([H])c([H])c3C([H])([H])[H])c([H])c([H])c2C1([H])[H]

$$$$
85:0:0
     RDKit          3D

 92101  0  0  1  0  0  0  0  0999 V2000
  -28.4260  -22.8600   17.0130 C   0  0  0  0  0  3  0  0  0  0  0  0
  -28.2780  -24.2380   16.9750 C   0  0  0  0  0  3  0  0  0  0  0  0
  -28.5850  -22.2170   18.2400 C   0  0  0  0  0  3  0  0  0  0  0  0
  -28.2370  -24.9640   18.1660 C   0  0  0  0  0  3  0  0  0  0  0  0
  -28.6070  -22.8370   19.5190 C   0  0  0  0  0  0  0  0  0  0  0  0
  -28.3120  -24.4400   19.4880 C   0  0  0  0  0  0  0  0  0  0  0  0
  -30.5810  -20.6620   22.2060 C   0  0  0  0  0  2  0  0  0  0  0  0
  -29.7760  -21.8680   21.7120 C   0  0  0  0  0  2  0  0  0  0  0  0
  -30.9540  -19.8490   20.9620 C   0  0  0  0  0  2  0  0  0  0  0  0
  -28.9340  -21.4130   20.5120 C   0  0  0  0  0  3  0  0  0  0  0  0
  -29.6650  -19.7310   20.1330 C   0  0  0  0  0  3  0  0  0  0  0  0
  -30.3530  -15.4290   20.1580 C   0  0  0  0  0  0  0  0  0  0  0  0
  -30.4170  -12.9580   19.2790 C   0  0  0  0  0  2  0  0  0  0  0  0
  -29.4780  -12.7170   18.0660 C   0  0  0  0  0  2  0  0  0  0  0  0
  -28.0380  -12.4200   18.5250 C   0  0  0  0  0  2  0  0  0  0  0  0
  -27.5910  -13.3750   19.6590 C   0  0  0  0  0  3  0  0  0  0  0  0
  -28.6540  -13.5270   20.7670 C   0  0  0  0  0  2  0  0  0  0  0  0
  -29.8620  -14.0810   20.1270 N   0  0  0  0  0  0  0  0  0  0  0  0
  -31.5610  -15.4900   19.8760 O   0  0  0  0  0  0  0  0  0  0  0  0
  -29.1000  -18.0740   20.4240 C   0  0  0  0  0  0  0  0  0  0  0  0
  -29.4480  -16.6000   20.3620 N   0  0  0  0  0  0  0  0  0  0  0  0
  -27.9360  -18.1630   20.8170 O   0  0  0  0  0  0  0  0  0  0  0  0
  -28.5730  -16.1700   20.6090 H   0  0  0  0  0  0  0  0  0  0  0  0
  -25.2310  -13.9190   20.4580 C   0  0  0  0  0  0  0  0  0  0  0  0
  -24.1760  -13.1360   20.8350 C   0  0  0  0  0  0  0  0  0  0  0  0
  -24.6440  -11.7860   20.7810 C   0  0  0  0  0  0  0  0  0  0  0  0
  -26.2710  -13.0480   20.1840 N   0  0  0  0  0  0  0  0  0  0  0  0
  -25.9310  -11.7580   20.4450 N   0  0  0  0  0  0  0  0  0  0  0  0
  -23.9200  -10.5220   20.9670 C   0  0  0  0  0  0  0  0  0  0  0  0
  -24.3520   -9.5520   21.8990 C   0  0  0  0  0  3  0  0  0  0  0  0
  -23.6240   -8.3540   22.0750 C   0  0  0  0  0  3  0  0  0  0  0  0
  -22.4510   -8.1180   21.3210 C   0  0  0  0  0  0  0  0  0  0  0  0
  -22.0380   -9.0760   20.3780 C   0  0  0  0  0  3  0  0  0  0  0  0
  -22.7660  -10.2650   20.1990 C   0  0  0  0  0  3  0  0  0  0  0  0
  -21.6960   -6.9730   21.4060 O   0  0  0  0  0  0  0  0  0  0  0  0
  -21.6270   -6.2420   22.5650 C   0  0  0  0  0  0  0  0  0  0  0  0
  -21.1460   -6.7990   23.7690 C   0  0  0  0  0  3  0  0  0  0  0  0
  -21.0260   -5.9920   24.9190 C   0  0  0  0  0  3  0  0  0  0  0  0
  -21.3760   -4.6300   24.8640 C   0  0  0  0  0  0  0  0  0  0  0  0
  -21.8510   -4.0720   23.6640 C   0  0  0  0  0  3  0  0  0  0  0  0
  -21.9730   -4.8760   22.5170 C   0  0  0  0  0  0  0  0  0  0  0  0
  -22.4100   -4.3290   21.3570 F   0  0  0  0  0  0  0  0  0  0  0  0
  -21.2540   -3.8540   25.9670 F   0  0  0  0  0  0  0  0  0  0  0  0
  -22.7830  -13.6100   21.1300 C   0  0  0  0  0  0  0  0  0  0  0  0
  -22.0660  -12.9040   21.9960 N   0  0  0  0  0  0  0  0  0  0  0  0
  -22.3410  -14.6430   20.6280 O   0  0  0  0  0  0  0  0  0  0  0  0
  -22.4380  -12.0700   22.4270 H   0  0  0  0  0  0  0  0  0  0  0  0
  -21.1310  -13.2040   22.2360 H   0  0  0  0  0  0  0  0  0  0  0  0
  -25.3840  -15.2920   20.2950 N   0  0  0  0  0  0  0  0  0  0  0  0
  -24.6120  -15.9350   20.4360 H   0  0  0  0  0  0  0  0  0  0  0  0
  -26.2120  -15.7480   19.9340 H   0  0  0  0  0  0  0  0  0  0  0  0
  -28.1610  -25.7430   20.3150 O   0  0  0  0  0  0  0  0  0  0  0  0
  -24.6350  -31.8580   23.1970 C   0  0  0  0  0  0  0  0  0  0  0  0
  -27.2050  -26.9210   20.1850 C   0  0  0  0  0  0  0  0  0  0  0  0
  -23.4560  -30.4680   21.5450 C   0  0  0  0  0  3  0  0  0  0  0  0
  -24.9150  -28.8580   20.1310 C   0  0  0  0  0  0  0  0  0  0  0  0
  -26.0300  -30.6520   21.4330 C   0  0  0  0  0  2  0  0  0  0  0  0
  -26.1020  -29.2380   20.7700 C   0  0  0  0  0  0  0  0  0  0  0  0
  -27.2340  -28.2920   20.7780 C   0  0  0  0  0  3  0  0  0  0  0  0
  -25.9790  -26.7130   19.5070 C   0  0  0  0  0  3  0  0  0  0  0  0
  -24.8830  -27.6160   19.4790 C   0  0  0  0  0  3  0  0  0  0  0  0
  -23.7010  -29.7870   20.1710 C   0  0  0  0  0  2  0  0  0  0  0  0
  -24.7290  -31.0210   22.1120 N   0  0  0  0  0  0  0  0  0  0  0  0
  -23.5400  -32.1520   23.7040 O   0  0  0  0  0  0  0  0  0  0  0  0
  -22.7440  -29.4770   22.5040 C   0  0  0  0  0  0  0  0  0  0  0  0
  -21.4130  -29.3240   22.3720 N   0  0  0  0  0  0  0  0  0  0  0  0
  -23.3990  -28.8450   23.3380 O   0  0  0  0  0  0  0  0  0  0  0  0
  -20.9360  -29.8830   21.6780 H   0  0  0  0  0  0  0  0  0  0  0  0
  -18.0170  -28.1360   22.8710 C   0  0  0  0  0  0  0  0  0  0  0  0
  -20.5790  -28.3870   23.1370 C   0  0  0  0  0  3  0  0  0  0  0  0
  -20.6720  -26.9570   22.5550 C   0  0  0  0  0  2  0  0  0  0  0  0
  -19.5690  -26.6480   21.5370 C   0  0  0  0  0  2  0  0  0  0  0  0
  -18.1870  -26.7930   22.1810 C   0  0  0  0  0  2  0  0  0  0  0  0
  -19.1400  -28.8920   23.3060 C   0  0  0  0  0  0  0  0  0  0  0  0
  -18.9240  -30.1470   23.9150 C   0  0  0  0  0  3  0  0  0  0  0  0
  -17.6200  -30.6480   24.0910 C   0  0  0  0  0  3  0  0  0  0  0  0
  -16.5130  -29.8920   23.6690 C   0  0  0  0  0  3  0  0  0  0  0  0
  -16.7130  -28.6370   23.0670 C   0  0  0  0  0  3  0  0  0  0  0  0
  -25.8980  -32.5010   23.8440 C   0  0  0  0  0  3  0  0  0  0  0  0
  -25.5760  -33.9010   24.1780 N   0  0  0  0  0  0  0  0  0  0  0  0
  -25.9100  -34.9660   23.4370 C   0  0  0  0  0  0  0  0  0  0  0  0
  -26.5810  -34.8730   22.4070 O   0  0  0  0  0  0  0  0  0  0  0  0
  -24.9760  -34.0450   24.9780 H   0  0  0  0  0  0  0  0  0  0  0  0
  -24.1840  -36.7720   23.1080 C   0  0  0  0  0  1  0  0  0  0  0  0
  -25.4270  -36.3520   23.9110 C   0  0  0  0  0  3  0  0  0  0  0  0
  -27.5580  -37.2350   24.7540 C   0  0  0  0  0  1  0  0  0  0  0  0
  -26.4610  -37.4060   23.8070 N   0  0  0  0  0  0  0  0  0  0  0  0
  -26.0540  -38.3250   23.9550 H   0  0  0  0  0  0  0  0  0  0  0  0
  -26.3860  -31.7370   25.1380 C   0  0  1  0  0  0  0  0  0  0  0  0
  -25.2710  -31.5090   26.1860 C   0  0  0  0  0  1  0  0  0  0  0  0
  -26.9730  -30.3540   24.7760 C   0  0  0  0  0  1  0  0  0  0  0  0
  -27.5250  -32.5320   25.8170 C   0  0  0  0  0  1  0  0  0  0  0  0
  1  3  1  0
  2  1  2  0
  2  4  1  0
  3  5  2  0
  4  6  2  0
  6  5  1  0
  6 52  1  0
  8  7  1  0
  9  7  1  0
 10  5  1  0
 10  8  1  0
 11 20  1  0
 11 10  1  0
 11  9  1  0
 12 21  1  0
 13 18  1  0
 14 15  1  0
 14 13  1  0
 16 15  1  0
 16 27  1  0
 16 17  1  0
 18 12  1  0
 18 17  1  0
 19 12  2  0
 20 22  2  0
 21 20  1  0
 21 23  1  0
 24 25  2  0
 25 44  1  0
 26 25  1  0
 26 29  1  0
 27 28  1  0
 27 24  1  0
 28 26  2  0
 29 30  1  0
 30 31  2  0
 32 35  1  0
 32 31  1  0
 33 32  2  0
 34 33  1  0
 34 29  2  0
 35 36  1  0
 36 37  1  0
 37 38  2  0
 39 38  1  0
 39 43  1  0
 40 39  2  0
 41 36  2  0
 41 40  1  0
 42 41  1  0
 44 45  1  0
 45 48  1  0
 45 47  1  0
 46 44  2  0
 49 50  1  0
 49 24  1  0
 51 49  1  0
 53 64  2  0
 54 52  1  0
 54 59  1  0
 55 63  1  0
 55 65  1  0
 56 62  1  0
 56 58  1  0
 57 63  1  0
 58 59  2  0
 58 57  1  0
 60 54  2  0
 61 60  1  0
 61 56  2  0
 62 55  1  0
 63 53  1  0
 65 67  2  0
 66 65  1  0
 68 66  1  0
 69 78  2  0
 69 74  1  0
 70 66  1  0
 70 74  1  0
 71 70  1  0
 72 73  1  0
 72 71  1  0
 73 69  1  0
 74 75  2  0
 75 76  1  0
 77 76  2  0
 78 77  1  0
 79 53  1  0
 79 80  1  0
 79 89  1  0
 80 83  1  0
 81 85  1  0
 81 80  1  0
 82 81  2  0
 85 84  1  0
 87 85  1  0
 87 88  1  0
 87 86  1  0
 89 92  1  1
 89 90  1  0
 91 89  1  0
M  ISO  4   6 101  12 100  21 100  52 101
M  END
>  <TORSDO>  (84) 
F 17

>  <SCORE>  (84) 
-15.927

>  <name>  (84) 
85

>  <ligand_id>  (84) 
85

>  <original_smiles>  (84) 
[H]c1c([H])c([H])c(C2([H])C([H])([H])C([H])([H])C([H])([H])C2([H])C(=O)N([H])C(=O)N2C([H])([H])C([H])([H])C([H])([H])C([H])(n3nc(-c4c([H])c([H])c(Oc5c([H])c([H])c(F)c([H])c5F)c([H])c4[H])c(C(=O)N([H])[H])c3N([H])[H])C2([H])[H])c(Oc2c([H])c([H])c3c(c2[H])C([H])([H])N(C(=O)C([H])(N([H])C(=O)C([H])(N([H])C([H])([H])[H])C([H])([H])[H])C(C([H])([H])[H])(C([H])([H])[H])C([H])([H])[H])C([H])(C(=O)N([H])C2([H])c4c([H])c([H])c([H])c([H])c4C([H])([H])C([H])([H])C2([H])[H])C3([H])[H])c1[H]

>  <smiles>  (84) 
[H]c1c([H])c([H])c(C2([H])C([H])([H])C([H])([H])C([H])([H])C2([H])C(=O)N([H])C(=O)N2C([H])([H])C([H])([H])C([H])([H])C([H])(n3nc(-c4c([H])c([H])c(Oc5c([H])c([H])c(F)c([H])c5F)c([H])c4[H])c(C(=O)N([H])[H])c3N([H])[H])C2([H])[H])c(Oc2c([H])c([H])c3c(c2[H])C([H])([H])N(C(=O)C([H])(N([H])C(=O)C([H])(N([H])C([H])([H])[H])C([H])([H])[H])C(C([H])([H])[H])(C([H])([H])[H])C([H])([H])[H])C([H])(C(=O)N([H])C2([H])c4c([H])c([H])c([H])c([H])c4C([H])([H])C([H])([H])C2([H])[H])C3([H])[H])c1[H]

$$$$
86:0:0
     RDKit          3D

 94103  0  0  1  0  0  0  0  0999 V2000
  -29.9390  -20.7190   18.7850 C   0  0  0  0  0  2  0  0  0  0  0  0
  -30.5170  -19.2760   18.7720 C   0  0  0  0  0  2  0  0  0  0  0  0
  -29.4520  -19.7040   20.8750 C   0  0  0  0  0  2  0  0  0  0  0  0
  -31.1960  -17.5400   20.6520 C   0  0  0  0  0  2  0  0  0  0  0  0
  -29.3270  -17.1210   19.8450 C   0  0  0  0  0  2  0  0  0  0  0  0
  -29.8040  -21.1370   20.2530 C   0  0  0  0  0  3  0  0  0  0  0  0
  -30.2990  -16.2430   20.7160 C   0  0  1  0  0  0  0  0  0  0  0  0
  -30.0970  -18.4940   20.0410 C   0  0  2  0  0  0  0  0  0  0  0  0
  -30.8970  -14.8620   20.0860 C   0  0  0  0  0  0  0  0  0  0  0  0
  -30.5810  -12.6520   18.9390 C   0  0  0  0  0  2  0  0  0  0  0  0
  -29.5790  -12.8070   17.7720 C   0  0  0  0  0  2  0  0  0  0  0  0
  -28.1280  -12.6350   18.2620 C   0  0  0  0  0  2  0  0  0  0  0  0
  -27.8410  -13.4490   19.5500 C   0  0  0  0  0  3  0  0  0  0  0  0
  -28.9540  -13.2510   20.5980 C   0  0  0  0  0  2  0  0  0  0  0  0
  -30.2310  -13.6500   19.9840 N   0  0  0  0  0  0  0  0  0  0  0  0
  -32.0280  -14.9280   19.5990 O   0  0  0  0  0  0  0  0  0  0  0  0
  -25.5030  -14.0380   20.4240 C   0  0  0  0  0  0  0  0  0  0  0  0
  -24.4510  -13.2650   20.8300 C   0  0  0  0  0  0  0  0  0  0  0  0
  -24.8960  -11.9100   20.7320 C   0  0  0  0  0  0  0  0  0  0  0  0
  -26.5200  -13.1570   20.0990 N   0  0  0  0  0  0  0  0  0  0  0  0
  -26.1670  -11.8710   20.3490 N   0  0  0  0  0  0  0  0  0  0  0  0
  -24.1660  -10.6500   20.9230 C   0  0  0  0  0  0  0  0  0  0  0  0
  -24.5840   -9.6890   21.8690 C   0  0  0  0  0  3  0  0  0  0  0  0
  -23.8550   -8.4930   22.0460 C   0  0  0  0  0  3  0  0  0  0  0  0
  -22.6920   -8.2510   21.2760 C   0  0  0  0  0  0  0  0  0  0  0  0
  -22.2940   -9.2000   20.3180 C   0  0  0  0  0  3  0  0  0  0  0  0
  -23.0240  -10.3870   20.1390 C   0  0  0  0  0  3  0  0  0  0  0  0
  -21.9350   -7.1080   21.3630 O   0  0  0  0  0  0  0  0  0  0  0  0
  -21.7860   -6.4300   22.5470 C   0  0  0  0  0  0  0  0  0  0  0  0
  -21.2320   -7.0430   23.6920 C   0  0  0  0  0  3  0  0  0  0  0  0
  -21.0340   -6.2900   24.8660 C   0  0  0  0  0  3  0  0  0  0  0  0
  -21.3790   -4.9260   24.8950 C   0  0  0  0  0  0  0  0  0  0  0  0
  -21.9260   -4.3120   23.7540 C   0  0  0  0  0  3  0  0  0  0  0  0
  -22.1250   -5.0630   22.5830 C   0  0  0  0  0  0  0  0  0  0  0  0
  -22.6330   -4.4620   21.4790 F   0  0  0  0  0  0  0  0  0  0  0  0
  -21.1820   -4.2000   26.0210 F   0  0  0  0  0  0  0  0  0  0  0  0
  -23.0750  -13.7470   21.1890 C   0  0  0  0  0  0  0  0  0  0  0  0
  -22.3880  -13.0350   22.0760 N   0  0  0  0  0  0  0  0  0  0  0  0
  -22.6210  -14.7890   20.7190 O   0  0  0  0  0  0  0  0  0  0  0  0
  -22.7720  -12.1920   22.4780 H   0  0  0  0  0  0  0  0  0  0  0  0
  -21.4680  -13.3380   22.3590 H   0  0  0  0  0  0  0  0  0  0  0  0
  -25.6720  -15.4130   20.2780 N   0  0  0  0  0  0  0  0  0  0  0  0
  -26.4170  -15.8230   19.7300 H   0  0  0  0  0  0  0  0  0  0  0  0
  -24.8850  -16.0410   20.4020 H   0  0  0  0  0  0  0  0  0  0  0  0
  -29.8310  -16.0430   22.1060 N   0  0  0  0  0  4  0  0  0  0  0  0
  -29.5270  -16.9080   22.5130 H   0  0  0  0  0  0  0  0  0  0  0  0
  -30.5780  -15.6830   22.6760 H   0  0  0  0  0  0  0  0  0  0  0  0
  -29.0660  -15.3950   22.1530 H   0  0  0  0  0  0  0  0  0  0  0  0
  -28.8550  -22.3310   20.4910 N   0  0  0  0  0  4  0  0  0  0  0  0
  -28.5420  -22.2600   21.4470 H   0  0  0  0  0  0  0  0  0  0  0  0
  -28.0370  -22.1790   19.9200 H   0  0  0  0  0  0  0  0  0  0  0  0
  -29.3230  -23.7940   20.3030 C   0  0  0  0  0  3  0  0  0  0  0  0
  -28.1850  -24.9460   20.1710 C   0  0  0  0  0  3  0  0  0  0  0  0
  -28.4460  -26.4320   20.2480 O   0  0  0  0  0  0  0  0  0  0  0  0
  -24.6320  -31.8680   23.2300 C   0  0  0  0  0  0  0  0  0  0  0  0
  -27.3380  -27.3180   20.1850 C   0  0  0  0  0  0  0  0  0  0  0  0
  -23.4720  -30.4660   21.5650 C   0  0  0  0  0  3  0  0  0  0  0  0
  -24.9630  -28.9440   20.1510 C   0  0  0  0  0  0  0  0  0  0  0  0
  -26.0170  -30.8040   21.4270 C   0  0  0  0  0  2  0  0  0  0  0  0
  -26.1230  -29.4290   20.7680 C   0  0  0  0  0  0  0  0  0  0  0  0
  -27.3140  -28.6310   20.7700 C   0  0  0  0  0  3  0  0  0  0  0  0
  -26.1490  -26.9060   19.5400 C   0  0  0  0  0  3  0  0  0  0  0  0
  -24.9810  -27.6910   19.5260 C   0  0  0  0  0  3  0  0  0  0  0  0
  -23.7180  -29.8070   20.1840 C   0  0  0  0  0  2  0  0  0  0  0  0
  -24.7250  -31.0640   22.1300 N   0  0  0  0  0  0  0  0  0  0  0  0
  -23.5350  -32.1290   23.7480 O   0  0  0  0  0  0  0  0  0  0  0  0
  -22.8060  -29.4340   22.5070 C   0  0  0  0  0  0  0  0  0  0  0  0
  -21.4840  -29.2400   22.3580 N   0  0  0  0  0  0  0  0  0  0  0  0
  -23.4790  -28.8120   23.3330 O   0  0  0  0  0  0  0  0  0  0  0  0
  -21.0000  -29.7940   21.6660 H   0  0  0  0  0  0  0  0  0  0  0  0
  -18.1120  -28.0070   22.8130 C   0  0  0  0  0  0  0  0  0  0  0  0
  -20.6650  -28.2880   23.1100 C   0  0  0  0  0  3  0  0  0  0  0  0
  -20.7860  -26.8630   22.5230 C   0  0  0  0  0  2  0  0  0  0  0  0
  -19.6970  -26.5410   21.4950 C   0  0  0  0  0  2  0  0  0  0  0  0
  -18.3080  -26.6670   22.1250 C   0  0  0  0  0  2  0  0  0  0  0  0
  -19.2190  -28.7760   23.2610 C   0  0  0  0  0  0  0  0  0  0  0  0
  -18.9820  -30.0300   23.8650 C   0  0  0  0  0  3  0  0  0  0  0  0
  -17.6700  -30.5160   24.0240 C   0  0  0  0  0  3  0  0  0  0  0  0
  -16.5780  -29.7450   23.5890 C   0  0  0  0  0  3  0  0  0  0  0  0
  -16.7990  -28.4930   22.9900 C   0  0  0  0  0  3  0  0  0  0  0  0
  -25.8940  -32.5140   23.8770 C   0  0  0  0  0  3  0  0  0  0  0  0
  -26.3990  -31.7430   25.1570 C   0  0  1  0  0  0  0  0  0  0  0  0
  -25.2910  -31.4820   26.2050 C   0  0  0  0  0  1  0  0  0  0  0  0
  -27.0100  -30.3760   24.7690 C   0  0  0  0  0  1  0  0  0  0  0  0
  -27.5270  -32.5500   25.8430 C   0  0  0  0  0  1  0  0  0  0  0  0
  -25.5590  -33.9070   24.2130 N   0  0  0  0  0  0  0  0  0  0  0  0
  -25.8560  -34.9670   23.4510 C   0  0  0  0  0  0  0  0  0  0  0  0
  -26.5120  -34.8790   22.4090 O   0  0  0  0  0  0  0  0  0  0  0  0
  -24.9720  -34.0470   25.0220 H   0  0  0  0  0  0  0  0  0  0  0  0
  -24.0710  -36.7140   23.1470 C   0  0  0  0  0  1  0  0  0  0  0  0
  -25.3480  -36.3440   23.9190 C   0  0  0  0  0  3  0  0  0  0  0  0
  -27.4800  -37.2930   24.6840 C   0  0  0  0  0  1  0  0  0  0  0  0
  -26.3500  -37.4230   23.7690 N   0  0  0  0  0  0  0  0  0  0  0  0
  -25.9230  -38.3340   23.9200 H   0  0  0  0  0  0  0  0  0  0  0  0
  1  6  1  0
  2  1  1  0
  4  7  1  0
  8  5  1  6
  5  7  1  0
  6 49  1  0
  6  3  1  0
  7  9  1  0
  7 45  1  1
  8  2  1  0
  8  4  1  0
  8  3  1  0
 10 15  1  0
 11 12  1  0
 11 10  1  0
 13 12  1  0
 13 20  1  0
 13 14  1  0
 15  9  1  0
 15 14  1  0
 16  9  2  0
 17 18  2  0
 18 37  1  0
 19 18  1  0
 19 22  1  0
 20 21  1  0
 20 17  1  0
 21 19  2  0
 22 23  1  0
 23 24  2  0
 25 28  1  0
 25 24  1  0
 26 25  2  0
 27 26  1  0
 27 22  2  0
 28 29  1  0
 29 34  2  0
 29 30  1  0
 30 31  2  0
 31 32  1  0
 32 36  1  0
 33 32  2  0
 34 33  1  0
 35 34  1  0
 37 38  1  0
 38 41  1  0
 38 40  1  0
 39 37  2  0
 42 44  1  0
 42 17  1  0
 43 42  1  0
 45 48  1  0
 45 46  1  0
 45 47  1  0
 49 50  1  0
 51 49  1  0
 52 49  1  0
 53 54  1  0
 53 52  2  0
 55 66  2  0
 56 54  1  0
 56 61  1  0
 57 65  1  0
 57 67  1  0
 58 64  1  0
 58 60  1  0
 59 65  1  0
 60 61  2  0
 60 59  1  0
 62 56  2  0
 63 62  1  0
 63 58  2  0
 64 57  1  0
 65 55  1  0
 67 69  2  0
 68 67  1  0
 70 68  1  0
 71 80  2  0
 71 76  1  0
 72 68  1  0
 72 76  1  0
 73 72  1  0
 74 75  1  0
 74 73  1  0
 75 71  1  0
 76 77  2  0
 77 78  1  0
 79 78  2  0
 80 79  1  0
 81 55  1  0
 81 86  1  0
 81 82  1  0
 82 85  1  1
 82 83  1  0
 84 82  1  0
 86 89  1  0
 87 91  1  0
 87 86  1  0
 88 87  2  0
 91 90  1  0
 93 91  1  0
 93 94  1  0
 93 92  1  0
M  ISO  4   7 100   9 100  53 101  54 101
M  END
>  <TORSDO>  (85) 
F 20

>  <SCORE>  (85) 
-13.475

>  <name>  (85) 
86

>  <ligand_id>  (85) 
86

>  <original_smiles>  (85) 
[H]c1c([H])c([H])c2c(c1[H])C([H])([H])C([H])([H])C([H])([H])C2([H])N([H])C(=O)C1([H])N(C(=O)C([H])(N([H])C(=O)C([H])(N([H])C([H])([H])[H])C([H])([H])[H])C(C([H])([H])[H])(C([H])([H])[H])C([H])([H])[H])C([H])([H])c2c([H])c(OC([H])([H])C([H])([H])[N+]([H])([H])C3([H])C([H])([H])C([H])([H])C4(C([H])([H])C(C(=O)N5C([H])([H])C([H])([H])C([H])([H])C([H])(n6nc(-c7c([H])c([H])c(Oc8c([H])c([H])c(F)c([H])c8F)c([H])c7[H])c(C(=O)N([H])[H])c6N([H])[H])C5([H])[H])([N+]([H])([H])[H])C4([H])[H])C3([H])[H])c([H])c([H])c2C1([H])[H]

>  <smiles>  (85) 
[H]c1c([H])c([H])c2c(c1[H])C([H])([H])C([H])([H])C([H])([H])C2([H])N([H])C(=O)C1([H])N(C(=O)C([H])(N([H])C(=O)C([H])(N([H])C([H])([H])[H])C([H])([H])[H])C(C([H])([H])[H])(C([H])([H])[H])C([H])([H])[H])C([H])([H])c2c([H])c(OC([H])([H])C([H])([H])[N+]([H])([H])C3([H])C([H])([H])C([H])([H])C4(C([H])([H])C(C(=O)N5C([H])([H])C([H])([H])C([H])([H])C([H])(n6nc(-c7c([H])c([H])c(Oc8c([H])c([H])c(F)c([H])c8F)c([H])c7[H])c(C(=O)N([H])[H])c6N([H])[H])C5([H])[H])([N+]([H])([H])[H])C4([H])[H])C3([H])[H])c([H])c([H])c2C1([H])[H]

$$$$
87:0:0
     RDKit          3D

 97106  0  0  1  0  0  0  0  0999 V2000
  -31.2700  -23.1950   17.3150 C   0  0  0  0  0  3  0  0  0  0  0  0
  -30.9880  -23.1220   18.6890 C   0  0  0  0  0  0  0  0  0  0  0  0
  -30.3440  -21.9910   19.2240 C   0  0  0  0  0  0  0  0  0  0  0  0
  -30.9280  -22.1260   16.4640 C   0  0  0  0  0  0  0  0  0  0  0  0
  -30.0200  -20.8870   18.3890 C   0  0  0  0  0  0  0  0  0  0  0  0
  -30.3140  -20.9580   16.9960 C   0  0  0  0  0  0  0  0  0  0  0  0
  -30.0700  -22.0450   20.7230 C   0  0  0  0  0  2  0  0  0  0  0  0
  -31.3490  -24.2580   19.6350 C   0  0  0  0  0  2  0  0  0  0  0  0
  -29.5640  -23.4330   21.1870 C   0  0  0  0  0  2  0  0  0  0  0  0
  -31.2410  -22.2610   14.9820 C   0  0  0  0  0  1  0  0  0  0  0  0
  -29.9730  -19.7880   16.0750 C   0  0  0  0  0  1  0  0  0  0  0  0
  -30.1690  -24.5940   20.4640 N   0  0  1  0  0  4  0  0  0  0  0  0
  -29.4610  -24.8390   19.7860 H   0  0  0  0  0  0  0  0  0  0  0  0
  -29.3940  -19.6280   18.9960 C   0  0  0  0  0  2  0  0  0  0  0  0
  -30.4090  -18.8120   19.8170 C   0  0  0  0  0  2  0  0  0  0  0  0
  -29.9150  -17.3960   20.1270 C   0  0  0  0  0  2  0  0  0  0  0  0
  -30.7370  -16.7220   21.2390 C   0  0  0  0  0  2  0  0  0  0  0  0
  -30.3130  -15.2640   21.4920 C   0  0  0  0  0  2  0  0  0  0  0  0
  -30.7890  -14.2730   20.4130 C   0  0  0  0  0  0  0  0  0  0  0  0
  -30.3760  -12.2530   19.0510 C   0  0  0  0  0  2  0  0  0  0  0  0
  -29.4090  -12.5840   17.8970 C   0  0  0  0  0  2  0  0  0  0  0  0
  -27.9420  -12.4670   18.3570 C   0  0  0  0  0  2  0  0  0  0  0  0
  -27.6730  -13.2270   19.6830 C   0  0  0  0  0  3  0  0  0  0  0  0
  -28.7390  -12.8500   20.7370 C   0  0  0  0  0  2  0  0  0  0  0  0
  -30.0610  -13.1540   20.1680 N   0  0  0  0  0  0  0  0  0  0  0  0
  -31.8260  -14.5320   19.7900 O   0  0  0  0  0  0  0  0  0  0  0  0
  -25.2850  -13.8810   20.3990 C   0  0  0  0  0  0  0  0  0  0  0  0
  -24.2080  -13.1290   20.7830 C   0  0  0  0  0  0  0  0  0  0  0  0
  -24.6470  -11.7700   20.7560 C   0  0  0  0  0  0  0  0  0  0  0  0
  -26.3170  -12.9830   20.1710 N   0  0  0  0  0  0  0  0  0  0  0  0
  -25.9330  -11.7080   20.4350 N   0  0  0  0  0  0  0  0  0  0  0  0
  -23.9050  -10.5210   20.9640 C   0  0  0  0  0  0  0  0  0  0  0  0
  -24.3360   -9.5530   21.8980 C   0  0  0  0  0  3  0  0  0  0  0  0
  -23.5950   -8.3670   22.0930 C   0  0  0  0  0  3  0  0  0  0  0  0
  -22.4090   -8.1420   21.3540 C   0  0  0  0  0  0  0  0  0  0  0  0
  -21.9980   -9.0980   20.4100 C   0  0  0  0  0  3  0  0  0  0  0  0
  -22.7390  -10.2750   20.2120 C   0  0  0  0  0  3  0  0  0  0  0  0
  -21.6390   -7.0080   21.4590 O   0  0  0  0  0  0  0  0  0  0  0  0
  -21.5980   -6.2700   22.6150 C   0  0  0  0  0  0  0  0  0  0  0  0
  -21.2060   -6.8360   23.8480 C   0  0  0  0  0  3  0  0  0  0  0  0
  -21.1100   -6.0260   24.9960 C   0  0  0  0  0  3  0  0  0  0  0  0
  -21.3980   -4.6500   24.9130 C   0  0  0  0  0  0  0  0  0  0  0  0
  -21.7830   -4.0830   23.6860 C   0  0  0  0  0  3  0  0  0  0  0  0
  -21.8800   -4.8920   22.5390 C   0  0  0  0  0  0  0  0  0  0  0  0
  -22.2320   -4.3370   21.3540 F   0  0  0  0  0  0  0  0  0  0  0  0
  -21.2990   -3.8690   26.0140 F   0  0  0  0  0  0  0  0  0  0  0  0
  -22.8220  -13.6290   21.0710 C   0  0  0  0  0  0  0  0  0  0  0  0
  -22.0950  -12.9490   21.9510 N   0  0  0  0  0  0  0  0  0  0  0  0
  -22.3920  -14.6570   20.5500 O   0  0  0  0  0  0  0  0  0  0  0  0
  -22.4570  -12.1160   22.3930 H   0  0  0  0  0  0  0  0  0  0  0  0
  -21.1650  -13.2640   22.1860 H   0  0  0  0  0  0  0  0  0  0  0  0
  -25.4680  -15.2480   20.2110 N   0  0  0  0  0  0  0  0  0  0  0  0
  -24.7090  -15.9140   20.3180 H   0  0  0  0  0  0  0  0  0  0  0  0
  -26.3280  -15.6770   19.8900 H   0  0  0  0  0  0  0  0  0  0  0  0
  -30.3160  -25.8240   21.2870 C   0  0  0  0  0  2  0  0  0  0  0  0
  -29.6820  -27.0370   20.5890 C   0  0  0  0  0  2  0  0  0  0  0  0
  -28.4060  -26.6180   20.0990 O   0  0  0  0  0  0  0  0  0  0  0  0
  -24.6150  -31.8490   23.2200 C   0  0  0  0  0  0  0  0  0  0  0  0
  -27.2880  -27.4260   20.1650 C   0  0  0  0  0  0  0  0  0  0  0  0
  -23.4080  -30.4370   21.5810 C   0  0  0  0  0  3  0  0  0  0  0  0
  -24.8660  -28.8960   20.1680 C   0  0  0  0  0  0  0  0  0  0  0  0
  -25.9270  -30.8120   21.3760 C   0  0  0  0  0  2  0  0  0  0  0  0
  -26.0180  -29.4360   20.7520 C   0  0  0  0  0  0  0  0  0  0  0  0
  -27.2290  -28.7130   20.7510 C   0  0  0  0  0  3  0  0  0  0  0  0
  -26.1150  -26.8930   19.5890 C   0  0  0  0  0  3  0  0  0  0  0  0
  -24.9080  -27.6180   19.5820 C   0  0  0  0  0  3  0  0  0  0  0  0
  -23.6190  -29.7480   20.2050 C   0  0  0  0  0  2  0  0  0  0  0  0
  -24.6690  -31.0460   22.1190 N   0  0  0  0  0  0  0  0  0  0  0  0
  -23.5360  -32.1240   23.7590 O   0  0  0  0  0  0  0  0  0  0  0  0
  -22.7560  -29.4230   22.5480 C   0  0  0  0  0  0  0  0  0  0  0  0
  -21.4310  -29.2490   22.4230 N   0  0  0  0  0  0  0  0  0  0  0  0
  -23.4380  -28.7970   23.3640 O   0  0  0  0  0  0  0  0  0  0  0  0
  -20.9450  -29.8040   21.7320 H   0  0  0  0  0  0  0  0  0  0  0  0
  -18.0490  -28.0840   22.9270 C   0  0  0  0  0  0  0  0  0  0  0  0
  -20.6080  -28.3180   23.1960 C   0  0  0  0  0  3  0  0  0  0  0  0
  -20.6990  -26.8870   22.6200 C   0  0  0  0  0  2  0  0  0  0  0  0
  -19.5930  -26.5730   21.6080 C   0  0  0  0  0  2  0  0  0  0  0  0
  -18.2130  -26.7310   22.2530 C   0  0  0  0  0  2  0  0  0  0  0  0
  -19.1750  -28.8360   23.3550 C   0  0  0  0  0  0  0  0  0  0  0  0
  -18.9690  -30.1000   23.9450 C   0  0  0  0  0  3  0  0  0  0  0  0
  -17.6690  -30.6150   24.1120 C   0  0  0  0  0  3  0  0  0  0  0  0
  -16.5570  -29.8600   23.7030 C   0  0  0  0  0  3  0  0  0  0  0  0
  -16.7480  -28.5960   23.1150 C   0  0  0  0  0  3  0  0  0  0  0  0
  -25.9030  -32.4780   23.8380 C   0  0  0  0  0  3  0  0  0  0  0  0
  -25.5960  -33.8730   24.1780 N   0  0  0  0  0  0  0  0  0  0  0  0
  -25.9200  -34.9290   23.4190 C   0  0  0  0  0  0  0  0  0  0  0  0
  -26.5830  -34.8300   22.3820 O   0  0  0  0  0  0  0  0  0  0  0  0
  -25.0090  -34.0230   24.9870 H   0  0  0  0  0  0  0  0  0  0  0  0
  -24.1860  -36.7170   23.0770 C   0  0  0  0  0  1  0  0  0  0  0  0
  -25.4320  -36.3130   23.8830 C   0  0  0  0  0  3  0  0  0  0  0  0
  -27.5690  -37.1990   24.7050 C   0  0  0  0  0  1  0  0  0  0  0  0
  -26.4600  -37.3700   23.7710 N   0  0  0  0  0  0  0  0  0  0  0  0
  -26.0520  -38.2860   23.9330 H   0  0  0  0  0  0  0  0  0  0  0  0
  -26.4320  -31.6950   25.1030 C   0  0  1  0  0  0  0  0  0  0  0  0
  -25.3480  -31.4460   26.1770 C   0  0  0  0  0  1  0  0  0  0  0  0
  -27.0130  -30.3230   24.6870 C   0  0  0  0  0  1  0  0  0  0  0  0
  -27.5870  -32.4840   25.7630 C   0  0  0  0  0  1  0  0  0  0  0  0
  1  2  1  0
  2  3  2  0
  2  8  1  0
  3  7  1  0
  4  6  1  0
  4  1  2  0
  5 14  1  0
  5  3  1  0
  6  5  2  0
  7  9  1  0
  8 12  1  0
 10  4  1  0
 11  6  1  0
 12  9  1  0
 12 55  1  0
 12 13  1  6
 14 15  1  0
 15 16  1  0
 16 17  1  0
 17 18  1  0
 19 18  1  0
 20 25  1  0
 21 22  1  0
 21 20  1  0
 23 22  1  0
 23 30  1  0
 23 24  1  0
 25 19  1  0
 25 24  1  0
 26 19  2  0
 27 28  2  0
 28 47  1  0
 29 28  1  0
 29 32  1  0
 30 27  1  0
 30 31  1  0
 31 29  2  0
 32 33  1  0
 33 34  2  0
 35 38  1  0
 35 34  1  0
 36 35  2  0
 37 36  1  0
 37 32  2  0
 38 39  1  0
 39 40  1  0
 40 41  2  0
 42 41  1  0
 42 46  1  0
 43 42  2  0
 44 39  2  0
 44 43  1  0
 45 44  1  0
 47 48  1  0
 48 51  1  0
 48 50  1  0
 49 47  2  0
 52 53  1  0
 52 27  1  0
 54 52  1  0
 56 55  1  0
 57 59  1  0
 57 56  1  0
 58 69  2  0
 59 64  1  0
 60 68  1  0
 60 70  1  0
 61 67  1  0
 61 63  1  0
 62 68  1  0
 63 62  1  0
 64 63  2  0
 65 59  2  0
 66 65  1  0
 66 61  2  0
 67 60  1  0
 68 58  1  0
 70 72  2  0
 71 70  1  0
 73 71  1  0
 74 83  2  0
 74 79  1  0
 75 71  1  0
 75 79  1  0
 76 75  1  0
 77 78  1  0
 77 76  1  0
 78 74  1  0
 79 80  2  0
 80 81  1  0
 82 81  2  0
 83 82  1  0
 84 58  1  0
 84 85  1  0
 84 94  1  0
 85 88  1  0
 86 90  1  0
 86 85  1  0
 87 86  2  0
 90 89  1  0
 92 90  1  0
 92 93  1  0
 92 91  1  0
 94 97  1  1
 94 95  1  0
 96 94  1  0
M  ISO  4  18 100  19 100  56 101  57 101
M  END
>  <TORSDO>  (86) 
F 23

>  <SCORE>  (86) 
-12.859

>  <name>  (86) 
87

>  <ligand_id>  (86) 
87

>  <original_smiles>  (86) 
[H]c1c([H])c([H])c2c(c1[H])C([H])([H])C([H])([H])C([H])([H])C2([H])N([H])C(=O)C1([H])N(C(=O)C([H])(N([H])C(=O)C([H])(N([H])C([H])([H])[H])C([H])([H])[H])C(C([H])([H])[H])(C([H])([H])[H])C([H])([H])[H])C([H])([H])c2c([H])c(OC([H])([H])C([H])([H])[N+]3([H])C([H])([H])c4c([H])c(C([H])([H])[H])c(C([H])([H])[H])c(C([H])([H])C([H])([H])C([H])([H])C([H])([H])C([H])([H])C(=O)N5C([H])([H])C([H])([H])C([H])([H])C([H])(n6nc(-c7c([H])c([H])c(Oc8c([H])c([H])c(F)c([H])c8F)c([H])c7[H])c(C(=O)N([H])[H])c6N([H])[H])C5([H])[H])c4C([H])([H])C3([H])[H])c([H])c([H])c2C1([H])[H]

>  <smiles>  (86) 
[H]c1c([H])c([H])c2c(c1[H])C([H])([H])C([H])([H])C([H])([H])C2([H])N([H])C(=O)C1([H])N(C(=O)C([H])(N([H])C(=O)C([H])(N([H])C([H])([H])[H])C([H])([H])[H])C(C([H])([H])[H])(C([H])([H])[H])C([H])([H])[H])C([H])([H])c2c([H])c(OC([H])([H])C([H])([H])[N+]3([H])C([H])([H])c4c([H])c(C([H])([H])[H])c(C([H])([H])[H])c(C([H])([H])C([H])([H])C([H])([H])C([H])([H])C([H])([H])C(=O)N5C([H])([H])C([H])([H])C([H])([H])C([H])(n6nc(-c7c([H])c([H])c(Oc8c([H])c([H])c(F)c([H])c8F)c([H])c7[H])c(C(=O)N([H])[H])c6N([H])[H])C5([H])[H])c4C([H])([H])C3([H])[H])c([H])c([H])c2C1([H])[H]

$$$$
88:0:0
     RDKit          3D

 93102  0  0  1  0  0  0  0  0999 V2000
  -29.5590  -20.0630   20.7850 C   0  0  0  0  0  0  0  0  0  0  0  0
  -29.9180  -16.8850   20.4730 C   0  0  0  0  0  0  0  0  0  0  0  0
  -28.9050  -19.2800   19.7950 C   0  0  0  0  0  0  0  0  0  0  0  0
  -30.3240  -19.1920   21.6660 C   0  0  0  0  0  0  0  0  0  0  0  0
  -29.0950  -17.7890   19.6210 C   0  0  0  0  0  0  0  0  0  0  0  0
  -30.4910  -17.7240   21.5210 C   0  0  0  0  0  0  0  0  0  0  0  0
  -29.5290  -21.7250   20.7830 C   0  0  0  0  0  0  0  0  0  0  0  0
  -28.0690  -20.2110   18.8570 C   0  0  0  0  0  2  0  0  0  0  0  0
  -28.2740  -22.6940   20.3050 C   0  0  0  0  0  3  0  0  0  0  0  0
  -27.4550  -21.6230   19.3970 C   0  0  0  0  0  3  0  0  0  0  0  0
  -31.0110  -19.8820   22.8490 C   0  0  0  0  0  1  0  0  0  0  0  0
  -28.4140  -17.1660   18.4140 C   0  0  0  0  0  1  0  0  0  0  0  0
  -31.3560  -17.0270   22.5750 C   0  0  0  0  0  1  0  0  0  0  0  0
  -26.6970  -22.2740   18.2260 C   0  0  0  0  0  1  0  0  0  0  0  0
  -30.5220  -22.3380   21.1840 O   0  0  0  0  0  0  0  0  0  0  0  0
  -30.4520  -15.3070   20.1850 C   0  0  0  0  0  0  0  0  0  0  0  0
  -30.2990  -12.8820   19.2980 C   0  0  0  0  0  2  0  0  0  0  0  0
  -29.3590  -12.7310   18.0770 C   0  0  0  0  0  2  0  0  0  0  0  0
  -27.9150  -12.4850   18.5410 C   0  0  0  0  0  2  0  0  0  0  0  0
  -27.5070  -13.4340   19.6960 C   0  0  0  0  0  3  0  0  0  0  0  0
  -28.5810  -13.5730   20.7960 C   0  0  0  0  0  2  0  0  0  0  0  0
  -29.8130  -14.0370   20.1450 N   0  0  0  0  0  0  0  0  0  0  0  0
  -31.6460  -15.2160   19.8730 O   0  0  0  0  0  0  0  0  0  0  0  0
  -25.1660  -13.9900   20.5250 C   0  0  0  0  0  0  0  0  0  0  0  0
  -24.1100  -13.2130   20.9100 C   0  0  0  0  0  0  0  0  0  0  0  0
  -24.5690  -11.8600   20.8500 C   0  0  0  0  0  0  0  0  0  0  0  0
  -26.1960  -13.1140   20.2410 N   0  0  0  0  0  0  0  0  0  0  0  0
  -25.8530  -11.8250   20.5060 N   0  0  0  0  0  0  0  0  0  0  0  0
  -23.8400  -10.5990   21.0420 C   0  0  0  0  0  0  0  0  0  0  0  0
  -24.2830   -9.6200   21.9590 C   0  0  0  0  0  3  0  0  0  0  0  0
  -23.5510   -8.4270   22.1410 C   0  0  0  0  0  3  0  0  0  0  0  0
  -22.3620   -8.2020   21.4060 C   0  0  0  0  0  0  0  0  0  0  0  0
  -21.9380   -9.1690   20.4780 C   0  0  0  0  0  3  0  0  0  0  0  0
  -22.6710  -10.3540   20.2940 C   0  0  0  0  0  3  0  0  0  0  0  0
  -21.6010   -7.0610   21.4980 O   0  0  0  0  0  0  0  0  0  0  0  0
  -21.5680   -6.3100   22.6450 C   0  0  0  0  0  0  0  0  0  0  0  0
  -21.1570   -6.8530   23.8820 C   0  0  0  0  0  3  0  0  0  0  0  0
  -21.0710   -6.0260   25.0200 C   0  0  0  0  0  3  0  0  0  0  0  0
  -21.3860   -4.6570   24.9230 C   0  0  0  0  0  0  0  0  0  0  0  0
  -21.7890   -4.1130   23.6910 C   0  0  0  0  0  3  0  0  0  0  0  0
  -21.8780   -4.9370   22.5550 C   0  0  0  0  0  0  0  0  0  0  0  0
  -22.2460   -4.4040   21.3650 F   0  0  0  0  0  0  0  0  0  0  0  0
  -21.2970   -3.8610   26.0140 F   0  0  0  0  0  0  0  0  0  0  0  0
  -22.7230  -13.6930   21.2190 C   0  0  0  0  0  0  0  0  0  0  0  0
  -22.0100  -12.9860   22.0890 N   0  0  0  0  0  0  0  0  0  0  0  0
  -22.2830  -14.7300   20.7250 O   0  0  0  0  0  0  0  0  0  0  0  0
  -22.3800  -12.1460   22.5070 H   0  0  0  0  0  0  0  0  0  0  0  0
  -21.0800  -13.2910   22.3400 H   0  0  0  0  0  0  0  0  0  0  0  0
  -25.3340  -15.3620   20.3670 N   0  0  0  0  0  0  0  0  0  0  0  0
  -24.5800  -16.0230   20.5250 H   0  0  0  0  0  0  0  0  0  0  0  0
  -26.1950  -15.8060   20.0750 H   0  0  0  0  0  0  0  0  0  0  0  0
  -28.2590  -24.4450   19.8180 C   0  0  0  0  0  2  0  0  0  0  0  0
  -28.1830  -25.9750   20.4100 O   0  0  0  0  0  0  0  0  0  0  0  0
  -24.6270  -31.9470   23.2370 C   0  0  0  0  0  0  0  0  0  0  0  0
  -27.1730  -27.0550   20.2630 C   0  0  0  0  0  0  0  0  0  0  0  0
  -23.4280  -30.5400   21.6090 C   0  0  0  0  0  3  0  0  0  0  0  0
  -24.8740  -28.9270   20.1930 C   0  0  0  0  0  0  0  0  0  0  0  0
  -25.9920  -30.7500   21.4610 C   0  0  0  0  0  2  0  0  0  0  0  0
  -26.0570  -29.3380   20.8180 C   0  0  0  0  0  0  0  0  0  0  0  0
  -27.1960  -28.4180   20.8360 C   0  0  0  0  0  3  0  0  0  0  0  0
  -25.9620  -26.7950   19.5780 C   0  0  0  0  0  3  0  0  0  0  0  0
  -24.8510  -27.6750   19.5550 C   0  0  0  0  0  3  0  0  0  0  0  0
  -23.6550  -29.8470   20.2360 C   0  0  0  0  0  2  0  0  0  0  0  0
  -24.7040  -31.1060   22.1560 N   0  0  0  0  0  0  0  0  0  0  0  0
  -23.5390  -32.2440   23.7550 O   0  0  0  0  0  0  0  0  0  0  0  0
  -22.7330  -29.5530   22.5840 C   0  0  0  0  0  0  0  0  0  0  0  0
  -21.4050  -29.3850   22.4560 N   0  0  0  0  0  0  0  0  0  0  0  0
  -23.3970  -28.9370   23.4220 O   0  0  0  0  0  0  0  0  0  0  0  0
  -20.9230  -29.9320   21.7570 H   0  0  0  0  0  0  0  0  0  0  0  0
  -18.0200  -28.1840   22.9730 C   0  0  0  0  0  0  0  0  0  0  0  0
  -20.5800  -28.4570   23.2370 C   0  0  0  0  0  3  0  0  0  0  0  0
  -20.6840  -27.0190   22.6780 C   0  0  0  0  0  2  0  0  0  0  0  0
  -19.5830  -26.6840   21.6660 C   0  0  0  0  0  2  0  0  0  0  0  0
  -18.2000  -26.8300   22.3080 C   0  0  0  0  0  2  0  0  0  0  0  0
  -19.1380  -28.9550   23.3950 C   0  0  0  0  0  0  0  0  0  0  0  0
  -18.9130  -30.2190   23.9820 C   0  0  0  0  0  3  0  0  0  0  0  0
  -17.6060  -30.7140   24.1490 C   0  0  0  0  0  3  0  0  0  0  0  0
  -16.5040  -29.9420   23.7390 C   0  0  0  0  0  3  0  0  0  0  0  0
  -16.7130  -28.6790   23.1570 C   0  0  0  0  0  3  0  0  0  0  0  0
  -25.9010  -32.5910   23.8650 C   0  0  0  0  0  3  0  0  0  0  0  0
  -25.5870  -33.9930   24.1910 N   0  0  0  0  0  0  0  0  0  0  0  0
  -25.9110  -35.0490   23.4320 C   0  0  0  0  0  0  0  0  0  0  0  0
  -26.5720  -34.9450   22.3950 O   0  0  0  0  0  0  0  0  0  0  0  0
  -25.0020  -34.1500   24.9990 H   0  0  0  0  0  0  0  0  0  0  0  0
  -24.1820  -36.8490   23.0990 C   0  0  0  0  0  1  0  0  0  0  0  0
  -25.4310  -36.4400   23.8950 C   0  0  0  0  0  3  0  0  0  0  0  0
  -27.5710  -37.3290   24.7080 C   0  0  0  0  0  1  0  0  0  0  0  0
  -26.4630  -37.4930   23.7710 N   0  0  0  0  0  0  0  0  0  0  0  0
  -26.0570  -38.4130   23.9170 H   0  0  0  0  0  0  0  0  0  0  0  0
  -26.4060  -31.8330   25.1560 C   0  0  1  0  0  0  0  0  0  0  0  0
  -25.3040  -31.6070   26.2170 C   0  0  0  0  0  1  0  0  0  0  0  0
  -26.9950  -30.4510   24.7930 C   0  0  0  0  0  1  0  0  0  0  0  0
  -27.5510  -32.6360   25.8180 C   0  0  0  0  0  1  0  0  0  0  0  0
  1  4  1  0
  2  6  1  0
  3  1  2  0
  4 11  1  0
  5  3  1  0
  5  2  2  0
  6  4  2  0
  6 13  1  0
  7  1  1  0
  7 15  2  0
  8 10  1  0
  8  3  1  0
  9 52  1  0
  9  7  1  0
 10 14  1  0
 10  9  1  0
 12  5  1  0
 16  2  1  0
 17 22  1  0
 18 19  1  0
 18 17  1  0
 20 19  1  0
 20 27  1  0
 20 21  1  0
 22 16  1  0
 22 21  1  0
 23 16  2  0
 24 25  2  0
 25 44  1  0
 26 25  1  0
 26 29  1  0
 27 28  1  0
 27 24  1  0
 28 26  2  0
 29 30  1  0
 30 31  2  0
 32 35  1  0
 32 31  1  0
 33 32  2  0
 34 33  1  0
 34 29  2  0
 35 36  1  0
 36 37  1  0
 37 38  2  0
 39 38  1  0
 39 43  1  0
 40 39  2  0
 41 36  2  0
 41 40  1  0
 42 41  1  0
 44 45  1  0
 45 48  1  0
 45 47  1  0
 46 44  2  0
 49 24  1  0
 49 50  1  0
 51 49  1  0
 52 53  1  0
 54 65  2  0
 55 53  1  0
 55 60  1  0
 56 64  1  0
 56 66  1  0
 57 63  1  0
 57 59  1  0
 58 64  1  0
 59 60  2  0
 59 58  1  0
 61 55  2  0
 62 61  1  0
 62 57  2  0
 63 56  1  0
 64 54  1  0
 66 68  2  0
 67 66  1  0
 69 67  1  0
 70 79  2  0
 70 75  1  0
 71 67  1  0
 71 75  1  0
 72 71  1  0
 73 74  1  0
 73 72  1  0
 74 70  1  0
 75 76  2  0
 76 77  1  0
 78 77  2  0
 79 78  1  0
 80 54  1  0
 80 81  1  0
 80 90  1  0
 81 84  1  0
 82 86  1  0
 82 81  1  0
 83 82  2  0
 86 85  1  0
 88 86  1  0
 88 89  1  0
 88 87  1  0
 90 93  1  1
 90 91  1  0
 92 90  1  0
M  ISO  4   2 100  16 100  52 101  53 101
M  END
>  <TORSDO>  (87) 
F 17

>  <SCORE>  (87) 
-15.462

>  <name>  (87) 
88

>  <ligand_id>  (87) 
88

>  <original_smiles>  (87) 
[H]c1c([H])c([H])c2c(c1[H])C([H])([H])C([H])([H])C([H])([H])C2([H])N([H])C(=O)C1([H])N(C(=O)C([H])(N([H])C(=O)C([H])(N([H])C([H])([H])[H])C([H])([H])[H])C(C([H])([H])[H])(C([H])([H])[H])C([H])([H])[H])C([H])([H])c2c([H])c(OC([H])([H])C3([H])C(=O)c4c(C([H])([H])[H])c(C([H])([H])[H])c(C(=O)N5C([H])([H])C([H])([H])C([H])([H])C([H])(n6nc(-c7c([H])c([H])c(Oc8c([H])c([H])c(F)c([H])c8F)c([H])c7[H])c(C(=O)N([H])[H])c6N([H])[H])C5([H])[H])c(C([H])([H])[H])c4C([H])([H])C3([H])C([H])([H])[H])c([H])c([H])c2C1([H])[H]

>  <smiles>  (87) 
[H]c1c([H])c([H])c2c(c1[H])C([H])([H])C([H])([H])C([H])([H])C2([H])N([H])C(=O)C1([H])N(C(=O)C([H])(N([H])C(=O)C([H])(N([H])C([H])([H])[H])C([H])([H])[H])C(C([H])([H])[H])(C([H])([H])[H])C([H])([H])[H])C([H])([H])c2c([H])c(OC([H])([H])C3([H])C(=O)c4c(C([H])([H])[H])c(C([H])([H])[H])c(C(=O)N5C([H])([H])C([H])([H])C([H])([H])C([H])(n6nc(-c7c([H])c([H])c(Oc8c([H])c([H])c(F)c([H])c8F)c([H])c7[H])c(C(=O)N([H])[H])c6N([H])[H])C5([H])[H])c(C([H])([H])[H])c4C([H])([H])C3([H])C([H])([H])[H])c([H])c([H])c2C1([H])[H]

$$$$
89:0:0
     RDKit          3D

 93102  0  0  1  0  0  0  0  0999 V2000
  -29.0120  -22.2020   21.1340 C   0  0  0  0  0  3  0  0  0  0  0  0
  -29.0350  -21.2670   20.0130 C   0  0  0  0  0  0  0  0  0  0  0  0
  -28.7420  -23.6630   21.1280 C   0  0  0  0  0  0  0  0  0  0  0  0
  -28.7440  -22.1040   18.8450 C   0  0  0  0  0  0  0  0  0  0  0  0
  -28.4840  -23.5830   18.8280 C   0  0  0  0  0  0  0  0  0  0  0  0
  -28.4340  -24.4930   19.9750 C   0  0  0  0  0  0  0  0  0  0  0  0
  -28.8000  -24.3840   22.4620 C   0  0  0  0  0  1  0  0  0  0  0  0
  -28.6890  -21.3730   17.5100 C   0  0  0  0  0  1  0  0  0  0  0  0
  -28.2590  -24.2460   17.4760 C   0  0  0  0  0  1  0  0  0  0  0  0
  -30.7360  -18.8530   21.7980 C   0  0  0  0  0  2  0  0  0  0  0  0
  -29.2360  -19.1450   21.6020 C   0  0  0  0  0  2  0  0  0  0  0  0
  -31.3090  -18.4790   20.4170 C   0  0  0  0  0  2  0  0  0  0  0  0
  -29.0640  -19.5130   20.1210 C   0  0  0  0  0  3  0  0  0  0  0  0
  -30.0930  -18.1960   19.5320 C   0  0  0  0  0  3  0  0  0  0  0  0
  -30.6360  -15.3130   19.4950 C   0  0  0  0  0  0  0  0  0  0  0  0
  -30.5740  -12.8510   18.7090 C   0  0  0  0  0  2  0  0  0  0  0  0
  -29.5450  -12.6010   17.5790 C   0  0  0  0  0  2  0  0  0  0  0  0
  -28.1480  -12.3300   18.1650 C   0  0  0  0  0  2  0  0  0  0  0  0
  -27.7890  -13.3270   19.2960 C   0  0  0  0  0  3  0  0  0  0  0  0
  -28.9340  -13.5190   20.3110 C   0  0  0  0  0  2  0  0  0  0  0  0
  -30.0940  -14.0050   19.5480 N   0  0  0  0  0  0  0  0  0  0  0  0
  -31.8260  -15.3390   19.1490 O   0  0  0  0  0  0  0  0  0  0  0  0
  -29.8520  -16.5550   19.6320 N   0  0  0  0  0  0  0  0  0  0  0  0
  -28.8920  -16.3380   19.8560 H   0  0  0  0  0  0  0  0  0  0  0  0
  -25.5420  -13.8870   20.3670 C   0  0  0  0  0  0  0  0  0  0  0  0
  -24.5090  -13.1090   20.8100 C   0  0  0  0  0  0  0  0  0  0  0  0
  -24.9290  -11.7540   20.6330 C   0  0  0  0  0  0  0  0  0  0  0  0
  -26.5220  -13.0080   19.9390 N   0  0  0  0  0  0  0  0  0  0  0  0
  -26.1730  -11.7150   20.1660 N   0  0  0  0  0  0  0  0  0  0  0  0
  -24.1930  -10.4970   20.8240 C   0  0  0  0  0  0  0  0  0  0  0  0
  -24.5900   -9.5460   21.7880 C   0  0  0  0  0  3  0  0  0  0  0  0
  -23.8510   -8.3550   21.9670 C   0  0  0  0  0  3  0  0  0  0  0  0
  -22.7000   -8.1100   21.1800 C   0  0  0  0  0  0  0  0  0  0  0  0
  -22.3230   -9.0500   20.2050 C   0  0  0  0  0  3  0  0  0  0  0  0
  -23.0630  -10.2310   20.0250 C   0  0  0  0  0  3  0  0  0  0  0  0
  -21.9370   -6.9700   21.2650 O   0  0  0  0  0  0  0  0  0  0  0  0
  -21.6880   -6.3600   22.4680 C   0  0  0  0  0  0  0  0  0  0  0  0
  -21.0310   -7.0300   23.5230 C   0  0  0  0  0  3  0  0  0  0  0  0
  -20.7330   -6.3420   24.7160 C   0  0  0  0  0  3  0  0  0  0  0  0
  -21.0830   -4.9860   24.8550 C   0  0  0  0  0  0  0  0  0  0  0  0
  -21.7330   -4.3160   23.8040 C   0  0  0  0  0  3  0  0  0  0  0  0
  -22.0320   -4.9990   22.6130 C   0  0  0  0  0  0  0  0  0  0  0  0
  -22.6390   -4.3430   21.5960 F   0  0  0  0  0  0  0  0  0  0  0  0
  -20.7910   -4.3230   25.9990 F   0  0  0  0  0  0  0  0  0  0  0  0
  -23.1680  -13.5970   21.2740 C   0  0  0  0  0  0  0  0  0  0  0  0
  -22.5350  -12.8720   22.1890 N   0  0  0  0  0  0  0  0  0  0  0  0
  -22.6960  -14.6550   20.8600 O   0  0  0  0  0  0  0  0  0  0  0  0
  -22.9330  -12.0150   22.5450 H   0  0  0  0  0  0  0  0  0  0  0  0
  -21.6400  -13.1800   22.5410 H   0  0  0  0  0  0  0  0  0  0  0  0
  -25.7200  -15.2630   20.2610 N   0  0  0  0  0  0  0  0  0  0  0  0
  -24.9820  -15.9180   20.4980 H   0  0  0  0  0  0  0  0  0  0  0  0
  -26.5110  -15.7060   19.8140 H   0  0  0  0  0  0  0  0  0  0  0  0
  -28.3790  -26.0230   19.9600 O   0  0  0  0  0  0  0  0  0  0  0  0
  -24.6360  -31.7650   23.0530 C   0  0  0  0  0  0  0  0  0  0  0  0
  -27.2870  -27.0210   19.9670 C   0  0  0  0  0  0  0  0  0  0  0  0
  -23.4620  -30.3630   21.4020 C   0  0  0  0  0  3  0  0  0  0  0  0
  -24.9360  -28.8120   19.9530 C   0  0  0  0  0  0  0  0  0  0  0  0
  -26.0160  -30.6480   21.2400 C   0  0  0  0  0  2  0  0  0  0  0  0
  -26.1140  -29.2490   20.5720 C   0  0  0  0  0  0  0  0  0  0  0  0
  -27.2820  -28.3720   20.5560 C   0  0  0  0  0  3  0  0  0  0  0  0
  -26.0780  -26.7190   19.3040 C   0  0  0  0  0  3  0  0  0  0  0  0
  -24.9390  -27.5660   19.3020 C   0  0  0  0  0  3  0  0  0  0  0  0
  -23.6960  -29.7020   20.0160 C   0  0  0  0  0  2  0  0  0  0  0  0
  -24.7250  -30.9520   21.9520 N   0  0  0  0  0  0  0  0  0  0  0  0
  -23.5440  -32.0210   23.5870 O   0  0  0  0  0  0  0  0  0  0  0  0
  -22.8000  -29.3380   22.3580 C   0  0  0  0  0  0  0  0  0  0  0  0
  -21.4760  -29.1320   22.2290 N   0  0  0  0  0  0  0  0  0  0  0  0
  -23.4840  -28.7260   23.1830 O   0  0  0  0  0  0  0  0  0  0  0  0
  -20.9770  -29.6770   21.5400 H   0  0  0  0  0  0  0  0  0  0  0  0
  -18.1280  -27.8340   22.7360 C   0  0  0  0  0  0  0  0  0  0  0  0
  -20.6820  -28.1630   22.9910 C   0  0  0  0  0  3  0  0  0  0  0  0
  -20.8160  -26.7430   22.3960 C   0  0  0  0  0  2  0  0  0  0  0  0
  -19.7180  -26.4060   21.3820 C   0  0  0  0  0  2  0  0  0  0  0  0
  -18.3370  -26.5020   22.0360 C   0  0  0  0  0  2  0  0  0  0  0  0
  -19.2270  -28.6210   23.1690 C   0  0  0  0  0  0  0  0  0  0  0  0
  -18.9760  -29.8650   23.7880 C   0  0  0  0  0  3  0  0  0  0  0  0
  -17.6580  -30.3250   23.9730 C   0  0  0  0  0  3  0  0  0  0  0  0
  -16.5730  -29.5360   23.5530 C   0  0  0  0  0  3  0  0  0  0  0  0
  -16.8090  -28.2920   22.9400 C   0  0  0  0  0  3  0  0  0  0  0  0
  -25.8970  -32.4260   23.6870 C   0  0  0  0  0  3  0  0  0  0  0  0
  -25.5440  -33.8050   24.0640 N   0  0  0  0  0  0  0  0  0  0  0  0
  -25.8200  -34.8950   23.3350 C   0  0  0  0  0  0  0  0  0  0  0  0
  -26.4620  -34.8460   22.2830 O   0  0  0  0  0  0  0  0  0  0  0  0
  -24.9660  -33.9130   24.8850 H   0  0  0  0  0  0  0  0  0  0  0  0
  -24.0240  -36.6450   23.0990 C   0  0  0  0  0  1  0  0  0  0  0  0
  -25.3050  -36.2540   23.8530 C   0  0  0  0  0  3  0  0  0  0  0  0
  -27.4300  -37.1940   24.6470 C   0  0  0  0  0  1  0  0  0  0  0  0
  -26.2980  -37.3440   23.7380 N   0  0  0  0  0  0  0  0  0  0  0  0
  -25.8650  -38.2470   23.9160 H   0  0  0  0  0  0  0  0  0  0  0  0
  -26.4420  -31.6420   24.9450 C   0  0  1  0  0  0  0  0  0  0  0  0
  -25.3590  -31.3380   26.0070 C   0  0  0  0  0  1  0  0  0  0  0  0
  -27.0750  -30.2950   24.5260 C   0  0  0  0  0  1  0  0  0  0  0  0
  -27.5640  -32.4600   25.6270 C   0  0  0  0  0  1  0  0  0  0  0  0
  2  1  2  0
  3  1  1  0
  3  7  1  0
  4  2  1  0
  5  4  2  0
  5  6  1  0
  6  3  2  0
  8  4  1  0
  9  5  1  0
 11 10  1  0
 12 10  1  0
 13  2  1  0
 13 11  1  0
 14 23  1  0
 14 13  1  0
 14 12  1  0
 15 21  1  0
 15 23  1  0
 16 21  1  0
 17 18  1  0
 17 16  1  0
 19 18  1  0
 19 28  1  0
 19 20  1  0
 21 20  1  0
 22 15  2  0
 23 24  1  0
 25 26  2  0
 26 45  1  0
 27 26  1  0
 27 30  1  0
 28 29  1  0
 28 25  1  0
 29 27  2  0
 30 31  1  0
 31 32  2  0
 33 36  1  0
 33 32  1  0
 34 33  2  0
 35 34  1  0
 35 30  2  0
 36 37  1  0
 37 42  2  0
 37 38  1  0
 38 39  2  0
 39 40  1  0
 40 44  1  0
 41 40  2  0
 42 41  1  0
 43 42  1  0
 45 46  1  0
 46 49  1  0
 46 48  1  0
 47 45  2  0
 50 25  1  0
 50 51  1  0
 52 50  1  0
 53 55  1  0
 53  6  1  0
 54 65  2  0
 55 60  1  0
 56 64  1  0
 56 66  1  0
 57 63  1  0
 57 59  1  0
 58 64  1  0
 59 58  1  0
 60 59  2  0
 61 55  2  0
 62 61  1  0
 62 57  2  0
 63 56  1  0
 64 54  1  0
 66 68  2  0
 67 66  1  0
 69 67  1  0
 70 79  2  0
 70 75  1  0
 71 67  1  0
 71 75  1  0
 72 71  1  0
 73 74  1  0
 73 72  1  0
 74 70  1  0
 75 76  2  0
 76 77  1  0
 78 77  2  0
 79 78  1  0
 80 54  1  0
 80 81  1  0
 80 90  1  0
 81 84  1  0
 82 86  1  0
 82 81  1  0
 83 82  2  0
 86 85  1  0
 88 86  1  0
 88 89  1  0
 88 87  1  0
 90 93  1  1
 90 91  1  0
 92 90  1  0
M  ISO  4   6 101  15 100  23 100  53 101
M  END
>  <TORSDO>  (88) 
F 17

>  <SCORE>  (88) 
-13.870

>  <name>  (88) 
89

>  <ligand_id>  (88) 
89

>  <original_smiles>  (88) 
[H]c1c([H])c([H])c2c(c1[H])C([H])([H])C([H])([H])C([H])([H])C2([H])N([H])C(=O)C1([H])N(C(=O)C([H])(N([H])C(=O)C([H])(N([H])C([H])([H])[H])C([H])([H])[H])C(C([H])([H])[H])(C([H])([H])[H])C([H])([H])[H])C([H])([H])c2c([H])c(Oc3c(C([H])([H])[H])c([H])c(C4([H])C([H])([H])C([H])([H])C([H])([H])C4([H])N([H])C(=O)N4C([H])([H])C([H])([H])C([H])([H])C([H])(n5nc(-c6c([H])c([H])c(Oc7c([H])c([H])c(F)c([H])c7F)c([H])c6[H])c(C(=O)N([H])[H])c5N([H])[H])C4([H])[H])c(C([H])([H])[H])c3C([H])([H])[H])c([H])c([H])c2C1([H])[H]

>  <smiles>  (88) 
[H]c1c([H])c([H])c2c(c1[H])C([H])([H])C([H])([H])C([H])([H])C2([H])N([H])C(=O)C1([H])N(C(=O)C([H])(N([H])C(=O)C([H])(N([H])C([H])([H])[H])C([H])([H])[H])C(C([H])([H])[H])(C([H])([H])[H])C([H])([H])[H])C([H])([H])c2c([H])c(Oc3c(C([H])([H])[H])c([H])c(C4([H])C([H])([H])C([H])([H])C([H])([H])C4([H])N([H])C(=O)N4C([H])([H])C([H])([H])C([H])([H])C([H])(n5nc(-c6c([H])c([H])c(Oc7c([H])c([H])c(F)c([H])c7F)c([H])c6[H])c(C(=O)N([H])[H])c5N([H])[H])C4([H])[H])c(C([H])([H])[H])c3C([H])([H])[H])c([H])c([H])c2C1([H])[H]

$$$$
90:0:0
     RDKit          3D

 94103  0  0  1  0  0  0  0  0999 V2000
  -26.0530  -20.1250   18.4900 C   0  0  0  0  0  3  0  0  0  0  0  0
  -26.5040  -17.7850   19.9380 C   0  0  0  0  0  3  0  0  0  0  0  0
  -27.3490  -19.8540   18.9800 C   0  0  0  0  0  0  0  0  0  0  0  0
  -27.6350  -18.5980   19.6560 C   0  0  0  0  0  0  0  0  0  0  0  0
  -24.9670  -19.2810   18.7720 C   0  0  0  0  0  0  0  0  0  0  0  0
  -25.1870  -18.1350   19.5630 C   0  0  0  0  0  0  0  0  0  0  0  0
  -29.5300  -19.9270   20.7120 C   0  0  0  0  0  0  0  0  0  0  0  0
  -28.3680  -21.0170   18.7890 C   0  0  0  0  0  2  0  0  0  0  0  0
  -28.9900  -18.1840   20.2550 C   0  0  0  0  0  3  0  0  0  0  0  0
  -29.0530  -21.5780   20.0810 C   0  0  2  0  0  0  0  0  0  0  0  0
  -23.5860  -19.6460   18.2410 C   0  0  0  0  0  1  0  0  0  0  0  0
  -24.0120  -17.3010   20.0570 C   0  0  0  0  0  1  0  0  0  0  0  0
  -30.4350  -22.1630   19.6850 C   0  0  0  0  0  1  0  0  0  0  0  0
  -30.3790  -19.9800   21.6080 O   0  0  0  0  0  0  0  0  0  0  0  0
  -30.2550  -15.1350   19.9070 C   0  0  0  0  0  0  0  0  0  0  0  0
  -30.3420  -12.6000   19.0230 C   0  0  0  0  0  2  0  0  0  0  0  0
  -29.3370  -12.1870   17.9080 C   0  0  0  0  0  2  0  0  0  0  0  0
  -27.9750  -11.8030   18.5030 C   0  0  0  0  0  2  0  0  0  0  0  0
  -27.5630  -12.7800   19.6260 C   0  0  0  0  0  3  0  0  0  0  0  0
  -28.6940  -13.0940   20.6310 C   0  0  0  0  0  2  0  0  0  0  0  0
  -29.7770  -13.7500   19.8630 N   0  0  0  0  0  0  0  0  0  0  0  0
  -31.4720  -15.1260   19.6280 O   0  0  0  0  0  0  0  0  0  0  0  0
  -29.4030  -16.4300   20.0840 N   0  0  0  0  0  0  0  0  0  0  0  0
  -28.4860  -16.0150   20.1510 H   0  0  0  0  0  0  0  0  0  0  0  0
  -25.3020  -13.2660   20.6670 C   0  0  0  0  0  0  0  0  0  0  0  0
  -24.2950  -12.4680   21.1290 C   0  0  0  0  0  0  0  0  0  0  0  0
  -24.7580  -11.1250   20.9830 C   0  0  0  0  0  0  0  0  0  0  0  0
  -26.3120  -12.4120   20.2750 N   0  0  0  0  0  0  0  0  0  0  0  0
  -26.0090  -11.1130   20.5270 N   0  0  0  0  0  0  0  0  0  0  0  0
  -24.0530   -9.8530   21.1920 C   0  0  0  0  0  0  0  0  0  0  0  0
  -24.5130   -8.8950   22.1210 C   0  0  0  0  0  3  0  0  0  0  0  0
  -23.8050   -7.6890   22.3170 C   0  0  0  0  0  3  0  0  0  0  0  0
  -22.6220   -7.4340   21.5850 C   0  0  0  0  0  0  0  0  0  0  0  0
  -22.1780   -8.3810   20.6440 C   0  0  0  0  0  3  0  0  0  0  0  0
  -22.8890   -9.5760   20.4450 C   0  0  0  0  0  3  0  0  0  0  0  0
  -21.8840   -6.2800   21.6940 O   0  0  0  0  0  0  0  0  0  0  0  0
  -21.7590   -5.6150   22.8870 C   0  0  0  0  0  0  0  0  0  0  0  0
  -21.2250   -6.2390   24.0370 C   0  0  0  0  0  3  0  0  0  0  0  0
  -21.0450   -5.4960   25.2210 C   0  0  0  0  0  3  0  0  0  0  0  0
  -21.3960   -4.1340   25.2600 C   0  0  0  0  0  0  0  0  0  0  0  0
  -21.9280   -3.5110   24.1170 C   0  0  0  0  0  3  0  0  0  0  0  0
  -22.1050   -4.2490   22.9340 C   0  0  0  0  0  0  0  0  0  0  0  0
  -22.5960   -3.6380   21.8290 F   0  0  0  0  0  0  0  0  0  0  0  0
  -21.2180   -3.4200   26.3970 F   0  0  0  0  0  0  0  0  0  0  0  0
  -22.9380  -12.9290   21.5710 C   0  0  0  0  0  0  0  0  0  0  0  0
  -22.3070  -12.1980   22.4800 N   0  0  0  0  0  0  0  0  0  0  0  0
  -22.4490  -13.9730   21.1420 O   0  0  0  0  0  0  0  0  0  0  0  0
  -22.7190  -11.3530   22.8520 H   0  0  0  0  0  0  0  0  0  0  0  0
  -21.4000  -12.4890   22.8150 H   0  0  0  0  0  0  0  0  0  0  0  0
  -25.4290  -14.6400   20.5080 N   0  0  0  0  0  0  0  0  0  0  0  0
  -24.6510  -15.2640   20.6900 H   0  0  0  0  0  0  0  0  0  0  0  0
  -26.1690  -15.0850   19.9830 H   0  0  0  0  0  0  0  0  0  0  0  0
  -28.2490  -23.2520   20.6620 C   0  0  0  0  0  2  0  0  0  0  0  0
  -28.3370  -25.0090   20.5270 O   0  0  0  0  0  0  0  0  0  0  0  0
  -24.5720  -31.3270   23.1170 C   0  0  0  0  0  0  0  0  0  0  0  0
  -27.3220  -26.1830   20.4580 C   0  0  0  0  0  0  0  0  0  0  0  0
  -23.4970  -29.8710   21.4550 C   0  0  0  0  0  3  0  0  0  0  0  0
  -25.0370  -28.1830   20.2040 C   0  0  0  0  0  0  0  0  0  0  0  0
  -26.0770  -30.0310   21.4890 C   0  0  0  0  0  2  0  0  0  0  0  0
  -26.1930  -28.5760   20.8880 C   0  0  0  0  0  0  0  0  0  0  0  0
  -27.3240  -27.6070   20.9760 C   0  0  0  0  0  3  0  0  0  0  0  0
  -26.1270  -25.9920   19.7200 C   0  0  0  0  0  3  0  0  0  0  0  0
  -25.0410  -26.9140   19.6000 C   0  0  0  0  0  3  0  0  0  0  0  0
  -23.8270  -29.1280   20.1290 C   0  0  0  0  0  2  0  0  0  0  0  0
  -24.7370  -30.4430   22.0740 N   0  0  0  0  0  0  0  0  0  0  0  0
  -23.4480  -31.6360   23.5480 O   0  0  0  0  0  0  0  0  0  0  0  0
  -22.7210  -28.9220   22.4100 C   0  0  0  0  0  0  0  0  0  0  0  0
  -21.3900  -28.8090   22.2420 N   0  0  0  0  0  0  0  0  0  0  0  0
  -23.3300  -28.2830   23.2710 O   0  0  0  0  0  0  0  0  0  0  0  0
  -20.9500  -29.3750   21.5290 H   0  0  0  0  0  0  0  0  0  0  0  0
  -17.9420  -27.7620   22.7120 C   0  0  0  0  0  0  0  0  0  0  0  0
  -20.5100  -27.9050   22.9930 C   0  0  0  0  0  3  0  0  0  0  0  0
  -20.5450  -26.4760   22.3990 C   0  0  0  0  0  2  0  0  0  0  0  0
  -19.4370  -26.2210   21.3720 C   0  0  0  0  0  2  0  0  0  0  0  0
  -18.0600  -26.4190   22.0110 C   0  0  0  0  0  2  0  0  0  0  0  0
  -19.0920  -28.4660   23.1590 C   0  0  0  0  0  0  0  0  0  0  0  0
  -18.9230  -29.7220   23.7830 C   0  0  0  0  0  3  0  0  0  0  0  0
  -17.6400  -30.2740   23.9580 C   0  0  0  0  0  3  0  0  0  0  0  0
  -16.5060  -29.5670   23.5230 C   0  0  0  0  0  3  0  0  0  0  0  0
  -16.6580  -28.3120   22.9080 C   0  0  0  0  0  3  0  0  0  0  0  0
  -25.7900  -32.0060   23.8190 C   0  0  0  0  0  3  0  0  0  0  0  0
  -25.4400  -33.4130   24.0890 N   0  0  0  0  0  0  0  0  0  0  0  0
  -25.8110  -34.4610   23.3380 C   0  0  0  0  0  0  0  0  0  0  0  0
  -26.5380  -34.3410   22.3500 O   0  0  0  0  0  0  0  0  0  0  0  0
  -24.7990  -33.5740   24.8520 H   0  0  0  0  0  0  0  0  0  0  0  0
  -24.0920  -36.2410   22.8700 C   0  0  0  0  0  1  0  0  0  0  0  0
  -25.2970  -35.8600   23.7430 C   0  0  0  0  0  3  0  0  0  0  0  0
  -27.3870  -36.7830   24.6510 C   0  0  0  0  0  1  0  0  0  0  0  0
  -26.3310  -36.9160   23.6510 N   0  0  0  0  0  0  0  0  0  0  0  0
  -25.9130  -37.8370   23.7550 H   0  0  0  0  0  0  0  0  0  0  0  0
  -26.2040  -31.2900   25.1640 C   0  0  1  0  0  0  0  0  0  0  0  0
  -25.0320  -31.0980   26.1590 C   0  0  0  0  0  1  0  0  0  0  0  0
  -26.8060  -29.8960   24.8850 C   0  0  0  0  0  1  0  0  0  0  0  0
  -27.3090  -32.1070   25.8770 C   0  0  0  0  0  1  0  0  0  0  0  0
  1  5  2  0
  1  3  1  0
  3  4  2  0
  4  2  1  0
  4  9  1  0
  5  6  1  0
  6  2  2  0
  6 12  1  0
  7 14  2  0
  8  3  1  0
  8 10  1  0
  9 23  1  0
  9  7  1  0
 10 13  1  6
 10 53  1  0
 10  7  1  0
 11  5  1  0
 15 23  1  0
 16 21  1  0
 17 18  1  0
 17 16  1  0
 19 18  1  0
 19 28  1  0
 19 20  1  0
 21 15  1  0
 21 20  1  0
 22 15  2  0
 23 24  1  0
 25 26  2  0
 26 45  1  0
 27 26  1  0
 27 30  1  0
 28 29  1  0
 28 25  1  0
 29 27  2  0
 30 31  1  0
 31 32  2  0
 33 36  1  0
 33 32  1  0
 34 33  2  0
 35 34  1  0
 35 30  2  0
 36 37  1  0
 37 42  2  0
 37 38  1  0
 38 39  2  0
 39 40  1  0
 40 44  1  0
 41 40  2  0
 42 41  1  0
 43 42  1  0
 45 46  1  0
 46 49  1  0
 46 48  1  0
 47 45  2  0
 50 25  1  0
 50 51  1  0
 52 50  1  0
 54 53  1  0
 55 66  2  0
 56 54  1  0
 56 61  1  0
 57 65  1  0
 57 67  1  0
 58 60  1  0
 59 65  1  0
 60 61  2  0
 60 59  1  0
 62 56  2  0
 63 62  1  0
 63 58  2  0
 64 58  1  0
 64 57  1  0
 65 55  1  0
 67 69  2  0
 68 67  1  0
 70 68  1  0
 71 80  2  0
 71 76  1  0
 72 68  1  0
 72 76  1  0
 73 72  1  0
 74 75  1  0
 74 73  1  0
 75 71  1  0
 76 77  2  0
 77 78  1  0
 79 78  2  0
 80 79  1  0
 81 55  1  0
 81 82  1  0
 81 91  1  0
 82 85  1  0
 83 87  1  0
 83 82  1  0
 84 83  2  0
 87 86  1  0
 89 87  1  0
 89 90  1  0
 89 88  1  0
 91 94  1  1
 91 92  1  0
 93 91  1  0
M  ISO  4  15 100  23 100  53 101  54 101
M  END
>  <TORSDO>  (89) 
F 17

>  <SCORE>  (89) 
-9.491

>  <name>  (89) 
90

>  <ligand_id>  (89) 
90

>  <original_smiles>  (89) 
[H]c1c([H])c([H])c2c(c1[H])C([H])([H])C([H])([H])C([H])([H])C2([H])N([H])C(=O)C1([H])N(C(=O)C([H])(N([H])C(=O)C([H])(N([H])C([H])([H])[H])C([H])([H])[H])C(C([H])([H])[H])(C([H])([H])[H])C([H])([H])[H])C([H])([H])c2c([H])c(OC([H])([H])C3(C([H])([H])[H])C(=O)C([H])(N([H])C(=O)N4C([H])([H])C([H])([H])C([H])([H])C([H])(n5nc(-c6c([H])c([H])c(Oc7c([H])c([H])c(F)c([H])c7F)c([H])c6[H])c(C(=O)N([H])[H])c5N([H])[H])C4([H])[H])c4c([H])c(C([H])([H])[H])c(C([H])([H])[H])c([H])c4C3([H])[H])c([H])c([H])c2C1([H])[H]

>  <smiles>  (89) 
[H]c1c([H])c([H])c2c(c1[H])C([H])([H])C([H])([H])C([H])([H])C2([H])N([H])C(=O)C1([H])N(C(=O)C([H])(N([H])C(=O)C([H])(N([H])C([H])([H])[H])C([H])([H])[H])C(C([H])([H])[H])(C([H])([H])[H])C([H])([H])[H])C([H])([H])c2c([H])c(OC([H])([H])C3(C([H])([H])[H])C(=O)C([H])(N([H])C(=O)N4C([H])([H])C([H])([H])C([H])([H])C([H])(n5nc(-c6c([H])c([H])c(Oc7c([H])c([H])c(F)c([H])c7F)c([H])c6[H])c(C(=O)N([H])[H])c5N([H])[H])C4([H])[H])c4c([H])c(C([H])([H])[H])c(C([H])([H])[H])c([H])c4C3([H])[H])c([H])c([H])c2C1([H])[H]

$$$$
91:0:0
     RDKit          3D

 92102  0  0  1  0  0  0  0  0999 V2000
  -25.7570  -22.9830   19.5180 C   0  0  0  0  0  3  0  0  0  0  0  0
  -25.8100  -23.5340   20.8200 C   0  0  0  0  0  3  0  0  0  0  0  0
  -26.9350  -22.9040   18.7370 C   0  0  0  0  0  3  0  0  0  0  0  0
  -26.9400  -24.2950   21.1900 C   0  0  0  0  0  3  0  0  0  0  0  0
  -28.1550  -23.1420   19.4240 C   0  0  0  0  0  0  0  0  0  0  0  0
  -27.9820  -24.4520   20.2420 C   0  0  0  0  0  0  0  0  0  0  0  0
  -29.2490  -18.8790   18.6680 C   0  0  0  0  0  2  0  0  0  0  0  0
  -28.4650  -20.3460   18.6560 C   0  0  0  0  0  2  0  0  0  0  0  0
  -29.6640  -19.1560   21.1280 C   0  0  0  0  0  2  0  0  0  0  0  0
  -30.3860  -21.5370   19.9830 C   0  0  0  0  0  2  0  0  0  0  0  0
  -29.4420  -20.7760   20.8890 C   0  0  0  0  0  3  0  0  0  0  0  0
  -29.3170  -18.0170   20.0160 C   0  0  0  0  0  3  0  0  0  0  0  0
  -28.9300  -21.5720   19.5980 C   0  0  1  0  0  0  0  0  0  0  0  0
  -30.4080  -15.2260   19.9210 C   0  0  0  0  0  0  0  0  0  0  0  0
  -30.3880  -12.8230   19.0240 C   0  0  0  0  0  2  0  0  0  0  0  0
  -29.3850  -12.6600   17.8530 C   0  0  0  0  0  2  0  0  0  0  0  0
  -27.9560  -12.3970   18.3620 C   0  0  0  0  0  2  0  0  0  0  0  0
  -27.5820  -13.3310   19.5380 C   0  0  0  0  0  3  0  0  0  0  0  0
  -28.6900  -13.4210   20.6080 C   0  0  0  0  0  2  0  0  0  0  0  0
  -29.8950  -13.9120   19.9260 N   0  0  0  0  0  0  0  0  0  0  0  0
  -31.5890  -15.3190   19.5710 O   0  0  0  0  0  0  0  0  0  0  0  0
  -29.5360  -16.3800   20.1250 N   0  0  0  0  0  0  0  0  0  0  0  0
  -28.6520  -15.9810   20.3970 H   0  0  0  0  0  0  0  0  0  0  0  0
  -25.2690  -13.8950   20.4520 C   0  0  0  0  0  0  0  0  0  0  0  0
  -24.2260  -13.1180   20.8670 C   0  0  0  0  0  0  0  0  0  0  0  0
  -24.6770  -11.7650   20.7710 C   0  0  0  0  0  0  0  0  0  0  0  0
  -26.2830  -13.0180   20.1150 N   0  0  0  0  0  0  0  0  0  0  0  0
  -25.9430  -11.7280   20.3750 N   0  0  0  0  0  0  0  0  0  0  0  0
  -23.9550  -10.5060   20.9730 C   0  0  0  0  0  0  0  0  0  0  0  0
  -24.4160   -9.5230   21.8810 C   0  0  0  0  0  3  0  0  0  0  0  0
  -23.6900   -8.3290   22.0690 C   0  0  0  0  0  3  0  0  0  0  0  0
  -22.4940   -8.1020   21.3460 C   0  0  0  0  0  0  0  0  0  0  0  0
  -22.0550   -9.0710   20.4260 C   0  0  0  0  0  3  0  0  0  0  0  0
  -22.7800  -10.2570   20.2350 C   0  0  0  0  0  3  0  0  0  0  0  0
  -21.7360   -6.9620   21.4430 O   0  0  0  0  0  0  0  0  0  0  0  0
  -21.6830   -6.2300   22.6070 C   0  0  0  0  0  0  0  0  0  0  0  0
  -21.2470   -6.8020   23.8200 C   0  0  0  0  0  3  0  0  0  0  0  0
  -21.1330   -5.9990   24.9750 C   0  0  0  0  0  3  0  0  0  0  0  0
  -21.4550   -4.6310   24.9150 C   0  0  0  0  0  0  0  0  0  0  0  0
  -21.8860   -4.0600   23.7070 C   0  0  0  0  0  3  0  0  0  0  0  0
  -21.9980   -4.8580   22.5530 C   0  0  0  0  0  0  0  0  0  0  0  0
  -22.3940   -4.2980   21.3850 F   0  0  0  0  0  0  0  0  0  0  0  0
  -21.3430   -3.8590   26.0230 F   0  0  0  0  0  0  0  0  0  0  0  0
  -22.8570  -13.5980   21.2420 C   0  0  0  0  0  0  0  0  0  0  0  0
  -22.1820  -12.8880   22.1380 N   0  0  0  0  0  0  0  0  0  0  0  0
  -22.3940  -14.6390   20.7720 O   0  0  0  0  0  0  0  0  0  0  0  0
  -22.5730  -12.0450   22.5350 H   0  0  0  0  0  0  0  0  0  0  0  0
  -21.2620  -13.1890   22.4320 H   0  0  0  0  0  0  0  0  0  0  0  0
  -25.4260  -15.2720   20.2960 N   0  0  0  0  0  0  0  0  0  0  0  0
  -24.6560  -15.9170   20.4490 H   0  0  0  0  0  0  0  0  0  0  0  0
  -26.2100  -15.7010   19.8220 H   0  0  0  0  0  0  0  0  0  0  0  0
  -28.2240  -25.9350   19.9760 O   0  0  0  0  0  0  0  0  0  0  0  0
  -24.6210  -31.8140   23.1200 C   0  0  0  0  0  0  0  0  0  0  0  0
  -27.2200  -27.0250   20.0130 C   0  0  0  0  0  0  0  0  0  0  0  0
  -23.4380  -30.4250   21.4680 C   0  0  0  0  0  3  0  0  0  0  0  0
  -24.9030  -28.8560   20.0220 C   0  0  0  0  0  0  0  0  0  0  0  0
  -26.0010  -30.6690   21.3140 C   0  0  0  0  0  2  0  0  0  0  0  0
  -26.0840  -29.2650   20.6520 C   0  0  0  0  0  0  0  0  0  0  0  0
  -27.2410  -28.3670   20.6310 C   0  0  0  0  0  3  0  0  0  0  0  0
  -26.0200  -26.7770   19.3170 C   0  0  0  0  0  3  0  0  0  0  0  0
  -24.8980  -27.6380   19.3270 C   0  0  0  0  0  3  0  0  0  0  0  0
  -23.6660  -29.7520   20.0840 C   0  0  0  0  0  2  0  0  0  0  0  0
  -24.7120  -30.9960   22.0210 N   0  0  0  0  0  0  0  0  0  0  0  0
  -23.5300  -32.0860   23.6450 O   0  0  0  0  0  0  0  0  0  0  0  0
  -22.7550  -29.4120   22.4160 C   0  0  0  0  0  0  0  0  0  0  0  0
  -21.4240  -29.2560   22.2980 N   0  0  0  0  0  0  0  0  0  0  0  0
  -23.4310  -28.7650   23.2220 O   0  0  0  0  0  0  0  0  0  0  0  0
  -20.9430  -29.8210   21.6130 H   0  0  0  0  0  0  0  0  0  0  0  0
  -18.0270  -28.0940   22.8080 C   0  0  0  0  0  0  0  0  0  0  0  0
  -20.5940  -28.3130   23.0490 C   0  0  0  0  0  3  0  0  0  0  0  0
  -20.6700  -26.8970   22.4310 C   0  0  0  0  0  2  0  0  0  0  0  0
  -19.5500  -26.6220   21.4230 C   0  0  0  0  0  2  0  0  0  0  0  0
  -18.1800  -26.7610   22.0910 C   0  0  0  0  0  2  0  0  0  0  0  0
  -19.1630  -28.8260   23.2430 C   0  0  0  0  0  0  0  0  0  0  0  0
  -18.9640  -30.0720   23.8780 C   0  0  0  0  0  3  0  0  0  0  0  0
  -17.6680  -30.5760   24.0930 C   0  0  0  0  0  3  0  0  0  0  0  0
  -16.5470  -29.8370   23.6830 C   0  0  0  0  0  3  0  0  0  0  0  0
  -16.7310  -28.5990   23.0370 C   0  0  0  0  0  3  0  0  0  0  0  0
  -25.8860  -32.4580   23.7650 C   0  0  0  0  0  3  0  0  0  0  0  0
  -25.5580  -33.8490   24.1310 N   0  0  0  0  0  0  0  0  0  0  0  0
  -25.8720  -34.9230   23.3980 C   0  0  0  0  0  0  0  0  0  0  0  0
  -26.5320  -34.8510   22.3600 O   0  0  0  0  0  0  0  0  0  0  0  0
  -24.9670  -33.9860   24.9390 H   0  0  0  0  0  0  0  0  0  0  0  0
  -24.1040  -36.6940   23.1270 C   0  0  0  0  0  1  0  0  0  0  0  0
  -25.3750  -36.2960   23.8960 C   0  0  0  0  0  3  0  0  0  0  0  0
  -27.5190  -37.1960   24.6860 C   0  0  0  0  0  1  0  0  0  0  0  0
  -26.3880  -37.3670   23.7760 N   0  0  0  0  0  0  0  0  0  0  0  0
  -25.9710  -38.2780   23.9570 H   0  0  0  0  0  0  0  0  0  0  0  0
  -26.4020  -31.6720   25.0370 C   0  0  1  0  0  0  0  0  0  0  0  0
  -25.3100  -31.4020   26.1000 C   0  0  0  0  0  1  0  0  0  0  0  0
  -26.9920  -30.3040   24.6360 C   0  0  0  0  0  1  0  0  0  0  0  0
  -27.5550  -32.4510   25.7210 C   0  0  0  0  0  1  0  0  0  0  0  0
  1  2  1  0
  2  4  2  0
  3  5  1  0
  3  1  2  0
  5  6  2  3
  6  4  1  0
  7 12  1  0
  8  7  1  0
 13  8  1  6
 11 10  1  0
 11  9  1  0
 12 22  1  0
 12  9  1  0
 13  5  1  0
 13 10  1  0
 13 11  1  0
 14 20  1  0
 14 22  1  0
 15 20  1  0
 16 17  1  0
 16 15  1  0
 18 17  1  0
 18 27  1  0
 18 19  1  0
 20 19  1  0
 21 14  2  0
 22 23  1  0
 24 25  2  0
 25 44  1  0
 26 25  1  0
 26 29  1  0
 27 28  1  0
 27 24  1  0
 28 26  2  0
 29 30  1  0
 30 31  2  0
 32 35  1  0
 32 31  1  0
 33 32  2  0
 34 33  1  0
 34 29  2  0
 35 36  1  0
 36 37  1  0
 37 38  2  0
 39 38  1  0
 39 43  1  0
 40 39  2  0
 41 36  2  0
 41 40  1  0
 42 41  1  0
 44 45  1  0
 45 48  1  0
 45 47  1  0
 46 44  2  0
 49 50  1  0
 49 24  1  0
 51 49  1  0
 52 54  1  0
 52  6  1  0
 53 64  2  0
 54 59  1  0
 55 63  1  0
 55 65  1  0
 56 62  1  0
 56 58  1  0
 57 63  1  0
 58 57  1  0
 59 58  2  0
 60 61  1  0
 60 54  2  0
 61 56  2  0
 62 55  1  0
 63 53  1  0
 65 67  2  0
 66 65  1  0
 68 66  1  0
 69 78  2  0
 69 74  1  0
 70 66  1  0
 70 74  1  0
 71 70  1  0
 72 73  1  0
 72 71  1  0
 73 69  1  0
 74 75  2  0
 75 76  1  0
 77 76  2  0
 78 77  1  0
 79 53  1  0
 79 80  1  0
 79 89  1  0
 80 83  1  0
 81 85  1  0
 81 80  1  0
 82 81  2  0
 85 84  1  0
 87 85  1  0
 87 88  1  0
 87 86  1  0
 89 92  1  1
 89 90  1  0
 91 89  1  0
M  ISO  4   6 101  14 100  22 100  52 101
M  END
>  <TORSDO>  (90) 
F 17

>  <SCORE>  (90) 
-15.580

>  <name>  (90) 
91

>  <ligand_id>  (90) 
91

>  <original_smiles>  (90) 
[H]c1c([H])c([H])c(C23C([H])([H])C([H])([H])C([H])(N([H])C(=O)N4C([H])([H])C([H])([H])C([H])([H])C([H])(n5nc(-c6c([H])c([H])c(Oc7c([H])c([H])c(F)c([H])c7F)c([H])c6[H])c(C(=O)N([H])[H])c5N([H])[H])C4([H])[H])C([H])([H])C2([H])C3([H])[H])c(Oc2c([H])c([H])c3c(c2[H])C([H])([H])N(C(=O)C([H])(N([H])C(=O)C([H])(N([H])C([H])([H])[H])C([H])([H])[H])C(C([H])([H])[H])(C([H])([H])[H])C([H])([H])[H])C([H])(C(=O)N([H])C2([H])c4c([H])c([H])c([H])c([H])c4C([H])([H])C([H])([H])C2([H])[H])C3([H])[H])c1[H]

>  <smiles>  (90) 
[H]c1c([H])c([H])c(C23C([H])([H])C([H])([H])C([H])(N([H])C(=O)N4C([H])([H])C([H])([H])C([H])([H])C([H])(n5nc(-c6c([H])c([H])c(Oc7c([H])c([H])c(F)c([H])c7F)c([H])c6[H])c(C(=O)N([H])[H])c5N([H])[H])C4([H])[H])C([H])([H])C2([H])C3([H])[H])c(Oc2c([H])c([H])c3c(c2[H])C([H])([H])N(C(=O)C([H])(N([H])C(=O)C([H])(N([H])C([H])([H])[H])C([H])([H])[H])C(C([H])([H])[H])(C([H])([H])[H])C([H])([H])[H])C([H])(C(=O)N([H])C2([H])c4c([H])c([H])c([H])c([H])c4C([H])([H])C([H])([H])C2([H])[H])C3([H])[H])c1[H]

$$$$
92:0:0
     RDKit          3D

 93 89  0  0  1  0  0  0  0  0999 V2000
  -25.2980  -27.1570   21.8240 C   0  0  1  0  0  0  0  0  0  0  0  0
  -23.8110  -27.5940   21.9330 C   0  0  0  0  0  3  0  0  0  0  0  0
  -26.2130  -25.6440   22.4940 C   0  0  0  0  0  1  0  0  0  0  0  0
  -23.8450  -28.2510   23.0440 C   0  0  0  0  0  3  0  0  0  0  0  0
  -25.4900  -27.6150   20.2010 C   0  0  0  0  0  3  0  0  0  0  0  0
  -27.4950  -24.0160   20.9230 C   0  0  0  0  0  2  0  0  0  0  0  0
  -28.1580  -23.3240   18.4800 C   0  0  0  0  0 15  0  0  0  0  0  0
  -27.4570  -25.3320   19.0130 C   0  0  0  0  0  1  0  0  0  0  0  0
  -22.6380  -27.6410   20.9700 C   0  0  0  0  0  1  0  0  0  0  0  0
  -23.1280  -29.3760   23.7040 C   0  0  0  0  0  1  0  0  0  0  0  0
  -29.0760  -22.2600   16.6960 N   0  0  0  0  0 15  0  0  0  0  0  0
  -25.0230  -28.6460   19.6540 O   0  0  0  0  0  0  0  0  0  0  0  0
  -28.0070  -23.1660   21.6580 O   0  0  0  0  0  0  0  0  0  0  0  0
  -25.4600  -28.0450   22.6600 S   0  0  0  0  0  0  0  0  0  0  0  0
  -30.1470  -20.8460   14.8210 C   0  0  0  0  0  1  0  0  0  0  0  0
  -31.8240  -19.5210   12.0550 C   0  0  0  0  0  2  0  0  0  0  0  0
  -32.1980  -19.7280   10.4000 C   0  0  0  0  0  2  0  0  0  0  0  0
  -31.1850  -19.2210    9.3760 C   0  0  0  0  0  2  0  0  0  0  0  0
  -29.9030  -19.4010   10.1760 C   0  0  0  0  0  3  0  0  0  0  0  0
  -29.8290  -19.0490   11.8370 C   0  0  0  0  0  2  0  0  0  0  0  0
  -30.4370  -20.0380   13.0830 N   0  0  0  0  0  2  0  0  0  0  0  0
  -31.3660  -20.2600   14.7680 O   0  0  0  0  0  1  0  0  0  0  0  0
  -27.8210  -20.1450    9.1030 C   0  0  0  0  0  0  0  0  0  0  0  0
  -26.8600  -19.6520    8.2870 C   0  0  0  0  0  0  0  0  0  0  0  0
  -27.2120  -18.2960    7.9990 C   0  0  0  0  0  0  0  0  0  0  0  0
  -28.6870  -19.1280    9.3770 N   0  0  0  0  0  0  0  0  0  0  0  0
  -28.3270  -17.9700    8.7000 N   0  0  0  0  0  0  0  0  0  0  0  0
  -26.5420  -17.3660    7.0480 C   0  0  0  0  0  0  0  0  0  0  0  0
  -25.5210  -16.4710    7.4450 C   0  0  0  0  0  3  0  0  0  0  0  0
  -24.8540  -15.6580    6.4970 C   0  0  0  0  0  3  0  0  0  0  0  0
  -25.1930  -15.7300    5.1230 C   0  0  0  0  0  0  0  0  0  0  0  0
  -26.2160  -16.6110    4.7280 C   0  0  0  0  0  3  0  0  0  0  0  0
  -26.8820  -17.4140    5.6760 C   0  0  0  0  0  3  0  0  0  0  0  0
  -24.6250  -14.9540    4.1370 O   0  0  0  0  0  0  0  0  0  0  0  0
  -23.2810  -14.6710    4.1160 C   0  0  0  0  0  0  0  0  0  0  0  0
  -22.3060  -15.6900    4.1850 C   0  0  0  0  0  3  0  0  0  0  0  0
  -20.9370  -15.3650    4.0930 C   0  0  0  0  0  3  0  0  0  0  0  0
  -20.5400  -14.0250    3.9210 C   0  0  0  0  0  0  0  0  0  0  0  0
  -21.5090  -13.0100    3.8420 C   0  0  0  0  0  3  0  0  0  0  0  0
  -22.8740  -13.3320    3.9350 C   0  0  0  0  0  0  0  0  0  0  0  0
  -23.8030  -12.3500    3.8350 F   0  0  0  0  0  0  0  0  0  0  0  0
  -19.2260  -13.7130    3.8280 F   0  0  0  0  0  0  0  0  0  0  0  0
  -25.7400  -20.4770    7.7410 C   0  0  0  0  0  0  0  0  0  0  0  0
  -24.5030  -20.1250    8.0560 N   0  0  0  0  0  0  0  0  0  0  0  0
  -25.9710  -21.4990    7.0910 O   0  0  0  0  0  0  0  0  0  0  0  0
  -24.3210  -19.3040    8.6140 H   0  0  0  0  0  0  0  0  0  0  0  0
  -23.7240  -20.6800    7.7300 H   0  0  0  0  0  0  0  0  0  0  0  0
  -28.0550  -21.4160    9.6170 N   0  0  0  0  0  0  0  0  0  0  0  0
  -27.4630  -22.2070    9.3860 H   0  0  0  0  0  0  0  0  0  0  0  0
  -28.8400  -21.6590   10.2090 H   0  0  0  0  0  0  0  0  0  0  0  0
  -28.1920  -25.5460   17.5280 C   0  0  0  0  0  2  0  0  0  0  0  0
  -28.5990  -26.9330   16.9850 C   0  0  0  0  0  2  0  0  0  0  0  0
  -29.8230  -27.2570   17.5640 O   0  0  0  0  0  0  0  0  0  0  0  0
  -32.1270  -27.1120    9.6790 C   0  0  0  0  0  0  0  0  0  0  0  0
  -30.7480  -26.7150   16.8550 C   0  0  0  0  0  3  0  0  0  0  0  0
  -32.9550  -24.8870   11.1740 C   0  0  0  0  0  1  0  0  0  0  0  0
  -31.7050  -24.1650   14.7900 C   0  0  0  0  0  1  0  0  0  0  0  0
  -30.4260  -26.9640   12.2850 C   0  0  0  0  0 15  0  0  0  0  0  0
  -30.3690  -26.1110   14.3250 C   0  0  0  0  0  1  0  0  0  0  0  0
  -30.1820  -27.0990   15.4220 C   0  0  0  0  0  2  0  0  0  0  0  0
  -31.7000  -25.3130   17.3340 C   0  0  0  0  0  3  0  0  0  0  0  0
  -32.1420  -24.0750   16.2930 C   0  0  0  0  0  3  0  0  0  0  0  0
  -33.0720  -23.6330   13.0680 C   0  0  0  0  0 15  0  0  0  0  0  0
  -31.6800  -26.3150   10.8170 N   0  0  0  0  0  1  0  0  0  0  0  0
  -32.9140  -26.6750    8.8120 O   0  0  0  0  0  0  0  0  0  0  0  0
  -32.5730  -24.0120   10.1240 C   0  0  0  0  0  0  0  0  0  0  0  0
  -33.4530  -23.8630    9.1630 N   0  0  0  0  0  0  0  0  0  0  0  0
  -31.5460  -23.3690   10.2790 O   0  0  0  0  0  0  0  0  0  0  0  0
  -34.2800  -24.4420    9.1230 H   0  0  0  0  0  0  0  0  0  0  0  0
  -34.2600  -22.3290    6.1180 C   0  0  0  0  0  0  0  0  0  0  0  0
  -33.4610  -22.6020    8.5000 C   0  0  0  0  0  3  0  0  0  0  0  0
  -34.7100  -21.7970    8.9200 C   0  0  0  0  0  2  0  0  0  0  0  0
  -35.9150  -22.1040    8.0380 C   0  0  0  0  0  2  0  0  0  0  0  0
  -35.5680  -21.7110    6.5980 C   0  0  0  0  0  2  0  0  0  0  0  0
  -33.2920  -22.8040    7.0260 C   0  0  0  0  0  0  0  0  0  0  0  0
  -32.1270  -23.4500    6.5630 C   0  0  0  0  0  3  0  0  0  0  0  0
  -31.9020  -23.5860    5.1840 C   0  0  0  0  0  3  0  0  0  0  0  0
  -32.8360  -23.0640    4.2730 C   0  0  0  0  0  3  0  0  0  0  0  0
  -34.0100  -22.4400    4.7380 C   0  0  0  0  0  3  0  0  0  0  0  0
  -31.6330  -28.5840    9.3030 C   0  0  0  0  0  3  0  0  0  0  0  0
  -32.6110  -29.4140    8.4820 N   0  0  0  0  0  0  0  0  0  0  0  0
  -33.2750  -30.5540    8.8030 C   0  0  0  0  0  0  0  0  0  0  0  0
  -33.2470  -31.0240    9.9400 O   0  0  0  0  0  0  0  0  0  0  0  0
  -32.7730  -29.0560    7.5530 H   0  0  0  0  0  0  0  0  0  0  0  0
  -35.5820  -31.4230    8.1460 C   0  0  0  0  0  1  0  0  0  0  0  0
  -34.1110  -31.3000    7.7100 C   0  0  0  0  0  3  0  0  0  0  0  0
  -32.4360  -32.6740    6.5190 C   0  0  0  0  0  1  0  0  0  0  0  0
  -33.6190  -32.6630    7.3710 N   0  0  0  0  0  0  0  0  0  0  0  0
  -34.3470  -33.2010    6.9070 H   0  0  0  0  0  0  0  0  0  0  0  0
  -30.3110  -28.4960    8.4570 C   0  0  1  0  0  0  0  0  0  0  0  0
  -30.5840  -28.4930    6.9330 C   0  0  0  0  0  1  0  0  0  0  0  0
  -29.5150  -27.2310    8.7420 C   0  0  0  0  0  1  0  0  0  0  0  0
  -29.3370  -29.6400    8.7990 C   0  0  0  0  0  1  0  0  0  0  0  0
  1  2  1  0
  1  3  1  1
  1 14  1  0
  2  9  1  0
  2  4  1  0
  4 10  1  0
  5  1  1  0
  6 13  2  0
 12  5  2  0
 14  4  1  0
 16 21  1  0
 17 16  1  0
 18 17  1  0
 19 18  1  0
 19 20  1  0
 20 21  1  0
 22 15  1  0
 23 26  1  0
 23 48  1  0
 24 23  2  0
 25 24  1  0
 25 27  2  0
 26 19  1  0
 27 26  1  0
 28 29  1  0
 28 25  1  0
 30 29  2  0
 31 30  1  0
 32 31  2  0
 32 33  1  0
 33 28  2  0
 34 31  1  0
 35 34  1  0
 35 36  1  0
 37 36  2  0
 38 37  1  0
 39 38  2  0
 39 40  1  0
 40 35  2  0
 41 40  1  0
 42 38  1  0
 43 44  1  0
 43 24  1  0
 44 46  1  0
 45 43  2  0
 47 44  1  0
 48 50  1  0
 49 48  1  0
 51  8  1  0
 52 51  1  0
 52 53  1  0
 54 64  1  0
 55 60  1  0
 55 61  1  0
 55 53  1  0
 57 62  1  0
 59 60  1  0
 62 61  2  0
 65 54  2  0
 66 68  2  0
 66 56  1  0
 67 66  1  0
 69 67  1  0
 70 74  1  0
 70 75  1  0
 71 72  1  0
 71 67  1  0
 73 72  1  0
 74 73  1  0
 75 71  1  0
 76 75  2  0
 77 76  1  0
 78 79  1  0
 78 77  2  0
 79 70  2  0
 80 54  1  0
 81 82  1  0
 81 80  1  0
 82 83  2  0
 84 81  1  0
 86 85  1  0
 86 82  1  0
 87 88  1  0
 88 86  1  0
 89 88  1  0
 90 92  1  1
 90 93  1  0
 90 80  1  0
 91 90  1  0
M  ISO  4  11 100  15 100  52 101  53 101
M  END
>  <TORSDO>  (91) 
F 18

>  <SCORE>  (91) 
-4.512

>  <name>  (91) 
92

>  <ligand_id>  (91) 
92

>  <original_smiles>  (91) 
[H]c1c([H])c([H])c2c(c1[H])C([H])([H])C([H])([H])C([H])([H])C2([H])N([H])C(=O)C1([H])N(C(=O)C([H])(N([H])C(=O)C([H])(N([H])C([H])([H])[H])C([H])([H])[H])C(C([H])([H])[H])(C([H])([H])[H])C([H])([H])[H])C([H])([H])c2c([H])c(OC([H])([H])C([H])([H])C3([H])C(=O)c4c(sc(C([H])([H])[H])c4C([H])([H])[H])C(=O)C3=NC(=O)N3C([H])([H])C([H])([H])C([H])([H])C([H])(n4nc(-c5c([H])c([H])c(Oc6c([H])c([H])c(F)c([H])c6F)c([H])c5[H])c(C(=O)N([H])[H])c4N([H])[H])C3([H])[H])c([H])c([H])c2C1([H])[H]

>  <smiles>  (91) 
[H]c1c([H])c([H])c2c(c1[H])C([H])([H])C([H])([H])C([H])([H])C2([H])N([H])C(=O)C1([H])N(C(=O)C([H])(N([H])C(=O)C([H])(N([H])C([H])([H])[H])C([H])([H])[H])C(C([H])([H])[H])(C([H])([H])[H])C([H])([H])[H])C([H])([H])c2c([H])c(OC([H])([H])C([H])([H])C3([H])C(=O)c4c(sc(C([H])([H])[H])c4C([H])([H])[H])C(=O)C3=NC(=O)N3C([H])([H])C([H])([H])C([H])([H])C([H])(n4nc(-c5c([H])c([H])c(Oc6c([H])c([H])c(F)c([H])c6F)c([H])c5[H])c(C(=O)N([H])[H])c4N([H])[H])C3([H])[H])c([H])c([H])c2C1([H])[H]

$$$$
93:0:0
     RDKit          3D

 90 98  0  0  1  0  0  0  0  0999 V2000
  -29.4950  -20.0900   19.2280 C   0  0  0  0  0  3  0  0  0  0  0  0
  -29.4790  -20.9810   20.2690 C   0  0  0  0  0  0  0  0  0  0  0  0
  -29.9630  -18.6250   19.2670 C   0  0  0  0  0  0  0  0  0  0  0  0
  -29.9960  -20.3880   21.5920 C   0  0  0  0  0  2  0  0  0  0  0  0
  -29.9110  -18.8030   21.7100 C   0  0  0  0  0  2  0  0  0  0  0  0
  -30.5280  -17.9170   20.5570 C   0  0  2  0  0  0  0  0  0  0  0  0
  -32.0620  -18.0810   20.6100 C   0  0  0  0  0  1  0  0  0  0  0  0
  -29.9040  -17.9380   18.2450 O   0  0  0  0  0  0  0  0  0  0  0  0
  -29.0890  -23.6360   20.0860 C   0  0  0  0  0  3  0  0  0  0  0  0
  -28.6840  -22.2960   20.2030 C   0  0  0  0  0  0  0  0  0  0  0  0
  -27.1830  -22.0660   20.2740 C   0  0  0  0  0  1  0  0  0  0  0  0
  -28.1060  -24.9170   19.9510 C   0  0  0  0  0  2  0  0  0  0  0  0
  -28.4480  -26.3830   20.2110 O   0  0  0  0  0  0  0  0  0  0  0  0
  -24.7020  -31.8840   23.2630 C   0  0  0  0  0  0  0  0  0  0  0  0
  -27.3770  -27.3340   20.1430 C   0  0  0  0  0  0  0  0  0  0  0  0
  -23.5370  -30.5220   21.5720 C   0  0  0  0  0  3  0  0  0  0  0  0
  -25.0190  -29.0170   20.1270 C   0  0  0  0  0  0  0  0  0  0  0  0
  -26.0860  -30.8360   21.4430 C   0  0  0  0  0  2  0  0  0  0  0  0
  -26.1840  -29.4680   20.7600 C   0  0  0  0  0  0  0  0  0  0  0  0
  -27.3660  -28.6440   20.7550 C   0  0  0  0  0  3  0  0  0  0  0  0
  -26.1830  -26.9790   19.4690 C   0  0  0  0  0  3  0  0  0  0  0  0
  -25.0290  -27.7820   19.4670 C   0  0  0  0  0  3  0  0  0  0  0  0
  -23.7820  -29.8930   20.1780 C   0  0  0  0  0  2  0  0  0  0  0  0
  -24.7940  -31.1000   22.1490 N   0  0  0  0  0  0  0  0  0  0  0  0
  -23.6060  -32.1390   23.7870 O   0  0  0  0  0  0  0  0  0  0  0  0
  -22.8610  -29.4770   22.4940 C   0  0  0  0  0  0  0  0  0  0  0  0
  -21.5380  -29.2880   22.3400 N   0  0  0  0  0  0  0  0  0  0  0  0
  -23.5290  -28.8390   23.3120 O   0  0  0  0  0  0  0  0  0  0  0  0
  -21.0550  -29.8570   21.6590 H   0  0  0  0  0  0  0  0  0  0  0  0
  -18.1650  -28.0390   22.7560 C   0  0  0  0  0  0  0  0  0  0  0  0
  -20.7170  -28.3230   23.0740 C   0  0  0  0  0  3  0  0  0  0  0  0
  -20.8440  -26.9050   22.4670 C   0  0  0  0  0  2  0  0  0  0  0  0
  -19.7620  -26.5940   21.4260 C   0  0  0  0  0  2  0  0  0  0  0  0
  -18.3680  -26.7090   22.0510 C   0  0  0  0  0  2  0  0  0  0  0  0
  -19.2670  -28.8040   23.2230 C   0  0  0  0  0  0  0  0  0  0  0  0
  -19.0230  -30.0490   23.8430 C   0  0  0  0  0  3  0  0  0  0  0  0
  -17.7100  -30.5290   24.0020 C   0  0  0  0  0  3  0  0  0  0  0  0
  -16.6220  -29.7620   23.5500 C   0  0  0  0  0  3  0  0  0  0  0  0
  -16.8500  -28.5190   22.9330 C   0  0  0  0  0  3  0  0  0  0  0  0
  -25.9650  -32.5130   23.9240 C   0  0  0  0  0  3  0  0  0  0  0  0
  -26.4420  -31.7380   25.2140 C   0  0  1  0  0  0  0  0  0  0  0  0
  -25.3180  -31.5010   26.2490 C   0  0  0  0  0  1  0  0  0  0  0  0
  -27.0340  -30.3600   24.8400 C   0  0  0  0  0  1  0  0  0  0  0  0
  -27.5720  -32.5300   25.9150 C   0  0  0  0  0  1  0  0  0  0  0  0
  -25.6480  -33.9110   24.2530 N   0  0  0  0  0  0  0  0  0  0  0  0
  -25.9530  -34.9650   23.4830 C   0  0  0  0  0  0  0  0  0  0  0  0
  -26.6010  -34.8620   22.4370 O   0  0  0  0  0  0  0  0  0  0  0  0
  -25.0760  -34.0650   25.0710 H   0  0  0  0  0  0  0  0  0  0  0  0
  -24.1800  -36.7260   23.1850 C   0  0  0  0  0  1  0  0  0  0  0  0
  -25.4630  -36.3510   23.9460 C   0  0  0  0  0  3  0  0  0  0  0  0
  -27.6110  -37.2890   24.6770 C   0  0  0  0  0  1  0  0  0  0  0  0
  -26.4700  -37.4210   23.7750 N   0  0  0  0  0  0  0  0  0  0  0  0
  -26.0510  -38.3350   23.9210 H   0  0  0  0  0  0  0  0  0  0  0  0
  -30.1300  -16.3130   20.7400 C   0  0  0  0  0  2  0  0  0  0  0  0
  -30.9550  -14.9830   20.2840 C   0  0  0  0  0  0  0  0  0  0  0  0
  -30.7400  -12.7150   19.2030 C   0  0  0  0  0  2  0  0  0  0  0  0
  -29.7780  -12.8280   17.9940 C   0  0  0  0  0  2  0  0  0  0  0  0
  -28.3120  -12.6630   18.4400 C   0  0  0  0  0  2  0  0  0  0  0  0
  -27.9720  -13.5300   19.6810 C   0  0  0  0  0  3  0  0  0  0  0  0
  -29.0440  -13.3860   20.7810 C   0  0  0  0  0  2  0  0  0  0  0  0
  -30.3430  -13.7440   20.1960 N   0  0  0  0  0  0  0  0  0  0  0  0
  -32.1200  -15.0840   19.8870 O   0  0  0  0  0  0  0  0  0  0  0  0
  -25.6130  -14.1650   20.4620 C   0  0  0  0  0  0  0  0  0  0  0  0
  -24.5340  -13.4100   20.8340 C   0  0  0  0  0  0  0  0  0  0  0  0
  -24.9640  -12.0470   20.7680 C   0  0  0  0  0  0  0  0  0  0  0  0
  -26.6300  -13.2640   20.1880 N   0  0  0  0  0  0  0  0  0  0  0  0
  -26.2470  -11.9850   20.4350 N   0  0  0  0  0  0  0  0  0  0  0  0
  -24.2100  -10.8000   20.9470 C   0  0  0  0  0  0  0  0  0  0  0  0
  -24.6060   -9.8260   21.8890 C   0  0  0  0  0  3  0  0  0  0  0  0
  -23.8540   -8.6440   22.0560 C   0  0  0  0  0  3  0  0  0  0  0  0
  -22.6910   -8.4270   21.2780 C   0  0  0  0  0  0  0  0  0  0  0  0
  -22.3140   -9.3900   20.3260 C   0  0  0  0  0  3  0  0  0  0  0  0
  -23.0670  -10.5640   20.1580 C   0  0  0  0  0  3  0  0  0  0  0  0
  -21.9130   -7.2970   21.3530 O   0  0  0  0  0  0  0  0  0  0  0  0
  -21.7760   -6.5930   22.5220 C   0  0  0  0  0  0  0  0  0  0  0  0
  -21.2430   -7.1830   23.6890 C   0  0  0  0  0  3  0  0  0  0  0  0
  -21.0560   -6.4040   24.8480 C   0  0  0  0  0  3  0  0  0  0  0  0
  -21.3910   -5.0370   24.8410 C   0  0  0  0  0  0  0  0  0  0  0  0
  -21.9170   -4.4470   23.6780 C   0  0  0  0  0  3  0  0  0  0  0  0
  -22.1060   -5.2230   22.5210 C   0  0  0  0  0  0  0  0  0  0  0  0
  -22.5940   -4.6450   21.3960 F   0  0  0  0  0  0  0  0  0  0  0  0
  -21.2040   -4.2860   25.9510 F   0  0  0  0  0  0  0  0  0  0  0  0
  -23.1540  -13.9160   21.1370 C   0  0  0  0  0  0  0  0  0  0  0  0
  -22.4290  -13.2310   22.0150 N   0  0  0  0  0  0  0  0  0  0  0  0
  -22.7280  -14.9520   20.6300 O   0  0  0  0  0  0  0  0  0  0  0  0
  -22.7870  -12.3910   22.4450 H   0  0  0  0  0  0  0  0  0  0  0  0
  -21.5040  -13.5520   22.2620 H   0  0  0  0  0  0  0  0  0  0  0  0
  -25.8100  -15.5340   20.3110 N   0  0  0  0  0  0  0  0  0  0  0  0
  -25.0630  -16.2050   20.4560 H   0  0  0  0  0  0  0  0  0  0  0  0
  -26.6640  -15.9580   19.9760 H   0  0  0  0  0  0  0  0  0  0  0  0
  1  3  1  0
  1  2  2  0
  2  4  1  0
  3  6  1  0
  4  5  1  0
  6  7  1  6
  6 54  1  0
  6  5  1  0
  8  3  2  0
  9 10  2  0
 10  2  1  0
 10 11  1  0
 12  9  1  0
 12 13  1  0
 14 25  2  0
 15 13  1  0
 15 20  1  0
 16 24  1  0
 16 26  1  0
 17 23  1  0
 17 19  1  0
 18 24  1  0
 19 18  1  0
 20 19  2  0
 21 15  2  0
 22 21  1  0
 22 17  2  0
 23 16  1  0
 24 14  1  0
 26 28  2  0
 27 26  1  0
 29 27  1  0
 30 39  2  0
 30 35  1  0
 31 27  1  0
 31 35  1  0
 32 31  1  0
 33 34  1  0
 33 32  1  0
 34 30  1  0
 35 36  2  0
 36 37  1  0
 38 37  2  0
 39 38  1  0
 40 14  1  0
 40 45  1  0
 40 41  1  0
 41 44  1  1
 41 42  1  0
 43 41  1  0
 45 48  1  0
 46 50  1  0
 46 45  1  0
 47 46  2  0
 50 49  1  0
 52 53  1  0
 52 50  1  0
 52 51  1  0
 55 54  1  0
 56 61  1  0
 57 58  1  0
 57 56  1  0
 59 58  1  0
 59 66  1  0
 59 60  1  0
 61 55  1  0
 61 60  1  0
 62 55  2  0
 63 64  2  0
 64 83  1  0
 65 64  1  0
 65 68  1  0
 66 67  1  0
 66 63  1  0
 67 65  2  0
 68 69  1  0
 69 70  2  0
 71 74  1  0
 71 70  1  0
 72 71  2  0
 73 72  1  0
 73 68  2  0
 74 75  1  0
 75 76  1  0
 76 77  2  0
 78 77  1  0
 78 82  1  0
 79 78  2  0
 80 75  2  0
 80 79  1  0
 81 80  1  0
 83 84  1  0
 84 87  1  0
 84 86  1  0
 85 83  2  0
 88 89  1  0
 88 63  1  0
 90 88  1  0
M  ISO  4  12 101  13 101  54 100  55 100
M  END
>  <TORSDO>  (92) 
F 19

>  <SCORE>  (92) 
-13.555

>  <name>  (92) 
93

>  <ligand_id>  (92) 
93

>  <original_smiles>  (92) 
[H]C1=C(C(=C([H])C([H])([H])Oc2c([H])c([H])c3c(c2[H])C([H])([H])N(C(=O)C([H])(N([H])C(=O)C([H])(N([H])C([H])([H])[H])C([H])([H])[H])C(C([H])([H])[H])(C([H])([H])[H])C([H])([H])[H])C([H])(C(=O)N([H])C2([H])c4c([H])c([H])c([H])c([H])c4C([H])([H])C([H])([H])C2([H])[H])C3([H])[H])C([H])([H])[H])C([H])([H])C([H])([H])C(C([H])([H])[H])(C([H])([H])C(=O)N2C([H])([H])C([H])([H])C([H])([H])C([H])(n3nc(-c4c([H])c([H])c(Oc5c([H])c([H])c(F)c([H])c5F)c([H])c4[H])c(C(=O)N([H])[H])c3N([H])[H])C2([H])[H])C1=O

>  <smiles>  (92) 
[H]C1=C(C(=C([H])C([H])([H])Oc2c([H])c([H])c3c(c2[H])C([H])([H])N(C(=O)C([H])(N([H])C(=O)C([H])(N([H])C([H])([H])[H])C([H])([H])[H])C(C([H])([H])[H])(C([H])([H])[H])C([H])([H])[H])C([H])(C(=O)N([H])C2([H])c4c([H])c([H])c([H])c([H])c4C([H])([H])C([H])([H])C2([H])[H])C3([H])[H])C([H])([H])[H])C([H])([H])C([H])([H])C(C([H])([H])[H])(C([H])([H])C(=O)N2C([H])([H])C([H])([H])C([H])([H])C([H])(n3nc(-c4c([H])c([H])c(Oc5c([H])c([H])c(F)c([H])c5F)c([H])c4[H])c(C(=O)N([H])[H])c3N([H])[H])C2([H])[H])C1=O

$$$$
94:0:0
     RDKit          3D

103108  0  0  1  0  0  0  0  0999 V2000
  -30.7380  -19.8240   21.5690 C   0  0  0  0  0  0  0  0  0  0  0  0
  -31.8990  -20.4640   21.8340 C   0  0  0  0  0  3  0  0  0  0  0  0
  -29.4800  -17.6550   21.3630 C   0  0  0  0  0  2  0  0  0  0  0  0
  -30.3010  -18.5630   22.3270 C   0  0  0  0  0  3  0  0  0  0  0  0
  -29.7930  -20.0610   20.3990 C   0  0  0  0  0  2  0  0  0  0  0  0
  -29.8150  -18.0360   19.8780 C   0  0  0  0  0  2  0  0  0  0  0  0
  -32.5760  -21.5510   21.0340 C   0  0  0  0  0  1  0  0  0  0  0  0
  -31.4810  -17.7820   22.9500 C   0  0  0  0  0  1  0  0  0  0  0  0
  -28.3720  -20.3290   21.0090 C   0  0  0  0  0  1  0  0  0  0  0  0
  -30.6960  -16.2790   19.6230 C   0  0  0  0  0  2  0  0  0  0  0  0
  -30.8670  -13.6270   18.9440 C   0  0  0  0  0  2  0  0  0  0  0  0
  -29.9420  -13.0640   17.8150 C   0  0  0  0  0  2  0  0  0  0  0  0
  -28.5490  -12.6940   18.3390 C   0  0  0  0  0  2  0  0  0  0  0  0
  -28.0500  -13.7440   19.3500 C   0  0  0  0  0  3  0  0  0  0  0  0
  -29.1210  -14.1770   20.3890 C   0  0  0  0  0  2  0  0  0  0  0  0
  -30.2450  -14.8490   19.6650 N   0  0  0  0  0  0  0  0  0  0  0  0
  -31.9110  -16.1890   19.3380 O   0  0  0  0  0  1  0  0  0  0  0  0
  -25.7320  -14.2810   20.2500 C   0  0  0  0  0  0  0  0  0  0  0  0
  -24.6860  -13.5130   20.6620 C   0  0  0  0  0  0  0  0  0  0  0  0
  -25.1340  -12.1580   20.5800 C   0  0  0  0  0  0  0  0  0  0  0  0
  -26.7570  -13.4070   19.9390 N   0  0  0  0  0  0  0  0  0  0  0  0
  -26.4100  -12.1160   20.1990 N   0  0  0  0  0  0  0  0  0  0  0  0
  -24.3920  -10.9070   20.7830 C   0  0  0  0  0  0  0  0  0  0  0  0
  -24.8020   -9.9440   21.7320 C   0  0  0  0  0  3  0  0  0  0  0  0
  -24.0520   -8.7640   21.9230 C   0  0  0  0  0  3  0  0  0  0  0  0
  -22.8780   -8.5370   21.1650 C   0  0  0  0  0  0  0  0  0  0  0  0
  -22.4880   -9.4850   20.2030 C   0  0  0  0  0  3  0  0  0  0  0  0
  -23.2370  -10.6580   20.0140 C   0  0  0  0  0  3  0  0  0  0  0  0
  -22.1010   -7.4080   21.2660 O   0  0  0  0  0  0  0  0  0  0  0  0
  -21.9320   -6.7560   22.4590 C   0  0  0  0  0  0  0  0  0  0  0  0
  -21.4190   -7.4110   23.6000 C   0  0  0  0  0  3  0  0  0  0  0  0
  -21.1970   -6.6870   24.7890 C   0  0  0  0  0  3  0  0  0  0  0  0
  -21.4750   -5.3080   24.8360 C   0  0  0  0  0  0  0  0  0  0  0  0
  -21.9800   -4.6520   23.6990 C   0  0  0  0  0  3  0  0  0  0  0  0
  -22.2070   -5.3740   22.5150 C   0  0  0  0  0  0  0  0  0  0  0  0
  -22.6750   -4.7340   21.4170 F   0  0  0  0  0  0  0  0  0  0  0  0
  -21.2530   -4.6090   25.9740 F   0  0  0  0  0  0  0  0  0  0  0  0
  -23.3130  -14.0100   21.0150 C   0  0  0  0  0  0  0  0  0  0  0  0
  -22.6280  -13.3270   21.9230 N   0  0  0  0  0  0  0  0  0  0  0  0
  -22.8630  -15.0450   20.5240 O   0  0  0  0  0  0  0  0  0  0  0  0
  -23.0090  -12.4910   22.3430 H   0  0  0  0  0  0  0  0  0  0  0  0
  -21.7150  -13.6470   22.2130 H   0  0  0  0  0  0  0  0  0  0  0  0
  -25.8840  -15.6500   20.0830 N   0  0  0  0  0  0  0  0  0  0  0  0
  -25.1320  -16.3060   20.2660 H   0  0  0  0  0  0  0  0  0  0  0  0
  -26.7020  -16.0830   19.6810 H   0  0  0  0  0  0  0  0  0  0  0  0
  -29.6930  -22.0550   19.9050 C   0  0  0  0  0 15  0  0  0  0  0  0
  -28.8790  -23.8640   20.4210 C   0  0  0  0  0  1  0  0  0  0  0  0
  -28.8140  -25.7030   20.2440 O   0  0  0  0  0  0  0  0  0  0  0  0
  -24.8770  -31.9420   23.2190 C   0  0  0  0  0  0  0  0  0  0  0  0
  -27.7630  -26.9120   20.2670 C   0  0  0  0  0  0  0  0  0  0  0  0
  -23.8240  -30.5150   21.5190 C   0  0  0  0  0  3  0  0  0  0  0  0
  -25.4020  -28.9270   20.1540 C   0  0  0  0  0  0  0  0  0  0  0  0
  -26.4050  -30.7390   21.5120 C   0  0  0  0  0  2  0  0  0  0  0  0
  -26.5640  -29.3040   20.8410 C   0  0  0  0  0  0  0  0  0  0  0  0
  -27.7220  -28.3340   20.8520 C   0  0  0  0  0  3  0  0  0  0  0  0
  -26.5490  -26.7800   19.5310 C   0  0  0  0  0  3  0  0  0  0  0  0
  -25.4430  -27.6940   19.4770 C   0  0  0  0  0  3  0  0  0  0  0  0
  -24.1570  -29.8380   20.1560 C   0  0  0  0  0  2  0  0  0  0  0  0
  -25.0580  -31.1020   22.1370 N   0  0  0  0  0  0  0  0  0  0  0  0
  -23.7500  -32.1900   23.6810 O   0  0  0  0  0  0  0  0  0  0  0  0
  -23.1030  -29.5050   22.4510 C   0  0  0  0  0  0  0  0  0  0  0  0
  -21.7760  -29.3280   22.2940 N   0  0  0  0  0  0  0  0  0  0  0  0
  -23.7520  -28.8760   23.2890 O   0  0  0  0  0  0  0  0  0  0  0  0
  -21.3000  -29.8870   21.6010 H   0  0  0  0  0  0  0  0  0  0  0  0
  -18.3960  -28.0740   22.7770 C   0  0  0  0  0  0  0  0  0  0  0  0
  -20.9580  -28.3460   23.0210 C   0  0  0  0  0  3  0  0  0  0  0  0
  -21.0580  -26.9480   22.3670 C   0  0  0  0  0  2  0  0  0  0  0  0
  -19.9470  -26.6760   21.3480 C   0  0  0  0  0  2  0  0  0  0  0  0
  -18.5720  -26.7710   22.0150 C   0  0  0  0  0  2  0  0  0  0  0  0
  -19.5140  -28.8220   23.2340 C   0  0  0  0  0  0  0  0  0  0  0  0
  -19.2880  -30.0400   23.9130 C   0  0  0  0  0  3  0  0  0  0  0  0
  -17.9800  -30.5100   24.1330 C   0  0  0  0  0  3  0  0  0  0  0  0
  -16.8780  -29.7600   23.6850 C   0  0  0  0  0  3  0  0  0  0  0  0
  -17.0880  -28.5420   23.0140 C   0  0  0  0  0  3  0  0  0  0  0  0
  -26.0770  -32.6420   23.9270 C   0  0  0  0  0  3  0  0  0  0  0  0
  -25.6830  -34.0320   24.2450 N   0  0  0  0  0  0  0  0  0  0  0  0
  -26.0010  -35.1130   23.5190 C   0  0  0  0  0  0  0  0  0  0  0  0
  -26.7100  -35.0480   22.5120 O   0  0  0  0  0  0  0  0  0  0  0  0
  -25.0540  -34.1540   25.0250 H   0  0  0  0  0  0  0  0  0  0  0  0
  -24.2140  -36.8510   23.1420 C   0  0  0  0  0  1  0  0  0  0  0  0
  -25.4520  -36.4820   23.9780 C   0  0  0  0  0  3  0  0  0  0  0  0
  -27.5300  -37.4490   24.8670 C   0  0  0  0  0  1  0  0  0  0  0  0
  -26.4460  -37.5770   23.8960 N   0  0  0  0  0  0  0  0  0  0  0  0
  -25.9990  -38.4800   24.0340 H   0  0  0  0  0  0  0  0  0  0  0  0
  -26.5280  -31.9060   25.2500 C   0  0  1  0  0  0  0  0  0  0  0  0
  -25.3680  -31.6250   26.2350 C   0  0  0  0  0  1  0  0  0  0  0  0
  -27.2000  -30.5530   24.9310 C   0  0  0  0  0  1  0  0  0  0  0  0
  -27.5920  -32.7570   25.9840 C   0  0  0  0  0  1  0  0  0  0  0  0
  -28.6360  -17.9040   18.8980 C   0  0  0  0  0  2  0  0  0  0  0  0
  -29.0160  -18.0320   17.4020 C   0  0  0  0  0  2  0  0  0  0  0  0
  -29.5850  -19.4010   16.9490 C   0  0  0  0  0  2  0  0  0  0  0  0
  -33.4380  -18.9710   16.4050 C   0  0  0  0  0  3  0  0  0  0  0  0
  -33.8990  -20.2790   16.5820 C   0  0  0  0  0  0  0  0  0  0  0  0
  -32.0700  -18.6540   16.4710 C   0  0  0  0  0  0  0  0  0  0  0  0
  -32.9730  -21.3260   16.7840 C   0  0  0  0  0  0  0  0  0  0  0  0
  -31.1070  -19.6680   16.7720 C   0  0  0  0  0  0  0  0  0  0  0  0
  -31.5760  -21.0250   16.8360 C   0  0  0  0  0  0  0  0  0  0  0  0
  -35.3960  -20.5250   16.4790 C   0  0  0  0  0  1  0  0  0  0  0  0
  -31.7500  -17.2060   16.1550 C   0  0  0  0  0  1  0  0  0  0  0  0
  -33.8400  -23.1230   18.3830 C   0  0  0  0  0  1  0  0  0  0  0  0
  -33.5070  -22.7610   16.9260 C   0  0  0  0  0  2  0  0  0  0  0  0
  -30.3270  -22.7240   15.4210 C   0  0  0  0  0  1  0  0  0  0  0  0
  -30.5910  -22.2060   16.8400 C   0  0  0  0  0  2  0  0  0  0  0  0
  1  2  2  0
  1  4  1  0
  3  4  1  0
  4  8  1  0
  5  9  1  0
  5  1  1  0
  6  3  1  0
  7  2  1  0
 10 16  1  0
 11 16  1  0
 12 13  1  0
 12 11  1  0
 14 13  1  0
 14 21  1  0
 14 15  1  0
 16 15  1  0
 17 10  1  0
 18 19  2  0
 19 38  1  0
 20 19  1  0
 20 23  1  0
 21 22  1  0
 21 18  1  0
 22 20  2  0
 23 24  1  0
 24 25  2  0
 26 29  1  0
 26 25  1  0
 27 26  2  0
 28 27  1  0
 28 23  2  0
 29 30  1  0
 30 35  2  0
 30 31  1  0
 31 32  2  0
 32 33  1  0
 33 37  1  0
 34 33  2  0
 35 34  1  0
 36 35  1  0
 38 39  1  0
 39 42  1  0
 39 41  1  0
 40 38  2  0
 43 18  1  0
 43 44  1  0
 45 43  1  0
 48 50  1  0
 48 47  1  0
 49 60  2  0
 50 55  1  0
 51 59  1  0
 51 61  1  0
 52 58  1  0
 52 54  1  0
 53 59  1  0
 54 55  2  0
 54 53  1  0
 56 50  2  0
 57 56  1  0
 57 52  2  0
 58 51  1  0
 59 49  1  0
 61 63  2  0
 62 61  1  0
 64 62  1  0
 65 74  2  0
 65 70  1  0
 66 62  1  0
 66 70  1  0
 67 66  1  0
 68 69  1  0
 68 67  1  0
 69 65  1  0
 70 71  2  0
 71 72  1  0
 73 72  2  0
 74 73  1  0
 75 49  1  0
 75 76  1  0
 75 85  1  0
 76 79  1  0
 77 81  1  0
 77 76  1  0
 78 77  2  0
 81 80  1  0
 83 81  1  0
 83 84  1  0
 83 82  1  0
 85 88  1  1
 85 86  1  0
 87 85  1  0
 89  6  1  0
 90 89  1  0
 91 90  1  0
 92 94  2  0
 92 93  1  0
 93 95  2  0
 94 96  1  0
 95 97  1  0
 95101  1  0
 96 97  2  0
 96 91  1  0
 97103  1  0
 98 93  1  0
 99 94  1  0
101100  1  0
102103  1  0
M  ISO  4   6 100  10 100  47 101  48 101
M  END
>  <TORSDO>  (93) 
F 24

>  <SCORE>  (93) 
-12.287

>  <name>  (93) 
94

>  <ligand_id>  (93) 
94

>  <original_smiles>  (93) 
[H]C(=C1C([H])(C([H])([H])[H])C([H])([H])C(C(=O)N2C([H])([H])C([H])([H])C([H])([H])C([H])(n3nc(-c4c([H])c([H])c(Oc5c([H])c([H])c(F)c([H])c5F)c([H])c4[H])c(C(=O)N([H])[H])c3N([H])[H])C2([H])[H])(C([H])([H])C([H])([H])C([H])([H])c2c(C([H])([H])[H])c([H])c(C([H])([H])[H])c(C([H])([H])C([H])([H])[H])c2C([H])([H])C([H])([H])[H])C1(C([H])([H])[H])C([H])([H])C([H])([H])Oc1c([H])c([H])c2c(c1[H])C([H])([H])N(C(=O)C([H])(N([H])C(=O)C([H])(N([H])C([H])([H])[H])C([H])([H])[H])C(C([H])([H])[H])(C([H])([H])[H])C([H])([H])[H])C([H])(C(=O)N([H])C1([H])c3c([H])c([H])c([H])c([H])c3C([H])([H])C([H])([H])C1([H])[H])C2([H])[H])C([H])([H])[H]

>  <smiles>  (93) 
[H]C(=C1C([H])(C([H])([H])[H])C([H])([H])C(C(=O)N2C([H])([H])C([H])([H])C([H])([H])C([H])(n3nc(-c4c([H])c([H])c(Oc5c([H])c([H])c(F)c([H])c5F)c([H])c4[H])c(C(=O)N([H])[H])c3N([H])[H])C2([H])[H])(C([H])([H])C([H])([H])C([H])([H])c2c(C([H])([H])[H])c([H])c(C([H])([H])[H])c(C([H])([H])C([H])([H])[H])c2C([H])([H])C([H])([H])[H])C1(C([H])([H])[H])C([H])([H])C([H])([H])Oc1c([H])c([H])c2c(c1[H])C([H])([H])N(C(=O)C([H])(N([H])C(=O)C([H])(N([H])C([H])([H])[H])C([H])([H])[H])C(C([H])([H])[H])(C([H])([H])[H])C([H])([H])[H])C([H])(C(=O)N([H])C1([H])c3c([H])c([H])c([H])c([H])c3C([H])([H])C([H])([H])C1([H])[H])C2([H])[H])C([H])([H])[H]

$$$$
