0:0:0
     RDKit          3D

 89 97  0  0  1  0  0  0  0  0999 V2000
  -28.7060  -19.5230   19.1210 C   0  0  0  0  0  3  0  0  0  0  0  0
  -29.8620  -17.0410   20.4020 C   0  0  0  0  0  0  0  0  0  0  0  0
  -28.7970  -18.2780   18.4640 C   0  0  0  0  0  0  0  0  0  0  0  0
  -29.1910  -19.7540   20.4120 C   0  0  0  0  0  0  0  0  0  0  0  0
  -29.4120  -17.1170   19.0350 C   0  0  0  0  0  0  0  0  0  0  0  0
  -29.7560  -18.4540   21.0330 C   0  0  0  0  0  0  0  0  0  0  0  0
  -28.2130  -18.2430   17.0540 C   0  0  0  0  0  1  0  0  0  0  0  0
  -29.6770  -15.9680   18.0670 C   0  0  0  0  0  1  0  0  0  0  0  0
  -30.2860  -18.6060   22.4460 C   0  0  0  0  0  1  0  0  0  0  0  0
  -30.5900  -15.5860   20.8920 C   0  0  0  0  0  0  0  0  0  0  0  0
  -30.7480  -13.0830   20.2020 C   0  0  0  0  0  2  0  0  0  0  0  0
  -29.9790  -12.6670   18.9190 C   0  0  0  0  0  2  0  0  0  0  0  0
  -28.4830  -12.4390   19.2000 C   0  0  0  0  0  2  0  0  0  0  0  0
  -27.8800  -13.4590   20.1970 C   0  0  0  0  0  3  0  0  0  0  0  0
  -28.7970  -13.7480   21.3980 C   0  0  0  0  0  2  0  0  0  0  0  0
  -30.0650  -14.2600   20.8540 N   0  0  0  0  0  0  0  0  0  0  0  0
  -31.8260  -15.5820   20.9750 O   0  0  0  0  0  0  0  0  0  0  0  0
  -25.4360  -13.9620   20.7170 C   0  0  0  0  0  0  0  0  0  0  0  0
  -24.3660  -13.1570   20.9890 C   0  0  0  0  0  0  0  0  0  0  0  0
  -24.8740  -11.8220   21.0330 C   0  0  0  0  0  0  0  0  0  0  0  0
  -26.5220  -13.1140   20.5950 N   0  0  0  0  0  0  0  0  0  0  0  0
  -26.1900  -11.8240   20.8580 N   0  0  0  0  0  0  0  0  0  0  0  0
  -24.1700  -10.5390   21.1680 C   0  0  0  0  0  0  0  0  0  0  0  0
  -24.5260   -9.6030   22.1630 C   0  0  0  0  0  3  0  0  0  0  0  0
  -23.8200   -8.3870   22.2870 C   0  0  0  0  0  3  0  0  0  0  0  0
  -22.7450   -8.0990   21.4140 C   0  0  0  0  0  0  0  0  0  0  0  0
  -22.4110   -9.0240   20.4090 C   0  0  0  0  0  3  0  0  0  0  0  0
  -23.1180  -10.2310   20.2840 C   0  0  0  0  0  3  0  0  0  0  0  0
  -22.0180   -6.9330   21.4430 O   0  0  0  0  0  0  0  0  0  0  0  0
  -21.8500   -6.2180   22.6010 C   0  0  0  0  0  0  0  0  0  0  0  0
  -21.2340   -6.7790   23.7420 C   0  0  0  0  0  3  0  0  0  0  0  0
  -21.0200   -5.9880   24.8880 C   0  0  0  0  0  3  0  0  0  0  0  0
  -21.4120   -4.6360   24.8960 C   0  0  0  0  0  0  0  0  0  0  0  0
  -22.0200   -4.0730   23.7600 C   0  0  0  0  0  3  0  0  0  0  0  0
  -22.2370   -4.8620   22.6160 C   0  0  0  0  0  0  0  0  0  0  0  0
  -22.8050   -4.3090   21.5170 F   0  0  0  0  0  0  0  0  0  0  0  0
  -21.1990   -3.8740   25.9930 F   0  0  0  0  0  0  0  0  0  0  0  0
  -22.9360  -13.5930   21.1010 C   0  0  0  0  0  0  0  0  0  0  0  0
  -22.1450  -12.8930   21.9070 N   0  0  0  0  0  0  0  0  0  0  0  0
  -22.5240  -14.5900   20.5110 O   0  0  0  0  0  0  0  0  0  0  0  0
  -22.4890  -12.0860   22.4060 H   0  0  0  0  0  0  0  0  0  0  0  0
  -21.1800  -13.1680   22.0250 H   0  0  0  0  0  0  0  0  0  0  0  0
  -25.5790  -15.3350   20.5310 N   0  0  0  0  0  0  0  0  0  0  0  0
  -24.7920  -15.9740   20.5510 H   0  0  0  0  0  0  0  0  0  0  0  0
  -26.4560  -15.7940   20.3130 H   0  0  0  0  0  0  0  0  0  0  0  0
  -28.8960  -21.3730   20.9720 C   0  0  0  0  0  3  0  0  0  0  0  0
  -28.6950  -22.9550   20.1440 C   0  0  0  0  0  3  0  0  0  0  0  0
  -27.9860  -24.5320   20.6320 C   0  0  0  0  0  2  0  0  0  0  0  0
  -28.1530  -26.1090   20.2020 O   0  0  0  0  0  0  0  0  0  0  0  0
  -24.6700  -32.0370   23.3310 C   0  0  0  0  0  0  0  0  0  0  0  0
  -27.1320  -27.1870   20.2340 C   0  0  0  0  0  0  0  0  0  0  0  0
  -23.4410  -30.6820   21.6810 C   0  0  0  0  0  3  0  0  0  0  0  0
  -24.8530  -29.0770   20.2300 C   0  0  0  0  0  0  0  0  0  0  0  0
  -26.0070  -30.8690   21.5100 C   0  0  0  0  0  2  0  0  0  0  0  0
  -26.0530  -29.4670   20.8400 C   0  0  0  0  0  0  0  0  0  0  0  0
  -27.1900  -28.5450   20.8100 C   0  0  0  0  0  3  0  0  0  0  0  0
  -25.9030  -26.9390   19.5850 C   0  0  0  0  0  3  0  0  0  0  0  0
  -24.8020  -27.8320   19.5820 C   0  0  0  0  0  3  0  0  0  0  0  0
  -23.6490  -30.0120   20.2950 C   0  0  0  0  0  2  0  0  0  0  0  0
  -24.7280  -31.2210   22.2280 N   0  0  0  0  0  0  0  0  0  0  0  0
  -23.5900  -32.3330   23.8670 O   0  0  0  0  0  0  0  0  0  0  0  0
  -22.7420  -29.6820   22.6400 C   0  0  0  0  0  0  0  0  0  0  0  0
  -21.4130  -29.5170   22.5040 N   0  0  0  0  0  0  0  0  0  0  0  0
  -23.4040  -29.0550   23.4710 O   0  0  0  0  0  0  0  0  0  0  0  0
  -20.9350  -30.0750   21.8120 H   0  0  0  0  0  0  0  0  0  0  0  0
  -18.0330  -28.2840   22.9640 C   0  0  0  0  0  0  0  0  0  0  0  0
  -20.5860  -28.5750   23.2650 C   0  0  0  0  0  3  0  0  0  0  0  0
  -20.7090  -27.1410   22.6990 C   0  0  0  0  0  2  0  0  0  0  0  0
  -19.6250  -26.8050   21.6690 C   0  0  0  0  0  2  0  0  0  0  0  0
  -18.2330  -26.9360   22.2920 C   0  0  0  0  0  2  0  0  0  0  0  0
  -19.1370  -29.0600   23.4070 C   0  0  0  0  0  0  0  0  0  0  0  0
  -18.8950  -30.3190   23.9970 C   0  0  0  0  0  3  0  0  0  0  0  0
  -17.5810  -30.8030   24.1490 C   0  0  0  0  0  3  0  0  0  0  0  0
  -16.4920  -30.0250   23.7200 C   0  0  0  0  0  3  0  0  0  0  0  0
  -16.7180  -28.7680   23.1330 C   0  0  0  0  0  3  0  0  0  0  0  0
  -25.9560  -32.6510   23.9620 C   0  0  0  0  0  3  0  0  0  0  0  0
  -26.4710  -31.8490   25.2220 C   0  0  1  0  0  0  0  0  0  0  0  0
  -25.3820  -31.6050   26.2930 C   0  0  0  0  0  1  0  0  0  0  0  0
  -27.0350  -30.4710   24.8070 C   0  0  0  0  0  1  0  0  0  0  0  0
  -27.6350  -32.6170   25.8910 C   0  0  0  0  0  1  0  0  0  0  0  0
  -25.6580  -34.0450   24.3350 N   0  0  0  0  0  0  0  0  0  0  0  0
  -26.0240  -35.1230   23.6310 C   0  0  0  0  0  0  0  0  0  0  0  0
  -26.7110  -35.0480   22.6090 O   0  0  0  0  0  0  0  0  0  0  0  0
  -25.0470  -34.1760   25.1290 H   0  0  0  0  0  0  0  0  0  0  0  0
  -24.3590  -36.9840   23.3040 C   0  0  0  0  0  1  0  0  0  0  0  0
  -25.5570  -36.5030   24.1370 C   0  0  0  0  0  3  0  0  0  0  0  0
  -27.6800  -37.2950   25.0880 C   0  0  0  0  0  1  0  0  0  0  0  0
  -26.6200  -37.5320   24.1120 N   0  0  0  0  0  0  0  0  0  0  0  0
  -26.2320  -38.4560   24.2840 H   0  0  0  0  0  0  0  0  0  0  0  0
  1  4  1  0
  2 10  1  0
  2  6  1  0
  3  5  1  0
  3  1  2  0
  4 46  1  0
  4  6  2  0
  5  2  2  0
  6  9  1  0
  7  3  1  0
  8  5  1  0
 10 17  2  0
 11 16  1  0
 12 13  1  0
 12 11  1  0
 14 13  1  0
 14 21  1  0
 14 15  1  0
 16 10  1  0
 16 15  1  0
 18 19  2  0
 19 20  1  0
 19 38  1  0
 20 23  1  0
 21 18  1  0
 21 22  1  0
 22 20  2  0
 23 24  1  0
 24 25  2  0
 26 29  1  0
 26 25  1  0
 27 26  2  0
 28 27  1  0
 28 23  2  0
 29 30  1  0
 30 35  2  0
 30 31  1  0
 31 32  2  0
 32 33  1  0
 33 37  1  0
 34 33  2  0
 35 34  1  0
 36 35  1  0
 38 39  1  0
 39 42  1  0
 39 41  1  0
 40 38  2  0
 43 44  1  0
 43 18  1  0
 45 43  1  0
 47 48  1  0
 47 46  2  0
 49 51  1  0
 49 48  1  0
 50 61  2  0
 51 56  1  0
 52 60  1  0
 52 62  1  0
 53 59  1  0
 53 55  1  0
 54 60  1  0
 55 54  1  0
 56 55  2  0
 57 51  2  0
 58 57  1  0
 58 53  2  0
 59 52  1  0
 60 50  1  0
 62 64  2  0
 63 62  1  0
 65 63  1  0
 66 75  2  0
 66 71  1  0
 67 63  1  0
 67 71  1  0
 68 67  1  0
 69 70  1  0
 69 68  1  0
 70 66  1  0
 71 72  2  0
 72 73  1  0
 74 73  2  0
 75 74  1  0
 76 50  1  0
 76 81  1  0
 76 77  1  0
 77 80  1  1
 77 78  1  0
 79 77  1  0
 81 84  1  0
 82 86  1  0
 82 81  1  0
 83 82  2  0
 86 85  1  0
 88 86  1  0
 88 89  1  0
 88 87  1  0
M  ISO  4   2 100  10 100  48 101  49 101
M  END
>  <TORSDO>  (1) 
F 19

>  <SCORE>  (1) 
-13.900

>  <name>  (1) 
0

>  <ligand_id>  (1) 
0

>  <original_smiles>  (1) 
[H]c1c([H])c([H])c2c(c1[H])C([H])([H])C([H])([H])C([H])([H])C2([H])N([H])C(=O)C1([H])N(C(=O)C([H])(N([H])C(=O)C([H])(N([H])C([H])([H])[H])C([H])([H])[H])C(C([H])([H])[H])(C([H])([H])[H])C([H])([H])[H])C([H])([H])c2c([H])c(OC([H])([H])C([H])([H])C([H])([H])c3c([H])c(C([H])([H])[H])c(C([H])([H])[H])c(C(=O)N4C([H])([H])C([H])([H])C([H])([H])C([H])(n5nc(-c6c([H])c([H])c(Oc7c([H])c([H])c(F)c([H])c7F)c([H])c6[H])c(C(=O)N([H])[H])c5N([H])[H])C4([H])[H])c3C([H])([H])[H])c([H])c([H])c2C1([H])[H]

>  <smiles>  (1) 
[H]c1c([H])c([H])c2c(c1[H])C([H])([H])C([H])([H])C([H])([H])C2([H])N([H])C(=O)C1([H])N(C(=O)C([H])(N([H])C(=O)C([H])(N([H])C([H])([H])[H])C([H])([H])[H])C(C([H])([H])[H])(C([H])([H])[H])C([H])([H])[H])C([H])([H])c2c([H])c(OC([H])([H])C([H])([H])C([H])([H])c3c([H])c(C([H])([H])[H])c(C([H])([H])[H])c(C(=O)N4C([H])([H])C([H])([H])C([H])([H])C([H])(n5nc(-c6c([H])c([H])c(Oc7c([H])c([H])c(F)c([H])c7F)c([H])c6[H])c(C(=O)N([H])[H])c5N([H])[H])C4([H])[H])c3C([H])([H])[H])c([H])c([H])c2C1([H])[H]

$$$$
1:0:0
     RDKit          3D

 94103  0  0  1  0  0  0  0  0999 V2000
  -27.6540  -22.0780   21.5070 C   0  0  0  0  0  3  0  0  0  0  0  0
  -26.8180  -23.1530   21.8560 C   0  0  0  0  0  3  0  0  0  0  0  0
  -28.9820  -23.6730   20.2510 C   0  0  0  0  0  3  0  0  0  0  0  0
  -28.7950  -22.2600   20.7110 C   0  0  0  0  0  0  0  0  0  0  0  0
  -27.0400  -24.4920   21.4480 C   0  0  0  0  0  0  0  0  0  0  0  0
  -28.1160  -24.8530   20.5690 C   0  0  0  0  0  0  0  0  0  0  0  0
  -26.0840  -25.5070   22.0550 C   0  0  0  0  0  1  0  0  0  0  0  0
  -28.3250  -26.2660   20.1620 O   0  0  0  0  0  0  0  0  0  0  0  0
  -24.6520  -31.8920   23.2150 C   0  0  0  0  0  0  0  0  0  0  0  0
  -27.3060  -27.2910   20.0870 C   0  0  0  0  0  0  0  0  0  0  0  0
  -23.4940  -30.5390   21.5040 C   0  0  0  0  0  3  0  0  0  0  0  0
  -24.9830  -29.0270   20.0460 C   0  0  0  0  0  0  0  0  0  0  0  0
  -26.0460  -30.8250   21.4060 C   0  0  0  0  0  2  0  0  0  0  0  0
  -26.1390  -29.4520   20.7150 C   0  0  0  0  0  0  0  0  0  0  0  0
  -27.3020  -28.5920   20.7340 C   0  0  0  0  0  3  0  0  0  0  0  0
  -26.1480  -26.9920   19.3420 C   0  0  0  0  0  3  0  0  0  0  0  0
  -25.0020  -27.8140   19.3400 C   0  0  0  0  0  3  0  0  0  0  0  0
  -23.7450  -29.9080   20.1060 C   0  0  0  0  0  2  0  0  0  0  0  0
  -24.7470  -31.1080   22.0960 N   0  0  0  0  0  0  0  0  0  0  0  0
  -23.5550  -32.1490   23.7350 O   0  0  0  0  0  0  0  0  0  0  0  0
  -22.8110  -29.4970   22.4240 C   0  0  0  0  0  0  0  0  0  0  0  0
  -21.4870  -29.3200   22.2730 N   0  0  0  0  0  0  0  0  0  0  0  0
  -23.4740  -28.8530   23.2410 O   0  0  0  0  0  0  0  0  0  0  0  0
  -21.0080  -29.8940   21.5920 H   0  0  0  0  0  0  0  0  0  0  0  0
  -18.0930  -28.1570   22.7740 C   0  0  0  0  0  0  0  0  0  0  0  0
  -20.6620  -28.3520   23.0000 C   0  0  0  0  0  3  0  0  0  0  0  0
  -20.7210  -26.9560   22.3350 C   0  0  0  0  0  2  0  0  0  0  0  0
  -19.5910  -26.7220   21.3280 C   0  0  0  0  0  2  0  0  0  0  0  0
  -18.2280  -26.8500   22.0100 C   0  0  0  0  0  2  0  0  0  0  0  0
  -19.2350  -28.8700   23.2240 C   0  0  0  0  0  0  0  0  0  0  0  0
  -19.0520  -30.0960   23.9020 C   0  0  0  0  0  3  0  0  0  0  0  0
  -17.7610  -30.6040   24.1380 C   0  0  0  0  0  3  0  0  0  0  0  0
  -16.6340  -29.8860   23.7000 C   0  0  0  0  0  3  0  0  0  0  0  0
  -16.8000  -28.6670   23.0220 C   0  0  0  0  0  3  0  0  0  0  0  0
  -25.9140  -32.5210   23.8790 C   0  0  0  0  0  3  0  0  0  0  0  0
  -25.6010  -33.9210   24.2060 N   0  0  0  0  0  0  0  0  0  0  0  0
  -25.9380  -34.9770   23.4540 C   0  0  0  0  0  0  0  0  0  0  0  0
  -26.6120  -34.8740   22.4260 O   0  0  0  0  0  0  0  0  0  0  0  0
  -25.0050  -34.0730   25.0070 H   0  0  0  0  0  0  0  0  0  0  0  0
  -24.2000  -36.7700   23.1140 C   0  0  0  0  0  1  0  0  0  0  0  0
  -25.4510  -36.3670   23.9130 C   0  0  0  0  0  3  0  0  0  0  0  0
  -27.5860  -37.2720   24.7250 C   0  0  0  0  0  1  0  0  0  0  0  0
  -26.4740  -37.4270   23.7900 N   0  0  0  0  0  0  0  0  0  0  0  0
  -26.0590  -38.3410   23.9450 H   0  0  0  0  0  0  0  0  0  0  0  0
  -26.3830  -31.7470   25.1740 C   0  0  1  0  0  0  0  0  0  0  0  0
  -25.2460  -31.4890   26.1910 C   0  0  0  0  0  1  0  0  0  0  0  0
  -26.9990  -30.3780   24.8070 C   0  0  0  0  0  1  0  0  0  0  0  0
  -27.4940  -32.5500   25.8900 C   0  0  0  0  0  1  0  0  0  0  0  0
  -29.7450  -20.9280   20.4600 C   0  0  0  0  0  2  0  0  0  0  0  0
  -28.3140  -18.3500   18.5940 C   0  0  0  0  0  0  0  0  0  0  0  0
  -27.3150  -17.7770   17.9000 C   0  0  0  0  0  2  0  0  0  0  0  0
  -29.7270  -18.4390   18.0100 C   0  0  0  0  0  2  0  0  0  0  0  0
  -28.0670  -18.9200   19.9910 C   0  0  0  0  0  2  0  0  0  0  0  0
  -30.8840  -18.2490   19.0220 C   0  0  0  0  0  2  0  0  0  0  0  0
  -29.3580  -19.2830   20.7470 C   0  0  0  0  0  3  0  0  0  0  0  0
  -30.4130  -17.9850   20.4610 C   0  0  0  0  0  3  0  0  0  0  0  0
  -30.8200  -15.2300   20.4110 C   0  0  0  0  0  0  0  0  0  0  0  0
  -30.6980  -12.9170   19.3700 C   0  0  0  0  0  2  0  0  0  0  0  0
  -29.7730  -12.9230   18.1310 C   0  0  0  0  0  2  0  0  0  0  0  0
  -28.3030  -12.7060   18.5420 C   0  0  0  0  0  2  0  0  0  0  0  0
  -27.8960  -13.5680   19.7680 C   0  0  0  0  0  3  0  0  0  0  0  0
  -28.9490  -13.5280   20.8960 C   0  0  0  0  0  2  0  0  0  0  0  0
  -30.2170  -13.9750   20.3080 N   0  0  0  0  0  0  0  0  0  0  0  0
  -32.0240  -15.2810   20.1370 O   0  0  0  0  0  0  0  0  0  0  0  0
  -30.0650  -16.4290   20.6080 N   0  0  0  0  0  0  0  0  0  0  0  0
  -29.0910  -16.2520   20.8090 H   0  0  0  0  0  0  0  0  0  0  0  0
  -25.5060  -14.1070   20.5000 C   0  0  0  0  0  0  0  0  0  0  0  0
  -24.4450  -13.3190   20.8530 C   0  0  0  0  0  0  0  0  0  0  0  0
  -24.9230  -11.9730   20.8110 C   0  0  0  0  0  0  0  0  0  0  0  0
  -26.5580  -13.2440   20.2570 N   0  0  0  0  0  0  0  0  0  0  0  0
  -26.2170  -11.9520   20.5100 N   0  0  0  0  0  0  0  0  0  0  0  0
  -24.2040  -10.7030   20.9820 C   0  0  0  0  0  0  0  0  0  0  0  0
  -24.6070   -9.7500   21.9420 C   0  0  0  0  0  3  0  0  0  0  0  0
  -23.8890   -8.5450   22.1020 C   0  0  0  0  0  3  0  0  0  0  0  0
  -22.7520   -8.2850   21.3000 C   0  0  0  0  0  0  0  0  0  0  0  0
  -22.3710   -9.2260   20.3290 C   0  0  0  0  0  3  0  0  0  0  0  0
  -23.0890  -10.4220   20.1670 C   0  0  0  0  0  3  0  0  0  0  0  0
  -22.0080   -7.1310   21.3680 O   0  0  0  0  0  0  0  0  0  0  0  0
  -21.8250   -6.4590   22.5500 C   0  0  0  0  0  0  0  0  0  0  0  0
  -21.2010   -7.0650   23.6620 C   0  0  0  0  0  3  0  0  0  0  0  0
  -20.9720   -6.3170   24.8340 C   0  0  0  0  0  3  0  0  0  0  0  0
  -21.3530   -4.9620   24.8910 C   0  0  0  0  0  0  0  0  0  0  0  0
  -21.9660   -4.3550   23.7820 C   0  0  0  0  0  3  0  0  0  0  0  0
  -22.1970   -5.1010   22.6130 C   0  0  0  0  0  0  0  0  0  0  0  0
  -22.7720   -4.5060   21.5390 F   0  0  0  0  0  0  0  0  0  0  0  0
  -21.1250   -4.2410   26.0130 F   0  0  0  0  0  0  0  0  0  0  0  0
  -23.0410  -13.7800   21.1080 C   0  0  0  0  0  0  0  0  0  0  0  0
  -22.3100  -13.0810   21.9670 N   0  0  0  0  0  0  0  0  0  0  0  0
  -22.5970  -14.7970   20.5740 O   0  0  0  0  0  0  0  0  0  0  0  0
  -22.6810  -12.2630   22.4260 H   0  0  0  0  0  0  0  0  0  0  0  0
  -21.3630  -13.3710   22.1700 H   0  0  0  0  0  0  0  0  0  0  0  0
  -25.6530  -15.4810   20.3370 N   0  0  0  0  0  0  0  0  0  0  0  0
  -24.8640  -16.1100   20.4310 H   0  0  0  0  0  0  0  0  0  0  0  0
  -26.4690  -15.9260   19.9330 H   0  0  0  0  0  0  0  0  0  0  0  0
  1  2  1  0
  3  6  2  0
  3  4  1  0
  4  1  2  0
  5  2  2  0
  5  7  1  0
  6  5  1  0
  8  6  1  0
  9 20  2  0
 10  8  1  0
 10 15  1  0
 11 19  1  0
 11 21  1  0
 12 18  1  0
 12 14  1  0
 13 19  1  0
 14 15  2  0
 14 13  1  0
 16 10  2  0
 17 16  1  0
 17 12  2  0
 18 11  1  0
 19  9  1  0
 21 23  2  0
 22 21  1  0
 24 22  1  0
 25 34  2  0
 25 30  1  0
 26 22  1  0
 26 30  1  0
 27 26  1  0
 28 29  1  0
 28 27  1  0
 29 25  1  0
 30 31  2  0
 31 32  1  0
 33 32  2  0
 34 33  1  0
 35  9  1  0
 35 36  1  0
 35 45  1  0
 36 39  1  0
 37 41  1  0
 37 36  1  0
 38 37  2  0
 41 40  1  0
 43 41  1  0
 43 44  1  0
 43 42  1  0
 45 48  1  1
 45 46  1  0
 47 45  1  0
 49  4  1  0
 50 53  1  0
 51 50  2  0
 52 50  1  0
 52 54  1  0
 53 55  1  0
 54 56  1  0
 55 49  1  0
 56 65  1  0
 56 55  1  0
 57 65  1  0
 58 63  1  0
 59 60  1  0
 59 58  1  0
 61 60  1  0
 61 70  1  0
 61 62  1  0
 63 57  1  0
 63 62  1  0
 64 57  2  0
 65 66  1  0
 67 68  2  0
 68 87  1  0
 69 68  1  0
 69 72  1  0
 70 67  1  0
 70 71  1  0
 71 69  2  0
 72 73  1  0
 73 74  2  0
 75 78  1  0
 75 74  1  0
 76 75  2  0
 77 76  1  0
 77 72  2  0
 78 79  1  0
 79 84  2  0
 79 80  1  0
 80 81  2  0
 81 82  1  0
 82 86  1  0
 83 82  2  0
 84 83  1  0
 85 84  1  0
 87 88  1  0
 88 91  1  0
 88 90  1  0
 89 87  2  0
 92 93  1  0
 92 67  1  0
 94 92  1  0
M  ISO  4   6 101   8 101  57 100  65 100
M  END
>  <TORSDO>  (2) 
F 18

>  <SCORE>  (2) 
-14.882

>  <name>  (2) 
1

>  <ligand_id>  (2) 
1

>  <original_smiles>  (2) 
[H]C([H])=C1C([H])([H])C([H])([H])C([H])(N([H])C(=O)N2C([H])([H])C([H])([H])C([H])([H])C([H])(n3nc(-c4c([H])c([H])c(Oc5c([H])c([H])c(F)c([H])c5F)c([H])c4[H])c(C(=O)N([H])[H])c3N([H])[H])C2([H])[H])C([H])(C([H])([H])c2c([H])c([H])c(C([H])([H])[H])c(Oc3c([H])c([H])c4c(c3[H])C([H])([H])N(C(=O)C([H])(N([H])C(=O)C([H])(N([H])C([H])([H])[H])C([H])([H])[H])C(C([H])([H])[H])(C([H])([H])[H])C([H])([H])[H])C([H])(C(=O)N([H])C3([H])c5c([H])c([H])c([H])c([H])c5C([H])([H])C([H])([H])C3([H])[H])C4([H])[H])c2[H])C1([H])[H]

>  <smiles>  (2) 
[H]C([H])=C1C([H])([H])C([H])([H])C([H])(N([H])C(=O)N2C([H])([H])C([H])([H])C([H])([H])C([H])(n3nc(-c4c([H])c([H])c(Oc5c([H])c([H])c(F)c([H])c5F)c([H])c4[H])c(C(=O)N([H])[H])c3N([H])[H])C2([H])[H])C([H])(C([H])([H])c2c([H])c([H])c(C([H])([H])[H])c(Oc3c([H])c([H])c4c(c3[H])C([H])([H])N(C(=O)C([H])(N([H])C(=O)C([H])(N([H])C([H])([H])[H])C([H])([H])[H])C(C([H])([H])[H])(C([H])([H])[H])C([H])([H])[H])C([H])(C(=O)N([H])C3([H])c5c([H])c([H])c([H])c([H])c5C([H])([H])C([H])([H])C3([H])[H])C4([H])[H])c2[H])C1([H])[H]

$$$$
2:0:0
     RDKit          3D

 91 99  0  0  1  0  0  0  0  0999 V2000
  -28.9300  -22.8130   21.3750 C   0  0  0  0  0  3  0  0  0  0  0  0
  -28.8110  -22.7760   19.0050 C   0  0  0  0  0  3  0  0  0  0  0  0
  -29.0910  -22.0280   20.1910 C   0  0  0  0  0  0  0  0  0  0  0  0
  -28.5910  -24.2230   21.3690 C   0  0  0  0  0  0  0  0  0  0  0  0
  -28.4860  -24.1830   18.9880 C   0  0  0  0  0  0  0  0  0  0  0  0
  -28.3800  -24.9810   20.1710 C   0  0  0  0  0  0  0  0  0  0  0  0
  -28.5310  -24.9600   22.6930 C   0  0  0  0  0  1  0  0  0  0  0  0
  -28.3440  -24.8140   17.7530 N   0  0  0  0  0  0  0  0  0  0  0  0
  -28.7800  -24.3860   16.9430 H   0  0  0  0  0  0  0  0  0  0  0  0
  -28.4200  -25.8270   17.7510 H   0  0  0  0  0  0  0  0  0  0  0  0
  -28.3370  -26.4280   20.1410 O   0  0  0  0  0  0  0  0  0  0  0  0
  -24.6250  -31.8950   23.2330 C   0  0  0  0  0  0  0  0  0  0  0  0
  -27.1970  -27.2730   20.1600 C   0  0  0  0  0  0  0  0  0  0  0  0
  -23.4050  -30.5000   21.6010 C   0  0  0  0  0  3  0  0  0  0  0  0
  -24.8400  -28.9310   20.1630 C   0  0  0  0  0  0  0  0  0  0  0  0
  -25.9460  -30.7960   21.4000 C   0  0  0  0  0  2  0  0  0  0  0  0
  -26.0160  -29.4090   20.7550 C   0  0  0  0  0  0  0  0  0  0  0  0
  -27.1930  -28.5910   20.7400 C   0  0  0  0  0  3  0  0  0  0  0  0
  -25.9970  -26.8600   19.5450 C   0  0  0  0  0  3  0  0  0  0  0  0
  -24.8360  -27.6660   19.5490 C   0  0  0  0  0  3  0  0  0  0  0  0
  -23.6080  -29.8190   20.2200 C   0  0  0  0  0  2  0  0  0  0  0  0
  -24.6790  -31.0840   22.1330 N   0  0  0  0  0  0  0  0  0  0  0  0
  -23.5460  -32.1760   23.7760 O   0  0  0  0  0  0  0  0  0  0  0  0
  -22.7440  -29.4890   22.5690 C   0  0  0  0  0  0  0  0  0  0  0  0
  -21.4180  -29.3080   22.4470 N   0  0  0  0  0  0  0  0  0  0  0  0
  -23.4250  -28.8700   23.3900 O   0  0  0  0  0  0  0  0  0  0  0  0
  -20.9260  -29.8590   21.7580 H   0  0  0  0  0  0  0  0  0  0  0  0
  -18.0480  -28.0900   22.9560 C   0  0  0  0  0  0  0  0  0  0  0  0
  -20.6050  -28.3700   23.2220 C   0  0  0  0  0  3  0  0  0  0  0  0
  -20.7170  -26.9360   22.6540 C   0  0  0  0  0  2  0  0  0  0  0  0
  -19.6180  -26.6000   21.6410 C   0  0  0  0  0  2  0  0  0  0  0  0
  -18.2340  -26.7380   22.2850 C   0  0  0  0  0  2  0  0  0  0  0  0
  -19.1610  -28.8620   23.3810 C   0  0  0  0  0  0  0  0  0  0  0  0
  -18.9330  -30.1250   23.9700 C   0  0  0  0  0  3  0  0  0  0  0  0
  -17.6240  -30.6150   24.1360 C   0  0  0  0  0  3  0  0  0  0  0  0
  -16.5260  -29.8410   23.7250 C   0  0  0  0  0  3  0  0  0  0  0  0
  -16.7390  -28.5790   23.1410 C   0  0  0  0  0  3  0  0  0  0  0  0
  -25.9120  -32.5270   23.8460 C   0  0  0  0  0  3  0  0  0  0  0  0
  -25.6050  -33.9250   24.1870 N   0  0  0  0  0  0  0  0  0  0  0  0
  -25.9220  -34.9820   23.4280 C   0  0  0  0  0  0  0  0  0  0  0  0
  -26.5700  -34.8840   22.3830 O   0  0  0  0  0  0  0  0  0  0  0  0
  -25.0250  -34.0740   25.0000 H   0  0  0  0  0  0  0  0  0  0  0  0
  -24.1850  -36.7770   23.1200 C   0  0  0  0  0  1  0  0  0  0  0  0
  -25.4440  -36.3690   23.9020 C   0  0  0  0  0  3  0  0  0  0  0  0
  -27.5930  -37.2570   24.6920 C   0  0  0  0  0  1  0  0  0  0  0  0
  -26.4730  -37.4240   23.7710 N   0  0  0  0  0  0  0  0  0  0  0  0
  -26.0680  -38.3430   23.9260 H   0  0  0  0  0  0  0  0  0  0  0  0
  -26.4390  -31.7520   25.1170 C   0  0  1  0  0  0  0  0  0  0  0  0
  -25.3540  -31.5110   26.1940 C   0  0  0  0  0  1  0  0  0  0  0  0
  -27.0190  -30.3750   24.7200 C   0  0  0  0  0  1  0  0  0  0  0  0
  -27.5950  -32.5450   25.7720 C   0  0  0  0  0  1  0  0  0  0  0  0
  -29.8200  -20.5760   20.1320 C   0  0  0  0  0  3  0  0  0  0  0  0
  -29.2410  -19.1000   20.5510 C   0  0  0  0  0  3  0  0  0  0  0  0
  -30.1640  -17.7460   20.3110 C   0  0  0  0  0  3  0  0  0  0  0  0
  -29.7250  -16.2260   20.7740 C   0  0  0  0  0  3  0  0  0  0  0  0
  -30.5680  -14.8780   20.4020 C   0  0  0  0  0  0  0  0  0  0  0  0
  -30.4440  -12.5770   19.3850 C   0  0  0  0  0  2  0  0  0  0  0  0
  -29.5160  -12.6330   18.1490 C   0  0  0  0  0  2  0  0  0  0  0  0
  -28.0430  -12.4380   18.5590 C   0  0  0  0  0  2  0  0  0  0  0  0
  -27.6460  -13.3230   19.7690 C   0  0  0  0  0  3  0  0  0  0  0  0
  -28.6910  -13.2470   20.9020 C   0  0  0  0  0  2  0  0  0  0  0  0
  -29.9920  -13.6220   20.3370 N   0  0  0  0  0  0  0  0  0  0  0  0
  -31.7470  -14.9960   20.0490 O   0  0  0  0  0  0  0  0  0  0  0  0
  -25.2490  -13.9050   20.4680 C   0  0  0  0  0  0  0  0  0  0  0  0
  -24.1830  -13.1280   20.8300 C   0  0  0  0  0  0  0  0  0  0  0  0
  -24.6530  -11.7790   20.8140 C   0  0  0  0  0  0  0  0  0  0  0  0
  -26.2990  -13.0290   20.2470 N   0  0  0  0  0  0  0  0  0  0  0  0
  -25.9480  -11.7460   20.5210 N   0  0  0  0  0  0  0  0  0  0  0  0
  -23.9310  -10.5150   21.0040 C   0  0  0  0  0  0  0  0  0  0  0  0
  -24.3470   -9.5630   21.9610 C   0  0  0  0  0  3  0  0  0  0  0  0
  -23.6250   -8.3630   22.1380 C   0  0  0  0  0  3  0  0  0  0  0  0
  -22.4710   -8.1070   21.3580 C   0  0  0  0  0  0  0  0  0  0  0  0
  -22.0760   -9.0470   20.3910 C   0  0  0  0  0  3  0  0  0  0  0  0
  -22.7990  -10.2380   20.2120 C   0  0  0  0  0  3  0  0  0  0  0  0
  -21.7230   -6.9580   21.4420 O   0  0  0  0  0  0  0  0  0  0  0  0
  -21.6370   -6.2390   22.6080 C   0  0  0  0  0  0  0  0  0  0  0  0
  -21.1440   -6.8090   23.8010 C   0  0  0  0  0  3  0  0  0  0  0  0
  -21.0080   -6.0150   24.9570 C   0  0  0  0  0  3  0  0  0  0  0  0
  -21.3560   -4.6520   24.9200 C   0  0  0  0  0  0  0  0  0  0  0  0
  -21.8420   -4.0800   23.7310 C   0  0  0  0  0  3  0  0  0  0  0  0
  -21.9800   -4.8710   22.5770 C   0  0  0  0  0  0  0  0  0  0  0  0
  -22.4290   -4.3120   21.4290 F   0  0  0  0  0  0  0  0  0  0  0  0
  -21.2180   -3.8860   26.0280 F   0  0  0  0  0  0  0  0  0  0  0  0
  -22.7790  -13.6000   21.0790 C   0  0  0  0  0  0  0  0  0  0  0  0
  -22.0430  -12.9040   21.9380 N   0  0  0  0  0  0  0  0  0  0  0  0
  -22.3440  -14.6190   20.5460 O   0  0  0  0  0  0  0  0  0  0  0  0
  -22.4090  -12.0800   22.3910 H   0  0  0  0  0  0  0  0  0  0  0  0
  -21.1000  -13.2020   22.1480 H   0  0  0  0  0  0  0  0  0  0  0  0
  -25.4090  -15.2760   20.2850 N   0  0  0  0  0  0  0  0  0  0  0  0
  -24.6410  -15.9290   20.3880 H   0  0  0  0  0  0  0  0  0  0  0  0
  -26.2650  -15.7180   19.9750 H   0  0  0  0  0  0  0  0  0  0  0  0
  2  3  1  0
  3  1  2  0
  4  1  1  0
  4  7  1  0
  5  2  2  0
  5  6  1  0
  6  4  2  0
  8  5  1  0
  9  8  1  0
 10  8  1  0
 11 13  1  0
 11  6  1  0
 12 23  2  0
 13 18  1  0
 14 22  1  0
 14 24  1  0
 15 21  1  0
 15 17  1  0
 16 22  1  0
 17 16  1  0
 18 17  2  0
 19 20  1  0
 19 13  2  0
 20 15  2  0
 21 14  1  0
 22 12  1  0
 24 26  2  0
 25 24  1  0
 27 25  1  0
 28 37  2  0
 28 33  1  0
 29 25  1  0
 29 33  1  0
 30 29  1  0
 31 32  1  0
 31 30  1  0
 32 28  1  0
 33 34  2  0
 34 35  1  0
 36 35  2  0
 37 36  1  0
 38 12  1  0
 38 39  1  0
 38 48  1  0
 39 42  1  0
 40 44  1  0
 40 39  1  0
 41 40  2  0
 44 43  1  0
 46 44  1  0
 46 47  1  0
 46 45  1  0
 48 51  1  1
 48 49  1  0
 50 48  1  0
 52  3  1  0
 52 53  2  0
 54 53  1  0
 54 55  2  0
 56 55  1  0
 57 62  1  0
 58 59  1  0
 58 57  1  0
 60 59  1  0
 60 67  1  0
 60 61  1  0
 62 56  1  0
 62 61  1  0
 63 56  2  0
 64 65  2  0
 65 84  1  0
 66 65  1  0
 66 69  1  0
 67 64  1  0
 67 68  1  0
 68 66  2  0
 69 70  1  0
 70 71  2  0
 72 75  1  0
 72 71  1  0
 73 72  2  0
 74 73  1  0
 74 69  2  0
 75 76  1  0
 76 77  1  0
 77 78  2  0
 79 78  1  0
 79 83  1  0
 80 79  2  0
 81 76  2  0
 81 80  1  0
 82 81  1  0
 84 85  1  0
 85 88  1  0
 85 87  1  0
 86 84  2  0
 89 90  1  0
 89 64  1  0
 91 89  1  0
M  ISO  4   6 101  11 101  55 100  56 100
M  END
>  <TORSDO>  (3) 
F 21

>  <SCORE>  (3) 
-13.531

>  <name>  (3) 
2

>  <ligand_id>  (3) 
2

>  <original_smiles>  (3) 
[H]c1c([H])c([H])c2c(c1[H])C([H])([H])C([H])([H])C([H])([H])C2([H])N([H])C(=O)C1([H])N(C(=O)C([H])(N([H])C(=O)C([H])(N([H])C([H])([H])[H])C([H])([H])[H])C(C([H])([H])[H])(C([H])([H])[H])C([H])([H])[H])C([H])([H])c2c([H])c(Oc3c(N([H])[H])c([H])c(C([H])([H])C([H])([H])C([H])([H])C([H])([H])C(=O)N4C([H])([H])C([H])([H])C([H])([H])C([H])(n5nc(-c6c([H])c([H])c(Oc7c([H])c([H])c(F)c([H])c7F)c([H])c6[H])c(C(=O)N([H])[H])c5N([H])[H])C4([H])[H])c([H])c3C([H])([H])[H])c([H])c([H])c2C1([H])[H]

>  <smiles>  (3) 
[H]c1c([H])c([H])c2c(c1[H])C([H])([H])C([H])([H])C([H])([H])C2([H])N([H])C(=O)C1([H])N(C(=O)C([H])(N([H])C(=O)C([H])(N([H])C([H])([H])[H])C([H])([H])[H])C(C([H])([H])[H])(C([H])([H])[H])C([H])([H])[H])C([H])([H])c2c([H])c(Oc3c(N([H])[H])c([H])c(C([H])([H])C([H])([H])C([H])([H])C([H])([H])C(=O)N4C([H])([H])C([H])([H])C([H])([H])C([H])(n5nc(-c6c([H])c([H])c(Oc7c([H])c([H])c(F)c([H])c7F)c([H])c6[H])c(C(=O)N([H])[H])c5N([H])[H])C4([H])[H])c([H])c3C([H])([H])[H])c([H])c([H])c2C1([H])[H]

$$$$
3:0:0
     RDKit          3D

 94103  0  0  1  0  0  0  0  0999 V2000
  -27.3740  -23.0050   21.7060 C   0  0  0  0  0  3  0  0  0  0  0  0
  -27.1240  -25.4340   21.6390 C   0  0  0  0  0  3  0  0  0  0  0  0
  -28.6720  -24.3300   20.1220 C   0  0  0  0  0  3  0  0  0  0  0  0
  -26.7750  -24.1860   22.1880 C   0  0  0  0  0  0  0  0  0  0  0  0
  -28.3420  -23.0430   20.6780 C   0  0  0  0  0  0  0  0  0  0  0  0
  -28.0490  -25.5450   20.5710 C   0  0  0  0  0  0  0  0  0  0  0  0
  -25.7170  -24.1200   23.2730 C   0  0  0  0  0  1  0  0  0  0  0  0
  -28.2780  -26.8100   19.9880 O   0  0  0  0  0  0  0  0  0  0  0  0
  -24.5860  -32.0000   23.2510 C   0  0  0  0  0  0  0  0  0  0  0  0
  -27.1930  -27.6790   19.9380 C   0  0  0  0  0  0  0  0  0  0  0  0
  -23.3620  -30.6550   21.5780 C   0  0  0  0  0  3  0  0  0  0  0  0
  -24.8010  -29.2020   20.0470 C   0  0  0  0  0  0  0  0  0  0  0  0
  -25.8860  -31.0390   21.3490 C   0  0  0  0  0  2  0  0  0  0  0  0
  -25.9720  -29.6990   20.6400 C   0  0  0  0  0  0  0  0  0  0  0  0
  -27.1730  -28.9420   20.5880 C   0  0  0  0  0  3  0  0  0  0  0  0
  -26.0160  -27.2290   19.3030 C   0  0  0  0  0  3  0  0  0  0  0  0
  -24.8200  -27.9660   19.3760 C   0  0  0  0  0  3  0  0  0  0  0  0
  -23.5500  -30.0450   20.1630 C   0  0  0  0  0  2  0  0  0  0  0  0
  -24.6290  -31.2480   22.1150 N   0  0  0  0  0  0  0  0  0  0  0  0
  -23.5110  -32.2350   23.8230 O   0  0  0  0  0  0  0  0  0  0  0  0
  -22.7480  -29.5810   22.5070 C   0  0  0  0  0  0  0  0  0  0  0  0
  -21.4250  -29.3700   22.3930 N   0  0  0  0  0  0  0  0  0  0  0  0
  -23.4550  -28.9410   23.2890 O   0  0  0  0  0  0  0  0  0  0  0  0
  -20.9090  -29.9400   21.7370 H   0  0  0  0  0  0  0  0  0  0  0  0
  -18.0940  -28.0510   22.8730 C   0  0  0  0  0  0  0  0  0  0  0  0
  -20.6430  -28.3870   23.1410 C   0  0  0  0  0  3  0  0  0  0  0  0
  -20.7890  -26.9740   22.5280 C   0  0  0  0  0  2  0  0  0  0  0  0
  -19.6920  -26.6430   21.5110 C   0  0  0  0  0  2  0  0  0  0  0  0
  -18.3090  -26.7270   22.1620 C   0  0  0  0  0  2  0  0  0  0  0  0
  -19.1880  -28.8380   23.3210 C   0  0  0  0  0  0  0  0  0  0  0  0
  -18.9290  -30.0790   23.9420 C   0  0  0  0  0  3  0  0  0  0  0  0
  -17.6080  -30.5310   24.1270 C   0  0  0  0  0  3  0  0  0  0  0  0
  -16.5280  -29.7410   23.6950 C   0  0  0  0  0  3  0  0  0  0  0  0
  -16.7730  -28.5040   23.0710 C   0  0  0  0  0  3  0  0  0  0  0  0
  -25.8760  -32.6240   23.8680 C   0  0  0  0  0  3  0  0  0  0  0  0
  -26.4050  -31.8370   25.1290 C   0  0  1  0  0  0  0  0  0  0  0  0
  -25.3180  -31.5760   26.1970 C   0  0  0  0  0  1  0  0  0  0  0  0
  -27.0010  -30.4710   24.7140 C   0  0  0  0  0  1  0  0  0  0  0  0
  -27.5490  -32.6340   25.7980 C   0  0  0  0  0  1  0  0  0  0  0  0
  -25.5690  -34.0200   24.2140 N   0  0  0  0  0  0  0  0  0  0  0  0
  -25.8920  -35.0780   23.4600 C   0  0  0  0  0  0  0  0  0  0  0  0
  -26.5500  -34.9840   22.4200 O   0  0  0  0  0  0  0  0  0  0  0  0
  -24.9870  -34.1710   25.0250 H   0  0  0  0  0  0  0  0  0  0  0  0
  -24.1560  -36.8670   23.1440 C   0  0  0  0  0  1  0  0  0  0  0  0
  -25.4090  -36.4610   23.9350 C   0  0  0  0  0  3  0  0  0  0  0  0
  -27.5560  -37.3440   24.7340 C   0  0  0  0  0  1  0  0  0  0  0  0
  -26.4380  -37.5160   23.8120 N   0  0  0  0  0  0  0  0  0  0  0  0
  -26.0310  -38.4350   23.9690 H   0  0  0  0  0  0  0  0  0  0  0  0
  -28.9060  -21.6890   20.1250 C   0  0  0  0  0  3  0  0  0  0  0  0
  -29.5560  -20.6920   21.1710 C   0  0  0  0  0  3  0  0  0  0  0  0
  -29.6840  -18.6160   19.5490 C   0  0  0  0  0  3  0  0  0  0  0  0
  -30.2610  -18.3080   21.8560 C   0  0  0  0  0  3  0  0  0  0  0  0
  -30.5200  -16.3760   20.3110 C   0  0  0  0  0  0  0  0  0  0  0  0
  -29.8160  -19.1840   20.8340 C   0  0  0  0  0  0  0  0  0  0  0  0
  -30.0410  -17.2610   19.2810 C   0  0  0  0  0  0  0  0  0  0  0  0
  -30.6230  -16.9510   21.6150 C   0  0  0  0  0  0  0  0  0  0  0  0
  -29.9530  -16.8130   17.8240 C   0  0  0  0  0  1  0  0  0  0  0  0
  -31.2370  -16.2000   22.7900 C   0  0  0  0  0  1  0  0  0  0  0  0
  -31.1330  -15.0010   19.9550 C   0  0  0  0  0  0  0  0  0  0  0  0
  -30.7560  -12.7560   18.9700 C   0  0  0  0  0  2  0  0  0  0  0  0
  -29.7880  -12.8880   17.7740 C   0  0  0  0  0  2  0  0  0  0  0  0
  -28.3250  -12.7960   18.2460 C   0  0  0  0  0  2  0  0  0  0  0  0
  -28.0240  -13.6680   19.5010 C   0  0  0  0  0  3  0  0  0  0  0  0
  -29.1280  -13.5510   20.5710 C   0  0  0  0  0  2  0  0  0  0  0  0
  -30.4230  -13.8250   19.9350 N   0  0  0  0  0  0  0  0  0  0  0  0
  -32.2810  -15.0370   19.5040 O   0  0  0  0  0  0  0  0  0  0  0  0
  -25.6900  -14.2590   20.4020 C   0  0  0  0  0  0  0  0  0  0  0  0
  -24.6320  -13.4880   20.7930 C   0  0  0  0  0  0  0  0  0  0  0  0
  -25.0630  -12.1310   20.6620 C   0  0  0  0  0  0  0  0  0  0  0  0
  -26.7020  -13.3780   20.0550 N   0  0  0  0  0  0  0  0  0  0  0  0
  -26.3310  -12.0880   20.2720 N   0  0  0  0  0  0  0  0  0  0  0  0
  -24.3220  -10.8710   20.8250 C   0  0  0  0  0  0  0  0  0  0  0  0
  -24.7310   -9.8810   21.7450 C   0  0  0  0  0  3  0  0  0  0  0  0
  -23.9870   -8.6920   21.8950 C   0  0  0  0  0  3  0  0  0  0  0  0
  -22.8190   -8.4800   21.1250 C   0  0  0  0  0  0  0  0  0  0  0  0
  -22.4300   -9.4590   20.1930 C   0  0  0  0  0  3  0  0  0  0  0  0
  -23.1740  -10.6400   20.0400 C   0  0  0  0  0  3  0  0  0  0  0  0
  -22.0480   -7.3440   21.1840 O   0  0  0  0  0  0  0  0  0  0  0  0
  -21.9000   -6.6340   22.3490 C   0  0  0  0  0  0  0  0  0  0  0  0
  -21.3940   -7.2320   23.5240 C   0  0  0  0  0  3  0  0  0  0  0  0
  -21.1930   -6.4540   24.6810 C   0  0  0  0  0  3  0  0  0  0  0  0
  -21.4810   -5.0760   24.6620 C   0  0  0  0  0  0  0  0  0  0  0  0
  -21.9750   -4.4750   23.4910 C   0  0  0  0  0  3  0  0  0  0  0  0
  -22.1810   -5.2520   22.3360 C   0  0  0  0  0  0  0  0  0  0  0  0
  -22.6370   -4.6640   21.2050 F   0  0  0  0  0  0  0  0  0  0  0  0
  -21.2810   -4.3260   25.7710 F   0  0  0  0  0  0  0  0  0  0  0  0
  -23.2640  -13.9770   21.1730 C   0  0  0  0  0  0  0  0  0  0  0  0
  -22.5870  -13.2680   22.0670 N   0  0  0  0  0  0  0  0  0  0  0  0
  -22.8090  -15.0250   20.7130 O   0  0  0  0  0  0  0  0  0  0  0  0
  -22.9760  -12.4250   22.4630 H   0  0  0  0  0  0  0  0  0  0  0  0
  -21.6670  -13.5710   22.3620 H   0  0  0  0  0  0  0  0  0  0  0  0
  -25.8680  -15.6330   20.2850 N   0  0  0  0  0  0  0  0  0  0  0  0
  -25.1040  -16.2830   20.4340 H   0  0  0  0  0  0  0  0  0  0  0  0
  -26.6910  -16.0720   19.8900 H   0  0  0  0  0  0  0  0  0  0  0  0
  1  4  1  0
  2  4  2  0
  3  6  2  0
  3  5  1  0
  4  7  1  0
  5  1  2  0
  6  2  1  0
  8  6  1  0
  9 20  2  0
 10  8  1  0
 10 15  1  0
 11 19  1  0
 11 21  1  0
 12 18  1  0
 12 14  1  0
 13 19  1  0
 14 13  1  0
 15 14  2  0
 16 17  1  0
 16 10  2  0
 17 12  2  0
 18 11  1  0
 19  9  1  0
 21 23  2  0
 22 21  1  0
 24 22  1  0
 25 34  2  0
 25 30  1  0
 26 22  1  0
 26 30  1  0
 27 26  1  0
 28 29  1  0
 28 27  1  0
 29 25  1  0
 30 31  2  0
 31 32  1  0
 33 32  2  0
 34 33  1  0
 35  9  1  0
 35 40  1  0
 35 36  1  0
 36 39  1  1
 36 37  1  0
 38 36  1  0
 40 43  1  0
 41 45  1  0
 41 40  1  0
 42 41  2  0
 45 44  1  0
 47 45  1  0
 47 48  1  0
 47 46  1  0
 49  5  1  0
 49 50  2  0
 51 54  1  0
 53 56  2  0
 54 50  1  0
 54 52  2  0
 55 51  2  0
 55 53  1  0
 56 52  1  0
 56 58  1  0
 57 55  1  0
 59 53  1  0
 60 65  1  0
 61 62  1  0
 61 60  1  0
 63 62  1  0
 63 70  1  0
 63 64  1  0
 65 59  1  0
 65 64  1  0
 66 59  2  0
 67 68  2  0
 68 87  1  0
 69 68  1  0
 69 72  1  0
 70 71  1  0
 70 67  1  0
 71 69  2  0
 72 73  1  0
 73 74  2  0
 75 78  1  0
 75 74  1  0
 76 75  2  0
 77 76  1  0
 77 72  2  0
 78 79  1  0
 79 80  1  0
 80 81  2  0
 82 81  1  0
 82 86  1  0
 83 82  2  0
 84 79  2  0
 84 83  1  0
 85 84  1  0
 87 88  1  0
 88 91  1  0
 88 90  1  0
 89 87  2  0
 92 67  1  0
 92 93  1  0
 94 92  1  0
M  ISO  4   6 101   8 101  53 100  59 100
M  END
>  <TORSDO>  (4) 
F 19

>  <SCORE>  (4) 
-11.121

>  <name>  (4) 
3

>  <ligand_id>  (4) 
3

>  <original_smiles>  (4) 
[H]c1c([H])c([H])c2c(c1[H])C([H])([H])C([H])([H])C([H])([H])C2([H])N([H])C(=O)C1([H])N(C(=O)C([H])(N([H])C(=O)C([H])(N([H])C([H])([H])[H])C([H])([H])[H])C(C([H])([H])[H])(C([H])([H])[H])C([H])([H])[H])C([H])([H])c2c([H])c(Oc3c([H])c(C([H])([H])[H])c([H])c(C([H])([H])C([H])([H])c4c([H])c(C([H])([H])[H])c(C(=O)N5C([H])([H])C([H])([H])C([H])([H])C([H])(n6nc(-c7c([H])c([H])c(Oc8c([H])c([H])c(F)c([H])c8F)c([H])c7[H])c(C(=O)N([H])[H])c6N([H])[H])C5([H])[H])c(C([H])([H])[H])c4[H])c3[H])c([H])c([H])c2C1([H])[H]

>  <smiles>  (4) 
[H]c1c([H])c([H])c2c(c1[H])C([H])([H])C([H])([H])C([H])([H])C2([H])N([H])C(=O)C1([H])N(C(=O)C([H])(N([H])C(=O)C([H])(N([H])C([H])([H])[H])C([H])([H])[H])C(C([H])([H])[H])(C([H])([H])[H])C([H])([H])[H])C([H])([H])c2c([H])c(Oc3c([H])c(C([H])([H])[H])c([H])c(C([H])([H])C([H])([H])c4c([H])c(C([H])([H])[H])c(C(=O)N5C([H])([H])C([H])([H])C([H])([H])C([H])(n6nc(-c7c([H])c([H])c(Oc8c([H])c([H])c(F)c([H])c8F)c([H])c7[H])c(C(=O)N([H])[H])c6N([H])[H])C5([H])[H])c(C([H])([H])[H])c4[H])c3[H])c([H])c([H])c2C1([H])[H]

$$$$
4:0:0
     RDKit          3D

 94102  0  0  1  0  0  0  0  0999 V2000
  -29.0270  -23.5220   21.4510 C   0  0  0  0  0  3  0  0  0  0  0  0
  -28.8630  -23.3990   19.0260 C   0  0  0  0  0  3  0  0  0  0  0  0
  -29.1020  -22.7550   20.2670 C   0  0  0  0  0  0  0  0  0  0  0  0
  -28.7330  -24.8960   21.4160 C   0  0  0  0  0  0  0  0  0  0  0  0
  -28.6110  -24.7910   18.9760 C   0  0  0  0  0  0  0  0  0  0  0  0
  -28.5400  -25.5380   20.1740 C   0  0  0  0  0  0  0  0  0  0  0  0
  -28.6830  -25.6770   22.7180 C   0  0  0  0  0  1  0  0  0  0  0  0
  -28.4750  -25.4840   17.6270 C   0  0  0  0  0  1  0  0  0  0  0  0
  -29.5180  -21.3220   20.3950 C   0  0  0  0  0  0  0  0  0  0  0  0
  -30.0610  -20.9040   21.4220 O   0  0  0  0  0  0  0  0  0  0  0  0
  -29.2500  -20.3440   19.2340 C   0  0  0  0  0  2  0  0  0  0  0  0
  -30.1600  -19.0900   19.2290 C   0  0  0  0  0  2  0  0  0  0  0  0
  -29.9100  -18.0420   20.3380 C   0  0  0  0  0  2  0  0  0  0  0  0
  -31.2380  -17.4930   20.8940 C   0  0  0  0  0  2  0  0  0  0  0  0
  -31.0860  -16.3230   21.8890 C   0  0  0  0  0  2  0  0  0  0  0  0
  -30.7410  -14.3990   20.3400 C   0  0  0  0  0  0  0  0  0  0  0  0
  -30.2900  -12.3560   19.0450 C   0  0  0  0  0  2  0  0  0  0  0  0
  -29.3120  -12.6320   17.8890 C   0  0  0  0  0  2  0  0  0  0  0  0
  -27.8610  -12.4750   18.3720 C   0  0  0  0  0  2  0  0  0  0  0  0
  -27.5790  -13.2900   19.6590 C   0  0  0  0  0  3  0  0  0  0  0  0
  -28.6580  -13.0220   20.7300 C   0  0  0  0  0  2  0  0  0  0  0  0
  -29.9830  -13.2910   20.1350 N   0  0  0  0  0  0  0  0  0  0  0  0
  -31.7490  -14.6630   19.6790 O   0  0  0  0  0  0  0  0  0  0  0  0
  -30.3520  -15.1760   21.3560 N   0  0  0  0  0  0  0  0  0  0  0  0
  -29.5340  -14.8720   21.8670 H   0  0  0  0  0  0  0  0  0  0  0  0
  -25.2030  -13.9140   20.4340 C   0  0  0  0  0  0  0  0  0  0  0  0
  -24.1420  -13.1440   20.8300 C   0  0  0  0  0  0  0  0  0  0  0  0
  -24.5960  -11.7900   20.7840 C   0  0  0  0  0  0  0  0  0  0  0  0
  -26.2370  -13.0260   20.1720 N   0  0  0  0  0  0  0  0  0  0  0  0
  -25.8760  -11.7470   20.4400 N   0  0  0  0  0  0  0  0  0  0  0  0
  -23.8730  -10.5290   20.9960 C   0  0  0  0  0  0  0  0  0  0  0  0
  -24.3390   -9.5540   21.9060 C   0  0  0  0  0  3  0  0  0  0  0  0
  -23.6180   -8.3580   22.1020 C   0  0  0  0  0  3  0  0  0  0  0  0
  -22.4190   -8.1270   21.3880 C   0  0  0  0  0  0  0  0  0  0  0  0
  -21.9720   -9.0900   20.4680 C   0  0  0  0  0  3  0  0  0  0  0  0
  -22.6910  -10.2790   20.2690 C   0  0  0  0  0  3  0  0  0  0  0  0
  -21.6660   -6.9820   21.4950 O   0  0  0  0  0  0  0  0  0  0  0  0
  -21.6700   -6.2220   22.6380 C   0  0  0  0  0  0  0  0  0  0  0  0
  -21.3210   -6.7650   23.8930 C   0  0  0  0  0  3  0  0  0  0  0  0
  -21.2680   -5.9330   25.0300 C   0  0  0  0  0  3  0  0  0  0  0  0
  -21.5560   -4.5600   24.9100 C   0  0  0  0  0  0  0  0  0  0  0  0
  -21.9010   -4.0160   23.6600 C   0  0  0  0  0  3  0  0  0  0  0  0
  -21.9570   -4.8470   22.5260 C   0  0  0  0  0  0  0  0  0  0  0  0
  -22.2670   -4.3170   21.3200 F   0  0  0  0  0  0  0  0  0  0  0  0
  -21.4990   -3.7580   26.0000 F   0  0  0  0  0  0  0  0  0  0  0  0
  -22.7560  -13.6270   21.1470 C   0  0  0  0  0  0  0  0  0  0  0  0
  -22.0530  -12.9290   22.0340 N   0  0  0  0  0  0  0  0  0  0  0  0
  -22.3040  -14.6550   20.6450 O   0  0  0  0  0  0  0  0  0  0  0  0
  -22.4310  -12.0960   22.4620 H   0  0  0  0  0  0  0  0  0  0  0  0
  -21.1250  -13.2300   22.2930 H   0  0  0  0  0  0  0  0  0  0  0  0
  -25.3710  -15.2840   20.2570 N   0  0  0  0  0  0  0  0  0  0  0  0
  -24.6130  -15.9430   20.3910 H   0  0  0  0  0  0  0  0  0  0  0  0
  -26.2240  -15.7210   19.9330 H   0  0  0  0  0  0  0  0  0  0  0  0
  -28.4300  -26.9010   20.1280 O   0  0  0  0  0  0  0  0  0  0  0  0
  -24.5980  -31.9570   23.2800 C   0  0  0  0  0  0  0  0  0  0  0  0
  -27.2110  -27.5270   20.1920 C   0  0  0  0  0  0  0  0  0  0  0  0
  -23.3730  -30.5490   21.6540 C   0  0  0  0  0  3  0  0  0  0  0  0
  -24.8040  -28.9980   20.2240 C   0  0  0  0  0  0  0  0  0  0  0  0
  -25.8880  -30.9090   21.4290 C   0  0  0  0  0  2  0  0  0  0  0  0
  -25.9620  -29.5340   20.8020 C   0  0  0  0  0  0  0  0  0  0  0  0
  -27.1650  -28.8000   20.7900 C   0  0  0  0  0  3  0  0  0  0  0  0
  -26.0400  -26.9910   19.6130 C   0  0  0  0  0  3  0  0  0  0  0  0
  -24.8370  -27.7210   19.6320 C   0  0  0  0  0  3  0  0  0  0  0  0
  -23.5620  -29.8560   20.2760 C   0  0  0  0  0  2  0  0  0  0  0  0
  -24.6390  -31.1540   22.1790 N   0  0  0  0  0  0  0  0  0  0  0  0
  -23.5230  -32.2310   23.8300 O   0  0  0  0  0  0  0  0  0  0  0  0
  -22.7270  -29.5370   22.6280 C   0  0  0  0  0  0  0  0  0  0  0  0
  -21.4060  -29.3400   22.4950 N   0  0  0  0  0  0  0  0  0  0  0  0
  -23.4120  -28.9280   23.4570 O   0  0  0  0  0  0  0  0  0  0  0  0
  -20.9160  -29.8850   21.8010 H   0  0  0  0  0  0  0  0  0  0  0  0
  -18.0470  -28.1010   22.9740 C   0  0  0  0  0  0  0  0  0  0  0  0
  -20.5960  -28.4040   23.2730 C   0  0  0  0  0  3  0  0  0  0  0  0
  -20.7300  -26.9640   22.7270 C   0  0  0  0  0  2  0  0  0  0  0  0
  -19.6460  -26.6040   21.7060 C   0  0  0  0  0  2  0  0  0  0  0  0
  -18.2520  -26.7430   22.3260 C   0  0  0  0  0  2  0  0  0  0  0  0
  -19.1490  -28.8880   23.4040 C   0  0  0  0  0  0  0  0  0  0  0  0
  -18.9050  -30.1610   23.9640 C   0  0  0  0  0  3  0  0  0  0  0  0
  -17.5920  -30.6470   24.1020 C   0  0  0  0  0  3  0  0  0  0  0  0
  -16.5040  -29.8570   23.6910 C   0  0  0  0  0  3  0  0  0  0  0  0
  -16.7330  -28.5870   23.1340 C   0  0  0  0  0  3  0  0  0  0  0  0
  -25.8920  -32.5850   23.8880 C   0  0  0  0  0  3  0  0  0  0  0  0
  -25.5950  -33.9860   24.2130 N   0  0  0  0  0  0  0  0  0  0  0  0
  -25.9160  -35.0310   23.4390 C   0  0  0  0  0  0  0  0  0  0  0  0
  -26.5670  -34.9170   22.3950 O   0  0  0  0  0  0  0  0  0  0  0  0
  -25.0330  -34.1520   25.0340 H   0  0  0  0  0  0  0  0  0  0  0  0
  -24.1800  -36.8160   23.1030 C   0  0  0  0  0  1  0  0  0  0  0  0
  -25.4380  -36.4250   23.8930 C   0  0  0  0  0  3  0  0  0  0  0  0
  -27.5930  -37.3150   24.6640 C   0  0  0  0  0  1  0  0  0  0  0  0
  -26.4690  -37.4760   23.7450 N   0  0  0  0  0  0  0  0  0  0  0  0
  -26.0690  -38.4000   23.8880 H   0  0  0  0  0  0  0  0  0  0  0  0
  -26.4200  -31.8150   25.1610 C   0  0  1  0  0  0  0  0  0  0  0  0
  -25.3400  -31.5770   26.2460 C   0  0  0  0  0  1  0  0  0  0  0  0
  -26.9990  -30.4390   24.7580 C   0  0  0  0  0  1  0  0  0  0  0  0
  -27.5800  -32.6080   25.8050 C   0  0  0  0  0  1  0  0  0  0  0  0
  2  3  1  0
  3  9  1  0
  3  1  2  0
  4  1  1  0
  4  7  1  0
  5  2  2  0
  5  6  1  0
  6  4  2  0
  8  5  1  0
  9 10  2  0
 11  9  1  0
 12 11  1  0
 12 13  1  0
 13 14  1  0
 14 15  1  0
 16 24  1  0
 17 22  1  0
 18 19  1  0
 18 17  1  0
 20 19  1  0
 20 29  1  0
 20 21  1  0
 22 16  1  0
 22 21  1  0
 23 16  2  0
 24 25  1  0
 24 15  1  0
 26 27  2  0
 27 46  1  0
 28 27  1  0
 28 31  1  0
 29 26  1  0
 29 30  1  0
 30 28  2  0
 31 32  1  0
 32 33  2  0
 34 37  1  0
 34 33  1  0
 35 34  2  0
 36 35  1  0
 36 31  2  0
 37 38  1  0
 38 39  1  0
 39 40  2  0
 41 40  1  0
 41 45  1  0
 42 41  2  0
 43 38  2  0
 43 42  1  0
 44 43  1  0
 46 47  1  0
 47 50  1  0
 47 49  1  0
 48 46  2  0
 51 52  1  0
 51 26  1  0
 53 51  1  0
 54  6  1  0
 54 56  1  0
 55 66  2  0
 56 61  1  0
 57 65  1  0
 57 67  1  0
 58 64  1  0
 58 60  1  0
 59 65  1  0
 60 59  1  0
 61 60  2  0
 62 63  1  0
 62 56  2  0
 63 58  2  0
 64 57  1  0
 65 55  1  0
 67 69  2  0
 68 67  1  0
 70 68  1  0
 71 80  2  0
 71 76  1  0
 72 68  1  0
 72 76  1  0
 73 72  1  0
 74 75  1  0
 74 73  1  0
 75 71  1  0
 76 77  2  0
 77 78  1  0
 79 78  2  0
 80 79  1  0
 81 55  1  0
 81 82  1  0
 81 91  1  0
 82 85  1  0
 83 87  1  0
 83 82  1  0
 84 83  2  0
 87 86  1  0
 89 90  1  0
 89 87  1  0
 89 88  1  0
 91 94  1  1
 91 92  1  0
 93 91  1  0
M  ISO  4   6 101  16 100  24 100  54 101
M  END
>  <TORSDO>  (5) 
F 22

>  <SCORE>  (5) 
-13.334

>  <name>  (5) 
4

>  <ligand_id>  (5) 
4

>  <original_smiles>  (5) 
[H]c1c([H])c([H])c2c(c1[H])C([H])([H])C([H])([H])C([H])([H])C2([H])N([H])C(=O)C1([H])N(C(=O)C([H])(N([H])C(=O)C([H])(N([H])C([H])([H])[H])C([H])([H])[H])C(C([H])([H])[H])(C([H])([H])[H])C([H])([H])[H])C([H])([H])c2c([H])c(Oc3c(C([H])([H])[H])c([H])c(C(=O)C([H])([H])C([H])([H])C([H])([H])C([H])([H])C([H])([H])N([H])C(=O)N4C([H])([H])C([H])([H])C([H])([H])C([H])(n5nc(-c6c([H])c([H])c(Oc7c([H])c([H])c(F)c([H])c7F)c([H])c6[H])c(C(=O)N([H])[H])c5N([H])[H])C4([H])[H])c([H])c3C([H])([H])[H])c([H])c([H])c2C1([H])[H]

>  <smiles>  (5) 
[H]c1c([H])c([H])c2c(c1[H])C([H])([H])C([H])([H])C([H])([H])C2([H])N([H])C(=O)C1([H])N(C(=O)C([H])(N([H])C(=O)C([H])(N([H])C([H])([H])[H])C([H])([H])[H])C(C([H])([H])[H])(C([H])([H])[H])C([H])([H])[H])C([H])([H])c2c([H])c(Oc3c(C([H])([H])[H])c([H])c(C(=O)C([H])([H])C([H])([H])C([H])([H])C([H])([H])C([H])([H])N([H])C(=O)N4C([H])([H])C([H])([H])C([H])([H])C([H])(n5nc(-c6c([H])c([H])c(Oc7c([H])c([H])c(F)c([H])c7F)c([H])c6[H])c(C(=O)N([H])[H])c5N([H])[H])C4([H])[H])c([H])c3C([H])([H])[H])c([H])c([H])c2C1([H])[H]

$$$$
5:0:0
     RDKit          3D

 91 99  0  0  1  0  0  0  0  0999 V2000
  -29.1820  -23.8090   19.2740 C   0  0  0  0  0  3  0  0  0  0  0  0
  -28.8840  -21.4130   20.3120 C   0  0  0  0  0  0  0  0  0  0  0  0
  -28.3930  -24.6490   20.1710 C   0  0  0  0  0  0  0  0  0  0  0  0
  -27.8800  -23.7210   21.1680 C   0  0  0  0  0  0  0  0  0  0  0  0
  -29.4020  -22.3400   19.3170 C   0  0  0  0  0  0  0  0  0  0  0  0
  -28.0980  -22.2470   21.2220 C   0  0  0  0  0  0  0  0  0  0  0  0
  -30.1450  -21.8030   18.3190 F   0  0  0  0  0  0  0  0  0  0  0  0
  -27.4750  -21.5890   22.2320 F   0  0  0  0  0  0  0  0  0  0  0  0
  -27.1300  -24.2820   22.1620 O   0  0  0  0  0  0  0  0  0  0  0  0
  -27.0490  -25.2220   22.0440 H   0  0  0  0  0  0  0  0  0  0  0  0
  -28.3530  -26.1780   20.1490 O   0  0  0  0  0  0  0  0  0  0  0  0
  -24.7570  -31.9900   23.2990 C   0  0  0  0  0  0  0  0  0  0  0  0
  -27.2800  -27.1960   20.1730 C   0  0  0  0  0  0  0  0  0  0  0  0
  -23.5390  -30.6170   21.6560 C   0  0  0  0  0  3  0  0  0  0  0  0
  -24.9670  -29.0350   20.1910 C   0  0  0  0  0  0  0  0  0  0  0  0
  -26.0970  -30.8450   21.4710 C   0  0  0  0  0  2  0  0  0  0  0  0
  -26.1580  -29.4460   20.8000 C   0  0  0  0  0  0  0  0  0  0  0  0
  -27.3080  -28.5460   20.7690 C   0  0  0  0  0  3  0  0  0  0  0  0
  -26.0580  -26.9210   19.5220 C   0  0  0  0  0  3  0  0  0  0  0  0
  -24.9380  -27.7920   19.5360 C   0  0  0  0  0  3  0  0  0  0  0  0
  -23.7460  -29.9500   20.2670 C   0  0  0  0  0  2  0  0  0  0  0  0
  -24.8190  -31.1770   22.1950 N   0  0  0  0  0  0  0  0  0  0  0  0
  -23.6770  -32.2690   23.8420 O   0  0  0  0  0  0  0  0  0  0  0  0
  -22.8640  -29.6050   22.6170 C   0  0  0  0  0  0  0  0  0  0  0  0
  -21.5390  -29.4120   22.4840 N   0  0  0  0  0  0  0  0  0  0  0  0
  -23.5390  -28.9930   23.4490 O   0  0  0  0  0  0  0  0  0  0  0  0
  -21.0470  -29.9570   21.7910 H   0  0  0  0  0  0  0  0  0  0  0  0
  -18.1840  -28.1210   22.9590 C   0  0  0  0  0  0  0  0  0  0  0  0
  -20.7320  -28.4560   23.2500 C   0  0  0  0  0  3  0  0  0  0  0  0
  -20.8780  -27.0250   22.6830 C   0  0  0  0  0  2  0  0  0  0  0  0
  -19.7960  -26.6690   21.6580 C   0  0  0  0  0  2  0  0  0  0  0  0
  -18.4040  -26.7760   22.2860 C   0  0  0  0  0  2  0  0  0  0  0  0
  -19.2760  -28.9160   23.3970 C   0  0  0  0  0  0  0  0  0  0  0  0
  -19.0130  -30.1710   23.9900 C   0  0  0  0  0  3  0  0  0  0  0  0
  -17.6920  -30.6320   24.1460 C   0  0  0  0  0  3  0  0  0  0  0  0
  -16.6150  -29.8350   23.7210 C   0  0  0  0  0  3  0  0  0  0  0  0
  -16.8610  -28.5810   23.1340 C   0  0  0  0  0  3  0  0  0  0  0  0
  -26.0390  -32.6220   23.9210 C   0  0  0  0  0  3  0  0  0  0  0  0
  -26.5640  -31.8400   25.1880 C   0  0  1  0  0  0  0  0  0  0  0  0
  -25.4780  -31.5920   26.2620 C   0  0  0  0  0  1  0  0  0  0  0  0
  -27.1450  -30.4650   24.7870 C   0  0  0  0  0  1  0  0  0  0  0  0
  -27.7190  -32.6280   25.8490 C   0  0  0  0  0  1  0  0  0  0  0  0
  -25.7260  -34.0170   24.2810 N   0  0  0  0  0  0  0  0  0  0  0  0
  -26.0070  -35.0870   23.5240 C   0  0  0  0  0  0  0  0  0  0  0  0
  -26.6190  -35.0040   22.4560 O   0  0  0  0  0  0  0  0  0  0  0  0
  -25.1740  -34.1530   25.1140 H   0  0  0  0  0  0  0  0  0  0  0  0
  -24.2310  -36.8600   23.3200 C   0  0  0  0  0  1  0  0  0  0  0  0
  -25.5350  -36.4650   24.0290 C   0  0  0  0  0  3  0  0  0  0  0  0
  -27.7080  -37.3900   24.7120 C   0  0  0  0  0  1  0  0  0  0  0  0
  -26.5400  -37.5370   23.8450 N   0  0  0  0  0  0  0  0  0  0  0  0
  -26.1300  -38.4500   24.0190 H   0  0  0  0  0  0  0  0  0  0  0  0
  -28.8880  -19.6680   20.3240 C   0  0  0  0  0  3  0  0  0  0  0  0
  -30.0660  -18.3380   20.3500 C   0  0  0  0  0  3  0  0  0  0  0  0
  -30.6090  -15.4590   20.2550 C   0  0  0  0  0  0  0  0  0  0  0  0
  -30.6000  -13.0400   19.3440 C   0  0  0  0  0  2  0  0  0  0  0  0
  -29.6650  -12.8600   18.1230 C   0  0  0  0  0  2  0  0  0  0  0  0
  -28.2220  -12.5760   18.5780 C   0  0  0  0  0  2  0  0  0  0  0  0
  -27.7790  -13.5130   19.7300 C   0  0  0  0  0  3  0  0  0  0  0  0
  -28.8410  -13.6390   20.8410 C   0  0  0  0  0  2  0  0  0  0  0  0
  -30.0600  -14.1540   20.2000 N   0  0  0  0  0  0  0  0  0  0  0  0
  -31.8230  -15.4960   20.0100 O   0  0  0  0  0  0  0  0  0  0  0  0
  -29.8180  -16.6950   20.3830 N   0  0  0  0  0  0  0  0  0  0  0  0
  -28.8440  -16.4720   20.5280 H   0  0  0  0  0  0  0  0  0  0  0  0
  -25.4100  -14.0280   20.5250 C   0  0  0  0  0  0  0  0  0  0  0  0
  -24.3660  -13.2290   20.8970 C   0  0  0  0  0  0  0  0  0  0  0  0
  -24.8520  -11.8870   20.8380 C   0  0  0  0  0  0  0  0  0  0  0  0
  -26.4630  -13.1720   20.2520 N   0  0  0  0  0  0  0  0  0  0  0  0
  -26.1410  -11.8770   20.5090 N   0  0  0  0  0  0  0  0  0  0  0  0
  -24.1470  -10.6110   21.0140 C   0  0  0  0  0  0  0  0  0  0  0  0
  -24.5750   -9.6530   21.9610 C   0  0  0  0  0  3  0  0  0  0  0  0
  -23.8650   -8.4440   22.1270 C   0  0  0  0  0  3  0  0  0  0  0  0
  -22.7130   -8.1840   21.3470 C   0  0  0  0  0  0  0  0  0  0  0  0
  -22.3050   -9.1290   20.3910 C   0  0  0  0  0  3  0  0  0  0  0  0
  -23.0160  -10.3300   20.2230 C   0  0  0  0  0  3  0  0  0  0  0  0
  -21.9770   -7.0260   21.4230 O   0  0  0  0  0  0  0  0  0  0  0  0
  -21.8750   -6.3120   22.5900 C   0  0  0  0  0  0  0  0  0  0  0  0
  -21.3210   -6.8740   23.7610 C   0  0  0  0  0  3  0  0  0  0  0  0
  -21.1720   -6.0840   24.9190 C   0  0  0  0  0  3  0  0  0  0  0  0
  -21.5650   -4.7320   24.9040 C   0  0  0  0  0  0  0  0  0  0  0  0
  -22.1110   -4.1700   23.7370 C   0  0  0  0  0  3  0  0  0  0  0  0
  -22.2620   -4.9570   22.5820 C   0  0  0  0  0  0  0  0  0  0  0  0
  -22.7690   -4.4040   21.4540 F   0  0  0  0  0  0  0  0  0  0  0  0
  -21.4140   -3.9710   26.0130 F   0  0  0  0  0  0  0  0  0  0  0  0
  -22.9650  -13.6810   21.1900 C   0  0  0  0  0  0  0  0  0  0  0  0
  -22.2620  -12.9700   22.0630 N   0  0  0  0  0  0  0  0  0  0  0  0
  -22.5050  -14.7010   20.6800 O   0  0  0  0  0  0  0  0  0  0  0  0
  -22.6500  -12.1450   22.4980 H   0  0  0  0  0  0  0  0  0  0  0  0
  -21.3210  -13.2530   22.3010 H   0  0  0  0  0  0  0  0  0  0  0  0
  -25.5480  -15.4040   20.3660 N   0  0  0  0  0  0  0  0  0  0  0  0
  -24.7670  -16.0380   20.4890 H   0  0  0  0  0  0  0  0  0  0  0  0
  -26.3650  -15.8570   19.9800 H   0  0  0  0  0  0  0  0  0  0  0  0
  1  5  2  0
  1  3  1  0
  2 52  1  0
  2  6  2  0
  3  4  2  0
  4  6  1  0
  4  9  1  0
  5  2  1  0
  6  8  1  0
  7  5  1  0
 10  9  1  0
 11  3  1  0
 11 13  1  0
 12 23  2  0
 13 18  1  0
 14 22  1  0
 14 24  1  0
 15 21  1  0
 15 17  1  0
 16 22  1  0
 17 16  1  0
 18 17  2  0
 19 20  1  0
 19 13  2  0
 20 15  2  0
 21 14  1  0
 22 12  1  0
 24 26  2  0
 25 24  1  0
 27 25  1  0
 28 37  2  0
 28 33  1  0
 29 25  1  0
 29 33  1  0
 30 29  1  0
 31 32  1  0
 31 30  1  0
 32 28  1  0
 33 34  2  0
 34 35  1  0
 36 35  2  0
 37 36  1  0
 38 12  1  0
 38 43  1  0
 38 39  1  0
 39 42  1  1
 39 40  1  0
 41 39  1  0
 43 46  1  0
 44 48  1  0
 44 43  1  0
 45 44  2  0
 48 47  1  0
 50 51  1  0
 50 48  1  0
 50 49  1  0
 52 53  2  0
 53 62  1  0
 54 62  1  0
 55 60  1  0
 56 57  1  0
 56 55  1  0
 58 57  1  0
 58 67  1  0
 58 59  1  0
 60 54  1  0
 60 59  1  0
 61 54  2  0
 62 63  1  0
 64 65  2  0
 65 84  1  0
 66 65  1  0
 66 69  1  0
 67 68  1  0
 67 64  1  0
 68 66  2  0
 69 70  1  0
 70 71  2  0
 72 75  1  0
 72 71  1  0
 73 72  2  0
 74 73  1  0
 74 69  2  0
 75 76  1  0
 76 77  1  0
 77 78  2  0
 79 78  1  0
 79 83  1  0
 80 79  2  0
 81 76  2  0
 81 80  1  0
 82 81  1  0
 84 85  1  0
 85 88  1  0
 85 87  1  0
 86 84  2  0
 89 90  1  0
 89 64  1  0
 91 89  1  0
M  ISO  4   3 101  11 101  54 100  62 100
M  END
>  <TORSDO>  (6) 
F 19

>  <SCORE>  (6) 
-15.219

>  <name>  (6) 
5

>  <ligand_id>  (6) 
5

>  <original_smiles>  (6) 
[H]Oc1c(F)c(C([H])([H])C([H])([H])N([H])C(=O)N2C([H])([H])C([H])([H])C([H])([H])C([H])(n3nc(-c4c([H])c([H])c(Oc5c([H])c([H])c(F)c([H])c5F)c([H])c4[H])c(C(=O)N([H])[H])c3N([H])[H])C2([H])[H])c(F)c([H])c1Oc1c([H])c([H])c2c(c1[H])C([H])([H])N(C(=O)C([H])(N([H])C(=O)C([H])(N([H])C([H])([H])[H])C([H])([H])[H])C(C([H])([H])[H])(C([H])([H])[H])C([H])([H])[H])C([H])(C(=O)N([H])C1([H])c3c([H])c([H])c([H])c([H])c3C([H])([H])C([H])([H])C1([H])[H])C2([H])[H]

>  <smiles>  (6) 
[H]Oc1c(F)c(C([H])([H])C([H])([H])N([H])C(=O)N2C([H])([H])C([H])([H])C([H])([H])C([H])(n3nc(-c4c([H])c([H])c(Oc5c([H])c([H])c(F)c([H])c5F)c([H])c4[H])c(C(=O)N([H])[H])c3N([H])[H])C2([H])[H])c(F)c([H])c1Oc1c([H])c([H])c2c(c1[H])C([H])([H])N(C(=O)C([H])(N([H])C(=O)C([H])(N([H])C([H])([H])[H])C([H])([H])[H])C(C([H])([H])[H])(C([H])([H])[H])C([H])([H])[H])C([H])(C(=O)N([H])C1([H])c3c([H])c([H])c([H])c([H])c3C([H])([H])C([H])([H])C1([H])[H])C2([H])[H]

$$$$
6:0:0
     RDKit          3D

 92101  0  0  1  0  0  0  0  0999 V2000
  -28.5400  -22.8520   21.2940 C   0  0  0  0  0  3  0  0  0  0  0  0
  -28.3030  -24.2740   21.2970 C   0  0  0  0  0  3  0  0  0  0  0  0
  -28.9900  -22.9330   18.9590 C   0  0  0  0  0  3  0  0  0  0  0  0
  -28.9120  -22.1120   20.1270 C   0  0  0  0  0  0  0  0  0  0  0  0
  -28.7580  -24.3570   18.9580 C   0  0  0  0  0  0  0  0  0  0  0  0
  -28.4100  -25.0890   20.1330 C   0  0  0  0  0  0  0  0  0  0  0  0
  -28.9320  -25.1190   17.6580 C   0  0  0  0  0  1  0  0  0  0  0  0
  -29.2260  -19.7800   19.0210 C   0  0  0  0  0  3  0  0  0  0  0  0
  -29.1990  -20.5640   20.1400 C   0  0  0  0  0  0  0  0  0  0  0  0
  -29.5040  -18.2350   18.9150 C   0  0  0  0  0  2  0  0  0  0  0  0
  -29.5500  -19.7940   21.4300 C   0  0  0  0  0  2  0  0  0  0  0  0
  -29.4270  -18.2140   21.3880 C   0  0  0  0  0  2  0  0  0  0  0  0
  -30.0770  -17.4790   20.1720 C   0  0  0  0  0  3  0  0  0  0  0  0
  -30.6720  -14.8620   19.9100 C   0  0  0  0  0  0  0  0  0  0  0  0
  -30.4610  -12.5700   18.9240 C   0  0  0  0  0  2  0  0  0  0  0  0
  -29.4330  -12.6130   17.7710 C   0  0  0  0  0  2  0  0  0  0  0  0
  -28.0010  -12.4210   18.3090 C   0  0  0  0  0  2  0  0  0  0  0  0
  -27.7010  -13.3160   19.5400 C   0  0  0  0  0  3  0  0  0  0  0  0
  -28.8370  -13.2430   20.5830 C   0  0  0  0  0  2  0  0  0  0  0  0
  -30.0800  -13.6170   19.8990 N   0  0  0  0  0  0  0  0  0  0  0  0
  -31.8260  -15.0000   19.4970 O   0  0  0  0  0  0  0  0  0  0  0  0
  -29.8610  -15.9550   20.1970 N   0  0  0  0  0  0  0  0  0  0  0  0
  -28.9330  -15.6780   20.4760 H   0  0  0  0  0  0  0  0  0  0  0  0
  -25.3900  -13.8960   20.4940 C   0  0  0  0  0  0  0  0  0  0  0  0
  -24.3480  -13.1150   20.9150 C   0  0  0  0  0  0  0  0  0  0  0  0
  -24.7880  -11.7620   20.7780 C   0  0  0  0  0  0  0  0  0  0  0  0
  -26.3970  -13.0190   20.1270 N   0  0  0  0  0  0  0  0  0  0  0  0
  -26.0470  -11.7270   20.3600 N   0  0  0  0  0  0  0  0  0  0  0  0
  -24.0610  -10.4990   20.9640 C   0  0  0  0  0  0  0  0  0  0  0  0
  -24.4950   -9.5270   21.8930 C   0  0  0  0  0  3  0  0  0  0  0  0
  -23.7670   -8.3300   22.0680 C   0  0  0  0  0  3  0  0  0  0  0  0
  -22.5930   -8.0970   21.3140 C   0  0  0  0  0  0  0  0  0  0  0  0
  -22.1790   -9.0570   20.3750 C   0  0  0  0  0  3  0  0  0  0  0  0
  -22.9080  -10.2450   20.1970 C   0  0  0  0  0  3  0  0  0  0  0  0
  -21.8390   -6.9510   21.3980 O   0  0  0  0  0  0  0  0  0  0  0  0
  -21.7020   -6.2650   22.5780 C   0  0  0  0  0  0  0  0  0  0  0  0
  -21.1560   -6.8680   23.7310 C   0  0  0  0  0  3  0  0  0  0  0  0
  -20.9670   -6.1070   24.9020 C   0  0  0  0  0  3  0  0  0  0  0  0
  -21.3150   -4.7430   24.9190 C   0  0  0  0  0  0  0  0  0  0  0  0
  -21.8540   -4.1390   23.7690 C   0  0  0  0  0  3  0  0  0  0  0  0
  -22.0430   -4.8980   22.6010 C   0  0  0  0  0  0  0  0  0  0  0  0
  -22.5430   -4.3060   21.4900 F   0  0  0  0  0  0  0  0  0  0  0  0
  -21.1260   -4.0090   26.0400 F   0  0  0  0  0  0  0  0  0  0  0  0
  -22.9850  -13.5930   21.3230 C   0  0  0  0  0  0  0  0  0  0  0  0
  -22.3220  -12.8650   22.2150 N   0  0  0  0  0  0  0  0  0  0  0  0
  -22.5200  -14.6460   20.8890 O   0  0  0  0  0  0  0  0  0  0  0  0
  -22.7110  -12.0110   22.5890 H   0  0  0  0  0  0  0  0  0  0  0  0
  -21.4120  -13.1660   22.5320 H   0  0  0  0  0  0  0  0  0  0  0  0
  -25.5580  -15.2720   20.3690 N   0  0  0  0  0  0  0  0  0  0  0  0
  -24.8080  -15.9240   20.5700 H   0  0  0  0  0  0  0  0  0  0  0  0
  -26.3670  -15.7180   19.9570 H   0  0  0  0  0  0  0  0  0  0  0  0
  -28.3820  -26.5230   20.1600 O   0  0  0  0  0  0  0  0  0  0  0  0
  -24.6160  -31.9220   23.2250 C   0  0  0  0  0  0  0  0  0  0  0  0
  -27.2340  -27.3430   20.1670 C   0  0  0  0  0  0  0  0  0  0  0  0
  -23.4140  -30.5240   21.5800 C   0  0  0  0  0  3  0  0  0  0  0  0
  -24.8670  -28.9680   20.1530 C   0  0  0  0  0  0  0  0  0  0  0  0
  -25.9530  -30.8410   21.3990 C   0  0  0  0  0  2  0  0  0  0  0  0
  -26.0330  -29.4570   20.7530 C   0  0  0  0  0  0  0  0  0  0  0  0
  -27.2170  -28.6550   20.7480 C   0  0  0  0  0  3  0  0  0  0  0  0
  -26.0460  -26.9100   19.5430 C   0  0  0  0  0  3  0  0  0  0  0  0
  -24.8770  -27.7030   19.5390 C   0  0  0  0  0  3  0  0  0  0  0  0
  -23.6310  -29.8470   20.1990 C   0  0  0  0  0  2  0  0  0  0  0  0
  -24.6800  -31.1140   22.1250 N   0  0  0  0  0  0  0  0  0  0  0  0
  -23.5310  -32.1960   23.7610 O   0  0  0  0  0  0  0  0  0  0  0  0
  -22.7510  -29.5090   22.5410 C   0  0  0  0  0  0  0  0  0  0  0  0
  -21.4280  -29.3160   22.4010 N   0  0  0  0  0  0  0  0  0  0  0  0
  -23.4260  -28.8960   23.3720 O   0  0  0  0  0  0  0  0  0  0  0  0
  -20.9410  -29.8640   21.7070 H   0  0  0  0  0  0  0  0  0  0  0  0
  -18.0610  -28.0730   22.8660 C   0  0  0  0  0  0  0  0  0  0  0  0
  -20.6120  -28.3700   23.1640 C   0  0  0  0  0  3  0  0  0  0  0  0
  -20.7400  -26.9360   22.5970 C   0  0  0  0  0  2  0  0  0  0  0  0
  -19.6550  -26.5940   21.5720 C   0  0  0  0  0  2  0  0  0  0  0  0
  -18.2640  -26.7230   22.1980 C   0  0  0  0  0  2  0  0  0  0  0  0
  -19.1640  -28.8540   23.3050 C   0  0  0  0  0  0  0  0  0  0  0  0
  -18.9200  -30.1150   23.8890 C   0  0  0  0  0  3  0  0  0  0  0  0
  -17.6070  -30.5970   24.0400 C   0  0  0  0  0  3  0  0  0  0  0  0
  -16.5180  -29.8150   23.6160 C   0  0  0  0  0  3  0  0  0  0  0  0
  -16.7470  -28.5560   23.0350 C   0  0  0  0  0  3  0  0  0  0  0  0
  -25.8950  -32.5560   23.8500 C   0  0  0  0  0  3  0  0  0  0  0  0
  -25.5870  -33.9560   24.1790 N   0  0  0  0  0  0  0  0  0  0  0  0
  -25.9050  -35.0070   23.4130 C   0  0  0  0  0  0  0  0  0  0  0  0
  -26.5600  -34.9000   22.3720 O   0  0  0  0  0  0  0  0  0  0  0  0
  -25.0050  -34.1120   24.9890 H   0  0  0  0  0  0  0  0  0  0  0  0
  -24.1630  -36.7940   23.0870 C   0  0  0  0  0  1  0  0  0  0  0  0
  -25.4230  -36.3970   23.8720 C   0  0  0  0  0  3  0  0  0  0  0  0
  -27.5680  -37.3000   24.6570 C   0  0  0  0  0  1  0  0  0  0  0  0
  -26.4490  -37.4540   23.7300 N   0  0  0  0  0  0  0  0  0  0  0  0
  -26.0420  -38.3730   23.8750 H   0  0  0  0  0  0  0  0  0  0  0  0
  -26.4080  -31.7880   25.1320 C   0  0  1  0  0  0  0  0  0  0  0  0
  -25.3110  -31.5490   26.1960 C   0  0  0  0  0  1  0  0  0  0  0  0
  -26.9980  -30.4110   24.7450 C   0  0  0  0  0  1  0  0  0  0  0  0
  -27.5520  -32.5880   25.7990 C   0  0  0  0  0  1  0  0  0  0  0  0
  1  2  1  0
  3  4  1  0
  4  9  1  0
  4  1  2  0
  5  3  2  0
  5  6  1  0
  6 52  1  0
  6  2  2  0
  7  5  1  0
  8  9  2  0
  9 11  1  0
 10  8  1  0
 10 13  1  0
 12 11  1  0
 13 22  1  0
 13 12  1  0
 14 22  1  0
 15 20  1  0
 16 17  1  0
 16 15  1  0
 18 17  1  0
 18 27  1  0
 18 19  1  0
 20 14  1  0
 20 19  1  0
 21 14  2  0
 22 23  1  0
 24 25  2  0
 25 44  1  0
 26 25  1  0
 26 29  1  0
 27 28  1  0
 27 24  1  0
 28 26  2  0
 29 30  1  0
 30 31  2  0
 32 35  1  0
 32 31  1  0
 33 32  2  0
 34 33  1  0
 34 29  2  0
 35 36  1  0
 36 41  2  0
 36 37  1  0
 37 38  2  0
 38 39  1  0
 39 43  1  0
 40 39  2  0
 41 40  1  0
 42 41  1  0
 44 45  1  0
 45 48  1  0
 45 47  1  0
 46 44  2  0
 49 24  1  0
 49 50  1  0
 51 49  1  0
 52 54  1  0
 53 64  2  0
 54 59  1  0
 55 63  1  0
 55 65  1  0
 56 62  1  0
 56 58  1  0
 57 63  1  0
 58 57  1  0
 59 58  2  0
 60 54  2  0
 61 60  1  0
 61 56  2  0
 62 55  1  0
 63 53  1  0
 65 67  2  0
 66 65  1  0
 68 66  1  0
 69 78  2  0
 69 74  1  0
 70 66  1  0
 70 74  1  0
 71 70  1  0
 72 73  1  0
 72 71  1  0
 73 69  1  0
 74 75  2  0
 75 76  1  0
 77 76  2  0
 78 77  1  0
 79 53  1  0
 79 80  1  0
 79 89  1  0
 80 83  1  0
 81 85  1  0
 81 80  1  0
 82 81  2  0
 85 84  1  0
 87 85  1  0
 87 88  1  0
 87 86  1  0
 89 92  1  1
 89 90  1  0
 91 89  1  0
M  ISO  4   6 101  14 100  22 100  52 101
M  END
>  <TORSDO>  (7) 
F 17

>  <SCORE>  (7) 
-14.296

>  <name>  (7) 
6

>  <ligand_id>  (7) 
6

>  <original_smiles>  (7) 
[H]C1=C(c2c([H])c([H])c(Oc3c([H])c([H])c4c(c3[H])C([H])([H])N(C(=O)C([H])(N([H])C(=O)C([H])(N([H])C([H])([H])[H])C([H])([H])[H])C(C([H])([H])[H])(C([H])([H])[H])C([H])([H])[H])C([H])(C(=O)N([H])C3([H])c5c([H])c([H])c([H])c([H])c5C([H])([H])C([H])([H])C3([H])[H])C4([H])[H])c(C([H])([H])[H])c2[H])C([H])([H])C([H])([H])C([H])(N([H])C(=O)N2C([H])([H])C([H])([H])C([H])([H])C([H])(n3nc(-c4c([H])c([H])c(Oc5c([H])c([H])c(F)c([H])c5F)c([H])c4[H])c(C(=O)N([H])[H])c3N([H])[H])C2([H])[H])C1([H])[H]

>  <smiles>  (7) 
[H]C1=C(c2c([H])c([H])c(Oc3c([H])c([H])c4c(c3[H])C([H])([H])N(C(=O)C([H])(N([H])C(=O)C([H])(N([H])C([H])([H])[H])C([H])([H])[H])C(C([H])([H])[H])(C([H])([H])[H])C([H])([H])[H])C([H])(C(=O)N([H])C3([H])c5c([H])c([H])c([H])c([H])c5C([H])([H])C([H])([H])C3([H])[H])C4([H])[H])c(C([H])([H])[H])c2[H])C([H])([H])C([H])([H])C([H])(N([H])C(=O)N2C([H])([H])C([H])([H])C([H])([H])C([H])(n3nc(-c4c([H])c([H])c(Oc5c([H])c([H])c(F)c([H])c5F)c([H])c4[H])c(C(=O)N([H])[H])c3N([H])[H])C2([H])[H])C1([H])[H]

$$$$
7:0:0
     RDKit          3D

 91 99  0  0  1  0  0  0  0  0999 V2000
  -26.7510  -25.0360   21.4960 C   0  0  0  0  0  3  0  0  0  0  0  0
  -25.9310  -23.9000   21.5260 C   0  0  0  0  0  3  0  0  0  0  0  0
  -28.6100  -23.6760   20.6590 C   0  0  0  0  0  3  0  0  0  0  0  0
  -28.0850  -24.9570   21.0470 C   0  0  0  0  0  0  0  0  0  0  0  0
  -27.7900  -22.5040   20.7130 C   0  0  0  0  0  0  0  0  0  0  0  0
  -26.4450  -22.6590   21.1380 C   0  0  0  0  0  0  0  0  0  0  0  0
  -25.6010  -21.5880   21.1760 O   0  0  0  0  0  0  0  0  0  0  0  0
  -24.7220  -21.8000   21.4730 H   0  0  0  0  0  0  0  0  0  0  0  0
  -28.1860  -21.0520   20.3450 C   0  0  0  0  0  2  0  0  0  0  0  0
  -29.6240  -20.5040   20.1300 C   0  0  0  0  0  2  0  0  0  0  0  0
  -29.6870  -19.0180   20.6740 C   0  0  0  0  0  2  0  0  0  0  0  0
  -30.6310  -17.9550   19.9800 C   0  0  0  0  0  2  0  0  0  0  0  0
  -30.0740  -16.4680   19.9030 C   0  0  0  0  0  2  0  0  0  0  0  0
  -31.0530  -15.2230   19.7660 C   0  0  0  0  0  0  0  0  0  0  0  0
  -30.9360  -12.8730   18.9400 C   0  0  0  0  0  2  0  0  0  0  0  0
  -29.9680  -12.8780   17.7360 C   0  0  0  0  0  2  0  0  0  0  0  0
  -28.4960  -12.7470   18.1950 C   0  0  0  0  0  2  0  0  0  0  0  0
  -28.1480  -13.7140   19.3540 C   0  0  0  0  0  3  0  0  0  0  0  0
  -29.2210  -13.6450   20.4600 C   0  0  0  0  0  2  0  0  0  0  0  0
  -30.5200  -13.9610   19.8480 N   0  0  0  0  0  0  0  0  0  0  0  0
  -32.2120  -15.3990   19.3680 O   0  0  0  0  0  0  0  0  0  0  0  0
  -25.8120  -14.4080   20.1520 C   0  0  0  0  0  0  0  0  0  0  0  0
  -24.7300  -13.6660   20.5590 C   0  0  0  0  0  0  0  0  0  0  0  0
  -25.1460  -12.3000   20.5150 C   0  0  0  0  0  0  0  0  0  0  0  0
  -26.8150  -13.4860   19.8820 N   0  0  0  0  0  0  0  0  0  0  0  0
  -26.4250  -12.2150   20.1590 N   0  0  0  0  0  0  0  0  0  0  0  0
  -24.3880  -11.0620   20.7340 C   0  0  0  0  0  0  0  0  0  0  0  0
  -24.7860  -10.1200   21.7100 C   0  0  0  0  0  3  0  0  0  0  0  0
  -24.0310   -8.9480   21.9160 C   0  0  0  0  0  3  0  0  0  0  0  0
  -22.8660   -8.7080   21.1470 C   0  0  0  0  0  0  0  0  0  0  0  0
  -22.4910   -9.6400   20.1650 C   0  0  0  0  0  3  0  0  0  0  0  0
  -23.2470  -10.8050   19.9570 C   0  0  0  0  0  3  0  0  0  0  0  0
  -22.0870   -7.5820   21.2600 O   0  0  0  0  0  0  0  0  0  0  0  0
  -21.9390   -6.9260   22.4560 C   0  0  0  0  0  0  0  0  0  0  0  0
  -21.4390   -7.5770   23.6050 C   0  0  0  0  0  3  0  0  0  0  0  0
  -21.2390   -6.8470   24.7960 C   0  0  0  0  0  3  0  0  0  0  0  0
  -21.5260   -5.4690   24.8310 C   0  0  0  0  0  0  0  0  0  0  0  0
  -22.0160   -4.8190   23.6860 C   0  0  0  0  0  3  0  0  0  0  0  0
  -22.2180   -5.5470   22.4980 C   0  0  0  0  0  0  0  0  0  0  0  0
  -22.6720   -4.9130   21.3930 F   0  0  0  0  0  0  0  0  0  0  0  0
  -21.3230   -4.7650   25.9700 F   0  0  0  0  0  0  0  0  0  0  0  0
  -23.3580  -14.1890   20.8780 C   0  0  0  0  0  0  0  0  0  0  0  0
  -22.6470  -13.5270   21.7830 N   0  0  0  0  0  0  0  0  0  0  0  0
  -22.9340  -15.2200   20.3630 O   0  0  0  0  0  0  0  0  0  0  0  0
  -23.0090  -12.6920   22.2210 H   0  0  0  0  0  0  0  0  0  0  0  0
  -21.7290  -13.8560   22.0390 H   0  0  0  0  0  0  0  0  0  0  0  0
  -26.0140  -15.7680   19.9730 N   0  0  0  0  0  0  0  0  0  0  0  0
  -25.2760  -16.4460   20.1210 H   0  0  0  0  0  0  0  0  0  0  0  0
  -26.8770  -16.1880   19.6580 H   0  0  0  0  0  0  0  0  0  0  0  0
  -28.9300  -26.2500   21.1170 C   0  0  0  0  0  2  0  0  0  0  0  0
  -28.6580  -27.2810   20.1410 O   0  0  0  0  0  0  0  0  0  0  0  0
  -24.5550  -32.1460   23.4720 C   0  0  0  0  0  0  0  0  0  0  0  0
  -27.4760  -27.9900   20.2290 C   0  0  0  0  0  0  0  0  0  0  0  0
  -23.4620  -30.8020   21.7100 C   0  0  0  0  0  3  0  0  0  0  0  0
  -25.0240  -29.4120   20.2410 C   0  0  0  0  0  0  0  0  0  0  0  0
  -25.9750  -31.2670   21.6210 C   0  0  0  0  0  2  0  0  0  0  0  0
  -26.1410  -29.9330   20.9110 C   0  0  0  0  0  0  0  0  0  0  0  0
  -27.3710  -29.2300   20.9100 C   0  0  0  0  0  3  0  0  0  0  0  0
  -26.3520  -27.4990   19.5370 C   0  0  0  0  0  3  0  0  0  0  0  0
  -25.1240  -28.1910   19.5570 C   0  0  0  0  0  3  0  0  0  0  0  0
  -23.7440  -30.2210   20.2980 C   0  0  0  0  0  2  0  0  0  0  0  0
  -24.6790  -31.4180   22.3280 N   0  0  0  0  0  0  0  0  0  0  0  0
  -23.4490  -32.3410   23.9910 O   0  0  0  0  0  0  0  0  0  0  0  0
  -22.8220  -29.6980   22.5820 C   0  0  0  0  0  0  0  0  0  0  0  0
  -21.5150  -29.4610   22.3920 N   0  0  0  0  0  0  0  0  0  0  0  0
  -23.5020  -29.0590   23.3910 O   0  0  0  0  0  0  0  0  0  0  0  0
  -21.0260  -30.0330   21.7130 H   0  0  0  0  0  0  0  0  0  0  0  0
  -18.1880  -28.0860   22.6700 C   0  0  0  0  0  0  0  0  0  0  0  0
  -20.7170  -28.4410   23.0750 C   0  0  0  0  0  3  0  0  0  0  0  0
  -20.9090  -27.0520   22.4300 C   0  0  0  0  0  2  0  0  0  0  0  0
  -19.8720  -26.7450   21.3430 C   0  0  0  0  0  2  0  0  0  0  0  0
  -18.4530  -26.7950   21.9180 C   0  0  0  0  0  2  0  0  0  0  0  0
  -19.2490  -28.8680   23.1990 C   0  0  0  0  0  0  0  0  0  0  0  0
  -18.9460  -30.0820   23.8560 C   0  0  0  0  0  3  0  0  0  0  0  0
  -17.6130  -30.5140   23.9920 C   0  0  0  0  0  3  0  0  0  0  0  0
  -16.5660  -29.7280   23.4840 C   0  0  0  0  0  3  0  0  0  0  0  0
  -16.8530  -28.5170   22.8310 C   0  0  0  0  0  3  0  0  0  0  0  0
  -25.7920  -32.7900   24.1710 C   0  0  0  0  0  3  0  0  0  0  0  0
  -25.4530  -34.1850   24.4840 N   0  0  0  0  0  0  0  0  0  0  0  0
  -25.8200  -35.2390   23.7450 C   0  0  0  0  0  0  0  0  0  0  0  0
  -26.5480  -35.1400   22.7540 O   0  0  0  0  0  0  0  0  0  0  0  0
  -24.8110  -34.3330   25.2480 H   0  0  0  0  0  0  0  0  0  0  0  0
  -24.0920  -37.0110   23.2910 C   0  0  0  0  0  1  0  0  0  0  0  0
  -25.2940  -36.6210   24.1690 C   0  0  0  0  0  3  0  0  0  0  0  0
  -27.3710  -37.5340   25.1120 C   0  0  0  0  0  1  0  0  0  0  0  0
  -26.3190  -37.6870   24.1070 N   0  0  0  0  0  0  0  0  0  0  0  0
  -25.8960  -38.6040   24.2280 H   0  0  0  0  0  0  0  0  0  0  0  0
  -26.2400  -32.0180   25.4780 C   0  0  1  0  0  0  0  0  0  0  0  0
  -25.0830  -31.7610   26.4740 C   0  0  0  0  0  1  0  0  0  0  0  0
  -26.8660  -30.6510   25.1140 C   0  0  0  0  0  1  0  0  0  0  0  0
  -27.3360  -32.8260   26.2140 C   0  0  0  0  0  1  0  0  0  0  0  0
  1  2  1  0
  3  5  2  0
  3  4  1  0
  4 50  1  0
  4  1  2  0
  5  6  1  0
  6  7  1  0
  6  2  2  0
  7  8  1  0
  9  5  1  0
 10  9  1  0
 10 11  1  0
 12 11  1  0
 13 12  1  0
 14 20  1  0
 14 13  1  0
 15 20  1  0
 16 17  1  0
 16 15  1  0
 18 17  1  0
 18 25  1  0
 18 19  1  0
 20 19  1  0
 21 14  2  0
 22 23  2  0
 23 42  1  0
 24 23  1  0
 24 27  1  0
 25 22  1  0
 25 26  1  0
 26 24  2  0
 27 28  1  0
 28 29  2  0
 30 33  1  0
 30 29  1  0
 31 30  2  0
 32 31  1  0
 32 27  2  0
 33 34  1  0
 34 39  2  0
 34 35  1  0
 35 36  2  0
 36 37  1  0
 37 41  1  0
 38 37  2  0
 39 38  1  0
 40 39  1  0
 42 43  1  0
 43 46  1  0
 43 45  1  0
 44 42  2  0
 47 48  1  0
 47 22  1  0
 49 47  1  0
 51 53  1  0
 51 50  1  0
 52 63  2  0
 53 58  1  0
 54 62  1  0
 54 64  1  0
 55 61  1  0
 55 57  1  0
 56 62  1  0
 57 56  1  0
 58 57  2  0
 59 60  1  0
 59 53  2  0
 60 55  2  0
 61 54  1  0
 62 52  1  0
 64 66  2  0
 65 64  1  0
 67 65  1  0
 68 77  2  0
 68 73  1  0
 69 65  1  0
 69 73  1  0
 70 69  1  0
 71 72  1  0
 71 70  1  0
 72 68  1  0
 73 74  2  0
 74 75  1  0
 76 75  2  0
 77 76  1  0
 78 52  1  0
 78 79  1  0
 78 88  1  0
 79 82  1  0
 80 84  1  0
 80 79  1  0
 81 80  2  0
 84 83  1  0
 86 84  1  0
 86 87  1  0
 86 85  1  0
 88 91  1  1
 88 89  1  0
 90 88  1  0
M  ISO  4  13 100  14 100  50 101  51 101
M  END
>  <TORSDO>  (8) 
F 23

>  <SCORE>  (8) 
-9.479

>  <name>  (8) 
7

>  <ligand_id>  (8) 
7

>  <original_smiles>  (8) 
[H]Oc1c([H])c([H])c(C([H])([H])Oc2c([H])c([H])c3c(c2[H])C([H])([H])N(C(=O)C([H])(N([H])C(=O)C([H])(N([H])C([H])([H])[H])C([H])([H])[H])C(C([H])([H])[H])(C([H])([H])[H])C([H])([H])[H])C([H])(C(=O)N([H])C2([H])c4c([H])c([H])c([H])c([H])c4C([H])([H])C([H])([H])C2([H])[H])C3([H])[H])c([H])c1C([H])([H])C([H])([H])C([H])([H])C([H])([H])C([H])([H])C(=O)N1C([H])([H])C([H])([H])C([H])([H])C([H])(n2nc(-c3c([H])c([H])c(Oc4c([H])c([H])c(F)c([H])c4F)c([H])c3[H])c(C(=O)N([H])[H])c2N([H])[H])C1([H])[H]

>  <smiles>  (8) 
[H]Oc1c([H])c([H])c(C([H])([H])Oc2c([H])c([H])c3c(c2[H])C([H])([H])N(C(=O)C([H])(N([H])C(=O)C([H])(N([H])C([H])([H])[H])C([H])([H])[H])C(C([H])([H])[H])(C([H])([H])[H])C([H])([H])[H])C([H])(C(=O)N([H])C2([H])c4c([H])c([H])c([H])c([H])c4C([H])([H])C([H])([H])C2([H])[H])C3([H])[H])c([H])c1C([H])([H])C([H])([H])C([H])([H])C([H])([H])C([H])([H])C(=O)N1C([H])([H])C([H])([H])C([H])([H])C([H])(n2nc(-c3c([H])c([H])c(Oc4c([H])c([H])c(F)c([H])c4F)c([H])c3[H])c(C(=O)N([H])[H])c2N([H])[H])C1([H])[H]

$$$$
8:0:0
     RDKit          3D

 95103  0  0  1  0  0  0  0  0999 V2000
  -28.8560  -20.1060   19.4140 C   0  0  0  0  0  3  0  0  0  0  0  0
  -29.6980  -18.8500   19.7040 C   0  0  0  0  0  0  0  0  0  0  0  0
  -29.1240  -21.5890   19.7280 C   0  0  0  0  0  0  0  0  0  0  0  0
  -30.4090  -21.7190   20.3340 C   0  0  0  0  0  0  0  0  0  0  0  0
  -30.8740  -19.2160   20.4260 C   0  0  0  0  0  0  0  0  0  0  0  0
  -31.2230  -20.5890   20.7090 C   0  0  0  0  0  0  0  0  0  0  0  0
  -30.9600  -23.1280   20.5640 C   0  0  0  0  0  1  0  0  0  0  0  0
  -29.3430  -17.1470   19.4740 C   0  0  0  0  0  2  0  0  0  0  0  0
  -30.2250  -15.6210   19.3780 C   0  0  0  0  0  0  0  0  0  0  0  0
  -30.1310  -13.1860   18.4890 C   0  0  0  0  0  2  0  0  0  0  0  0
  -29.0800  -13.0290   17.3580 C   0  0  0  0  0  2  0  0  0  0  0  0
  -27.6820  -12.7550   17.9400 C   0  0  0  0  0  2  0  0  0  0  0  0
  -27.3590  -13.6950   19.1260 C   0  0  0  0  0  3  0  0  0  0  0  0
  -28.5200  -13.8040   20.1350 C   0  0  0  0  0  2  0  0  0  0  0  0
  -29.6960  -14.3010   19.4040 N   0  0  0  0  0  0  0  0  0  0  0  0
  -31.4160  -15.6320   19.0300 O   0  0  0  0  0  0  0  0  0  0  0  0
  -25.0830  -14.2420   20.1380 C   0  0  0  0  0  0  0  0  0  0  0  0
  -24.0660  -13.4580   20.6100 C   0  0  0  0  0  0  0  0  0  0  0  0
  -24.5270  -12.1100   20.5120 C   0  0  0  0  0  0  0  0  0  0  0  0
  -26.0930  -13.3710   19.7710 N   0  0  0  0  0  0  0  0  0  0  0  0
  -25.7780  -12.0820   20.0640 N   0  0  0  0  0  0  0  0  0  0  0  0
  -23.8230  -10.8440   20.7630 C   0  0  0  0  0  0  0  0  0  0  0  0
  -24.3230   -9.8860   21.6730 C   0  0  0  0  0  3  0  0  0  0  0  0
  -23.6180   -8.6880   21.9120 C   0  0  0  0  0  3  0  0  0  0  0  0
  -22.3950   -8.4370   21.2410 C   0  0  0  0  0  0  0  0  0  0  0  0
  -21.9140   -9.3830   20.3190 C   0  0  0  0  0  3  0  0  0  0  0  0
  -22.6210  -10.5740   20.0790 C   0  0  0  0  0  3  0  0  0  0  0  0
  -21.6550   -7.2900   21.3910 O   0  0  0  0  0  0  0  0  0  0  0  0
  -21.6220   -6.6040   22.5780 C   0  0  0  0  0  0  0  0  0  0  0  0
  -21.2430   -7.2260   23.7890 C   0  0  0  0  0  3  0  0  0  0  0  0
  -21.1560   -6.4670   24.9730 C   0  0  0  0  0  3  0  0  0  0  0  0
  -21.4380   -5.0890   24.9490 C   0  0  0  0  0  0  0  0  0  0  0  0
  -21.8110   -4.4670   23.7440 C   0  0  0  0  0  3  0  0  0  0  0  0
  -21.8990   -5.2220   22.5620 C   0  0  0  0  0  0  0  0  0  0  0  0
  -22.2380   -4.6140   21.3990 F   0  0  0  0  0  0  0  0  0  0  0  0
  -21.3480   -4.3580   26.0840 F   0  0  0  0  0  0  0  0  0  0  0  0
  -22.7050  -13.9310   21.0290 C   0  0  0  0  0  0  0  0  0  0  0  0
  -22.0910  -13.2560   21.9950 N   0  0  0  0  0  0  0  0  0  0  0  0
  -22.1960  -14.9340   20.5310 O   0  0  0  0  0  0  0  0  0  0  0  0
  -22.5190  -12.4480   22.4220 H   0  0  0  0  0  0  0  0  0  0  0  0
  -21.1790  -13.5520   22.3110 H   0  0  0  0  0  0  0  0  0  0  0  0
  -25.2290  -15.6150   19.9610 N   0  0  0  0  0  0  0  0  0  0  0  0
  -24.4850  -16.2750   20.1600 H   0  0  0  0  0  0  0  0  0  0  0  0
  -26.0410  -16.0480   19.5430 H   0  0  0  0  0  0  0  0  0  0  0  0
  -28.2620  -23.0610   19.3170 C   0  0  0  0  0  2  0  0  0  0  0  0
  -27.8890  -24.6180   20.1520 C   0  0  0  0  0  2  0  0  0  0  0  0
  -27.9600  -26.2210   19.7820 O   0  0  0  0  0  0  0  0  0  0  0  0
  -24.4050  -31.9320   23.2490 C   0  0  0  0  0  0  0  0  0  0  0  0
  -26.9080  -27.2650   19.8950 C   0  0  0  0  0  0  0  0  0  0  0  0
  -23.1700  -30.6130   21.5740 C   0  0  0  0  0  3  0  0  0  0  0  0
  -24.5860  -29.0990   20.0280 C   0  0  0  0  0  0  0  0  0  0  0  0
  -25.7270  -30.8660   21.3540 C   0  0  0  0  0  2  0  0  0  0  0  0
  -25.7910  -29.4940   20.6230 C   0  0  0  0  0  0  0  0  0  0  0  0
  -26.9490  -28.6020   20.5240 C   0  0  0  0  0  3  0  0  0  0  0  0
  -25.6690  -27.0130   19.2690 C   0  0  0  0  0  3  0  0  0  0  0  0
  -24.5470  -27.8790   19.3320 C   0  0  0  0  0  3  0  0  0  0  0  0
  -23.3600  -30.0000   20.1590 C   0  0  0  0  0  2  0  0  0  0  0  0
  -24.4570  -31.1620   22.1120 N   0  0  0  0  0  0  0  0  0  0  0  0
  -23.3310  -32.1840   23.8160 O   0  0  0  0  0  0  0  0  0  0  0  0
  -22.5140  -29.5630   22.5060 C   0  0  0  0  0  0  0  0  0  0  0  0
  -21.1870  -29.3680   22.3860 N   0  0  0  0  0  0  0  0  0  0  0  0
  -23.2040  -28.9230   23.3030 O   0  0  0  0  0  0  0  0  0  0  0  0
  -20.6830  -29.9400   21.7240 H   0  0  0  0  0  0  0  0  0  0  0  0
  -17.8570  -27.9910   22.8140 C   0  0  0  0  0  0  0  0  0  0  0  0
  -20.3970  -28.3750   23.1220 C   0  0  0  0  0  3  0  0  0  0  0  0
  -20.5750  -26.9610   22.5190 C   0  0  0  0  0  2  0  0  0  0  0  0
  -19.5050  -26.6100   21.4800 C   0  0  0  0  0  2  0  0  0  0  0  0
  -18.1090  -26.6700   22.1050 C   0  0  0  0  0  2  0  0  0  0  0  0
  -18.9310  -28.7990   23.2750 C   0  0  0  0  0  0  0  0  0  0  0  0
  -18.6380  -30.0310   23.8980 C   0  0  0  0  0  3  0  0  0  0  0  0
  -17.3060  -30.4600   24.0580 C   0  0  0  0  0  3  0  0  0  0  0  0
  -16.2490  -29.6500   23.6120 C   0  0  0  0  0  3  0  0  0  0  0  0
  -16.5250  -28.4160   22.9960 C   0  0  0  0  0  3  0  0  0  0  0  0
  -25.6910  -32.5470   23.8810 C   0  0  0  0  0  3  0  0  0  0  0  0
  -26.1520  -31.8070   25.1980 C   0  0  1  0  0  0  0  0  0  0  0  0
  -25.0290  -31.6580   26.2550 C   0  0  0  0  0  1  0  0  0  0  0  0
  -26.6750  -30.3880   24.8780 C   0  0  0  0  0  1  0  0  0  0  0  0
  -27.3320  -32.5720   25.8440 C   0  0  0  0  0  1  0  0  0  0  0  0
  -25.4220  -33.9670   24.1680 N   0  0  0  0  0  0  0  0  0  0  0  0
  -25.8160  -34.9910   23.4000 C   0  0  0  0  0  0  0  0  0  0  0  0
  -26.5050  -34.8380   22.3890 O   0  0  0  0  0  0  0  0  0  0  0  0
  -24.8100  -34.1610   24.9480 H   0  0  0  0  0  0  0  0  0  0  0  0
  -24.1670  -36.8480   22.9810 C   0  0  0  0  0  1  0  0  0  0  0  0
  -25.3800  -36.4110   23.8190 C   0  0  0  0  0  3  0  0  0  0  0  0
  -27.5330  -37.2380   24.6660 C   0  0  0  0  0  1  0  0  0  0  0  0
  -26.4560  -37.4190   23.6960 N   0  0  0  0  0  0  0  0  0  0  0  0
  -26.0850  -38.3590   23.8050 H   0  0  0  0  0  0  0  0  0  0  0  0
  -31.7590  -18.0860   20.9760 C   0  0  0  0  0  2  0  0  0  0  0  0
  -31.1260  -17.4130   22.2100 C   0  0  0  0  0  2  0  0  0  0  0  0
  -31.2980  -15.5470   23.9380 C   0  0  0  0  0  1  0  0  0  0  0  0
  -31.8040  -16.0920   22.5960 C   0  0  0  0  0  2  0  0  0  0  0  0
  -32.5450  -20.8640   21.4580 C   0  0  0  0  0  2  0  0  0  0  0  0
  -33.7550  -20.9970   20.5010 C   0  0  0  0  0  2  0  0  0  0  0  0
  -36.2850  -21.1050   20.2180 C   0  0  0  0  0  1  0  0  0  0  0  0
  -35.1180  -21.0010   21.2110 C   0  0  0  0  0  2  0  0  0  0  0  0
  1  2  2  0
  1  3  1  0
  2  5  1  0
  3  4  2  0
  4  7  1  0
  4  6  1  0
  5  6  2  0
  5 88  1  0
  6 92  1  0
  8  2  1  0
  9 15  1  0
  9  8  1  0
 10 15  1  0
 11 12  1  0
 11 10  1  0
 13 12  1  0
 13 20  1  0
 13 14  1  0
 15 14  1  0
 16  9  2  0
 17 18  2  0
 18 37  1  0
 19 18  1  0
 19 22  1  0
 20 21  1  0
 20 17  1  0
 21 19  2  0
 22 23  1  0
 23 24  2  0
 25 28  1  0
 25 24  1  0
 26 25  2  0
 27 26  1  0
 27 22  2  0
 28 29  1  0
 29 30  1  0
 30 31  2  0
 32 31  1  0
 32 36  1  0
 33 32  2  0
 34 29  2  0
 34 33  1  0
 35 34  1  0
 37 38  1  0
 38 41  1  0
 38 40  1  0
 39 37  2  0
 42 17  1  0
 42 43  1  0
 44 42  1  0
 45  3  1  0
 45 46  1  0
 47 49  1  0
 47 46  1  0
 48 59  2  0
 49 54  1  0
 50 58  1  0
 50 60  1  0
 51 57  1  0
 51 53  1  0
 52 58  1  0
 53 52  1  0
 54 53  2  0
 55 56  1  0
 55 49  2  0
 56 51  2  0
 57 50  1  0
 58 48  1  0
 60 62  2  0
 61 60  1  0
 63 61  1  0
 64 73  2  0
 64 69  1  0
 65 61  1  0
 65 69  1  0
 66 65  1  0
 67 68  1  0
 67 66  1  0
 68 64  1  0
 69 70  2  0
 70 71  1  0
 72 71  2  0
 73 72  1  0
 74 48  1  0
 74 79  1  0
 74 75  1  0
 75 78  1  1
 75 76  1  0
 77 75  1  0
 79 82  1  0
 80 84  1  0
 80 79  1  0
 81 80  2  0
 84 83  1  0
 86 87  1  0
 86 84  1  0
 86 85  1  0
 88 89  1  0
 89 91  1  0
 91 90  1  0
 93 95  1  0
 93 92  1  0
 94 95  1  0
M  ISO  4   8 100   9 100  46 101  47 101
M  END
>  <TORSDO>  (9) 
F 25

>  <SCORE>  (9) 
-6.831

>  <name>  (9) 
8

>  <ligand_id>  (9) 
8

>  <original_smiles>  (9) 
[H]c1c([H])c([H])c2c(c1[H])C([H])([H])C([H])([H])C([H])([H])C2([H])N([H])C(=O)C1([H])N(C(=O)C([H])(N([H])C(=O)C([H])(N([H])C([H])([H])[H])C([H])([H])[H])C(C([H])([H])[H])(C([H])([H])[H])C([H])([H])[H])C([H])([H])c2c([H])c(OC([H])([H])C([H])([H])c3c([H])c(C([H])([H])C(=O)N4C([H])([H])C([H])([H])C([H])([H])C([H])(n5nc(-c6c([H])c([H])c(Oc7c([H])c([H])c(F)c([H])c7F)c([H])c6[H])c(C(=O)N([H])[H])c5N([H])[H])C4([H])[H])c(C([H])([H])C([H])([H])C([H])([H])C([H])([H])[H])c(C([H])([H])C([H])([H])C([H])([H])C([H])([H])[H])c3C([H])([H])[H])c([H])c([H])c2C1([H])[H]

>  <smiles>  (9) 
[H]c1c([H])c([H])c2c(c1[H])C([H])([H])C([H])([H])C([H])([H])C2([H])N([H])C(=O)C1([H])N(C(=O)C([H])(N([H])C(=O)C([H])(N([H])C([H])([H])[H])C([H])([H])[H])C(C([H])([H])[H])(C([H])([H])[H])C([H])([H])[H])C([H])([H])c2c([H])c(OC([H])([H])C([H])([H])c3c([H])c(C([H])([H])C(=O)N4C([H])([H])C([H])([H])C([H])([H])C([H])(n5nc(-c6c([H])c([H])c(Oc7c([H])c([H])c(F)c([H])c7F)c([H])c6[H])c(C(=O)N([H])[H])c5N([H])[H])C4([H])[H])c(C([H])([H])C([H])([H])C([H])([H])C([H])([H])[H])c(C([H])([H])C([H])([H])C([H])([H])C([H])([H])[H])c3C([H])([H])[H])c([H])c([H])c2C1([H])[H]

$$$$
9:0:0
     RDKit          3D

 90 98  0  0  1  0  0  0  0  0999 V2000
  -30.0330  -16.9630   20.1050 C   0  0  0  0  0  0  0  0  0  0  0  0
  -29.6100  -17.1670   18.7500 C   0  0  0  0  0  0  0  0  0  0  0  0
  -29.9390  -18.3140   20.8540 C   0  0  0  0  0  0  0  0  0  0  0  0
  -28.9300  -18.3420   18.2910 C   0  0  0  0  0  0  0  0  0  0  0  0
  -28.7990  -19.5360   19.0690 C   0  0  0  0  0  0  0  0  0  0  0  0
  -29.3790  -19.6720   20.3610 C   0  0  0  0  0  0  0  0  0  0  0  0
  -29.9760  -16.1430   17.6760 C   0  0  0  0  0  1  0  0  0  0  0  0
  -30.4540  -18.3220   22.2800 C   0  0  0  0  0  1  0  0  0  0  0  0
  -28.3010  -18.3420   16.8850 C   0  0  0  0  0  1  0  0  0  0  0  0
  -28.0090  -20.7130   18.4910 C   0  0  0  0  0  1  0  0  0  0  0  0
  -30.7260  -15.4560   20.4650 C   0  0  0  0  0  0  0  0  0  0  0  0
  -30.7110  -13.0140   19.5730 C   0  0  0  0  0  2  0  0  0  0  0  0
  -29.8200  -12.7360   18.3330 C   0  0  0  0  0  2  0  0  0  0  0  0
  -28.3400  -12.5560   18.7160 C   0  0  0  0  0  2  0  0  0  0  0  0
  -27.8650  -13.5250   19.8280 C   0  0  0  0  0  3  0  0  0  0  0  0
  -28.8880  -13.6690   20.9700 C   0  0  0  0  0  2  0  0  0  0  0  0
  -30.1370  -14.1610   20.3660 N   0  0  0  0  0  0  0  0  0  0  0  0
  -31.9640  -15.3950   20.4570 O   0  0  0  0  0  0  0  0  0  0  0  0
  -25.4750  -14.0680   20.5350 C   0  0  0  0  0  0  0  0  0  0  0  0
  -24.4060  -13.2820   20.8630 C   0  0  0  0  0  0  0  0  0  0  0  0
  -24.8810  -11.9340   20.8380 C   0  0  0  0  0  0  0  0  0  0  0  0
  -26.5290  -13.2010   20.3120 N   0  0  0  0  0  0  0  0  0  0  0  0
  -26.1820  -11.9120   20.5700 N   0  0  0  0  0  0  0  0  0  0  0  0
  -24.1550  -10.6650   20.9890 C   0  0  0  0  0  0  0  0  0  0  0  0
  -24.5530   -9.6920   21.9310 C   0  0  0  0  0  3  0  0  0  0  0  0
  -23.8250   -8.4910   22.0750 C   0  0  0  0  0  3  0  0  0  0  0  0
  -22.6830   -8.2550   21.2720 C   0  0  0  0  0  0  0  0  0  0  0  0
  -22.3040   -9.2160   20.3190 C   0  0  0  0  0  3  0  0  0  0  0  0
  -23.0340  -10.4080   20.1750 C   0  0  0  0  0  3  0  0  0  0  0  0
  -21.9270   -7.1100   21.3250 O   0  0  0  0  0  0  0  0  0  0  0  0
  -21.8360   -6.3610   22.4680 C   0  0  0  0  0  0  0  0  0  0  0  0
  -21.3380   -6.9010   23.6760 C   0  0  0  0  0  3  0  0  0  0  0  0
  -21.1920   -6.0740   24.8080 C   0  0  0  0  0  3  0  0  0  0  0  0
  -21.5340   -4.7110   24.7340 C   0  0  0  0  0  0  0  0  0  0  0  0
  -22.0270   -4.1720   23.5330 C   0  0  0  0  0  3  0  0  0  0  0  0
  -22.1740   -4.9930   22.4040 C   0  0  0  0  0  0  0  0  0  0  0  0
  -22.6280   -4.4630   21.2410 F   0  0  0  0  0  0  0  0  0  0  0  0
  -21.3900   -3.9160   25.8210 F   0  0  0  0  0  0  0  0  0  0  0  0
  -22.9990  -13.7510   21.0830 C   0  0  0  0  0  0  0  0  0  0  0  0
  -22.2510  -13.0710   21.9430 N   0  0  0  0  0  0  0  0  0  0  0  0
  -22.5670  -14.7620   20.5280 O   0  0  0  0  0  0  0  0  0  0  0  0
  -22.6140  -12.2590   22.4220 H   0  0  0  0  0  0  0  0  0  0  0  0
  -21.3040  -13.3710   22.1240 H   0  0  0  0  0  0  0  0  0  0  0  0
  -25.6290  -15.4420   20.3810 N   0  0  0  0  0  0  0  0  0  0  0  0
  -24.8490  -16.0790   20.5040 H   0  0  0  0  0  0  0  0  0  0  0  0
  -26.4830  -15.9080   20.0950 H   0  0  0  0  0  0  0  0  0  0  0  0
  -29.1720  -21.2270   21.1420 C   0  0  0  0  0  2  0  0  0  0  0  0
  -29.2660  -22.9550   20.6210 C   0  0  0  0  0  3  0  0  0  0  0  0
  -28.4300  -24.4600   21.1280 C   0  0  0  0  0  3  0  0  0  0  0  0
  -28.6250  -26.0700   20.8700 O   0  0  0  0  0  0  0  0  0  0  0  0
  -24.7600  -32.0670   23.3480 C   0  0  0  0  0  0  0  0  0  0  0  0
  -27.5740  -27.1140   20.7540 C   0  0  0  0  0  0  0  0  0  0  0  0
  -23.6890  -30.5730   21.7110 C   0  0  0  0  0  3  0  0  0  0  0  0
  -25.2470  -28.9260   20.4690 C   0  0  0  0  0  0  0  0  0  0  0  0
  -26.2550  -30.8300   21.7100 C   0  0  0  0  0  2  0  0  0  0  0  0
  -26.3880  -29.3920   21.1340 C   0  0  0  0  0  0  0  0  0  0  0  0
  -27.5510  -28.5080   21.2470 C   0  0  0  0  0  3  0  0  0  0  0  0
  -26.4010  -26.7870   20.0410 C   0  0  0  0  0  3  0  0  0  0  0  0
  -25.2770  -27.6400   19.9030 C   0  0  0  0  0  3  0  0  0  0  0  0
  -24.0120  -29.8240   20.3890 C   0  0  0  0  0  2  0  0  0  0  0  0
  -24.9180  -31.1870   22.3080 N   0  0  0  0  0  0  0  0  0  0  0  0
  -23.6370  -32.3610   23.7890 O   0  0  0  0  0  0  0  0  0  0  0  0
  -22.9530  -29.6120   22.6820 C   0  0  0  0  0  0  0  0  0  0  0  0
  -21.6340  -29.4260   22.4900 N   0  0  0  0  0  0  0  0  0  0  0  0
  -23.5790  -29.0310   23.5720 O   0  0  0  0  0  0  0  0  0  0  0  0
  -21.1850  -29.9430   21.7460 H   0  0  0  0  0  0  0  0  0  0  0  0
  -18.2280  -28.2540   22.9080 C   0  0  0  0  0  0  0  0  0  0  0  0
  -20.7770  -28.5170   23.2580 C   0  0  0  0  0  3  0  0  0  0  0  0
  -20.8920  -27.0680   22.7280 C   0  0  0  0  0  2  0  0  0  0  0  0
  -19.8270  -26.7210   21.6840 C   0  0  0  0  0  2  0  0  0  0  0  0
  -18.4230  -26.8880   22.2720 C   0  0  0  0  0  2  0  0  0  0  0  0
  -19.3330  -29.0260   23.3540 C   0  0  0  0  0  0  0  0  0  0  0  0
  -19.0970  -30.3040   23.9080 C   0  0  0  0  0  3  0  0  0  0  0  0
  -17.7880  -30.8090   24.0180 C   0  0  0  0  0  3  0  0  0  0  0  0
  -16.6980  -30.0370   23.5850 C   0  0  0  0  0  3  0  0  0  0  0  0
  -16.9170  -28.7610   23.0370 C   0  0  0  0  0  3  0  0  0  0  0  0
  -25.9830  -32.7600   24.0230 C   0  0  0  0  0  3  0  0  0  0  0  0
  -26.4260  -32.0600   25.3670 C   0  0  1  0  0  0  0  0  0  0  0  0
  -25.2570  -31.7960   26.3460 C   0  0  0  0  0  1  0  0  0  0  0  0
  -27.1150  -30.7050   25.0870 C   0  0  0  0  0  1  0  0  0  0  0  0
  -27.4650  -32.9410   26.0990 C   0  0  0  0  0  1  0  0  0  0  0  0
  -25.6210  -34.1650   24.2790 N   0  0  0  0  0  0  0  0  0  0  0  0
  -25.9690  -35.2000   23.5060 C   0  0  0  0  0  0  0  0  0  0  0  0
  -26.6920  -35.0760   22.5140 O   0  0  0  0  0  0  0  0  0  0  0  0
  -24.9830  -34.3320   25.0430 H   0  0  0  0  0  0  0  0  0  0  0  0
  -24.2150  -36.9420   23.0210 C   0  0  0  0  0  1  0  0  0  0  0  0
  -25.4340  -36.5950   23.8910 C   0  0  0  0  0  3  0  0  0  0  0  0
  -27.5110  -37.5710   24.7650 C   0  0  0  0  0  1  0  0  0  0  0  0
  -26.4450  -37.6690   23.7730 N   0  0  0  0  0  0  0  0  0  0  0  0
  -26.0080  -38.5830   23.8650 H   0  0  0  0  0  0  0  0  0  0  0  0
  1 11  1  0
  1  3  1  0
  2  1  2  0
  3  8  1  0
  4  2  1  0
  4  5  2  0
  5  6  1  0
  6  3  2  0
  6 47  1  0
  7  2  1  0
  9  4  1  0
 10  5  1  0
 12 17  1  0
 13 14  1  0
 13 12  1  0
 15 14  1  0
 15 22  1  0
 15 16  1  0
 17 11  1  0
 17 16  1  0
 18 11  2  0
 19 20  2  0
 20 39  1  0
 21 20  1  0
 21 24  1  0
 22 19  1  0
 22 23  1  0
 23 21  2  0
 24 25  1  0
 25 26  2  0
 27 30  1  0
 27 26  1  0
 28 27  2  0
 29 28  1  0
 29 24  2  0
 30 31  1  0
 31 32  1  0
 32 33  2  0
 34 33  1  0
 34 38  1  0
 35 34  2  0
 36 31  2  0
 36 35  1  0
 37 36  1  0
 39 40  1  0
 40 43  1  0
 40 42  1  0
 41 39  2  0
 44 45  1  0
 44 19  1  0
 46 44  1  0
 48 49  2  0
 48 47  1  0
 50 49  1  0
 51 62  2  0
 52 50  1  0
 52 57  1  0
 53 61  1  0
 53 63  1  0
 54 56  1  0
 55 61  1  0
 56 57  2  0
 56 55  1  0
 58 52  2  0
 59 58  1  0
 59 54  2  0
 60 54  1  0
 60 53  1  0
 61 51  1  0
 63 65  2  0
 64 63  1  0
 66 64  1  0
 67 76  2  0
 67 72  1  0
 68 64  1  0
 68 72  1  0
 69 68  1  0
 70 71  1  0
 70 69  1  0
 71 67  1  0
 72 73  2  0
 73 74  1  0
 75 74  2  0
 76 75  1  0
 77 51  1  0
 77 82  1  0
 77 78  1  0
 78 81  1  1
 78 79  1  0
 80 78  1  0
 82 85  1  0
 83 87  1  0
 83 82  1  0
 84 83  2  0
 87 86  1  0
 89 90  1  0
 89 87  1  0
 89 88  1  0
M  ISO  4   1 100  11 100  49 101  50 101
M  END
>  <TORSDO>  (10) 
F 19

>  <SCORE>  (10) 
-14.129

>  <name>  (10) 
9

>  <ligand_id>  (10) 
9

>  <original_smiles>  (10) 
[H]c1c([H])c([H])c2c(c1[H])C([H])([H])C([H])([H])C([H])([H])C2([H])N([H])C(=O)C1([H])N(C(=O)C([H])(N([H])C(=O)C([H])(N([H])C([H])([H])[H])C([H])([H])[H])C(C([H])([H])[H])(C([H])([H])[H])C([H])([H])[H])C([H])([H])c2c([H])c(OC([H])([H])C([H])([H])C([H])([H])c3c(C([H])([H])[H])c(C(=O)N4C([H])([H])C([H])([H])C([H])([H])C([H])(n5nc(-c6c([H])c([H])c(Oc7c([H])c([H])c(F)c([H])c7F)c([H])c6[H])c(C(=O)N([H])[H])c5N([H])[H])C4([H])[H])c(C([H])([H])[H])c(C([H])([H])[H])c3C([H])([H])[H])c([H])c([H])c2C1([H])[H]

>  <smiles>  (10) 
[H]c1c([H])c([H])c2c(c1[H])C([H])([H])C([H])([H])C([H])([H])C2([H])N([H])C(=O)C1([H])N(C(=O)C([H])(N([H])C(=O)C([H])(N([H])C([H])([H])[H])C([H])([H])[H])C(C([H])([H])[H])(C([H])([H])[H])C([H])([H])[H])C([H])([H])c2c([H])c(OC([H])([H])C([H])([H])C([H])([H])c3c(C([H])([H])[H])c(C(=O)N4C([H])([H])C([H])([H])C([H])([H])C([H])(n5nc(-c6c([H])c([H])c(Oc7c([H])c([H])c(F)c([H])c7F)c([H])c6[H])c(C(=O)N([H])[H])c5N([H])[H])C4([H])[H])c(C([H])([H])[H])c(C([H])([H])[H])c3C([H])([H])[H])c([H])c([H])c2C1([H])[H]

$$$$
10:0:0
     RDKit          3D

 92100  0  0  1  0  0  0  0  0999 V2000
  -28.5690  -23.2010   20.7760 C   0  0  0  0  0  3  0  0  0  0  0  0
  -28.1750  -24.3900   20.1280 C   0  0  0  0  0  3  0  0  0  0  0  0
  -29.0270  -25.6900   21.9980 C   0  0  0  0  0  3  0  0  0  0  0  0
  -29.2260  -23.2480   22.0250 C   0  0  0  0  0  0  0  0  0  0  0  0
  -28.4150  -25.6420   20.7290 C   0  0  0  0  0  0  0  0  0  0  0  0
  -29.4370  -24.5050   22.6460 C   0  0  0  0  0  0  0  0  0  0  0  0
  -30.0700  -24.5910   23.8530 O   0  0  0  0  0  0  0  0  0  0  0  0
  -30.1870  -25.4860   24.1550 H   0  0  0  0  0  0  0  0  0  0  0  0
  -28.2030  -26.8080   20.0370 O   0  0  0  0  0  0  0  0  0  0  0  0
  -24.4820  -31.9710   23.2520 C   0  0  0  0  0  0  0  0  0  0  0  0
  -27.0190  -27.4900   20.1620 C   0  0  0  0  0  0  0  0  0  0  0  0
  -23.2320  -30.5890   21.6230 C   0  0  0  0  0  3  0  0  0  0  0  0
  -24.6430  -29.0130   20.1990 C   0  0  0  0  0  0  0  0  0  0  0  0
  -25.7580  -30.9040   21.3980 C   0  0  0  0  0  2  0  0  0  0  0  0
  -25.8120  -29.5260   20.7750 C   0  0  0  0  0  0  0  0  0  0  0  0
  -27.0030  -28.7680   20.7590 C   0  0  0  0  0  3  0  0  0  0  0  0
  -25.8350  -26.9820   19.5870 C   0  0  0  0  0  3  0  0  0  0  0  0
  -24.6460  -27.7370   19.6070 C   0  0  0  0  0  3  0  0  0  0  0  0
  -23.4160  -29.8960   20.2460 C   0  0  0  0  0  2  0  0  0  0  0  0
  -24.5100  -31.1700   22.1500 N   0  0  0  0  0  0  0  0  0  0  0  0
  -23.4120  -32.2650   23.8030 O   0  0  0  0  0  0  0  0  0  0  0  0
  -22.5710  -29.5840   22.5930 C   0  0  0  0  0  0  0  0  0  0  0  0
  -21.2450  -29.4170   22.4680 N   0  0  0  0  0  0  0  0  0  0  0  0
  -23.2490  -28.9550   23.4110 O   0  0  0  0  0  0  0  0  0  0  0  0
  -20.7600  -29.9740   21.7790 H   0  0  0  0  0  0  0  0  0  0  0  0
  -17.8570  -28.2690   22.9720 C   0  0  0  0  0  0  0  0  0  0  0  0
  -20.4170  -28.4950   23.2450 C   0  0  0  0  0  3  0  0  0  0  0  0
  -20.5020  -27.0590   22.6770 C   0  0  0  0  0  2  0  0  0  0  0  0
  -19.3960  -26.7440   21.6640 C   0  0  0  0  0  2  0  0  0  0  0  0
  -18.0160  -26.9120   22.3070 C   0  0  0  0  0  2  0  0  0  0  0  0
  -18.9850  -29.0190   23.3980 C   0  0  0  0  0  0  0  0  0  0  0  0
  -18.7840  -30.2890   23.9790 C   0  0  0  0  0  3  0  0  0  0  0  0
  -17.4870  -30.8110   24.1390 C   0  0  0  0  0  3  0  0  0  0  0  0
  -16.3720  -30.0580   23.7300 C   0  0  0  0  0  3  0  0  0  0  0  0
  -16.5580  -28.7890   23.1530 C   0  0  0  0  0  3  0  0  0  0  0  0
  -25.7870  -32.5760   23.8580 C   0  0  0  0  0  3  0  0  0  0  0  0
  -25.5150  -33.9820   24.1770 N   0  0  0  0  0  0  0  0  0  0  0  0
  -25.8880  -35.0200   23.4150 C   0  0  0  0  0  0  0  0  0  0  0  0
  -26.5690  -34.8920   22.3940 O   0  0  0  0  0  0  0  0  0  0  0  0
  -24.9140  -34.1590   24.9690 H   0  0  0  0  0  0  0  0  0  0  0  0
  -24.2300  -36.8680   23.0110 C   0  0  0  0  0  1  0  0  0  0  0  0
  -25.4340  -36.4240   23.8580 C   0  0  0  0  0  3  0  0  0  0  0  0
  -27.5720  -37.2410   24.7470 C   0  0  0  0  0  1  0  0  0  0  0  0
  -26.5030  -37.4420   23.7720 N   0  0  0  0  0  0  0  0  0  0  0  0
  -26.1230  -38.3760   23.9060 H   0  0  0  0  0  0  0  0  0  0  0  0
  -26.2990  -31.8010   25.1350 C   0  0  1  0  0  0  0  0  0  0  0  0
  -25.2100  -31.5930   26.2120 C   0  0  0  0  0  1  0  0  0  0  0  0
  -26.8480  -30.4100   24.7430 C   0  0  0  0  0  1  0  0  0  0  0  0
  -27.4710  -32.5730   25.7840 C   0  0  0  0  0  1  0  0  0  0  0  0
  -29.7460  -21.9470   22.6380 C   0  0  0  0  0  2  0  0  0  0  0  0
  -30.9280  -21.3670   21.8320 C   0  0  0  0  0  2  0  0  0  0  0  0
  -31.8570  -20.4210   22.6180 C   0  0  0  0  0  2  0  0  0  0  0  0
  -31.2680  -19.0530   23.0150 C   0  0  0  0  0  2  0  0  0  0  0  0
  -30.8940  -18.1480   21.8260 C   0  0  0  0  0  2  0  0  0  0  0  0
  -30.6580  -16.6820   22.2510 C   0  0  0  0  0  2  0  0  0  0  0  0
  -29.9030  -15.8390   21.1960 C   0  0  0  0  0  2  0  0  0  0  0  0
  -30.6840  -14.6440   20.6010 C   0  0  0  0  0  0  0  0  0  0  0  0
  -30.4800  -12.5140   19.3720 C   0  0  0  0  0  2  0  0  0  0  0  0
  -29.5410  -12.7420   18.1660 C   0  0  0  0  0  2  0  0  0  0  0  0
  -28.0610  -12.5710   18.5690 C   0  0  0  0  0  2  0  0  0  0  0  0
  -27.6980  -13.3560   19.8580 C   0  0  0  0  0  3  0  0  0  0  0  0
  -28.7430  -13.0770   20.9600 C   0  0  0  0  0  2  0  0  0  0  0  0
  -30.0660  -13.4440   20.4330 N   0  0  0  0  0  0  0  0  0  0  0  0
  -31.8100  -14.8710   20.1450 O   0  0  0  0  0  0  0  0  0  0  0  0
  -25.2720  -13.9130   20.5240 C   0  0  0  0  0  0  0  0  0  0  0  0
  -24.2140  -13.1160   20.8690 C   0  0  0  0  0  0  0  0  0  0  0  0
  -24.7040  -11.7750   20.8350 C   0  0  0  0  0  0  0  0  0  0  0  0
  -26.3400  -13.0540   20.3070 N   0  0  0  0  0  0  0  0  0  0  0  0
  -25.9980  -11.7630   20.5480 N   0  0  0  0  0  0  0  0  0  0  0  0
  -24.0020  -10.4960   21.0040 C   0  0  0  0  0  0  0  0  0  0  0  0
  -24.4320   -9.5380   21.9490 C   0  0  0  0  0  3  0  0  0  0  0  0
  -23.7300   -8.3220   22.1050 C   0  0  0  0  0  3  0  0  0  0  0  0
  -22.5850   -8.0580   21.3170 C   0  0  0  0  0  0  0  0  0  0  0  0
  -22.1760   -9.0050   20.3620 C   0  0  0  0  0  3  0  0  0  0  0  0
  -22.8770  -10.2110   20.2040 C   0  0  0  0  0  3  0  0  0  0  0  0
  -21.8560   -6.8950   21.3820 O   0  0  0  0  0  0  0  0  0  0  0  0
  -21.7810   -6.1570   22.5360 C   0  0  0  0  0  0  0  0  0  0  0  0
  -21.2840   -6.7020   23.7390 C   0  0  0  0  0  3  0  0  0  0  0  0
  -21.1580   -5.8880   24.8830 C   0  0  0  0  0  3  0  0  0  0  0  0
  -21.5200   -4.5290   24.8230 C   0  0  0  0  0  0  0  0  0  0  0  0
  -22.0110   -3.9830   23.6240 C   0  0  0  0  0  3  0  0  0  0  0  0
  -22.1380   -4.7930   22.4830 C   0  0  0  0  0  0  0  0  0  0  0  0
  -22.5920   -4.2570   21.3250 F   0  0  0  0  0  0  0  0  0  0  0  0
  -21.3920   -3.7450   25.9180 F   0  0  0  0  0  0  0  0  0  0  0  0
  -22.8020  -13.5610   21.1240 C   0  0  0  0  0  0  0  0  0  0  0  0
  -22.0760  -12.8410   21.9710 N   0  0  0  0  0  0  0  0  0  0  0  0
  -22.3510  -14.5830   20.6080 O   0  0  0  0  0  0  0  0  0  0  0  0
  -22.4530  -12.0140   22.4110 H   0  0  0  0  0  0  0  0  0  0  0  0
  -21.1290  -13.1210   22.1850 H   0  0  0  0  0  0  0  0  0  0  0  0
  -25.4120  -15.2880   20.3600 N   0  0  0  0  0  0  0  0  0  0  0  0
  -24.6320  -15.9290   20.4630 H   0  0  0  0  0  0  0  0  0  0  0  0
  -26.2650  -15.7470   20.0650 H   0  0  0  0  0  0  0  0  0  0  0  0
  1  4  1  0
  2  5  1  0
  2  1  2  0
  3  6  1  0
  4 50  1  0
  4  6  2  0
  5  3  2  0
  6  7  1  0
  7  8  1  0
  9 11  1  0
  9  5  1  0
 10 21  2  0
 11 16  1  0
 12 20  1  0
 12 22  1  0
 13 19  1  0
 13 15  1  0
 14 20  1  0
 15 14  1  0
 16 15  2  0
 17 18  1  0
 17 11  2  0
 18 13  2  0
 19 12  1  0
 20 10  1  0
 22 24  2  0
 23 22  1  0
 25 23  1  0
 26 35  2  0
 26 31  1  0
 27 23  1  0
 27 31  1  0
 28 27  1  0
 29 30  1  0
 29 28  1  0
 30 26  1  0
 31 32  2  0
 32 33  1  0
 34 33  2  0
 35 34  1  0
 36 10  1  0
 36 37  1  0
 36 46  1  0
 37 40  1  0
 38 42  1  0
 38 37  1  0
 39 38  2  0
 42 41  1  0
 44 42  1  0
 44 45  1  0
 44 43  1  0
 46 49  1  1
 46 47  1  0
 48 46  1  0
 51 52  1  0
 51 50  1  0
 52 53  1  0
 54 55  1  0
 54 53  1  0
 56 55  1  0
 57 56  1  0
 58 63  1  0
 59 60  1  0
 59 58  1  0
 61 60  1  0
 61 68  1  0
 61 62  1  0
 63 57  1  0
 63 62  1  0
 64 57  2  0
 65 66  2  0
 66 85  1  0
 67 66  1  0
 67 70  1  0
 68 65  1  0
 68 69  1  0
 69 67  2  0
 70 71  1  0
 71 72  2  0
 73 76  1  0
 73 72  1  0
 74 73  2  0
 75 74  1  0
 75 70  2  0
 76 77  1  0
 77 78  1  0
 78 79  2  0
 80 79  1  0
 80 84  1  0
 81 80  2  0
 82 77  2  0
 82 81  1  0
 83 82  1  0
 85 86  1  0
 86 89  1  0
 86 88  1  0
 87 85  2  0
 90 91  1  0
 90 65  1  0
 92 90  1  0
M  ISO  4   5 101   9 101  56 100  57 100
M  END
>  <TORSDO>  (11) 
F 24

>  <SCORE>  (11) 
-12.810

>  <name>  (11) 
10

>  <ligand_id>  (11) 
10

>  <original_smiles>  (11) 
[H]Oc1c([H])c(Oc2c([H])c([H])c3c(c2[H])C([H])([H])N(C(=O)C([H])(N([H])C(=O)C([H])(N([H])C([H])([H])[H])C([H])([H])[H])C(C([H])([H])[H])(C([H])([H])[H])C([H])([H])[H])C([H])(C(=O)N([H])C2([H])c4c([H])c([H])c([H])c([H])c4C([H])([H])C([H])([H])C2([H])[H])C3([H])[H])c([H])c([H])c1C([H])([H])C([H])([H])C([H])([H])C([H])([H])C([H])([H])C([H])([H])C([H])([H])C(=O)N1C([H])([H])C([H])([H])C([H])([H])C([H])(n2nc(-c3c([H])c([H])c(Oc4c([H])c([H])c(F)c([H])c4F)c([H])c3[H])c(C(=O)N([H])[H])c2N([H])[H])C1([H])[H]

>  <smiles>  (11) 
[H]Oc1c([H])c(Oc2c([H])c([H])c3c(c2[H])C([H])([H])N(C(=O)C([H])(N([H])C(=O)C([H])(N([H])C([H])([H])[H])C([H])([H])[H])C(C([H])([H])[H])(C([H])([H])[H])C([H])([H])[H])C([H])(C(=O)N([H])C2([H])c4c([H])c([H])c([H])c([H])c4C([H])([H])C([H])([H])C2([H])[H])C3([H])[H])c([H])c([H])c1C([H])([H])C([H])([H])C([H])([H])C([H])([H])C([H])([H])C([H])([H])C([H])([H])C(=O)N1C([H])([H])C([H])([H])C([H])([H])C([H])(n2nc(-c3c([H])c([H])c(Oc4c([H])c([H])c(F)c([H])c4F)c([H])c3[H])c(C(=O)N([H])[H])c2N([H])[H])C1([H])[H]

$$$$
11:0:0
     RDKit          3D

 91 99  0  0  1  0  0  0  0  0999 V2000
  -29.5310  -19.5260   21.5140 C   0  0  0  0  0  3  0  0  0  0  0  0
  -29.0660  -19.5340   20.1910 C   0  0  0  0  0  0  0  0  0  0  0  0
  -29.8820  -16.8450   20.1730 C   0  0  0  0  0  0  0  0  0  0  0  0
  -30.1220  -18.4000   22.1440 C   0  0  0  0  0  0  0  0  0  0  0  0
  -29.2650  -18.1300   19.5570 C   0  0  0  0  0  0  0  0  0  0  0  0
  -30.3250  -17.1240   21.5110 C   0  0  0  0  0  0  0  0  0  0  0  0
  -30.5730  -18.6300   23.5840 C   0  0  0  0  0  1  0  0  0  0  0  0
  -28.7770  -18.0060   18.1250 C   0  0  0  0  0  1  0  0  0  0  0  0
  -30.3340  -15.3560   19.5010 C   0  0  0  0  0  0  0  0  0  0  0  0
  -30.0380  -12.9690   18.5120 C   0  0  0  0  0  2  0  0  0  0  0  0
  -28.9530  -12.9060   17.4050 C   0  0  0  0  0  2  0  0  0  0  0  0
  -27.5670  -12.6560   18.0230 C   0  0  0  0  0  2  0  0  0  0  0  0
  -27.3280  -13.5520   19.2600 C   0  0  0  0  0  3  0  0  0  0  0  0
  -28.5210  -13.5900   20.2340 C   0  0  0  0  0  2  0  0  0  0  0  0
  -29.7000  -14.0730   19.4930 N   0  0  0  0  0  0  0  0  0  0  0  0
  -31.4290  -15.3190   18.9230 O   0  0  0  0  0  0  0  0  0  0  0  0
  -25.1280  -14.1380   20.4020 C   0  0  0  0  0  0  0  0  0  0  0  0
  -24.0990  -13.3740   20.8810 C   0  0  0  0  0  0  0  0  0  0  0  0
  -24.4980  -12.0140   20.6980 C   0  0  0  0  0  0  0  0  0  0  0  0
  -26.0790  -13.2460   19.9440 N   0  0  0  0  0  0  0  0  0  0  0  0
  -25.7250  -11.9580   20.1900 N   0  0  0  0  0  0  0  0  0  0  0  0
  -23.7530  -10.7670   20.9210 C   0  0  0  0  0  0  0  0  0  0  0  0
  -24.2310   -9.7630   21.7920 C   0  0  0  0  0  3  0  0  0  0  0  0
  -23.4850   -8.5840   22.0050 C   0  0  0  0  0  3  0  0  0  0  0  0
  -22.2450   -8.4000   21.3480 C   0  0  0  0  0  0  0  0  0  0  0  0
  -21.7830   -9.3930   20.4660 C   0  0  0  0  0  3  0  0  0  0  0  0
  -22.5310  -10.5640   20.2520 C   0  0  0  0  0  3  0  0  0  0  0  0
  -21.4630   -7.2760   21.4740 O   0  0  0  0  0  0  0  0  0  0  0  0
  -21.4250   -6.5530   22.6390 C   0  0  0  0  0  0  0  0  0  0  0  0
  -21.0450   -7.1370   23.8670 C   0  0  0  0  0  3  0  0  0  0  0  0
  -20.9520   -6.3420   25.0260 C   0  0  0  0  0  3  0  0  0  0  0  0
  -21.2280   -4.9630   24.9590 C   0  0  0  0  0  0  0  0  0  0  0  0
  -21.6010   -4.3780   23.7360 C   0  0  0  0  0  3  0  0  0  0  0  0
  -21.6960   -5.1710   22.5790 C   0  0  0  0  0  0  0  0  0  0  0  0
  -22.0350   -4.5990   21.3990 F   0  0  0  0  0  0  0  0  0  0  0  0
  -21.1310   -4.1960   26.0710 F   0  0  0  0  0  0  0  0  0  0  0  0
  -22.7810  -13.8790   21.3880 C   0  0  0  0  0  0  0  0  0  0  0  0
  -22.1710  -13.1680   22.3280 N   0  0  0  0  0  0  0  0  0  0  0  0
  -22.3070  -14.9410   20.9830 O   0  0  0  0  0  0  0  0  0  0  0  0
  -22.5740  -12.3100   22.6780 H   0  0  0  0  0  0  0  0  0  0  0  0
  -21.2910  -13.4870   22.7070 H   0  0  0  0  0  0  0  0  0  0  0  0
  -25.3260  -15.5110   20.2910 N   0  0  0  0  0  0  0  0  0  0  0  0
  -24.6270  -16.1870   20.5790 H   0  0  0  0  0  0  0  0  0  0  0  0
  -26.1530  -15.9420   19.8990 H   0  0  0  0  0  0  0  0  0  0  0  0
  -28.3740  -21.0330   19.6940 C   0  0  0  0  0  0  0  0  0  0  0  0
  -27.7670  -20.9930   18.6210 O   0  0  0  0  0  0  0  0  0  0  0  0
  -28.3670  -22.6490   20.3810 C   0  0  0  0  0  3  0  0  0  0  0  0
  -27.5430  -24.1920   19.9100 C   0  0  0  0  0  3  0  0  0  0  0  0
  -27.7280  -25.8050   20.2330 O   0  0  0  0  0  0  0  0  0  0  0  0
  -24.4400  -31.8980   23.2180 C   0  0  0  0  0  0  0  0  0  0  0  0
  -26.7400  -26.9220   20.1580 C   0  0  0  0  0  0  0  0  0  0  0  0
  -23.1390  -30.5100   21.6540 C   0  0  0  0  0  3  0  0  0  0  0  0
  -24.4830  -28.8540   20.1860 C   0  0  0  0  0  0  0  0  0  0  0  0
  -25.6980  -30.6580   21.3900 C   0  0  0  0  0  2  0  0  0  0  0  0
  -25.7050  -29.2390   20.7510 C   0  0  0  0  0  0  0  0  0  0  0  0
  -26.8260  -28.2940   20.7140 C   0  0  0  0  0  3  0  0  0  0  0  0
  -25.4930  -26.6920   19.5350 C   0  0  0  0  0  3  0  0  0  0  0  0
  -24.4030  -27.6010   19.5560 C   0  0  0  0  0  3  0  0  0  0  0  0
  -23.2900  -29.8030   20.2780 C   0  0  0  0  0  2  0  0  0  0  0  0
  -24.4500  -31.0490   22.1400 N   0  0  0  0  0  0  0  0  0  0  0  0
  -23.3830  -32.2200   23.7850 O   0  0  0  0  0  0  0  0  0  0  0  0
  -22.4650  -29.5450   22.6640 C   0  0  0  0  0  0  0  0  0  0  0  0
  -21.1470  -29.3110   22.5220 N   0  0  0  0  0  0  0  0  0  0  0  0
  -23.1370  -29.0050   23.5480 O   0  0  0  0  0  0  0  0  0  0  0  0
  -20.6580  -29.8000   21.7850 H   0  0  0  0  0  0  0  0  0  0  0  0
  -17.8430  -27.8750   22.9380 C   0  0  0  0  0  0  0  0  0  0  0  0
  -20.3480  -28.3860   23.3320 C   0  0  0  0  0  3  0  0  0  0  0  0
  -20.6030  -26.9190   22.9150 C   0  0  0  0  0  2  0  0  0  0  0  0
  -19.6040  -26.4050   21.8730 C   0  0  0  0  0  2  0  0  0  0  0  0
  -18.1740  -26.4880   22.4130 C   0  0  0  0  0  2  0  0  0  0  0  0
  -18.8630  -28.7710   23.3550 C   0  0  0  0  0  0  0  0  0  0  0  0
  -18.4980  -30.0580   23.8070 C   0  0  0  0  0  3  0  0  0  0  0  0
  -17.1460  -30.4510   23.8490 C   0  0  0  0  0  3  0  0  0  0  0  0
  -16.1410  -29.5560   23.4460 C   0  0  0  0  0  3  0  0  0  0  0  0
  -16.4890  -28.2700   22.9960 C   0  0  0  0  0  3  0  0  0  0  0  0
  -25.7540  -32.5170   23.7830 C   0  0  0  0  0  3  0  0  0  0  0  0
  -26.2960  -31.7580   25.0580 C   0  0  1  0  0  0  0  0  0  0  0  0
  -25.2330  -31.5550   26.1630 C   0  0  0  0  0  1  0  0  0  0  0  0
  -26.8460  -30.3640   24.6800 C   0  0  0  0  0  1  0  0  0  0  0  0
  -27.4790  -32.5440   25.6700 C   0  0  0  0  0  1  0  0  0  0  0  0
  -25.4860  -33.9280   24.1110 N   0  0  0  0  0  0  0  0  0  0  0  0
  -25.8090  -34.9710   23.3340 C   0  0  0  0  0  0  0  0  0  0  0  0
  -26.4230  -34.8440   22.2720 O   0  0  0  0  0  0  0  0  0  0  0  0
  -24.9330  -34.1030   24.9370 H   0  0  0  0  0  0  0  0  0  0  0  0
  -24.1070  -36.8090   23.0650 C   0  0  0  0  0  1  0  0  0  0  0  0
  -25.3830  -36.3770   23.8050 C   0  0  0  0  0  3  0  0  0  0  0  0
  -27.5810  -37.2220   24.5050 C   0  0  0  0  0  1  0  0  0  0  0  0
  -26.4310  -37.4050   23.6230 N   0  0  0  0  0  0  0  0  0  0  0  0
  -26.0550  -38.3360   23.7790 H   0  0  0  0  0  0  0  0  0  0  0  0
  -32.6400  -16.1440   21.9280 C   0  0  0  0  0  1  0  0  0  0  0  0
  -31.1490  -16.0830   22.2850 C   0  0  0  0  0  2  0  0  0  0  0  0
  1  4  1  0
  2  1  2  0
  3  6  1  0
  4  7  1  0
  5  3  2  0
  5  2  1  0
  6  4  2  0
  6 91  1  0
  8  5  1  0
  9  3  1  0
 10 15  1  0
 11 12  1  0
 11 10  1  0
 13 12  1  0
 13 20  1  0
 13 14  1  0
 15  9  1  0
 15 14  1  0
 16  9  2  0
 17 18  2  0
 18 37  1  0
 19 18  1  0
 19 22  1  0
 20 21  1  0
 20 17  1  0
 21 19  2  0
 22 23  1  0
 23 24  2  0
 25 28  1  0
 25 24  1  0
 26 25  2  0
 27 26  1  0
 27 22  2  0
 28 29  1  0
 29 30  1  0
 30 31  2  0
 32 31  1  0
 32 36  1  0
 33 32  2  0
 34 29  2  0
 34 33  1  0
 35 34  1  0
 37 38  1  0
 38 40  1  0
 38 41  1  0
 39 37  2  0
 42 17  1  0
 42 43  1  0
 44 42  1  0
 45  2  1  0
 45 47  1  0
 46 45  2  0
 48 49  1  0
 48 47  2  0
 50 61  2  0
 51 49  1  0
 51 56  1  0
 52 60  1  0
 52 62  1  0
 53 59  1  0
 53 55  1  0
 54 60  1  0
 55 54  1  0
 56 55  2  0
 57 58  1  0
 57 51  2  0
 58 53  2  0
 59 52  1  0
 60 50  1  0
 62 64  2  0
 63 62  1  0
 65 63  1  0
 66 75  2  0
 66 71  1  0
 67 63  1  0
 67 71  1  0
 68 67  1  0
 69 70  1  0
 69 68  1  0
 70 66  1  0
 71 72  2  0
 72 73  1  0
 74 73  2  0
 75 74  1  0
 76 50  1  0
 76 81  1  0
 76 77  1  0
 77 80  1  1
 77 78  1  0
 79 77  1  0
 81 84  1  0
 82 86  1  0
 82 81  1  0
 83 82  2  0
 86 85  1  0
 88 89  1  0
 88 86  1  0
 88 87  1  0
 90 91  1  0
M  ISO  4   3 100   9 100  48 101  49 101
M  END
>  <TORSDO>  (12) 
F 20

>  <SCORE>  (12) 
-9.374

>  <name>  (12) 
11

>  <ligand_id>  (12) 
11

>  <original_smiles>  (12) 
[H]c1c([H])c([H])c2c(c1[H])C([H])([H])C([H])([H])C([H])([H])C2([H])N([H])C(=O)C1([H])N(C(=O)C([H])(N([H])C(=O)C([H])(N([H])C([H])([H])[H])C([H])([H])[H])C(C([H])([H])[H])(C([H])([H])[H])C([H])([H])[H])C([H])([H])c2c([H])c(OC([H])([H])C([H])([H])C(=O)c3c([H])c(C([H])([H])[H])c(C([H])([H])C([H])([H])[H])c(C(=O)N4C([H])([H])C([H])([H])C([H])([H])C([H])(n5nc(-c6c([H])c([H])c(Oc7c([H])c([H])c(F)c([H])c7F)c([H])c6[H])c(C(=O)N([H])[H])c5N([H])[H])C4([H])[H])c3C([H])([H])[H])c([H])c([H])c2C1([H])[H]

>  <smiles>  (12) 
[H]c1c([H])c([H])c2c(c1[H])C([H])([H])C([H])([H])C([H])([H])C2([H])N([H])C(=O)C1([H])N(C(=O)C([H])(N([H])C(=O)C([H])(N([H])C([H])([H])[H])C([H])([H])[H])C(C([H])([H])[H])(C([H])([H])[H])C([H])([H])[H])C([H])([H])c2c([H])c(OC([H])([H])C([H])([H])C(=O)c3c([H])c(C([H])([H])[H])c(C([H])([H])C([H])([H])[H])c(C(=O)N4C([H])([H])C([H])([H])C([H])([H])C([H])(n5nc(-c6c([H])c([H])c(Oc7c([H])c([H])c(F)c([H])c7F)c([H])c6[H])c(C(=O)N([H])[H])c5N([H])[H])C4([H])[H])c3C([H])([H])[H])c([H])c([H])c2C1([H])[H]

$$$$
12:0:0
     RDKit          3D

 91100  0  0  1  0  0  0  0  0999 V2000
  -29.3240  -18.3920   19.2860 C   0  0  0  0  0  3  0  0  0  0  0  0
  -30.4000  -18.4890   21.2500 C   0  0  0  0  0  3  0  0  0  0  0  0
  -29.3870  -20.8760   20.3850 C   0  0  0  0  0  0  0  0  0  0  0  0
  -30.0440  -17.4710   20.2460 C   0  0  0  0  0  0  0  0  0  0  0  0
  -29.0150  -19.9100   19.3360 C   0  0  0  0  0  0  0  0  0  0  0  0
  -30.1020  -19.9730   21.3400 C   0  0  0  0  0  0  0  0  0  0  0  0
  -29.1940  -22.6620   20.4960 C   0  0  0  0  0  0  0  0  0  0  0  0
  -28.6130  -22.0720   17.7710 C   0  0  0  0  0  2  0  0  0  0  0  0
  -27.8850  -23.3900   18.3230 C   0  0  0  0  0  2  0  0  0  0  0  0
  -28.2080  -20.5880   18.1910 C   0  0  0  0  0  3  0  0  0  0  0  0
  -28.1650  -23.9420   19.7700 C   0  0  0  0  0  3  0  0  0  0  0  0
  -30.6340  -20.6080   22.6220 C   0  0  0  0  0  1  0  0  0  0  0  0
  -26.6970  -20.4480   18.4270 C   0  0  0  0  0  1  0  0  0  0  0  0
  -29.9830  -23.1880   21.2870 O   0  0  0  0  0  0  0  0  0  0  0  0
  -30.6640  -15.8110   20.1220 C   0  0  0  0  0  0  0  0  0  0  0  0
  -30.7240  -13.2580   19.3570 C   0  0  0  0  0  2  0  0  0  0  0  0
  -29.8340  -12.8630   18.1440 C   0  0  0  0  0  2  0  0  0  0  0  0
  -28.4120  -12.5150   18.6030 C   0  0  0  0  0  2  0  0  0  0  0  0
  -27.8990  -13.5250   19.6550 C   0  0  0  0  0  3  0  0  0  0  0  0
  -28.9290  -13.8640   20.7570 C   0  0  0  0  0  2  0  0  0  0  0  0
  -30.1160  -14.4550   20.1010 N   0  0  0  0  0  0  0  0  0  0  0  0
  -31.8860  -15.6980   19.9080 O   0  0  0  0  0  0  0  0  0  0  0  0
  -25.5490  -14.0310   20.4750 C   0  0  0  0  0  0  0  0  0  0  0  0
  -24.4990  -13.2400   20.8460 C   0  0  0  0  0  0  0  0  0  0  0  0
  -24.9760  -11.8940   20.7860 C   0  0  0  0  0  0  0  0  0  0  0  0
  -26.5930  -13.1710   20.1940 N   0  0  0  0  0  0  0  0  0  0  0  0
  -26.2630  -11.8760   20.4520 N   0  0  0  0  0  0  0  0  0  0  0  0
  -24.2550  -10.6240   20.9690 C   0  0  0  0  0  0  0  0  0  0  0  0
  -24.6640   -9.6700   21.9260 C   0  0  0  0  0  3  0  0  0  0  0  0
  -23.9410   -8.4700   22.0980 C   0  0  0  0  0  3  0  0  0  0  0  0
  -22.7920   -8.2150   21.3120 C   0  0  0  0  0  0  0  0  0  0  0  0
  -22.4010   -9.1580   20.3440 C   0  0  0  0  0  3  0  0  0  0  0  0
  -23.1260  -10.3490   20.1710 C   0  0  0  0  0  3  0  0  0  0  0  0
  -22.0430   -7.0670   21.3910 O   0  0  0  0  0  0  0  0  0  0  0  0
  -21.9050   -6.3750   22.5680 C   0  0  0  0  0  0  0  0  0  0  0  0
  -21.3550   -6.9720   23.7230 C   0  0  0  0  0  3  0  0  0  0  0  0
  -21.1670   -6.2070   24.8910 C   0  0  0  0  0  3  0  0  0  0  0  0
  -21.5200   -4.8450   24.9040 C   0  0  0  0  0  0  0  0  0  0  0  0
  -22.0620   -4.2460   23.7540 C   0  0  0  0  0  3  0  0  0  0  0  0
  -22.2520   -5.0100   22.5880 C   0  0  0  0  0  0  0  0  0  0  0  0
  -22.7560   -4.4210   21.4760 F   0  0  0  0  0  0  0  0  0  0  0  0
  -21.3320   -4.1070   26.0240 F   0  0  0  0  0  0  0  0  0  0  0  0
  -23.1030  -13.7060   21.1380 C   0  0  0  0  0  0  0  0  0  0  0  0
  -22.3900  -13.0040   22.0110 N   0  0  0  0  0  0  0  0  0  0  0  0
  -22.6540  -14.7320   20.6290 O   0  0  0  0  0  0  0  0  0  0  0  0
  -22.7670  -12.1770   22.4490 H   0  0  0  0  0  0  0  0  0  0  0  0
  -21.4540  -13.3030   22.2480 H   0  0  0  0  0  0  0  0  0  0  0  0
  -25.6960  -15.4070   20.3220 N   0  0  0  0  0  0  0  0  0  0  0  0
  -24.9250  -16.0500   20.4750 H   0  0  0  0  0  0  0  0  0  0  0  0
  -26.5400  -15.8680   20.0060 H   0  0  0  0  0  0  0  0  0  0  0  0
  -28.2860  -25.6930   19.8570 O   0  0  0  0  0  0  0  0  0  0  0  0
  -24.7580  -31.8130   23.0150 C   0  0  0  0  0  0  0  0  0  0  0  0
  -27.2820  -26.8720   19.8270 C   0  0  0  0  0  0  0  0  0  0  0  0
  -23.5440  -30.4330   21.3820 C   0  0  0  0  0  3  0  0  0  0  0  0
  -24.9750  -28.8480   19.8840 C   0  0  0  0  0  0  0  0  0  0  0  0
  -26.1140  -30.6300   21.1850 C   0  0  0  0  0  2  0  0  0  0  0  0
  -26.1810  -29.2170   20.4920 C   0  0  0  0  0  0  0  0  0  0  0  0
  -27.3170  -28.2570   20.4330 C   0  0  0  0  0  3  0  0  0  0  0  0
  -26.0390  -26.7080   19.1660 C   0  0  0  0  0  3  0  0  0  0  0  0
  -24.9400  -27.6210   19.1970 C   0  0  0  0  0  3  0  0  0  0  0  0
  -23.7530  -29.7730   19.9880 C   0  0  0  0  0  2  0  0  0  0  0  0
  -24.8300  -30.9920   21.9120 N   0  0  0  0  0  0  0  0  0  0  0  0
  -23.6760  -32.0820   23.5660 O   0  0  0  0  0  0  0  0  0  0  0  0
  -22.8750  -29.4210   22.3500 C   0  0  0  0  0  0  0  0  0  0  0  0
  -21.5440  -29.2350   22.2510 N   0  0  0  0  0  0  0  0  0  0  0  0
  -23.5640  -28.8000   23.1630 O   0  0  0  0  0  0  0  0  0  0  0  0
  -21.0380  -29.7880   21.5730 H   0  0  0  0  0  0  0  0  0  0  0  0
  -18.2010  -27.9190   22.7990 C   0  0  0  0  0  0  0  0  0  0  0  0
  -20.7570  -28.2660   23.0240 C   0  0  0  0  0  3  0  0  0  0  0  0
  -20.8940  -26.8440   22.4330 C   0  0  0  0  0  2  0  0  0  0  0  0
  -19.7860  -26.4980   21.4310 C   0  0  0  0  0  2  0  0  0  0  0  0
  -18.4110  -26.5870   22.0980 C   0  0  0  0  0  2  0  0  0  0  0  0
  -19.3020  -28.7140   23.2190 C   0  0  0  0  0  0  0  0  0  0  0  0
  -19.0480  -29.9550   23.8410 C   0  0  0  0  0  3  0  0  0  0  0  0
  -17.7290  -30.4050   24.0430 C   0  0  0  0  0  3  0  0  0  0  0  0
  -16.6450  -29.6080   23.6350 C   0  0  0  0  0  3  0  0  0  0  0  0
  -16.8820  -28.3660   23.0200 C   0  0  0  0  0  3  0  0  0  0  0  0
  -26.0300  -32.4680   23.6350 C   0  0  0  0  0  3  0  0  0  0  0  0
  -25.6830  -33.8410   24.0510 N   0  0  0  0  0  0  0  0  0  0  0  0
  -25.9510  -34.9520   23.3510 C   0  0  0  0  0  0  0  0  0  0  0  0
  -26.5720  -34.9280   22.2860 O   0  0  0  0  0  0  0  0  0  0  0  0
  -25.1200  -33.9300   24.8850 H   0  0  0  0  0  0  0  0  0  0  0  0
  -24.1570  -36.7160   23.2080 C   0  0  0  0  0  1  0  0  0  0  0  0
  -25.4560  -36.3000   23.9160 C   0  0  0  0  0  3  0  0  0  0  0  0
  -27.6070  -37.2170   24.6770 C   0  0  0  0  0  1  0  0  0  0  0  0
  -26.4520  -37.3900   23.7990 N   0  0  0  0  0  0  0  0  0  0  0  0
  -26.0280  -38.2910   24.0030 H   0  0  0  0  0  0  0  0  0  0  0  0
  -26.6020  -31.6630   24.8690 C   0  0  1  0  0  0  0  0  0  0  0  0
  -25.5480  -31.3640   25.9610 C   0  0  0  0  0  1  0  0  0  0  0  0
  -27.2020  -30.3120   24.4210 C   0  0  0  0  0  1  0  0  0  0  0  0
  -27.7560  -32.4590   25.5240 C   0  0  0  0  0  1  0  0  0  0  0  0
  1  5  2  0
  1  4  1  0
  2  6  1  0
  3  7  1  0
  3  6  2  0
  4  2  2  0
  5  3  1  0
  6 12  1  0
  7 14  2  0
  8 10  1  0
  8  9  1  0
  9 11  1  0
 10 13  1  0
 10  5  1  0
 11 51  1  0
 11  7  1  0
 15  4  1  0
 16 21  1  0
 17 18  1  0
 17 16  1  0
 19 18  1  0
 19 26  1  0
 19 20  1  0
 21 15  1  0
 21 20  1  0
 22 15  2  0
 23 24  2  0
 24 43  1  0
 25 24  1  0
 25 28  1  0
 26 27  1  0
 26 23  1  0
 27 25  2  0
 28 29  1  0
 29 30  2  0
 31 34  1  0
 31 30  1  0
 32 31  2  0
 33 32  1  0
 33 28  2  0
 34 35  1  0
 35 40  2  0
 35 36  1  0
 36 37  2  0
 37 38  1  0
 38 42  1  0
 39 38  2  0
 40 39  1  0
 41 40  1  0
 43 44  1  0
 44 47  1  0
 44 46  1  0
 45 43  2  0
 48 23  1  0
 48 49  1  0
 50 48  1  0
 52 63  2  0
 53 51  1  0
 53 58  1  0
 54 62  1  0
 54 64  1  0
 55 61  1  0
 55 57  1  0
 56 62  1  0
 57 56  1  0
 58 57  2  0
 59 60  1  0
 59 53  2  0
 60 55  2  0
 61 54  1  0
 62 52  1  0
 64 66  2  0
 65 64  1  0
 67 65  1  0
 68 77  2  0
 68 73  1  0
 69 65  1  0
 69 73  1  0
 70 69  1  0
 71 72  1  0
 71 70  1  0
 72 68  1  0
 73 74  2  0
 74 75  1  0
 76 75  2  0
 77 76  1  0
 78 52  1  0
 78 79  1  0
 78 88  1  0
 79 82  1  0
 80 84  1  0
 80 79  1  0
 81 80  2  0
 84 83  1  0
 86 84  1  0
 86 87  1  0
 86 85  1  0
 88 91  1  1
 88 89  1  0
 90 88  1  0
M  ISO  4   4 100  11 101  15 100  51 101
M  END
>  <TORSDO>  (13) 
F 16

>  <SCORE>  (13) 
-16.532

>  <name>  (13) 
12

>  <ligand_id>  (13) 
12

>  <original_smiles>  (13) 
[H]c1c([H])c([H])c2c(c1[H])C([H])([H])C([H])([H])C([H])([H])C2([H])N([H])C(=O)C1([H])N(C(=O)C([H])(N([H])C(=O)C([H])(N([H])C([H])([H])[H])C([H])([H])[H])C(C([H])([H])[H])(C([H])([H])[H])C([H])([H])[H])C([H])([H])c2c([H])c(OC3([H])C(=O)c4c(C([H])([H])[H])c([H])c(C(=O)N5C([H])([H])C([H])([H])C([H])([H])C([H])(n6nc(-c7c([H])c([H])c(Oc8c([H])c([H])c(F)c([H])c8F)c([H])c7[H])c(C(=O)N([H])[H])c6N([H])[H])C5([H])[H])c([H])c4C([H])(C([H])([H])[H])C([H])([H])C3([H])[H])c([H])c([H])c2C1([H])[H]

>  <smiles>  (13) 
[H]c1c([H])c([H])c2c(c1[H])C([H])([H])C([H])([H])C([H])([H])C2([H])N([H])C(=O)C1([H])N(C(=O)C([H])(N([H])C(=O)C([H])(N([H])C([H])([H])[H])C([H])([H])[H])C(C([H])([H])[H])(C([H])([H])[H])C([H])([H])[H])C([H])([H])c2c([H])c(OC3([H])C(=O)c4c(C([H])([H])[H])c([H])c(C(=O)N5C([H])([H])C([H])([H])C([H])([H])C([H])(n6nc(-c7c([H])c([H])c(Oc8c([H])c([H])c(F)c([H])c8F)c([H])c7[H])c(C(=O)N([H])[H])c6N([H])[H])C5([H])[H])c([H])c4C([H])(C([H])([H])[H])C([H])([H])C3([H])[H])c([H])c([H])c2C1([H])[H]

$$$$
13:0:0
     RDKit          3D

 90 99  0  0  1  0  0  0  0  0999 V2000
  -28.7700  -17.3540   20.0850 C   0  0  0  0  0  3  0  0  0  0  0  0
  -30.6400  -19.4150   20.2750 C   0  0  0  0  0  3  0  0  0  0  0  0
  -30.1110  -16.8250   20.2900 C   0  0  0  0  0  0  0  0  0  0  0  0
  -28.4220  -18.7890   19.9980 C   0  0  0  0  0  0  0  0  0  0  0  0
  -29.3120  -19.8990   20.0470 C   0  0  0  0  0  0  0  0  0  0  0  0
  -31.0100  -17.9900   20.4100 C   0  0  0  0  0  0  0  0  0  0  0  0
  -27.0320  -19.3610   19.7920 C   0  0  0  0  0  2  0  0  0  0  0  0
  -27.1370  -20.9190   19.9800 C   0  0  0  0  0  2  0  0  0  0  0  0
  -28.5940  -21.3810   19.7110 C   0  0  0  0  0  3  0  0  0  0  0  0
  -32.4920  -17.7730   20.6910 C   0  0  0  0  0  1  0  0  0  0  0  0
  -30.6360  -15.2440   20.2100 C   0  0  0  0  0  0  0  0  0  0  0  0
  -30.4720  -12.8040   19.4480 C   0  0  0  0  0  2  0  0  0  0  0  0
  -29.5910  -12.6380   18.1900 C   0  0  0  0  0  2  0  0  0  0  0  0
  -28.1270  -12.4130   18.6010 C   0  0  0  0  0  2  0  0  0  0  0  0
  -27.6710  -13.4110   19.6950 C   0  0  0  0  0  3  0  0  0  0  0  0
  -28.6960  -13.5950   20.8350 C   0  0  0  0  0  2  0  0  0  0  0  0
  -29.9720  -13.9950   20.2290 N   0  0  0  0  0  0  0  0  0  0  0  0
  -31.8400  -15.1080   19.9690 O   0  0  0  0  0  0  0  0  0  0  0  0
  -25.2950  -13.9850   20.4240 C   0  0  0  0  0  0  0  0  0  0  0  0
  -24.2280  -13.2150   20.7900 C   0  0  0  0  0  0  0  0  0  0  0  0
  -24.6900  -11.8640   20.7760 C   0  0  0  0  0  0  0  0  0  0  0  0
  -26.3370  -13.1050   20.1970 N   0  0  0  0  0  0  0  0  0  0  0  0
  -25.9840  -11.8230   20.4780 N   0  0  0  0  0  0  0  0  0  0  0  0
  -23.9550  -10.6060   20.9680 C   0  0  0  0  0  0  0  0  0  0  0  0
  -24.3550   -9.6530   21.9310 C   0  0  0  0  0  3  0  0  0  0  0  0
  -23.6170   -8.4630   22.1110 C   0  0  0  0  0  3  0  0  0  0  0  0
  -22.4640   -8.2160   21.3280 C   0  0  0  0  0  0  0  0  0  0  0  0
  -22.0830   -9.1570   20.3540 C   0  0  0  0  0  3  0  0  0  0  0  0
  -22.8220  -10.3380   20.1730 C   0  0  0  0  0  3  0  0  0  0  0  0
  -21.7010   -7.0770   21.4160 O   0  0  0  0  0  0  0  0  0  0  0  0
  -21.5960   -6.3690   22.5860 C   0  0  0  0  0  0  0  0  0  0  0  0
  -21.0700   -6.9470   23.7620 C   0  0  0  0  0  3  0  0  0  0  0  0
  -20.9150   -6.1630   24.9230 C   0  0  0  0  0  3  0  0  0  0  0  0
  -21.2770   -4.8030   24.9080 C   0  0  0  0  0  0  0  0  0  0  0  0
  -21.7970   -4.2250   23.7370 C   0  0  0  0  0  3  0  0  0  0  0  0
  -21.9520   -5.0060   22.5780 C   0  0  0  0  0  0  0  0  0  0  0  0
  -22.4330   -4.4380   21.4460 F   0  0  0  0  0  0  0  0  0  0  0  0
  -21.1230   -4.0480   26.0220 F   0  0  0  0  0  0  0  0  0  0  0  0
  -22.8300  -13.7010   21.0390 C   0  0  0  0  0  0  0  0  0  0  0  0
  -22.0890  -13.0190   21.9040 N   0  0  0  0  0  0  0  0  0  0  0  0
  -22.4050  -14.7210   20.4990 O   0  0  0  0  0  0  0  0  0  0  0  0
  -22.4470  -12.1940   22.3620 H   0  0  0  0  0  0  0  0  0  0  0  0
  -21.1500  -13.3270   22.1130 H   0  0  0  0  0  0  0  0  0  0  0  0
  -25.4600  -15.3540   20.2360 N   0  0  0  0  0  0  0  0  0  0  0  0
  -24.6880  -16.0040   20.3330 H   0  0  0  0  0  0  0  0  0  0  0  0
  -26.3030  -15.7870   19.8860 H   0  0  0  0  0  0  0  0  0  0  0  0
  -28.9330  -23.0610   20.0800 C   0  0  0  0  0  2  0  0  0  0  0  0
  -26.9110  -24.2750   21.1630 C   0  0  0  0  0  1  0  0  0  0  0  0
  -27.8870  -24.4690   19.9830 C   0  0  0  0  0  3  0  0  0  0  0  0
  -28.1810  -26.0600   19.9970 O   0  0  0  0  0  0  0  0  0  0  0  0
  -24.5160  -31.7780   23.0840 C   0  0  0  0  0  0  0  0  0  0  0  0
  -27.1560  -27.1140   19.9260 C   0  0  0  0  0  0  0  0  0  0  0  0
  -23.3420  -30.4030   21.4130 C   0  0  0  0  0  3  0  0  0  0  0  0
  -24.8160  -28.8920   19.9330 C   0  0  0  0  0  0  0  0  0  0  0  0
  -25.8970  -30.6970   21.2570 C   0  0  0  0  0  2  0  0  0  0  0  0
  -25.9930  -29.3170   20.5620 C   0  0  0  0  0  0  0  0  0  0  0  0
  -27.1610  -28.4460   20.5420 C   0  0  0  0  0  3  0  0  0  0  0  0
  -25.9610  -26.8370   19.2250 C   0  0  0  0  0  3  0  0  0  0  0  0
  -24.8210  -27.6700   19.2440 C   0  0  0  0  0  3  0  0  0  0  0  0
  -23.5740  -29.7710   20.0150 C   0  0  0  0  0  2  0  0  0  0  0  0
  -24.6060  -30.9820   21.9730 N   0  0  0  0  0  0  0  0  0  0  0  0
  -23.4250  -32.0270   23.6210 O   0  0  0  0  0  0  0  0  0  0  0  0
  -22.6820  -29.3580   22.3510 C   0  0  0  0  0  0  0  0  0  0  0  0
  -21.3550  -29.1720   22.2330 N   0  0  0  0  0  0  0  0  0  0  0  0
  -23.3690  -28.7200   23.1530 O   0  0  0  0  0  0  0  0  0  0  0  0
  -20.8540  -29.7400   21.5640 H   0  0  0  0  0  0  0  0  0  0  0  0
  -17.9960  -27.9100   22.7510 C   0  0  0  0  0  0  0  0  0  0  0  0
  -20.5560  -28.1980   22.9840 C   0  0  0  0  0  3  0  0  0  0  0  0
  -20.6660  -26.7880   22.3580 C   0  0  0  0  0  2  0  0  0  0  0  0
  -19.5500  -26.4870   21.3510 C   0  0  0  0  0  2  0  0  0  0  0  0
  -18.1780  -26.5900   22.0220 C   0  0  0  0  0  2  0  0  0  0  0  0
  -19.1110  -28.6720   23.1890 C   0  0  0  0  0  0  0  0  0  0  0  0
  -18.8850  -29.9070   23.8350 C   0  0  0  0  0  3  0  0  0  0  0  0
  -17.5760  -30.3820   24.0450 C   0  0  0  0  0  3  0  0  0  0  0  0
  -16.4750  -29.6170   23.6210 C   0  0  0  0  0  3  0  0  0  0  0  0
  -16.6860  -28.3830   22.9810 C   0  0  0  0  0  3  0  0  0  0  0  0
  -25.7800  -32.4270   23.7260 C   0  0  0  0  0  3  0  0  0  0  0  0
  -25.4460  -33.8200   24.0680 N   0  0  0  0  0  0  0  0  0  0  0  0
  -25.7440  -34.8880   23.3150 C   0  0  0  0  0  0  0  0  0  0  0  0
  -26.3940  -34.8040   22.2690 O   0  0  0  0  0  0  0  0  0  0  0  0
  -24.8640  -33.9570   24.8820 H   0  0  0  0  0  0  0  0  0  0  0  0
  -23.9730  -36.6540   23.0260 C   0  0  0  0  0  1  0  0  0  0  0  0
  -25.2450  -36.2650   23.7970 C   0  0  0  0  0  3  0  0  0  0  0  0
  -27.3780  -37.1960   24.5810 C   0  0  0  0  0  1  0  0  0  0  0  0
  -26.2530  -37.3390   23.6600 N   0  0  0  0  0  0  0  0  0  0  0  0
  -25.8320  -38.2510   23.8130 H   0  0  0  0  0  0  0  0  0  0  0  0
  -26.2890  -31.6580   25.0070 C   0  0  1  0  0  0  0  0  0  0  0  0
  -25.1860  -31.4070   26.0630 C   0  0  0  0  0  1  0  0  0  0  0  0
  -26.8910  -30.2860   24.6250 C   0  0  0  0  0  1  0  0  0  0  0  0
  -27.4250  -32.4610   25.6830 C   0  0  0  0  0  1  0  0  0  0  0  0
  1  3  1  0
  2  6  1  0
  3  6  2  0
  4  5  1  0
  4  1  2  0
  5  2  2  0
  6 10  1  0
  7  8  1  0
  7  4  1  0
  9  8  1  0
  9  5  1  0
  9 47  1  0
 11 17  1  0
 11  3  1  0
 12 17  1  0
 13 14  1  0
 13 12  1  0
 15 14  1  0
 15 22  1  0
 15 16  1  0
 17 16  1  0
 18 11  2  0
 19 20  2  0
 20 39  1  0
 21 20  1  0
 21 24  1  0
 22 19  1  0
 22 23  1  0
 23 21  2  0
 24 25  1  0
 25 26  2  0
 27 30  1  0
 27 26  1  0
 28 27  2  0
 29 28  1  0
 29 24  2  0
 30 31  1  0
 31 32  1  0
 32 33  2  0
 34 33  1  0
 34 38  1  0
 35 34  2  0
 36 31  2  0
 36 35  1  0
 37 36  1  0
 39 40  1  0
 40 43  1  0
 40 42  1  0
 41 39  2  0
 44 45  1  0
 44 19  1  0
 46 44  1  0
 49 50  1  0
 49 47  1  0
 49 48  1  0
 51 62  2  0
 52 50  1  0
 52 57  1  0
 53 61  1  0
 53 63  1  0
 54 60  1  0
 54 56  1  0
 55 61  1  0
 56 55  1  0
 57 56  2  0
 58 59  1  0
 58 52  2  0
 59 54  2  0
 60 53  1  0
 61 51  1  0
 63 65  2  0
 64 63  1  0
 66 64  1  0
 67 76  2  0
 67 72  1  0
 68 64  1  0
 68 72  1  0
 69 68  1  0
 70 71  1  0
 70 69  1  0
 71 67  1  0
 72 73  2  0
 73 74  1  0
 75 74  2  0
 76 75  1  0
 77 51  1  0
 77 78  1  0
 77 87  1  0
 78 81  1  0
 79 83  1  0
 79 78  1  0
 80 79  2  0
 83 82  1  0
 85 83  1  0
 85 86  1  0
 85 84  1  0
 87 90  1  1
 87 88  1  0
 89 87  1  0
M  ISO  4   3 100  11 100  49 101  50 101
M  END
>  <TORSDO>  (14) 
F 18

>  <SCORE>  (14) 
-14.780

>  <name>  (14) 
13

>  <ligand_id>  (14) 
13

>  <original_smiles>  (14) 
[H]c1c([H])c([H])c2c(c1[H])C([H])([H])C([H])([H])C([H])([H])C2([H])N([H])C(=O)C1([H])N(C(=O)C([H])(N([H])C(=O)C([H])(N([H])C([H])([H])[H])C([H])([H])[H])C(C([H])([H])[H])(C([H])([H])[H])C([H])([H])[H])C([H])([H])c2c([H])c(OC([H])(C([H])([H])[H])C([H])([H])C3([H])c4c([H])c(C([H])([H])[H])c(C(=O)N5C([H])([H])C([H])([H])C([H])([H])C([H])(n6nc(-c7c([H])c([H])c(Oc8c([H])c([H])c(F)c([H])c8F)c([H])c7[H])c(C(=O)N([H])[H])c6N([H])[H])C5([H])[H])c([H])c4C([H])([H])C3([H])[H])c([H])c([H])c2C1([H])[H]

>  <smiles>  (14) 
[H]c1c([H])c([H])c2c(c1[H])C([H])([H])C([H])([H])C([H])([H])C2([H])N([H])C(=O)C1([H])N(C(=O)C([H])(N([H])C(=O)C([H])(N([H])C([H])([H])[H])C([H])([H])[H])C(C([H])([H])[H])(C([H])([H])[H])C([H])([H])[H])C([H])([H])c2c([H])c(OC([H])(C([H])([H])[H])C([H])([H])C3([H])c4c([H])c(C([H])([H])[H])c(C(=O)N5C([H])([H])C([H])([H])C([H])([H])C([H])(n6nc(-c7c([H])c([H])c(Oc8c([H])c([H])c(F)c([H])c8F)c([H])c7[H])c(C(=O)N([H])[H])c6N([H])[H])C5([H])[H])c([H])c4C([H])([H])C3([H])[H])c([H])c([H])c2C1([H])[H]

$$$$
14:0:0
     RDKit          3D

 89 95  0  0  1  0  0  0  0  0999 V2000
  -29.3720  -20.9330   21.0680 C   0  0  0  0  0  3  0  0  0  0  0  0
  -29.1790  -19.8120   20.0520 C   0  0  0  0  0  3  0  0  0  0  0  0
  -28.5180  -20.8180   19.0950 C   0  0  0  0  0  0  0  0  0  0  0  0
  -28.1970  -22.3820   19.1500 C   0  0  0  0  0  0  0  0  0  0  0  0
  -29.0750  -22.4890   21.1390 C   0  0  0  0  0  0  0  0  0  0  0  0
  -28.3860  -23.4820   20.2040 C   0  0  0  0  0  0  0  0  0  0  0  0
  -28.0640  -20.1240   17.8150 C   0  0  0  0  0  1  0  0  0  0  0  0
  -27.5650  -22.9590   17.8910 C   0  0  0  0  0  1  0  0  0  0  0  0
  -28.9270  -17.6030   21.6340 C   0  0  0  0  0  1  0  0  0  0  0  0
  -29.2990  -17.8070   20.1570 C   0  0  0  0  0  1  0  0  0  0  0  0
  -30.1870  -16.0450   19.7640 C   0  0  0  0  0  2  0  0  0  0  0  0
  -30.3970  -13.4230   18.8980 C   0  0  0  0  0  2  0  0  0  0  0  0
  -29.4470  -12.8960   17.7680 C   0  0  0  0  0  2  0  0  0  0  0  0
  -28.0940  -12.4370   18.3300 C   0  0  0  0  0  2  0  0  0  0  0  0
  -27.6140  -13.4170   19.4180 C   0  0  0  0  0  3  0  0  0  0  0  0
  -28.7050  -13.8310   20.4400 C   0  0  0  0  0  2  0  0  0  0  0  0
  -29.7730  -14.5920   19.7200 N   0  0  0  0  0  0  0  0  0  0  0  0
  -31.3950  -15.9740   19.4340 O   0  0  0  0  0  1  0  0  0  0  0  0
  -25.3340  -13.8640   20.4240 C   0  0  0  0  0  0  0  0  0  0  0  0
  -24.3190  -13.0560   20.8500 C   0  0  0  0  0  0  0  0  0  0  0  0
  -24.7970  -11.7150   20.7160 C   0  0  0  0  0  0  0  0  0  0  0  0
  -26.3590  -13.0210   20.0460 N   0  0  0  0  0  0  0  0  0  0  0  0
  -26.0580  -11.7150   20.2840 N   0  0  0  0  0  0  0  0  0  0  0  0
  -24.0950  -10.4380   20.9160 C   0  0  0  0  0  0  0  0  0  0  0  0
  -24.5550   -9.4760   21.8430 C   0  0  0  0  0  3  0  0  0  0  0  0
  -23.8460   -8.2690   22.0340 C   0  0  0  0  0  3  0  0  0  0  0  0
  -22.6640   -8.0150   21.3010 C   0  0  0  0  0  0  0  0  0  0  0  0
  -22.2230   -8.9660   20.3630 C   0  0  0  0  0  3  0  0  0  0  0  0
  -22.9310  -10.1640   20.1700 C   0  0  0  0  0  3  0  0  0  0  0  0
  -21.9260   -6.8600   21.4010 O   0  0  0  0  0  0  0  0  0  0  0  0
  -21.8280   -6.1680   22.5820 C   0  0  0  0  0  0  0  0  0  0  0  0
  -21.3200   -6.7670   23.7560 C   0  0  0  0  0  3  0  0  0  0  0  0
  -21.1710   -6.0010   24.9290 C   0  0  0  0  0  3  0  0  0  0  0  0
  -21.5190   -4.6360   24.9290 C   0  0  0  0  0  0  0  0  0  0  0  0
  -22.0190   -4.0370   23.7600 C   0  0  0  0  0  3  0  0  0  0  0  0
  -22.1700   -4.8000   22.5890 C   0  0  0  0  0  0  0  0  0  0  0  0
  -22.6310   -4.2120   21.4590 F   0  0  0  0  0  0  0  0  0  0  0  0
  -21.3700   -3.8980   26.0540 F   0  0  0  0  0  0  0  0  0  0  0  0
  -22.9480  -13.5060   21.2560 C   0  0  0  0  0  0  0  0  0  0  0  0
  -22.3050  -12.7760   22.1590 N   0  0  0  0  0  0  0  0  0  0  0  0
  -22.4600  -14.5430   20.8090 O   0  0  0  0  0  0  0  0  0  0  0  0
  -22.7160  -11.9360   22.5410 H   0  0  0  0  0  0  0  0  0  0  0  0
  -21.3890  -13.0600   22.4730 H   0  0  0  0  0  0  0  0  0  0  0  0
  -25.4650  -15.2440   20.2940 N   0  0  0  0  0  0  0  0  0  0  0  0
  -24.7040  -15.8800   20.5070 H   0  0  0  0  0  0  0  0  0  0  0  0
  -26.2770  -15.7110   19.9120 H   0  0  0  0  0  0  0  0  0  0  0  0
  -30.5200  -22.6040   23.0680 C   0  0  0  0  0  1  0  0  0  0  0  0
  -29.4920  -23.1700   22.2630 O   0  0  0  0  0  0  0  0  0  0  0  0
  -28.2500  -25.1910   20.2820 O   0  0  0  0  0  0  0  0  0  0  0  0
  -24.6870  -31.7750   23.1650 C   0  0  0  0  0  0  0  0  0  0  0  0
  -27.2590  -26.4810   20.2600 C   0  0  0  0  0  0  0  0  0  0  0  0
  -23.5360  -30.3630   21.5200 C   0  0  0  0  0  3  0  0  0  0  0  0
  -25.0090  -28.6620   20.1530 C   0  0  0  0  0  0  0  0  0  0  0  0
  -26.1260  -30.4380   21.4670 C   0  0  0  0  0  2  0  0  0  0  0  0
  -26.1970  -28.9750   20.8210 C   0  0  0  0  0  0  0  0  0  0  0  0
  -27.2910  -27.9200   20.8360 C   0  0  0  0  0  3  0  0  0  0  0  0
  -26.0330  -26.4420   19.5270 C   0  0  0  0  0  3  0  0  0  0  0  0
  -24.9800  -27.4240   19.4830 C   0  0  0  0  0  3  0  0  0  0  0  0
  -23.8100  -29.6410   20.1650 C   0  0  0  0  0  2  0  0  0  0  0  0
  -24.8100  -30.8980   22.1030 N   0  0  0  0  0  0  0  0  0  0  0  0
  -23.5810  -32.0850   23.6440 O   0  0  0  0  0  0  0  0  0  0  0  0
  -22.7840  -29.4090   22.4890 C   0  0  0  0  0  0  0  0  0  0  0  0
  -21.4500  -29.2750   22.3530 N   0  0  0  0  0  0  0  0  0  0  0  0
  -23.4180  -28.7830   23.3410 O   0  0  0  0  0  0  0  0  0  0  0  0
  -20.9830  -29.8270   21.6470 H   0  0  0  0  0  0  0  0  0  0  0  0
  -18.0430  -28.0960   22.8570 C   0  0  0  0  0  0  0  0  0  0  0  0
  -20.6070  -28.3450   23.1190 C   0  0  0  0  0  3  0  0  0  0  0  0
  -20.6940  -26.9130   22.5390 C   0  0  0  0  0  2  0  0  0  0  0  0
  -19.5910  -26.6080   21.5210 C   0  0  0  0  0  2  0  0  0  0  0  0
  -18.2100  -26.7550   22.1650 C   0  0  0  0  0  2  0  0  0  0  0  0
  -19.1670  -28.8510   23.2900 C   0  0  0  0  0  0  0  0  0  0  0  0
  -18.9520  -30.1030   23.9060 C   0  0  0  0  0  3  0  0  0  0  0  0
  -17.6490  -30.6030   24.0890 C   0  0  0  0  0  3  0  0  0  0  0  0
  -16.5400  -29.8480   23.6670 C   0  0  0  0  0  3  0  0  0  0  0  0
  -16.7380  -28.5960   23.0590 C   0  0  0  0  0  3  0  0  0  0  0  0
  -25.9270  -32.4440   23.8320 C   0  0  0  0  0  3  0  0  0  0  0  0
  -25.5880  -33.8470   24.1540 N   0  0  0  0  0  0  0  0  0  0  0  0
  -25.9200  -34.9170   23.4190 C   0  0  0  0  0  0  0  0  0  0  0  0
  -26.5950  -34.8270   22.3910 O   0  0  0  0  0  0  0  0  0  0  0  0
  -24.9830  -33.9880   24.9500 H   0  0  0  0  0  0  0  0  0  0  0  0
  -24.1760  -36.7140   23.1060 C   0  0  0  0  0  1  0  0  0  0  0  0
  -25.4320  -36.3050   23.8930 C   0  0  0  0  0  3  0  0  0  0  0  0
  -27.5680  -37.2140   24.7010 C   0  0  0  0  0  1  0  0  0  0  0  0
  -26.4560  -37.3680   23.7680 N   0  0  0  0  0  0  0  0  0  0  0  0
  -26.0420  -38.2840   23.9170 H   0  0  0  0  0  0  0  0  0  0  0  0
  -26.3960  -31.7010   25.1460 C   0  0  1  0  0  0  0  0  0  0  0  0
  -25.2640  -31.4820   26.1780 C   0  0  0  0  0  1  0  0  0  0  0  0
  -26.9940  -30.3150   24.8200 C   0  0  0  0  0  1  0  0  0  0  0  0
  -27.5190  -32.5110   25.8340 C   0  0  0  0  0  1  0  0  0  0  0  0
  1  5  1  0
  2  1  2  0
  3  4  2  0
  3  2  1  0
  4  6  1  0
  5 48  1  0
  6 49  1  0
  6  5  2  0
  7  3  1  0
  8  4  1  0
 10  9  1  0
 12 17  1  0
 13 14  1  0
 13 12  1  0
 15 14  1  0
 15 22  1  0
 15 16  1  0
 17 11  1  0
 17 16  1  0
 18 11  1  0
 19 20  2  0
 20 39  1  0
 21 20  1  0
 21 24  1  0
 22 23  1  0
 22 19  1  0
 23 21  2  0
 24 25  1  0
 25 26  2  0
 27 30  1  0
 27 26  1  0
 28 27  2  0
 29 28  1  0
 29 24  2  0
 30 31  1  0
 31 36  2  0
 31 32  1  0
 32 33  2  0
 34 33  1  0
 34 38  1  0
 35 34  2  0
 36 35  1  0
 37 36  1  0
 39 40  1  0
 40 43  1  0
 40 42  1  0
 41 39  2  0
 44 19  1  0
 44 45  1  0
 46 44  1  0
 48 47  1  0
 50 61  2  0
 51 49  1  0
 51 56  1  0
 52 60  1  0
 52 62  1  0
 53 59  1  0
 53 55  1  0
 54 60  1  0
 55 56  2  0
 55 54  1  0
 57 51  2  0
 58 57  1  0
 58 53  2  0
 59 52  1  0
 60 50  1  0
 62 64  2  0
 63 62  1  0
 65 63  1  0
 66 75  2  0
 66 71  1  0
 67 63  1  0
 67 71  1  0
 68 67  1  0
 69 70  1  0
 69 68  1  0
 70 66  1  0
 71 72  2  0
 72 73  1  0
 74 73  2  0
 75 74  1  0
 76 50  1  0
 76 77  1  0
 76 86  1  0
 77 80  1  0
 78 82  1  0
 78 77  1  0
 79 78  2  0
 82 81  1  0
 84 82  1  0
 84 85  1  0
 84 83  1  0
 86 89  1  1
 86 87  1  0
 88 86  1  0
M  ISO  4   6 101  10 100  11 100  49 101
M  END
>  <TORSDO>  (15) 
F 18

>  <SCORE>  (15) 
-14.927

>  <name>  (15) 
14

>  <ligand_id>  (15) 
14

>  <original_smiles>  (15) 
[H]c1c([H])c([H])c2c(c1[H])C([H])([H])C([H])([H])C([H])([H])C2([H])N([H])C(=O)C1([H])N(C(=O)C([H])(N([H])C(=O)C([H])(N([H])C([H])([H])[H])C([H])([H])[H])C(C([H])([H])[H])(C([H])([H])[H])C([H])([H])[H])C([H])([H])c2c([H])c(Oc3c(OC([H])([H])[H])c([H])c(C([H])(C(=O)N4C([H])([H])C([H])([H])C([H])([H])C([H])(n5nc(-c6c([H])c([H])c(Oc7c([H])c([H])c(F)c([H])c7F)c([H])c6[H])c(C(=O)N([H])[H])c5N([H])[H])C4([H])[H])C([H])([H])[H])c(C([H])([H])[H])c3C([H])([H])[H])c([H])c([H])c2C1([H])[H]

>  <smiles>  (15) 
[H]c1c([H])c([H])c2c(c1[H])C([H])([H])C([H])([H])C([H])([H])C2([H])N([H])C(=O)C1([H])N(C(=O)C([H])(N([H])C(=O)C([H])(N([H])C([H])([H])[H])C([H])([H])[H])C(C([H])([H])[H])(C([H])([H])[H])C([H])([H])[H])C([H])([H])c2c([H])c(Oc3c(OC([H])([H])[H])c([H])c(C([H])(C(=O)N4C([H])([H])C([H])([H])C([H])([H])C([H])(n5nc(-c6c([H])c([H])c(Oc7c([H])c([H])c(F)c([H])c7F)c([H])c6[H])c(C(=O)N([H])[H])c5N([H])[H])C4([H])[H])C([H])([H])[H])c(C([H])([H])[H])c3C([H])([H])[H])c([H])c([H])c2C1([H])[H]

$$$$
15:0:0
     RDKit          3D

 93101  0  0  1  0  0  0  0  0999 V2000
  -28.2880  -24.2770   22.5030 C   0  0  0  0  0  3  0  0  0  0  0  0
  -27.8320  -25.2110   21.5550 C   0  0  0  0  0  3  0  0  0  0  0  0
  -30.5530  -24.5080   21.6380 C   0  0  0  0  0  3  0  0  0  0  0  0
  -29.6460  -23.8980   22.5320 C   0  0  0  0  0  0  0  0  0  0  0  0
  -28.7330  -25.8000   20.6360 C   0  0  0  0  0  0  0  0  0  0  0  0
  -30.1040  -25.4580   20.6850 C   0  0  0  0  0  0  0  0  0  0  0  0
  -32.3300  -25.8200   19.8490 C   0  0  0  0  0  1  0  0  0  0  0  0
  -30.9330  -26.0790   19.7750 O   0  0  0  0  0  0  0  0  0  0  0  0
  -30.1040  -22.8950   23.5280 C   0  0  0  0  0  0  0  0  0  0  0  0
  -29.6600  -22.8320   24.6770 O   0  0  0  0  0  0  0  0  0  0  0  0
  -31.1040  -21.8390   23.0410 C   0  0  0  0  0  2  0  0  0  0  0  0
  -30.5300  -20.4140   23.1460 C   0  0  0  0  0  2  0  0  0  0  0  0
  -31.2820  -19.3920   22.2760 C   0  0  0  0  0  2  0  0  0  0  0  0
  -30.6200  -18.0050   22.3160 C   0  0  0  0  0  2  0  0  0  0  0  0
  -31.2560  -16.9990   21.3420 C   0  0  0  0  0  2  0  0  0  0  0  0
  -30.5090  -15.6490   21.3370 C   0  0  0  0  0  2  0  0  0  0  0  0
  -31.0480  -14.6120   20.3330 C   0  0  0  0  0  0  0  0  0  0  0  0
  -30.6700  -12.5370   19.0400 C   0  0  0  0  0  2  0  0  0  0  0  0
  -29.7100  -12.8000   17.8630 C   0  0  0  0  0  2  0  0  0  0  0  0
  -28.2410  -12.6780   18.3150 C   0  0  0  0  0  2  0  0  0  0  0  0
  -27.9450  -13.4900   19.6050 C   0  0  0  0  0  3  0  0  0  0  0  0
  -29.0070  -13.1930   20.6870 C   0  0  0  0  0  2  0  0  0  0  0  0
  -30.3340  -13.4780   20.1170 N   0  0  0  0  0  0  0  0  0  0  0  0
  -32.0990  -14.8560   19.7290 O   0  0  0  0  0  0  0  0  0  0  0  0
  -25.5550  -14.1390   20.3160 C   0  0  0  0  0  0  0  0  0  0  0  0
  -24.4790  -13.3850   20.7010 C   0  0  0  0  0  0  0  0  0  0  0  0
  -24.9230  -12.0270   20.6820 C   0  0  0  0  0  0  0  0  0  0  0  0
  -26.5890  -13.2420   20.0920 N   0  0  0  0  0  0  0  0  0  0  0  0
  -26.2090  -11.9670   20.3650 N   0  0  0  0  0  0  0  0  0  0  0  0
  -24.1830  -10.7760   20.8900 C   0  0  0  0  0  0  0  0  0  0  0  0
  -24.5870   -9.8320   21.8600 C   0  0  0  0  0  3  0  0  0  0  0  0
  -23.8480   -8.6450   22.0540 C   0  0  0  0  0  3  0  0  0  0  0  0
  -22.6920   -8.3940   21.2780 C   0  0  0  0  0  0  0  0  0  0  0  0
  -22.3060   -9.3270   20.2990 C   0  0  0  0  0  3  0  0  0  0  0  0
  -23.0460  -10.5050   20.1030 C   0  0  0  0  0  3  0  0  0  0  0  0
  -21.9260   -7.2570   21.3800 O   0  0  0  0  0  0  0  0  0  0  0  0
  -21.8050   -6.5740   22.5640 C   0  0  0  0  0  0  0  0  0  0  0  0
  -21.3220   -7.1950   23.7360 C   0  0  0  0  0  3  0  0  0  0  0  0
  -21.1480   -6.4390   24.9120 C   0  0  0  0  0  3  0  0  0  0  0  0
  -21.4460   -5.0640   24.9170 C   0  0  0  0  0  0  0  0  0  0  0  0
  -21.9230   -4.4420   23.7500 C   0  0  0  0  0  3  0  0  0  0  0  0
  -22.0990   -5.1950   22.5750 C   0  0  0  0  0  0  0  0  0  0  0  0
  -22.5380   -4.5860   21.4470 F   0  0  0  0  0  0  0  0  0  0  0  0
  -21.2720   -4.3360   26.0450 F   0  0  0  0  0  0  0  0  0  0  0  0
  -23.0900  -13.8820   20.9780 C   0  0  0  0  0  0  0  0  0  0  0  0
  -22.3620  -13.2100   21.8640 N   0  0  0  0  0  0  0  0  0  0  0  0
  -22.6570  -14.9030   20.4450 O   0  0  0  0  0  0  0  0  0  0  0  0
  -22.7240  -12.3840   22.3180 H   0  0  0  0  0  0  0  0  0  0  0  0
  -21.4300  -13.5280   22.0920 H   0  0  0  0  0  0  0  0  0  0  0  0
  -25.7360  -15.5060   20.1220 N   0  0  0  0  0  0  0  0  0  0  0  0
  -24.9810  -16.1740   20.2320 H   0  0  0  0  0  0  0  0  0  0  0  0
  -26.5970  -15.9310   19.8010 H   0  0  0  0  0  0  0  0  0  0  0  0
  -28.3360  -26.6850   19.6560 O   0  0  0  0  0  0  0  0  0  0  0  0
  -24.6750  -31.6960   23.1390 C   0  0  0  0  0  0  0  0  0  0  0  0
  -27.1660  -27.3860   19.7920 C   0  0  0  0  0  0  0  0  0  0  0  0
  -23.3840  -30.3360   21.5240 C   0  0  0  0  0  3  0  0  0  0  0  0
  -24.7650  -28.8460   19.9820 C   0  0  0  0  0  0  0  0  0  0  0  0
  -25.8890  -30.7210   21.1980 C   0  0  0  0  0  2  0  0  0  0  0  0
  -25.9460  -29.3680   20.5250 C   0  0  0  0  0  0  0  0  0  0  0  0
  -27.1520  -28.6400   20.4360 C   0  0  0  0  0  3  0  0  0  0  0  0
  -25.9750  -26.8710   19.2420 C   0  0  0  0  0  3  0  0  0  0  0  0
  -24.7700  -27.5930   19.3440 C   0  0  0  0  0  3  0  0  0  0  0  0
  -23.5200  -29.6940   20.1170 C   0  0  0  0  0  2  0  0  0  0  0  0
  -24.6710  -30.9310   22.0120 N   0  0  0  0  0  0  0  0  0  0  0  0
  -23.6250  -31.9480   23.7460 O   0  0  0  0  0  0  0  0  0  0  0  0
  -22.7920  -29.2840   22.4890 C   0  0  0  0  0  0  0  0  0  0  0  0
  -21.4770  -29.0390   22.3700 N   0  0  0  0  0  0  0  0  0  0  0  0
  -23.5120  -28.6920   23.2980 O   0  0  0  0  0  0  0  0  0  0  0  0
  -20.9570  -29.5730   21.6880 H   0  0  0  0  0  0  0  0  0  0  0  0
  -18.1970  -27.5870   22.7900 C   0  0  0  0  0  0  0  0  0  0  0  0
  -20.7120  -28.0640   23.1450 C   0  0  0  0  0  3  0  0  0  0  0  0
  -20.9530  -26.6280   22.6240 C   0  0  0  0  0  2  0  0  0  0  0  0
  -19.9210  -26.1820   21.5840 C   0  0  0  0  0  2  0  0  0  0  0  0
  -18.5080  -26.2350   22.1720 C   0  0  0  0  0  2  0  0  0  0  0  0
  -19.2320  -28.4530   23.2320 C   0  0  0  0  0  0  0  0  0  0  0  0
  -18.8900  -29.7140   23.7670 C   0  0  0  0  0  3  0  0  0  0  0  0
  -17.5430  -30.1130   23.8660 C   0  0  0  0  0  3  0  0  0  0  0  0
  -16.5220  -29.2460   23.4390 C   0  0  0  0  0  3  0  0  0  0  0  0
  -16.8490  -27.9860   22.9090 C   0  0  0  0  0  3  0  0  0  0  0  0
  -25.9940  -32.3130   23.7040 C   0  0  0  0  0  3  0  0  0  0  0  0
  -25.7020  -33.6990   24.0920 N   0  0  0  0  0  0  0  0  0  0  0  0
  -26.0150  -34.7750   23.3570 C   0  0  0  0  0  0  0  0  0  0  0  0
  -26.6530  -34.7030   22.3020 O   0  0  0  0  0  0  0  0  0  0  0  0
  -25.1310  -33.8280   24.9150 H   0  0  0  0  0  0  0  0  0  0  0  0
  -24.2880  -36.5850   23.1050 C   0  0  0  0  0  1  0  0  0  0  0  0
  -25.5460  -36.1480   23.8740 C   0  0  0  0  0  3  0  0  0  0  0  0
  -27.7040  -36.9900   24.6860 C   0  0  0  0  0  1  0  0  0  0  0  0
  -26.5820  -37.1990   23.7750 N   0  0  0  0  0  0  0  0  0  0  0  0
  -26.1840  -38.1150   23.9660 H   0  0  0  0  0  0  0  0  0  0  0  0
  -26.5860  -31.5050   24.9240 C   0  0  1  0  0  0  0  0  0  0  0  0
  -25.5580  -31.2270   26.0440 C   0  0  0  0  0  1  0  0  0  0  0  0
  -27.1490  -30.1430   24.4520 C   0  0  0  0  0  1  0  0  0  0  0  0
  -27.7720  -32.2820   25.5410 C   0  0  0  0  0  1  0  0  0  0  0  0
  1  4  1  0
  2  1  2  0
  3  4  2  0
  4  9  1  0
  5  6  2  0
  5  2  1  0
  6  3  1  0
  8  7  1  0
  8  6  1  0
  9 10  2  0
 11 12  1  0
 11  9  1  0
 13 14  1  0
 13 12  1  0
 15 14  1  0
 16 15  1  0
 17 16  1  0
 18 23  1  0
 19 20  1  0
 19 18  1  0
 21 20  1  0
 21 28  1  0
 21 22  1  0
 23 17  1  0
 23 22  1  0
 24 17  2  0
 25 26  2  0
 26 45  1  0
 27 26  1  0
 27 30  1  0
 28 25  1  0
 28 29  1  0
 29 27  2  0
 30 31  1  0
 31 32  2  0
 33 36  1  0
 33 32  1  0
 34 33  2  0
 35 34  1  0
 35 30  2  0
 36 37  1  0
 37 42  2  0
 37 38  1  0
 38 39  2  0
 39 40  1  0
 40 44  1  0
 41 40  2  0
 42 41  1  0
 43 42  1  0
 45 46  1  0
 46 49  1  0
 46 48  1  0
 47 45  2  0
 50 51  1  0
 50 25  1  0
 52 50  1  0
 53 55  1  0
 53  5  1  0
 54 65  2  0
 55 60  1  0
 56 64  1  0
 56 66  1  0
 57 63  1  0
 57 59  1  0
 58 64  1  0
 59 58  1  0
 60 59  2  0
 61 62  1  0
 61 55  2  0
 62 57  2  0
 63 56  1  0
 64 54  1  0
 66 68  2  0
 67 66  1  0
 69 67  1  0
 70 79  2  0
 70 75  1  0
 71 67  1  0
 71 75  1  0
 72 71  1  0
 73 74  1  0
 73 72  1  0
 74 70  1  0
 75 76  2  0
 76 77  1  0
 78 77  2  0
 79 78  1  0
 80 54  1  0
 80 81  1  0
 80 90  1  0
 81 84  1  0
 82 86  1  0
 82 81  1  0
 83 82  2  0
 86 85  1  0
 88 86  1  0
 88 89  1  0
 88 87  1  0
 90 93  1  1
 90 91  1  0
 92 90  1  0
M  ISO  4   5 101  16 100  17 100  53 101
M  END
>  <TORSDO>  (16) 
F 24

>  <SCORE>  (16) 
-11.580

>  <name>  (16) 
15

>  <ligand_id>  (16) 
15

>  <original_smiles>  (16) 
[H]c1c([H])c([H])c2c(c1[H])C([H])([H])C([H])([H])C([H])([H])C2([H])N([H])C(=O)C1([H])N(C(=O)C([H])(N([H])C(=O)C([H])(N([H])C([H])([H])[H])C([H])([H])[H])C(C([H])([H])[H])(C([H])([H])[H])C([H])([H])[H])C([H])([H])c2c([H])c(Oc3c([H])c([H])c(C(=O)C([H])([H])C([H])([H])C([H])([H])C([H])([H])C([H])([H])C([H])([H])C(=O)N4C([H])([H])C([H])([H])C([H])([H])C([H])(n5nc(-c6c([H])c([H])c(Oc7c([H])c([H])c(F)c([H])c7F)c([H])c6[H])c(C(=O)N([H])[H])c5N([H])[H])C4([H])[H])c([H])c3OC([H])([H])[H])c([H])c([H])c2C1([H])[H]

>  <smiles>  (16) 
[H]c1c([H])c([H])c2c(c1[H])C([H])([H])C([H])([H])C([H])([H])C2([H])N([H])C(=O)C1([H])N(C(=O)C([H])(N([H])C(=O)C([H])(N([H])C([H])([H])[H])C([H])([H])[H])C(C([H])([H])[H])(C([H])([H])[H])C([H])([H])[H])C([H])([H])c2c([H])c(Oc3c([H])c([H])c(C(=O)C([H])([H])C([H])([H])C([H])([H])C([H])([H])C([H])([H])C([H])([H])C(=O)N4C([H])([H])C([H])([H])C([H])([H])C([H])(n5nc(-c6c([H])c([H])c(Oc7c([H])c([H])c(F)c([H])c7F)c([H])c6[H])c(C(=O)N([H])[H])c5N([H])[H])C4([H])[H])c([H])c3OC([H])([H])[H])c([H])c([H])c2C1([H])[H]

$$$$
16:0:0
     RDKit          3D

 94103  0  0  1  0  0  0  0  0999 V2000
  -28.6010  -22.6960   18.8480 C   0  0  0  0  0  0  0  0  0  0  0  0
  -28.9990  -21.8680   19.9760 C   0  0  0  0  0  0  0  0  0  0  0  0
  -28.3540  -24.1340   18.9160 C   0  0  0  0  0  0  0  0  0  0  0  0
  -29.0490  -22.6510   21.1950 C   0  0  0  0  0  0  0  0  0  0  0  0
  -28.7520  -24.0850   21.2560 C   0  0  0  0  0  0  0  0  0  0  0  0
  -28.4070  -24.8980   20.1230 C   0  0  0  0  0  0  0  0  0  0  0  0
  -28.4100  -22.0470   17.4700 C   0  0  0  0  0  2  0  0  0  0  0  0
  -29.0740  -20.6930   17.2620 C   0  0  0  0  0  2  0  0  0  0  0  0
  -28.8200  -19.7550   18.4310 C   0  0  0  0  0  2  0  0  0  0  0  0
  -29.4730  -20.2880   19.7120 C   0  0  0  0  0  3  0  0  0  0  0  0
  -28.0810  -24.9060   17.6260 C   0  0  0  0  0  1  0  0  0  0  0  0
  -29.4710  -21.9960   22.5020 C   0  0  0  0  0  1  0  0  0  0  0  0
  -28.8540  -24.8020   22.5990 C   0  0  0  0  0  1  0  0  0  0  0  0
  -31.1870  -18.9270   21.1890 C   0  0  0  0  0  1  0  0  0  0  0  0
  -29.7140  -18.9780   20.7350 C   0  0  0  0  0  3  0  0  0  0  0  0
  -29.5830  -16.1120   20.3290 C   0  0  0  0  0  0  0  0  0  0  0  0
  -29.1850  -17.4730   20.3840 C   0  0  0  0  0  3  0  0  0  0  0  0
  -30.5320  -14.8950   20.3380 C   0  0  0  0  0  0  0  0  0  0  0  0
  -30.3980  -12.5710   19.3710 C   0  0  0  0  0  2  0  0  0  0  0  0
  -29.4700  -12.6120   18.1330 C   0  0  0  0  0  2  0  0  0  0  0  0
  -27.9970  -12.4250   18.5450 C   0  0  0  0  0  2  0  0  0  0  0  0
  -27.6020  -13.3200   19.7500 C   0  0  0  0  0  3  0  0  0  0  0  0
  -28.6510  -13.2610   20.8790 C   0  0  0  0  0  2  0  0  0  0  0  0
  -29.9480  -13.6360   20.3030 N   0  0  0  0  0  0  0  0  0  0  0  0
  -31.7480  -14.9530   20.1020 O   0  0  0  0  0  0  0  0  0  0  0  0
  -25.2150  -13.9110   20.4670 C   0  0  0  0  0  0  0  0  0  0  0  0
  -24.1460  -13.1400   20.8310 C   0  0  0  0  0  0  0  0  0  0  0  0
  -24.6080  -11.7880   20.8110 C   0  0  0  0  0  0  0  0  0  0  0  0
  -26.2580  -13.0280   20.2380 N   0  0  0  0  0  0  0  0  0  0  0  0
  -25.9010  -11.7470   20.5120 N   0  0  0  0  0  0  0  0  0  0  0  0
  -23.8760  -10.5290   21.0010 C   0  0  0  0  0  0  0  0  0  0  0  0
  -24.2980   -9.5660   21.9440 C   0  0  0  0  0  3  0  0  0  0  0  0
  -23.5670   -8.3710   22.1240 C   0  0  0  0  0  3  0  0  0  0  0  0
  -22.4010   -8.1300   21.3590 C   0  0  0  0  0  0  0  0  0  0  0  0
  -21.9990   -9.0810   20.4050 C   0  0  0  0  0  3  0  0  0  0  0  0
  -22.7300  -10.2680   20.2240 C   0  0  0  0  0  3  0  0  0  0  0  0
  -21.6440   -6.9870   21.4450 O   0  0  0  0  0  0  0  0  0  0  0  0
  -21.5800   -6.2500   22.6010 C   0  0  0  0  0  0  0  0  0  0  0  0
  -21.1430   -6.8130   23.8200 C   0  0  0  0  0  3  0  0  0  0  0  0
  -21.0270   -6.0040   24.9670 C   0  0  0  0  0  3  0  0  0  0  0  0
  -21.3390   -4.6330   24.8970 C   0  0  0  0  0  0  0  0  0  0  0  0
  -21.7690   -4.0700   23.6840 C   0  0  0  0  0  3  0  0  0  0  0  0
  -21.8870   -4.8760   22.5380 C   0  0  0  0  0  0  0  0  0  0  0  0
  -22.2810   -4.3250   21.3650 F   0  0  0  0  0  0  0  0  0  0  0  0
  -21.2200   -3.8530   25.9970 F   0  0  0  0  0  0  0  0  0  0  0  0
  -22.7460  -13.6200   21.0860 C   0  0  0  0  0  0  0  0  0  0  0  0
  -22.0100  -12.9320   21.9500 N   0  0  0  0  0  0  0  0  0  0  0  0
  -22.3160  -14.6420   20.5540 O   0  0  0  0  0  0  0  0  0  0  0  0
  -22.3730  -12.1060   22.4030 H   0  0  0  0  0  0  0  0  0  0  0  0
  -21.0700  -13.2340   22.1630 H   0  0  0  0  0  0  0  0  0  0  0  0
  -25.3850  -15.2800   20.2880 N   0  0  0  0  0  0  0  0  0  0  0  0
  -24.6250  -15.9420   20.4010 H   0  0  0  0  0  0  0  0  0  0  0  0
  -26.2510  -15.7150   19.9970 H   0  0  0  0  0  0  0  0  0  0  0  0
  -28.3640  -26.3560   20.1660 O   0  0  0  0  0  0  0  0  0  0  0  0
  -24.6430  -31.8740   23.2260 C   0  0  0  0  0  0  0  0  0  0  0  0
  -27.2280  -27.2210   20.1770 C   0  0  0  0  0  0  0  0  0  0  0  0
  -23.4340  -30.4760   21.5910 C   0  0  0  0  0  3  0  0  0  0  0  0
  -24.8760  -28.9040   20.1660 C   0  0  0  0  0  0  0  0  0  0  0  0
  -25.9790  -30.7660   21.4050 C   0  0  0  0  0  2  0  0  0  0  0  0
  -26.0520  -29.3750   20.7610 C   0  0  0  0  0  0  0  0  0  0  0  0
  -27.2280  -28.5480   20.7490 C   0  0  0  0  0  3  0  0  0  0  0  0
  -26.0190  -26.8190   19.5730 C   0  0  0  0  0  3  0  0  0  0  0  0
  -24.8670  -27.6350   19.5610 C   0  0  0  0  0  3  0  0  0  0  0  0
  -23.6460  -29.7940   20.2140 C   0  0  0  0  0  2  0  0  0  0  0  0
  -24.7050  -31.0600   22.1290 N   0  0  0  0  0  0  0  0  0  0  0  0
  -23.5610  -32.1540   23.7630 O   0  0  0  0  0  0  0  0  0  0  0  0
  -22.7680  -29.4650   22.5580 C   0  0  0  0  0  0  0  0  0  0  0  0
  -21.4410  -29.2860   22.4340 N   0  0  0  0  0  0  0  0  0  0  0  0
  -23.4460  -28.8450   23.3810 O   0  0  0  0  0  0  0  0  0  0  0  0
  -20.9520  -29.8400   21.7440 H   0  0  0  0  0  0  0  0  0  0  0  0
  -18.0680  -28.0730   22.9380 C   0  0  0  0  0  0  0  0  0  0  0  0
  -20.6260  -28.3480   23.2070 C   0  0  0  0  0  3  0  0  0  0  0  0
  -20.7340  -26.9160   22.6380 C   0  0  0  0  0  2  0  0  0  0  0  0
  -19.6350  -26.5830   21.6230 C   0  0  0  0  0  2  0  0  0  0  0  0
  -18.2520  -26.7230   22.2660 C   0  0  0  0  0  2  0  0  0  0  0  0
  -19.1820  -28.8430   23.3660 C   0  0  0  0  0  0  0  0  0  0  0  0
  -18.9550  -30.1060   23.9550 C   0  0  0  0  0  3  0  0  0  0  0  0
  -17.6470  -30.6000   24.1190 C   0  0  0  0  0  3  0  0  0  0  0  0
  -16.5480  -29.8280   23.7060 C   0  0  0  0  0  3  0  0  0  0  0  0
  -16.7580  -28.5660   23.1220 C   0  0  0  0  0  3  0  0  0  0  0  0
  -25.9260  -32.5080   23.8460 C   0  0  0  0  0  3  0  0  0  0  0  0
  -25.6150  -33.9060   24.1860 N   0  0  0  0  0  0  0  0  0  0  0  0
  -25.9330  -34.9650   23.4280 C   0  0  0  0  0  0  0  0  0  0  0  0
  -26.5870  -34.8670   22.3850 O   0  0  0  0  0  0  0  0  0  0  0  0
  -25.0320  -34.0550   24.9960 H   0  0  0  0  0  0  0  0  0  0  0  0
  -24.1910  -36.7530   23.1150 C   0  0  0  0  0  1  0  0  0  0  0  0
  -25.4500  -36.3500   23.8990 C   0  0  0  0  0  3  0  0  0  0  0  0
  -27.5970  -37.2430   24.6900 C   0  0  0  0  0  1  0  0  0  0  0  0
  -26.4750  -37.4080   23.7680 N   0  0  0  0  0  0  0  0  0  0  0  0
  -26.0680  -38.3260   23.9230 H   0  0  0  0  0  0  0  0  0  0  0  0
  -26.4480  -31.7350   25.1200 C   0  0  1  0  0  0  0  0  0  0  0  0
  -25.3590  -31.4970   26.1920 C   0  0  0  0  0  1  0  0  0  0  0  0
  -27.0290  -30.3570   24.7270 C   0  0  0  0  0  1  0  0  0  0  0  0
  -27.6020  -32.5290   25.7780 C   0  0  0  0  0  1  0  0  0  0  0  0
  1  3  2  0
  1  2  1  0
  2  4  2  0
  3  6  1  0
  4  5  1  0
  4 12  1  0
  5 13  1  0
  6 54  1  0
  6  5  2  0
  7  1  1  0
  8  7  1  0
  8  9  1  0
  9 10  1  0
 10  2  1  0
 10 15  1  0
 11  3  1  0
 15 14  1  0
 16 18  2  0
 16 17  2  0
 17 15  1  0
 19 24  1  0
 20 21  1  0
 20 19  1  0
 22 21  1  0
 22 29  1  0
 22 23  1  0
 24 18  1  0
 24 23  1  0
 25 18  2  0
 26 27  2  0
 27 46  1  0
 28 27  1  0
 28 31  1  0
 29 26  1  0
 29 30  1  0
 30 28  2  0
 31 32  1  0
 32 33  2  0
 34 37  1  0
 34 33  1  0
 35 34  2  0
 36 35  1  0
 36 31  2  0
 37 38  1  0
 38 39  1  0
 39 40  2  0
 41 40  1  0
 41 45  1  0
 42 41  2  0
 43 38  2  0
 43 42  1  0
 44 43  1  0
 46 47  1  0
 47 50  1  0
 47 49  1  0
 48 46  2  0
 51 52  1  0
 51 26  1  0
 53 51  1  0
 54 56  1  0
 55 66  2  0
 56 61  1  0
 57 65  1  0
 57 67  1  0
 58 64  1  0
 58 60  1  0
 59 65  1  0
 60 59  1  0
 61 60  2  0
 62 56  2  0
 63 62  1  0
 63 58  2  0
 64 57  1  0
 65 55  1  0
 67 69  2  0
 68 67  1  0
 70 68  1  0
 71 80  2  0
 71 76  1  0
 72 68  1  0
 72 76  1  0
 73 72  1  0
 74 75  1  0
 74 73  1  0
 75 71  1  0
 76 77  2  0
 77 78  1  0
 79 78  2  0
 80 79  1  0
 81 55  1  0
 81 82  1  0
 81 91  1  0
 82 85  1  0
 83 87  1  0
 83 82  1  0
 84 83  2  0
 87 86  1  0
 89 87  1  0
 89 90  1  0
 89 88  1  0
 91 94  1  1
 91 92  1  0
 93 91  1  0
M  ISO  4   6 101  16 100  18 100  54 101
M  END
>  <TORSDO>  (17) 
F 18

>  <SCORE>  (17) 
-14.994

>  <name>  (17) 
16

>  <ligand_id>  (17) 
16

>  <original_smiles>  (17) 
[H]C(C(=O)N1C([H])([H])C([H])([H])C([H])([H])C([H])(n2nc(-c3c([H])c([H])c(Oc4c([H])c([H])c(F)c([H])c4F)c([H])c3[H])c(C(=O)N([H])[H])c2N([H])[H])C1([H])[H])=C([H])C([H])(C([H])([H])[H])C1([H])c2c(C([H])([H])[H])c(C([H])([H])[H])c(Oc3c([H])c([H])c4c(c3[H])C([H])([H])N(C(=O)C([H])(N([H])C(=O)C([H])(N([H])C([H])([H])[H])C([H])([H])[H])C(C([H])([H])[H])(C([H])([H])[H])C([H])([H])[H])C([H])(C(=O)N([H])C3([H])c5c([H])c([H])c([H])c([H])c5C([H])([H])C([H])([H])C3([H])[H])C4([H])[H])c(C([H])([H])[H])c2C([H])([H])C([H])([H])C1([H])[H]

>  <smiles>  (17) 
[H]C(C(=O)N1C([H])([H])C([H])([H])C([H])([H])C([H])(n2nc(-c3c([H])c([H])c(Oc4c([H])c([H])c(F)c([H])c4F)c([H])c3[H])c(C(=O)N([H])[H])c2N([H])[H])C1([H])[H])=C([H])C([H])(C([H])([H])[H])C1([H])c2c(C([H])([H])[H])c(C([H])([H])[H])c(Oc3c([H])c([H])c4c(c3[H])C([H])([H])N(C(=O)C([H])(N([H])C(=O)C([H])(N([H])C([H])([H])[H])C([H])([H])[H])C(C([H])([H])[H])(C([H])([H])[H])C([H])([H])[H])C([H])(C(=O)N([H])C3([H])c5c([H])c([H])c([H])c([H])c5C([H])([H])C([H])([H])C3([H])[H])C4([H])[H])c(C([H])([H])[H])c2C([H])([H])C([H])([H])C1([H])[H]

$$$$
17:0:0
     RDKit          3D

 89 97  0  0  1  0  0  0  0  0999 V2000
  -28.9160  -18.4900   21.1450 C   0  0  0  0  0  3  0  0  0  0  0  0
  -28.6300  -19.8750   20.8990 C   0  0  0  0  0  3  0  0  0  0  0  0
  -30.4440  -18.4420   19.3350 C   0  0  0  0  0  3  0  0  0  0  0  0
  -29.8220  -17.6880   20.3800 C   0  0  0  0  0  0  0  0  0  0  0  0
  -29.2150  -20.6270   19.8430 C   0  0  0  0  0  0  0  0  0  0  0  0
  -30.1480  -19.8440   19.0690 C   0  0  0  0  0  0  0  0  0  0  0  0
  -30.8260  -20.4900   17.8740 C   0  0  0  0  0  1  0  0  0  0  0  0
  -30.7620  -16.1620   22.2130 C   0  0  0  0  0  1  0  0  0  0  0  0
  -30.0540  -16.1420   20.8440 C   0  0  0  0  0  3  0  0  0  0  0  0
  -30.6990  -14.8870   20.0230 C   0  0  0  0  0  0  0  0  0  0  0  0
  -30.4920  -12.6060   18.9500 C   0  0  0  0  0  2  0  0  0  0  0  0
  -29.4770  -12.6600   17.7850 C   0  0  0  0  0  2  0  0  0  0  0  0
  -28.0330  -12.4730   18.2950 C   0  0  0  0  0  2  0  0  0  0  0  0
  -27.7290  -13.3450   19.5410 C   0  0  0  0  0  3  0  0  0  0  0  0
  -28.8490  -13.2210   20.5970 C   0  0  0  0  0  2  0  0  0  0  0  0
  -30.1020  -13.6360   19.9480 N   0  0  0  0  0  0  0  0  0  0  0  0
  -31.7990  -15.0380   19.4790 O   0  0  0  0  0  0  0  0  0  0  0  0
  -25.3790  -13.9370   20.3860 C   0  0  0  0  0  0  0  0  0  0  0  0
  -24.3300  -13.1650   20.8050 C   0  0  0  0  0  0  0  0  0  0  0  0
  -24.7880  -11.8120   20.7460 C   0  0  0  0  0  0  0  0  0  0  0  0
  -26.4080  -13.0570   20.0960 N   0  0  0  0  0  0  0  0  0  0  0  0
  -26.0620  -11.7730   20.3710 N   0  0  0  0  0  0  0  0  0  0  0  0
  -24.0680  -10.5510   20.9690 C   0  0  0  0  0  0  0  0  0  0  0  0
  -24.4980   -9.6160   21.9360 C   0  0  0  0  0  3  0  0  0  0  0  0
  -23.7780   -8.4200   22.1450 C   0  0  0  0  0  3  0  0  0  0  0  0
  -22.6140   -8.1500   21.3880 C   0  0  0  0  0  0  0  0  0  0  0  0
  -22.2010   -9.0750   20.4110 C   0  0  0  0  0  3  0  0  0  0  0  0
  -22.9230  -10.2620   20.2010 C   0  0  0  0  0  3  0  0  0  0  0  0
  -21.8650   -7.0040   21.5060 O   0  0  0  0  0  0  0  0  0  0  0  0
  -21.7510   -6.3380   22.7000 C   0  0  0  0  0  0  0  0  0  0  0  0
  -21.2200   -6.9590   23.8510 C   0  0  0  0  0  3  0  0  0  0  0  0
  -21.0550   -6.2170   25.0380 C   0  0  0  0  0  3  0  0  0  0  0  0
  -21.4110   -4.8550   25.0740 C   0  0  0  0  0  0  0  0  0  0  0  0
  -21.9360   -4.2340   23.9260 C   0  0  0  0  0  3  0  0  0  0  0  0
  -22.1020   -4.9730   22.7420 C   0  0  0  0  0  0  0  0  0  0  0  0
  -22.5870   -4.3640   21.6340 F   0  0  0  0  0  0  0  0  0  0  0  0
  -21.2470   -4.1410   26.2120 F   0  0  0  0  0  0  0  0  0  0  0  0
  -22.9500  -13.6440   21.1510 C   0  0  0  0  0  0  0  0  0  0  0  0
  -22.2730  -12.9570   22.0630 N   0  0  0  0  0  0  0  0  0  0  0  0
  -22.4830  -14.6650   20.6460 O   0  0  0  0  0  0  0  0  0  0  0  0
  -22.6640  -12.1320   22.4930 H   0  0  0  0  0  0  0  0  0  0  0  0
  -21.3500  -13.2610   22.3370 H   0  0  0  0  0  0  0  0  0  0  0  0
  -25.5370  -15.3080   20.2050 N   0  0  0  0  0  0  0  0  0  0  0  0
  -24.7790  -15.9640   20.3590 H   0  0  0  0  0  0  0  0  0  0  0  0
  -26.3720  -15.7490   19.8420 H   0  0  0  0  0  0  0  0  0  0  0  0
  -28.6220  -22.0840   19.4300 C   0  0  0  0  0  2  0  0  0  0  0  0
  -29.0270  -23.5750   19.9900 C   0  0  0  0  0  3  0  0  0  0  0  0
  -28.0640  -24.8600   19.6030 C   0  0  0  0  0  3  0  0  0  0  0  0
  -28.3010  -26.3380   19.9070 O   0  0  0  0  0  0  0  0  0  0  0  0
  -24.6150  -31.7810   23.1150 C   0  0  0  0  0  0  0  0  0  0  0  0
  -27.2140  -27.2660   19.8760 C   0  0  0  0  0  0  0  0  0  0  0  0
  -23.4090  -30.4360   21.4360 C   0  0  0  0  0  3  0  0  0  0  0  0
  -24.8560  -28.9390   19.9390 C   0  0  0  0  0  0  0  0  0  0  0  0
  -25.9540  -30.7470   21.2550 C   0  0  0  0  0  2  0  0  0  0  0  0
  -26.0330  -29.3870   20.5520 C   0  0  0  0  0  0  0  0  0  0  0  0
  -27.2120  -28.5640   20.5100 C   0  0  0  0  0  3  0  0  0  0  0  0
  -26.0090  -26.9080   19.2260 C   0  0  0  0  0  3  0  0  0  0  0  0
  -24.8530  -27.7110   19.2650 C   0  0  0  0  0  3  0  0  0  0  0  0
  -23.6190  -29.8140   20.0300 C   0  0  0  0  0  2  0  0  0  0  0  0
  -24.6800  -31.0050   21.9910 N   0  0  0  0  0  0  0  0  0  0  0  0
  -23.5340  -32.0370   23.6640 O   0  0  0  0  0  0  0  0  0  0  0  0
  -22.7520  -29.3860   22.3640 C   0  0  0  0  0  0  0  0  0  0  0  0
  -21.4290  -29.1890   22.2220 N   0  0  0  0  0  0  0  0  0  0  0  0
  -23.4330  -28.7530   23.1750 O   0  0  0  0  0  0  0  0  0  0  0  0
  -20.9380  -29.7530   21.5440 H   0  0  0  0  0  0  0  0  0  0  0  0
  -18.0730  -27.9030   22.6580 C   0  0  0  0  0  0  0  0  0  0  0  0
  -20.6220  -28.2170   22.9630 C   0  0  0  0  0  3  0  0  0  0  0  0
  -20.7630  -26.8010   22.3570 C   0  0  0  0  0  2  0  0  0  0  0  0
  -19.6810  -26.4750   21.3240 C   0  0  0  0  0  2  0  0  0  0  0  0
  -18.2890  -26.5730   21.9540 C   0  0  0  0  0  2  0  0  0  0  0  0
  -19.1690  -28.6820   23.1160 C   0  0  0  0  0  0  0  0  0  0  0  0
  -18.9130  -29.9240   23.7350 C   0  0  0  0  0  3  0  0  0  0  0  0
  -17.5940  -30.3890   23.8990 C   0  0  0  0  0  3  0  0  0  0  0  0
  -16.5130  -29.6070   23.4550 C   0  0  0  0  0  3  0  0  0  0  0  0
  -16.7530  -28.3670   22.8400 C   0  0  0  0  0  3  0  0  0  0  0  0
  -25.8970  -32.4000   23.7520 C   0  0  0  0  0  3  0  0  0  0  0  0
  -26.4300  -31.5820   24.9930 C   0  0  1  0  0  0  0  0  0  0  0  0
  -25.3450  -31.2890   26.0560 C   0  0  0  0  0  1  0  0  0  0  0  0
  -27.0240  -30.2280   24.5420 C   0  0  0  0  0  1  0  0  0  0  0  0
  -27.5770  -32.3600   25.6780 C   0  0  0  0  0  1  0  0  0  0  0  0
  -25.5770  -33.7800   24.1460 N   0  0  0  0  0  0  0  0  0  0  0  0
  -25.9010  -34.8710   23.4380 C   0  0  0  0  0  0  0  0  0  0  0  0
  -26.5690  -34.8200   22.4020 O   0  0  0  0  0  0  0  0  0  0  0  0
  -24.9840  -33.8920   24.9550 H   0  0  0  0  0  0  0  0  0  0  0  0
  -24.1800  -36.6830   23.1550 C   0  0  0  0  0  1  0  0  0  0  0  0
  -25.4080  -36.2340   23.9630 C   0  0  0  0  0  3  0  0  0  0  0  0
  -27.5270  -37.0740   24.8760 C   0  0  0  0  0  1  0  0  0  0  0  0
  -26.4440  -37.2900   23.9220 N   0  0  0  0  0  0  0  0  0  0  0  0
  -26.0350  -38.2020   24.1070 H   0  0  0  0  0  0  0  0  0  0  0  0
  2  1  1  0
  3  4  1  0
  4  9  1  0
  4  1  2  0
  5  2  2  0
  6  3  2  0
  6  5  1  0
  7  6  1  0
  9  8  1  0
 10  9  1  0
 11 16  1  0
 12 13  1  0
 12 11  1  0
 14 13  1  0
 14 21  1  0
 14 15  1  0
 16 10  1  0
 16 15  1  0
 17 10  2  0
 18 19  2  0
 19 38  1  0
 20 19  1  0
 20 23  1  0
 21 22  1  0
 21 18  1  0
 22 20  2  0
 23 24  1  0
 24 25  2  0
 26 29  1  0
 26 25  1  0
 27 26  2  0
 28 27  1  0
 28 23  2  0
 29 30  1  0
 30 35  2  0
 30 31  1  0
 31 32  2  0
 32 33  1  0
 33 37  1  0
 34 33  2  0
 35 34  1  0
 36 35  1  0
 38 39  1  0
 39 42  1  0
 39 41  1  0
 40 38  2  0
 43 44  1  0
 43 18  1  0
 45 43  1  0
 46  5  1  0
 46 47  1  0
 48 49  1  0
 48 47  2  0
 50 61  2  0
 51 49  1  0
 51 56  1  0
 52 60  1  0
 52 62  1  0
 53 59  1  0
 53 55  1  0
 54 60  1  0
 55 54  1  0
 56 55  2  0
 57 58  1  0
 57 51  2  0
 58 53  2  0
 59 52  1  0
 60 50  1  0
 62 64  2  0
 63 62  1  0
 65 63  1  0
 66 75  2  0
 66 71  1  0
 67 63  1  0
 67 71  1  0
 68 67  1  0
 69 70  1  0
 69 68  1  0
 70 66  1  0
 71 72  2  0
 72 73  1  0
 74 73  2  0
 75 74  1  0
 76 50  1  0
 76 81  1  0
 76 77  1  0
 77 80  1  1
 77 78  1  0
 79 77  1  0
 81 84  1  0
 82 86  1  0
 82 81  1  0
 83 82  2  0
 86 85  1  0
 88 86  1  0
 88 89  1  0
 88 87  1  0
M  ISO  4   9 100  10 100  48 101  49 101
M  END
>  <TORSDO>  (18) 
F 20

>  <SCORE>  (18) 
-12.946

>  <name>  (18) 
17

>  <ligand_id>  (18) 
17

>  <original_smiles>  (18) 
[H]c1c([H])c([H])c2c(c1[H])C([H])([H])C([H])([H])C([H])([H])C2([H])N([H])C(=O)C1([H])N(C(=O)C([H])(N([H])C(=O)C([H])(N([H])C([H])([H])[H])C([H])([H])[H])C(C([H])([H])[H])(C([H])([H])[H])C([H])([H])[H])C([H])([H])c2c([H])c(OC([H])([H])C([H])([H])C([H])([H])c3c([H])c([H])c(C([H])(C(=O)N4C([H])([H])C([H])([H])C([H])([H])C([H])(n5nc(-c6c([H])c([H])c(Oc7c([H])c([H])c(F)c([H])c7F)c([H])c6[H])c(C(=O)N([H])[H])c5N([H])[H])C4([H])[H])C([H])([H])[H])c([H])c3C([H])([H])[H])c([H])c([H])c2C1([H])[H]

>  <smiles>  (18) 
[H]c1c([H])c([H])c2c(c1[H])C([H])([H])C([H])([H])C([H])([H])C2([H])N([H])C(=O)C1([H])N(C(=O)C([H])(N([H])C(=O)C([H])(N([H])C([H])([H])[H])C([H])([H])[H])C(C([H])([H])[H])(C([H])([H])[H])C([H])([H])[H])C([H])([H])c2c([H])c(OC([H])([H])C([H])([H])C([H])([H])c3c([H])c([H])c(C([H])(C(=O)N4C([H])([H])C([H])([H])C([H])([H])C([H])(n5nc(-c6c([H])c([H])c(Oc7c([H])c([H])c(F)c([H])c7F)c([H])c6[H])c(C(=O)N([H])[H])c5N([H])[H])C4([H])[H])C([H])([H])[H])c([H])c3C([H])([H])[H])c([H])c([H])c2C1([H])[H]

$$$$
18:0:0
     RDKit          3D

 92101  0  0  1  0  0  0  0  0999 V2000
  -28.5400  -22.8520   21.2940 C   0  0  0  0  0  3  0  0  0  0  0  0
  -28.3030  -24.2740   21.2970 C   0  0  0  0  0  3  0  0  0  0  0  0
  -28.9900  -22.9330   18.9590 C   0  0  0  0  0  3  0  0  0  0  0  0
  -28.9120  -22.1120   20.1270 C   0  0  0  0  0  0  0  0  0  0  0  0
  -28.7580  -24.3570   18.9580 C   0  0  0  0  0  0  0  0  0  0  0  0
  -28.4100  -25.0890   20.1330 C   0  0  0  0  0  0  0  0  0  0  0  0
  -28.9320  -25.1190   17.6580 C   0  0  0  0  0  1  0  0  0  0  0  0
  -29.2260  -19.7800   19.0210 C   0  0  0  0  0  3  0  0  0  0  0  0
  -29.1990  -20.5640   20.1400 C   0  0  0  0  0  0  0  0  0  0  0  0
  -29.5040  -18.2350   18.9150 C   0  0  0  0  0  2  0  0  0  0  0  0
  -29.5500  -19.7940   21.4300 C   0  0  0  0  0  2  0  0  0  0  0  0
  -29.4270  -18.2140   21.3880 C   0  0  0  0  0  2  0  0  0  0  0  0
  -30.0770  -17.4790   20.1720 C   0  0  0  0  0  3  0  0  0  0  0  0
  -30.6720  -14.8620   19.9100 C   0  0  0  0  0  0  0  0  0  0  0  0
  -30.4610  -12.5700   18.9240 C   0  0  0  0  0  2  0  0  0  0  0  0
  -29.4330  -12.6130   17.7710 C   0  0  0  0  0  2  0  0  0  0  0  0
  -28.0010  -12.4210   18.3090 C   0  0  0  0  0  2  0  0  0  0  0  0
  -27.7010  -13.3160   19.5400 C   0  0  0  0  0  3  0  0  0  0  0  0
  -28.8370  -13.2430   20.5830 C   0  0  0  0  0  2  0  0  0  0  0  0
  -30.0800  -13.6170   19.8990 N   0  0  0  0  0  0  0  0  0  0  0  0
  -31.8260  -15.0000   19.4970 O   0  0  0  0  0  0  0  0  0  0  0  0
  -29.8610  -15.9550   20.1970 N   0  0  0  0  0  0  0  0  0  0  0  0
  -28.9330  -15.6780   20.4760 H   0  0  0  0  0  0  0  0  0  0  0  0
  -25.3900  -13.8960   20.4940 C   0  0  0  0  0  0  0  0  0  0  0  0
  -24.3480  -13.1150   20.9150 C   0  0  0  0  0  0  0  0  0  0  0  0
  -24.7880  -11.7620   20.7780 C   0  0  0  0  0  0  0  0  0  0  0  0
  -26.3970  -13.0190   20.1270 N   0  0  0  0  0  0  0  0  0  0  0  0
  -26.0470  -11.7270   20.3600 N   0  0  0  0  0  0  0  0  0  0  0  0
  -24.0610  -10.4990   20.9640 C   0  0  0  0  0  0  0  0  0  0  0  0
  -24.4950   -9.5270   21.8930 C   0  0  0  0  0  3  0  0  0  0  0  0
  -23.7670   -8.3300   22.0680 C   0  0  0  0  0  3  0  0  0  0  0  0
  -22.5930   -8.0970   21.3140 C   0  0  0  0  0  0  0  0  0  0  0  0
  -22.1790   -9.0570   20.3750 C   0  0  0  0  0  3  0  0  0  0  0  0
  -22.9080  -10.2450   20.1970 C   0  0  0  0  0  3  0  0  0  0  0  0
  -21.8390   -6.9510   21.3980 O   0  0  0  0  0  0  0  0  0  0  0  0
  -21.7020   -6.2650   22.5780 C   0  0  0  0  0  0  0  0  0  0  0  0
  -21.1560   -6.8680   23.7310 C   0  0  0  0  0  3  0  0  0  0  0  0
  -20.9670   -6.1070   24.9020 C   0  0  0  0  0  3  0  0  0  0  0  0
  -21.3150   -4.7430   24.9190 C   0  0  0  0  0  0  0  0  0  0  0  0
  -21.8540   -4.1390   23.7690 C   0  0  0  0  0  3  0  0  0  0  0  0
  -22.0430   -4.8980   22.6010 C   0  0  0  0  0  0  0  0  0  0  0  0
  -22.5430   -4.3060   21.4900 F   0  0  0  0  0  0  0  0  0  0  0  0
  -21.1260   -4.0090   26.0400 F   0  0  0  0  0  0  0  0  0  0  0  0
  -22.9850  -13.5930   21.3230 C   0  0  0  0  0  0  0  0  0  0  0  0
  -22.3220  -12.8650   22.2150 N   0  0  0  0  0  0  0  0  0  0  0  0
  -22.5200  -14.6460   20.8890 O   0  0  0  0  0  0  0  0  0  0  0  0
  -22.7110  -12.0110   22.5890 H   0  0  0  0  0  0  0  0  0  0  0  0
  -21.4120  -13.1660   22.5320 H   0  0  0  0  0  0  0  0  0  0  0  0
  -25.5580  -15.2720   20.3690 N   0  0  0  0  0  0  0  0  0  0  0  0
  -24.8080  -15.9240   20.5700 H   0  0  0  0  0  0  0  0  0  0  0  0
  -26.3670  -15.7180   19.9570 H   0  0  0  0  0  0  0  0  0  0  0  0
  -28.3820  -26.5230   20.1600 O   0  0  0  0  0  0  0  0  0  0  0  0
  -24.6160  -31.9220   23.2250 C   0  0  0  0  0  0  0  0  0  0  0  0
  -27.2340  -27.3430   20.1670 C   0  0  0  0  0  0  0  0  0  0  0  0
  -23.4140  -30.5240   21.5800 C   0  0  0  0  0  3  0  0  0  0  0  0
  -24.8670  -28.9680   20.1530 C   0  0  0  0  0  0  0  0  0  0  0  0
  -25.9530  -30.8410   21.3990 C   0  0  0  0  0  2  0  0  0  0  0  0
  -26.0330  -29.4570   20.7530 C   0  0  0  0  0  0  0  0  0  0  0  0
  -27.2170  -28.6550   20.7480 C   0  0  0  0  0  3  0  0  0  0  0  0
  -26.0460  -26.9100   19.5430 C   0  0  0  0  0  3  0  0  0  0  0  0
  -24.8770  -27.7030   19.5390 C   0  0  0  0  0  3  0  0  0  0  0  0
  -23.6310  -29.8470   20.1990 C   0  0  0  0  0  2  0  0  0  0  0  0
  -24.6800  -31.1140   22.1250 N   0  0  0  0  0  0  0  0  0  0  0  0
  -23.5310  -32.1960   23.7610 O   0  0  0  0  0  0  0  0  0  0  0  0
  -22.7510  -29.5090   22.5410 C   0  0  0  0  0  0  0  0  0  0  0  0
  -21.4280  -29.3160   22.4010 N   0  0  0  0  0  0  0  0  0  0  0  0
  -23.4260  -28.8960   23.3720 O   0  0  0  0  0  0  0  0  0  0  0  0
  -20.9410  -29.8640   21.7070 H   0  0  0  0  0  0  0  0  0  0  0  0
  -18.0610  -28.0730   22.8660 C   0  0  0  0  0  0  0  0  0  0  0  0
  -20.6120  -28.3700   23.1640 C   0  0  0  0  0  3  0  0  0  0  0  0
  -20.7400  -26.9360   22.5970 C   0  0  0  0  0  2  0  0  0  0  0  0
  -19.6550  -26.5940   21.5720 C   0  0  0  0  0  2  0  0  0  0  0  0
  -18.2640  -26.7230   22.1980 C   0  0  0  0  0  2  0  0  0  0  0  0
  -19.1640  -28.8540   23.3050 C   0  0  0  0  0  0  0  0  0  0  0  0
  -18.9200  -30.1150   23.8890 C   0  0  0  0  0  3  0  0  0  0  0  0
  -17.6070  -30.5970   24.0400 C   0  0  0  0  0  3  0  0  0  0  0  0
  -16.5180  -29.8150   23.6160 C   0  0  0  0  0  3  0  0  0  0  0  0
  -16.7470  -28.5560   23.0350 C   0  0  0  0  0  3  0  0  0  0  0  0
  -25.8950  -32.5560   23.8500 C   0  0  0  0  0  3  0  0  0  0  0  0
  -25.5870  -33.9560   24.1790 N   0  0  0  0  0  0  0  0  0  0  0  0
  -25.9050  -35.0070   23.4130 C   0  0  0  0  0  0  0  0  0  0  0  0
  -26.5600  -34.9000   22.3720 O   0  0  0  0  0  0  0  0  0  0  0  0
  -25.0050  -34.1120   24.9890 H   0  0  0  0  0  0  0  0  0  0  0  0
  -24.1630  -36.7940   23.0870 C   0  0  0  0  0  1  0  0  0  0  0  0
  -25.4230  -36.3970   23.8720 C   0  0  0  0  0  3  0  0  0  0  0  0
  -27.5680  -37.3000   24.6570 C   0  0  0  0  0  1  0  0  0  0  0  0
  -26.4490  -37.4540   23.7300 N   0  0  0  0  0  0  0  0  0  0  0  0
  -26.0420  -38.3730   23.8750 H   0  0  0  0  0  0  0  0  0  0  0  0
  -26.4080  -31.7880   25.1320 C   0  0  1  0  0  0  0  0  0  0  0  0
  -25.3110  -31.5490   26.1960 C   0  0  0  0  0  1  0  0  0  0  0  0
  -26.9980  -30.4110   24.7450 C   0  0  0  0  0  1  0  0  0  0  0  0
  -27.5520  -32.5880   25.7990 C   0  0  0  0  0  1  0  0  0  0  0  0
  1  2  1  0
  3  4  1  0
  4  9  1  0
  4  1  2  0
  5  3  2  0
  5  6  1  0
  6 52  1  0
  6  2  2  0
  7  5  1  0
  8  9  2  0
  9 11  1  0
 10  8  1  0
 10 13  1  0
 12 11  1  0
 13 22  1  0
 13 12  1  0
 14 22  1  0
 15 20  1  0
 16 17  1  0
 16 15  1  0
 18 17  1  0
 18 27  1  0
 18 19  1  0
 20 14  1  0
 20 19  1  0
 21 14  2  0
 22 23  1  0
 24 25  2  0
 25 44  1  0
 26 25  1  0
 26 29  1  0
 27 28  1  0
 27 24  1  0
 28 26  2  0
 29 30  1  0
 30 31  2  0
 32 35  1  0
 32 31  1  0
 33 32  2  0
 34 33  1  0
 34 29  2  0
 35 36  1  0
 36 41  2  0
 36 37  1  0
 37 38  2  0
 38 39  1  0
 39 43  1  0
 40 39  2  0
 41 40  1  0
 42 41  1  0
 44 45  1  0
 45 48  1  0
 45 47  1  0
 46 44  2  0
 49 24  1  0
 49 50  1  0
 51 49  1  0
 52 54  1  0
 53 64  2  0
 54 59  1  0
 55 63  1  0
 55 65  1  0
 56 62  1  0
 56 58  1  0
 57 63  1  0
 58 57  1  0
 59 58  2  0
 60 54  2  0
 61 60  1  0
 61 56  2  0
 62 55  1  0
 63 53  1  0
 65 67  2  0
 66 65  1  0
 68 66  1  0
 69 78  2  0
 69 74  1  0
 70 66  1  0
 70 74  1  0
 71 70  1  0
 72 73  1  0
 72 71  1  0
 73 69  1  0
 74 75  2  0
 75 76  1  0
 77 76  2  0
 78 77  1  0
 79 53  1  0
 79 80  1  0
 79 89  1  0
 80 83  1  0
 81 85  1  0
 81 80  1  0
 82 81  2  0
 85 84  1  0
 87 85  1  0
 87 88  1  0
 87 86  1  0
 89 92  1  1
 89 90  1  0
 91 89  1  0
M  ISO  4   6 101  14 100  22 100  52 101
M  END
>  <TORSDO>  (19) 
F 17

>  <SCORE>  (19) 
-14.296

>  <name>  (19) 
18

>  <ligand_id>  (19) 
18

>  <original_smiles>  (19) 
[H]C1=C(c2c([H])c([H])c(Oc3c([H])c([H])c4c(c3[H])C([H])([H])N(C(=O)C([H])(N([H])C(=O)C([H])(N([H])C([H])([H])[H])C([H])([H])[H])C(C([H])([H])[H])(C([H])([H])[H])C([H])([H])[H])C([H])(C(=O)N([H])C3([H])c5c([H])c([H])c([H])c([H])c5C([H])([H])C([H])([H])C3([H])[H])C4([H])[H])c(C([H])([H])[H])c2[H])C([H])([H])C([H])([H])C([H])(N([H])C(=O)N2C([H])([H])C([H])([H])C([H])([H])C([H])(n3nc(-c4c([H])c([H])c(Oc5c([H])c([H])c(F)c([H])c5F)c([H])c4[H])c(C(=O)N([H])[H])c3N([H])[H])C2([H])[H])C1([H])[H]

>  <smiles>  (19) 
[H]C1=C(c2c([H])c([H])c(Oc3c([H])c([H])c4c(c3[H])C([H])([H])N(C(=O)C([H])(N([H])C(=O)C([H])(N([H])C([H])([H])[H])C([H])([H])[H])C(C([H])([H])[H])(C([H])([H])[H])C([H])([H])[H])C([H])(C(=O)N([H])C3([H])c5c([H])c([H])c([H])c([H])c5C([H])([H])C([H])([H])C3([H])[H])C4([H])[H])c(C([H])([H])[H])c2[H])C([H])([H])C([H])([H])C([H])(N([H])C(=O)N2C([H])([H])C([H])([H])C([H])([H])C([H])(n3nc(-c4c([H])c([H])c(Oc5c([H])c([H])c(F)c([H])c5F)c([H])c4[H])c(C(=O)N([H])[H])c3N([H])[H])C2([H])[H])C1([H])[H]

$$$$
19:0:0
     RDKit          3D

 92101  0  0  1  0  0  0  0  0999 V2000
  -27.9890  -22.8290   21.9890 C   0  0  0  0  0  3  0  0  0  0  0  0
  -27.6010  -24.0160   22.6270 C   0  0  0  0  0  3  0  0  0  0  0  0
  -28.6840  -24.1250   20.0580 C   0  0  0  0  0  3  0  0  0  0  0  0
  -28.5810  -22.8460   20.7090 C   0  0  0  0  0  0  0  0  0  0  0  0
  -27.7620  -25.2690   22.0080 C   0  0  0  0  0  0  0  0  0  0  0  0
  -28.2630  -25.3560   20.6770 C   0  0  0  0  0  0  0  0  0  0  0  0
  -27.4030  -26.4930   22.8350 C   0  0  0  0  0  1  0  0  0  0  0  0
  -28.3790  -26.6000   20.0270 O   0  0  0  0  0  0  0  0  0  0  0  0
  -24.5480  -31.8070   23.1050 C   0  0  0  0  0  0  0  0  0  0  0  0
  -27.2620  -27.4260   19.9540 C   0  0  0  0  0  0  0  0  0  0  0  0
  -23.3700  -30.4130   21.4390 C   0  0  0  0  0  3  0  0  0  0  0  0
  -24.8540  -28.9300   19.9770 C   0  0  0  0  0  0  0  0  0  0  0  0
  -25.8920  -30.8170   21.2440 C   0  0  0  0  0  2  0  0  0  0  0  0
  -26.0070  -29.4600   20.5670 C   0  0  0  0  0  0  0  0  0  0  0  0
  -27.2210  -28.7240   20.5360 C   0  0  0  0  0  3  0  0  0  0  0  0
  -26.0930  -26.9320   19.3410 C   0  0  0  0  0  3  0  0  0  0  0  0
  -24.8950  -27.6720   19.3500 C   0  0  0  0  0  3  0  0  0  0  0  0
  -23.5900  -29.7620   20.0460 C   0  0  0  0  0  2  0  0  0  0  0  0
  -24.6220  -31.0270   21.9870 N   0  0  0  0  0  0  0  0  0  0  0  0
  -23.4610  -32.0430   23.6530 O   0  0  0  0  0  0  0  0  0  0  0  0
  -22.7390  -29.3620   22.3830 C   0  0  0  0  0  0  0  0  0  0  0  0
  -21.4190  -29.1520   22.2530 N   0  0  0  0  0  0  0  0  0  0  0  0
  -23.4360  -28.7390   23.1880 O   0  0  0  0  0  0  0  0  0  0  0  0
  -20.9140  -29.7110   21.5790 H   0  0  0  0  0  0  0  0  0  0  0  0
  -18.0700  -27.8790   22.7460 C   0  0  0  0  0  0  0  0  0  0  0  0
  -20.6230  -28.1820   23.0090 C   0  0  0  0  0  3  0  0  0  0  0  0
  -20.7480  -26.7660   22.3990 C   0  0  0  0  0  2  0  0  0  0  0  0
  -19.6470  -26.4450   21.3840 C   0  0  0  0  0  2  0  0  0  0  0  0
  -18.2680  -26.5510   22.0370 C   0  0  0  0  0  2  0  0  0  0  0  0
  -19.1760  -28.6540   23.1870 C   0  0  0  0  0  0  0  0  0  0  0  0
  -18.9350  -29.9000   23.8060 C   0  0  0  0  0  3  0  0  0  0  0  0
  -17.6210  -30.3720   23.9880 C   0  0  0  0  0  3  0  0  0  0  0  0
  -16.5300  -29.5960   23.5620 C   0  0  0  0  0  3  0  0  0  0  0  0
  -16.7550  -28.3510   22.9490 C   0  0  0  0  0  3  0  0  0  0  0  0
  -25.8200  -32.4560   23.7360 C   0  0  0  0  0  3  0  0  0  0  0  0
  -25.4830  -33.8420   24.0920 N   0  0  0  0  0  0  0  0  0  0  0  0
  -25.8050  -34.9150   23.3580 C   0  0  0  0  0  0  0  0  0  0  0  0
  -26.4880  -34.8430   22.3320 O   0  0  0  0  0  0  0  0  0  0  0  0
  -24.8830  -33.9680   24.8950 H   0  0  0  0  0  0  0  0  0  0  0  0
  -24.0600  -36.6900   23.0060 C   0  0  0  0  0  1  0  0  0  0  0  0
  -25.2870  -36.2850   23.8390 C   0  0  0  0  0  3  0  0  0  0  0  0
  -27.3900  -37.1810   24.7390 C   0  0  0  0  0  1  0  0  0  0  0  0
  -26.3070  -37.3550   23.7740 N   0  0  0  0  0  0  0  0  0  0  0  0
  -25.8870  -38.2680   23.9280 H   0  0  0  0  0  0  0  0  0  0  0  0
  -26.3540  -31.6740   24.9990 C   0  0  1  0  0  0  0  0  0  0  0  0
  -25.2670  -31.3930   26.0630 C   0  0  0  0  0  1  0  0  0  0  0  0
  -26.9680  -30.3170   24.5790 C   0  0  0  0  0  1  0  0  0  0  0  0
  -27.4830  -32.4830   25.6770 C   0  0  0  0  0  1  0  0  0  0  0  0
  -29.1220  -21.5140   20.0820 C   0  0  0  0  0  3  0  0  0  0  0  0
  -28.8080  -20.1570   20.8430 C   0  0  0  0  0  3  0  0  0  0  0  0
  -30.8620  -14.6700   19.9330 C   0  0  0  0  0  0  0  0  0  0  0  0
  -30.5310  -12.4530   18.8970 C   0  0  0  0  0  2  0  0  0  0  0  0
  -29.5160  -12.6010   17.7460 C   0  0  0  0  0  2  0  0  0  0  0  0
  -28.0750  -12.4540   18.2720 C   0  0  0  0  0  2  0  0  0  0  0  0
  -27.8030  -13.3110   19.5390 C   0  0  0  0  0  3  0  0  0  0  0  0
  -28.9340  -13.1710   20.5790 C   0  0  0  0  0  2  0  0  0  0  0  0
  -30.1970  -13.4790   19.8990 N   0  0  0  0  0  0  0  0  0  0  0  0
  -32.0130  -14.7720   19.4920 O   0  0  0  0  0  0  0  0  0  0  0  0
  -29.1840  -18.0560   19.2380 C   0  0  0  0  0  2  0  0  0  0  0  0
  -29.4510  -17.7730   21.6440 C   0  0  0  0  0  2  0  0  0  0  0  0
  -30.0560  -16.7770   19.0170 C   0  0  0  0  0  2  0  0  0  0  0  0
  -30.3140  -16.4960   21.4360 C   0  0  0  0  0  2  0  0  0  0  0  0
  -29.5890  -18.8220   20.5110 C   0  0  0  0  0  3  0  0  0  0  0  0
  -30.1160  -15.8040   20.1450 N   0  0  0  0  0  0  0  0  0  0  0  0
  -25.4840  -13.8930   20.4750 C   0  0  0  0  0  0  0  0  0  0  0  0
  -24.4380  -13.1120   20.8870 C   0  0  0  0  0  0  0  0  0  0  0  0
  -24.8810  -11.7590   20.7540 C   0  0  0  0  0  0  0  0  0  0  0  0
  -26.4950  -13.0170   20.1160 N   0  0  0  0  0  0  0  0  0  0  0  0
  -26.1430  -11.7250   20.3440 N   0  0  0  0  0  0  0  0  0  0  0  0
  -24.1550  -10.4950   20.9380 C   0  0  0  0  0  0  0  0  0  0  0  0
  -24.5750   -9.5330   21.8820 C   0  0  0  0  0  3  0  0  0  0  0  0
  -23.8500   -8.3330   22.0530 C   0  0  0  0  0  3  0  0  0  0  0  0
  -22.6910   -8.0890   21.2800 C   0  0  0  0  0  0  0  0  0  0  0  0
  -22.2900   -9.0400   20.3260 C   0  0  0  0  0  3  0  0  0  0  0  0
  -23.0160  -10.2300   20.1520 C   0  0  0  0  0  3  0  0  0  0  0  0
  -21.9390   -6.9420   21.3600 O   0  0  0  0  0  0  0  0  0  0  0  0
  -21.7700   -6.2730   22.5460 C   0  0  0  0  0  0  0  0  0  0  0  0
  -21.1970   -6.8940   23.6780 C   0  0  0  0  0  3  0  0  0  0  0  0
  -20.9780   -6.1500   24.8530 C   0  0  0  0  0  3  0  0  0  0  0  0
  -21.3210   -4.7860   24.8980 C   0  0  0  0  0  0  0  0  0  0  0  0
  -21.8840   -4.1630   23.7710 C   0  0  0  0  0  3  0  0  0  0  0  0
  -22.1050   -4.9050   22.5970 C   0  0  0  0  0  0  0  0  0  0  0  0
  -22.6300   -4.2950   21.5070 F   0  0  0  0  0  0  0  0  0  0  0  0
  -21.1020   -4.0680   26.0250 F   0  0  0  0  0  0  0  0  0  0  0  0
  -23.0730  -13.5870   21.2910 C   0  0  0  0  0  0  0  0  0  0  0  0
  -22.4080  -12.8580   22.1790 N   0  0  0  0  0  0  0  0  0  0  0  0
  -22.6080  -14.6380   20.8530 O   0  0  0  0  0  0  0  0  0  0  0  0
  -22.8000  -12.0070   22.5540 H   0  0  0  0  0  0  0  0  0  0  0  0
  -21.4950  -13.1560   22.4900 H   0  0  0  0  0  0  0  0  0  0  0  0
  -25.6560  -15.2690   20.3540 N   0  0  0  0  0  0  0  0  0  0  0  0
  -24.9170  -15.9300   20.5660 H   0  0  0  0  0  0  0  0  0  0  0  0
  -26.5030  -15.7110   20.0180 H   0  0  0  0  0  0  0  0  0  0  0  0
  1  2  1  0
  3  6  2  0
  3  4  1  0
  4  1  2  0
  5  2  2  0
  5  7  1  0
  6  5  1  0
  8  6  1  0
  9 20  2  0
 10  8  1  0
 10 15  1  0
 11 19  1  0
 11 21  1  0
 12 18  1  0
 12 14  1  0
 13 19  1  0
 14 13  1  0
 15 14  2  0
 16 17  1  0
 16 10  2  0
 17 12  2  0
 18 11  1  0
 19  9  1  0
 21 23  2  0
 22 21  1  0
 24 22  1  0
 25 34  2  0
 25 30  1  0
 26 22  1  0
 26 30  1  0
 27 26  1  0
 28 29  1  0
 28 27  1  0
 29 25  1  0
 30 31  2  0
 31 32  1  0
 33 32  2  0
 34 33  1  0
 35  9  1  0
 35 36  1  0
 35 45  1  0
 36 39  1  0
 37 41  1  0
 37 36  1  0
 38 37  2  0
 41 40  1  0
 43 41  1  0
 43 44  1  0
 43 42  1  0
 45 48  1  1
 45 46  1  0
 47 45  1  0
 49  4  1  0
 49 50  2  0
 51 64  1  0
 52 57  1  0
 53 54  1  0
 53 52  1  0
 55 54  1  0
 55 68  1  0
 55 56  1  0
 57 51  1  0
 57 56  1  0
 58 51  2  0
 59 63  1  0
 61 59  1  0
 61 64  1  0
 62 60  1  0
 63 50  1  0
 63 60  1  0
 64 62  1  0
 65 66  2  0
 66 85  1  0
 67 66  1  0
 67 70  1  0
 68 69  1  0
 68 65  1  0
 69 67  2  0
 70 71  1  0
 71 72  2  0
 73 76  1  0
 73 72  1  0
 74 73  2  0
 75 74  1  0
 75 70  2  0
 76 77  1  0
 77 82  2  0
 77 78  1  0
 78 79  2  0
 79 80  1  0
 80 84  1  0
 81 80  2  0
 82 81  1  0
 83 82  1  0
 85 86  1  0
 86 89  1  0
 86 88  1  0
 87 85  2  0
 90 65  1  0
 90 91  1  0
 92 90  1  0
M  ISO  4   6 101   8 101  51 100  64 100
M  END
>  <TORSDO>  (20) 
F 18

>  <SCORE>  (20) 
-13.399

>  <name>  (20) 
19

>  <ligand_id>  (20) 
19

>  <original_smiles>  (20) 
[H]c1c([H])c([H])c2c(c1[H])C([H])([H])C([H])([H])C([H])([H])C2([H])N([H])C(=O)C1([H])N(C(=O)C([H])(N([H])C(=O)C([H])(N([H])C([H])([H])[H])C([H])([H])[H])C(C([H])([H])[H])(C([H])([H])[H])C([H])([H])[H])C([H])([H])c2c([H])c(Oc3c([H])c(C([H])([H])C([H])([H])C4([H])C([H])([H])C([H])([H])N(C(=O)N5C([H])([H])C([H])([H])C([H])([H])C([H])(n6nc(-c7c([H])c([H])c(Oc8c([H])c([H])c(F)c([H])c8F)c([H])c7[H])c(C(=O)N([H])[H])c6N([H])[H])C5([H])[H])C([H])([H])C4([H])[H])c([H])c([H])c3C([H])([H])[H])c([H])c([H])c2C1([H])[H]

>  <smiles>  (20) 
[H]c1c([H])c([H])c2c(c1[H])C([H])([H])C([H])([H])C([H])([H])C2([H])N([H])C(=O)C1([H])N(C(=O)C([H])(N([H])C(=O)C([H])(N([H])C([H])([H])[H])C([H])([H])[H])C(C([H])([H])[H])(C([H])([H])[H])C([H])([H])[H])C([H])([H])c2c([H])c(Oc3c([H])c(C([H])([H])C([H])([H])C4([H])C([H])([H])C([H])([H])N(C(=O)N5C([H])([H])C([H])([H])C([H])([H])C([H])(n6nc(-c7c([H])c([H])c(Oc8c([H])c([H])c(F)c([H])c8F)c([H])c7[H])c(C(=O)N([H])[H])c6N([H])[H])C5([H])[H])C([H])([H])C4([H])[H])c([H])c([H])c3C([H])([H])[H])c([H])c([H])c2C1([H])[H]

$$$$
20:0:0
     RDKit          3D

 92100  0  0  1  0  0  0  0  0999 V2000
  -30.5150  -20.5060   17.2960 C   0  0  0  0  0  3  0  0  0  0  0  0
  -30.6440  -19.2570   17.9120 C   0  0  0  0  0  3  0  0  0  0  0  0
  -29.9630  -21.5960   17.9900 C   0  0  0  0  0  0  0  0  0  0  0  0
  -30.3320  -19.0650   19.2740 C   0  0  0  0  0  0  0  0  0  0  0  0
  -29.8600  -20.2060   20.0140 C   0  0  0  0  0  0  0  0  0  0  0  0
  -29.5840  -21.4580   19.3530 C   0  0  0  0  0  0  0  0  0  0  0  0
  -29.7780  -22.8890   17.2130 C   0  0  0  0  0  1  0  0  0  0  0  0
  -29.7030  -20.1260   21.5200 C   0  0  0  0  0  1  0  0  0  0  0  0
  -30.5990  -17.6080   19.7610 C   0  0  0  0  0  2  0  0  0  0  0  0
  -29.9210  -16.9840   21.0120 C   0  0  0  0  0  2  0  0  0  0  0  0
  -30.6710  -14.5330   20.5530 C   0  0  0  0  0  0  0  0  0  0  0  0
  -30.4680  -12.3700   19.3680 C   0  0  0  0  0  2  0  0  0  0  0  0
  -29.5380  -12.5730   18.1510 C   0  0  0  0  0  2  0  0  0  0  0  0
  -28.0520  -12.4370   18.5420 C   0  0  0  0  0  2  0  0  0  0  0  0
  -27.6960  -13.2660   19.8070 C   0  0  0  0  0  3  0  0  0  0  0  0
  -28.7170  -12.9870   20.9290 C   0  0  0  0  0  2  0  0  0  0  0  0
  -30.0550  -13.3250   20.4100 N   0  0  0  0  0  0  0  0  0  0  0  0
  -31.8030  -14.7670   20.1180 O   0  0  0  0  0  0  0  0  0  0  0  0
  -29.8570  -15.4970   21.0410 N   0  0  0  0  0  0  0  0  0  0  0  0
  -28.9900  -15.1200   21.4000 H   0  0  0  0  0  0  0  0  0  0  0  0
  -25.2850  -13.9140   20.4400 C   0  0  0  0  0  0  0  0  0  0  0  0
  -24.2010  -13.1550   20.8000 C   0  0  0  0  0  0  0  0  0  0  0  0
  -24.6550  -11.8020   20.7970 C   0  0  0  0  0  0  0  0  0  0  0  0
  -26.3270  -13.0180   20.2510 N   0  0  0  0  0  0  0  0  0  0  0  0
  -25.9500  -11.7470   20.5240 N   0  0  0  0  0  0  0  0  0  0  0  0
  -23.9190  -10.5470   20.9910 C   0  0  0  0  0  0  0  0  0  0  0  0
  -24.3370   -9.5840   21.9380 C   0  0  0  0  0  3  0  0  0  0  0  0
  -23.6030   -8.3880   22.1130 C   0  0  0  0  0  3  0  0  0  0  0  0
  -22.4380   -8.1520   21.3470 C   0  0  0  0  0  0  0  0  0  0  0  0
  -22.0410   -9.1040   20.3900 C   0  0  0  0  0  3  0  0  0  0  0  0
  -22.7730  -10.2900   20.2110 C   0  0  0  0  0  3  0  0  0  0  0  0
  -21.6710   -7.0170   21.4380 O   0  0  0  0  0  0  0  0  0  0  0  0
  -21.6140   -6.2780   22.5910 C   0  0  0  0  0  0  0  0  0  0  0  0
  -21.1860   -6.8380   23.8140 C   0  0  0  0  0  3  0  0  0  0  0  0
  -21.0790   -6.0260   24.9590 C   0  0  0  0  0  3  0  0  0  0  0  0
  -21.3830   -4.6540   24.8820 C   0  0  0  0  0  0  0  0  0  0  0  0
  -21.7970   -4.0940   23.6620 C   0  0  0  0  0  3  0  0  0  0  0  0
  -21.9100   -4.9020   22.5190 C   0  0  0  0  0  0  0  0  0  0  0  0
  -22.2930   -4.3530   21.3410 F   0  0  0  0  0  0  0  0  0  0  0  0
  -21.2710   -3.8680   25.9800 F   0  0  0  0  0  0  0  0  0  0  0  0
  -22.8020  -13.6440   21.0340 C   0  0  0  0  0  0  0  0  0  0  0  0
  -22.0490  -12.9620   21.8930 N   0  0  0  0  0  0  0  0  0  0  0  0
  -22.3820  -14.6670   20.4980 O   0  0  0  0  0  0  0  0  0  0  0  0
  -22.4050  -12.1410   22.3560 H   0  0  0  0  0  0  0  0  0  0  0  0
  -21.1070  -13.2680   22.0920 H   0  0  0  0  0  0  0  0  0  0  0  0
  -25.4710  -15.2750   20.2450 N   0  0  0  0  0  0  0  0  0  0  0  0
  -24.7220  -15.9480   20.3590 H   0  0  0  0  0  0  0  0  0  0  0  0
  -26.3320  -15.6950   19.9150 H   0  0  0  0  0  0  0  0  0  0  0  0
  -28.7260  -22.5850   20.0130 C   0  0  0  0  0  2  0  0  0  0  0  0
  -29.2520  -24.0690   20.1360 C   0  0  0  0  0  2  0  0  0  0  0  0
  -28.1190  -25.1180   19.8550 C   0  0  0  0  0  2  0  0  0  0  0  0
  -28.3470  -26.5420   20.1230 O   0  0  0  0  0  0  0  0  0  0  0  0
  -24.6290  -31.8770   23.2280 C   0  0  0  0  0  0  0  0  0  0  0  0
  -27.2130  -27.3610   20.1060 C   0  0  0  0  0  0  0  0  0  0  0  0
  -23.4130  -30.4940   21.5870 C   0  0  0  0  0  3  0  0  0  0  0  0
  -24.8470  -28.9590   20.1410 C   0  0  0  0  0  0  0  0  0  0  0  0
  -25.9510  -30.8070   21.3940 C   0  0  0  0  0  2  0  0  0  0  0  0
  -26.0210  -29.4390   20.7380 C   0  0  0  0  0  0  0  0  0  0  0  0
  -27.2060  -28.6480   20.7160 C   0  0  0  0  0  3  0  0  0  0  0  0
  -26.0090  -26.9260   19.4950 C   0  0  0  0  0  3  0  0  0  0  0  0
  -24.8440  -27.7060   19.5150 C   0  0  0  0  0  3  0  0  0  0  0  0
  -23.6110  -29.8300   20.2020 C   0  0  0  0  0  2  0  0  0  0  0  0
  -24.6840  -31.0760   22.1260 N   0  0  0  0  0  0  0  0  0  0  0  0
  -23.5460  -32.1550   23.7660 O   0  0  0  0  0  0  0  0  0  0  0  0
  -22.7570  -29.4660   22.5390 C   0  0  0  0  0  0  0  0  0  0  0  0
  -21.4320  -29.2850   22.4080 N   0  0  0  0  0  0  0  0  0  0  0  0
  -23.4350  -28.8410   23.3590 O   0  0  0  0  0  0  0  0  0  0  0  0
  -20.9430  -29.8440   21.7250 H   0  0  0  0  0  0  0  0  0  0  0  0
  -18.0590  -28.0750   22.8920 C   0  0  0  0  0  0  0  0  0  0  0  0
  -20.6140  -28.3430   23.1730 C   0  0  0  0  0  3  0  0  0  0  0  0
  -20.7230  -26.9110   22.5990 C   0  0  0  0  0  2  0  0  0  0  0  0
  -19.6280  -26.5840   21.5790 C   0  0  0  0  0  2  0  0  0  0  0  0
  -18.2430  -26.7250   22.2170 C   0  0  0  0  0  2  0  0  0  0  0  0
  -19.1730  -28.8410   23.3280 C   0  0  0  0  0  0  0  0  0  0  0  0
  -18.9470  -30.1030   23.9200 C   0  0  0  0  0  3  0  0  0  0  0  0
  -17.6400  -30.6020   24.0740 C   0  0  0  0  0  3  0  0  0  0  0  0
  -16.5400  -29.8320   23.6540 C   0  0  0  0  0  3  0  0  0  0  0  0
  -16.7500  -28.5680   23.0740 C   0  0  0  0  0  3  0  0  0  0  0  0
  -25.9160  -32.5030   23.8480 C   0  0  0  0  0  3  0  0  0  0  0  0
  -25.6050  -33.9000   24.1840 N   0  0  0  0  0  0  0  0  0  0  0  0
  -25.9320  -34.9560   23.4280 C   0  0  0  0  0  0  0  0  0  0  0  0
  -26.5930  -34.8550   22.3920 O   0  0  0  0  0  0  0  0  0  0  0  0
  -25.0110  -34.0510   24.9860 H   0  0  0  0  0  0  0  0  0  0  0  0
  -24.1980  -36.7500   23.0950 C   0  0  0  0  0  1  0  0  0  0  0  0
  -25.4460  -36.3430   23.8920 C   0  0  0  0  0  3  0  0  0  0  0  0
  -27.5890  -37.2270   24.7050 C   0  0  0  0  0  1  0  0  0  0  0  0
  -26.4790  -37.3970   23.7730 N   0  0  0  0  0  0  0  0  0  0  0  0
  -26.0740  -38.3170   23.9210 H   0  0  0  0  0  0  0  0  0  0  0  0
  -26.4300  -31.7280   25.1220 C   0  0  1  0  0  0  0  0  0  0  0  0
  -25.3380  -31.4910   26.1910 C   0  0  0  0  0  1  0  0  0  0  0  0
  -27.0070  -30.3490   24.7250 C   0  0  0  0  0  1  0  0  0  0  0  0
  -27.5800  -32.5220   25.7870 C   0  0  0  0  0  1  0  0  0  0  0  0
  1  2  2  0
  1  3  1  0
  2  4  1  0
  3  6  2  0
  4  9  1  0
  4  5  2  0
  5  8  1  0
  6 49  1  0
  6  5  1  0
  7  3  1  0
  9 10  1  0
 10 19  1  0
 11 19  1  0
 12 17  1  0
 13 14  1  0
 13 12  1  0
 15 14  1  0
 15 24  1  0
 15 16  1  0
 17 11  1  0
 17 16  1  0
 18 11  2  0
 19 20  1  0
 21 22  2  0
 22 41  1  0
 23 22  1  0
 23 26  1  0
 24 21  1  0
 24 25  1  0
 25 23  2  0
 26 27  1  0
 27 28  2  0
 29 32  1  0
 29 28  1  0
 30 29  2  0
 31 30  1  0
 31 26  2  0
 32 33  1  0
 33 34  1  0
 34 35  2  0
 36 35  1  0
 36 40  1  0
 37 36  2  0
 38 33  2  0
 38 37  1  0
 39 38  1  0
 41 42  1  0
 42 45  1  0
 42 44  1  0
 43 41  2  0
 46 47  1  0
 46 21  1  0
 48 46  1  0
 49 50  1  0
 51 52  1  0
 51 50  1  0
 53 64  2  0
 54 52  1  0
 54 59  1  0
 55 63  1  0
 55 65  1  0
 56 62  1  0
 56 58  1  0
 57 63  1  0
 58 57  1  0
 59 58  2  0
 60 61  1  0
 60 54  2  0
 61 56  2  0
 62 55  1  0
 63 53  1  0
 65 67  2  0
 66 65  1  0
 68 66  1  0
 69 78  2  0
 69 74  1  0
 70 66  1  0
 70 74  1  0
 71 70  1  0
 72 73  1  0
 72 71  1  0
 73 69  1  0
 74 75  2  0
 75 76  1  0
 77 76  2  0
 78 77  1  0
 79 53  1  0
 79 80  1  0
 79 89  1  0
 80 83  1  0
 81 85  1  0
 81 80  1  0
 82 81  2  0
 85 84  1  0
 87 85  1  0
 87 88  1  0
 87 86  1  0
 89 92  1  1
 89 90  1  0
 91 89  1  0
M  ISO  4  11 100  19 100  51 101  52 101
M  END
>  <TORSDO>  (21) 
F 21

>  <SCORE>  (21) 
-13.388

>  <name>  (21) 
20

>  <ligand_id>  (21) 
20

>  <original_smiles>  (21) 
[H]c1c([H])c([H])c2c(c1[H])C([H])([H])C([H])([H])C([H])([H])C2([H])N([H])C(=O)C1([H])N(C(=O)C([H])(N([H])C(=O)C([H])(N([H])C([H])([H])[H])C([H])([H])[H])C(C([H])([H])[H])(C([H])([H])[H])C([H])([H])[H])C([H])([H])c2c([H])c(OC([H])([H])C([H])([H])C([H])([H])c3c(C([H])([H])[H])c([H])c([H])c(C([H])([H])C([H])([H])N([H])C(=O)N4C([H])([H])C([H])([H])C([H])([H])C([H])(n5nc(-c6c([H])c([H])c(Oc7c([H])c([H])c(F)c([H])c7F)c([H])c6[H])c(C(=O)N([H])[H])c5N([H])[H])C4([H])[H])c3C([H])([H])[H])c([H])c([H])c2C1([H])[H]

>  <smiles>  (21) 
[H]c1c([H])c([H])c2c(c1[H])C([H])([H])C([H])([H])C([H])([H])C2([H])N([H])C(=O)C1([H])N(C(=O)C([H])(N([H])C(=O)C([H])(N([H])C([H])([H])[H])C([H])([H])[H])C(C([H])([H])[H])(C([H])([H])[H])C([H])([H])[H])C([H])([H])c2c([H])c(OC([H])([H])C([H])([H])C([H])([H])c3c(C([H])([H])[H])c([H])c([H])c(C([H])([H])C([H])([H])N([H])C(=O)N4C([H])([H])C([H])([H])C([H])([H])C([H])(n5nc(-c6c([H])c([H])c(Oc7c([H])c([H])c(F)c([H])c7F)c([H])c6[H])c(C(=O)N([H])[H])c5N([H])[H])C4([H])[H])c3C([H])([H])[H])c([H])c([H])c2C1([H])[H]

$$$$
21:0:0
     RDKit          3D

 92100  0  0  1  0  0  0  0  0999 V2000
  -28.3440  -22.8510   18.9580 C   0  0  0  0  0  3  0  0  0  0  0  0
  -28.9670  -24.4710   21.1410 C   0  0  0  0  0  3  0  0  0  0  0  0
  -28.3030  -24.2680   18.8310 C   0  0  0  0  0  0  0  0  0  0  0  0
  -28.6800  -22.2090   20.1740 C   0  0  0  0  0  0  0  0  0  0  0  0
  -28.6110  -25.1190   19.9300 C   0  0  0  0  0  0  0  0  0  0  0  0
  -28.9990  -23.0450   21.2760 C   0  0  0  0  0  0  0  0  0  0  0  0
  -27.8910  -24.8330   17.4870 C   0  0  0  0  0  1  0  0  0  0  0  0
  -30.1400  -23.0880   23.3790 C   0  0  0  0  0  1  0  0  0  0  0  0
  -29.2980  -22.4070   22.4590 O   0  0  0  0  0  0  0  0  0  0  0  0
  -28.6450  -26.5240   19.8210 O   0  0  0  0  0  0  0  0  0  0  0  0
  -24.7440  -31.6310   23.1020 C   0  0  0  0  0  0  0  0  0  0  0  0
  -27.4820  -27.2960   19.8720 C   0  0  0  0  0  0  0  0  0  0  0  0
  -23.5790  -30.2580   21.4130 C   0  0  0  0  0  3  0  0  0  0  0  0
  -25.0700  -28.8110   19.9310 C   0  0  0  0  0  0  0  0  0  0  0  0
  -26.1050  -30.6700   21.2350 C   0  0  0  0  0  2  0  0  0  0  0  0
  -26.2230  -29.3220   20.5400 C   0  0  0  0  0  0  0  0  0  0  0  0
  -27.4360  -28.5760   20.5000 C   0  0  0  0  0  3  0  0  0  0  0  0
  -26.3050  -26.8240   19.2550 C   0  0  0  0  0  3  0  0  0  0  0  0
  -25.1110  -27.5660   19.2810 C   0  0  0  0  0  3  0  0  0  0  0  0
  -23.8090  -29.6440   20.0080 C   0  0  0  0  0  2  0  0  0  0  0  0
  -24.8280  -30.8690   21.9740 N   0  0  0  0  0  0  0  0  0  0  0  0
  -23.6560  -31.8540   23.6510 O   0  0  0  0  0  0  0  0  0  0  0  0
  -22.9560  -29.1830   22.3350 C   0  0  0  0  0  0  0  0  0  0  0  0
  -21.6390  -28.9580   22.1950 N   0  0  0  0  0  0  0  0  0  0  0  0
  -23.6560  -28.5570   23.1370 O   0  0  0  0  0  0  0  0  0  0  0  0
  -21.1330  -29.5190   21.5230 H   0  0  0  0  0  0  0  0  0  0  0  0
  -18.3160  -27.5860   22.5960 C   0  0  0  0  0  0  0  0  0  0  0  0
  -20.8520  -27.9650   22.9300 C   0  0  0  0  0  3  0  0  0  0  0  0
  -21.0370  -26.5530   22.3300 C   0  0  0  0  0  2  0  0  0  0  0  0
  -19.9750  -26.1950   21.2860 C   0  0  0  0  0  2  0  0  0  0  0  0
  -18.5730  -26.2590   21.9020 C   0  0  0  0  0  2  0  0  0  0  0  0
  -19.3870  -28.3940   23.0660 C   0  0  0  0  0  0  0  0  0  0  0  0
  -19.0920  -29.6330   23.6750 C   0  0  0  0  0  3  0  0  0  0  0  0
  -17.7610  -30.0650   23.8240 C   0  0  0  0  0  3  0  0  0  0  0  0
  -16.7060  -29.2550   23.3710 C   0  0  0  0  0  3  0  0  0  0  0  0
  -16.9830  -28.0180   22.7620 C   0  0  0  0  0  3  0  0  0  0  0  0
  -26.0090  -32.2820   23.7440 C   0  0  0  0  0  3  0  0  0  0  0  0
  -25.6500  -33.6490   24.1480 N   0  0  0  0  0  0  0  0  0  0  0  0
  -25.9230  -34.7500   23.4360 C   0  0  0  0  0  0  0  0  0  0  0  0
  -26.5770  -34.7260   22.3910 O   0  0  0  0  0  0  0  0  0  0  0  0
  -25.0650  -33.7370   24.9660 H   0  0  0  0  0  0  0  0  0  0  0  0
  -24.1120  -36.4810   23.2090 C   0  0  0  0  0  1  0  0  0  0  0  0
  -25.3880  -36.0930   23.9720 C   0  0  0  0  0  3  0  0  0  0  0  0
  -27.5020  -37.0300   24.7990 C   0  0  0  0  0  1  0  0  0  0  0  0
  -26.3720  -37.1940   23.8860 N   0  0  0  0  0  0  0  0  0  0  0  0
  -25.9310  -38.0870   24.0860 H   0  0  0  0  0  0  0  0  0  0  0  0
  -26.5690  -31.4670   24.9740 C   0  0  1  0  0  0  0  0  0  0  0  0
  -25.5000  -31.1370   26.0410 C   0  0  0  0  0  1  0  0  0  0  0  0
  -27.1960  -30.1320   24.5080 C   0  0  0  0  0  1  0  0  0  0  0  0
  -27.6980  -32.2690   25.6640 C   0  0  0  0  0  1  0  0  0  0  0  0
  -28.5290  -20.6590   20.3250 C   0  0  0  0  0  2  0  0  0  0  0  0
  -29.7740  -19.6890   20.1880 C   0  0  0  0  0  2  0  0  0  0  0  0
  -29.4250  -18.2140   22.2770 C   0  0  0  0  0  1  0  0  0  0  0  0
  -29.5380  -18.2150   20.7360 C   0  0  0  0  0  3  0  0  0  0  0  0
  -30.5400  -15.7880   20.7030 C   0  0  0  0  0  3  0  0  0  0  0  0
  -30.4640  -17.0650   20.2060 C   0  0  0  0  0  3  0  0  0  0  0  0
  -31.3260  -14.6720   20.1000 C   0  0  0  0  0  0  0  0  0  0  0  0
  -30.9750  -12.5130   18.9060 C   0  0  0  0  0  2  0  0  0  0  0  0
  -29.9710  -12.7580   17.7550 C   0  0  0  0  0  2  0  0  0  0  0  0
  -28.5130  -12.6510   18.2560 C   0  0  0  0  0  2  0  0  0  0  0  0
  -28.2740  -13.4500   19.5660 C   0  0  0  0  0  3  0  0  0  0  0  0
  -29.3760  -13.1220   20.5950 C   0  0  0  0  0  2  0  0  0  0  0  0
  -30.6690  -13.4710   19.9880 N   0  0  0  0  0  0  0  0  0  0  0  0
  -32.4480  -14.8190   19.6040 O   0  0  0  0  0  0  0  0  0  0  0  0
  -25.9690  -14.1450   20.4740 C   0  0  0  0  0  0  0  0  0  0  0  0
  -24.8760  -13.4130   20.8500 C   0  0  0  0  0  0  0  0  0  0  0  0
  -25.2460  -12.0410   20.6940 C   0  0  0  0  0  0  0  0  0  0  0  0
  -26.9380  -13.2210   20.1110 N   0  0  0  0  0  0  0  0  0  0  0  0
  -26.5100  -11.9460   20.3010 N   0  0  0  0  0  0  0  0  0  0  0  0
  -24.4540  -10.8150   20.8440 C   0  0  0  0  0  0  0  0  0  0  0  0
  -24.8390   -9.7900   21.7360 C   0  0  0  0  0  3  0  0  0  0  0  0
  -24.0520   -8.6270   21.8750 C   0  0  0  0  0  3  0  0  0  0  0  0
  -22.8620   -8.4800   21.1210 C   0  0  0  0  0  0  0  0  0  0  0  0
  -22.4930   -9.4950   20.2200 C   0  0  0  0  0  3  0  0  0  0  0  0
  -23.2810  -10.6490   20.0780 C   0  0  0  0  0  3  0  0  0  0  0  0
  -22.0430   -7.3790   21.1730 O   0  0  0  0  0  0  0  0  0  0  0  0
  -21.9090   -6.6360   22.3170 C   0  0  0  0  0  0  0  0  0  0  0  0
  -21.4770   -7.2120   23.5330 C   0  0  0  0  0  3  0  0  0  0  0  0
  -21.2850   -6.3990   24.6680 C   0  0  0  0  0  3  0  0  0  0  0  0
  -21.5140   -5.0120   24.5870 C   0  0  0  0  0  0  0  0  0  0  0  0
  -21.9380   -4.4360   23.3770 C   0  0  0  0  0  3  0  0  0  0  0  0
  -22.1340   -5.2470   22.2450 C   0  0  0  0  0  0  0  0  0  0  0  0
  -22.5220   -4.6860   21.0750 F   0  0  0  0  0  0  0  0  0  0  0  0
  -21.3230   -4.2280   25.6740 F   0  0  0  0  0  0  0  0  0  0  0  0
  -23.5300  -13.9500   21.2400 C   0  0  0  0  0  0  0  0  0  0  0  0
  -22.8230  -13.2600   22.1250 N   0  0  0  0  0  0  0  0  0  0  0  0
  -23.1170  -15.0220   20.7930 O   0  0  0  0  0  0  0  0  0  0  0  0
  -23.1710  -12.4020   22.5220 H   0  0  0  0  0  0  0  0  0  0  0  0
  -21.9160  -13.6030   22.4130 H   0  0  0  0  0  0  0  0  0  0  0  0
  -26.2080  -15.5140   20.3920 N   0  0  0  0  0  0  0  0  0  0  0  0
  -25.4900  -16.1920   20.6240 H   0  0  0  0  0  0  0  0  0  0  0  0
  -27.0750  -15.9430   20.0960 H   0  0  0  0  0  0  0  0  0  0  0  0
  1  4  1  0
  2  6  1  0
  3  1  2  0
  3  5  1  0
  4 51  1  0
  4  6  2  0
  5  2  2  0
  6  9  1  0
  7  3  1  0
  9  8  1  0
 10 12  1  0
 10  5  1  0
 11 22  2  0
 12 17  1  0
 13 21  1  0
 13 23  1  0
 14 20  1  0
 14 16  1  0
 15 21  1  0
 16 15  1  0
 17 16  2  0
 18 19  1  0
 18 12  2  0
 19 14  2  0
 20 13  1  0
 21 11  1  0
 23 25  2  0
 24 23  1  0
 26 24  1  0
 27 36  2  0
 27 32  1  0
 28 24  1  0
 28 32  1  0
 29 28  1  0
 30 31  1  0
 30 29  1  0
 31 27  1  0
 32 33  2  0
 33 34  1  0
 35 34  2  0
 36 35  1  0
 37 11  1  0
 37 38  1  0
 37 47  1  0
 38 41  1  0
 39 43  1  0
 39 38  1  0
 40 39  2  0
 43 42  1  0
 45 43  1  0
 45 46  1  0
 45 44  1  0
 47 50  1  1
 47 48  1  0
 49 47  1  0
 52 51  1  0
 52 54  1  0
 54 53  1  0
 56 55  2  0
 56 54  1  0
 57 55  1  0
 58 63  1  0
 59 60  1  0
 59 58  1  0
 61 60  1  0
 61 68  1  0
 61 62  1  0
 63 57  1  0
 63 62  1  0
 64 57  2  0
 65 66  2  0
 66 85  1  0
 67 70  1  0
 67 66  1  0
 68 69  1  0
 68 65  1  0
 69 67  2  0
 70 71  1  0
 71 72  2  0
 73 76  1  0
 73 72  1  0
 74 73  2  0
 75 74  1  0
 75 70  2  0
 76 77  1  0
 77 78  1  0
 78 79  2  0
 80 79  1  0
 80 84  1  0
 81 80  2  0
 82 77  2  0
 82 81  1  0
 83 82  1  0
 85 86  1  0
 86 89  1  0
 86 88  1  0
 87 85  2  0
 90 65  1  0
 90 91  1  0
 92 90  1  0
M  ISO  4   5 101  10 101  55 100  57 100
M  END
>  <TORSDO>  (22) 
F 21

>  <SCORE>  (22) 
-11.010

>  <name>  (22) 
21

>  <ligand_id>  (22) 
21

>  <original_smiles>  (22) 
[H]C(C(=O)N1C([H])([H])C([H])([H])C([H])([H])C([H])(n2nc(-c3c([H])c([H])c(Oc4c([H])c([H])c(F)c([H])c4F)c([H])c3[H])c(C(=O)N([H])[H])c2N([H])[H])C1([H])[H])=C([H])C([H])(C([H])([H])[H])C([H])([H])C([H])([H])c1c([H])c(C([H])([H])[H])c(Oc2c([H])c([H])c3c(c2[H])C([H])([H])N(C(=O)C([H])(N([H])C(=O)C([H])(N([H])C([H])([H])[H])C([H])([H])[H])C(C([H])([H])[H])(C([H])([H])[H])C([H])([H])[H])C([H])(C(=O)N([H])C2([H])c4c([H])c([H])c([H])c([H])c4C([H])([H])C([H])([H])C2([H])[H])C3([H])[H])c([H])c1OC([H])([H])[H]

>  <smiles>  (22) 
[H]C(C(=O)N1C([H])([H])C([H])([H])C([H])([H])C([H])(n2nc(-c3c([H])c([H])c(Oc4c([H])c([H])c(F)c([H])c4F)c([H])c3[H])c(C(=O)N([H])[H])c2N([H])[H])C1([H])[H])=C([H])C([H])(C([H])([H])[H])C([H])([H])C([H])([H])c1c([H])c(C([H])([H])[H])c(Oc2c([H])c([H])c3c(c2[H])C([H])([H])N(C(=O)C([H])(N([H])C(=O)C([H])(N([H])C([H])([H])[H])C([H])([H])[H])C(C([H])([H])[H])(C([H])([H])[H])C([H])([H])[H])C([H])(C(=O)N([H])C2([H])c4c([H])c([H])c([H])c([H])c4C([H])([H])C([H])([H])C2([H])[H])C3([H])[H])c([H])c1OC([H])([H])[H]

$$$$
22:0:0
     RDKit          3D

 91 99  0  0  1  0  0  0  0  0999 V2000
  -29.1070  -22.7350   21.4570 C   0  0  0  0  0  3  0  0  0  0  0  0
  -28.1220  -23.9650   19.1870 C   0  0  0  0  0  3  0  0  0  0  0  0
  -28.9750  -21.8460   20.3380 C   0  0  0  0  0  0  0  0  0  0  0  0
  -28.8080  -24.1580   21.4390 C   0  0  0  0  0  0  0  0  0  0  0  0
  -28.4290  -22.5390   19.1990 C   0  0  0  0  0  0  0  0  0  0  0  0
  -28.3180  -24.8660   20.2890 C   0  0  0  0  0  0  0  0  0  0  0  0
  -29.1160  -24.9690   22.6840 C   0  0  0  0  0  1  0  0  0  0  0  0
  -28.2390  -21.7690   17.9050 C   0  0  0  0  0  1  0  0  0  0  0  0
  -28.2990  -26.3260   20.2080 O   0  0  0  0  0  0  0  0  0  0  0  0
  -24.6360  -31.9220   23.2400 C   0  0  0  0  0  0  0  0  0  0  0  0
  -27.1850  -27.2220   20.2100 C   0  0  0  0  0  0  0  0  0  0  0  0
  -23.4180  -30.5240   21.6100 C   0  0  0  0  0  3  0  0  0  0  0  0
  -24.8500  -28.9360   20.1850 C   0  0  0  0  0  0  0  0  0  0  0  0
  -25.9660  -30.7900   21.4260 C   0  0  0  0  0  2  0  0  0  0  0  0
  -26.0290  -29.3960   20.7850 C   0  0  0  0  0  0  0  0  0  0  0  0
  -27.1950  -28.5520   20.7810 C   0  0  0  0  0  3  0  0  0  0  0  0
  -25.9830  -26.8440   19.5790 C   0  0  0  0  0  3  0  0  0  0  0  0
  -24.8370  -27.6710   19.5700 C   0  0  0  0  0  3  0  0  0  0  0  0
  -23.6250  -29.8330   20.2340 C   0  0  0  0  0  2  0  0  0  0  0  0
  -24.6940  -31.1000   22.1470 N   0  0  0  0  0  0  0  0  0  0  0  0
  -23.5560  -32.2110   23.7750 O   0  0  0  0  0  0  0  0  0  0  0  0
  -22.7450  -29.5240   22.5810 C   0  0  0  0  0  0  0  0  0  0  0  0
  -21.4180  -29.3540   22.4590 N   0  0  0  0  0  0  0  0  0  0  0  0
  -23.4190  -28.9010   23.4060 O   0  0  0  0  0  0  0  0  0  0  0  0
  -20.9300  -29.9080   21.7660 H   0  0  0  0  0  0  0  0  0  0  0  0
  -18.0360  -28.1640   22.9700 C   0  0  0  0  0  0  0  0  0  0  0  0
  -20.5950  -28.4230   23.2360 C   0  0  0  0  0  3  0  0  0  0  0  0
  -20.6940  -26.9870   22.6710 C   0  0  0  0  0  2  0  0  0  0  0  0
  -19.5920  -26.6600   21.6580 C   0  0  0  0  0  2  0  0  0  0  0  0
  -18.2120  -26.8100   22.3030 C   0  0  0  0  0  2  0  0  0  0  0  0
  -19.1560  -28.9280   23.3950 C   0  0  0  0  0  0  0  0  0  0  0  0
  -18.9370  -30.1940   23.9800 C   0  0  0  0  0  3  0  0  0  0  0  0
  -17.6330  -30.6960   24.1460 C   0  0  0  0  0  3  0  0  0  0  0  0
  -16.5280  -29.9290   23.7380 C   0  0  0  0  0  3  0  0  0  0  0  0
  -16.7300  -28.6640   23.1560 C   0  0  0  0  0  3  0  0  0  0  0  0
  -25.9240  -32.5510   23.8560 C   0  0  0  0  0  3  0  0  0  0  0  0
  -25.6160  -33.9490   24.2000 N   0  0  0  0  0  0  0  0  0  0  0  0
  -25.9250  -35.0070   23.4390 C   0  0  0  0  0  0  0  0  0  0  0  0
  -26.5640  -34.9130   22.3880 O   0  0  0  0  0  0  0  0  0  0  0  0
  -25.0440  -34.0960   25.0170 H   0  0  0  0  0  0  0  0  0  0  0  0
  -24.1710  -36.7920   23.1660 C   0  0  0  0  0  1  0  0  0  0  0  0
  -25.4490  -36.3930   23.9210 C   0  0  0  0  0  3  0  0  0  0  0  0
  -27.6140  -37.2890   24.6570 C   0  0  0  0  0  1  0  0  0  0  0  0
  -26.4680  -37.4560   23.7670 N   0  0  0  0  0  0  0  0  0  0  0  0
  -26.0610  -38.3700   23.9440 H   0  0  0  0  0  0  0  0  0  0  0  0
  -26.4470  -31.7770   25.1280 C   0  0  1  0  0  0  0  0  0  0  0  0
  -25.3620  -31.5400   26.2040 C   0  0  0  0  0  1  0  0  0  0  0  0
  -27.0270  -30.3980   24.7340 C   0  0  0  0  0  1  0  0  0  0  0  0
  -27.6020  -32.5690   25.7840 C   0  0  0  0  0  1  0  0  0  0  0  0
  -29.7030  -20.3640   20.3030 C   0  0  0  0  0  3  0  0  0  0  0  0
  -29.1030  -18.8090   20.4500 C   0  0  0  0  0  3  0  0  0  0  0  0
  -30.5260  -14.9500   20.3200 C   0  0  0  0  0  0  0  0  0  0  0  0
  -30.3840  -12.6140   19.3760 C   0  0  0  0  0  2  0  0  0  0  0  0
  -29.4510  -12.5840   18.1440 C   0  0  0  0  0  2  0  0  0  0  0  0
  -27.9870  -12.3810   18.5770 C   0  0  0  0  0  2  0  0  0  0  0  0
  -27.5840  -13.3010   19.7600 C   0  0  0  0  0  3  0  0  0  0  0  0
  -28.6400  -13.3060   20.8850 C   0  0  0  0  0  2  0  0  0  0  0  0
  -29.9140  -13.7040   20.2740 N   0  0  0  0  0  0  0  0  0  0  0  0
  -31.7320  -14.9790   20.0510 O   0  0  0  0  0  0  0  0  0  0  0  0
  -30.1160  -17.5090   20.3700 C   0  0  0  0  0  0  0  0  0  0  0  0
  -29.7550  -16.1380   20.4560 N   0  0  0  0  0  0  0  0  0  0  0  0
  -31.3030  -17.8130   20.2170 O   0  0  0  0  0  0  0  0  0  0  0  0
  -28.7730  -15.9770   20.6080 H   0  0  0  0  0  0  0  0  0  0  0  0
  -25.2020  -13.8700   20.4990 C   0  0  0  0  0  0  0  0  0  0  0  0
  -24.1420  -13.0880   20.8710 C   0  0  0  0  0  0  0  0  0  0  0  0
  -24.6140  -11.7400   20.8380 C   0  0  0  0  0  0  0  0  0  0  0  0
  -26.2490  -12.9970   20.2580 N   0  0  0  0  0  0  0  0  0  0  0  0
  -25.9050  -11.7120   20.5290 N   0  0  0  0  0  0  0  0  0  0  0  0
  -23.8940  -10.4740   21.0260 C   0  0  0  0  0  0  0  0  0  0  0  0
  -24.3260   -9.5070   21.9600 C   0  0  0  0  0  3  0  0  0  0  0  0
  -23.6040   -8.3070   22.1350 C   0  0  0  0  0  3  0  0  0  0  0  0
  -22.4360   -8.0650   21.3740 C   0  0  0  0  0  0  0  0  0  0  0  0
  -22.0230   -9.0200   20.4280 C   0  0  0  0  0  3  0  0  0  0  0  0
  -22.7460  -10.2120   20.2510 C   0  0  0  0  0  3  0  0  0  0  0  0
  -21.6830   -6.9170   21.4590 O   0  0  0  0  0  0  0  0  0  0  0  0
  -21.6270   -6.1780   22.6140 C   0  0  0  0  0  0  0  0  0  0  0  0
  -21.1780   -6.7330   23.8320 C   0  0  0  0  0  3  0  0  0  0  0  0
  -21.0700   -5.9200   24.9790 C   0  0  0  0  0  3  0  0  0  0  0  0
  -21.4000   -4.5530   24.9060 C   0  0  0  0  0  0  0  0  0  0  0  0
  -21.8420   -3.9980   23.6920 C   0  0  0  0  0  3  0  0  0  0  0  0
  -21.9530   -4.8090   22.5490 C   0  0  0  0  0  0  0  0  0  0  0  0
  -22.3580   -4.2630   21.3770 F   0  0  0  0  0  0  0  0  0  0  0  0
  -21.2890   -3.7700   26.0050 F   0  0  0  0  0  0  0  0  0  0  0  0
  -22.7420  -13.5590   21.1390 C   0  0  0  0  0  0  0  0  0  0  0  0
  -22.0170  -12.8610   22.0050 N   0  0  0  0  0  0  0  0  0  0  0  0
  -22.3010  -14.5810   20.6150 O   0  0  0  0  0  0  0  0  0  0  0  0
  -22.3880  -12.0350   22.4510 H   0  0  0  0  0  0  0  0  0  0  0  0
  -21.0770  -13.1580   22.2260 H   0  0  0  0  0  0  0  0  0  0  0  0
  -25.3570  -15.2410   20.3170 N   0  0  0  0  0  0  0  0  0  0  0  0
  -24.5810  -15.8850   20.4180 H   0  0  0  0  0  0  0  0  0  0  0  0
  -26.1770  -15.6760   19.9160 H   0  0  0  0  0  0  0  0  0  0  0  0
  2  5  2  0
  2  6  1  0
  3  1  2  0
  4  1  1  0
  4  7  1  0
  5  3  1  0
  6  4  2  0
  8  5  1  0
  9 11  1  0
  9  6  1  0
 10 21  2  0
 11 16  1  0
 12 20  1  0
 12 22  1  0
 13 19  1  0
 13 15  1  0
 14 20  1  0
 15 14  1  0
 16 15  2  0
 17 11  2  0
 18 17  1  0
 18 13  2  0
 19 12  1  0
 20 10  1  0
 22 24  2  0
 23 22  1  0
 25 23  1  0
 26 35  2  0
 26 31  1  0
 27 23  1  0
 27 31  1  0
 28 27  1  0
 29 30  1  0
 29 28  1  0
 30 26  1  0
 31 32  2  0
 32 33  1  0
 34 33  2  0
 35 34  1  0
 36 10  1  0
 36 37  1  0
 36 46  1  0
 37 40  1  0
 38 42  1  0
 38 37  1  0
 39 38  2  0
 42 41  1  0
 44 42  1  0
 44 45  1  0
 44 43  1  0
 46 49  1  1
 46 47  1  0
 48 46  1  0
 50  3  1  0
 50 51  2  0
 52 61  1  0
 53 58  1  0
 54 55  1  0
 54 53  1  0
 56 55  1  0
 56 67  1  0
 56 57  1  0
 58 52  1  0
 58 57  1  0
 59 52  2  0
 60 51  1  0
 60 61  1  0
 61 63  1  0
 62 60  2  0
 64 65  2  0
 65 84  1  0
 66 65  1  0
 66 69  1  0
 67 64  1  0
 67 68  1  0
 68 66  2  0
 69 70  1  0
 70 71  2  0
 72 75  1  0
 72 71  1  0
 73 72  2  0
 74 73  1  0
 74 69  2  0
 75 76  1  0
 76 77  1  0
 77 78  2  0
 79 78  1  0
 79 83  1  0
 80 79  2  0
 81 76  2  0
 81 80  1  0
 82 81  1  0
 84 85  1  0
 85 88  1  0
 85 87  1  0
 86 84  2  0
 89 90  1  0
 89 64  1  0
 91 89  1  0
M  ISO  4   6 101   9 101  52 100  61 100
M  END
>  <TORSDO>  (23) 
F 18

>  <SCORE>  (23) 
-14.733

>  <name>  (23) 
22

>  <ligand_id>  (23) 
22

>  <original_smiles>  (23) 
[H]c1c([H])c([H])c2c(c1[H])C([H])([H])C([H])([H])C([H])([H])C2([H])N([H])C(=O)C1([H])N(C(=O)C([H])(N([H])C(=O)C([H])(N([H])C([H])([H])[H])C([H])([H])[H])C(C([H])([H])[H])(C([H])([H])[H])C([H])([H])[H])C([H])([H])c2c([H])c(Oc3c([H])c(C([H])([H])[H])c(C([H])([H])C([H])([H])C(=O)N([H])C(=O)N4C([H])([H])C([H])([H])C([H])([H])C([H])(n5nc(-c6c([H])c([H])c(Oc7c([H])c([H])c(F)c([H])c7F)c([H])c6[H])c(C(=O)N([H])[H])c5N([H])[H])C4([H])[H])c([H])c3C([H])([H])[H])c([H])c([H])c2C1([H])[H]

>  <smiles>  (23) 
[H]c1c([H])c([H])c2c(c1[H])C([H])([H])C([H])([H])C([H])([H])C2([H])N([H])C(=O)C1([H])N(C(=O)C([H])(N([H])C(=O)C([H])(N([H])C([H])([H])[H])C([H])([H])[H])C(C([H])([H])[H])(C([H])([H])[H])C([H])([H])[H])C([H])([H])c2c([H])c(Oc3c([H])c(C([H])([H])[H])c(C([H])([H])C([H])([H])C(=O)N([H])C(=O)N4C([H])([H])C([H])([H])C([H])([H])C([H])(n5nc(-c6c([H])c([H])c(Oc7c([H])c([H])c(F)c([H])c7F)c([H])c6[H])c(C(=O)N([H])[H])c5N([H])[H])C4([H])[H])c([H])c3C([H])([H])[H])c([H])c([H])c2C1([H])[H]

$$$$
23:0:0
     RDKit          3D

 96104  0  0  1  0  0  0  0  0999 V2000
  -29.9350  -20.4010   20.1640 C   0  0  0  0  0  3  0  0  0  0  0  0
  -29.0970  -21.2460   21.1860 C   0  0  0  0  0  0  0  0  0  0  0  0
  -28.6050  -22.4640   20.8250 N   0  0  0  0  0  0  0  0  0  0  0  0
  -28.9220  -20.8110   22.3250 O   0  0  0  0  0  0  0  0  0  0  0  0
  -28.7710  -22.7540   19.8700 H   0  0  0  0  0  0  0  0  0  0  0  0
  -28.0010  -23.4920   21.7340 C   0  0  0  0  0  2  0  0  0  0  0  0
  -27.0510  -24.5500   21.0540 C   0  0  0  0  0  2  0  0  0  0  0  0
  -27.3440  -25.9650   21.2800 O   0  0  0  0  0  0  0  0  0  0  0  0
  -27.6390  -31.9690   25.1700 C   0  0  0  0  0  0  0  0  0  0  0  0
  -26.7210  -26.7350   22.2610 C   0  0  0  0  0  0  0  0  0  0  0  0
  -25.9730  -30.2930   25.8990 C   0  0  0  0  0  3  0  0  0  0  0  0
  -25.5350  -28.3740   24.2700 C   0  0  0  0  0  0  0  0  0  0  0  0
  -26.6790  -30.4360   23.4420 C   0  0  0  0  0  2  0  0  0  0  0  0
  -26.4010  -28.9440   23.3310 C   0  0  0  0  0  0  0  0  0  0  0  0
  -26.9870  -28.1310   22.3240 C   0  0  0  0  0  3  0  0  0  0  0  0
  -25.8390  -26.1900   23.2200 C   0  0  0  0  0  3  0  0  0  0  0  0
  -25.2500  -26.9980   24.2150 C   0  0  0  0  0  3  0  0  0  0  0  0
  -24.9390  -29.2950   25.3140 C   0  0  0  0  0  2  0  0  0  0  0  0
  -26.8200  -30.9280   24.8370 N   0  0  0  0  0  0  0  0  0  0  0  0
  -27.6680  -32.4210   26.3230 O   0  0  0  0  0  0  0  0  0  0  0  0
  -26.8010  -29.5700   26.9860 C   0  0  0  0  0  0  0  0  0  0  0  0
  -26.3590  -29.6790   28.2490 N   0  0  0  0  0  0  0  0  0  0  0  0
  -27.7950  -28.9030   26.6850 O   0  0  0  0  0  0  0  0  0  0  0  0
  -25.5360  -30.2410   28.4130 H   0  0  0  0  0  0  0  0  0  0  0  0
  -26.2430  -29.5420   31.8600 C   0  0  0  0  0  0  0  0  0  0  0  0
  -26.9560  -29.0480   29.4260 C   0  0  0  0  0  3  0  0  0  0  0  0
  -26.3740  -27.6340   29.6490 C   0  0  0  0  0  2  0  0  0  0  0  0
  -25.1780  -27.6190   30.6070 C   0  0  0  0  0  2  0  0  0  0  0  0
  -25.5760  -28.1820   31.9750 C   0  0  0  0  0  2  0  0  0  0  0  0
  -26.8770  -29.9550   30.6580 C   0  0  0  0  0  0  0  0  0  0  0  0
  -27.4550  -31.2410   30.5940 C   0  0  0  0  0  3  0  0  0  0  0  0
  -27.4090  -32.1070   31.7020 C   0  0  0  0  0  3  0  0  0  0  0  0
  -26.7910  -31.6900   32.8940 C   0  0  0  0  0  3  0  0  0  0  0  0
  -26.2130  -30.4100   32.9720 C   0  0  0  0  0  3  0  0  0  0  0  0
  -28.5610  -32.6540   24.1110 C   0  0  0  0  0  3  0  0  0  0  0  0
  -28.6200  -34.0860   24.4390 N   0  0  0  0  0  0  0  0  0  0  0  0
  -27.9460  -35.0440   23.7870 C   0  0  0  0  0  0  0  0  0  0  0  0
  -27.2580  -34.8170   22.7890 O   0  0  0  0  0  0  0  0  0  0  0  0
  -29.1150  -34.3360   25.2820 H   0  0  0  0  0  0  0  0  0  0  0  0
  -26.7780  -36.8440   25.1000 C   0  0  0  0  0  1  0  0  0  0  0  0
  -28.0560  -36.4820   24.3270 C   0  0  0  0  0  3  0  0  0  0  0  0
  -29.6270  -37.3910   22.6720 C   0  0  0  0  0  1  0  0  0  0  0  0
  -28.2990  -37.4910   23.2720 N   0  0  0  0  0  0  0  0  0  0  0  0
  -28.1870  -38.4330   23.6390 H   0  0  0  0  0  0  0  0  0  0  0  0
  -30.0120  -32.0360   24.0580 C   0  0  1  0  0  0  0  0  0  0  0  0
  -30.7050  -31.9610   25.4380 C   0  0  0  0  0  1  0  0  0  0  0  0
  -29.9790  -30.6060   23.4680 C   0  0  0  0  0  1  0  0  0  0  0  0
  -30.9070  -32.8770   23.1170 C   0  0  0  0  0  1  0  0  0  0  0  0
  -30.0400  -18.8360   20.4120 C   0  0  0  0  0  3  0  0  0  0  0  0
  -30.6500  -17.9180   19.2580 C   0  0  0  0  0  2  0  0  0  0  0  0
  -34.4230  -18.4820   19.8660 C   0  0  0  0  0  3  0  0  0  0  0  0
  -32.8310  -16.5200   18.5700 C   0  0  0  0  0  0  0  0  0  0  0  0
  -35.0440  -17.3840   19.2640 C   0  0  0  0  0  0  0  0  0  0  0  0
  -34.2680  -16.4430   18.5500 C   0  0  0  0  0  0  0  0  0  0  0  0
  -32.1960  -17.6610   19.2180 C   0  0  0  0  0  0  0  0  0  0  0  0
  -33.0270  -18.6680   19.7900 C   0  0  0  0  0  0  0  0  0  0  0  0
  -36.5600  -17.2710   19.3610 C   0  0  0  0  0  1  0  0  0  0  0  0
  -35.0250  -15.3860   17.7340 C   0  0  0  0  0  1  0  0  0  0  0  0
  -32.0640  -15.4600   17.7730 C   0  0  0  0  0  0  0  0  0  0  0  0
  -31.9980  -13.2020   16.7160 C   0  0  0  0  0  2  0  0  0  0  0  0
  -31.2000  -12.1760   17.5390 C   0  0  0  0  0  2  0  0  0  0  0  0
  -32.0960  -11.5150   18.6000 C   0  0  0  0  0  2  0  0  0  0  0  0
  -32.8940  -12.5580   19.4260 C   0  0  0  0  0  3  0  0  0  0  0  0
  -33.5930  -13.5830   18.5100 C   0  0  0  0  0  2  0  0  0  0  0  0
  -32.5760  -14.1980   17.6380 N   0  0  0  0  0  0  0  0  0  0  0  0
  -31.0590  -15.8200   17.1520 O   0  0  0  0  0  0  0  0  0  0  0  0
  -33.9430  -12.0390   21.7150 C   0  0  0  0  0  0  0  0  0  0  0  0
  -34.9310  -11.1710   22.0950 C   0  0  0  0  0  0  0  0  0  0  0  0
  -35.3880  -10.5450   20.8960 C   0  0  0  0  0  0  0  0  0  0  0  0
  -33.8360  -11.9150   20.3390 N   0  0  0  0  0  0  0  0  0  0  0  0
  -34.7540  -11.0470   19.8440 N   0  0  0  0  0  0  0  0  0  0  0  0
  -36.3490   -9.4530   20.6950 C   0  0  0  0  0  0  0  0  0  0  0  0
  -37.4690   -9.6010   19.8460 C   0  0  0  0  0  3  0  0  0  0  0  0
  -38.3880   -8.5420   19.6830 C   0  0  0  0  0  3  0  0  0  0  0  0
  -38.1950   -7.3200   20.3730 C   0  0  0  0  0  0  0  0  0  0  0  0
  -37.0670   -7.1710   21.1990 C   0  0  0  0  0  3  0  0  0  0  0  0
  -36.1500   -8.2240   21.3560 C   0  0  0  0  0  3  0  0  0  0  0  0
  -39.0210   -6.2300   20.2540 O   0  0  0  0  0  0  0  0  0  0  0  0
  -40.3610   -6.3650   19.9920 C   0  0  0  0  0  0  0  0  0  0  0  0
  -41.2040   -7.1490   20.8090 C   0  0  0  0  0  3  0  0  0  0  0  0
  -42.5880   -7.2050   20.5440 C   0  0  0  0  0  3  0  0  0  0  0  0
  -43.1310   -6.4710   19.4730 C   0  0  0  0  0  0  0  0  0  0  0  0
  -42.2940   -5.6860   18.6620 C   0  0  0  0  0  3  0  0  0  0  0  0
  -40.9130   -5.6310   18.9220 C   0  0  0  0  0  0  0  0  0  0  0  0
  -40.1140   -4.8550   18.1510 F   0  0  0  0  0  0  0  0  0  0  0  0
  -44.4600   -6.5190   19.2230 F   0  0  0  0  0  0  0  0  0  0  0  0
  -35.3630  -10.8700   23.5000 C   0  0  0  0  0  0  0  0  0  0  0  0
  -36.6350  -10.5450   23.6980 N   0  0  0  0  0  0  0  0  0  0  0  0
  -34.5800  -10.9700   24.4440 O   0  0  0  0  0  0  0  0  0  0  0  0
  -37.2860  -10.4860   22.9300 H   0  0  0  0  0  0  0  0  0  0  0  0
  -36.9610  -10.3600   24.6360 H   0  0  0  0  0  0  0  0  0  0  0  0
  -33.1140  -12.9080   22.4200 N   0  0  0  0  0  0  0  0  0  0  0  0
  -33.1160  -12.9630   23.4320 H   0  0  0  0  0  0  0  0  0  0  0  0
  -32.4210  -13.5080   21.9910 H   0  0  0  0  0  0  0  0  0  0  0  0
  -33.2510  -20.9990   20.3820 C   0  0  0  0  0  1  0  0  0  0  0  0
  -32.4450  -19.8310   20.2510 O   0  0  0  0  0  0  0  0  0  0  0  0
  1 49  2  0
  1  2  1  0
  2  4  2  0
  3  2  1  0
  3  6  1  0
  5  3  1  0
  7  8  1  0
  7  6  1  0
  8 10  1  0
  9 20  2  0
 10 15  2  0
 10 16  1  0
 11 21  1  0
 12 18  1  0
 13 19  1  0
 14 13  1  0
 14 12  2  0
 15 14  1  0
 16 17  2  0
 17 12  1  0
 18 11  1  0
 19  9  1  0
 19 11  1  0
 21 22  1  0
 22 24  1  0
 23 21  2  0
 25 29  1  0
 25 34  1  0
 26 22  1  0
 26 27  1  0
 26 30  1  0
 27 28  1  0
 28 29  1  0
 30 25  2  0
 31 30  1  0
 31 32  2  0
 32 33  1  0
 33 34  2  0
 35 36  1  0
 35  9  1  0
 36 39  1  0
 37 41  1  0
 37 36  1  0
 38 37  2  0
 41 40  1  0
 42 43  1  0
 43 44  1  0
 43 41  1  0
 45 35  1  0
 45 46  1  1
 47 45  1  0
 48 45  1  0
 50 49  1  0
 52 55  1  0
 53 57  1  0
 53 51  2  0
 54 52  2  0
 54 53  1  0
 55 50  1  0
 55 56  2  0
 56 51  1  0
 56 96  1  0
 58 54  1  0
 59 52  1  0
 60 61  1  0
 60 65  1  0
 61 62  1  0
 62 63  1  0
 63 64  1  0
 63 70  1  0
 65 59  1  0
 65 64  1  0
 66 59  2  0
 67 68  2  0
 67 92  1  0
 68 87  1  0
 69 68  1  0
 70 67  1  0
 71 70  1  0
 71 69  2  0
 72 69  1  0
 72 77  1  0
 73 72  2  0
 74 73  1  0
 74 75  2  0
 75 76  1  0
 76 77  2  0
 78 75  1  0
 79 78  1  0
 79 80  1  0
 81 80  2  0
 82 81  1  0
 83 84  1  0
 83 82  2  0
 84 79  2  0
 85 84  1  0
 86 82  1  0
 87 88  1  0
 87 89  2  0
 88 91  1  0
 90 88  1  0
 92 93  1  0
 94 92  1  0
 96 95  1  0
M  ISO  4   7 101   8 101  52 100  59 100
M  END
>  <TORSDO>  (24) 
F 23

>  <SCORE>  (24) 
-3.888

>  <name>  (24) 
23

>  <ligand_id>  (24) 
23

>  <original_smiles>  (24) 
[H]c1c([H])c([H])c2c(c1[H])C([H])([H])C([H])([H])C([H])([H])C2([H])N([H])C(=O)C1([H])N(C(=O)C([H])(N([H])C(=O)C([H])(N([H])C([H])([H])[H])C([H])([H])[H])C(C([H])([H])[H])(C([H])([H])[H])C([H])([H])[H])C([H])([H])c2c([H])c(OC([H])([H])C([H])([H])N([H])C(=O)C([H])([H])C([H])([H])C([H])([H])c3c(OC([H])([H])[H])c([H])c(C([H])([H])[H])c(C([H])([H])[H])c3C(=O)N3C([H])([H])C([H])([H])C([H])([H])C([H])(n4nc(-c5c([H])c([H])c(Oc6c([H])c([H])c(F)c([H])c6F)c([H])c5[H])c(C(=O)N([H])[H])c4N([H])[H])C3([H])[H])c([H])c([H])c2C1([H])[H]

>  <smiles>  (24) 
[H]c1c([H])c([H])c2c(c1[H])C([H])([H])C([H])([H])C([H])([H])C2([H])N([H])C(=O)C1([H])N(C(=O)C([H])(N([H])C(=O)C([H])(N([H])C([H])([H])[H])C([H])([H])[H])C(C([H])([H])[H])(C([H])([H])[H])C([H])([H])[H])C([H])([H])c2c([H])c(OC([H])([H])C([H])([H])N([H])C(=O)C([H])([H])C([H])([H])C([H])([H])c3c(OC([H])([H])[H])c([H])c(C([H])([H])[H])c(C([H])([H])[H])c3C(=O)N3C([H])([H])C([H])([H])C([H])([H])C([H])(n4nc(-c5c([H])c([H])c(Oc6c([H])c([H])c(F)c([H])c6F)c([H])c5[H])c(C(=O)N([H])[H])c4N([H])[H])C3([H])[H])c([H])c([H])c2C1([H])[H]

$$$$
24:0:0
     RDKit          3D

 90 98  0  0  1  0  0  0  0  0999 V2000
  -27.9630  -22.5190   19.5300 C   0  0  0  0  0  3  0  0  0  0  0  0
  -27.6470  -23.9270   19.5470 C   0  0  0  0  0  3  0  0  0  0  0  0
  -29.1530  -21.9600   20.0840 C   0  0  0  0  0  0  0  0  0  0  0  0
  -29.6280  -24.3580   20.7800 C   0  0  0  0  0  0  0  0  0  0  0  0
  -28.4690  -24.9330   20.1560 C   0  0  0  0  0  0  0  0  0  0  0  0
  -29.9760  -22.9470   20.7140 C   0  0  0  0  0  0  0  0  0  0  0  0
  -30.5590  -25.3130   21.5150 C   0  0  0  0  0  1  0  0  0  0  0  0
  -32.2880  -22.7720   20.3750 C   0  0  0  0  0  1  0  0  0  0  0  0
  -31.1750  -22.5150   21.2250 O   0  0  0  0  0  0  0  0  0  0  0  0
  -28.3470  -26.3810   20.0580 O   0  0  0  0  0  0  0  0  0  0  0  0
  -24.6550  -31.8640   23.1940 C   0  0  0  0  0  0  0  0  0  0  0  0
  -27.2030  -27.2300   20.0900 C   0  0  0  0  0  0  0  0  0  0  0  0
  -23.4270  -30.4750   21.5650 C   0  0  0  0  0  3  0  0  0  0  0  0
  -24.8520  -28.9150   20.1170 C   0  0  0  0  0  0  0  0  0  0  0  0
  -25.9700  -30.7610   21.3590 C   0  0  0  0  0  2  0  0  0  0  0  0
  -26.0350  -29.3750   20.7100 C   0  0  0  0  0  0  0  0  0  0  0  0
  -27.2050  -28.5430   20.6890 C   0  0  0  0  0  3  0  0  0  0  0  0
  -26.0000  -26.8650   19.4480 C   0  0  0  0  0  3  0  0  0  0  0  0
  -24.8430  -27.6690   19.4740 C   0  0  0  0  0  3  0  0  0  0  0  0
  -23.6240  -29.8040   20.1810 C   0  0  0  0  0  2  0  0  0  0  0  0
  -24.7040  -31.0540   22.0940 N   0  0  0  0  0  0  0  0  0  0  0  0
  -23.5780  -32.1420   23.7430 O   0  0  0  0  0  0  0  0  0  0  0  0
  -22.7720  -29.4580   22.5310 C   0  0  0  0  0  0  0  0  0  0  0  0
  -21.4420  -29.2850   22.4230 N   0  0  0  0  0  0  0  0  0  0  0  0
  -23.4580  -28.8270   23.3390 O   0  0  0  0  0  0  0  0  0  0  0  0
  -20.9430  -29.8470   21.7460 H   0  0  0  0  0  0  0  0  0  0  0  0
  -18.0730  -28.0730   22.9540 C   0  0  0  0  0  0  0  0  0  0  0  0
  -20.6330  -28.3450   23.2010 C   0  0  0  0  0  3  0  0  0  0  0  0
  -20.7350  -26.9130   22.6270 C   0  0  0  0  0  2  0  0  0  0  0  0
  -19.6260  -26.5840   21.6210 C   0  0  0  0  0  2  0  0  0  0  0  0
  -18.2490  -26.7230   22.2770 C   0  0  0  0  0  2  0  0  0  0  0  0
  -19.1930  -28.8410   23.3740 C   0  0  0  0  0  0  0  0  0  0  0  0
  -18.9730  -30.1020   23.9690 C   0  0  0  0  0  3  0  0  0  0  0  0
  -17.6670  -30.5970   24.1450 C   0  0  0  0  0  3  0  0  0  0  0  0
  -16.5620  -29.8270   23.7410 C   0  0  0  0  0  3  0  0  0  0  0  0
  -16.7670  -28.5660   23.1530 C   0  0  0  0  0  3  0  0  0  0  0  0
  -25.9460  -32.4930   23.8010 C   0  0  0  0  0  3  0  0  0  0  0  0
  -25.6350  -33.8840   24.1620 N   0  0  0  0  0  0  0  0  0  0  0  0
  -25.9410  -34.9530   23.4160 C   0  0  0  0  0  0  0  0  0  0  0  0
  -26.5830  -34.8720   22.3650 O   0  0  0  0  0  0  0  0  0  0  0  0
  -25.0580  -34.0200   24.9800 H   0  0  0  0  0  0  0  0  0  0  0  0
  -24.1940  -36.7440   23.1450 C   0  0  0  0  0  1  0  0  0  0  0  0
  -25.4610  -36.3310   23.9120 C   0  0  0  0  0  3  0  0  0  0  0  0
  -27.6140  -37.2120   24.6940 C   0  0  0  0  0  1  0  0  0  0  0  0
  -26.4830  -37.3930   23.7890 N   0  0  0  0  0  0  0  0  0  0  0  0
  -26.0770  -38.3060   23.9680 H   0  0  0  0  0  0  0  0  0  0  0  0
  -26.4890  -31.7030   25.0550 C   0  0  1  0  0  0  0  0  0  0  0  0
  -25.4190  -31.4470   26.1430 C   0  0  0  0  0  1  0  0  0  0  0  0
  -27.0670  -30.3310   24.6350 C   0  0  0  0  0  1  0  0  0  0  0  0
  -27.6520  -32.4890   25.7050 C   0  0  0  0  0  1  0  0  0  0  0  0
  -29.6510  -20.4530   19.7420 C   0  0  0  0  0  3  0  0  0  0  0  0
  -29.4770  -19.0940   20.6350 C   0  0  0  0  0  3  0  0  0  0  0  0
  -30.1270  -17.6690   20.1150 C   0  0  0  0  0  3  0  0  0  0  0  0
  -29.8180  -16.2070   20.8030 C   0  0  0  0  0  3  0  0  0  0  0  0
  -30.5820  -14.8370   20.3690 C   0  0  0  0  0  0  0  0  0  0  0  0
  -30.4130  -12.5310   19.3690 C   0  0  0  0  0  2  0  0  0  0  0  0
  -29.4860  -12.5860   18.1320 C   0  0  0  0  0  2  0  0  0  0  0  0
  -28.0110  -12.4100   18.5440 C   0  0  0  0  0  2  0  0  0  0  0  0
  -27.6230  -13.3010   19.7520 C   0  0  0  0  0  3  0  0  0  0  0  0
  -28.6710  -13.2340   20.8850 C   0  0  0  0  0  2  0  0  0  0  0  0
  -29.9750  -13.5940   20.3100 N   0  0  0  0  0  0  0  0  0  0  0  0
  -31.7530  -14.9300   19.9860 O   0  0  0  0  0  0  0  0  0  0  0  0
  -25.2280  -13.8960   20.4480 C   0  0  0  0  0  0  0  0  0  0  0  0
  -24.1580  -13.1270   20.8140 C   0  0  0  0  0  0  0  0  0  0  0  0
  -24.6220  -11.7750   20.8080 C   0  0  0  0  0  0  0  0  0  0  0  0
  -26.2750  -13.0150   20.2340 N   0  0  0  0  0  0  0  0  0  0  0  0
  -25.9180  -11.7340   20.5140 N   0  0  0  0  0  0  0  0  0  0  0  0
  -23.8950  -10.5160   21.0060 C   0  0  0  0  0  0  0  0  0  0  0  0
  -24.3240   -9.5530   21.9470 C   0  0  0  0  0  3  0  0  0  0  0  0
  -23.5940   -8.3590   22.1330 C   0  0  0  0  0  3  0  0  0  0  0  0
  -22.4210   -8.1200   21.3780 C   0  0  0  0  0  0  0  0  0  0  0  0
  -22.0120   -9.0710   20.4260 C   0  0  0  0  0  3  0  0  0  0  0  0
  -22.7410  -10.2560   20.2390 C   0  0  0  0  0  3  0  0  0  0  0  0
  -21.6610   -6.9790   21.4730 O   0  0  0  0  0  0  0  0  0  0  0  0
  -21.6180   -6.2370   22.6260 C   0  0  0  0  0  0  0  0  0  0  0  0
  -21.2180   -6.7970   23.8580 C   0  0  0  0  0  3  0  0  0  0  0  0
  -21.1220   -5.9820   25.0030 C   0  0  0  0  0  3  0  0  0  0  0  0
  -21.4160   -4.6080   24.9180 C   0  0  0  0  0  0  0  0  0  0  0  0
  -21.8100   -4.0480   23.6900 C   0  0  0  0  0  3  0  0  0  0  0  0
  -21.9090   -4.8590   22.5460 C   0  0  0  0  0  0  0  0  0  0  0  0
  -22.2670   -4.3100   21.3600 F   0  0  0  0  0  0  0  0  0  0  0  0
  -21.3170   -3.8220   26.0150 F   0  0  0  0  0  0  0  0  0  0  0  0
  -22.7570  -13.6060   21.0620 C   0  0  0  0  0  0  0  0  0  0  0  0
  -22.0210  -12.9220   21.9290 N   0  0  0  0  0  0  0  0  0  0  0  0
  -22.3230  -14.6230   20.5210 O   0  0  0  0  0  0  0  0  0  0  0  0
  -22.3860  -12.1020   22.3890 H   0  0  0  0  0  0  0  0  0  0  0  0
  -21.0790  -13.2200   22.1360 H   0  0  0  0  0  0  0  0  0  0  0  0
  -25.3940  -15.2650   20.2530 N   0  0  0  0  0  0  0  0  0  0  0  0
  -24.6290  -15.9240   20.3530 H   0  0  0  0  0  0  0  0  0  0  0  0
  -26.2540  -15.6990   19.9410 H   0  0  0  0  0  0  0  0  0  0  0  0
  1  2  2  0
  1  3  1  0
  2  5  1  0
  3  6  2  0
  4  7  1  0
  5  4  2  0
  6  4  1  0
  6  9  1  0
  8  9  1  0
 10 12  1  0
 10  5  1  0
 11 22  2  0
 12 17  1  0
 13 21  1  0
 13 23  1  0
 14 20  1  0
 14 16  1  0
 15 21  1  0
 16 15  1  0
 17 16  2  0
 18 19  1  0
 18 12  2  0
 19 14  2  0
 20 13  1  0
 21 11  1  0
 23 25  2  0
 24 23  1  0
 26 24  1  0
 27 36  2  0
 27 32  1  0
 28 24  1  0
 28 32  1  0
 29 28  1  0
 30 31  1  0
 30 29  1  0
 31 27  1  0
 32 33  2  0
 33 34  1  0
 35 34  2  0
 36 35  1  0
 37 11  1  0
 37 38  1  0
 37 47  1  0
 38 41  1  0
 39 43  1  0
 39 38  1  0
 40 39  2  0
 43 42  1  0
 45 43  1  0
 45 46  1  0
 45 44  1  0
 47 50  1  1
 47 48  1  0
 49 47  1  0
 51  3  1  0
 51 52  2  0
 53 52  1  0
 53 54  2  0
 55 54  1  0
 56 61  1  0
 57 58  1  0
 57 56  1  0
 59 58  1  0
 59 66  1  0
 59 60  1  0
 61 55  1  0
 61 60  1  0
 62 55  2  0
 63 64  2  0
 64 83  1  0
 65 64  1  0
 65 68  1  0
 66 63  1  0
 66 67  1  0
 67 65  2  0
 68 69  1  0
 69 70  2  0
 71 74  1  0
 71 70  1  0
 72 71  2  0
 73 72  1  0
 73 68  2  0
 74 75  1  0
 75 76  1  0
 76 77  2  0
 78 77  1  0
 78 82  1  0
 79 78  2  0
 80 75  2  0
 80 79  1  0
 81 80  1  0
 83 84  1  0
 84 87  1  0
 84 86  1  0
 85 83  2  0
 88 89  1  0
 88 63  1  0
 90 88  1  0
M  ISO  4   5 101  10 101  54 100  55 100
M  END
>  <TORSDO>  (25) 
F 21

>  <SCORE>  (25) 
-13.345

>  <name>  (25) 
24

>  <ligand_id>  (25) 
24

>  <original_smiles>  (25) 
[H]c1c([H])c([H])c2c(c1[H])C([H])([H])C([H])([H])C([H])([H])C2([H])N([H])C(=O)C1([H])N(C(=O)C([H])(N([H])C(=O)C([H])(N([H])C([H])([H])[H])C([H])([H])[H])C(C([H])([H])[H])(C([H])([H])[H])C([H])([H])[H])C([H])([H])c2c([H])c(Oc3c([H])c([H])c(C([H])([H])C([H])([H])C([H])([H])C([H])([H])C(=O)N4C([H])([H])C([H])([H])C([H])([H])C([H])(n5nc(-c6c([H])c([H])c(Oc7c([H])c([H])c(F)c([H])c7F)c([H])c6[H])c(C(=O)N([H])[H])c5N([H])[H])C4([H])[H])c(OC([H])([H])[H])c3C([H])([H])[H])c([H])c([H])c2C1([H])[H]

>  <smiles>  (25) 
[H]c1c([H])c([H])c2c(c1[H])C([H])([H])C([H])([H])C([H])([H])C2([H])N([H])C(=O)C1([H])N(C(=O)C([H])(N([H])C(=O)C([H])(N([H])C([H])([H])[H])C([H])([H])[H])C(C([H])([H])[H])(C([H])([H])[H])C([H])([H])[H])C([H])([H])c2c([H])c(Oc3c([H])c([H])c(C([H])([H])C([H])([H])C([H])([H])C([H])([H])C(=O)N4C([H])([H])C([H])([H])C([H])([H])C([H])(n5nc(-c6c([H])c([H])c(Oc7c([H])c([H])c(F)c([H])c7F)c([H])c6[H])c(C(=O)N([H])[H])c5N([H])[H])C4([H])[H])c(OC([H])([H])[H])c3C([H])([H])[H])c([H])c([H])c2C1([H])[H]

$$$$
25:0:0
     RDKit          3D

 90 98  0  0  1  0  0  0  0  0999 V2000
  -28.5060  -22.0640   18.6250 C   0  0  0  0  0  3  0  0  0  0  0  0
  -28.2180  -23.2170   17.8590 C   0  0  0  0  0  3  0  0  0  0  0  0
  -28.6320  -23.5250   20.5570 C   0  0  0  0  0  3  0  0  0  0  0  0
  -28.7670  -22.1340   20.0060 C   0  0  0  0  0  0  0  0  0  0  0  0
  -28.1490  -24.5220   18.4050 C   0  0  0  0  0  0  0  0  0  0  0  0
  -28.2880  -24.7720   19.7960 C   0  0  0  0  0  0  0  0  0  0  0  0
  -27.9950  -25.5620   17.5320 O   0  0  0  0  0  0  0  0  0  0  0  0
  -27.9640  -25.2870   16.6230 H   0  0  0  0  0  0  0  0  0  0  0  0
  -28.2650  -26.1870   20.2450 O   0  0  0  0  0  0  0  0  0  0  0  0
  -24.6240  -31.8910   23.2330 C   0  0  0  0  0  0  0  0  0  0  0  0
  -27.1870  -27.1590   20.1750 C   0  0  0  0  0  0  0  0  0  0  0  0
  -23.4120  -30.4920   21.6080 C   0  0  0  0  0  3  0  0  0  0  0  0
  -24.8470  -28.9140   20.1720 C   0  0  0  0  0  0  0  0  0  0  0  0
  -25.9660  -30.7550   21.4180 C   0  0  0  0  0  2  0  0  0  0  0  0
  -26.0350  -29.3610   20.7640 C   0  0  0  0  0  0  0  0  0  0  0  0
  -27.2010  -28.5010   20.7470 C   0  0  0  0  0  3  0  0  0  0  0  0
  -25.9570  -26.8100   19.5710 C   0  0  0  0  0  3  0  0  0  0  0  0
  -24.8220  -27.6500   19.5620 C   0  0  0  0  0  3  0  0  0  0  0  0
  -23.6220  -29.8130   20.2280 C   0  0  0  0  0  2  0  0  0  0  0  0
  -24.6890  -31.0680   22.1410 N   0  0  0  0  0  0  0  0  0  0  0  0
  -23.5430  -32.1760   23.7700 O   0  0  0  0  0  0  0  0  0  0  0  0
  -22.7440  -29.4850   22.5780 C   0  0  0  0  0  0  0  0  0  0  0  0
  -21.4160  -29.3040   22.4580 N   0  0  0  0  0  0  0  0  0  0  0  0
  -23.4220  -28.8690   23.4040 O   0  0  0  0  0  0  0  0  0  0  0  0
  -20.9250  -29.8530   21.7670 H   0  0  0  0  0  0  0  0  0  0  0  0
  -18.0480  -28.0610   22.9590 C   0  0  0  0  0  0  0  0  0  0  0  0
  -20.6030  -28.3650   23.2360 C   0  0  0  0  0  3  0  0  0  0  0  0
  -20.7270  -26.9270   22.6820 C   0  0  0  0  0  2  0  0  0  0  0  0
  -19.6350  -26.5750   21.6660 C   0  0  0  0  0  2  0  0  0  0  0  0
  -18.2480  -26.7070   22.3010 C   0  0  0  0  0  2  0  0  0  0  0  0
  -19.1530  -28.8470   23.3830 C   0  0  0  0  0  0  0  0  0  0  0  0
  -18.9110  -30.1120   23.9610 C   0  0  0  0  0  3  0  0  0  0  0  0
  -17.5970  -30.5930   24.1170 C   0  0  0  0  0  3  0  0  0  0  0  0
  -16.5070  -29.8050   23.7080 C   0  0  0  0  0  3  0  0  0  0  0  0
  -16.7340  -28.5410   23.1350 C   0  0  0  0  0  3  0  0  0  0  0  0
  -25.9050  -32.5320   23.8490 C   0  0  0  0  0  3  0  0  0  0  0  0
  -26.4220  -31.7730   25.1320 C   0  0  1  0  0  0  0  0  0  0  0  0
  -25.3310  -31.5460   26.2070 C   0  0  0  0  0  1  0  0  0  0  0  0
  -27.0020  -30.3900   24.7580 C   0  0  0  0  0  1  0  0  0  0  0  0
  -27.5760  -32.5710   25.7840 C   0  0  0  0  0  1  0  0  0  0  0  0
  -25.5940  -33.9340   24.1730 N   0  0  0  0  0  0  0  0  0  0  0  0
  -25.9310  -34.9870   23.4180 C   0  0  0  0  0  0  0  0  0  0  0  0
  -26.6030  -34.8810   22.3880 O   0  0  0  0  0  0  0  0  0  0  0  0
  -24.9970  -34.0900   24.9730 H   0  0  0  0  0  0  0  0  0  0  0  0
  -24.2220  -36.7990   23.0550 C   0  0  0  0  0  1  0  0  0  0  0  0
  -25.4520  -36.3790   23.8750 C   0  0  0  0  0  3  0  0  0  0  0  0
  -27.5820  -37.2500   24.7340 C   0  0  0  0  0  1  0  0  0  0  0  0
  -26.4940  -37.4250   23.7760 N   0  0  0  0  0  0  0  0  0  0  0  0
  -26.0920  -38.3480   23.9140 H   0  0  0  0  0  0  0  0  0  0  0  0
  -29.2710  -20.7290   20.7480 C   0  0  0  0  0  2  0  0  0  0  0  0
  -29.1150  -19.1140   20.2060 C   0  0  0  0  0  3  0  0  0  0  0  0
  -30.0020  -17.7660   20.7630 C   0  0  0  0  0  3  0  0  0  0  0  0
  -30.4620  -15.0330   20.4420 C   0  0  0  0  0  0  0  0  0  0  0  0
  -30.3930  -12.6760   19.4870 C   0  0  0  0  0  2  0  0  0  0  0  0
  -29.4850  -12.6100   18.2380 C   0  0  0  0  0  2  0  0  0  0  0  0
  -28.0170  -12.3780   18.6450 C   0  0  0  0  0  2  0  0  0  0  0  0
  -27.5740  -13.3000   19.8080 C   0  0  0  0  0  3  0  0  0  0  0  0
  -28.6060  -13.3320   20.9550 C   0  0  0  0  0  2  0  0  0  0  0  0
  -29.8780  -13.7680   20.3650 N   0  0  0  0  0  0  0  0  0  0  0  0
  -31.6760  -15.1000   20.2220 O   0  0  0  0  0  0  0  0  0  0  0  0
  -29.6710  -16.2180   20.5660 N   0  0  0  0  0  0  0  0  0  0  0  0
  -28.6880  -16.0060   20.6510 H   0  0  0  0  0  0  0  0  0  0  0  0
  -25.1680  -13.8500   20.4810 C   0  0  0  0  0  0  0  0  0  0  0  0
  -24.1060  -13.0620   20.8320 C   0  0  0  0  0  0  0  0  0  0  0  0
  -24.5940  -11.7190   20.8330 C   0  0  0  0  0  0  0  0  0  0  0  0
  -26.2300  -12.9850   20.2800 N   0  0  0  0  0  0  0  0  0  0  0  0
  -25.8930  -11.6990   20.5580 N   0  0  0  0  0  0  0  0  0  0  0  0
  -23.8830  -10.4470   21.0190 C   0  0  0  0  0  0  0  0  0  0  0  0
  -24.2980   -9.5030   21.9830 C   0  0  0  0  0  3  0  0  0  0  0  0
  -23.5840   -8.2970   22.1580 C   0  0  0  0  0  3  0  0  0  0  0  0
  -22.4420   -8.0270   21.3680 C   0  0  0  0  0  0  0  0  0  0  0  0
  -22.0470   -8.9610   20.3930 C   0  0  0  0  0  3  0  0  0  0  0  0
  -22.7610  -10.1570   20.2170 C   0  0  0  0  0  3  0  0  0  0  0  0
  -21.7020   -6.8720   21.4490 O   0  0  0  0  0  0  0  0  0  0  0  0
  -21.6130   -6.1560   22.6160 C   0  0  0  0  0  0  0  0  0  0  0  0
  -21.1090   -6.7260   23.8050 C   0  0  0  0  0  3  0  0  0  0  0  0
  -20.9710   -5.9350   24.9620 C   0  0  0  0  0  3  0  0  0  0  0  0
  -21.3260   -4.5730   24.9310 C   0  0  0  0  0  0  0  0  0  0  0  0
  -21.8240   -4.0020   23.7470 C   0  0  0  0  0  3  0  0  0  0  0  0
  -21.9640   -4.7910   22.5920 C   0  0  0  0  0  0  0  0  0  0  0  0
  -22.4240   -4.2300   21.4480 F   0  0  0  0  0  0  0  0  0  0  0  0
  -21.1860   -3.8110   26.0410 F   0  0  0  0  0  0  0  0  0  0  0  0
  -22.6950  -13.5200   21.0560 C   0  0  0  0  0  0  0  0  0  0  0  0
  -21.9520  -12.8190   21.9040 N   0  0  0  0  0  0  0  0  0  0  0  0
  -22.2590  -14.5340   20.5140 O   0  0  0  0  0  0  0  0  0  0  0  0
  -22.3180  -11.9980   22.3650 H   0  0  0  0  0  0  0  0  0  0  0  0
  -21.0030  -13.1070   22.0990 H   0  0  0  0  0  0  0  0  0  0  0  0
  -25.3150  -15.2200   20.2860 N   0  0  0  0  0  0  0  0  0  0  0  0
  -24.5360  -15.8650   20.3620 H   0  0  0  0  0  0  0  0  0  0  0  0
  -26.1560  -15.6590   19.9360 H   0  0  0  0  0  0  0  0  0  0  0  0
  1  4  1  0
  2  5  1  0
  2  1  2  0
  4  3  2  0
  4 50  1  0
  5  6  2  0
  6  9  1  0
  6  3  1  0
  7  5  1  0
  8  7  1  0
 10 21  2  0
 11  9  1  0
 11 16  1  0
 12 20  1  0
 12 22  1  0
 13 19  1  0
 13 15  1  0
 14 20  1  0
 15 14  1  0
 16 15  2  0
 17 11  2  0
 18 17  1  0
 18 13  2  0
 19 12  1  0
 20 10  1  0
 22 24  2  0
 23 22  1  0
 25 23  1  0
 26 35  2  0
 26 31  1  0
 27 23  1  0
 27 31  1  0
 28 27  1  0
 29 30  1  0
 29 28  1  0
 30 26  1  0
 31 32  2  0
 32 33  1  0
 34 33  2  0
 35 34  1  0
 36 10  1  0
 36 41  1  0
 36 37  1  0
 37 40  1  1
 37 38  1  0
 39 37  1  0
 41 44  1  0
 42 46  1  0
 42 41  1  0
 43 42  2  0
 46 45  1  0
 48 46  1  0
 48 49  1  0
 48 47  1  0
 51 50  1  0
 51 52  2  0
 53 61  1  0
 54 59  1  0
 55 56  1  0
 55 54  1  0
 57 56  1  0
 57 66  1  0
 57 58  1  0
 59 53  1  0
 59 58  1  0
 60 53  2  0
 61 62  1  0
 61 52  1  0
 63 64  2  0
 64 65  1  0
 64 83  1  0
 65 68  1  0
 66 63  1  0
 66 67  1  0
 67 65  2  0
 68 69  1  0
 69 70  2  0
 71 74  1  0
 71 70  1  0
 72 71  2  0
 73 72  1  0
 73 68  2  0
 74 75  1  0
 75 76  1  0
 76 77  2  0
 78 77  1  0
 78 82  1  0
 79 78  2  0
 80 75  2  0
 80 79  1  0
 81 80  1  0
 83 84  1  0
 84 87  1  0
 84 86  1  0
 85 83  2  0
 88 89  1  0
 88 63  1  0
 90 88  1  0
M  ISO  4   6 101   9 101  53 100  61 100
M  END
>  <TORSDO>  (26) 
F 20

>  <SCORE>  (26) 
-15.043

>  <name>  (26) 
25

>  <ligand_id>  (26) 
25

>  <original_smiles>  (26) 
[H]Oc1c([H])c([H])c(C([H])([H])C([H])([H])C([H])([H])N([H])C(=O)N2C([H])([H])C([H])([H])C([H])([H])C([H])(n3nc(-c4c([H])c([H])c(Oc5c([H])c([H])c(F)c([H])c5F)c([H])c4[H])c(C(=O)N([H])[H])c3N([H])[H])C2([H])[H])c([H])c1Oc1c([H])c([H])c2c(c1[H])C([H])([H])N(C(=O)C([H])(N([H])C(=O)C([H])(N([H])C([H])([H])[H])C([H])([H])[H])C(C([H])([H])[H])(C([H])([H])[H])C([H])([H])[H])C([H])(C(=O)N([H])C1([H])c3c([H])c([H])c([H])c([H])c3C([H])([H])C([H])([H])C1([H])[H])C2([H])[H]

>  <smiles>  (26) 
[H]Oc1c([H])c([H])c(C([H])([H])C([H])([H])C([H])([H])N([H])C(=O)N2C([H])([H])C([H])([H])C([H])([H])C([H])(n3nc(-c4c([H])c([H])c(Oc5c([H])c([H])c(F)c([H])c5F)c([H])c4[H])c(C(=O)N([H])[H])c3N([H])[H])C2([H])[H])c([H])c1Oc1c([H])c([H])c2c(c1[H])C([H])([H])N(C(=O)C([H])(N([H])C(=O)C([H])(N([H])C([H])([H])[H])C([H])([H])[H])C(C([H])([H])[H])(C([H])([H])[H])C([H])([H])[H])C([H])(C(=O)N([H])C1([H])c3c([H])c([H])c([H])c([H])c3C([H])([H])C([H])([H])C1([H])[H])C2([H])[H]

$$$$
26:0:0
     RDKit          3D

 94101  0  0  1  0  0  0  0  0999 V2000
  -29.6410  -23.0770   23.3520 C   0  0  0  0  0  2  0  0  0  0  0  0
  -28.4250  -22.7180   22.4760 C   0  0  0  0  0  2  0  0  0  0  0  0
  -28.2790  -23.6400   21.3260 N   0  0  0  0  0  4  0  0  0  0  0  0
  -29.0080  -23.4380   20.6590 H   0  0  0  0  0  0  0  0  0  0  0  0
  -28.4240  -24.5830   21.6580 H   0  0  0  0  0  0  0  0  0  0  0  0
  -26.9570  -23.5700   20.6590 C   0  0  0  0  0  2  0  0  0  0  0  0
  -26.8510  -24.4710   19.4140 C   0  0  0  0  0  2  0  0  0  0  0  0
  -25.4760  -24.6310   19.0640 O   0  0  0  0  0  0  0  0  0  0  0  0
  -24.7620  -28.8390   24.7550 C   0  0  0  0  0  0  0  0  0  0  0  0
  -24.8560  -25.7110   19.6380 C   0  0  0  0  0  0  0  0  0  0  0  0
  -23.1010  -29.1720   22.9500 C   0  0  0  0  0  3  0  0  0  0  0  0
  -23.6040  -27.9790   20.7500 C   0  0  0  0  0  0  0  0  0  0  0  0
  -25.4410  -28.2890   22.4220 C   0  0  0  0  0  2  0  0  0  0  0  0
  -24.8250  -27.5290   21.2680 C   0  0  0  0  0  0  0  0  0  0  0  0
  -25.4560  -26.3930   20.7180 C   0  0  0  0  0  3  0  0  0  0  0  0
  -23.6320  -26.1720   19.1150 C   0  0  0  0  0  3  0  0  0  0  0  0
  -23.0000  -27.3020   19.6750 C   0  0  0  0  0  3  0  0  0  0  0  0
  -23.0010  -29.2060   21.4010 C   0  0  0  0  0  2  0  0  0  0  0  0
  -24.4550  -28.7420   23.4300 N   0  0  0  0  0  0  0  0  0  0  0  0
  -23.9600  -29.3220   25.5660 O   0  0  0  0  0  0  0  0  0  0  0  0
  -21.9490  -28.2980   23.4980 C   0  0  0  0  0  0  0  0  0  0  0  0
  -20.7020  -28.7020   23.2080 N   0  0  0  0  0  0  0  0  0  0  0  0
  -22.1850  -27.2690   24.1380 O   0  0  0  0  0  0  0  0  0  0  0  0
  -20.5940  -29.5580   22.6850 H   0  0  0  0  0  0  0  0  0  0  0  0
  -17.1360  -28.6140   22.6380 C   0  0  0  0  0  0  0  0  0  0  0  0
  -19.4670  -28.0140   23.5830 C   0  0  0  0  0  3  0  0  0  0  0  0
  -19.3200  -26.6780   22.8200 C   0  0  0  0  0  2  0  0  0  0  0  0
  -18.5140  -26.8090   21.5230 C   0  0  0  0  0  2  0  0  0  0  0  0
  -17.1080  -27.3380   21.8130 C   0  0  0  0  0  2  0  0  0  0  0  0
  -18.2510  -28.9380   23.4560 C   0  0  0  0  0  0  0  0  0  0  0  0
  -18.2420  -30.1550   24.1740 C   0  0  0  0  0  3  0  0  0  0  0  0
  -17.1480  -31.0360   24.0850 C   0  0  0  0  0  3  0  0  0  0  0  0
  -16.0410  -30.7030   23.2860 C   0  0  0  0  0  3  0  0  0  0  0  0
  -16.0330  -29.4920   22.5690 C   0  0  0  0  0  3  0  0  0  0  0  0
  -26.1440  -28.3710   25.3090 C   0  0  0  0  0  3  0  0  0  0  0  0
  -26.2530  -26.8060   25.4730 C   0  0  1  0  0  0  0  0  0  0  0  0
  -25.0670  -26.1760   26.2430 C   0  0  0  0  0  1  0  0  0  0  0  0
  -26.3370  -26.1190   24.0890 C   0  0  0  0  0  1  0  0  0  0  0  0
  -27.5580  -26.4440   26.2230 C   0  0  0  0  0  1  0  0  0  0  0  0
  -26.3530  -29.0430   26.5980 N   0  0  0  0  0  0  0  0  0  0  0  0
  -27.3750  -29.8660   26.8670 C   0  0  0  0  0  0  0  0  0  0  0  0
  -28.2900  -30.0820   26.0680 O   0  0  0  0  0  0  0  0  0  0  0  0
  -25.6150  -28.9540   27.2800 H   0  0  0  0  0  0  0  0  0  0  0  0
  -27.0600  -32.0550   28.0680 C   0  0  0  0  0  1  0  0  0  0  0  0
  -27.3800  -30.5620   28.2430 C   0  0  0  0  0  3  0  0  0  0  0  0
  -28.8960  -29.0420   29.4320 C   0  0  0  0  0  1  0  0  0  0  0  0
  -28.6550  -30.4090   28.9770 N   0  0  0  0  0  0  0  0  0  0  0  0
  -28.6800  -31.0220   29.7870 H   0  0  0  0  0  0  0  0  0  0  0  0
  -30.3630  -21.8470   23.9310 C   0  0  0  0  0  2  0  0  0  0  0  0
  -31.8900  -22.0120   23.9920 C   0  0  0  0  0  2  0  0  0  0  0  0
  -32.6080  -20.6610   24.1750 C   0  0  0  0  0  2  0  0  0  0  0  0
  -33.6770  -20.3600   23.1100 C   0  0  0  0  0  2  0  0  0  0  0  0
  -33.2040  -20.2940   21.6350 C   0  0  0  0  0  2  0  0  0  0  0  0
  -32.4500  -19.0210   21.1650 C   0  0  0  0  0  2  0  0  0  0  0  0
  -30.9060  -19.1500   21.1470 C   0  0  0  0  0  2  0  0  0  0  0  0
  -30.1790  -18.6140   19.8890 C   0  0  0  0  0  2  0  0  0  0  0  0
  -30.5380  -16.1930   19.3290 C   0  0  0  0  0  0  0  0  0  0  0  0
  -30.8530  -13.7400   19.2070 C   0  0  0  0  0  2  0  0  0  0  0  0
  -30.0090  -13.0750   18.1040 C   0  0  0  0  0  2  0  0  0  0  0  0
  -28.5870  -12.7630   18.6070 C   0  0  0  0  0  2  0  0  0  0  0  0
  -27.9230  -13.9820   19.2990 C   0  0  0  0  0  3  0  0  0  0  0  0
  -28.8740  -14.5980   20.3470 C   0  0  0  0  0  2  0  0  0  0  0  0
  -30.1460  -14.9400   19.6820 N   0  0  0  0  0  0  0  0  0  0  0  0
  -31.4730  -16.4170   18.5510 O   0  0  0  0  0  0  0  0  0  0  0  0
  -29.8810  -17.1830   19.9610 N   0  0  0  0  0  0  0  0  0  0  0  0
  -29.1410  -16.8990   20.5830 H   0  0  0  0  0  0  0  0  0  0  0  0
  -25.5820  -14.4520   20.2700 C   0  0  0  0  0  0  0  0  0  0  0  0
  -24.5900  -13.6190   20.7060 C   0  0  0  0  0  0  0  0  0  0  0  0
  -25.0950  -12.2900   20.5580 C   0  0  0  0  0  0  0  0  0  0  0  0
  -26.6320  -13.6280   19.8890 N   0  0  0  0  0  0  0  0  0  0  0  0
  -26.3470  -12.3210   20.1150 N   0  0  0  0  0  0  0  0  0  0  0  0
  -24.4420  -10.9910   20.7580 C   0  0  0  0  0  0  0  0  0  0  0  0
  -24.8490  -10.1100   21.7850 C   0  0  0  0  0  3  0  0  0  0  0  0
  -24.1930   -8.8740   21.9690 C   0  0  0  0  0  3  0  0  0  0  0  0
  -23.1170   -8.5080   21.1250 C   0  0  0  0  0  0  0  0  0  0  0  0
  -22.7300   -9.3790   20.0920 C   0  0  0  0  0  3  0  0  0  0  0  0
  -23.3860  -10.6070   19.9070 C   0  0  0  0  0  3  0  0  0  0  0  0
  -22.4390   -7.3160   21.2130 O   0  0  0  0  0  0  0  0  0  0  0  0
  -22.0160   -6.8150   22.4180 C   0  0  0  0  0  0  0  0  0  0  0  0
  -21.2190   -7.5740   23.3020 C   0  0  0  0  0  3  0  0  0  0  0  0
  -20.7480   -6.9960   24.4980 C   0  0  0  0  0  3  0  0  0  0  0  0
  -21.0650   -5.6600   24.8070 C   0  0  0  0  0  0  0  0  0  0  0  0
  -21.8560   -4.9010   23.9260 C   0  0  0  0  0  3  0  0  0  0  0  0
  -22.3280   -5.4770   22.7330 C   0  0  0  0  0  0  0  0  0  0  0  0
  -23.0700   -4.7350   21.8760 F   0  0  0  0  0  0  0  0  0  0  0  0
  -20.6080   -5.1010   25.9520 F   0  0  0  0  0  0  0  0  0  0  0  0
  -23.2120  -14.0210   21.1470 C   0  0  0  0  0  0  0  0  0  0  0  0
  -22.6320  -13.2910   22.0950 N   0  0  0  0  0  0  0  0  0  0  0  0
  -22.6590  -15.0190   20.6850 O   0  0  0  0  0  0  0  0  0  0  0  0
  -23.0930  -12.4850   22.4900 H   0  0  0  0  0  0  0  0  0  0  0  0
  -21.7120  -13.5430   22.4280 H   0  0  0  0  0  0  0  0  0  0  0  0
  -25.6760  -15.8360   20.1480 N   0  0  0  0  0  0  0  0  0  0  0  0
  -24.8990  -16.4490   20.3670 H   0  0  0  0  0  0  0  0  0  0  0  0
  -26.4800  -16.3270   19.7800 H   0  0  0  0  0  0  0  0  0  0  0  0
  1 49  1  0
  2  1  1  0
  3  5  1  0
  3  2  1  0
  4  3  1  0
  6  3  1  0
  7  6  1  0
  8  7  1  0
  8 10  1  0
  9 20  2  0
 10 15  1  0
 11 19  1  0
 11 21  1  0
 12 14  1  0
 12 18  1  0
 13 19  1  0
 14 13  1  0
 15 14  2  0
 16 10  2  0
 16 17  1  0
 17 12  2  0
 18 11  1  0
 19  9  1  0
 21 23  2  0
 22 21  1  0
 24 22  1  0
 25 30  1  0
 26 22  1  0
 27 26  1  0
 28 29  1  0
 28 27  1  0
 29 25  1  0
 30 26  1  0
 30 31  2  0
 32 31  1  0
 33 32  2  0
 34 25  2  0
 34 33  1  0
 35  9  1  0
 35 36  1  0
 35 40  1  0
 36 39  1  1
 36 37  1  0
 38 36  1  0
 40 41  1  0
 40 43  1  0
 41 45  1  0
 42 41  2  0
 45 44  1  0
 45 47  1  0
 47 46  1  0
 47 48  1  0
 49 50  1  0
 50 51  1  0
 52 51  1  0
 53 52  1  0
 54 53  1  0
 55 54  1  0
 56 65  1  0
 56 55  1  0
 57 63  1  0
 57 65  1  0
 58 63  1  0
 59 60  1  0
 59 58  1  0
 61 60  1  0
 61 70  1  0
 61 62  1  0
 63 62  1  0
 64 57  2  0
 65 66  1  0
 67 68  2  0
 68 87  1  0
 69 68  1  0
 69 72  1  0
 70 71  1  0
 70 67  1  0
 71 69  2  0
 72 73  1  0
 73 74  2  0
 75 78  1  0
 75 74  1  0
 76 75  2  0
 77 76  1  0
 77 72  2  0
 78 79  1  0
 79 84  2  0
 79 80  1  0
 80 81  2  0
 81 82  1  0
 82 86  1  0
 83 82  2  0
 84 83  1  0
 85 84  1  0
 87 88  1  0
 88 91  1  0
 88 90  1  0
 89 87  2  0
 92 67  1  0
 92 93  1  0
 94 92  1  0
M  ISO  4   7 101   8 101  57 100  65 100
M  END
>  <TORSDO>  (27) 
F 28

>  <SCORE>  (27) 
-7.116

>  <name>  (27) 
26

>  <ligand_id>  (27) 
26

>  <original_smiles>  (27) 
[H]c1c([H])c([H])c2c(c1[H])C([H])([H])C([H])([H])C([H])([H])C2([H])N([H])C(=O)C1([H])N(C(=O)C([H])(N([H])C(=O)C([H])(N([H])C([H])([H])[H])C([H])([H])[H])C(C([H])([H])[H])(C([H])([H])[H])C([H])([H])[H])C([H])([H])c2c([H])c(OC([H])([H])C([H])([H])[N+]([H])([H])C([H])([H])C([H])([H])C([H])([H])C([H])([H])C([H])([H])C([H])([H])C([H])([H])C([H])([H])C([H])([H])C([H])([H])N([H])C(=O)N3C([H])([H])C([H])([H])C([H])([H])C([H])(n4nc(-c5c([H])c([H])c(Oc6c([H])c([H])c(F)c([H])c6F)c([H])c5[H])c(C(=O)N([H])[H])c4N([H])[H])C3([H])[H])c([H])c([H])c2C1([H])[H]

>  <smiles>  (27) 
[H]c1c([H])c([H])c2c(c1[H])C([H])([H])C([H])([H])C([H])([H])C2([H])N([H])C(=O)C1([H])N(C(=O)C([H])(N([H])C(=O)C([H])(N([H])C([H])([H])[H])C([H])([H])[H])C(C([H])([H])[H])(C([H])([H])[H])C([H])([H])[H])C([H])([H])c2c([H])c(OC([H])([H])C([H])([H])[N+]([H])([H])C([H])([H])C([H])([H])C([H])([H])C([H])([H])C([H])([H])C([H])([H])C([H])([H])C([H])([H])C([H])([H])C([H])([H])N([H])C(=O)N3C([H])([H])C([H])([H])C([H])([H])C([H])(n4nc(-c5c([H])c([H])c(Oc6c([H])c([H])c(F)c([H])c6F)c([H])c5[H])c(C(=O)N([H])[H])c4N([H])[H])C3([H])[H])c([H])c([H])c2C1([H])[H]

$$$$
27:0:0
     RDKit          3D

 93101  0  0  1  0  0  0  0  0999 V2000
  -28.7900  -23.6350   17.0590 C   0  0  0  0  0  3  0  0  0  0  0  0
  -28.4850  -23.0590   18.2990 C   0  0  0  0  0  0  0  0  0  0  0  0
  -29.3390  -24.9160   16.9580 C   0  0  0  0  0  0  0  0  0  0  0  0
  -28.7490  -23.7670   19.5120 C   0  0  0  0  0  0  0  0  0  0  0  0
  -28.8180  -25.2870   19.3750 C   0  0  0  0  0  0  0  0  0  0  0  0
  -29.3570  -25.7480   18.1160 C   0  0  0  0  0  0  0  0  0  0  0  0
  -30.1340  -27.3250   18.0070 S   0  0  0  0  0  1  0  0  0  0  0  0
  -31.2780  -24.7810   15.3110 C   0  0  0  0  0  1  0  0  0  0  0  0
  -29.8540  -25.2960   15.5600 C   0  0  0  0  0  2  0  0  0  0  0  0
  -26.7040  -21.4080   17.3730 C   0  0  0  0  0  1  0  0  0  0  0  0
  -27.9420  -21.6210   18.2670 C   0  0  0  0  0  2  0  0  0  0  0  0
  -28.5230  -26.3940   20.2810 O   0  0  0  0  0  0  0  0  0  0  0  0
  -24.7150  -31.9250   23.2820 C   0  0  0  0  0  0  0  0  0  0  0  0
  -27.4440  -27.3600   20.1630 C   0  0  0  0  0  0  0  0  0  0  0  0
  -23.5500  -30.5200   21.6220 C   0  0  0  0  0  3  0  0  0  0  0  0
  -25.0440  -29.0070   20.1690 C   0  0  0  0  0  0  0  0  0  0  0  0
  -26.0900  -30.8760   21.4480 C   0  0  0  0  0  2  0  0  0  0  0  0
  -26.2080  -29.4950   20.7790 C   0  0  0  0  0  0  0  0  0  0  0  0
  -27.4030  -28.6830   20.7650 C   0  0  0  0  0  3  0  0  0  0  0  0
  -26.2500  -26.9670   19.5230 C   0  0  0  0  0  3  0  0  0  0  0  0
  -25.0750  -27.7570   19.5290 C   0  0  0  0  0  3  0  0  0  0  0  0
  -23.7850  -29.8620   20.2320 C   0  0  0  0  0  2  0  0  0  0  0  0
  -24.8040  -31.1300   22.1740 N   0  0  0  0  0  0  0  0  0  0  0  0
  -23.6230  -32.1670   23.8230 O   0  0  0  0  0  0  0  0  0  0  0  0
  -22.9040  -29.4830   22.5750 C   0  0  0  0  0  0  0  0  0  0  0  0
  -21.5940  -29.2300   22.4110 N   0  0  0  0  0  0  0  0  0  0  0  0
  -23.5880  -28.9060   23.4240 O   0  0  0  0  0  0  0  0  0  0  0  0
  -21.0980  -29.7490   21.7010 H   0  0  0  0  0  0  0  0  0  0  0  0
  -18.2990  -27.7650   22.7660 C   0  0  0  0  0  0  0  0  0  0  0  0
  -20.8080  -28.2510   23.1670 C   0  0  0  0  0  3  0  0  0  0  0  0
  -21.0600  -26.8180   22.6460 C   0  0  0  0  0  2  0  0  0  0  0  0
  -20.0490  -26.3740   21.5830 C   0  0  0  0  0  2  0  0  0  0  0  0
  -18.6250  -26.4190   22.1440 C   0  0  0  0  0  2  0  0  0  0  0  0
  -19.3250  -28.6330   23.2320 C   0  0  0  0  0  0  0  0  0  0  0  0
  -18.9660  -29.8850   23.7750 C   0  0  0  0  0  3  0  0  0  0  0  0
  -17.6150  -30.2780   23.8540 C   0  0  0  0  0  3  0  0  0  0  0  0
  -16.6060  -29.4120   23.4000 C   0  0  0  0  0  3  0  0  0  0  0  0
  -16.9460  -28.1580   22.8640 C   0  0  0  0  0  3  0  0  0  0  0  0
  -25.9760  -32.5910   23.9150 C   0  0  0  0  0  3  0  0  0  0  0  0
  -25.6230  -33.9760   24.2650 N   0  0  0  0  0  0  0  0  0  0  0  0
  -25.9490  -35.0560   23.5420 C   0  0  0  0  0  0  0  0  0  0  0  0
  -26.6410  -34.9920   22.5220 O   0  0  0  0  0  0  0  0  0  0  0  0
  -25.0060  -34.0960   25.0550 H   0  0  0  0  0  0  0  0  0  0  0  0
  -24.2060  -36.8360   23.1750 C   0  0  0  0  0  1  0  0  0  0  0  0
  -25.4230  -36.4240   24.0200 C   0  0  0  0  0  3  0  0  0  0  0  0
  -27.5110  -37.3160   24.9580 C   0  0  0  0  0  1  0  0  0  0  0  0
  -26.4420  -37.4970   23.9790 N   0  0  0  0  0  0  0  0  0  0  0  0
  -26.0120  -38.4040   24.1380 H   0  0  0  0  0  0  0  0  0  0  0  0
  -26.5100  -31.8240   25.1860 C   0  0  1  0  0  0  0  0  0  0  0  0
  -25.4210  -31.5530   26.2510 C   0  0  0  0  0  1  0  0  0  0  0  0
  -27.1250  -30.4640   24.7860 C   0  0  0  0  0  1  0  0  0  0  0  0
  -27.6380  -32.6430   25.8560 C   0  0  0  0  0  1  0  0  0  0  0  0
  -29.0020  -22.7130   20.7440 C   0  0  0  0  0  2  0  0  0  0  0  0
  -29.8950  -21.2620   20.5790 C   0  0  0  0  0  3  0  0  0  0  0  0
  -29.3950  -19.6470   20.7440 C   0  0  0  0  0  3  0  0  0  0  0  0
  -30.3800  -18.2570   20.7230 C   0  0  0  0  0  3  0  0  0  0  0  0
  -29.8760  -16.6400   20.8590 C   0  0  0  0  0  3  0  0  0  0  0  0
  -30.7580  -15.2350   20.6500 C   0  0  0  0  0  0  0  0  0  0  0  0
  -30.7040  -12.8940   19.6490 C   0  0  0  0  0  2  0  0  0  0  0  0
  -29.8340  -12.9210   18.3690 C   0  0  0  0  0  2  0  0  0  0  0  0
  -28.3450  -12.7050   18.7150 C   0  0  0  0  0  2  0  0  0  0  0  0
  -27.8900  -13.5880   19.9070 C   0  0  0  0  0  3  0  0  0  0  0  0
  -28.8890  -13.5460   21.0830 C   0  0  0  0  0  2  0  0  0  0  0  0
  -30.2010  -13.9560   20.5670 N   0  0  0  0  0  0  0  0  0  0  0  0
  -31.9700  -15.3150   20.4080 O   0  0  0  0  0  0  0  0  0  0  0  0
  -25.4710  -14.1670   20.5110 C   0  0  0  0  0  0  0  0  0  0  0  0
  -24.3910  -13.3910   20.8350 C   0  0  0  0  0  0  0  0  0  0  0  0
  -24.8620  -12.0430   20.8530 C   0  0  0  0  0  0  0  0  0  0  0  0
  -26.5280  -13.2900   20.3370 N   0  0  0  0  0  0  0  0  0  0  0  0
  -26.1690  -12.0100   20.6120 N   0  0  0  0  0  0  0  0  0  0  0  0
  -24.1320  -10.7820   21.0250 C   0  0  0  0  0  0  0  0  0  0  0  0
  -24.5060   -9.8440   22.0130 C   0  0  0  0  0  3  0  0  0  0  0  0
  -23.7820   -8.6430   22.1730 C   0  0  0  0  0  3  0  0  0  0  0  0
  -22.6640   -8.3740   21.3440 C   0  0  0  0  0  0  0  0  0  0  0  0
  -22.3090   -9.3010   20.3480 C   0  0  0  0  0  3  0  0  0  0  0  0
  -23.0360  -10.4930   20.1880 C   0  0  0  0  0  3  0  0  0  0  0  0
  -21.9100   -7.2270   21.4130 O   0  0  0  0  0  0  0  0  0  0  0  0
  -21.7710   -6.5240   22.5830 C   0  0  0  0  0  0  0  0  0  0  0  0
  -21.2210   -7.1100   23.7450 C   0  0  0  0  0  3  0  0  0  0  0  0
  -21.0310   -6.3310   24.9030 C   0  0  0  0  0  3  0  0  0  0  0  0
  -21.3810   -4.9680   24.9020 C   0  0  0  0  0  0  0  0  0  0  0  0
  -21.9230   -4.3800   23.7440 C   0  0  0  0  0  3  0  0  0  0  0  0
  -22.1150   -5.1560   22.5870 C   0  0  0  0  0  0  0  0  0  0  0  0
  -22.6170   -4.5810   21.4680 F   0  0  0  0  0  0  0  0  0  0  0  0
  -21.1910   -4.2170   26.0110 F   0  0  0  0  0  0  0  0  0  0  0  0
  -22.9780  -13.8650   21.0190 C   0  0  0  0  0  0  0  0  0  0  0  0
  -22.2030  -13.1790   21.8520 N   0  0  0  0  0  0  0  0  0  0  0  0
  -22.5650  -14.8800   20.4560 O   0  0  0  0  0  0  0  0  0  0  0  0
  -22.5490  -12.3600   22.3320 H   0  0  0  0  0  0  0  0  0  0  0  0
  -21.2490  -13.4720   22.0080 H   0  0  0  0  0  0  0  0  0  0  0  0
  -25.6420  -15.5350   20.3210 N   0  0  0  0  0  0  0  0  0  0  0  0
  -24.8740  -16.1950   20.3860 H   0  0  0  0  0  0  0  0  0  0  0  0
  -26.5140  -15.9710   20.0540 H   0  0  0  0  0  0  0  0  0  0  0  0
  1  2  1  0
  2  4  2  0
  3  1  2  0
  3  6  1  0
  4 53  1  0
  5  4  1  0
  5 12  1  0
  6  5  2  0
  7  6  1  0
  8  9  1  0
  9  3  1  0
 10 11  1  0
 11  2  1  0
 13 24  2  0
 14 12  1  0
 14 19  1  0
 15 23  1  0
 15 25  1  0
 16 22  1  0
 16 18  1  0
 17 23  1  0
 18 17  1  0
 19 18  2  0
 20 21  1  0
 20 14  2  0
 21 16  2  0
 22 15  1  0
 23 13  1  0
 25 27  2  0
 26 25  1  0
 28 26  1  0
 29 38  2  0
 29 34  1  0
 30 26  1  0
 30 34  1  0
 31 30  1  0
 32 33  1  0
 32 31  1  0
 33 29  1  0
 34 35  2  0
 35 36  1  0
 37 36  2  0
 38 37  1  0
 39 13  1  0
 39 40  1  0
 39 49  1  0
 40 43  1  0
 41 45  1  0
 41 40  1  0
 42 41  2  0
 45 44  1  0
 47 45  1  0
 47 48  1  0
 47 46  1  0
 49 52  1  1
 49 50  1  0
 51 49  1  0
 54 55  2  0
 54 53  1  0
 56 55  1  0
 56 57  2  0
 58 57  1  0
 59 64  1  0
 60 61  1  0
 60 59  1  0
 62 61  1  0
 62 69  1  0
 62 63  1  0
 64 58  1  0
 64 63  1  0
 65 58  2  0
 66 67  2  0
 67 68  1  0
 67 86  1  0
 68 71  1  0
 69 66  1  0
 69 70  1  0
 70 68  2  0
 71 72  1  0
 72 73  2  0
 74 77  1  0
 74 73  1  0
 75 74  2  0
 76 75  1  0
 76 71  2  0
 77 78  1  0
 78 83  2  0
 78 79  1  0
 79 80  2  0
 81 80  1  0
 81 85  1  0
 82 81  2  0
 83 82  1  0
 84 83  1  0
 86 87  1  0
 87 90  1  0
 87 89  1  0
 88 86  2  0
 91 92  1  0
 91 66  1  0
 93 91  1  0
M  ISO  4   5 101  12 101  57 100  58 100
M  END
>  <TORSDO>  (28) 
F 23

>  <SCORE>  (28) 
-14.063

>  <name>  (28) 
27

>  <ligand_id>  (28) 
27

>  <original_smiles>  (28) 
[H]c1c([H])c([H])c2c(c1[H])C([H])([H])C([H])([H])C([H])([H])C2([H])N([H])C(=O)C1([H])N(C(=O)C([H])(N([H])C(=O)C([H])(N([H])C([H])([H])[H])C([H])([H])[H])C(C([H])([H])[H])(C([H])([H])[H])C([H])([H])[H])C([H])([H])c2c([H])c(Oc3c([S-])c(C([H])([H])C([H])([H])[H])c([H])c(C([H])([H])C([H])([H])[H])c3C([H])([H])C([H])([H])C([H])([H])C([H])([H])C([H])([H])C(=O)N3C([H])([H])C([H])([H])C([H])([H])C([H])(n4nc(-c5c([H])c([H])c(Oc6c([H])c([H])c(F)c([H])c6F)c([H])c5[H])c(C(=O)N([H])[H])c4N([H])[H])C3([H])[H])c([H])c([H])c2C1([H])[H]

>  <smiles>  (28) 
[H]c1c([H])c([H])c2c(c1[H])C([H])([H])C([H])([H])C([H])([H])C2([H])N([H])C(=O)C1([H])N(C(=O)C([H])(N([H])C(=O)C([H])(N([H])C([H])([H])[H])C([H])([H])[H])C(C([H])([H])[H])(C([H])([H])[H])C([H])([H])[H])C([H])([H])c2c([H])c(Oc3c([S-])c(C([H])([H])C([H])([H])[H])c([H])c(C([H])([H])C([H])([H])[H])c3C([H])([H])C([H])([H])C([H])([H])C([H])([H])C([H])([H])C(=O)N3C([H])([H])C([H])([H])C([H])([H])C([H])(n4nc(-c5c([H])c([H])c(Oc6c([H])c([H])c(F)c([H])c6F)c([H])c5[H])c(C(=O)N([H])[H])c4N([H])[H])C3([H])[H])c([H])c([H])c2C1([H])[H]

$$$$
28:0:0
     RDKit          3D

 90 98  0  0  1  0  0  0  0  0999 V2000
  -30.3300  -19.2190   18.4890 C   0  0  0  0  0  3  0  0  0  0  0  0
  -30.7140  -16.9570   19.7490 C   0  0  0  0  0  0  0  0  0  0  0  0
  -30.7540  -17.8130   18.5700 C   0  0  0  0  0  0  0  0  0  0  0  0
  -29.7000  -19.9980   19.5110 C   0  0  0  0  0  0  0  0  0  0  0  0
  -30.1180  -17.7500   20.8350 C   0  0  0  0  0  0  0  0  0  0  0  0
  -29.5290  -19.1200   20.6710 C   0  0  0  0  0  0  0  0  0  0  0  0
  -31.2140  -17.2080   17.2520 C   0  0  0  0  0  1  0  0  0  0  0  0
  -28.5550  -19.6360   21.7350 C   0  0  0  0  0  1  0  0  0  0  0  0
  -31.4000  -15.4350   19.7520 C   0  0  0  0  0  0  0  0  0  0  0  0
  -31.2930  -13.0000   18.9770 C   0  0  0  0  0  2  0  0  0  0  0  0
  -30.3230  -12.8220   17.7850 C   0  0  0  0  0  2  0  0  0  0  0  0
  -28.8870  -12.5960   18.2840 C   0  0  0  0  0  2  0  0  0  0  0  0
  -28.5070  -13.5850   19.4140 C   0  0  0  0  0  3  0  0  0  0  0  0
  -29.5920  -13.7060   20.4930 C   0  0  0  0  0  2  0  0  0  0  0  0
  -30.8130  -14.1550   19.8140 N   0  0  0  0  0  0  0  0  0  0  0  0
  -32.6030  -15.3850   19.4570 O   0  0  0  0  0  0  0  0  0  0  0  0
  -26.2290  -14.1840   20.3860 C   0  0  0  0  0  0  0  0  0  0  0  0
  -25.1720  -13.4300   20.8020 C   0  0  0  0  0  0  0  0  0  0  0  0
  -25.5810  -12.0670   20.6660 C   0  0  0  0  0  0  0  0  0  0  0  0
  -27.2100  -13.2900   20.0040 N   0  0  0  0  0  0  0  0  0  0  0  0
  -26.8420  -12.0050   20.2490 N   0  0  0  0  0  0  0  0  0  0  0  0
  -24.8260  -10.8230   20.8530 C   0  0  0  0  0  0  0  0  0  0  0  0
  -25.1730   -9.8940   21.8590 C   0  0  0  0  0  3  0  0  0  0  0  0
  -24.4220   -8.7130   22.0300 C   0  0  0  0  0  3  0  0  0  0  0  0
  -23.3100   -8.4500   21.1940 C   0  0  0  0  0  0  0  0  0  0  0  0
  -22.9810   -9.3680   20.1840 C   0  0  0  0  0  3  0  0  0  0  0  0
  -23.7300  -10.5430   20.0120 C   0  0  0  0  0  3  0  0  0  0  0  0
  -22.5400   -7.3150   21.2690 O   0  0  0  0  0  0  0  0  0  0  0  0
  -22.1860   -6.7620   22.4730 C   0  0  0  0  0  0  0  0  0  0  0  0
  -21.4700   -7.4960   23.4430 C   0  0  0  0  0  3  0  0  0  0  0  0
  -21.0660   -6.8740   24.6410 C   0  0  0  0  0  3  0  0  0  0  0  0
  -21.3660   -5.5170   24.8670 C   0  0  0  0  0  0  0  0  0  0  0  0
  -22.0680   -4.7810   23.8980 C   0  0  0  0  0  3  0  0  0  0  0  0
  -22.4790   -5.4020   22.7030 C   0  0  0  0  0  0  0  0  0  0  0  0
  -23.1390   -4.6840   21.7650 F   0  0  0  0  0  0  0  0  0  0  0  0
  -20.9710   -4.9170   26.0130 F   0  0  0  0  0  0  0  0  0  0  0  0
  -23.8170  -13.9380   21.2010 C   0  0  0  0  0  0  0  0  0  0  0  0
  -23.1460  -13.2410   22.1070 N   0  0  0  0  0  0  0  0  0  0  0  0
  -23.3700  -14.9880   20.7400 O   0  0  0  0  0  0  0  0  0  0  0  0
  -23.5180  -12.3880   22.4950 H   0  0  0  0  0  0  0  0  0  0  0  0
  -22.2460  -13.5670   22.4280 H   0  0  0  0  0  0  0  0  0  0  0  0
  -26.4360  -15.5540   20.2630 N   0  0  0  0  0  0  0  0  0  0  0  0
  -25.7160  -16.2330   20.4820 H   0  0  0  0  0  0  0  0  0  0  0  0
  -27.2670  -15.9590   19.8490 H   0  0  0  0  0  0  0  0  0  0  0  0
  -31.1350  -17.7680   23.2470 C   0  0  0  0  0  1  0  0  0  0  0  0
  -30.1480  -17.1340   22.2430 C   0  0  0  0  0  2  0  0  0  0  0  0
  -28.9660  -21.5190   19.2220 C   0  0  0  0  0  2  0  0  0  0  0  0
  -29.4400  -23.1850   19.4010 C   0  0  0  0  0  3  0  0  0  0  0  0
  -28.4690  -24.6210   19.1640 C   0  0  0  0  0  3  0  0  0  0  0  0
  -28.7090  -26.1890   19.4390 O   0  0  0  0  0  0  0  0  0  0  0  0
  -24.8080  -31.4410   23.0410 C   0  0  0  0  0  0  0  0  0  0  0  0
  -27.6410  -27.1930   19.4840 C   0  0  0  0  0  0  0  0  0  0  0  0
  -23.6940  -30.1630   21.2570 C   0  0  0  0  0  3  0  0  0  0  0  0
  -25.2310  -28.8560   19.6540 C   0  0  0  0  0  0  0  0  0  0  0  0
  -26.2330  -30.5850   21.1330 C   0  0  0  0  0  2  0  0  0  0  0  0
  -26.3870  -29.2750   20.3220 C   0  0  0  0  0  0  0  0  0  0  0  0
  -27.5920  -28.4620   20.2220 C   0  0  0  0  0  3  0  0  0  0  0  0
  -26.4540  -26.9140   18.7790 C   0  0  0  0  0  3  0  0  0  0  0  0
  -25.2820  -27.6950   18.8710 C   0  0  0  0  0  3  0  0  0  0  0  0
  -23.9520  -29.6710   19.8080 C   0  0  0  0  0  2  0  0  0  0  0  0
  -24.9310  -30.7540   21.8630 N   0  0  0  0  0  0  0  0  0  0  0  0
  -23.7060  -31.5880   23.5930 O   0  0  0  0  0  0  0  0  0  0  0  0
  -23.0930  -29.0110   22.1000 C   0  0  0  0  0  0  0  0  0  0  0  0
  -21.7920  -28.7240   21.9120 N   0  0  0  0  0  0  0  0  0  0  0  0
  -23.8020  -28.3810   22.8920 O   0  0  0  0  0  0  0  0  0  0  0  0
  -21.2690  -29.2920   21.2600 H   0  0  0  0  0  0  0  0  0  0  0  0
  -18.5480  -27.1170   22.1550 C   0  0  0  0  0  0  0  0  0  0  0  0
  -21.0520  -27.6360   22.5570 C   0  0  0  0  0  3  0  0  0  0  0  0
  -21.3350  -26.2810   21.8670 C   0  0  0  0  0  2  0  0  0  0  0  0
  -20.3160  -25.9320   20.7800 C   0  0  0  0  0  2  0  0  0  0  0  0
  -18.9040  -25.8640   21.3700 C   0  0  0  0  0  2  0  0  0  0  0  0
  -19.5570  -27.9570   22.6990 C   0  0  0  0  0  0  0  0  0  0  0  0
  -19.1780  -29.1240   23.3930 C   0  0  0  0  0  3  0  0  0  0  0  0
  -17.8200  -29.4640   23.5430 C   0  0  0  0  0  3  0  0  0  0  0  0
  -16.8250  -28.6240   23.0160 C   0  0  0  0  0  3  0  0  0  0  0  0
  -17.1890  -27.4500   22.3300 C   0  0  0  0  0  3  0  0  0  0  0  0
  -26.0380  -32.0930   23.7450 C   0  0  0  0  0  3  0  0  0  0  0  0
  -26.5640  -31.2540   24.9770 C   0  0  1  0  0  0  0  0  0  0  0  0
  -25.4610  -30.8930   25.9990 C   0  0  0  0  0  1  0  0  0  0  0  0
  -27.2250  -29.9370   24.5070 C   0  0  0  0  0  1  0  0  0  0  0  0
  -27.6600  -32.0520   25.7230 C   0  0  0  0  0  1  0  0  0  0  0  0
  -25.6410  -33.4420   24.1810 N   0  0  0  0  0  0  0  0  0  0  0  0
  -25.9010  -34.5740   23.5120 C   0  0  0  0  0  0  0  0  0  0  0  0
  -26.5670  -34.5950   22.4750 O   0  0  0  0  0  0  0  0  0  0  0  0
  -25.0530  -33.4950   24.9990 H   0  0  0  0  0  0  0  0  0  0  0  0
  -24.0540  -36.2790   23.3390 C   0  0  0  0  0  1  0  0  0  0  0  0
  -25.3380  -35.8890   24.0900 C   0  0  0  0  0  3  0  0  0  0  0  0
  -27.4300  -36.8530   24.9500 C   0  0  0  0  0  1  0  0  0  0  0  0
  -26.2990  -37.0140   24.0400 N   0  0  0  0  0  0  0  0  0  0  0  0
  -25.8360  -37.8930   24.2550 H   0  0  0  0  0  0  0  0  0  0  0  0
  1  3  2  0
  1  4  1  0
  2  9  1  0
  2  5  2  0
  3  2  1  0
  4  6  2  0
  5 46  1  0
  6  5  1  0
  6  8  1  0
  7  3  1  0
  9 15  1  0
 10 15  1  0
 11 12  1  0
 11 10  1  0
 13 12  1  0
 13 20  1  0
 13 14  1  0
 15 14  1  0
 16  9  2  0
 17 18  2  0
 18 37  1  0
 19 18  1  0
 19 22  1  0
 20 21  1  0
 20 17  1  0
 21 19  2  0
 22 23  1  0
 23 24  2  0
 25 28  1  0
 25 24  1  0
 26 25  2  0
 27 26  1  0
 27 22  2  0
 28 29  1  0
 29 34  2  0
 29 30  1  0
 30 31  2  0
 31 32  1  0
 32 36  1  0
 33 32  2  0
 34 33  1  0
 35 34  1  0
 37 38  1  0
 38 41  1  0
 38 40  1  0
 39 37  2  0
 42 17  1  0
 42 43  1  0
 44 42  1  0
 46 45  1  0
 47 48  1  0
 47  4  1  0
 49 48  2  0
 49 50  1  0
 50 52  1  0
 51 62  2  0
 52 57  1  0
 53 61  1  0
 53 63  1  0
 54 60  1  0
 54 56  1  0
 55 61  1  0
 56 55  1  0
 57 56  2  0
 58 59  1  0
 58 52  2  0
 59 54  2  0
 60 53  1  0
 61 51  1  0
 63 65  2  0
 64 63  1  0
 66 64  1  0
 67 76  2  0
 67 72  1  0
 68 64  1  0
 68 72  1  0
 69 68  1  0
 70 71  1  0
 70 69  1  0
 71 67  1  0
 72 73  2  0
 73 74  1  0
 75 74  2  0
 76 75  1  0
 77 51  1  0
 77 82  1  0
 77 78  1  0
 78 81  1  1
 78 79  1  0
 80 78  1  0
 82 85  1  0
 83 87  1  0
 83 82  1  0
 84 83  2  0
 87 86  1  0
 89 87  1  0
 89 90  1  0
 89 88  1  0
M  ISO  4   2 100   9 100  49 101  50 101
M  END
>  <TORSDO>  (29) 
F 20

>  <SCORE>  (29) 
-9.948

>  <name>  (29) 
28

>  <ligand_id>  (29) 
28

>  <original_smiles>  (29) 
[H]c1c([H])c([H])c2c(c1[H])C([H])([H])C([H])([H])C([H])([H])C2([H])N([H])C(=O)C1([H])N(C(=O)C([H])(N([H])C(=O)C([H])(N([H])C([H])([H])[H])C([H])([H])[H])C(C([H])([H])[H])(C([H])([H])[H])C([H])([H])[H])C([H])([H])c2c([H])c(OC([H])([H])C([H])([H])C([H])([H])c3c([H])c(C([H])([H])[H])c(C(=O)N4C([H])([H])C([H])([H])C([H])([H])C([H])(n5nc(-c6c([H])c([H])c(Oc7c([H])c([H])c(F)c([H])c7F)c([H])c6[H])c(C(=O)N([H])[H])c5N([H])[H])C4([H])[H])c(C([H])([H])C([H])([H])[H])c3C([H])([H])[H])c([H])c([H])c2C1([H])[H]

>  <smiles>  (29) 
[H]c1c([H])c([H])c2c(c1[H])C([H])([H])C([H])([H])C([H])([H])C2([H])N([H])C(=O)C1([H])N(C(=O)C([H])(N([H])C(=O)C([H])(N([H])C([H])([H])[H])C([H])([H])[H])C(C([H])([H])[H])(C([H])([H])[H])C([H])([H])[H])C([H])([H])c2c([H])c(OC([H])([H])C([H])([H])C([H])([H])c3c([H])c(C([H])([H])[H])c(C(=O)N4C([H])([H])C([H])([H])C([H])([H])C([H])(n5nc(-c6c([H])c([H])c(Oc7c([H])c([H])c(F)c([H])c7F)c([H])c6[H])c(C(=O)N([H])[H])c5N([H])[H])C4([H])[H])c(C([H])([H])C([H])([H])[H])c3C([H])([H])[H])c([H])c([H])c2C1([H])[H]

$$$$
29:0:0
     RDKit          3D

 92100  0  0  1  0  0  0  0  0999 V2000
  -27.1350  -22.6720   19.2790 C   0  0  0  0  0  3  0  0  0  0  0  0
  -25.7820  -22.9030   19.5950 C   0  0  0  0  0  3  0  0  0  0  0  0
  -26.4680  -24.5930   21.2050 C   0  0  0  0  0  3  0  0  0  0  0  0
  -28.1580  -23.3140   20.0140 C   0  0  0  0  0  0  0  0  0  0  0  0
  -25.4600  -23.7910   20.6390 C   0  0  0  0  0  0  0  0  0  0  0  0
  -27.7430  -24.6530   20.5800 C   0  0  0  0  0  0  0  0  0  0  0  0
  -28.9020  -22.0780   20.7430 C   0  0  0  0  0  0  0  0  0  0  0  0
  -29.1860  -22.2050   21.9350 O   0  0  0  0  0  0  0  0  0  0  0  0
  -29.3690  -20.6250   20.0630 C   0  0  0  0  0  2  0  0  0  0  0  0
  -29.0890  -19.0420   20.6060 C   0  0  0  0  0  3  0  0  0  0  0  0
  -30.0810  -17.7110   20.2650 C   0  0  0  0  0  3  0  0  0  0  0  0
  -30.5180  -14.9910   20.2480 C   0  0  0  0  0  0  0  0  0  0  0  0
  -30.3930  -12.6500   19.2760 C   0  0  0  0  0  2  0  0  0  0  0  0
  -29.4530  -12.6380   18.0440 C   0  0  0  0  0  2  0  0  0  0  0  0
  -27.9850  -12.4410   18.4690 C   0  0  0  0  0  2  0  0  0  0  0  0
  -27.5990  -13.3300   19.6840 C   0  0  0  0  0  3  0  0  0  0  0  0
  -28.6600  -13.3140   20.8020 C   0  0  0  0  0  2  0  0  0  0  0  0
  -29.9260  -13.7310   20.1940 N   0  0  0  0  0  0  0  0  0  0  0  0
  -31.7090  -15.0630   19.9240 O   0  0  0  0  0  0  0  0  0  0  0  0
  -29.7420  -16.1710   20.4580 N   0  0  0  0  0  0  0  0  0  0  0  0
  -28.7790  -15.9770   20.6900 H   0  0  0  0  0  0  0  0  0  0  0  0
  -25.2240  -13.9050   20.4330 C   0  0  0  0  0  0  0  0  0  0  0  0
  -24.1650  -13.1300   20.8150 C   0  0  0  0  0  0  0  0  0  0  0  0
  -24.6310  -11.7790   20.7850 C   0  0  0  0  0  0  0  0  0  0  0  0
  -26.2650  -13.0300   20.1910 N   0  0  0  0  0  0  0  0  0  0  0  0
  -25.9220  -11.7430   20.4680 N   0  0  0  0  0  0  0  0  0  0  0  0
  -23.9080  -10.5160   20.9860 C   0  0  0  0  0  0  0  0  0  0  0  0
  -24.3450   -9.5550   21.9230 C   0  0  0  0  0  3  0  0  0  0  0  0
  -23.6210   -8.3570   22.1110 C   0  0  0  0  0  3  0  0  0  0  0  0
  -22.4470   -8.1140   21.3610 C   0  0  0  0  0  0  0  0  0  0  0  0
  -22.0280   -9.0640   20.4130 C   0  0  0  0  0  3  0  0  0  0  0  0
  -22.7550  -10.2520   20.2230 C   0  0  0  0  0  3  0  0  0  0  0  0
  -21.6930   -6.9700   21.4580 O   0  0  0  0  0  0  0  0  0  0  0  0
  -21.6430   -6.2350   22.6160 C   0  0  0  0  0  0  0  0  0  0  0  0
  -21.2180   -6.7980   23.8390 C   0  0  0  0  0  3  0  0  0  0  0  0
  -21.1160   -5.9900   24.9880 C   0  0  0  0  0  3  0  0  0  0  0  0
  -21.4310   -4.6190   24.9180 C   0  0  0  0  0  0  0  0  0  0  0  0
  -21.8520   -4.0550   23.6990 C   0  0  0  0  0  3  0  0  0  0  0  0
  -21.9550   -4.8610   22.5530 C   0  0  0  0  0  0  0  0  0  0  0  0
  -22.3390   -4.3090   21.3750 F   0  0  0  0  0  0  0  0  0  0  0  0
  -21.3280   -3.8410   26.0190 F   0  0  0  0  0  0  0  0  0  0  0  0
  -22.7690  -13.6050   21.0930 C   0  0  0  0  0  0  0  0  0  0  0  0
  -22.0490  -12.9120   21.9660 N   0  0  0  0  0  0  0  0  0  0  0  0
  -22.3260  -14.6250   20.5690 O   0  0  0  0  0  0  0  0  0  0  0  0
  -22.4220  -12.0850   22.4130 H   0  0  0  0  0  0  0  0  0  0  0  0
  -21.1100  -13.2120   22.1970 H   0  0  0  0  0  0  0  0  0  0  0  0
  -25.3770  -15.2760   20.2450 N   0  0  0  0  0  0  0  0  0  0  0  0
  -24.5960  -15.9150   20.3440 H   0  0  0  0  0  0  0  0  0  0  0  0
  -26.2020  -15.7190   19.8670 H   0  0  0  0  0  0  0  0  0  0  0  0
  -23.2230  -24.2410   20.0210 C   0  0  0  0  0  1  0  0  0  0  0  0
  -24.1680  -23.9940   21.0550 O   0  0  0  0  0  0  0  0  0  0  0  0
  -28.1590  -26.0520   20.2690 O   0  0  0  0  0  0  0  0  0  0  0  0
  -24.6310  -31.8520   23.1950 C   0  0  0  0  0  0  0  0  0  0  0  0
  -27.2030  -27.1430   20.1520 C   0  0  0  0  0  0  0  0  0  0  0  0
  -23.4360  -30.4700   21.5400 C   0  0  0  0  0  3  0  0  0  0  0  0
  -24.9050  -28.9240   20.0940 C   0  0  0  0  0  0  0  0  0  0  0  0
  -25.9990  -30.7340   21.4000 C   0  0  0  0  0  2  0  0  0  0  0  0
  -26.0800  -29.3430   20.7350 C   0  0  0  0  0  0  0  0  0  0  0  0
  -27.2280  -28.4620   20.7650 C   0  0  0  0  0  3  0  0  0  0  0  0
  -26.0380  -26.8760   19.4030 C   0  0  0  0  0  3  0  0  0  0  0  0
  -24.9000  -27.7000   19.4110 C   0  0  0  0  0  3  0  0  0  0  0  0
  -23.6640  -29.8040   20.1560 C   0  0  0  0  0  2  0  0  0  0  0  0
  -24.7080  -31.0360   22.0990 N   0  0  0  0  0  0  0  0  0  0  0  0
  -23.5420  -32.1360   23.7160 O   0  0  0  0  0  0  0  0  0  0  0  0
  -22.7530  -29.4570   22.4970 C   0  0  0  0  0  0  0  0  0  0  0  0
  -21.4210  -29.2990   22.3790 N   0  0  0  0  0  0  0  0  0  0  0  0
  -23.4260  -28.8100   23.3030 O   0  0  0  0  0  0  0  0  0  0  0  0
  -20.9240  -29.9150   21.7460 H   0  0  0  0  0  0  0  0  0  0  0  0
  -18.0410  -28.1010   22.8380 C   0  0  0  0  0  0  0  0  0  0  0  0
  -20.5970  -28.3540   23.1340 C   0  0  0  0  0  3  0  0  0  0  0  0
  -20.6930  -26.9250   22.5450 C   0  0  0  0  0  2  0  0  0  0  0  0
  -19.6170  -26.6320   21.4970 C   0  0  0  0  0  2  0  0  0  0  0  0
  -18.2190  -26.7790   22.1020 C   0  0  0  0  0  2  0  0  0  0  0  0
  -19.1580  -28.8480   23.3020 C   0  0  0  0  0  0  0  0  0  0  0  0
  -18.9380  -30.0950   23.9290 C   0  0  0  0  0  3  0  0  0  0  0  0
  -17.6340  -30.5950   24.1060 C   0  0  0  0  0  3  0  0  0  0  0  0
  -16.5340  -29.8490   23.6590 C   0  0  0  0  0  3  0  0  0  0  0  0
  -16.7370  -28.6050   23.0350 C   0  0  0  0  0  3  0  0  0  0  0  0
  -25.9060  -32.4870   23.8300 C   0  0  0  0  0  3  0  0  0  0  0  0
  -25.5950  -33.8860   24.1650 N   0  0  0  0  0  0  0  0  0  0  0  0
  -25.9200  -34.9460   23.4120 C   0  0  0  0  0  0  0  0  0  0  0  0
  -26.5850  -34.8480   22.3780 O   0  0  0  0  0  0  0  0  0  0  0  0
  -25.0100  -34.0400   24.9730 H   0  0  0  0  0  0  0  0  0  0  0  0
  -24.1890  -36.7420   23.0780 C   0  0  0  0  0  1  0  0  0  0  0  0
  -25.4330  -36.3320   23.8830 C   0  0  0  0  0  3  0  0  0  0  0  0
  -27.5670  -37.2160   24.7150 C   0  0  0  0  0  1  0  0  0  0  0  0
  -26.4630  -37.3890   23.7750 N   0  0  0  0  0  0  0  0  0  0  0  0
  -26.0530  -38.3070   23.9270 H   0  0  0  0  0  0  0  0  0  0  0  0
  -26.4080  -31.7160   25.1130 C   0  0  1  0  0  0  0  0  0  0  0  0
  -25.3010  -31.4870   26.1680 C   0  0  0  0  0  1  0  0  0  0  0  0
  -26.9920  -30.3350   24.7350 C   0  0  0  0  0  1  0  0  0  0  0  0
  -27.5530  -32.5090   25.7850 C   0  0  0  0  0  1  0  0  0  0  0  0
  1  2  2  0
  1  4  1  0
  2  5  1  0
  4  6  2  3
  4  7  1  0
  5 51  1  0
  5  3  2  0
  6  3  1  0
  7  8  2  0
  9 10  1  0
  9  7  1  0
 11 20  1  0
 11 10  2  0
 12 20  1  0
 13 18  1  0
 14 15  1  0
 14 13  1  0
 16 15  1  0
 16 25  1  0
 16 17  1  0
 18 12  1  0
 18 17  1  0
 19 12  2  0
 20 21  1  0
 22 23  2  0
 23 42  1  0
 24 23  1  0
 24 27  1  0
 25 22  1  0
 25 26  1  0
 26 24  2  0
 27 28  1  0
 28 29  2  0
 30 33  1  0
 30 29  1  0
 31 30  2  0
 32 31  1  0
 32 27  2  0
 33 34  1  0
 34 35  1  0
 35 36  2  0
 37 36  1  0
 37 41  1  0
 38 37  2  0
 39 34  2  0
 39 38  1  0
 40 39  1  0
 42 43  1  0
 43 46  1  0
 43 45  1  0
 44 42  2  0
 47 48  1  0
 47 22  1  0
 49 47  1  0
 50 51  1  0
 52  6  1  0
 53 64  2  0
 54 52  1  0
 54 59  1  0
 55 63  1  0
 55 65  1  0
 56 62  1  0
 56 58  1  0
 57 63  1  0
 58 59  2  0
 58 57  1  0
 60 61  1  0
 60 54  2  0
 61 56  2  0
 62 55  1  0
 63 53  1  0
 65 67  2  0
 66 65  1  0
 68 66  1  0
 69 78  2  0
 69 74  1  0
 70 66  1  0
 70 74  1  0
 71 70  1  0
 72 73  1  0
 72 71  1  0
 73 69  1  0
 74 75  2  0
 75 76  1  0
 77 76  2  0
 78 77  1  0
 79 53  1  0
 79 80  1  0
 79 89  1  0
 80 83  1  0
 81 85  1  0
 81 80  1  0
 82 81  2  0
 85 84  1  0
 87 85  1  0
 87 88  1  0
 87 86  1  0
 89 92  1  1
 89 90  1  0
 91 89  1  0
M  ISO  4   6 101  12 100  20 100  52 101
M  END
>  <TORSDO>  (30) 
F 21

>  <SCORE>  (30) 
-14.911

>  <name>  (30) 
29

>  <ligand_id>  (30) 
29

>  <original_smiles>  (30) 
[H]c1c([H])c([H])c2c(c1[H])C([H])([H])C([H])([H])C([H])([H])C2([H])N([H])C(=O)C1([H])N(C(=O)C([H])(N([H])C(=O)C([H])(N([H])C([H])([H])[H])C([H])([H])[H])C(C([H])([H])[H])(C([H])([H])[H])C([H])([H])[H])C([H])([H])c2c([H])c(Oc3c([H])c(OC([H])([H])[H])c([H])c([H])c3C(=O)C([H])([H])C([H])([H])C([H])([H])N([H])C(=O)N3C([H])([H])C([H])([H])C([H])([H])C([H])(n4nc(-c5c([H])c([H])c(Oc6c([H])c([H])c(F)c([H])c6F)c([H])c5[H])c(C(=O)N([H])[H])c4N([H])[H])C3([H])[H])c([H])c([H])c2C1([H])[H]

>  <smiles>  (30) 
[H]c1c([H])c([H])c2c(c1[H])C([H])([H])C([H])([H])C([H])([H])C2([H])N([H])C(=O)C1([H])N(C(=O)C([H])(N([H])C(=O)C([H])(N([H])C([H])([H])[H])C([H])([H])[H])C(C([H])([H])[H])(C([H])([H])[H])C([H])([H])[H])C([H])([H])c2c([H])c(Oc3c([H])c(OC([H])([H])[H])c([H])c([H])c3C(=O)C([H])([H])C([H])([H])C([H])([H])N([H])C(=O)N3C([H])([H])C([H])([H])C([H])([H])C([H])(n4nc(-c5c([H])c([H])c(Oc6c([H])c([H])c(F)c([H])c6F)c([H])c5[H])c(C(=O)N([H])[H])c4N([H])[H])C3([H])[H])c([H])c([H])c2C1([H])[H]

$$$$
30:0:0
     RDKit          3D

 96105  0  0  1  0  0  0  0  0999 V2000
  -30.8790  -19.2200   18.2660 C   0  0  0  0  0  3  0  0  0  0  0  0
  -30.2650  -16.9470   19.3600 C   0  0  0  0  0  0  0  0  0  0  0  0
  -30.0000  -20.1550   18.9310 C   0  0  0  0  0  0  0  0  0  0  0  0
  -29.1680  -19.4140   19.8470 C   0  0  0  0  0  0  0  0  0  0  0  0
  -30.9800  -17.7750   18.4070 C   0  0  0  0  0  0  0  0  0  0  0  0
  -29.3380  -17.8990   20.0800 C   0  0  0  0  0  0  0  0  0  0  0  0
  -28.0230  -20.3350   20.4680 C   0  0  0  0  0  2  0  0  0  0  0  0
  -28.3110  -21.7740   21.1690 C   0  0  0  0  0  2  0  0  0  0  0  0
  -27.7230  -23.2570   20.7840 C   0  0  0  0  0  2  0  0  0  0  0  0
  -28.8310  -22.9810   18.5310 C   0  0  0  0  0  2  0  0  0  0  0  0
  -28.1550  -24.1650   19.5320 C   0  0  0  0  0  3  0  0  0  0  0  0
  -30.0970  -21.8370   18.6680 C   0  0  1  0  0  0  0  0  0  0  0  0
  -31.9440  -17.1130   17.4270 C   0  0  0  0  0  1  0  0  0  0  0  0
  -28.5030  -17.2970   21.2000 C   0  0  0  0  0  1  0  0  0  0  0  0
  -31.1780  -22.4420   19.6090 C   0  0  0  0  0  1  0  0  0  0  0  0
  -30.7580  -15.3230   19.5710 C   0  0  0  0  0  0  0  0  0  0  0  0
  -30.5650  -12.8570   18.8180 C   0  0  0  0  0  2  0  0  0  0  0  0
  -29.5730  -12.5990   17.6580 C   0  0  0  0  0  2  0  0  0  0  0  0
  -28.1570  -12.3500   18.2040 C   0  0  0  0  0  2  0  0  0  0  0  0
  -27.7830  -13.3650   19.3100 C   0  0  0  0  0  3  0  0  0  0  0  0
  -28.9030  -13.6020   20.3430 C   0  0  0  0  0  2  0  0  0  0  0  0
  -30.0940  -14.0590   19.6070 N   0  0  0  0  0  0  0  0  0  0  0  0
  -31.9730  -15.1480   19.4010 O   0  0  0  0  0  0  0  0  0  0  0  0
  -25.5170  -13.9520   20.3030 C   0  0  0  0  0  0  0  0  0  0  0  0
  -24.4700  -13.1910   20.7420 C   0  0  0  0  0  0  0  0  0  0  0  0
  -24.8930  -11.8310   20.6300 C   0  0  0  0  0  0  0  0  0  0  0  0
  -26.5060  -13.0590   19.9390 N   0  0  0  0  0  0  0  0  0  0  0  0
  -26.1520  -11.7740   20.2080 N   0  0  0  0  0  0  0  0  0  0  0  0
  -24.1450  -10.5820   20.8400 C   0  0  0  0  0  0  0  0  0  0  0  0
  -24.5780   -9.6030   21.7640 C   0  0  0  0  0  3  0  0  0  0  0  0
  -23.8260   -8.4260   21.9660 C   0  0  0  0  0  3  0  0  0  0  0  0
  -22.6240   -8.2190   21.2480 C   0  0  0  0  0  0  0  0  0  0  0  0
  -22.2090   -9.1850   20.3140 C   0  0  0  0  0  3  0  0  0  0  0  0
  -22.9640  -10.3530   20.1090 C   0  0  0  0  0  3  0  0  0  0  0  0
  -21.8400   -7.0970   21.3620 O   0  0  0  0  0  0  0  0  0  0  0  0
  -21.7440   -6.4050   22.5430 C   0  0  0  0  0  0  0  0  0  0  0  0
  -21.2500   -7.0070   23.7210 C   0  0  0  0  0  3  0  0  0  0  0  0
  -21.1050   -6.2390   24.8930 C   0  0  0  0  0  3  0  0  0  0  0  0
  -21.4390   -4.8730   24.8880 C   0  0  0  0  0  0  0  0  0  0  0  0
  -21.9240   -4.2710   23.7130 C   0  0  0  0  0  3  0  0  0  0  0  0
  -22.0750   -5.0340   22.5420 C   0  0  0  0  0  0  0  0  0  0  0  0
  -22.5240   -4.4450   21.4080 F   0  0  0  0  0  0  0  0  0  0  0  0
  -21.2890   -4.1310   26.0110 F   0  0  0  0  0  0  0  0  0  0  0  0
  -23.1170  -13.7000   21.1390 C   0  0  0  0  0  0  0  0  0  0  0  0
  -22.4440  -13.0140   22.0540 N   0  0  0  0  0  0  0  0  0  0  0  0
  -22.6690  -14.7460   20.6690 O   0  0  0  0  0  0  0  0  0  0  0  0
  -22.8150  -12.1660   22.4550 H   0  0  0  0  0  0  0  0  0  0  0  0
  -21.5390  -13.3470   22.3620 H   0  0  0  0  0  0  0  0  0  0  0  0
  -25.7050  -15.3220   20.1510 N   0  0  0  0  0  0  0  0  0  0  0  0
  -24.9770  -15.9980   20.3490 H   0  0  0  0  0  0  0  0  0  0  0  0
  -26.5480  -15.7430   19.7800 H   0  0  0  0  0  0  0  0  0  0  0  0
  -28.3040  -25.8190   19.6390 O   0  0  0  0  0  0  0  0  0  0  0  0
  -24.6670  -31.5520   23.0040 C   0  0  0  0  0  0  0  0  0  0  0  0
  -27.2610  -26.8890   19.6810 C   0  0  0  0  0  0  0  0  0  0  0  0
  -23.4800  -30.2390   21.2960 C   0  0  0  0  0  3  0  0  0  0  0  0
  -24.9380  -28.7420   19.7700 C   0  0  0  0  0  0  0  0  0  0  0  0
  -26.0430  -30.4910   21.1460 C   0  0  0  0  0  2  0  0  0  0  0  0
  -26.1270  -29.1230   20.4060 C   0  0  0  0  0  0  0  0  0  0  0  0
  -27.2810  -28.2220   20.3340 C   0  0  0  0  0  3  0  0  0  0  0  0
  -26.0390  -26.6680   19.0080 C   0  0  0  0  0  3  0  0  0  0  0  0
  -24.9180  -27.5370   19.0550 C   0  0  0  0  0  3  0  0  0  0  0  0
  -23.7100  -29.6410   19.8800 C   0  0  0  0  0  2  0  0  0  0  0  0
  -24.7520  -30.7860   21.8690 N   0  0  0  0  0  0  0  0  0  0  0  0
  -23.5780  -31.7930   23.5500 O   0  0  0  0  0  0  0  0  0  0  0  0
  -22.8090  -29.1780   22.2050 C   0  0  0  0  0  0  0  0  0  0  0  0
  -21.4780  -29.0100   22.0850 N   0  0  0  0  0  0  0  0  0  0  0  0
  -23.4910  -28.5060   22.9820 O   0  0  0  0  0  0  0  0  0  0  0  0
  -20.9800  -29.6050   21.4380 H   0  0  0  0  0  0  0  0  0  0  0  0
  -18.1030  -27.7920   22.6230 C   0  0  0  0  0  0  0  0  0  0  0  0
  -20.6750  -28.0180   22.8060 C   0  0  0  0  0  3  0  0  0  0  0  0
  -20.7400  -26.6390   22.1110 C   0  0  0  0  0  2  0  0  0  0  0  0
  -19.5970  -26.4090   21.1170 C   0  0  0  0  0  2  0  0  0  0  0  0
  -18.2430  -26.5070   21.8240 C   0  0  0  0  0  2  0  0  0  0  0  0
  -19.2450  -28.5110   23.0690 C   0  0  0  0  0  0  0  0  0  0  0  0
  -19.0600  -29.7160   23.7800 C   0  0  0  0  0  3  0  0  0  0  0  0
  -17.7670  -30.2040   24.0460 C   0  0  0  0  0  3  0  0  0  0  0  0
  -16.6400  -29.4820   23.6140 C   0  0  0  0  0  3  0  0  0  0  0  0
  -16.8100  -28.2770   22.9080 C   0  0  0  0  0  3  0  0  0  0  0  0
  -25.9350  -32.1760   23.6660 C   0  0  0  0  0  3  0  0  0  0  0  0
  -26.4360  -31.3690   24.9270 C   0  0  1  0  0  0  0  0  0  0  0  0
  -25.3310  -31.1010   25.9760 C   0  0  0  0  0  1  0  0  0  0  0  0
  -27.0260  -30.0020   24.5140 C   0  0  0  0  0  1  0  0  0  0  0  0
  -27.5800  -32.1440   25.6240 C   0  0  0  0  0  1  0  0  0  0  0  0
  -25.6130  -33.5610   24.0500 N   0  0  0  0  0  0  0  0  0  0  0  0
  -25.9170  -34.6490   23.3300 C   0  0  0  0  0  0  0  0  0  0  0  0
  -26.5620  -34.5910   22.2800 O   0  0  0  0  0  0  0  0  0  0  0  0
  -25.0400  -33.6780   24.8740 H   0  0  0  0  0  0  0  0  0  0  0  0
  -24.1520  -36.4330   23.1080 C   0  0  0  0  0  1  0  0  0  0  0  0
  -25.4290  -36.0160   23.8550 C   0  0  0  0  0  3  0  0  0  0  0  0
  -27.5760  -36.9140   24.6440 C   0  0  0  0  0  1  0  0  0  0  0  0
  -26.4420  -37.0880   23.7390 N   0  0  0  0  0  0  0  0  0  0  0  0
  -26.0260  -37.9970   23.9240 H   0  0  0  0  0  0  0  0  0  0  0  0
  -30.8090  -22.0290   17.2800 C   0  0  0  0  0  2  0  0  0  0  0  0
  -30.2300  -21.2870   16.0550 C   0  0  0  0  0  2  0  0  0  0  0  0
  -30.9170  -20.1800   13.8580 C   0  0  0  0  0  1  0  0  0  0  0  0
  -31.2350  -21.2700   14.8890 C   0  0  0  0  0  2  0  0  0  0  0  0
  1  5  2  0
  1  3  1  0
  2 16  1  0
  2  6  2  0
  3  4  2  0
  4  6  1  0
  4  7  1  0
  5  2  1  0
  6 14  1  0
  7  8  1  0
  9  8  1  0
 10 12  1  0
 10 11  1  0
 11 52  1  0
 11  9  1  0
 12  3  1  0
 12 15  1  1
 13  5  1  0
 16 22  1  0
 17 22  1  0
 18 19  1  0
 18 17  1  0
 20 19  1  0
 20 27  1  0
 20 21  1  0
 22 21  1  0
 23 16  2  0
 24 25  2  0
 25 44  1  0
 26 25  1  0
 26 29  1  0
 27 28  1  0
 27 24  1  0
 28 26  2  0
 29 30  1  0
 30 31  2  0
 32 35  1  0
 32 31  1  0
 33 32  2  0
 34 33  1  0
 34 29  2  0
 35 36  1  0
 36 37  1  0
 37 38  2  0
 39 38  1  0
 39 43  1  0
 40 39  2  0
 41 36  2  0
 41 40  1  0
 42 41  1  0
 44 45  1  0
 45 48  1  0
 45 47  1  0
 46 44  2  0
 49 24  1  0
 49 50  1  0
 51 49  1  0
 52 54  1  0
 53 64  2  0
 54 59  1  0
 55 63  1  0
 55 65  1  0
 56 62  1  0
 56 58  1  0
 57 63  1  0
 58 57  1  0
 59 58  2  0
 60 61  1  0
 60 54  2  0
 61 56  2  0
 62 55  1  0
 63 53  1  0
 65 67  2  0
 66 65  1  0
 68 66  1  0
 69 78  2  0
 69 74  1  0
 70 66  1  0
 70 74  1  0
 71 70  1  0
 72 73  1  0
 72 71  1  0
 73 69  1  0
 74 75  2  0
 75 76  1  0
 77 76  2  0
 78 77  1  0
 79 53  1  0
 79 84  1  0
 79 80  1  0
 80 83  1  1
 80 81  1  0
 82 80  1  0
 84 87  1  0
 85 89  1  0
 85 84  1  0
 86 85  2  0
 89 88  1  0
 91 89  1  0
 91 92  1  0
 91 90  1  0
 93 12  1  0
 94 93  1  0
 95 96  1  0
 96 94  1  0
M  ISO  4   2 100  11 101  16 100  52 101
M  END
>  <TORSDO>  (31) 
F 19

>  <SCORE>  (31) 
-14.298

>  <name>  (31) 
30

>  <ligand_id>  (31) 
30

>  <original_smiles>  (31) 
[H]c1c([H])c([H])c2c(c1[H])C([H])([H])C([H])([H])C([H])([H])C2([H])N([H])C(=O)C1([H])N(C(=O)C([H])(N([H])C(=O)C([H])(N([H])C([H])([H])[H])C([H])([H])[H])C(C([H])([H])[H])(C([H])([H])[H])C([H])([H])[H])C([H])([H])c2c([H])c(OC3([H])C([H])([H])C([H])([H])C([H])([H])c4c(C([H])([H])[H])c(C(=O)N5C([H])([H])C([H])([H])C([H])([H])C([H])(n6nc(-c7c([H])c([H])c(Oc8c([H])c([H])c(F)c([H])c8F)c([H])c7[H])c(C(=O)N([H])[H])c6N([H])[H])C5([H])[H])c(C([H])([H])[H])c([H])c4C(C([H])([H])[H])(C([H])([H])C([H])([H])C([H])([H])C([H])([H])[H])C3([H])[H])c([H])c([H])c2C1([H])[H]

>  <smiles>  (31) 
[H]c1c([H])c([H])c2c(c1[H])C([H])([H])C([H])([H])C([H])([H])C2([H])N([H])C(=O)C1([H])N(C(=O)C([H])(N([H])C(=O)C([H])(N([H])C([H])([H])[H])C([H])([H])[H])C(C([H])([H])[H])(C([H])([H])[H])C([H])([H])[H])C([H])([H])c2c([H])c(OC3([H])C([H])([H])C([H])([H])C([H])([H])c4c(C([H])([H])[H])c(C(=O)N5C([H])([H])C([H])([H])C([H])([H])C([H])(n6nc(-c7c([H])c([H])c(Oc8c([H])c([H])c(F)c([H])c8F)c([H])c7[H])c(C(=O)N([H])[H])c6N([H])[H])C5([H])[H])c(C([H])([H])[H])c([H])c4C(C([H])([H])[H])(C([H])([H])C([H])([H])C([H])([H])C([H])([H])[H])C3([H])[H])c([H])c([H])c2C1([H])[H]

$$$$
31:0:0
     RDKit          3D

 88 96  0  0  1  0  0  0  0  0999 V2000
  -29.7470  -21.7110   20.6650 C   0  0  0  0  0  3  0  0  0  0  0  0
  -27.6690  -22.8620   19.4340 C   0  0  0  0  0  3  0  0  0  0  0  0
  -29.1200  -20.5470   19.9780 C   0  0  0  0  0  0  0  0  0  0  0  0
  -27.9910  -21.3460   19.3800 C   0  0  0  0  0  0  0  0  0  0  0  0
  -29.4200  -23.2020   20.7550 C   0  0  0  0  0  0  0  0  0  0  0  0
  -28.3350  -24.0200   20.1220 C   0  0  0  0  0  0  0  0  0  0  0  0
  -27.0210  -20.5330   18.5440 C   0  0  0  0  0  1  0  0  0  0  0  0
  -29.7300  -18.8160   19.9840 C   0  0  0  0  0  3  0  0  0  0  0  0
  -29.4830  -17.2950   19.8880 C   0  0  0  0  0  3  0  0  0  0  0  0
  -30.3530  -15.8080   19.8500 C   0  0  0  0  0  0  0  0  0  0  0  0
  -30.4790  -13.2290   19.1360 C   0  0  0  0  0  2  0  0  0  0  0  0
  -29.5550  -12.7880   17.9620 C   0  0  0  0  0  2  0  0  0  0  0  0
  -28.1500  -12.4280   18.4710 C   0  0  0  0  0  2  0  0  0  0  0  0
  -27.6600  -13.4510   19.5210 C   0  0  0  0  0  3  0  0  0  0  0  0
  -28.7200  -13.8110   20.5850 C   0  0  0  0  0  2  0  0  0  0  0  0
  -29.8690  -14.4240   19.8810 N   0  0  0  0  0  0  0  0  0  0  0  0
  -31.5790  -15.7410   19.6310 O   0  0  0  0  0  0  0  0  0  0  0  0
  -25.3520  -13.9680   20.4400 C   0  0  0  0  0  0  0  0  0  0  0  0
  -24.3110  -13.1810   20.8440 C   0  0  0  0  0  0  0  0  0  0  0  0
  -24.7730  -11.8310   20.7460 C   0  0  0  0  0  0  0  0  0  0  0  0
  -26.3740  -13.1010   20.1060 N   0  0  0  0  0  0  0  0  0  0  0  0
  -26.0450  -11.8070   20.3590 N   0  0  0  0  0  0  0  0  0  0  0  0
  -24.0490  -10.5660   20.9390 C   0  0  0  0  0  0  0  0  0  0  0  0
  -24.4790   -9.6030   21.8760 C   0  0  0  0  0  3  0  0  0  0  0  0
  -23.7530   -8.4060   22.0590 C   0  0  0  0  0  3  0  0  0  0  0  0
  -22.5800   -8.1650   21.3040 C   0  0  0  0  0  0  0  0  0  0  0  0
  -22.1680   -9.1180   20.3560 C   0  0  0  0  0  3  0  0  0  0  0  0
  -22.8960  -10.3050   20.1720 C   0  0  0  0  0  3  0  0  0  0  0  0
  -21.8260   -7.0210   21.3950 O   0  0  0  0  0  0  0  0  0  0  0  0
  -21.7110   -6.3260   22.5730 C   0  0  0  0  0  0  0  0  0  0  0  0
  -21.1380   -6.9040   23.7270 C   0  0  0  0  0  3  0  0  0  0  0  0
  -20.9760   -6.1330   24.8940 C   0  0  0  0  0  3  0  0  0  0  0  0
  -21.3760   -4.7830   24.9090 C   0  0  0  0  0  0  0  0  0  0  0  0
  -21.9410   -4.2030   23.7590 C   0  0  0  0  0  3  0  0  0  0  0  0
  -22.1040   -4.9720   22.5940 C   0  0  0  0  0  0  0  0  0  0  0  0
  -22.6300   -4.4030   21.4830 F   0  0  0  0  0  0  0  0  0  0  0  0
  -21.2120   -4.0390   26.0280 F   0  0  0  0  0  0  0  0  0  0  0  0
  -22.9330  -13.6550   21.1970 C   0  0  0  0  0  0  0  0  0  0  0  0
  -22.2560  -12.9530   22.0970 N   0  0  0  0  0  0  0  0  0  0  0  0
  -22.4690  -14.6860   20.7110 O   0  0  0  0  0  0  0  0  0  0  0  0
  -22.6460  -12.1210   22.5140 H   0  0  0  0  0  0  0  0  0  0  0  0
  -21.3330  -13.2550   22.3760 H   0  0  0  0  0  0  0  0  0  0  0  0
  -25.5080  -15.3440   20.2940 N   0  0  0  0  0  0  0  0  0  0  0  0
  -24.7490  -15.9930   20.4690 H   0  0  0  0  0  0  0  0  0  0  0  0
  -26.3340  -15.7900   19.9170 H   0  0  0  0  0  0  0  0  0  0  0  0
  -29.7840  -24.7760   22.5080 C   0  0  0  0  0  1  0  0  0  0  0  0
  -30.3200  -23.8540   21.5650 O   0  0  0  0  0  0  0  0  0  0  0  0
  -28.1920  -25.6460   20.1780 O   0  0  0  0  0  0  0  0  0  0  0  0
  -24.5660  -31.8460   23.1950 C   0  0  0  0  0  0  0  0  0  0  0  0
  -27.1640  -26.8150   20.1720 C   0  0  0  0  0  0  0  0  0  0  0  0
  -23.4150  -30.4740   21.5110 C   0  0  0  0  0  3  0  0  0  0  0  0
  -24.8930  -28.8490   20.1010 C   0  0  0  0  0  0  0  0  0  0  0  0
  -25.9950  -30.6190   21.4450 C   0  0  0  0  0  2  0  0  0  0  0  0
  -26.0720  -29.1960   20.7700 C   0  0  0  0  0  0  0  0  0  0  0  0
  -27.1890  -28.2070   20.7740 C   0  0  0  0  0  3  0  0  0  0  0  0
  -25.9550  -26.6830   19.4440 C   0  0  0  0  0  3  0  0  0  0  0  0
  -24.8730  -27.6200   19.4160 C   0  0  0  0  0  3  0  0  0  0  0  0
  -23.6850  -29.7990   20.1340 C   0  0  0  0  0  2  0  0  0  0  0  0
  -24.6820  -31.0140   22.1030 N   0  0  0  0  0  0  0  0  0  0  0  0
  -23.4620  -32.1330   23.6900 O   0  0  0  0  0  0  0  0  0  0  0  0
  -22.6840  -29.4780   22.4510 C   0  0  0  0  0  0  0  0  0  0  0  0
  -21.3540  -29.3250   22.3020 N   0  0  0  0  0  0  0  0  0  0  0  0
  -23.3260  -28.8390   23.2880 O   0  0  0  0  0  0  0  0  0  0  0  0
  -20.8860  -29.8910   21.6060 H   0  0  0  0  0  0  0  0  0  0  0  0
  -17.9460  -28.1660   22.8060 C   0  0  0  0  0  0  0  0  0  0  0  0
  -20.5150  -28.3730   23.0420 C   0  0  0  0  0  3  0  0  0  0  0  0
  -20.5790  -26.9660   22.4030 C   0  0  0  0  0  2  0  0  0  0  0  0
  -19.4570  -26.7130   21.3900 C   0  0  0  0  0  2  0  0  0  0  0  0
  -18.0870  -26.8500   22.0600 C   0  0  0  0  0  2  0  0  0  0  0  0
  -19.0850  -28.8890   23.2530 C   0  0  0  0  0  0  0  0  0  0  0  0
  -18.8950  -30.1200   23.9170 C   0  0  0  0  0  3  0  0  0  0  0  0
  -17.6000  -30.6290   24.1340 C   0  0  0  0  0  3  0  0  0  0  0  0
  -16.4770  -29.9040   23.6990 C   0  0  0  0  0  3  0  0  0  0  0  0
  -16.6520  -28.6740   23.0420 C   0  0  0  0  0  3  0  0  0  0  0  0
  -25.8130  -32.4900   23.8740 C   0  0  0  0  0  3  0  0  0  0  0  0
  -25.5000  -33.9030   24.1680 N   0  0  0  0  0  0  0  0  0  0  0  0
  -25.8710  -34.9490   23.4170 C   0  0  0  0  0  0  0  0  0  0  0  0
  -26.5680  -34.8250   22.4070 O   0  0  0  0  0  0  0  0  0  0  0  0
  -24.8820  -34.0720   24.9480 H   0  0  0  0  0  0  0  0  0  0  0  0
  -24.1850  -36.7780   23.0070 C   0  0  0  0  0  1  0  0  0  0  0  0
  -25.3980  -36.3530   23.8510 C   0  0  0  0  0  3  0  0  0  0  0  0
  -27.5160  -37.2280   24.7400 C   0  0  0  0  0  1  0  0  0  0  0  0
  -26.4520  -37.3890   23.7520 N   0  0  0  0  0  0  0  0  0  0  0  0
  -26.0570  -38.3190   23.8590 H   0  0  0  0  0  0  0  0  0  0  0  0
  -26.2440  -31.7520   25.2040 C   0  0  1  0  0  0  0  0  0  0  0  0
  -25.0900  -31.5670   26.2170 C   0  0  0  0  0  1  0  0  0  0  0  0
  -26.8220  -30.3520   24.9000 C   0  0  0  0  0  1  0  0  0  0  0  0
  -27.3720  -32.5480   25.9020 C   0  0  0  0  0  1  0  0  0  0  0  0
  1  5  1  0
  2  6  1  0
  3  8  1  0
  3  1  2  0
  4  2  2  0
  4  3  1  0
  5 47  1  0
  6 48  1  0
  6  5  2  0
  7  4  1  0
  9  8  2  0
 10 16  1  0
 10  9  1  0
 11 16  1  0
 12 13  1  0
 12 11  1  0
 14 13  1  0
 14 21  1  0
 14 15  1  0
 16 15  1  0
 17 10  2  0
 18 19  2  0
 19 38  1  0
 20 19  1  0
 20 23  1  0
 21 22  1  0
 21 18  1  0
 22 20  2  0
 23 24  1  0
 24 25  2  0
 26 29  1  0
 26 25  1  0
 27 26  2  0
 28 27  1  0
 28 23  2  0
 29 30  1  0
 30 35  2  0
 30 31  1  0
 31 32  2  0
 32 33  1  0
 33 37  1  0
 34 33  2  0
 35 34  1  0
 36 35  1  0
 38 39  1  0
 39 42  1  0
 39 41  1  0
 40 38  2  0
 43 18  1  0
 43 44  1  0
 45 43  1  0
 47 46  1  0
 49 60  2  0
 50 48  1  0
 50 55  1  0
 51 59  1  0
 51 61  1  0
 52 58  1  0
 52 54  1  0
 53 59  1  0
 54 55  2  0
 54 53  1  0
 56 50  2  0
 57 56  1  0
 57 52  2  0
 58 51  1  0
 59 49  1  0
 61 63  2  0
 62 61  1  0
 64 62  1  0
 65 74  2  0
 65 70  1  0
 66 62  1  0
 66 70  1  0
 67 66  1  0
 68 69  1  0
 68 67  1  0
 69 65  1  0
 70 71  2  0
 71 72  1  0
 73 72  2  0
 74 73  1  0
 75 49  1  0
 75 76  1  0
 75 85  1  0
 76 79  1  0
 77 81  1  0
 77 76  1  0
 78 77  2  0
 81 80  1  0
 83 81  1  0
 83 84  1  0
 83 82  1  0
 85 88  1  1
 85 86  1  0
 87 85  1  0
M  ISO  4   6 101   9 100  10 100  48 101
M  END
>  <TORSDO>  (32) 
F 18

>  <SCORE>  (32) 
-15.377

>  <name>  (32) 
31

>  <ligand_id>  (32) 
31

>  <original_smiles>  (32) 
[H]C(C(=O)N1C([H])([H])C([H])([H])C([H])([H])C([H])(n2nc(-c3c([H])c([H])c(Oc4c([H])c([H])c(F)c([H])c4F)c([H])c3[H])c(C(=O)N([H])[H])c2N([H])[H])C1([H])[H])=C([H])c1c([H])c(OC([H])([H])[H])c(Oc2c([H])c([H])c3c(c2[H])C([H])([H])N(C(=O)C([H])(N([H])C(=O)C([H])(N([H])C([H])([H])[H])C([H])([H])[H])C(C([H])([H])[H])(C([H])([H])[H])C([H])([H])[H])C([H])(C(=O)N([H])C2([H])c4c([H])c([H])c([H])c([H])c4C([H])([H])C([H])([H])C2([H])[H])C3([H])[H])c([H])c1C([H])([H])[H]

>  <smiles>  (32) 
[H]C(C(=O)N1C([H])([H])C([H])([H])C([H])([H])C([H])(n2nc(-c3c([H])c([H])c(Oc4c([H])c([H])c(F)c([H])c4F)c([H])c3[H])c(C(=O)N([H])[H])c2N([H])[H])C1([H])[H])=C([H])c1c([H])c(OC([H])([H])[H])c(Oc2c([H])c([H])c3c(c2[H])C([H])([H])N(C(=O)C([H])(N([H])C(=O)C([H])(N([H])C([H])([H])[H])C([H])([H])[H])C(C([H])([H])[H])(C([H])([H])[H])C([H])([H])[H])C([H])(C(=O)N([H])C2([H])c4c([H])c([H])c([H])c([H])c4C([H])([H])C([H])([H])C2([H])[H])C3([H])[H])c([H])c1C([H])([H])[H]

$$$$
32:0:0
     RDKit          3D

 94102  0  0  1  0  0  0  0  0999 V2000
  -30.5560  -24.5600   17.2330 C   0  0  0  0  0  3  0  0  0  0  0  0
  -30.4120  -25.9510   17.0430 C   0  0  0  0  0  3  0  0  0  0  0  0
  -29.2200  -24.6960   19.2550 C   0  0  0  0  0  3  0  0  0  0  0  0
  -29.9950  -23.9130   18.3600 C   0  0  0  0  0  0  0  0  0  0  0  0
  -29.7290  -26.7450   18.0020 C   0  0  0  0  0  0  0  0  0  0  0  0
  -29.0910  -26.0960   19.0890 C   0  0  0  0  0  0  0  0  0  0  0  0
  -30.6550  -28.7820   17.1020 C   0  0  0  0  0  1  0  0  0  0  0  0
  -29.7060  -28.1240   17.9450 O   0  0  0  0  0  0  0  0  0  0  0  0
  -30.3010  -22.4530   18.5910 C   0  0  0  0  0  0  0  0  0  0  0  0
  -31.1120  -21.8430   17.8830 O   0  0  0  0  0  0  0  0  0  0  0  0
  -29.5770  -21.6790   19.7190 C   0  0  0  0  0  2  0  0  0  0  0  0
  -30.3580  -20.4750   20.3370 C   0  0  0  0  0  2  0  0  0  0  0  0
  -29.5190  -19.1840   20.3790 C   0  0  0  0  0  2  0  0  0  0  0  0
  -30.2430  -17.9280   20.9270 C   0  0  0  0  0  2  0  0  0  0  0  0
  -29.5070  -16.6560   20.4700 C   0  0  0  0  0  2  0  0  0  0  0  0
  -30.6190  -14.4500   20.5270 C   0  0  0  0  0  0  0  0  0  0  0  0
  -30.3470  -12.3270   19.3280 C   0  0  0  0  0  2  0  0  0  0  0  0
  -29.3880  -12.5800   18.1460 C   0  0  0  0  0  2  0  0  0  0  0  0
  -27.9130  -12.4510   18.5840 C   0  0  0  0  0  2  0  0  0  0  0  0
  -27.5980  -13.2420   19.8820 C   0  0  0  0  0  3  0  0  0  0  0  0
  -28.6600  -12.9290   20.9630 C   0  0  0  0  0  2  0  0  0  0  0  0
  -29.9880  -13.2530   20.4090 N   0  0  0  0  0  0  0  0  0  0  0  0
  -31.6870  -14.7190   19.9690 O   0  0  0  0  0  0  0  0  0  0  0  0
  -29.8940  -15.4030   21.1320 N   0  0  0  0  0  0  0  0  0  0  0  0
  -29.1880  -15.0420   21.7580 H   0  0  0  0  0  0  0  0  0  0  0  0
  -25.1990  -13.8530   20.6000 C   0  0  0  0  0  0  0  0  0  0  0  0
  -24.1320  -13.0780   20.9760 C   0  0  0  0  0  0  0  0  0  0  0  0
  -24.5950  -11.7260   20.9350 C   0  0  0  0  0  0  0  0  0  0  0  0
  -26.2430  -12.9710   20.3600 N   0  0  0  0  0  0  0  0  0  0  0  0
  -25.8810  -11.6870   20.6140 N   0  0  0  0  0  0  0  0  0  0  0  0
  -23.8720  -10.4590   21.1220 C   0  0  0  0  0  0  0  0  0  0  0  0
  -24.3280   -9.4760   22.0260 C   0  0  0  0  0  3  0  0  0  0  0  0
  -23.6070   -8.2770   22.2070 C   0  0  0  0  0  3  0  0  0  0  0  0
  -22.4130   -8.0510   21.4800 C   0  0  0  0  0  0  0  0  0  0  0  0
  -21.9730   -9.0250   20.5650 C   0  0  0  0  0  3  0  0  0  0  0  0
  -22.6980  -10.2150   20.3820 C   0  0  0  0  0  3  0  0  0  0  0  0
  -21.6600   -6.9050   21.5690 O   0  0  0  0  0  0  0  0  0  0  0  0
  -21.6590   -6.1320   22.7030 C   0  0  0  0  0  0  0  0  0  0  0  0
  -21.3060   -6.6570   23.9650 C   0  0  0  0  0  3  0  0  0  0  0  0
  -21.2500   -5.8090   25.0890 C   0  0  0  0  0  3  0  0  0  0  0  0
  -21.5370   -4.4370   24.9550 C   0  0  0  0  0  0  0  0  0  0  0  0
  -21.8880   -3.9140   23.6980 C   0  0  0  0  0  3  0  0  0  0  0  0
  -21.9440   -4.7570   22.5750 C   0  0  0  0  0  0  0  0  0  0  0  0
  -22.2570   -4.2410   21.3610 F   0  0  0  0  0  0  0  0  0  0  0  0
  -21.4790   -3.6210   26.0350 F   0  0  0  0  0  0  0  0  0  0  0  0
  -22.7340  -13.5510   21.2570 C   0  0  0  0  0  0  0  0  0  0  0  0
  -22.0120  -12.8500   22.1240 N   0  0  0  0  0  0  0  0  0  0  0  0
  -22.2890  -14.5760   20.7470 O   0  0  0  0  0  0  0  0  0  0  0  0
  -22.3840  -12.0260   22.5710 H   0  0  0  0  0  0  0  0  0  0  0  0
  -21.0790  -13.1580   22.3600 H   0  0  0  0  0  0  0  0  0  0  0  0
  -25.3750  -15.2230   20.4220 N   0  0  0  0  0  0  0  0  0  0  0  0
  -24.6410  -15.9110   20.5510 H   0  0  0  0  0  0  0  0  0  0  0  0
  -26.2260  -15.6280   20.0580 H   0  0  0  0  0  0  0  0  0  0  0  0
  -28.5280  -26.8080   20.1300 O   0  0  0  0  0  0  0  0  0  0  0  0
  -24.6660  -31.8960   23.2030 C   0  0  0  0  0  0  0  0  0  0  0  0
  -27.3390  -27.5020   20.0530 C   0  0  0  0  0  0  0  0  0  0  0  0
  -23.4440  -30.4770   21.5820 C   0  0  0  0  0  3  0  0  0  0  0  0
  -24.8950  -28.9400   20.1380 C   0  0  0  0  0  0  0  0  0  0  0  0
  -25.9610  -30.8630   21.3410 C   0  0  0  0  0  2  0  0  0  0  0  0
  -26.0540  -29.4930   20.6990 C   0  0  0  0  0  0  0  0  0  0  0  0
  -27.2700  -28.7790   20.6560 C   0  0  0  0  0  3  0  0  0  0  0  0
  -26.1620  -26.9450   19.5080 C   0  0  0  0  0  3  0  0  0  0  0  0
  -24.9430  -27.6620   19.5430 C   0  0  0  0  0  3  0  0  0  0  0  0
  -23.6340  -29.7760   20.2080 C   0  0  0  0  0  2  0  0  0  0  0  0
  -24.7090  -31.0920   22.1030 N   0  0  0  0  0  0  0  0  0  0  0  0
  -23.5920  -32.1630   23.7590 O   0  0  0  0  0  0  0  0  0  0  0  0
  -22.8110  -29.4640   22.5600 C   0  0  0  0  0  0  0  0  0  0  0  0
  -21.4870  -29.2730   22.4480 N   0  0  0  0  0  0  0  0  0  0  0  0
  -23.5100  -28.8520   23.3750 O   0  0  0  0  0  0  0  0  0  0  0  0
  -20.9910  -29.8130   21.7520 H   0  0  0  0  0  0  0  0  0  0  0  0
  -18.1270  -28.0450   22.9700 C   0  0  0  0  0  0  0  0  0  0  0  0
  -20.6840  -28.3340   23.2300 C   0  0  0  0  0  3  0  0  0  0  0  0
  -20.8010  -26.9000   22.6650 C   0  0  0  0  0  2  0  0  0  0  0  0
  -19.6980  -26.5560   21.6580 C   0  0  0  0  0  2  0  0  0  0  0  0
  -18.3170  -26.6930   22.3040 C   0  0  0  0  0  2  0  0  0  0  0  0
  -19.2410  -28.8230   23.3900 C   0  0  0  0  0  0  0  0  0  0  0  0
  -19.0110  -30.0890   23.9720 C   0  0  0  0  0  3  0  0  0  0  0  0
  -17.7040  -30.5790   24.1410 C   0  0  0  0  0  3  0  0  0  0  0  0
  -16.6060  -29.7990   23.7380 C   0  0  0  0  0  3  0  0  0  0  0  0
  -16.8200  -28.5350   23.1600 C   0  0  0  0  0  3  0  0  0  0  0  0
  -25.9580  -32.5330   23.8040 C   0  0  0  0  0  3  0  0  0  0  0  0
  -25.6440  -33.9250   24.1540 N   0  0  0  0  0  0  0  0  0  0  0  0
  -25.9570  -34.9880   23.4010 C   0  0  0  0  0  0  0  0  0  0  0  0
  -26.6120  -34.9010   22.3590 O   0  0  0  0  0  0  0  0  0  0  0  0
  -25.0570  -34.0640   24.9630 H   0  0  0  0  0  0  0  0  0  0  0  0
  -24.2090  -36.7690   23.0910 C   0  0  0  0  0  1  0  0  0  0  0  0
  -25.4650  -36.3670   23.8790 C   0  0  0  0  0  3  0  0  0  0  0  0
  -27.6070  -37.2590   24.6850 C   0  0  0  0  0  1  0  0  0  0  0  0
  -26.4880  -37.4300   23.7620 N   0  0  0  0  0  0  0  0  0  0  0  0
  -26.0780  -38.3470   23.9250 H   0  0  0  0  0  0  0  0  0  0  0  0
  -26.5100  -31.7560   25.0620 C   0  0  1  0  0  0  0  0  0  0  0  0
  -25.4400  -31.5010   26.1500 C   0  0  0  0  0  1  0  0  0  0  0  0
  -27.0960  -30.3880   24.6420 C   0  0  0  0  0  1  0  0  0  0  0  0
  -27.6700  -32.5530   25.7020 C   0  0  0  0  0  1  0  0  0  0  0  0
  1  4  1  0
  2  1  2  0
  2  5  1  0
  4  9  1  0
  4  3  2  0
  5  6  2  0
  6  3  1  0
  6 54  1  0
  7  8  1  0
  8  5  1  0
  9 11  1  0
 10  9  2  0
 11 12  1  0
 12 13  1  0
 13 14  1  0
 15 14  1  0
 15 24  1  0
 16 24  1  0
 17 22  1  0
 18 19  1  0
 18 17  1  0
 20 19  1  0
 20 29  1  0
 20 21  1  0
 22 16  1  0
 22 21  1  0
 23 16  2  0
 24 25  1  0
 26 27  2  0
 27 46  1  0
 28 27  1  0
 28 31  1  0
 29 26  1  0
 29 30  1  0
 30 28  2  0
 31 32  1  0
 32 33  2  0
 34 37  1  0
 34 33  1  0
 35 34  2  0
 36 35  1  0
 36 31  2  0
 37 38  1  0
 38 39  1  0
 39 40  2  0
 41 40  1  0
 41 45  1  0
 42 41  2  0
 43 38  2  0
 43 42  1  0
 44 43  1  0
 46 47  1  0
 47 50  1  0
 47 49  1  0
 48 46  2  0
 51 52  1  0
 51 26  1  0
 53 51  1  0
 55 66  2  0
 56 54  1  0
 56 61  1  0
 57 65  1  0
 57 67  1  0
 58 64  1  0
 58 60  1  0
 59 65  1  0
 60 59  1  0
 61 60  2  0
 62 63  1  0
 62 56  2  0
 63 58  2  0
 64 57  1  0
 65 55  1  0
 67 69  2  0
 68 67  1  0
 70 68  1  0
 71 80  2  0
 71 76  1  0
 72 68  1  0
 72 76  1  0
 73 72  1  0
 74 75  1  0
 74 73  1  0
 75 71  1  0
 76 77  2  0
 77 78  1  0
 79 78  2  0
 80 79  1  0
 81 55  1  0
 81 82  1  0
 81 91  1  0
 82 85  1  0
 83 87  1  0
 83 82  1  0
 84 83  2  0
 87 86  1  0
 89 87  1  0
 89 90  1  0
 89 88  1  0
 91 94  1  1
 91 92  1  0
 93 91  1  0
M  ISO  4   6 101  16 100  24 100  54 101
M  END
>  <TORSDO>  (33) 
F 23

>  <SCORE>  (33) 
-12.482

>  <name>  (33) 
32

>  <ligand_id>  (33) 
32

>  <original_smiles>  (33) 
[H]c1c([H])c([H])c2c(c1[H])C([H])([H])C([H])([H])C([H])([H])C2([H])N([H])C(=O)C1([H])N(C(=O)C([H])(N([H])C(=O)C([H])(N([H])C([H])([H])[H])C([H])([H])[H])C(C([H])([H])[H])(C([H])([H])[H])C([H])([H])[H])C([H])([H])c2c([H])c(Oc3c([H])c(C(=O)C([H])([H])C([H])([H])C([H])([H])C([H])([H])C([H])([H])N([H])C(=O)N4C([H])([H])C([H])([H])C([H])([H])C([H])(n5nc(-c6c([H])c([H])c(Oc7c([H])c([H])c(F)c([H])c7F)c([H])c6[H])c(C(=O)N([H])[H])c5N([H])[H])C4([H])[H])c([H])c([H])c3OC([H])([H])[H])c([H])c([H])c2C1([H])[H]

>  <smiles>  (33) 
[H]c1c([H])c([H])c2c(c1[H])C([H])([H])C([H])([H])C([H])([H])C2([H])N([H])C(=O)C1([H])N(C(=O)C([H])(N([H])C(=O)C([H])(N([H])C([H])([H])[H])C([H])([H])[H])C(C([H])([H])[H])(C([H])([H])[H])C([H])([H])[H])C([H])([H])c2c([H])c(Oc3c([H])c(C(=O)C([H])([H])C([H])([H])C([H])([H])C([H])([H])C([H])([H])N([H])C(=O)N4C([H])([H])C([H])([H])C([H])([H])C([H])(n5nc(-c6c([H])c([H])c(Oc7c([H])c([H])c(F)c([H])c7F)c([H])c6[H])c(C(=O)N([H])[H])c5N([H])[H])C4([H])[H])c([H])c([H])c3OC([H])([H])[H])c([H])c([H])c2C1([H])[H]

$$$$
33:0:0
     RDKit          3D

 93101  0  0  1  0  0  0  0  0999 V2000
  -32.1500  -25.1940   18.2530 C   0  0  0  0  0  3  0  0  0  0  0  0
  -32.5500  -24.0370   18.9500 C   0  0  0  0  0  3  0  0  0  0  0  0
  -30.8420  -25.6880   18.4030 C   0  0  0  0  0  3  0  0  0  0  0  0
  -30.3370  -23.8700   19.9520 C   0  0  0  0  0  3  0  0  0  0  0  0
  -31.6540  -23.3620   19.8170 C   0  0  0  0  0  0  0  0  0  0  0  0
  -29.9290  -25.0210   19.2420 C   0  0  0  0  0  0  0  0  0  0  0  0
  -32.1170  -22.1130   20.5040 C   0  0  0  0  0  0  0  0  0  0  0  0
  -33.1170  -21.4920   20.1290 O   0  0  0  0  0  0  0  0  0  0  0  0
  -31.3510  -21.6230   21.7480 C   0  0  0  0  0  2  0  0  0  0  0  0
  -31.5660  -20.1360   22.1210 C   0  0  0  0  0  2  0  0  0  0  0  0
  -30.8170  -19.1590   21.1950 C   0  0  0  0  0  2  0  0  0  0  0  0
  -30.9140  -17.6880   21.6300 C   0  0  0  0  0  2  0  0  0  0  0  0
  -30.0050  -16.8070   20.7550 C   0  0  0  0  0  2  0  0  0  0  0  0
  -30.6630  -14.4260   20.5360 C   0  0  0  0  0  0  0  0  0  0  0  0
  -30.3500  -12.2910   19.3490 C   0  0  0  0  0  2  0  0  0  0  0  0
  -29.4140  -12.5480   18.1480 C   0  0  0  0  0  2  0  0  0  0  0  0
  -27.9360  -12.4210   18.5700 C   0  0  0  0  0  2  0  0  0  0  0  0
  -27.6070  -13.2310   19.8540 C   0  0  0  0  0  3  0  0  0  0  0  0
  -28.6560  -12.9560   20.9570 C   0  0  0  0  0  2  0  0  0  0  0  0
  -29.9930  -13.2490   20.4070 N   0  0  0  0  0  0  0  0  0  0  0  0
  -31.7480  -14.6590   19.9990 O   0  0  0  0  0  0  0  0  0  0  0  0
  -29.9640  -15.3960   21.1410 N   0  0  0  0  0  0  0  0  0  0  0  0
  -29.1270  -15.0950   21.6180 H   0  0  0  0  0  0  0  0  0  0  0  0
  -25.2070  -13.8520   20.5590 C   0  0  0  0  0  0  0  0  0  0  0  0
  -24.1320  -13.0850   20.9200 C   0  0  0  0  0  0  0  0  0  0  0  0
  -24.5820  -11.7300   20.8730 C   0  0  0  0  0  0  0  0  0  0  0  0
  -26.2470  -12.9660   20.3210 N   0  0  0  0  0  0  0  0  0  0  0  0
  -25.8720  -11.6830   20.5630 N   0  0  0  0  0  0  0  0  0  0  0  0
  -23.8460  -10.4730   21.0520 C   0  0  0  0  0  0  0  0  0  0  0  0
  -24.3000   -9.4750   21.9420 C   0  0  0  0  0  3  0  0  0  0  0  0
  -23.5700   -8.2790   22.1080 C   0  0  0  0  0  3  0  0  0  0  0  0
  -22.3690   -8.0750   21.3880 C   0  0  0  0  0  0  0  0  0  0  0  0
  -21.9340   -9.0640   20.4880 C   0  0  0  0  0  3  0  0  0  0  0  0
  -22.6630  -10.2520   20.3180 C   0  0  0  0  0  3  0  0  0  0  0  0
  -21.6050   -6.9360   21.4680 O   0  0  0  0  0  0  0  0  0  0  0  0
  -21.6150   -6.1360   22.5830 C   0  0  0  0  0  0  0  0  0  0  0  0
  -21.3070   -6.6410   23.8660 C   0  0  0  0  0  3  0  0  0  0  0  0
  -21.2640   -5.7710   24.9730 C   0  0  0  0  0  3  0  0  0  0  0  0
  -21.5170   -4.3960   24.7990 C   0  0  0  0  0  0  0  0  0  0  0  0
  -21.8180   -3.8910   23.5210 C   0  0  0  0  0  3  0  0  0  0  0  0
  -21.8640   -4.7590   22.4160 C   0  0  0  0  0  0  0  0  0  0  0  0
  -22.1340   -4.2650   21.1840 F   0  0  0  0  0  0  0  0  0  0  0  0
  -21.4670   -3.5570   25.8600 F   0  0  0  0  0  0  0  0  0  0  0  0
  -22.7380  -13.5700   21.2010 C   0  0  0  0  0  0  0  0  0  0  0  0
  -22.0040  -12.8730   22.0600 N   0  0  0  0  0  0  0  0  0  0  0  0
  -22.3070  -14.6030   20.6910 O   0  0  0  0  0  0  0  0  0  0  0  0
  -22.3650  -12.0390   22.4990 H   0  0  0  0  0  0  0  0  0  0  0  0
  -21.0690  -13.1840   22.2860 H   0  0  0  0  0  0  0  0  0  0  0  0
  -25.3840  -15.2240   20.3960 N   0  0  0  0  0  0  0  0  0  0  0  0
  -24.6150  -15.8790   20.4860 H   0  0  0  0  0  0  0  0  0  0  0  0
  -26.2390  -15.6610   20.0720 H   0  0  0  0  0  0  0  0  0  0  0  0
  -28.5030  -25.5290   19.3450 C   0  0  0  0  0  2  0  0  0  0  0  0
  -28.4350  -26.7670   20.0470 O   0  0  0  0  0  0  0  0  0  0  0  0
  -24.6190  -31.8740   23.1990 C   0  0  0  0  0  0  0  0  0  0  0  0
  -27.2290  -27.4350   20.0830 C   0  0  0  0  0  0  0  0  0  0  0  0
  -23.3900  -30.4690   21.5770 C   0  0  0  0  0  3  0  0  0  0  0  0
  -24.8220  -28.9210   20.1450 C   0  0  0  0  0  0  0  0  0  0  0  0
  -25.9100  -30.8290   21.3370 C   0  0  0  0  0  2  0  0  0  0  0  0
  -25.9870  -29.4520   20.7110 C   0  0  0  0  0  0  0  0  0  0  0  0
  -27.1890  -28.7120   20.6860 C   0  0  0  0  0  3  0  0  0  0  0  0
  -26.0360  -26.9060   19.5340 C   0  0  0  0  0  3  0  0  0  0  0  0
  -24.8390  -27.6420   19.5630 C   0  0  0  0  0  3  0  0  0  0  0  0
  -23.5790  -29.7800   20.2000 C   0  0  0  0  0  2  0  0  0  0  0  0
  -24.6600  -31.0710   22.0970 N   0  0  0  0  0  0  0  0  0  0  0  0
  -23.5460  -32.1490   23.7520 O   0  0  0  0  0  0  0  0  0  0  0  0
  -22.7520  -29.4510   22.5500 C   0  0  0  0  0  0  0  0  0  0  0  0
  -21.4260  -29.2730   22.4400 N   0  0  0  0  0  0  0  0  0  0  0  0
  -23.4460  -28.8290   23.3570 O   0  0  0  0  0  0  0  0  0  0  0  0
  -20.9300  -29.8310   21.7600 H   0  0  0  0  0  0  0  0  0  0  0  0
  -18.0580  -28.0790   22.9670 C   0  0  0  0  0  0  0  0  0  0  0  0
  -20.6160  -28.3380   23.2210 C   0  0  0  0  0  3  0  0  0  0  0  0
  -20.7160  -26.9050   22.6500 C   0  0  0  0  0  2  0  0  0  0  0  0
  -19.6060  -26.5760   21.6460 C   0  0  0  0  0  2  0  0  0  0  0  0
  -18.2300  -26.7250   22.3000 C   0  0  0  0  0  2  0  0  0  0  0  0
  -19.1780  -28.8430   23.3850 C   0  0  0  0  0  0  0  0  0  0  0  0
  -18.9650  -30.1110   23.9680 C   0  0  0  0  0  3  0  0  0  0  0  0
  -17.6610  -30.6150   24.1360 C   0  0  0  0  0  3  0  0  0  0  0  0
  -16.5550  -29.8470   23.7340 C   0  0  0  0  0  3  0  0  0  0  0  0
  -16.7540  -28.5810   23.1550 C   0  0  0  0  0  3  0  0  0  0  0  0
  -25.9140  -32.5060   23.7980 C   0  0  0  0  0  3  0  0  0  0  0  0
  -25.5970  -33.8950   24.1550 N   0  0  0  0  0  0  0  0  0  0  0  0
  -25.9080  -34.9630   23.4070 C   0  0  0  0  0  0  0  0  0  0  0  0
  -26.5640  -34.8810   22.3650 O   0  0  0  0  0  0  0  0  0  0  0  0
  -24.9990  -34.0310   24.9580 H   0  0  0  0  0  0  0  0  0  0  0  0
  -24.1530  -36.7470   23.1220 C   0  0  0  0  0  1  0  0  0  0  0  0
  -25.4160  -36.3390   23.8950 C   0  0  0  0  0  3  0  0  0  0  0  0
  -27.5680  -37.2320   24.6770 C   0  0  0  0  0  1  0  0  0  0  0  0
  -26.4340  -37.4050   23.7730 N   0  0  0  0  0  0  0  0  0  0  0  0
  -26.0220  -38.3170   23.9510 H   0  0  0  0  0  0  0  0  0  0  0  0
  -26.4680  -31.7190   25.0480 C   0  0  1  0  0  0  0  0  0  0  0  0
  -25.4070  -31.4540   26.1410 C   0  0  0  0  0  1  0  0  0  0  0  0
  -27.0510  -30.3540   24.6150 C   0  0  0  0  0  1  0  0  0  0  0  0
  -27.6340  -32.5110   25.6850 C   0  0  0  0  0  1  0  0  0  0  0  0
  1  3  2  0
  1  2  1  0
  2  5  2  0
  3  6  1  0
  5  4  1  0
  5  7  1  0
  6 52  1  0
  6  4  2  0
  7  9  1  0
  8  7  2  0
  9 10  1  0
 11 12  1  0
 11 10  1  0
 13 22  1  0
 13 12  1  0
 14 22  1  0
 15 20  1  0
 16 17  1  0
 16 15  1  0
 18 17  1  0
 18 27  1  0
 18 19  1  0
 20 14  1  0
 20 19  1  0
 21 14  2  0
 22 23  1  0
 24 25  2  0
 25 44  1  0
 26 25  1  0
 26 29  1  0
 27 24  1  0
 27 28  1  0
 28 26  2  0
 29 30  1  0
 30 31  2  0
 32 35  1  0
 32 31  1  0
 33 32  2  0
 34 33  1  0
 34 29  2  0
 35 36  1  0
 36 37  1  0
 37 38  2  0
 39 38  1  0
 39 43  1  0
 40 39  2  0
 41 36  2  0
 41 40  1  0
 42 41  1  0
 44 45  1  0
 45 48  1  0
 45 47  1  0
 46 44  2  0
 49 50  1  0
 49 24  1  0
 51 49  1  0
 52 53  1  0
 53 55  1  0
 54 65  2  0
 55 60  1  0
 56 64  1  0
 56 66  1  0
 57 63  1  0
 57 59  1  0
 58 64  1  0
 59 58  1  0
 60 59  2  0
 61 62  1  0
 61 55  2  0
 62 57  2  0
 63 56  1  0
 64 54  1  0
 66 68  2  0
 67 66  1  0
 69 67  1  0
 70 79  2  0
 70 75  1  0
 71 67  1  0
 71 75  1  0
 72 71  1  0
 73 74  1  0
 73 72  1  0
 74 70  1  0
 75 76  2  0
 76 77  1  0
 78 77  2  0
 79 78  1  0
 80 54  1  0
 80 81  1  0
 80 90  1  0
 81 84  1  0
 82 86  1  0
 82 81  1  0
 83 82  2  0
 86 85  1  0
 88 86  1  0
 88 89  1  0
 88 87  1  0
 90 93  1  1
 90 91  1  0
 92 90  1  0
M  ISO  4  14 100  22 100  52 101  53 101
M  END
>  <TORSDO>  (34) 
F 23

>  <SCORE>  (34) 
-12.828

>  <name>  (34) 
33

>  <ligand_id>  (34) 
33

>  <original_smiles>  (34) 
[H]c1c([H])c(C(=O)C([H])([H])C([H])([H])C([H])([H])C([H])([H])C([H])([H])N([H])C(=O)N2C([H])([H])C([H])([H])C([H])([H])C([H])(n3nc(-c4c([H])c([H])c(Oc5c([H])c([H])c(F)c([H])c5F)c([H])c4[H])c(C(=O)N([H])[H])c3N([H])[H])C2([H])[H])c([H])c(C([H])([H])Oc2c([H])c([H])c3c(c2[H])C([H])([H])N(C(=O)C([H])(N([H])C(=O)C([H])(N([H])C([H])([H])[H])C([H])([H])[H])C(C([H])([H])[H])(C([H])([H])[H])C([H])([H])[H])C([H])(C(=O)N([H])C2([H])c4c([H])c([H])c([H])c([H])c4C([H])([H])C([H])([H])C2([H])[H])C3([H])[H])c1[H]

>  <smiles>  (34) 
[H]c1c([H])c(C(=O)C([H])([H])C([H])([H])C([H])([H])C([H])([H])C([H])([H])N([H])C(=O)N2C([H])([H])C([H])([H])C([H])([H])C([H])(n3nc(-c4c([H])c([H])c(Oc5c([H])c([H])c(F)c([H])c5F)c([H])c4[H])c(C(=O)N([H])[H])c3N([H])[H])C2([H])[H])c([H])c(C([H])([H])Oc2c([H])c([H])c3c(c2[H])C([H])([H])N(C(=O)C([H])(N([H])C(=O)C([H])(N([H])C([H])([H])[H])C([H])([H])[H])C(C([H])([H])[H])(C([H])([H])[H])C([H])([H])[H])C([H])(C(=O)N([H])C2([H])c4c([H])c([H])c([H])c([H])c4C([H])([H])C([H])([H])C2([H])[H])C3([H])[H])c1[H]

$$$$
34:0:0
     RDKit          3D

 89 97  0  0  1  0  0  0  0  0999 V2000
  -28.7880  -21.5610   19.1260 C   0  0  0  0  0  3  0  0  0  0  0  0
  -28.9000  -23.2020   21.2410 C   0  0  0  0  0  3  0  0  0  0  0  0
  -29.1870  -20.6350   20.2320 C   0  0  0  0  0  0  0  0  0  0  0  0
  -28.5090  -23.0770   19.0660 C   0  0  0  0  0  0  0  0  0  0  0  0
  -29.1820  -21.6900   21.2970 C   0  0  0  0  0  0  0  0  0  0  0  0
  -28.4940  -24.1210   20.1380 C   0  0  0  0  0  0  0  0  0  0  0  0
  -28.2080  -23.6210   17.6820 C   0  0  0  0  0  1  0  0  0  0  0  0
  -29.4880  -21.1670   22.6890 C   0  0  0  0  0  1  0  0  0  0  0  0
  -29.6780  -17.3520   20.3440 C   0  0  0  0  0  0  0  0  0  0  0  0
  -29.1580  -18.8190   20.3880 C   0  0  0  0  0  0  0  0  0  0  0  0
  -30.5530  -15.8750   20.1890 C   0  0  0  0  0  0  0  0  0  0  0  0
  -30.6510  -13.3350   19.3450 C   0  0  0  0  0  2  0  0  0  0  0  0
  -29.7360  -12.9740   18.1380 C   0  0  0  0  0  2  0  0  0  0  0  0
  -28.3190  -12.6110   18.6070 C   0  0  0  0  0  2  0  0  0  0  0  0
  -27.8300  -13.5860   19.7020 C   0  0  0  0  0  3  0  0  0  0  0  0
  -28.8790  -13.8740   20.7990 C   0  0  0  0  0  2  0  0  0  0  0  0
  -30.0530  -14.4980   20.1470 N   0  0  0  0  0  0  0  0  0  0  0  0
  -31.7800  -15.8020   19.9610 O   0  0  0  0  0  0  0  0  0  0  0  0
  -25.4910  -14.0820   20.5520 C   0  0  0  0  0  0  0  0  0  0  0  0
  -24.4440  -13.2860   20.9210 C   0  0  0  0  0  0  0  0  0  0  0  0
  -24.9180  -11.9410   20.8350 C   0  0  0  0  0  0  0  0  0  0  0  0
  -26.5300  -13.2240   20.2480 N   0  0  0  0  0  0  0  0  0  0  0  0
  -26.2020  -11.9260   20.4870 N   0  0  0  0  0  0  0  0  0  0  0  0
  -24.1990  -10.6690   21.0050 C   0  0  0  0  0  0  0  0  0  0  0  0
  -24.6250   -9.6950   21.9330 C   0  0  0  0  0  3  0  0  0  0  0  0
  -23.9010   -8.4930   22.0930 C   0  0  0  0  0  3  0  0  0  0  0  0
  -22.7370   -8.2580   21.3250 C   0  0  0  0  0  0  0  0  0  0  0  0
  -22.3290   -9.2210   20.3850 C   0  0  0  0  0  3  0  0  0  0  0  0
  -23.0540  -10.4140   20.2230 C   0  0  0  0  0  3  0  0  0  0  0  0
  -21.9850   -7.1090   21.3940 O   0  0  0  0  0  0  0  0  0  0  0  0
  -21.8690   -6.3930   22.5580 C   0  0  0  0  0  0  0  0  0  0  0  0
  -21.3380   -6.9670   23.7350 C   0  0  0  0  0  3  0  0  0  0  0  0
  -21.1710   -6.1770   24.8900 C   0  0  0  0  0  3  0  0  0  0  0  0
  -21.5240   -4.8140   24.8680 C   0  0  0  0  0  0  0  0  0  0  0  0
  -22.0480   -4.2400   23.6960 C   0  0  0  0  0  3  0  0  0  0  0  0
  -22.2160   -5.0270   22.5440 C   0  0  0  0  0  0  0  0  0  0  0  0
  -22.7010   -4.4640   21.4110 F   0  0  0  0  0  0  0  0  0  0  0  0
  -21.3580   -4.0520   25.9750 F   0  0  0  0  0  0  0  0  0  0  0  0
  -23.0520  -13.7490   21.2370 C   0  0  0  0  0  0  0  0  0  0  0  0
  -22.3520  -13.0340   22.1110 N   0  0  0  0  0  0  0  0  0  0  0  0
  -22.5950  -14.7790   20.7450 O   0  0  0  0  0  0  0  0  0  0  0  0
  -22.7360  -12.2000   22.5310 H   0  0  0  0  0  0  0  0  0  0  0  0
  -21.4200  -13.3260   22.3650 H   0  0  0  0  0  0  0  0  0  0  0  0
  -25.6430  -15.4600   20.4210 N   0  0  0  0  0  0  0  0  0  0  0  0
  -24.8850  -16.1090   20.6030 H   0  0  0  0  0  0  0  0  0  0  0  0
  -26.5000  -15.9250   20.1440 H   0  0  0  0  0  0  0  0  0  0  0  0
  -27.8830  -18.6930   20.7720 O   0  0  0  0  0  0  0  0  0  0  0  0
  -27.5140  -19.5680   20.8030 H   0  0  0  0  0  0  0  0  0  0  0  0
  -28.4200  -25.7430   20.0640 O   0  0  0  0  0  0  0  0  0  0  0  0
  -24.8420  -31.8690   23.2570 C   0  0  0  0  0  0  0  0  0  0  0  0
  -27.3990  -26.9150   20.0890 C   0  0  0  0  0  0  0  0  0  0  0  0
  -23.6650  -30.5330   21.5600 C   0  0  0  0  0  3  0  0  0  0  0  0
  -25.1230  -28.9410   20.0940 C   0  0  0  0  0  0  0  0  0  0  0  0
  -26.2430  -30.6850   21.4580 C   0  0  0  0  0  2  0  0  0  0  0  0
  -26.3110  -29.2770   20.7520 C   0  0  0  0  0  0  0  0  0  0  0  0
  -27.4310  -28.2920   20.7190 C   0  0  0  0  0  3  0  0  0  0  0  0
  -26.1780  -26.7920   19.3790 C   0  0  0  0  0  3  0  0  0  0  0  0
  -25.0940  -27.7260   19.3870 C   0  0  0  0  0  3  0  0  0  0  0  0
  -23.9140  -29.8880   20.1650 C   0  0  0  0  0  2  0  0  0  0  0  0
  -24.9400  -31.0610   22.1450 N   0  0  0  0  0  0  0  0  0  0  0  0
  -23.7460  -32.1460   23.7740 O   0  0  0  0  0  0  0  0  0  0  0  0
  -22.9470  -29.5180   22.4890 C   0  0  0  0  0  0  0  0  0  0  0  0
  -21.6180  -29.3560   22.3420 N   0  0  0  0  0  0  0  0  0  0  0  0
  -23.5990  -28.8740   23.3150 O   0  0  0  0  0  0  0  0  0  0  0  0
  -21.1420  -29.9250   21.6570 H   0  0  0  0  0  0  0  0  0  0  0  0
  -18.2390  -28.0900   22.7680 C   0  0  0  0  0  0  0  0  0  0  0  0
  -20.7910  -28.3860   23.0720 C   0  0  0  0  0  3  0  0  0  0  0  0
  -20.9190  -26.9730   22.4580 C   0  0  0  0  0  2  0  0  0  0  0  0
  -19.8360  -26.6670   21.4170 C   0  0  0  0  0  2  0  0  0  0  0  0
  -18.4440  -26.7690   22.0460 C   0  0  0  0  0  2  0  0  0  0  0  0
  -19.3390  -28.8570   23.2350 C   0  0  0  0  0  0  0  0  0  0  0  0
  -19.0900  -30.0910   23.8750 C   0  0  0  0  0  3  0  0  0  0  0  0
  -17.7740  -30.5600   24.0470 C   0  0  0  0  0  3  0  0  0  0  0  0
  -16.6880  -29.7920   23.5920 C   0  0  0  0  0  3  0  0  0  0  0  0
  -16.9210  -28.5590   22.9580 C   0  0  0  0  0  3  0  0  0  0  0  0
  -26.1010  -32.4970   23.9290 C   0  0  0  0  0  3  0  0  0  0  0  0
  -25.7620  -33.8710   24.3480 N   0  0  0  0  0  0  0  0  0  0  0  0
  -26.0650  -34.9840   23.6660 C   0  0  0  0  0  0  0  0  0  0  0  0
  -26.7160  -34.9630   22.6190 O   0  0  0  0  0  0  0  0  0  0  0  0
  -25.1790  -33.9580   25.1680 H   0  0  0  0  0  0  0  0  0  0  0  0
  -24.2980  -36.7740   23.4920 C   0  0  0  0  0  1  0  0  0  0  0  0
  -25.5730  -36.3340   24.2320 C   0  0  0  0  0  3  0  0  0  0  0  0
  -27.7130  -37.2140   25.0600 C   0  0  0  0  0  1  0  0  0  0  0  0
  -26.5850  -37.4120   24.1540 N   0  0  0  0  0  0  0  0  0  0  0  0
  -26.1660  -38.3150   24.3610 H   0  0  0  0  0  0  0  0  0  0  0  0
  -26.6130  -31.6700   25.1740 C   0  0  1  0  0  0  0  0  0  0  0  0
  -25.5150  -31.3750   26.2230 C   0  0  0  0  0  1  0  0  0  0  0  0
  -27.2110  -30.3140   24.7350 C   0  0  0  0  0  1  0  0  0  0  0  0
  -27.7540  -32.4400   25.8810 C   0  0  0  0  0  1  0  0  0  0  0  0
  1  3  1  0
  2  5  1  0
  3 10  1  0
  3  5  2  0
  4  1  2  0
  4  6  1  0
  5  8  1  0
  6  2  2  0
  7  4  1  0
  9 10  2  0
 10 47  1  0
 11  9  2  0
 12 17  1  0
 13 14  1  0
 13 12  1  0
 15 14  1  0
 15 22  1  0
 15 16  1  0
 17 11  1  0
 17 16  1  0
 18 11  2  0
 19 20  2  0
 20 39  1  0
 21 20  1  0
 21 24  1  0
 22 23  1  0
 22 19  1  0
 23 21  2  0
 24 25  1  0
 25 26  2  0
 27 30  1  0
 27 26  1  0
 28 27  2  0
 29 28  1  0
 29 24  2  0
 30 31  1  0
 31 32  1  0
 32 33  2  0
 34 33  1  0
 34 38  1  0
 35 34  2  0
 36 31  2  0
 36 35  1  0
 37 36  1  0
 39 40  1  0
 40 43  1  0
 40 42  1  0
 41 39  2  0
 44 19  1  0
 44 45  1  0
 46 44  1  0
 47 48  1  0
 49 51  1  0
 49  6  1  0
 50 61  2  0
 51 56  1  0
 52 60  1  0
 52 62  1  0
 53 59  1  0
 53 55  1  0
 54 60  1  0
 55 54  1  0
 56 55  2  0
 57 58  1  0
 57 51  2  0
 58 53  2  0
 59 52  1  0
 60 50  1  0
 62 64  2  0
 63 62  1  0
 65 63  1  0
 66 75  2  0
 66 71  1  0
 67 63  1  0
 67 71  1  0
 68 67  1  0
 69 70  1  0
 69 68  1  0
 70 66  1  0
 71 72  2  0
 72 73  1  0
 74 73  2  0
 75 74  1  0
 76 50  1  0
 76 77  1  0
 76 86  1  0
 77 80  1  0
 78 82  1  0
 78 77  1  0
 79 78  2  0
 82 81  1  0
 84 82  1  0
 84 85  1  0
 84 83  1  0
 86 89  1  1
 86 87  1  0
 88 86  1  0
M  ISO  4   6 101   9 100  11 100  49 101
M  END
>  <TORSDO>  (35) 
F 18

>  <SCORE>  (35) 
-15.328

>  <name>  (35) 
34

>  <ligand_id>  (35) 
34

>  <original_smiles>  (35) 
[H]OC(=C([H])C(=O)N1C([H])([H])C([H])([H])C([H])([H])C([H])(n2nc(-c3c([H])c([H])c(Oc4c([H])c([H])c(F)c([H])c4F)c([H])c3[H])c(C(=O)N([H])[H])c2N([H])[H])C1([H])[H])c1c([H])c(C([H])([H])[H])c(Oc2c([H])c([H])c3c(c2[H])C([H])([H])N(C(=O)C([H])(N([H])C(=O)C([H])(N([H])C([H])([H])[H])C([H])([H])[H])C(C([H])([H])[H])(C([H])([H])[H])C([H])([H])[H])C([H])(C(=O)N([H])C2([H])c4c([H])c([H])c([H])c([H])c4C([H])([H])C([H])([H])C2([H])[H])C3([H])[H])c([H])c1C([H])([H])[H]

>  <smiles>  (35) 
[H]OC(=C([H])C(=O)N1C([H])([H])C([H])([H])C([H])([H])C([H])(n2nc(-c3c([H])c([H])c(Oc4c([H])c([H])c(F)c([H])c4F)c([H])c3[H])c(C(=O)N([H])[H])c2N([H])[H])C1([H])[H])c1c([H])c(C([H])([H])[H])c(Oc2c([H])c([H])c3c(c2[H])C([H])([H])N(C(=O)C([H])(N([H])C(=O)C([H])(N([H])C([H])([H])[H])C([H])([H])[H])C(C([H])([H])[H])(C([H])([H])[H])C([H])([H])[H])C([H])(C(=O)N([H])C2([H])c4c([H])c([H])c([H])c([H])c4C([H])([H])C([H])([H])C2([H])[H])C3([H])[H])c([H])c1C([H])([H])[H]

$$$$
35:0:0
     RDKit          3D

 95104  0  0  1  0  0  0  0  0999 V2000
  -29.2260  -23.2820   20.1290 C   0  0  0  0  0  3  0  0  0  0  0  0
  -29.3220  -24.4980   22.2270 C   0  0  0  0  0  3  0  0  0  0  0  0
  -29.3350  -23.2670   21.5380 C   0  0  0  0  0  0  0  0  0  0  0  0
  -29.0820  -24.4980   19.4280 C   0  0  0  0  0  0  0  0  0  0  0  0
  -29.1970  -25.7220   21.5380 C   0  0  0  0  0  0  0  0  0  0  0  0
  -29.0420  -25.7270   20.1240 C   0  0  0  0  0  0  0  0  0  0  0  0
  -28.9510  -24.4800   17.9160 C   0  0  0  0  0  1  0  0  0  0  0  0
  -29.2320  -27.0050   22.3530 C   0  0  0  0  0  1  0  0  0  0  0  0
  -29.4360  -21.9930   22.3170 C   0  0  0  0  0  0  0  0  0  0  0  0
  -29.2090  -21.9310   23.5300 O   0  0  0  0  0  0  0  0  0  0  0  0
  -29.8640  -20.7310   21.5530 C   0  0  0  0  0  2  0  0  0  0  0  0
  -29.8150  -19.4140   22.3620 C   0  0  0  0  0  2  0  0  0  0  0  0
  -31.6020  -14.6550   19.6690 C   0  0  0  0  0  0  0  0  0  0  0  0
  -31.0240  -12.5780   18.4840 C   0  0  0  0  0  2  0  0  0  0  0  0
  -29.9740  -12.8790   17.3980 C   0  0  0  0  0  2  0  0  0  0  0  0
  -28.5520  -12.8020   17.9840 C   0  0  0  0  0  2  0  0  0  0  0  0
  -28.3980  -13.6150   19.2970 C   0  0  0  0  0  3  0  0  0  0  0  0
  -29.5530  -13.3080   20.2770 C   0  0  0  0  0  2  0  0  0  0  0  0
  -30.8270  -13.5440   19.5750 N   0  0  0  0  0  0  0  0  0  0  0  0
  -32.6390  -14.8060   19.0110 O   0  0  0  0  0  0  0  0  0  0  0  0
  -30.1250  -18.0110   20.2390 C   0  0  0  0  0  2  0  0  0  0  0  0
  -30.5590  -16.9470   22.4460 C   0  0  0  0  0  2  0  0  0  0  0  0
  -31.0400  -16.9730   19.5810 C   0  0  0  0  0  2  0  0  0  0  0  0
  -31.4200  -15.8730   21.7460 C   0  0  0  0  0  2  0  0  0  0  0  0
  -30.5980  -18.2780   21.6740 C   0  0  0  0  0  3  0  0  0  0  0  0
  -31.0620  -15.7040   20.3260 N   0  0  0  0  0  0  0  0  0  0  0  0
  -26.1380  -14.3120   20.3150 C   0  0  0  0  0  0  0  0  0  0  0  0
  -25.0720  -13.5790   20.7620 C   0  0  0  0  0  0  0  0  0  0  0  0
  -25.4390  -12.2080   20.5990 C   0  0  0  0  0  0  0  0  0  0  0  0
  -27.0930  -13.3900   19.9140 N   0  0  0  0  0  0  0  0  0  0  0  0
  -26.6800  -12.1150   20.1380 N   0  0  0  0  0  0  0  0  0  0  0  0
  -24.6600  -10.9800   20.8010 C   0  0  0  0  0  0  0  0  0  0  0  0
  -25.0520  -10.0040   21.7440 C   0  0  0  0  0  3  0  0  0  0  0  0
  -24.2770   -8.8390   21.9330 C   0  0  0  0  0  3  0  0  0  0  0  0
  -23.0960   -8.6420   21.1780 C   0  0  0  0  0  0  0  0  0  0  0  0
  -22.7230   -9.6050   20.2240 C   0  0  0  0  0  3  0  0  0  0  0  0
  -23.4980  -10.7620   20.0340 C   0  0  0  0  0  3  0  0  0  0  0  0
  -22.2950   -7.5300   21.2760 O   0  0  0  0  0  0  0  0  0  0  0  0
  -22.0720   -6.9070   22.4780 C   0  0  0  0  0  0  0  0  0  0  0  0
  -21.5310   -7.5960   23.5850 C   0  0  0  0  0  3  0  0  0  0  0  0
  -21.2530   -6.9010   24.7790 C   0  0  0  0  0  3  0  0  0  0  0  0
  -21.5060   -5.5190   24.8650 C   0  0  0  0  0  0  0  0  0  0  0  0
  -22.0400   -4.8300   23.7620 C   0  0  0  0  0  3  0  0  0  0  0  0
  -22.3190   -5.5230   22.5710 C   0  0  0  0  0  0  0  0  0  0  0  0
  -22.8150   -4.8510   21.5040 F   0  0  0  0  0  0  0  0  0  0  0  0
  -21.2310   -4.8490   26.0090 F   0  0  0  0  0  0  0  0  0  0  0  0
  -23.7480  -14.1180   21.2250 C   0  0  0  0  0  0  0  0  0  0  0  0
  -23.1120  -13.4450   22.1760 N   0  0  0  0  0  0  0  0  0  0  0  0
  -23.2920  -15.1680   20.7760 O   0  0  0  0  0  0  0  0  0  0  0  0
  -23.4950  -12.5930   22.5600 H   0  0  0  0  0  0  0  0  0  0  0  0
  -22.2290  -13.7880   22.5290 H   0  0  0  0  0  0  0  0  0  0  0  0
  -26.3690  -15.6790   20.2000 N   0  0  0  0  0  0  0  0  0  0  0  0
  -25.6670  -16.3680   20.4460 H   0  0  0  0  0  0  0  0  0  0  0  0
  -27.2170  -16.0890   19.8300 H   0  0  0  0  0  0  0  0  0  0  0  0
  -28.8600  -26.8840   19.3970 O   0  0  0  0  0  0  0  0  0  0  0  0
  -24.7160  -31.3390   22.9830 C   0  0  0  0  0  0  0  0  0  0  0  0
  -27.6240  -27.4780   19.4570 C   0  0  0  0  0  0  0  0  0  0  0  0
  -23.5610  -29.9190   21.3150 C   0  0  0  0  0  3  0  0  0  0  0  0
  -25.0770  -28.6610   19.6960 C   0  0  0  0  0  0  0  0  0  0  0  0
  -26.0020  -30.5980   20.9870 C   0  0  0  0  0  2  0  0  0  0  0  0
  -26.1990  -29.2940   20.2450 C   0  0  0  0  0  0  0  0  0  0  0  0
  -27.4760  -28.7170   20.1110 C   0  0  0  0  0  3  0  0  0  0  0  0
  -26.4930  -26.8490   18.8960 C   0  0  0  0  0  3  0  0  0  0  0  0
  -25.2190  -27.4380   19.0130 C   0  0  0  0  0  3  0  0  0  0  0  0
  -23.7470  -29.3550   19.8790 C   0  0  0  0  0  2  0  0  0  0  0  0
  -24.7800  -30.6300   21.8210 N   0  0  0  0  0  0  0  0  0  0  0  0
  -23.6520  -31.4460   23.6080 O   0  0  0  0  0  0  0  0  0  0  0  0
  -23.0960  -28.7700   22.2370 C   0  0  0  0  0  0  0  0  0  0  0  0
  -21.8300  -28.3530   22.0750 N   0  0  0  0  0  0  0  0  0  0  0  0
  -23.8710  -28.2570   23.0490 O   0  0  0  0  0  0  0  0  0  0  0  0
  -21.2590  -28.8320   21.3940 H   0  0  0  0  0  0  0  0  0  0  0  0
  -18.7940  -26.4110   22.3090 C   0  0  0  0  0  0  0  0  0  0  0  0
  -21.1850  -27.2590   22.8000 C   0  0  0  0  0  3  0  0  0  0  0  0
  -21.6700  -25.8850   22.2820 C   0  0  0  0  0  2  0  0  0  0  0  0
  -20.7720  -25.3040   21.1850 C   0  0  0  0  0  2  0  0  0  0  0  0
  -19.3400  -25.1310   21.6970 C   0  0  0  0  0  2  0  0  0  0  0  0
  -19.6610  -27.4170   22.8120 C   0  0  0  0  0  0  0  0  0  0  0  0
  -19.1030  -28.6030   23.3340 C   0  0  0  0  0  3  0  0  0  0  0  0
  -17.7080  -28.7900   23.3670 C   0  0  0  0  0  3  0  0  0  0  0  0
  -16.8540  -27.7830   22.8840 C   0  0  0  0  0  3  0  0  0  0  0  0
  -17.3970  -26.5960   22.3590 C   0  0  0  0  0  3  0  0  0  0  0  0
  -25.9650  -32.0690   23.5700 C   0  0  0  0  0  3  0  0  0  0  0  0
  -26.6370  -31.2860   24.7640 C   0  0  1  0  0  0  0  0  0  0  0  0
  -25.6450  -30.8800   25.8780 C   0  0  0  0  0  1  0  0  0  0  0  0
  -27.3280  -30.0000   24.2510 C   0  0  0  0  0  1  0  0  0  0  0  0
  -27.7430  -32.1570   25.4060 C   0  0  0  0  0  1  0  0  0  0  0  0
  -25.5370  -33.4060   23.9990 N   0  0  0  0  0  0  0  0  0  0  0  0
  -25.7870  -34.5370   23.3260 C   0  0  0  0  0  0  0  0  0  0  0  0
  -26.4770  -34.5680   22.3020 O   0  0  0  0  0  0  0  0  0  0  0  0
  -24.9260  -33.4490   24.8010 H   0  0  0  0  0  0  0  0  0  0  0  0
  -23.9240  -36.2040   23.0600 C   0  0  0  0  0  1  0  0  0  0  0  0
  -25.1760  -35.8400   23.8750 C   0  0  0  0  0  3  0  0  0  0  0  0
  -27.2150  -36.8240   24.8250 C   0  0  0  0  0  1  0  0  0  0  0  0
  -26.1190  -36.9800   23.8730 N   0  0  0  0  0  0  0  0  0  0  0  0
  -25.6350  -37.8490   24.0830 H   0  0  0  0  0  0  0  0  0  0  0  0
  1  3  1  0
  3  2  2  0
  3  9  1  0
  4  6  1  0
  4  1  2  0
  5  2  1  0
  5  8  1  0
  6  5  2  0
  7  4  1  0
  9 10  2  0
 11  9  1  0
 11 12  1  0
 13 26  1  0
 14 19  1  0
 15 16  1  0
 15 14  1  0
 17 16  1  0
 17 30  1  0
 17 18  1  0
 19 13  1  0
 19 18  1  0
 20 13  2  0
 21 25  1  0
 23 21  1  0
 23 26  1  0
 24 22  1  0
 25 12  1  0
 25 22  1  0
 26 24  1  0
 27 28  2  0
 28 47  1  0
 29 28  1  0
 29 32  1  0
 30 31  1  0
 30 27  1  0
 31 29  2  0
 32 33  1  0
 33 34  2  0
 35 38  1  0
 35 34  1  0
 36 35  2  0
 37 36  1  0
 37 32  2  0
 38 39  1  0
 39 44  2  0
 39 40  1  0
 40 41  2  0
 41 42  1  0
 42 46  1  0
 43 42  2  0
 44 43  1  0
 45 44  1  0
 47 48  1  0
 48 51  1  0
 48 50  1  0
 49 47  2  0
 52 27  1  0
 52 53  1  0
 54 52  1  0
 55 57  1  0
 55  6  1  0
 56 67  2  0
 57 62  1  0
 58 66  1  0
 58 68  1  0
 59 65  1  0
 59 61  1  0
 60 66  1  0
 61 60  1  0
 62 61  2  0
 63 64  1  0
 63 57  2  0
 64 59  2  0
 65 58  1  0
 66 56  1  0
 68 70  2  0
 69 68  1  0
 71 69  1  0
 72 81  2  0
 72 77  1  0
 73 69  1  0
 73 77  1  0
 74 73  1  0
 75 76  1  0
 75 74  1  0
 76 72  1  0
 77 78  2  0
 78 79  1  0
 80 79  2  0
 81 80  1  0
 82 56  1  0
 82 87  1  0
 82 83  1  0
 83 86  1  1
 83 84  1  0
 85 83  1  0
 87 90  1  0
 88 92  1  0
 88 87  1  0
 89 88  2  0
 92 91  1  0
 94 92  1  0
 94 95  1  0
 94 93  1  0
M  ISO  4   6 101  13 100  26 100  55 101
M  END
>  <TORSDO>  (36) 
F 19

>  <SCORE>  (36) 
-9.853

>  <name>  (36) 
35

>  <ligand_id>  (36) 
35

>  <original_smiles>  (36) 
[H]c1c([H])c([H])c2c(c1[H])C([H])([H])C([H])([H])C([H])([H])C2([H])N([H])C(=O)C1([H])N(C(=O)C([H])(N([H])C(=O)C([H])(N([H])C([H])([H])[H])C([H])([H])[H])C(C([H])([H])[H])(C([H])([H])[H])C([H])([H])[H])C([H])([H])c2c([H])c(Oc3c(C([H])([H])[H])c([H])c(C(=O)C([H])([H])C([H])([H])C4([H])C([H])([H])C([H])([H])N(C(=O)N5C([H])([H])C([H])([H])C([H])([H])C([H])(n6nc(-c7c([H])c([H])c(Oc8c([H])c([H])c(F)c([H])c8F)c([H])c7[H])c(C(=O)N([H])[H])c6N([H])[H])C5([H])[H])C([H])([H])C4([H])[H])c([H])c3C([H])([H])[H])c([H])c([H])c2C1([H])[H]

>  <smiles>  (36) 
[H]c1c([H])c([H])c2c(c1[H])C([H])([H])C([H])([H])C([H])([H])C2([H])N([H])C(=O)C1([H])N(C(=O)C([H])(N([H])C(=O)C([H])(N([H])C([H])([H])[H])C([H])([H])[H])C(C([H])([H])[H])(C([H])([H])[H])C([H])([H])[H])C([H])([H])c2c([H])c(Oc3c(C([H])([H])[H])c([H])c(C(=O)C([H])([H])C([H])([H])C4([H])C([H])([H])C([H])([H])N(C(=O)N5C([H])([H])C([H])([H])C([H])([H])C([H])(n6nc(-c7c([H])c([H])c(Oc8c([H])c([H])c(F)c([H])c8F)c([H])c7[H])c(C(=O)N([H])[H])c6N([H])[H])C5([H])[H])C([H])([H])C4([H])[H])c([H])c3C([H])([H])[H])c([H])c([H])c2C1([H])[H]

$$$$
36:0:0
     RDKit          3D

 89 97  0  0  1  0  0  0  0  0999 V2000
  -30.0170  -18.5030   22.0230 C   0  0  0  0  0  3  0  0  0  0  0  0
  -30.3450  -17.0780   19.9980 C   0  0  0  0  0  0  0  0  0  0  0  0
  -30.3010  -17.2530   21.4150 C   0  0  0  0  0  0  0  0  0  0  0  0
  -29.8040  -19.7330   21.3530 C   0  0  0  0  0  0  0  0  0  0  0  0
  -30.0900  -18.4490   19.3090 C   0  0  0  0  0  0  0  0  0  0  0  0
  -29.7820  -19.8340   19.9390 C   0  0  0  0  0  0  0  0  0  0  0  0
  -30.6960  -16.1460   22.3920 C   0  0  0  0  0  1  0  0  0  0  0  0
  -29.6330  -20.9530   22.2400 C   0  0  0  0  0  1  0  0  0  0  0  0
  -30.1670  -18.4610   17.7950 C   0  0  0  0  0  1  0  0  0  0  0  0
  -30.8650  -15.5740   19.4200 C   0  0  0  0  0  0  0  0  0  0  0  0
  -30.6820  -13.1200   18.5690 C   0  0  0  0  0  2  0  0  0  0  0  0
  -29.6570  -12.9460   17.4200 C   0  0  0  0  0  2  0  0  0  0  0  0
  -28.2410  -12.7140   17.9810 C   0  0  0  0  0  2  0  0  0  0  0  0
  -27.9200  -13.6750   19.1510 C   0  0  0  0  0  3  0  0  0  0  0  0
  -29.0670  -13.8060   20.1730 C   0  0  0  0  0  2  0  0  0  0  0  0
  -30.2680  -14.2740   19.4590 N   0  0  0  0  0  0  0  0  0  0  0  0
  -31.9810  -15.5430   18.8800 O   0  0  0  0  0  0  0  0  0  0  0  0
  -25.6990  -14.2720   20.2480 C   0  0  0  0  0  0  0  0  0  0  0  0
  -24.6550  -13.5160   20.7060 C   0  0  0  0  0  0  0  0  0  0  0  0
  -25.0410  -12.1540   20.5210 C   0  0  0  0  0  0  0  0  0  0  0  0
  -26.6490  -13.3740   19.8000 N   0  0  0  0  0  0  0  0  0  0  0  0
  -26.2770  -12.0870   20.0300 N   0  0  0  0  0  0  0  0  0  0  0  0
  -24.2770  -10.9160   20.7210 C   0  0  0  0  0  0  0  0  0  0  0  0
  -24.7230   -9.9100   21.6030 C   0  0  0  0  0  3  0  0  0  0  0  0
  -23.9600   -8.7370   21.7920 C   0  0  0  0  0  3  0  0  0  0  0  0
  -22.7360   -8.5670   21.1040 C   0  0  0  0  0  0  0  0  0  0  0  0
  -22.3080   -9.5650   20.2110 C   0  0  0  0  0  3  0  0  0  0  0  0
  -23.0710  -10.7270   20.0190 C   0  0  0  0  0  3  0  0  0  0  0  0
  -21.9410   -7.4490   21.2030 O   0  0  0  0  0  0  0  0  0  0  0  0
  -21.8520   -6.7320   22.3690 C   0  0  0  0  0  0  0  0  0  0  0  0
  -21.4110   -7.3200   23.5750 C   0  0  0  0  0  3  0  0  0  0  0  0
  -21.2680   -6.5300   24.7330 C   0  0  0  0  0  3  0  0  0  0  0  0
  -21.5520   -5.1520   24.6880 C   0  0  0  0  0  0  0  0  0  0  0  0
  -21.9820   -4.5640   23.4860 C   0  0  0  0  0  3  0  0  0  0  0  0
  -22.1280   -5.3510   22.3300 C   0  0  0  0  0  0  0  0  0  0  0  0
  -22.5260   -4.7720   21.1700 F   0  0  0  0  0  0  0  0  0  0  0  0
  -21.4060   -4.3910   25.7980 F   0  0  0  0  0  0  0  0  0  0  0  0
  -23.3340  -14.0370   21.1920 C   0  0  0  0  0  0  0  0  0  0  0  0
  -22.6920  -13.3200   22.1080 N   0  0  0  0  0  0  0  0  0  0  0  0
  -22.8850  -15.1130   20.7960 O   0  0  0  0  0  0  0  0  0  0  0  0
  -23.0700  -12.4500   22.4570 H   0  0  0  0  0  0  0  0  0  0  0  0
  -21.8060  -13.6470   22.4610 H   0  0  0  0  0  0  0  0  0  0  0  0
  -25.9130  -15.6430   20.1490 N   0  0  0  0  0  0  0  0  0  0  0  0
  -25.2240  -16.3270   20.4380 H   0  0  0  0  0  0  0  0  0  0  0  0
  -26.7470  -16.0680   19.7630 H   0  0  0  0  0  0  0  0  0  0  0  0
  -29.3610  -21.3890   19.2420 C   0  0  0  0  0  2  0  0  0  0  0  0
  -29.2250  -23.0830   19.8640 C   0  0  0  0  0  3  0  0  0  0  0  0
  -28.4150  -24.5850   19.3030 C   0  0  0  0  0  3  0  0  0  0  0  0
  -28.4520  -26.1650   19.7430 O   0  0  0  0  0  0  0  0  0  0  0  0
  -24.5780  -31.6960   23.0320 C   0  0  0  0  0  0  0  0  0  0  0  0
  -27.3680  -27.1820   19.7120 C   0  0  0  0  0  0  0  0  0  0  0  0
  -23.4340  -30.3170   21.3410 C   0  0  0  0  0  3  0  0  0  0  0  0
  -24.9470  -28.8890   19.8040 C   0  0  0  0  0  0  0  0  0  0  0  0
  -25.9750  -30.7030   21.1570 C   0  0  0  0  0  2  0  0  0  0  0  0
  -26.1170  -29.3390   20.4270 C   0  0  0  0  0  0  0  0  0  0  0  0
  -27.3180  -28.5060   20.3650 C   0  0  0  0  0  3  0  0  0  0  0  0
  -26.1640  -26.8830   19.0320 C   0  0  0  0  0  3  0  0  0  0  0  0
  -24.9920  -27.6840   19.0850 C   0  0  0  0  0  3  0  0  0  0  0  0
  -23.6730  -29.7250   19.9260 C   0  0  0  0  0  2  0  0  0  0  0  0
  -24.6820  -30.9310   21.8970 N   0  0  0  0  0  0  0  0  0  0  0  0
  -23.4850  -31.8900   23.5890 O   0  0  0  0  0  0  0  0  0  0  0  0
  -22.8230  -29.2310   22.2620 C   0  0  0  0  0  0  0  0  0  0  0  0
  -21.5070  -28.9800   22.1390 N   0  0  0  0  0  0  0  0  0  0  0  0
  -23.5390  -28.6160   23.0570 O   0  0  0  0  0  0  0  0  0  0  0  0
  -20.9810  -29.5290   21.4730 H   0  0  0  0  0  0  0  0  0  0  0  0
  -18.2220  -27.5200   22.6180 C   0  0  0  0  0  0  0  0  0  0  0  0
  -20.7600  -27.9550   22.8720 C   0  0  0  0  0  3  0  0  0  0  0  0
  -20.9540  -26.5610   22.2300 C   0  0  0  0  0  2  0  0  0  0  0  0
  -19.8660  -26.2080   21.2120 C   0  0  0  0  0  2  0  0  0  0  0  0
  -18.4850  -26.2210   21.8730 C   0  0  0  0  0  2  0  0  0  0  0  0
  -19.2890  -28.3410   23.0720 C   0  0  0  0  0  0  0  0  0  0  0  0
  -18.9860  -29.5530   23.7290 C   0  0  0  0  0  3  0  0  0  0  0  0
  -17.6500  -29.9450   23.9380 C   0  0  0  0  0  3  0  0  0  0  0  0
  -16.5990  -29.1230   23.4960 C   0  0  0  0  0  3  0  0  0  0  0  0
  -16.8860  -27.9110   22.8410 C   0  0  0  0  0  3  0  0  0  0  0  0
  -25.8230  -32.3780   23.6730 C   0  0  0  0  0  3  0  0  0  0  0  0
  -26.3650  -31.6110   24.9440 C   0  0  1  0  0  0  0  0  0  0  0  0
  -25.2790  -31.3160   26.0050 C   0  0  0  0  0  1  0  0  0  0  0  0
  -27.0040  -30.2600   24.5440 C   0  0  0  0  0  1  0  0  0  0  0  0
  -27.4750  -32.4450   25.6270 C   0  0  0  0  0  1  0  0  0  0  0  0
  -25.4480  -33.7580   24.0320 N   0  0  0  0  0  0  0  0  0  0  0  0
  -25.7360  -34.8470   23.3050 C   0  0  0  0  0  0  0  0  0  0  0  0
  -26.4090  -34.7990   22.2750 O   0  0  0  0  0  0  0  0  0  0  0  0
  -24.8490  -33.8680   24.8360 H   0  0  0  0  0  0  0  0  0  0  0  0
  -23.9290  -36.5790   23.0110 C   0  0  0  0  0  1  0  0  0  0  0  0
  -25.1930  -36.2040   23.8000 C   0  0  0  0  0  3  0  0  0  0  0  0
  -27.2880  -37.1690   24.6450 C   0  0  0  0  0  1  0  0  0  0  0  0
  -26.1780  -37.3030   23.7050 N   0  0  0  0  0  0  0  0  0  0  0  0
  -25.7300  -38.2020   23.8700 H   0  0  0  0  0  0  0  0  0  0  0  0
  2  3  2  0
  3  1  1  0
  3  7  1  0
  4  1  2  0
  4  8  1  0
  5  6  2  0
  5  2  1  0
  6  4  1  0
  9  5  1  0
 10 16  1  0
 10  2  1  0
 11 16  1  0
 12 13  1  0
 12 11  1  0
 14 13  1  0
 14 21  1  0
 14 15  1  0
 16 15  1  0
 17 10  2  0
 18 19  2  0
 19 38  1  0
 20 19  1  0
 20 23  1  0
 21 22  1  0
 21 18  1  0
 22 20  2  0
 23 24  1  0
 24 25  2  0
 26 29  1  0
 26 25  1  0
 27 26  2  0
 28 27  1  0
 28 23  2  0
 29 30  1  0
 30 31  1  0
 31 32  2  0
 33 32  1  0
 33 37  1  0
 34 33  2  0
 35 30  2  0
 35 34  1  0
 36 35  1  0
 38 39  1  0
 39 41  1  0
 39 42  1  0
 40 38  2  0
 43 18  1  0
 43 44  1  0
 45 43  1  0
 46 47  1  0
 46  6  1  0
 48 49  1  0
 48 47  2  0
 50 61  2  0
 51 49  1  0
 51 56  1  0
 52 60  1  0
 52 62  1  0
 53 59  1  0
 53 55  1  0
 54 60  1  0
 55 54  1  0
 56 55  2  0
 57 58  1  0
 57 51  2  0
 58 53  2  0
 59 52  1  0
 60 50  1  0
 62 64  2  0
 63 62  1  0
 65 63  1  0
 66 75  2  0
 66 71  1  0
 67 63  1  0
 67 71  1  0
 68 67  1  0
 69 70  1  0
 69 68  1  0
 70 66  1  0
 71 72  2  0
 72 73  1  0
 74 73  2  0
 75 74  1  0
 76 50  1  0
 76 81  1  0
 76 77  1  0
 77 80  1  1
 77 78  1  0
 79 77  1  0
 81 84  1  0
 82 86  1  0
 82 81  1  0
 83 82  2  0
 86 85  1  0
 88 86  1  0
 88 89  1  0
 88 87  1  0
M  ISO  4   2 100  10 100  48 101  49 101
M  END
>  <TORSDO>  (37) 
F 19

>  <SCORE>  (37) 
-13.061

>  <name>  (37) 
36

>  <ligand_id>  (37) 
36

>  <original_smiles>  (37) 
[H]c1c([H])c([H])c2c(c1[H])C([H])([H])C([H])([H])C([H])([H])C2([H])N([H])C(=O)C1([H])N(C(=O)C([H])(N([H])C(=O)C([H])(N([H])C([H])([H])[H])C([H])([H])[H])C(C([H])([H])[H])(C([H])([H])[H])C([H])([H])[H])C([H])([H])c2c([H])c(OC([H])([H])C([H])([H])C([H])([H])c3c(C([H])([H])[H])c([H])c(C([H])([H])[H])c(C(=O)N4C([H])([H])C([H])([H])C([H])([H])C([H])(n5nc(-c6c([H])c([H])c(Oc7c([H])c([H])c(F)c([H])c7F)c([H])c6[H])c(C(=O)N([H])[H])c5N([H])[H])C4([H])[H])c3C([H])([H])[H])c([H])c([H])c2C1([H])[H]

>  <smiles>  (37) 
[H]c1c([H])c([H])c2c(c1[H])C([H])([H])C([H])([H])C([H])([H])C2([H])N([H])C(=O)C1([H])N(C(=O)C([H])(N([H])C(=O)C([H])(N([H])C([H])([H])[H])C([H])([H])[H])C(C([H])([H])[H])(C([H])([H])[H])C([H])([H])[H])C([H])([H])c2c([H])c(OC([H])([H])C([H])([H])C([H])([H])c3c(C([H])([H])[H])c([H])c(C([H])([H])[H])c(C(=O)N4C([H])([H])C([H])([H])C([H])([H])C([H])(n5nc(-c6c([H])c([H])c(Oc7c([H])c([H])c(F)c([H])c7F)c([H])c6[H])c(C(=O)N([H])[H])c5N([H])[H])C4([H])[H])c3C([H])([H])[H])c([H])c([H])c2C1([H])[H]

$$$$
37:0:0
     RDKit          3D

 93102  0  0  1  0  0  0  0  0999 V2000
  -29.1240  -22.8030   22.3640 C   0  0  0  0  0  3  0  0  0  0  0  0
  -28.8860  -24.0740   22.9180 C   0  0  0  0  0  3  0  0  0  0  0  0
  -28.8240  -23.7440   20.1670 C   0  0  0  0  0  3  0  0  0  0  0  0
  -29.0800  -22.5180   20.9740 C   0  0  0  0  0  0  0  0  0  0  0  0
  -28.6180  -25.2090   22.1300 C   0  0  0  0  0  0  0  0  0  0  0  0
  -28.5910  -25.1140   20.7200 C   0  0  0  0  0  0  0  0  0  0  0  0
  -28.9730  -20.2460   19.5070 C   0  0  0  0  0  3  0  0  0  0  0  0
  -29.3170  -20.9500   20.6330 C   0  0  0  0  0  0  0  0  0  0  0  0
  -29.1700  -18.6810   19.2000 C   0  0  0  0  0  2  0  0  0  0  0  0
  -30.0470  -19.9950   21.6390 C   0  0  0  0  0  2  0  0  0  0  0  0
  -29.8710  -18.4150   21.5170 C   0  0  0  0  0  2  0  0  0  0  0  0
  -30.0950  -17.7520   20.1240 C   0  0  0  0  0  3  0  0  0  0  0  0
  -30.6970  -15.0550   19.8650 C   0  0  0  0  0  0  0  0  0  0  0  0
  -30.5700  -12.7050   18.9350 C   0  0  0  0  0  2  0  0  0  0  0  0
  -29.5500  -12.6370   17.7760 C   0  0  0  0  0  2  0  0  0  0  0  0
  -28.1220  -12.4090   18.3110 C   0  0  0  0  0  2  0  0  0  0  0  0
  -27.7810  -13.3400   19.5050 C   0  0  0  0  0  3  0  0  0  0  0  0
  -28.9110  -13.3560   20.5550 C   0  0  0  0  0  2  0  0  0  0  0  0
  -30.1340  -13.7840   19.8630 N   0  0  0  0  0  0  0  0  0  0  0  0
  -31.8660  -15.1690   19.4800 O   0  0  0  0  0  0  0  0  0  0  0  0
  -29.8880  -16.1890   20.1150 N   0  0  0  0  0  0  0  0  0  0  0  0
  -28.9510  -15.9200   20.3730 H   0  0  0  0  0  0  0  0  0  0  0  0
  -25.4740  -13.8970   20.4760 C   0  0  0  0  0  0  0  0  0  0  0  0
  -24.4380  -13.1090   20.8950 C   0  0  0  0  0  0  0  0  0  0  0  0
  -24.8810  -11.7590   20.7470 C   0  0  0  0  0  0  0  0  0  0  0  0
  -26.4840  -13.0260   20.0970 N   0  0  0  0  0  0  0  0  0  0  0  0
  -26.1400  -11.7320   20.3240 N   0  0  0  0  0  0  0  0  0  0  0  0
  -24.1590  -10.4930   20.9290 C   0  0  0  0  0  0  0  0  0  0  0  0
  -24.5730   -9.5350   21.8810 C   0  0  0  0  0  3  0  0  0  0  0  0
  -23.8490   -8.3360   22.0510 C   0  0  0  0  0  3  0  0  0  0  0  0
  -22.6970   -8.0840   21.2670 C   0  0  0  0  0  0  0  0  0  0  0  0
  -22.3030   -9.0300   20.3050 C   0  0  0  0  0  3  0  0  0  0  0  0
  -23.0270  -10.2220   20.1340 C   0  0  0  0  0  3  0  0  0  0  0  0
  -21.9480   -6.9350   21.3450 O   0  0  0  0  0  0  0  0  0  0  0  0
  -21.7500   -6.2810   22.5350 C   0  0  0  0  0  0  0  0  0  0  0  0
  -21.1160   -6.9090   23.6300 C   0  0  0  0  0  3  0  0  0  0  0  0
  -20.8700   -6.1800   24.8110 C   0  0  0  0  0  3  0  0  0  0  0  0
  -21.2470   -4.8270   24.8960 C   0  0  0  0  0  0  0  0  0  0  0  0
  -21.8720   -4.2000   23.8050 C   0  0  0  0  0  3  0  0  0  0  0  0
  -22.1180   -4.9250   22.6260 C   0  0  0  0  0  0  0  0  0  0  0  0
  -22.7030   -4.3090   21.5690 F   0  0  0  0  0  0  0  0  0  0  0  0
  -21.0030   -4.1260   26.0280 F   0  0  0  0  0  0  0  0  0  0  0  0
  -23.0730  -13.5800   21.3120 C   0  0  0  0  0  0  0  0  0  0  0  0
  -22.4140  -12.8410   22.1980 N   0  0  0  0  0  0  0  0  0  0  0  0
  -22.6060  -14.6350   20.8890 O   0  0  0  0  0  0  0  0  0  0  0  0
  -22.8060  -11.9850   22.5620 H   0  0  0  0  0  0  0  0  0  0  0  0
  -21.5030  -13.1380   22.5200 H   0  0  0  0  0  0  0  0  0  0  0  0
  -25.6330  -15.2740   20.3620 N   0  0  0  0  0  0  0  0  0  0  0  0
  -24.8730  -15.9150   20.5680 H   0  0  0  0  0  0  0  0  0  0  0  0
  -26.4390  -15.7370   19.9640 H   0  0  0  0  0  0  0  0  0  0  0  0
  -29.2830  -26.8600   23.7220 C   0  0  0  0  0  1  0  0  0  0  0  0
  -28.3710  -26.4270   22.7230 O   0  0  0  0  0  0  0  0  0  0  0  0
  -28.5070  -26.3930   20.0300 O   0  0  0  0  0  0  0  0  0  0  0  0
  -24.7260  -31.8950   23.1680 C   0  0  0  0  0  0  0  0  0  0  0  0
  -27.4080  -27.3090   20.0900 C   0  0  0  0  0  0  0  0  0  0  0  0
  -23.5520  -30.4810   21.5210 C   0  0  0  0  0  3  0  0  0  0  0  0
  -25.0300  -28.9550   20.0820 C   0  0  0  0  0  0  0  0  0  0  0  0
  -26.0910  -30.8260   21.3390 C   0  0  0  0  0  2  0  0  0  0  0  0
  -26.1990  -29.4420   20.6860 C   0  0  0  0  0  0  0  0  0  0  0  0
  -27.3930  -28.6350   20.6710 C   0  0  0  0  0  3  0  0  0  0  0  0
  -26.2140  -26.9060   19.4580 C   0  0  0  0  0  3  0  0  0  0  0  0
  -25.0470  -27.7000   19.4520 C   0  0  0  0  0  3  0  0  0  0  0  0
  -23.7800  -29.8170   20.1370 C   0  0  0  0  0  2  0  0  0  0  0  0
  -24.8090  -31.0890   22.0650 N   0  0  0  0  0  0  0  0  0  0  0  0
  -23.6360  -32.1470   23.7020 O   0  0  0  0  0  0  0  0  0  0  0  0
  -22.9060  -29.4510   22.4790 C   0  0  0  0  0  0  0  0  0  0  0  0
  -21.5810  -29.2500   22.3550 N   0  0  0  0  0  0  0  0  0  0  0  0
  -23.5960  -28.8350   23.2950 O   0  0  0  0  0  0  0  0  0  0  0  0
  -21.0830  -29.8010   21.6720 H   0  0  0  0  0  0  0  0  0  0  0  0
  -18.2230  -27.9940   22.8860 C   0  0  0  0  0  0  0  0  0  0  0  0
  -20.7810  -28.2880   23.1210 C   0  0  0  0  0  3  0  0  0  0  0  0
  -20.8940  -26.8680   22.5180 C   0  0  0  0  0  2  0  0  0  0  0  0
  -19.7810  -26.5480   21.5160 C   0  0  0  0  0  2  0  0  0  0  0  0
  -18.4070  -26.6620   22.1830 C   0  0  0  0  0  2  0  0  0  0  0  0
  -19.3360  -28.7670   23.3110 C   0  0  0  0  0  0  0  0  0  0  0  0
  -19.1060  -30.0150   23.9290 C   0  0  0  0  0  3  0  0  0  0  0  0
  -17.7950  -30.4900   24.1240 C   0  0  0  0  0  3  0  0  0  0  0  0
  -16.6970  -29.7140   23.7150 C   0  0  0  0  0  3  0  0  0  0  0  0
  -16.9120  -28.4690   23.1010 C   0  0  0  0  0  3  0  0  0  0  0  0
  -25.9910  -32.5560   23.7960 C   0  0  0  0  0  3  0  0  0  0  0  0
  -25.6460  -33.9450   24.1390 N   0  0  0  0  0  0  0  0  0  0  0  0
  -25.9610  -35.0160   23.3980 C   0  0  0  0  0  0  0  0  0  0  0  0
  -26.6390  -34.9420   22.3700 O   0  0  0  0  0  0  0  0  0  0  0  0
  -25.0420  -34.0780   24.9370 H   0  0  0  0  0  0  0  0  0  0  0  0
  -24.2100  -36.7880   23.0430 C   0  0  0  0  0  1  0  0  0  0  0  0
  -25.4430  -36.3900   23.8720 C   0  0  0  0  0  3  0  0  0  0  0  0
  -27.5450  -37.2930   24.7640 C   0  0  0  0  0  1  0  0  0  0  0  0
  -26.4610  -37.4600   23.7970 N   0  0  0  0  0  0  0  0  0  0  0  0
  -26.0390  -38.3720   23.9500 H   0  0  0  0  0  0  0  0  0  0  0  0
  -26.5260  -31.7920   25.0690 C   0  0  1  0  0  0  0  0  0  0  0  0
  -25.4390  -31.5030   26.1320 C   0  0  0  0  0  1  0  0  0  0  0  0
  -27.1570  -30.4400   24.6690 C   0  0  0  0  0  1  0  0  0  0  0  0
  -27.6430  -32.6190   25.7470 C   0  0  0  0  0  1  0  0  0  0  0  0
  1  2  1  0
  3  6  2  0
  3  4  1  0
  4  1  2  0
  5 52  1  0
  5  2  2  0
  6  5  1  0
  7  8  2  0
  8  4  1  0
  8 10  1  0
  9  7  1  0
  9 12  1  0
 11 10  1  0
 12 21  1  0
 12 11  1  0
 13 21  1  0
 14 19  1  0
 15 16  1  0
 15 14  1  0
 17 16  1  0
 17 26  1  0
 17 18  1  0
 19 13  1  0
 19 18  1  0
 20 13  2  0
 21 22  1  0
 23 24  2  0
 24 43  1  0
 25 24  1  0
 25 28  1  0
 26 27  1  0
 26 23  1  0
 27 25  2  0
 28 29  1  0
 29 30  2  0
 31 34  1  0
 31 30  1  0
 32 31  2  0
 33 32  1  0
 33 28  2  0
 34 35  1  0
 35 40  2  0
 35 36  1  0
 36 37  2  0
 37 38  1  0
 38 42  1  0
 39 38  2  0
 40 39  1  0
 41 40  1  0
 43 44  1  0
 44 47  1  0
 44 46  1  0
 45 43  2  0
 48 23  1  0
 48 49  1  0
 50 48  1  0
 52 51  1  0
 53 55  1  0
 53  6  1  0
 54 65  2  0
 55 60  1  0
 56 64  1  0
 56 66  1  0
 57 63  1  0
 57 59  1  0
 58 64  1  0
 59 58  1  0
 60 59  2  0
 61 55  2  0
 62 61  1  0
 62 57  2  0
 63 56  1  0
 64 54  1  0
 66 68  2  0
 67 66  1  0
 69 67  1  0
 70 79  2  0
 70 75  1  0
 71 67  1  0
 71 75  1  0
 72 71  1  0
 73 74  1  0
 73 72  1  0
 74 70  1  0
 75 76  2  0
 76 77  1  0
 78 77  2  0
 79 78  1  0
 80 54  1  0
 80 81  1  0
 80 90  1  0
 81 84  1  0
 82 86  1  0
 82 81  1  0
 83 82  2  0
 86 85  1  0
 88 86  1  0
 88 89  1  0
 88 87  1  0
 90 93  1  1
 90 91  1  0
 92 90  1  0
M  ISO  4   6 101  13 100  21 100  53 101
M  END
>  <TORSDO>  (38) 
F 18

>  <SCORE>  (38) 
-13.830

>  <name>  (38) 
37

>  <ligand_id>  (38) 
37

>  <original_smiles>  (38) 
[H]C1=C(c2c([H])c([H])c(OC([H])([H])[H])c(Oc3c([H])c([H])c4c(c3[H])C([H])([H])N(C(=O)C([H])(N([H])C(=O)C([H])(N([H])C([H])([H])[H])C([H])([H])[H])C(C([H])([H])[H])(C([H])([H])[H])C([H])([H])[H])C([H])(C(=O)N([H])C3([H])c5c([H])c([H])c([H])c([H])c5C([H])([H])C([H])([H])C3([H])[H])C4([H])[H])c2[H])C([H])([H])C([H])([H])C([H])(N([H])C(=O)N2C([H])([H])C([H])([H])C([H])([H])C([H])(n3nc(-c4c([H])c([H])c(Oc5c([H])c([H])c(F)c([H])c5F)c([H])c4[H])c(C(=O)N([H])[H])c3N([H])[H])C2([H])[H])C1([H])[H]

>  <smiles>  (38) 
[H]C1=C(c2c([H])c([H])c(OC([H])([H])[H])c(Oc3c([H])c([H])c4c(c3[H])C([H])([H])N(C(=O)C([H])(N([H])C(=O)C([H])(N([H])C([H])([H])[H])C([H])([H])[H])C(C([H])([H])[H])(C([H])([H])[H])C([H])([H])[H])C([H])(C(=O)N([H])C3([H])c5c([H])c([H])c([H])c([H])c5C([H])([H])C([H])([H])C3([H])[H])C4([H])[H])c2[H])C([H])([H])C([H])([H])C([H])(N([H])C(=O)N2C([H])([H])C([H])([H])C([H])([H])C([H])(n3nc(-c4c([H])c([H])c(Oc5c([H])c([H])c(F)c([H])c5F)c([H])c4[H])c(C(=O)N([H])[H])c3N([H])[H])C2([H])[H])C1([H])[H]

$$$$
38:0:0
     RDKit          3D

 93101  0  0  1  0  0  0  0  0999 V2000
  -28.5170  -19.1100   20.3390 C   0  0  0  0  0  3  0  0  0  0  0  0
  -30.1240  -17.8150   21.8470 C   0  0  0  0  0  3  0  0  0  0  0  0
  -29.8600  -15.4410   20.3280 C   0  0  0  0  0  0  0  0  0  0  0  0
  -30.8290  -16.6650   22.2340 C   0  0  0  0  0  0  0  0  0  0  0  0
  -29.2780  -17.8200   20.7170 C   0  0  0  0  0  0  0  0  0  0  0  0
  -29.1740  -16.6390   19.9270 C   0  0  0  0  0  0  0  0  0  0  0  0
  -30.6740  -15.4580   21.5040 C   0  0  0  0  0  0  0  0  0  0  0  0
  -31.8120  -16.7920   23.3950 C   0  0  0  0  0  1  0  0  0  0  0  0
  -28.4160  -16.7160   18.5940 C   0  0  0  0  0  1  0  0  0  0  0  0
  -30.0600  -14.3130   19.3410 C   0  0  0  0  0  0  0  0  0  0  0  0
  -29.4100  -12.2630   18.1490 C   0  0  0  0  0  2  0  0  0  0  0  0
  -28.2570  -12.5590   17.1760 C   0  0  0  0  0  2  0  0  0  0  0  0
  -26.9090  -12.3470   17.8900 C   0  0  0  0  0  2  0  0  0  0  0  0
  -26.8440  -13.0430   19.2790 C   0  0  0  0  0  3  0  0  0  0  0  0
  -28.1280  -12.8580   20.1270 C   0  0  0  0  0  2  0  0  0  0  0  0
  -29.2910  -13.1870   19.2900 N   0  0  0  0  0  0  0  0  0  0  0  0
  -30.9550  -14.5310   18.5260 O   0  0  0  0  0  0  0  0  0  0  0  0
  -24.6200  -13.4860   20.4890 C   0  0  0  0  0  0  0  0  0  0  0  0
  -23.6890  -12.6380   21.0320 C   0  0  0  0  0  0  0  0  0  0  0  0
  -24.2000  -11.3180   20.8370 C   0  0  0  0  0  0  0  0  0  0  0  0
  -25.6390  -12.6740   20.0150 N   0  0  0  0  0  0  0  0  0  0  0  0
  -25.3970  -11.3630   20.2700 N   0  0  0  0  0  0  0  0  0  0  0  0
  -23.5950  -10.0060   21.1090 C   0  0  0  0  0  0  0  0  0  0  0  0
  -24.1680   -9.1000   22.0270 C   0  0  0  0  0  3  0  0  0  0  0  0
  -23.5590   -7.8530   22.2800 C   0  0  0  0  0  3  0  0  0  0  0  0
  -22.3610   -7.5000   21.6150 C   0  0  0  0  0  0  0  0  0  0  0  0
  -21.8000   -8.3990   20.6910 C   0  0  0  0  0  3  0  0  0  0  0  0
  -22.4120   -9.6370   20.4390 C   0  0  0  0  0  3  0  0  0  0  0  0
  -21.7130   -6.2990   21.7790 O   0  0  0  0  0  0  0  0  0  0  0  0
  -21.7230   -5.6380   22.9790 C   0  0  0  0  0  0  0  0  0  0  0  0
  -21.2220   -6.2220   24.1630 C   0  0  0  0  0  3  0  0  0  0  0  0
  -21.1900   -5.4750   25.3570 C   0  0  0  0  0  3  0  0  0  0  0  0
  -21.6540   -4.1470   25.3690 C   0  0  0  0  0  0  0  0  0  0  0  0
  -22.1560   -3.5660   24.1920 C   0  0  0  0  0  3  0  0  0  0  0  0
  -22.1900   -4.3070   23.0000 C   0  0  0  0  0  0  0  0  0  0  0  0
  -22.6550   -3.7370   21.8610 F   0  0  0  0  0  0  0  0  0  0  0  0
  -21.6140   -3.4250   26.5140 F   0  0  0  0  0  0  0  0  0  0  0  0
  -22.3570  -13.0250   21.6060 C   0  0  0  0  0  0  0  0  0  0  0  0
  -21.8820  -12.2690   22.5890 N   0  0  0  0  0  0  0  0  0  0  0  0
  -21.7570  -14.0310   21.2290 O   0  0  0  0  0  0  0  0  0  0  0  0
  -22.3810  -11.4520   22.9050 H   0  0  0  0  0  0  0  0  0  0  0  0
  -21.0120  -12.5190   23.0330 H   0  0  0  0  0  0  0  0  0  0  0  0
  -24.6730  -14.8620   20.3280 N   0  0  0  0  0  0  0  0  0  0  0  0
  -23.8730  -15.4500   20.5290 H   0  0  0  0  0  0  0  0  0  0  0  0
  -25.3890  -15.3200   19.7710 H   0  0  0  0  0  0  0  0  0  0  0  0
  -32.7640  -13.9140   21.2680 C   0  0  0  0  0  1  0  0  0  0  0  0
  -31.4180  -14.1960   21.9760 C   0  0  0  0  0  2  0  0  0  0  0  0
  -29.1800  -20.4480   20.7620 C   0  0  0  0  0  3  0  0  0  0  0  0
  -28.4450  -21.7270   20.2820 C   0  0  0  0  0  2  0  0  0  0  0  0
  -29.1510  -23.0490   20.6910 C   0  0  0  0  0  2  0  0  0  0  0  0
  -28.2770  -24.3240   20.5690 C   0  0  0  0  0  2  0  0  0  0  0  0
  -28.9940  -25.6020   21.0610 C   0  0  0  0  0  2  0  0  0  0  0  0
  -28.7990  -26.7700   20.2570 O   0  0  0  0  0  0  0  0  0  0  0  0
  -24.7050  -31.8370   23.2030 C   0  0  0  0  0  0  0  0  0  0  0  0
  -27.5900  -27.4180   20.3270 C   0  0  0  0  0  0  0  0  0  0  0  0
  -23.6050  -30.3780   21.5400 C   0  0  0  0  0  3  0  0  0  0  0  0
  -25.1530  -28.8420   20.2270 C   0  0  0  0  0  0  0  0  0  0  0  0
  -26.1220  -30.8110   21.4320 C   0  0  0  0  0  2  0  0  0  0  0  0
  -26.2720  -29.4180   20.8400 C   0  0  0  0  0  0  0  0  0  0  0  0
  -27.4950  -28.7140   20.8830 C   0  0  0  0  0  3  0  0  0  0  0  0
  -26.4490  -26.8430   19.7290 C   0  0  0  0  0  3  0  0  0  0  0  0
  -25.2360  -27.5480   19.6770 C   0  0  0  0  0  3  0  0  0  0  0  0
  -23.8920  -29.6760   20.1850 C   0  0  0  0  0  2  0  0  0  0  0  0
  -24.8280  -31.0260   22.1180 N   0  0  0  0  0  0  0  0  0  0  0  0
  -23.5970  -32.0760   23.7040 O   0  0  0  0  0  0  0  0  0  0  0  0
  -22.9430  -29.3590   22.4940 C   0  0  0  0  0  0  0  0  0  0  0  0
  -21.6180  -29.1790   22.3610 N   0  0  0  0  0  0  0  0  0  0  0  0
  -23.6190  -28.7320   23.3120 O   0  0  0  0  0  0  0  0  0  0  0  0
  -21.1310  -29.7200   21.6600 H   0  0  0  0  0  0  0  0  0  0  0  0
  -18.2230  -28.0900   22.9560 C   0  0  0  0  0  0  0  0  0  0  0  0
  -20.7970  -28.2500   23.1380 C   0  0  0  0  0  3  0  0  0  0  0  0
  -20.8300  -26.8370   22.5100 C   0  0  0  0  0  2  0  0  0  0  0  0
  -19.6800  -26.5840   21.5300 C   0  0  0  0  0  2  0  0  0  0  0  0
  -18.3270  -26.7580   22.2250 C   0  0  0  0  0  2  0  0  0  0  0  0
  -19.3850  -28.7960   23.3680 C   0  0  0  0  0  0  0  0  0  0  0  0
  -19.2340  -30.0410   24.0150 C   0  0  0  0  0  3  0  0  0  0  0  0
  -17.9540  -30.5840   24.2420 C   0  0  0  0  0  3  0  0  0  0  0  0
  -16.8060  -29.8780   23.8420 C   0  0  0  0  0  3  0  0  0  0  0  0
  -16.9440  -28.6270   23.2080 C   0  0  0  0  0  3  0  0  0  0  0  0
  -25.9450  -32.5160   23.8560 C   0  0  0  0  0  3  0  0  0  0  0  0
  -25.5700  -33.8980   24.1870 N   0  0  0  0  0  0  0  0  0  0  0  0
  -25.8640  -34.9690   23.4380 C   0  0  0  0  0  0  0  0  0  0  0  0
  -26.5530  -34.9040   22.4210 O   0  0  0  0  0  0  0  0  0  0  0  0
  -24.9470  -34.0130   24.9760 H   0  0  0  0  0  0  0  0  0  0  0  0
  -24.0690  -36.6910   23.0550 C   0  0  0  0  0  1  0  0  0  0  0  0
  -25.3060  -36.3330   23.8910 C   0  0  0  0  0  3  0  0  0  0  0  0
  -27.3900  -37.3030   24.7590 C   0  0  0  0  0  1  0  0  0  0  0  0
  -26.2940  -37.4300   23.8020 N   0  0  0  0  0  0  0  0  0  0  0  0
  -25.8400  -38.3310   23.9480 H   0  0  0  0  0  0  0  0  0  0  0  0
  -26.4730  -31.7570   25.1390 C   0  0  1  0  0  0  0  0  0  0  0  0
  -25.3810  -31.4530   26.1850 C   0  0  0  0  0  1  0  0  0  0  0  0
  -27.1310  -30.4070   24.7530 C   0  0  0  0  0  1  0  0  0  0  0  0
  -27.5670  -32.6000   25.8310 C   0  0  0  0  0  1  0  0  0  0  0  0
  1  5  1  0
  1 48  2  0
  2  4  1  0
  3  7  1  0
  4  8  1  0
  5  2  2  0
  6  3  2  0
  6  5  1  0
  7 47  1  0
  7  4  2  0
  9  6  1  0
 10  3  1  0
 11 16  1  0
 12 13  1  0
 12 11  1  0
 14 13  1  0
 14 21  1  0
 14 15  1  0
 16 10  1  0
 16 15  1  0
 17 10  2  0
 18 19  2  0
 19 38  1  0
 20 19  1  0
 20 23  1  0
 21 22  1  0
 21 18  1  0
 22 20  2  0
 23 24  1  0
 24 25  2  0
 26 29  1  0
 26 25  1  0
 27 26  2  0
 28 27  1  0
 28 23  2  0
 29 30  1  0
 30 35  2  0
 30 31  1  0
 31 32  2  0
 32 33  1  0
 33 37  1  0
 34 33  2  0
 35 34  1  0
 36 35  1  0
 38 39  1  0
 39 41  1  0
 39 42  1  0
 40 38  2  0
 43 18  1  0
 43 44  1  0
 45 43  1  0
 46 47  1  0
 49 50  1  0
 49 48  1  0
 51 50  1  0
 51 52  1  0
 53 55  1  0
 53 52  1  0
 54 65  2  0
 55 60  1  0
 56 64  1  0
 56 66  1  0
 57 59  1  0
 58 64  1  0
 59 60  2  0
 59 58  1  0
 61 55  2  0
 62 61  1  0
 62 57  2  0
 63 57  1  0
 63 56  1  0
 64 54  1  0
 66 68  2  0
 67 66  1  0
 69 67  1  0
 70 79  2  0
 70 75  1  0
 71 67  1  0
 71 75  1  0
 72 71  1  0
 73 74  1  0
 73 72  1  0
 74 70  1  0
 75 76  2  0
 76 77  1  0
 78 77  2  0
 79 78  1  0
 80 54  1  0
 80 81  1  0
 80 90  1  0
 81 84  1  0
 82 86  1  0
 82 81  1  0
 83 82  2  0
 86 85  1  0
 88 86  1  0
 88 89  1  0
 88 87  1  0
 90 93  1  1
 90 91  1  0
 92 90  1  0
M  ISO  4   3 100  10 100  52 101  53 101
M  END
>  <TORSDO>  (39) 
F 23

>  <SCORE>  (39) 
-8.107

>  <name>  (39) 
38

>  <ligand_id>  (39) 
38

>  <original_smiles>  (39) 
[H]c1c([H])c([H])c2c(c1[H])C([H])([H])C([H])([H])C([H])([H])C2([H])N([H])C(=O)C1([H])N(C(=O)C([H])(N([H])C(=O)C([H])(N([H])C([H])([H])[H])C([H])([H])[H])C(C([H])([H])[H])(C([H])([H])[H])C([H])([H])[H])C([H])([H])c2c([H])c(OC([H])([H])C([H])([H])C([H])([H])C([H])([H])C([H])([H])C([H])([H])c3c([H])c(C([H])([H])[H])c(C([H])([H])C([H])([H])[H])c(C(=O)N4C([H])([H])C([H])([H])C([H])([H])C([H])(n5nc(-c6c([H])c([H])c(Oc7c([H])c([H])c(F)c([H])c7F)c([H])c6[H])c(C(=O)N([H])[H])c5N([H])[H])C4([H])[H])c3C([H])([H])[H])c([H])c([H])c2C1([H])[H]

>  <smiles>  (39) 
[H]c1c([H])c([H])c2c(c1[H])C([H])([H])C([H])([H])C([H])([H])C2([H])N([H])C(=O)C1([H])N(C(=O)C([H])(N([H])C(=O)C([H])(N([H])C([H])([H])[H])C([H])([H])[H])C(C([H])([H])[H])(C([H])([H])[H])C([H])([H])[H])C([H])([H])c2c([H])c(OC([H])([H])C([H])([H])C([H])([H])C([H])([H])C([H])([H])C([H])([H])c3c([H])c(C([H])([H])[H])c(C([H])([H])C([H])([H])[H])c(C(=O)N4C([H])([H])C([H])([H])C([H])([H])C([H])(n5nc(-c6c([H])c([H])c(Oc7c([H])c([H])c(F)c([H])c7F)c([H])c6[H])c(C(=O)N([H])[H])c5N([H])[H])C4([H])[H])c3C([H])([H])[H])c([H])c([H])c2C1([H])[H]

$$$$
39:0:0
     RDKit          3D

 91 99  0  0  1  0  0  0  0  0999 V2000
  -29.0540  -20.1300   19.6520 C   0  0  0  0  0  3  0  0  0  0  0  0
  -28.8190  -21.5040   19.3610 C   0  0  0  0  0  3  0  0  0  0  0  0
  -29.8850  -20.7600   21.8260 C   0  0  0  0  0  3  0  0  0  0  0  0
  -29.6140  -19.7240   20.8910 C   0  0  0  0  0  0  0  0  0  0  0  0
  -29.1340  -22.5350   20.2860 C   0  0  0  0  0  0  0  0  0  0  0  0
  -29.6660  -22.1430   21.5400 C   0  0  0  0  0  0  0  0  0  0  0  0
  -29.8840  -18.2710   21.2940 C   0  0  0  0  0  0  0  0  0  0  0  0
  -30.1740  -17.9970   22.4640 O   0  0  0  0  0  0  0  0  0  0  0  0
  -29.8680  -17.0950   20.2650 C   0  0  0  0  0  2  0  0  0  0  0  0
  -29.7220  -15.6290   20.8600 C   0  0  0  0  0  2  0  0  0  0  0  0
  -30.4500  -14.4430   20.1280 C   0  0  0  0  0  0  0  0  0  0  0  0
  -30.1740  -12.2890   18.9150 C   0  0  0  0  0  2  0  0  0  0  0  0
  -29.1350  -12.5010   17.7910 C   0  0  0  0  0  2  0  0  0  0  0  0
  -27.6990  -12.3040   18.3210 C   0  0  0  0  0  2  0  0  0  0  0  0
  -27.4430  -13.0860   19.6360 C   0  0  0  0  0  3  0  0  0  0  0  0
  -28.5820  -12.8350   20.6500 C   0  0  0  0  0  2  0  0  0  0  0  0
  -29.8440  -13.2230   20.0070 N   0  0  0  0  0  0  0  0  0  0  0  0
  -31.5390  -14.6630   19.5880 O   0  0  0  0  0  0  0  0  0  0  0  0
  -25.1090  -13.6460   20.5580 C   0  0  0  0  0  0  0  0  0  0  0  0
  -24.0730  -12.8510   20.9740 C   0  0  0  0  0  0  0  0  0  0  0  0
  -24.5340  -11.5060   20.8470 C   0  0  0  0  0  0  0  0  0  0  0  0
  -26.1330  -12.7810   20.2050 N   0  0  0  0  0  0  0  0  0  0  0  0
  -25.7960  -11.4870   20.4370 N   0  0  0  0  0  0  0  0  0  0  0  0
  -23.8290  -10.2330   21.0400 C   0  0  0  0  0  0  0  0  0  0  0  0
  -24.2990   -9.2580   21.9480 C   0  0  0  0  0  3  0  0  0  0  0  0
  -23.5960   -8.0480   22.1260 C   0  0  0  0  0  3  0  0  0  0  0  0
  -22.4080   -7.8030   21.3960 C   0  0  0  0  0  0  0  0  0  0  0  0
  -21.9580   -8.7660   20.4750 C   0  0  0  0  0  3  0  0  0  0  0  0
  -22.6610   -9.9690   20.2950 C   0  0  0  0  0  3  0  0  0  0  0  0
  -21.6730   -6.6460   21.4850 O   0  0  0  0  0  0  0  0  0  0  0  0
  -21.6300   -5.9060   22.6410 C   0  0  0  0  0  0  0  0  0  0  0  0
  -21.1310   -6.4410   23.8480 C   0  0  0  0  0  3  0  0  0  0  0  0
  -21.0410   -5.6260   24.9940 C   0  0  0  0  0  3  0  0  0  0  0  0
  -21.4390   -4.2770   24.9330 C   0  0  0  0  0  0  0  0  0  0  0  0
  -21.9310   -3.7420   23.7290 C   0  0  0  0  0  3  0  0  0  0  0  0
  -22.0240   -4.5540   22.5850 C   0  0  0  0  0  0  0  0  0  0  0  0
  -22.4790   -4.0280   21.4240 F   0  0  0  0  0  0  0  0  0  0  0  0
  -21.3450   -3.4910   26.0310 F   0  0  0  0  0  0  0  0  0  0  0  0
  -22.6990  -13.3080   21.3740 C   0  0  0  0  0  0  0  0  0  0  0  0
  -22.0420  -12.5680   22.2600 N   0  0  0  0  0  0  0  0  0  0  0  0
  -22.2200  -14.3540   20.9390 O   0  0  0  0  0  0  0  0  0  0  0  0
  -22.4460  -11.7220   22.6340 H   0  0  0  0  0  0  0  0  0  0  0  0
  -21.1220  -12.8500   22.5690 H   0  0  0  0  0  0  0  0  0  0  0  0
  -25.2560  -15.0240   20.4330 N   0  0  0  0  0  0  0  0  0  0  0  0
  -24.5010  -15.6720   20.6320 H   0  0  0  0  0  0  0  0  0  0  0  0
  -26.0760  -15.4760   20.0500 H   0  0  0  0  0  0  0  0  0  0  0  0
  -30.2790  -22.8270   23.7660 C   0  0  0  0  0  1  0  0  0  0  0  0
  -29.9780  -23.1600   22.4180 O   0  0  0  0  0  0  0  0  0  0  0  0
  -29.0440  -24.0420   19.8840 C   0  0  0  0  0  2  0  0  0  0  0  0
  -28.0340  -24.9840   20.6320 C   0  0  0  0  0  2  0  0  0  0  0  0
  -28.2180  -26.4190   20.3750 O   0  0  0  0  0  0  0  0  0  0  0  0
  -24.5360  -31.8830   23.2570 C   0  0  0  0  0  0  0  0  0  0  0  0
  -27.0880  -27.2320   20.3440 C   0  0  0  0  0  0  0  0  0  0  0  0
  -23.3170  -30.4660   21.6420 C   0  0  0  0  0  3  0  0  0  0  0  0
  -24.7470  -28.8500   20.2740 C   0  0  0  0  0  0  0  0  0  0  0  0
  -25.8590  -30.7370   21.4730 C   0  0  0  0  0  2  0  0  0  0  0  0
  -25.9150  -29.3430   20.8670 C   0  0  0  0  0  0  0  0  0  0  0  0
  -27.0910  -28.5440   20.8940 C   0  0  0  0  0  3  0  0  0  0  0  0
  -25.9030  -26.7770   19.7260 C   0  0  0  0  0  3  0  0  0  0  0  0
  -24.7390  -27.5700   19.6960 C   0  0  0  0  0  3  0  0  0  0  0  0
  -23.5280  -29.7520   20.2800 C   0  0  0  0  0  2  0  0  0  0  0  0
  -24.5890  -31.0470   22.1800 N   0  0  0  0  0  0  0  0  0  0  0  0
  -23.4550  -32.1970   23.7740 O   0  0  0  0  0  0  0  0  0  0  0  0
  -22.6280  -29.4860   22.6220 C   0  0  0  0  0  0  0  0  0  0  0  0
  -21.3000  -29.3350   22.4870 N   0  0  0  0  0  0  0  0  0  0  0  0
  -23.2880  -28.8670   23.4620 O   0  0  0  0  0  0  0  0  0  0  0  0
  -20.8320  -29.8820   21.7780 H   0  0  0  0  0  0  0  0  0  0  0  0
  -17.8880  -28.2550   23.0090 C   0  0  0  0  0  0  0  0  0  0  0  0
  -20.4540  -28.4380   23.2750 C   0  0  0  0  0  3  0  0  0  0  0  0
  -20.5110  -26.9940   22.7220 C   0  0  0  0  0  2  0  0  0  0  0  0
  -19.3970  -26.6890   21.7160 C   0  0  0  0  0  2  0  0  0  0  0  0
  -18.0210  -26.8890   22.3580 C   0  0  0  0  0  2  0  0  0  0  0  0
  -19.0310  -28.9880   23.4260 C   0  0  0  0  0  0  0  0  0  0  0  0
  -18.8530  -30.2690   23.9950 C   0  0  0  0  0  3  0  0  0  0  0  0
  -17.5650  -30.8140   24.1540 C   0  0  0  0  0  3  0  0  0  0  0  0
  -16.4360  -30.0760   23.7540 C   0  0  0  0  0  3  0  0  0  0  0  0
  -16.5990  -28.8000   23.1870 C   0  0  0  0  0  3  0  0  0  0  0  0
  -25.8290  -32.5030   23.8750 C   0  0  0  0  0  3  0  0  0  0  0  0
  -25.5420  -33.9100   24.1850 N   0  0  0  0  0  0  0  0  0  0  0  0
  -25.8840  -34.9470   23.4080 C   0  0  0  0  0  0  0  0  0  0  0  0
  -26.5470  -34.8170   22.3750 O   0  0  0  0  0  0  0  0  0  0  0  0
  -24.9620  -34.0860   24.9920 H   0  0  0  0  0  0  0  0  0  0  0  0
  -24.1810  -36.7570   23.0290 C   0  0  0  0  0  1  0  0  0  0  0  0
  -25.4170  -36.3480   23.8460 C   0  0  0  0  0  3  0  0  0  0  0  0
  -27.5600  -37.2180   24.6700 C   0  0  0  0  0  1  0  0  0  0  0  0
  -26.4650  -37.3840   23.7190 N   0  0  0  0  0  0  0  0  0  0  0  0
  -26.0710  -38.3120   23.8460 H   0  0  0  0  0  0  0  0  0  0  0  0
  -26.3320  -31.7390   25.1620 C   0  0  1  0  0  0  0  0  0  0  0  0
  -25.2290  -31.5150   26.2220 C   0  0  0  0  0  1  0  0  0  0  0  0
  -26.9110  -30.3550   24.7850 C   0  0  0  0  0  1  0  0  0  0  0  0
  -27.4820  -32.5320   25.8260 C   0  0  0  0  0  1  0  0  0  0  0  0
  1  4  1  0
  2  1  2  0
  2  5  1  0
  4  7  1  0
  4  3  2  0
  5  6  2  0
  6  3  1  0
  6 48  1  0
  7  8  2  0
  9 10  1  0
  9  7  1  0
 11 10  1  0
 12 17  1  0
 13 14  1  0
 13 12  1  0
 15 14  1  0
 15 22  1  0
 15 16  1  0
 17 11  1  0
 17 16  1  0
 18 11  2  0
 19 20  2  0
 20 39  1  0
 21 20  1  0
 21 24  1  0
 22 23  1  0
 22 19  1  0
 23 21  2  0
 24 25  1  0
 25 26  2  0
 27 30  1  0
 27 26  1  0
 28 27  2  0
 29 28  1  0
 29 24  2  0
 30 31  1  0
 31 32  1  0
 32 33  2  0
 34 33  1  0
 34 38  1  0
 35 34  2  0
 36 31  2  0
 36 35  1  0
 37 36  1  0
 39 40  1  0
 40 43  1  0
 40 42  1  0
 41 39  2  0
 44 19  1  0
 44 45  1  0
 46 44  1  0
 48 47  1  0
 49  5  1  0
 49 50  1  0
 51 50  1  0
 52 63  2  0
 53 51  1  0
 53 58  1  0
 54 62  1  0
 54 64  1  0
 55 61  1  0
 55 57  1  0
 56 62  1  0
 57 58  2  0
 57 56  1  0
 59 53  2  0
 60 59  1  0
 60 55  2  0
 61 54  1  0
 62 52  1  0
 64 66  2  0
 65 64  1  0
 67 65  1  0
 68 77  2  0
 68 73  1  0
 69 65  1  0
 69 73  1  0
 70 69  1  0
 71 72  1  0
 71 70  1  0
 72 68  1  0
 73 74  2  0
 74 75  1  0
 76 75  2  0
 77 76  1  0
 78 52  1  0
 78 79  1  0
 78 88  1  0
 79 82  1  0
 80 84  1  0
 80 79  1  0
 81 80  2  0
 84 83  1  0
 86 87  1  0
 86 84  1  0
 86 85  1  0
 88 91  1  1
 88 89  1  0
 90 88  1  0
M  ISO  4  10 100  11 100  50 101  51 101
M  END
>  <TORSDO>  (40) 
F 22

>  <SCORE>  (40) 
-12.443

>  <name>  (40) 
39

>  <ligand_id>  (40) 
39

>  <original_smiles>  (40) 
[H]c1c([H])c([H])c2c(c1[H])C([H])([H])C([H])([H])C([H])([H])C2([H])N([H])C(=O)C1([H])N(C(=O)C([H])(N([H])C(=O)C([H])(N([H])C([H])([H])[H])C([H])([H])[H])C(C([H])([H])[H])(C([H])([H])[H])C([H])([H])[H])C([H])([H])c2c([H])c(OC([H])([H])C([H])([H])c3c([H])c([H])c(C(=O)C([H])([H])C([H])([H])C(=O)N4C([H])([H])C([H])([H])C([H])([H])C([H])(n5nc(-c6c([H])c([H])c(Oc7c([H])c([H])c(F)c([H])c7F)c([H])c6[H])c(C(=O)N([H])[H])c5N([H])[H])C4([H])[H])c([H])c3OC([H])([H])[H])c([H])c([H])c2C1([H])[H]

>  <smiles>  (40) 
[H]c1c([H])c([H])c2c(c1[H])C([H])([H])C([H])([H])C([H])([H])C2([H])N([H])C(=O)C1([H])N(C(=O)C([H])(N([H])C(=O)C([H])(N([H])C([H])([H])[H])C([H])([H])[H])C(C([H])([H])[H])(C([H])([H])[H])C([H])([H])[H])C([H])([H])c2c([H])c(OC([H])([H])C([H])([H])c3c([H])c([H])c(C(=O)C([H])([H])C([H])([H])C(=O)N4C([H])([H])C([H])([H])C([H])([H])C([H])(n5nc(-c6c([H])c([H])c(Oc7c([H])c([H])c(F)c([H])c7F)c([H])c6[H])c(C(=O)N([H])[H])c5N([H])[H])C4([H])[H])c([H])c3OC([H])([H])[H])c([H])c([H])c2C1([H])[H]

$$$$
40:0:0
     RDKit          3D

 92100  0  0  1  0  0  0  0  0999 V2000
  -30.6740  -17.2580   21.3390 C   0  0  0  0  0  3  0  0  0  0  0  0
  -30.7980  -16.8510   19.9970 C   0  0  0  0  0  0  0  0  0  0  0  0
  -30.2790  -19.5490   19.4490 C   0  0  0  0  0  0  0  0  0  0  0  0
  -30.3960  -18.5880   21.7560 C   0  0  0  0  0  0  0  0  0  0  0  0
  -30.1430  -19.6740   20.8590 C   0  0  0  0  0  0  0  0  0  0  0  0
  -30.6180  -18.0790   19.0750 C   0  0  0  0  0  0  0  0  0  0  0  0
  -30.7860  -17.8390   17.7530 F   0  0  0  0  0  0  0  0  0  0  0  0
  -31.3320  -15.2640   19.7690 C   0  0  0  0  0  0  0  0  0  0  0  0
  -31.1230  -12.7200   19.2820 C   0  0  0  0  0  2  0  0  0  0  0  0
  -30.2100  -12.4290   18.0630 C   0  0  0  0  0  2  0  0  0  0  0  0
  -28.7430  -12.3100   18.5100 C   0  0  0  0  0  2  0  0  0  0  0  0
  -28.3490  -13.4370   19.4980 C   0  0  0  0  0  3  0  0  0  0  0  0
  -29.3980  -13.6850   20.6080 C   0  0  0  0  0  2  0  0  0  0  0  0
  -30.6780  -14.0060   19.9520 N   0  0  0  0  0  0  0  0  0  0  0  0
  -32.5070  -15.1080   19.4100 O   0  0  0  0  0  0  0  0  0  0  0  0
  -26.0780  -14.2500   20.3250 C   0  0  0  0  0  0  0  0  0  0  0  0
  -24.9360  -13.5980   20.6920 C   0  0  0  0  0  0  0  0  0  0  0  0
  -25.2280  -12.2010   20.6030 C   0  0  0  0  0  0  0  0  0  0  0  0
  -27.0000  -13.2630   20.0250 N   0  0  0  0  0  0  0  0  0  0  0  0
  -26.5030  -12.0190   20.2590 N   0  0  0  0  0  0  0  0  0  0  0  0
  -24.3510  -11.0340   20.7720 C   0  0  0  0  0  0  0  0  0  0  0  0
  -24.6970   -9.9650   21.6250 C   0  0  0  0  0  3  0  0  0  0  0  0
  -23.8260   -8.8650   21.7890 C   0  0  0  0  0  3  0  0  0  0  0  0
  -22.5930   -8.8270   21.0950 C   0  0  0  0  0  0  0  0  0  0  0  0
  -22.2620   -9.8850   20.2320 C   0  0  0  0  0  3  0  0  0  0  0  0
  -23.1310  -10.9760   20.0680 C   0  0  0  0  0  3  0  0  0  0  0  0
  -21.6980   -7.7870   21.1690 O   0  0  0  0  0  0  0  0  0  0  0  0
  -21.6720   -6.9330   22.2430 C   0  0  0  0  0  0  0  0  0  0  0  0
  -21.4670   -7.3990   23.5610 C   0  0  0  0  0  3  0  0  0  0  0  0
  -21.3800   -6.4800   24.6250 C   0  0  0  0  0  3  0  0  0  0  0  0
  -21.4860   -5.0990   24.3760 C   0  0  0  0  0  0  0  0  0  0  0  0
  -21.6820   -4.6330   23.0640 C   0  0  0  0  0  3  0  0  0  0  0  0
  -21.7720   -5.5490   22.0010 C   0  0  0  0  0  0  0  0  0  0  0  0
  -21.9420   -5.0910   20.7370 F   0  0  0  0  0  0  0  0  0  0  0  0
  -21.3940   -4.2180   25.3990 F   0  0  0  0  0  0  0  0  0  0  0  0
  -23.6130  -14.2390   21.0100 C   0  0  0  0  0  0  0  0  0  0  0  0
  -22.8250  -13.6120   21.8760 N   0  0  0  0  0  0  0  0  0  0  0  0
  -23.2960  -15.3240   20.5280 O   0  0  0  0  0  0  0  0  0  0  0  0
  -23.0980  -12.7340   22.2890 H   0  0  0  0  0  0  0  0  0  0  0  0
  -21.9410  -14.0240   22.1380 H   0  0  0  0  0  0  0  0  0  0  0  0
  -26.4070  -15.5960   20.1960 N   0  0  0  0  0  0  0  0  0  0  0  0
  -25.7310  -16.3320   20.3730 H   0  0  0  0  0  0  0  0  0  0  0  0
  -27.3020  -15.9410   19.8750 H   0  0  0  0  0  0  0  0  0  0  0  0
  -29.9910  -20.9750   18.5170 C   0  0  0  0  0  0  0  0  0  0  0  0
  -29.8290  -20.7840   17.3080 O   0  0  0  0  0  0  0  0  0  0  0  0
  -29.9030  -22.6890   18.9060 C   0  0  0  0  0  3  0  0  0  0  0  0
  -28.9200  -24.0750   18.2850 C   0  0  0  0  0  3  0  0  0  0  0  0
  -28.8860  -25.7130   18.5130 O   0  0  0  0  0  0  0  0  0  0  0  0
  -24.8140  -30.5770   22.5920 C   0  0  0  0  0  0  0  0  0  0  0  0
  -27.7220  -26.6350   18.6650 C   0  0  0  0  0  0  0  0  0  0  0  0
  -23.6680  -29.2570   20.8550 C   0  0  0  0  0  3  0  0  0  0  0  0
  -25.1800  -28.1130   19.0900 C   0  0  0  0  0  0  0  0  0  0  0  0
  -26.1500  -29.8820   20.5440 C   0  0  0  0  0  2  0  0  0  0  0  0
  -26.3530  -28.6070   19.6760 C   0  0  0  0  0  0  0  0  0  0  0  0
  -27.6090  -27.8880   19.4460 C   0  0  0  0  0  3  0  0  0  0  0  0
  -26.4970  -26.2970   18.0490 C   0  0  0  0  0  3  0  0  0  0  0  0
  -25.2740  -26.9860   18.2580 C   0  0  0  0  0  3  0  0  0  0  0  0
  -23.8530  -28.8170   19.3760 C   0  0  0  0  0  2  0  0  0  0  0  0
  -24.9010  -29.9250   21.3870 N   0  0  0  0  0  0  0  0  0  0  0  0
  -23.7540  -30.6170   23.2370 O   0  0  0  0  0  0  0  0  0  0  0  0
  -23.2240  -28.0420   21.7100 C   0  0  0  0  0  0  0  0  0  0  0  0
  -21.9480  -27.6320   21.5930 N   0  0  0  0  0  0  0  0  0  0  0  0
  -24.0340  -27.4720   22.4460 O   0  0  0  0  0  0  0  0  0  0  0  0
  -21.3380  -28.1540   20.9780 H   0  0  0  0  0  0  0  0  0  0  0  0
  -18.9340  -25.6340   21.8980 C   0  0  0  0  0  0  0  0  0  0  0  0
  -21.3580  -26.4670   22.2600 C   0  0  0  0  0  3  0  0  0  0  0  0
  -21.7990  -25.1490   21.5810 C   0  0  0  0  0  2  0  0  0  0  0  0
  -20.8180  -24.6640   20.5090 C   0  0  0  0  0  2  0  0  0  0  0  0
  -19.4330  -24.4280   21.1190 C   0  0  0  0  0  2  0  0  0  0  0  0
  -19.8380  -26.5990   22.4200 C   0  0  0  0  0  0  0  0  0  0  0  0
  -19.3180  -27.7160   23.1080 C   0  0  0  0  0  3  0  0  0  0  0  0
  -17.9290  -27.8770   23.2800 C   0  0  0  0  0  3  0  0  0  0  0  0
  -17.0420  -26.9130   22.7710 C   0  0  0  0  0  3  0  0  0  0  0  0
  -17.5450  -25.7930   22.0850 C   0  0  0  0  0  3  0  0  0  0  0  0
  -26.0410  -31.3110   23.2140 C   0  0  0  0  0  3  0  0  0  0  0  0
  -25.5600  -32.5720   23.8070 N   0  0  0  0  0  0  0  0  0  0  0  0
  -25.7470  -33.7900   23.2800 C   0  0  0  0  0  0  0  0  0  0  0  0
  -26.4010  -33.9780   22.2510 O   0  0  0  0  0  0  0  0  0  0  0  0
  -24.9670  -32.4860   24.6170 H   0  0  0  0  0  0  0  0  0  0  0  0
  -23.8240  -35.4210   23.2710 C   0  0  0  0  0  1  0  0  0  0  0  0
  -25.1050  -34.9920   24.0050 C   0  0  0  0  0  3  0  0  0  0  0  0
  -27.1240  -35.9240   25.0490 C   0  0  0  0  0  1  0  0  0  0  0  0
  -26.0090  -36.1560   24.1330 N   0  0  0  0  0  0  0  0  0  0  0  0
  -25.5020  -36.9760   24.4530 H   0  0  0  0  0  0  0  0  0  0  0  0
  -26.7890  -30.4490   24.3050 C   0  0  1  0  0  0  0  0  0  0  0  0
  -25.8590  -29.9030   25.4140 C   0  0  0  0  0  1  0  0  0  0  0  0
  -27.5100  -29.2430   23.6610 C   0  0  0  0  0  1  0  0  0  0  0  0
  -27.8820  -31.3060   24.9860 C   0  0  0  0  0  1  0  0  0  0  0  0
  -31.8460  -19.0500   23.7900 C   0  0  0  0  0  1  0  0  0  0  0  0
  -30.4190  -18.8280   23.2600 C   0  0  0  0  0  2  0  0  0  0  0  0
  -28.4420  -21.2730   21.0640 C   0  0  0  0  0  1  0  0  0  0  0  0
  -29.7750  -20.8830   21.3980 O   0  0  0  0  0  0  0  0  0  0  0  0
  1  4  1  0
  2  1  2  0
  3  5  1  0
  4 90  1  0
  5 92  1  0
  5  4  2  0
  6  3  2  0
  6  2  1  0
  7  6  1  0
  8 14  1  0
  8  2  1  0
  9 14  1  0
 10 11  1  0
 10  9  1  0
 12 11  1  0
 12 19  1  0
 12 13  1  0
 14 13  1  0
 15  8  2  0
 16 17  2  0
 17 36  1  0
 18 17  1  0
 18 21  1  0
 19 20  1  0
 19 16  1  0
 20 18  2  0
 21 22  1  0
 22 23  2  0
 24 27  1  0
 24 23  1  0
 25 24  2  0
 26 25  1  0
 26 21  2  0
 27 28  1  0
 28 29  1  0
 29 30  2  0
 31 30  1  0
 31 35  1  0
 32 31  2  0
 33 28  2  0
 33 32  1  0
 34 33  1  0
 36 37  1  0
 37 40  1  0
 37 39  1  0
 38 36  2  0
 41 16  1  0
 41 42  1  0
 43 41  1  0
 44 46  1  0
 44  3  1  0
 45 44  2  0
 47 48  1  0
 47 46  2  0
 48 50  1  0
 49 60  2  0
 50 55  1  0
 51 59  1  0
 51 61  1  0
 52 58  1  0
 52 54  1  0
 53 59  1  0
 54 53  1  0
 55 54  2  0
 56 57  1  0
 56 50  2  0
 57 52  2  0
 58 51  1  0
 59 49  1  0
 61 63  2  0
 62 61  1  0
 64 62  1  0
 65 74  2  0
 65 70  1  0
 66 62  1  0
 66 70  1  0
 67 66  1  0
 68 69  1  0
 68 67  1  0
 69 65  1  0
 70 71  2  0
 71 72  1  0
 73 72  2  0
 74 73  1  0
 75 49  1  0
 75 76  1  0
 75 85  1  0
 76 79  1  0
 77 76  1  0
 77 81  1  0
 78 77  2  0
 81 80  1  0
 81 83  1  0
 83 84  1  0
 83 82  1  0
 85 88  1  1
 85 86  1  0
 87 85  1  0
 90 89  1  0
 91 92  1  0
M  ISO  4   2 100   8 100  47 101  48 101
M  END
>  <TORSDO>  (41) 
F 21

>  <SCORE>  (41) 
-9.771

>  <name>  (41) 
40

>  <ligand_id>  (41) 
40

>  <original_smiles>  (41) 
[H]c1c([H])c([H])c2c(c1[H])C([H])([H])C([H])([H])C([H])([H])C2([H])N([H])C(=O)C1([H])N(C(=O)C([H])(N([H])C(=O)C([H])(N([H])C([H])([H])[H])C([H])([H])[H])C(C([H])([H])[H])(C([H])([H])[H])C([H])([H])[H])C([H])([H])c2c([H])c(OC([H])([H])C([H])([H])C(=O)c3c(F)c(C(=O)N4C([H])([H])C([H])([H])C([H])([H])C([H])(n5nc(-c6c([H])c([H])c(Oc7c([H])c([H])c(F)c([H])c7F)c([H])c6[H])c(C(=O)N([H])[H])c5N([H])[H])C4([H])[H])c([H])c(C([H])([H])C([H])([H])[H])c3OC([H])([H])[H])c([H])c([H])c2C1([H])[H]

>  <smiles>  (41) 
[H]c1c([H])c([H])c2c(c1[H])C([H])([H])C([H])([H])C([H])([H])C2([H])N([H])C(=O)C1([H])N(C(=O)C([H])(N([H])C(=O)C([H])(N([H])C([H])([H])[H])C([H])([H])[H])C(C([H])([H])[H])(C([H])([H])[H])C([H])([H])[H])C([H])([H])c2c([H])c(OC([H])([H])C([H])([H])C(=O)c3c(F)c(C(=O)N4C([H])([H])C([H])([H])C([H])([H])C([H])(n5nc(-c6c([H])c([H])c(Oc7c([H])c([H])c(F)c([H])c7F)c([H])c6[H])c(C(=O)N([H])[H])c5N([H])[H])C4([H])[H])c([H])c(C([H])([H])C([H])([H])[H])c3OC([H])([H])[H])c([H])c([H])c2C1([H])[H]

$$$$
41:0:0
     RDKit          3D

 93102  0  0  1  0  0  0  0  0999 V2000
  -30.7410  -19.3550   20.5530 C   0  0  0  0  0  3  0  0  0  0  0  0
  -29.9500  -16.9430   19.9210 C   0  0  0  0  0  0  0  0  0  0  0  0
  -29.5630  -20.1150   20.2510 C   0  0  0  0  0  0  0  0  0  0  0  0
  -28.5360  -19.2410   19.8140 C   0  0  0  0  0  0  0  0  0  0  0  0
  -30.9300  -17.9080   20.4160 C   0  0  0  0  0  0  0  0  0  0  0  0
  -28.7290  -17.7500   19.6000 C   0  0  0  0  0  0  0  0  0  0  0  0
  -29.4430  -21.7810   20.3580 C   0  0  0  0  0  2  0  0  0  0  0  0
  -27.2040  -20.0510   19.6600 C   0  0  0  0  0  2  0  0  0  0  0  0
  -27.2190  -21.6560   19.4150 C   0  0  0  0  0  2  0  0  0  0  0  0
  -28.0230  -22.6890   20.3350 C   0  0  1  0  0  0  0  0  0  0  0  0
  -27.5850  -17.0340   18.9100 C   0  0  0  0  0  1  0  0  0  0  0  0
  -27.4400  -22.6580   21.7560 C   0  0  0  0  0  1  0  0  0  0  0  0
  -30.3930  -15.3470   19.5490 C   0  0  0  0  0  0  0  0  0  0  0  0
  -30.1650  -12.9380   18.6400 C   0  0  0  0  0  2  0  0  0  0  0  0
  -29.1140  -12.7880   17.5170 C   0  0  0  0  0  2  0  0  0  0  0  0
  -27.7400  -12.4790   18.1280 C   0  0  0  0  0  2  0  0  0  0  0  0
  -27.4210  -13.4010   19.3290 C   0  0  0  0  0  3  0  0  0  0  0  0
  -28.5980  -13.5710   20.3160 C   0  0  0  0  0  2  0  0  0  0  0  0
  -29.7510  -14.0750   19.5530 N   0  0  0  0  0  0  0  0  0  0  0  0
  -31.5410  -15.2350   19.1010 O   0  0  0  0  0  0  0  0  0  0  0  0
  -25.1830  -13.8800   20.4450 C   0  0  0  0  0  0  0  0  0  0  0  0
  -24.1780  -13.0700   20.8890 C   0  0  0  0  0  0  0  0  0  0  0  0
  -24.6360  -11.7310   20.6980 C   0  0  0  0  0  0  0  0  0  0  0  0
  -26.1810  -13.0350   19.9960 N   0  0  0  0  0  0  0  0  0  0  0  0
  -25.8750  -11.7300   20.2160 N   0  0  0  0  0  0  0  0  0  0  0  0
  -23.9390  -10.4520   20.8900 C   0  0  0  0  0  0  0  0  0  0  0  0
  -24.4370   -9.4650   21.7690 C   0  0  0  0  0  3  0  0  0  0  0  0
  -23.7350   -8.2540   21.9550 C   0  0  0  0  0  3  0  0  0  0  0  0
  -22.5220   -8.0230   21.2630 C   0  0  0  0  0  0  0  0  0  0  0  0
  -22.0440   -9.0010   20.3720 C   0  0  0  0  0  3  0  0  0  0  0  0
  -22.7460  -10.2030   20.1850 C   0  0  0  0  0  3  0  0  0  0  0  0
  -21.7850   -6.8680   21.3630 O   0  0  0  0  0  0  0  0  0  0  0  0
  -21.7650   -6.1250   22.5170 C   0  0  0  0  0  0  0  0  0  0  0  0
  -21.3080   -6.6600   23.7400 C   0  0  0  0  0  3  0  0  0  0  0  0
  -21.2400   -5.8420   24.8860 C   0  0  0  0  0  3  0  0  0  0  0  0
  -21.6170   -4.4870   24.8070 C   0  0  0  0  0  0  0  0  0  0  0  0
  -22.0650   -3.9510   23.5870 C   0  0  0  0  0  3  0  0  0  0  0  0
  -22.1370   -4.7670   22.4450 C   0  0  0  0  0  0  0  0  0  0  0  0
  -22.5510   -4.2410   21.2670 F   0  0  0  0  0  0  0  0  0  0  0  0
  -21.5440   -3.6970   25.9030 F   0  0  0  0  0  0  0  0  0  0  0  0
  -22.8300  -13.5170   21.3740 C   0  0  0  0  0  0  0  0  0  0  0  0
  -22.2240  -12.7610   22.2820 N   0  0  0  0  0  0  0  0  0  0  0  0
  -22.3300  -14.5710   20.9840 O   0  0  0  0  0  0  0  0  0  0  0  0
  -22.6440  -11.9070   22.6160 H   0  0  0  0  0  0  0  0  0  0  0  0
  -21.3270  -13.0420   22.6500 H   0  0  0  0  0  0  0  0  0  0  0  0
  -25.3210  -15.2610   20.3580 N   0  0  0  0  0  0  0  0  0  0  0  0
  -24.5860  -15.8970   20.6510 H   0  0  0  0  0  0  0  0  0  0  0  0
  -26.1540  -15.7340   20.0360 H   0  0  0  0  0  0  0  0  0  0  0  0
  -32.3330  -17.4400   20.7900 C   0  0  0  0  0  2  0  0  0  0  0  0
  -34.5690  -16.8450   19.7040 C   0  0  0  0  0  1  0  0  0  0  0  0
  -33.3660  -17.7920   19.7040 C   0  0  0  0  0  2  0  0  0  0  0  0
  -27.7450  -24.3820   19.8050 C   0  0  0  0  0  2  0  0  0  0  0  0
  -27.8170  -25.9190   20.3510 O   0  0  0  0  0  0  0  0  0  0  0  0
  -24.7840  -32.1040   23.2900 C   0  0  0  0  0  0  0  0  0  0  0  0
  -26.8560  -27.0450   20.2500 C   0  0  0  0  0  0  0  0  0  0  0  0
  -23.4100  -30.7550   21.7550 C   0  0  0  0  0  3  0  0  0  0  0  0
  -24.6710  -29.0420   20.2870 C   0  0  0  0  0  0  0  0  0  0  0  0
  -25.9680  -30.8100   21.4560 C   0  0  0  0  0  2  0  0  0  0  0  0
  -25.9140  -29.3910   20.8290 C   0  0  0  0  0  0  0  0  0  0  0  0
  -26.9970  -28.4110   20.7900 C   0  0  0  0  0  3  0  0  0  0  0  0
  -25.5880  -26.8380   19.6590 C   0  0  0  0  0  3  0  0  0  0  0  0
  -24.5320  -27.7830   19.6810 C   0  0  0  0  0  3  0  0  0  0  0  0
  -23.5160  -30.0350   20.3830 C   0  0  0  0  0  2  0  0  0  0  0  0
  -24.7460  -31.2480   22.2200 N   0  0  0  0  0  0  0  0  0  0  0  0
  -23.7480  -32.4720   23.8670 O   0  0  0  0  0  0  0  0  0  0  0  0
  -22.7150  -29.8240   22.7800 C   0  0  0  0  0  0  0  0  0  0  0  0
  -21.4000  -29.5920   22.6180 N   0  0  0  0  0  0  0  0  0  0  0  0
  -23.3660  -29.3090   23.6920 O   0  0  0  0  0  0  0  0  0  0  0  0
  -20.9260  -30.0580   21.8570 H   0  0  0  0  0  0  0  0  0  0  0  0
  -18.0880  -28.1590   22.9930 C   0  0  0  0  0  0  0  0  0  0  0  0
  -20.5790  -28.6980   23.4420 C   0  0  0  0  0  3  0  0  0  0  0  0
  -20.8520  -27.2160   23.0950 C   0  0  0  0  0  2  0  0  0  0  0  0
  -19.8880  -26.6550   22.0450 C   0  0  0  0  0  2  0  0  0  0  0  0
  -18.4420  -26.7540   22.5360 C   0  0  0  0  0  2  0  0  0  0  0  0
  -19.0920  -29.0760   23.4030 C   0  0  0  0  0  0  0  0  0  0  0  0
  -18.7100  -30.3790   23.7900 C   0  0  0  0  0  3  0  0  0  0  0  0
  -17.3570  -30.7690   23.7700 C   0  0  0  0  0  3  0  0  0  0  0  0
  -16.3680  -29.8520   23.3760 C   0  0  0  0  0  3  0  0  0  0  0  0
  -16.7320  -28.5500   22.9930 C   0  0  0  0  0  3  0  0  0  0  0  0
  -26.1290  -32.6770   23.8310 C   0  0  0  0  0  3  0  0  0  0  0  0
  -26.6860  -31.8770   25.0740 C   0  0  1  0  0  0  0  0  0  0  0  0
  -25.6350  -31.6420   26.1850 C   0  0  0  0  0  1  0  0  0  0  0  0
  -27.2300  -30.4950   24.6450 C   0  0  0  0  0  1  0  0  0  0  0  0
  -27.8760  -32.6420   25.6990 C   0  0  0  0  0  1  0  0  0  0  0  0
  -25.9080  -34.0870   24.1950 N   0  0  0  0  0  0  0  0  0  0  0  0
  -26.2400  -35.1370   23.4320 C   0  0  0  0  0  0  0  0  0  0  0  0
  -26.8270  -35.0170   22.3530 O   0  0  0  0  0  0  0  0  0  0  0  0
  -25.3820  -34.2590   25.0380 H   0  0  0  0  0  0  0  0  0  0  0  0
  -24.5810  -37.0220   23.2390 C   0  0  0  0  0  1  0  0  0  0  0  0
  -25.8620  -36.5420   23.9420 C   0  0  0  0  0  3  0  0  0  0  0  0
  -28.0950  -37.3130   24.6120 C   0  0  0  0  0  1  0  0  0  0  0  0
  -26.9330  -37.5460   23.7590 N   0  0  0  0  0  0  0  0  0  0  0  0
  -26.5860  -38.4830   23.9470 H   0  0  0  0  0  0  0  0  0  0  0  0
  2  5  2  0
  3  7  1  0
  3  1  2  0
  4  3  1  0
  5  1  1  0
  5 49  1  0
  6  4  2  0
  6  2  1  0
  8  4  1  0
  9  8  1  0
  9 10  1  0
 10  7  1  0
 10 12  1  1
 11  6  1  0
 13 19  1  0
 13  2  1  0
 14 19  1  0
 15 16  1  0
 15 14  1  0
 17 16  1  0
 17 24  1  0
 17 18  1  0
 19 18  1  0
 20 13  2  0
 21 22  2  0
 22 41  1  0
 23 22  1  0
 23 26  1  0
 24 25  1  0
 24 21  1  0
 25 23  2  0
 26 27  1  0
 27 28  2  0
 29 32  1  0
 29 28  1  0
 30 29  2  0
 31 30  1  0
 31 26  2  0
 32 33  1  0
 33 34  1  0
 34 35  2  0
 36 35  1  0
 36 40  1  0
 37 36  2  0
 38 33  2  0
 38 37  1  0
 39 38  1  0
 41 42  1  0
 42 44  1  0
 42 45  1  0
 43 41  2  0
 46 21  1  0
 46 47  1  0
 48 46  1  0
 51 50  1  0
 51 49  1  0
 52 10  1  0
 52 53  1  0
 54 65  2  0
 55 53  1  0
 55 60  1  0
 56 64  1  0
 56 66  1  0
 57 63  1  0
 57 59  1  0
 58 64  1  0
 59 58  1  0
 60 59  2  0
 61 62  1  0
 61 55  2  0
 62 57  2  0
 63 56  1  0
 64 54  1  0
 66 68  2  0
 67 66  1  0
 69 67  1  0
 70 79  2  0
 70 75  1  0
 71 67  1  0
 72 71  1  0
 73 74  1  0
 73 72  1  0
 74 70  1  0
 75 71  1  0
 75 76  2  0
 77 76  1  0
 78 77  2  0
 79 78  1  0
 80 54  1  0
 80 85  1  0
 80 81  1  0
 81 84  1  1
 81 82  1  0
 83 81  1  0
 85 88  1  0
 86 90  1  0
 86 85  1  0
 87 86  2  0
 90 89  1  0
 92 90  1  0
 92 93  1  0
 92 91  1  0
M  ISO  4   2 100  13 100  52 101  53 101
M  END
>  <TORSDO>  (42) 
F 19

>  <SCORE>  (42) 
-13.626

>  <name>  (42) 
41

>  <ligand_id>  (42) 
41

>  <original_smiles>  (42) 
[H]c1c([H])c([H])c2c(c1[H])C([H])([H])C([H])([H])C([H])([H])C2([H])N([H])C(=O)C1([H])N(C(=O)C([H])(N([H])C(=O)C([H])(N([H])C([H])([H])[H])C([H])([H])[H])C(C([H])([H])[H])(C([H])([H])[H])C([H])([H])[H])C([H])([H])c2c([H])c(OC([H])([H])C3(C([H])([H])[H])C([H])([H])c4c([H])c(C([H])([H])C([H])([H])C([H])([H])[H])c(C(=O)N5C([H])([H])C([H])([H])C([H])([H])C([H])(n6nc(-c7c([H])c([H])c(Oc8c([H])c([H])c(F)c([H])c8F)c([H])c7[H])c(C(=O)N([H])[H])c6N([H])[H])C5([H])[H])c(C([H])([H])[H])c4C([H])([H])C3([H])[H])c([H])c([H])c2C1([H])[H]

>  <smiles>  (42) 
[H]c1c([H])c([H])c2c(c1[H])C([H])([H])C([H])([H])C([H])([H])C2([H])N([H])C(=O)C1([H])N(C(=O)C([H])(N([H])C(=O)C([H])(N([H])C([H])([H])[H])C([H])([H])[H])C(C([H])([H])[H])(C([H])([H])[H])C([H])([H])[H])C([H])([H])c2c([H])c(OC([H])([H])C3(C([H])([H])[H])C([H])([H])c4c([H])c(C([H])([H])C([H])([H])C([H])([H])[H])c(C(=O)N5C([H])([H])C([H])([H])C([H])([H])C([H])(n6nc(-c7c([H])c([H])c(Oc8c([H])c([H])c(F)c([H])c8F)c([H])c7[H])c(C(=O)N([H])[H])c6N([H])[H])C5([H])[H])c(C([H])([H])[H])c4C([H])([H])C3([H])[H])c([H])c([H])c2C1([H])[H]

$$$$
42:0:0
     RDKit          3D

 99107  0  0  1  0  0  0  0  0999 V2000
  -26.3770  -23.9090   19.7390 C   0  0  0  0  0  3  0  0  0  0  0  0
  -25.8050  -23.2700   18.6350 C   0  0  0  0  0  0  0  0  0  0  0  0
  -27.6910  -23.6670   20.1890 C   0  0  0  0  0  0  0  0  0  0  0  0
  -26.3550  -22.0480   18.2070 C   0  0  0  0  0  0  0  0  0  0  0  0
  -28.2560  -22.3600   19.7920 C   0  0  0  0  0  0  0  0  0  0  0  0
  -27.4200  -21.5070   18.9810 C   0  0  0  0  0  0  0  0  0  0  0  0
  -24.6950  -23.9680   17.9340 C   0  0  0  0  0  0  0  0  0  0  0  0
  -24.7900  -24.3510   16.7650 O   0  0  0  0  0  0  0  0  0  0  0  0
  -22.3740  -25.0500   17.9530 C   0  0  0  0  0  1  0  0  0  0  0  0
  -23.3930  -24.1840   18.7160 C   0  0  0  0  0  2  0  0  0  0  0  0
  -24.2670  -20.9950   17.0420 C   0  0  0  0  0  1  0  0  0  0  0  0
  -25.7770  -21.3040   16.9890 C   0  0  0  0  0  2  0  0  0  0  0  0
  -28.2810  -24.8240   21.1390 C   0  0  0  0  0  2  0  0  0  0  0  0
  -28.3860  -26.3520   21.0100 O   0  0  0  0  0  0  0  0  0  0  0  0
  -24.5890  -31.9830   23.6300 C   0  0  0  0  0  0  0  0  0  0  0  0
  -27.3200  -27.2740   20.8830 C   0  0  0  0  0  0  0  0  0  0  0  0
  -23.4900  -30.5690   21.9280 C   0  0  0  0  0  3  0  0  0  0  0  0
  -25.0250  -28.9780   20.6350 C   0  0  0  0  0  0  0  0  0  0  0  0
  -26.0450  -30.8180   21.9580 C   0  0  0  0  0  2  0  0  0  0  0  0
  -26.1420  -29.4230   21.3540 C   0  0  0  0  0  0  0  0  0  0  0  0
  -27.2860  -28.5730   21.4920 C   0  0  0  0  0  3  0  0  0  0  0  0
  -26.2600  -26.9820   20.0050 C   0  0  0  0  0  3  0  0  0  0  0  0
  -25.0890  -27.7600   19.9480 C   0  0  0  0  0  3  0  0  0  0  0  0
  -23.8020  -29.8690   20.5770 C   0  0  0  0  0  2  0  0  0  0  0  0
  -24.7230  -31.1450   22.5610 N   0  0  0  0  0  0  0  0  0  0  0  0
  -23.4750  -32.2890   24.0740 O   0  0  0  0  0  0  0  0  0  0  0  0
  -22.7400  -29.5780   22.8490 C   0  0  0  0  0  0  0  0  0  0  0  0
  -21.4260  -29.4240   22.6320 N   0  0  0  0  0  0  0  0  0  0  0  0
  -23.3460  -28.9580   23.7260 O   0  0  0  0  0  0  0  0  0  0  0  0
  -21.0070  -29.9730   21.8960 H   0  0  0  0  0  0  0  0  0  0  0  0
  -17.9990  -28.3080   22.9060 C   0  0  0  0  0  0  0  0  0  0  0  0
  -20.5350  -28.5130   23.3500 C   0  0  0  0  0  3  0  0  0  0  0  0
  -20.6470  -27.0740   22.7890 C   0  0  0  0  0  2  0  0  0  0  0  0
  -19.6000  -26.7640   21.7140 C   0  0  0  0  0  2  0  0  0  0  0  0
  -18.1840  -26.9460   22.2610 C   0  0  0  0  0  2  0  0  0  0  0  0
  -19.0980  -29.0530   23.4060 C   0  0  0  0  0  0  0  0  0  0  0  0
  -18.8630  -30.3300   23.9640 C   0  0  0  0  0  3  0  0  0  0  0  0
  -17.5590  -30.8600   24.0350 C   0  0  0  0  0  3  0  0  0  0  0  0
  -16.4760  -30.1110   23.5450 C   0  0  0  0  0  3  0  0  0  0  0  0
  -16.6960  -28.8400   22.9900 C   0  0  0  0  0  3  0  0  0  0  0  0
  -25.8310  -32.6080   24.3340 C   0  0  0  0  0  3  0  0  0  0  0  0
  -26.1820  -31.9130   25.7060 C   0  0  1  0  0  0  0  0  0  0  0  0
  -24.9740  -31.7870   26.6630 C   0  0  0  0  0  1  0  0  0  0  0  0
  -26.7440  -30.4910   25.4750 C   0  0  0  0  0  1  0  0  0  0  0  0
  -27.2890  -32.7150   26.4330 C   0  0  0  0  0  1  0  0  0  0  0  0
  -25.5530  -34.0390   24.5370 N   0  0  0  0  0  0  0  0  0  0  0  0
  -26.0000  -35.0210   23.7410 C   0  0  0  0  0  0  0  0  0  0  0  0
  -26.7550  -34.8180   22.7870 O   0  0  0  0  0  0  0  0  0  0  0  0
  -24.9050  -34.2700   25.2750 H   0  0  0  0  0  0  0  0  0  0  0  0
  -24.3720  -36.8380   23.1220 C   0  0  0  0  0  1  0  0  0  0  0  0
  -25.5330  -36.4600   24.0550 C   0  0  0  0  0  3  0  0  0  0  0  0
  -27.6460  -37.3220   24.9660 C   0  0  0  0  0  1  0  0  0  0  0  0
  -26.6140  -37.4640   23.9420 N   0  0  0  0  0  0  0  0  0  0  0  0
  -26.2400  -38.4060   24.0000 H   0  0  0  0  0  0  0  0  0  0  0  0
  -27.4700  -19.9720   19.1130 C   0  0  0  0  0  2  0  0  0  0  0  0
  -26.1520  -19.4350   19.7190 C   0  0  0  0  0  2  0  0  0  0  0  0
  -23.9280  -18.2750   19.3220 C   0  0  0  0  0  1  0  0  0  0  0  0
  -25.4120  -18.3480   18.9200 C   0  0  0  0  0  2  0  0  0  0  0  0
  -29.6550  -21.7530   20.2380 C   0  0  0  0  0  2  0  0  0  0  0  0
  -30.1420  -20.3080   19.6670 C   0  0  0  0  0  3  0  0  0  0  0  0
  -30.4960  -19.0610   20.6330 C   0  0  0  0  0  3  0  0  0  0  0  0
  -30.8240  -17.6270   19.9860 C   0  0  0  0  0  3  0  0  0  0  0  0
  -30.6280  -16.2930   20.8570 C   0  0  0  0  0  3  0  0  0  0  0  0
  -31.3410  -14.9450   20.4010 C   0  0  0  0  0  0  0  0  0  0  0  0
  -31.1540  -12.6160   19.5100 C   0  0  0  0  0  2  0  0  0  0  0  0
  -30.2590  -12.6210   18.2470 C   0  0  0  0  0  2  0  0  0  0  0  0
  -28.7680  -12.5190   18.6270 C   0  0  0  0  0  2  0  0  0  0  0  0
  -28.3720  -13.4810   19.7800 C   0  0  0  0  0  3  0  0  0  0  0  0
  -29.3890  -13.4250   20.9440 C   0  0  0  0  0  2  0  0  0  0  0  0
  -30.7150  -13.7220   20.3880 N   0  0  0  0  0  0  0  0  0  0  0  0
  -32.4970  -15.0360   19.9820 O   0  0  0  0  0  0  0  0  0  0  0  0
  -25.9860  -14.1660   20.4420 C   0  0  0  0  0  0  0  0  0  0  0  0
  -24.8790  -13.4380   20.7820 C   0  0  0  0  0  0  0  0  0  0  0  0
  -25.2870  -12.0670   20.7580 C   0  0  0  0  0  0  0  0  0  0  0  0
  -27.0010  -13.2500   20.2280 N   0  0  0  0  0  0  0  0  0  0  0  0
  -26.5810  -11.9800   20.4750 N   0  0  0  0  0  0  0  0  0  0  0  0
  -24.5040  -10.8340   20.9230 C   0  0  0  0  0  0  0  0  0  0  0  0
  -24.8580   -9.8590   21.8820 C   0  0  0  0  0  3  0  0  0  0  0  0
  -24.0820   -8.6920   22.0380 C   0  0  0  0  0  3  0  0  0  0  0  0
  -22.9350   -8.4910   21.2360 C   0  0  0  0  0  0  0  0  0  0  0  0
  -22.5980   -9.4510   20.2690 C   0  0  0  0  0  3  0  0  0  0  0  0
  -23.3730  -10.6110   20.1100 C   0  0  0  0  0  3  0  0  0  0  0  0
  -22.1330   -7.3770   21.3030 O   0  0  0  0  0  0  0  0  0  0  0  0
  -21.9770   -6.6720   22.4680 C   0  0  0  0  0  0  0  0  0  0  0  0
  -21.5060   -7.2820   23.6510 C   0  0  0  0  0  3  0  0  0  0  0  0
  -21.2950   -6.5040   24.8050 C   0  0  0  0  0  3  0  0  0  0  0  0
  -21.5410   -5.1170   24.7810 C   0  0  0  0  0  0  0  0  0  0  0  0
  -21.9980   -4.5090   23.6000 C   0  0  0  0  0  3  0  0  0  0  0  0
  -22.2120   -5.2830   22.4460 C   0  0  0  0  0  0  0  0  0  0  0  0
  -22.6380   -4.6840   21.3070 F   0  0  0  0  0  0  0  0  0  0  0  0
  -21.3230   -4.3680   25.8880 F   0  0  0  0  0  0  0  0  0  0  0  0
  -23.4950  -13.9720   21.0170 C   0  0  0  0  0  0  0  0  0  0  0  0
  -22.7250  -13.3240   21.8850 N   0  0  0  0  0  0  0  0  0  0  0  0
  -23.1070  -15.0030   20.4680 O   0  0  0  0  0  0  0  0  0  0  0  0
  -23.0410  -12.4890   22.3560 H   0  0  0  0  0  0  0  0  0  0  0  0
  -21.7960  -13.6710   22.0770 H   0  0  0  0  0  0  0  0  0  0  0  0
  -26.2100  -15.5300   20.2760 N   0  0  0  0  0  0  0  0  0  0  0  0
  -25.4650  -16.2100   20.3720 H   0  0  0  0  0  0  0  0  0  0  0  0
  -27.0770  -15.9390   19.9590 H   0  0  0  0  0  0  0  0  0  0  0  0
  1  3  1  0
  2  1  2  0
  3 13  1  0
  4  2  1  0
  4  6  2  0
  5  3  2  0
  5 59  1  0
  6 55  1  0
  6  5  1  0
  7  2  1  0
  7 10  1  0
  8  7  2  0
  9 10  1  0
 12 11  1  0
 12  4  1  0
 14 13  1  0
 15 26  2  0
 16 14  1  0
 16 21  1  0
 17 25  1  0
 17 27  1  0
 18 20  1  0
 19 25  1  0
 20 21  2  0
 20 19  1  0
 22 16  2  0
 23 22  1  0
 23 18  2  0
 24 18  1  0
 24 17  1  0
 25 15  1  0
 27 29  2  0
 28 27  1  0
 30 28  1  0
 31 40  2  0
 31 36  1  0
 32 28  1  0
 32 36  1  0
 33 32  1  0
 34 35  1  0
 34 33  1  0
 35 31  1  0
 36 37  2  0
 37 38  1  0
 39 38  2  0
 40 39  1  0
 41 15  1  0
 41 46  1  0
 41 42  1  0
 42 45  1  1
 42 43  1  0
 44 42  1  0
 46 49  1  0
 47 51  1  0
 47 46  1  0
 48 47  2  0
 51 50  1  0
 53 54  1  0
 53 51  1  0
 53 52  1  0
 55 56  1  0
 58 57  1  0
 58 56  1  0
 60 59  1  0
 60 61  2  0
 62 61  1  0
 62 63  2  0
 64 63  1  0
 65 70  1  0
 66 67  1  0
 66 65  1  0
 68 67  1  0
 68 75  1  0
 68 69  1  0
 70 64  1  0
 70 69  1  0
 71 64  2  0
 72 73  2  0
 73 92  1  0
 74 73  1  0
 74 77  1  0
 75 72  1  0
 75 76  1  0
 76 74  2  0
 77 78  1  0
 78 79  2  0
 80 83  1  0
 80 79  1  0
 81 80  2  0
 82 81  1  0
 82 77  2  0
 83 84  1  0
 84 85  1  0
 85 86  2  0
 87 86  1  0
 87 91  1  0
 88 87  2  0
 89 84  2  0
 89 88  1  0
 90 89  1  0
 92 93  1  0
 93 96  1  0
 93 95  1  0
 94 92  2  0
 97 98  1  0
 97 72  1  0
 99 97  1  0
M  ISO  4  13 101  14 101  63 100  64 100
M  END
>  <TORSDO>  (43) 
F 28

>  <SCORE>  (43) 
-7.927

>  <name>  (43) 
42

>  <ligand_id>  (43) 
42

>  <original_smiles>  (43) 
[H]c1c([H])c([H])c2c(c1[H])C([H])([H])C([H])([H])C([H])([H])C2([H])N([H])C(=O)C1([H])N(C(=O)C([H])(N([H])C(=O)C([H])(N([H])C([H])([H])[H])C([H])([H])[H])C(C([H])([H])[H])(C([H])([H])[H])C([H])([H])[H])C([H])([H])c2c([H])c(OC([H])([H])c3c([H])c(C(=O)C([H])([H])C([H])([H])[H])c(C([H])([H])C([H])([H])[H])c(C([H])([H])C([H])([H])C([H])([H])C([H])([H])[H])c3C([H])([H])C([H])([H])C([H])([H])C([H])([H])C([H])([H])C(=O)N3C([H])([H])C([H])([H])C([H])([H])C([H])(n4nc(-c5c([H])c([H])c(Oc6c([H])c([H])c(F)c([H])c6F)c([H])c5[H])c(C(=O)N([H])[H])c4N([H])[H])C3([H])[H])c([H])c([H])c2C1([H])[H]

>  <smiles>  (43) 
[H]c1c([H])c([H])c2c(c1[H])C([H])([H])C([H])([H])C([H])([H])C2([H])N([H])C(=O)C1([H])N(C(=O)C([H])(N([H])C(=O)C([H])(N([H])C([H])([H])[H])C([H])([H])[H])C(C([H])([H])[H])(C([H])([H])[H])C([H])([H])[H])C([H])([H])c2c([H])c(OC([H])([H])c3c([H])c(C(=O)C([H])([H])C([H])([H])[H])c(C([H])([H])C([H])([H])[H])c(C([H])([H])C([H])([H])C([H])([H])C([H])([H])[H])c3C([H])([H])C([H])([H])C([H])([H])C([H])([H])C([H])([H])C(=O)N3C([H])([H])C([H])([H])C([H])([H])C([H])(n4nc(-c5c([H])c([H])c(Oc6c([H])c([H])c(F)c([H])c6F)c([H])c5[H])c(C(=O)N([H])[H])c4N([H])[H])C3([H])[H])c([H])c([H])c2C1([H])[H]

$$$$
43:0:0
     RDKit          3D

 98108  0  0  1  0  0  0  0  0999 V2000
  -30.9840  -20.0140   18.3950 C   0  0  0  0  0  2  0  0  0  0  0  0
  -29.6300  -20.6920   18.6040 C   0  0  0  0  0  2  0  0  0  0  0  0
  -31.5560  -21.0080   19.4010 C   0  0  0  0  0  2  0  0  0  0  0  0
  -30.1210  -21.3290   19.9310 C   0  0  1  0  0  0  0  0  0  0  0  0
  -30.4050  -23.8540   19.4560 C   0  0  0  0  0  3  0  0  0  0  0  0
  -29.9370  -25.1790   19.4990 C   0  0  0  0  0  3  0  0  0  0  0  0
  -28.4210  -23.1380   20.6470 C   0  0  0  0  0  3  0  0  0  0  0  0
  -29.6540  -22.8020   20.0250 C   0  0  0  0  0  0  0  0  0  0  0  0
  -27.9910  -24.4770   20.7850 C   0  0  0  0  0  0  0  0  0  0  0  0
  -28.7390  -25.5100   20.1560 C   0  0  0  0  0  0  0  0  0  0  0  0
  -26.7790  -24.7420   21.6700 C   0  0  0  0  0  1  0  0  0  0  0  0
  -28.4910  -26.8610   20.1960 O   0  0  0  0  0  0  0  0  0  0  0  0
  -24.5620  -31.8600   23.2310 C   0  0  0  0  0  0  0  0  0  0  0  0
  -27.2600  -27.4680   20.1860 C   0  0  0  0  0  0  0  0  0  0  0  0
  -23.3730  -30.4690   21.5490 C   0  0  0  0  0  3  0  0  0  0  0  0
  -24.8520  -28.9280   20.1470 C   0  0  0  0  0  0  0  0  0  0  0  0
  -25.8940  -30.8340   21.3970 C   0  0  0  0  0  2  0  0  0  0  0  0
  -25.9860  -29.4630   20.7690 C   0  0  0  0  0  0  0  0  0  0  0  0
  -27.1840  -28.7330   20.8010 C   0  0  0  0  0  3  0  0  0  0  0  0
  -26.1250  -26.9460   19.5260 C   0  0  0  0  0  3  0  0  0  0  0  0
  -24.9120  -27.6650   19.5240 C   0  0  0  0  0  3  0  0  0  0  0  0
  -23.6060  -29.7810   20.1700 C   0  0  0  0  0  2  0  0  0  0  0  0
  -24.6280  -31.0730   22.1170 N   0  0  0  0  0  0  0  0  0  0  0  0
  -23.4760  -32.1280   23.7590 O   0  0  0  0  0  0  0  0  0  0  0  0
  -22.7090  -29.4490   22.5010 C   0  0  0  0  0  0  0  0  0  0  0  0
  -21.3870  -29.2730   22.3630 N   0  0  0  0  0  0  0  0  0  0  0  0
  -23.3860  -28.8110   23.3140 O   0  0  0  0  0  0  0  0  0  0  0  0
  -20.9020  -29.8410   21.6830 H   0  0  0  0  0  0  0  0  0  0  0  0
  -18.0010  -28.1200   22.8450 C   0  0  0  0  0  0  0  0  0  0  0  0
  -20.5620  -28.3310   23.1150 C   0  0  0  0  0  3  0  0  0  0  0  0
  -20.6420  -26.9100   22.5090 C   0  0  0  0  0  2  0  0  0  0  0  0
  -19.5330  -26.6280   21.4890 C   0  0  0  0  0  2  0  0  0  0  0  0
  -18.1540  -26.7850   22.1380 C   0  0  0  0  0  2  0  0  0  0  0  0
  -19.1320  -28.8560   23.2920 C   0  0  0  0  0  0  0  0  0  0  0  0
  -18.9340  -30.1130   23.9060 C   0  0  0  0  0  3  0  0  0  0  0  0
  -17.6380  -30.6360   24.0700 C   0  0  0  0  0  3  0  0  0  0  0  0
  -16.5200  -29.8970   23.6420 C   0  0  0  0  0  3  0  0  0  0  0  0
  -16.7040  -28.6380   23.0400 C   0  0  0  0  0  3  0  0  0  0  0  0
  -25.8440  -32.4790   23.8780 C   0  0  0  0  0  3  0  0  0  0  0  0
  -26.3380  -31.7000   25.1580 C   0  0  1  0  0  0  0  0  0  0  0  0
  -25.2220  -31.4520   26.1990 C   0  0  0  0  0  1  0  0  0  0  0  0
  -26.9310  -30.3300   24.7620 C   0  0  0  0  0  1  0  0  0  0  0  0
  -27.4810  -32.4820   25.8470 C   0  0  0  0  0  1  0  0  0  0  0  0
  -25.5480  -33.8800   24.2060 N   0  0  0  0  0  0  0  0  0  0  0  0
  -25.8920  -34.9270   23.4450 C   0  0  0  0  0  0  0  0  0  0  0  0
  -26.5630  -34.8130   22.4150 O   0  0  0  0  0  0  0  0  0  0  0  0
  -24.9770  -34.0450   25.0250 H   0  0  0  0  0  0  0  0  0  0  0  0
  -24.1730  -36.7160   23.0640 C   0  0  0  0  0  1  0  0  0  0  0  0
  -25.4100  -36.3210   23.8910 C   0  0  0  0  0  3  0  0  0  0  0  0
  -27.5440  -37.1960   24.7320 C   0  0  0  0  0  1  0  0  0  0  0  0
  -26.4500  -37.3670   23.7780 N   0  0  0  0  0  0  0  0  0  0  0  0
  -26.0510  -38.2930   23.9120 H   0  0  0  0  0  0  0  0  0  0  0  0
  -29.7910  -20.6220   21.2830 C   0  0  0  0  0  2  0  0  0  0  0  0
  -29.3770  -16.8500   20.7550 C   0  0  0  0  0  3  0  0  0  0  0  0
  -29.1410  -18.2350   20.7820 C   0  0  0  0  0  3  0  0  0  0  0  0
  -31.4550  -17.2020   21.9630 C   0  0  0  0  0  3  0  0  0  0  0  0
  -30.5550  -16.3180   21.3170 C   0  0  0  0  0  0  0  0  0  0  0  0
  -30.0760  -19.1230   21.3560 C   0  0  0  0  0  0  0  0  0  0  0  0
  -31.2200  -18.5920   22.0010 C   0  0  0  0  0  0  0  0  0  0  0  0
  -32.1970  -19.4670   22.7760 C   0  0  0  0  0  1  0  0  0  0  0  0
  -32.1290  -14.3500   21.9000 C   0  0  0  0  0  1  0  0  0  0  0  0
  -30.7990  -14.8010   21.2600 C   0  0  0  0  0  3  0  0  0  0  0  0
  -30.7160  -14.2480   19.8090 C   0  0  0  0  0  0  0  0  0  0  0  0
  -30.0580  -12.3670   18.3420 C   0  0  0  0  0  2  0  0  0  0  0  0
  -28.9670  -12.6800   17.3040 C   0  0  0  0  0  2  0  0  0  0  0  0
  -27.5690  -12.5030   17.9210 C   0  0  0  0  0  2  0  0  0  0  0  0
  -27.4300  -13.2470   19.2720 C   0  0  0  0  0  3  0  0  0  0  0  0
  -28.6020  -12.9130   20.2150 C   0  0  0  0  0  2  0  0  0  0  0  0
  -29.8650  -13.2230   19.5220 N   0  0  0  0  0  0  0  0  0  0  0  0
  -31.5380  -14.6590   18.9810 O   0  0  0  0  0  0  0  0  0  0  0  0
  -25.1450  -13.8570   20.2960 C   0  0  0  0  0  0  0  0  0  0  0  0
  -24.1270  -13.0810   20.7770 C   0  0  0  0  0  0  0  0  0  0  0  0
  -24.5670  -11.7270   20.6500 C   0  0  0  0  0  0  0  0  0  0  0  0
  -26.1430  -12.9750   19.9070 N   0  0  0  0  0  0  0  0  0  0  0  0
  -25.8040  -11.6880   20.1750 N   0  0  0  0  0  0  0  0  0  0  0  0
  -23.8610  -10.4640   20.8950 C   0  0  0  0  0  0  0  0  0  0  0  0
  -24.3410   -9.5170   21.8240 C   0  0  0  0  0  3  0  0  0  0  0  0
  -23.6330   -8.3170   22.0520 C   0  0  0  0  0  3  0  0  0  0  0  0
  -22.4300   -8.0590   21.3510 C   0  0  0  0  0  0  0  0  0  0  0  0
  -21.9690   -8.9970   20.4120 C   0  0  0  0  0  3  0  0  0  0  0  0
  -22.6780  -10.1880   20.1820 C   0  0  0  0  0  3  0  0  0  0  0  0
  -21.6920   -6.9090   21.4890 O   0  0  0  0  0  0  0  0  0  0  0  0
  -21.6360   -6.2260   22.6780 C   0  0  0  0  0  0  0  0  0  0  0  0
  -21.1650   -6.8320   23.8640 C   0  0  0  0  0  3  0  0  0  0  0  0
  -21.0600   -6.0760   25.0480 C   0  0  0  0  0  3  0  0  0  0  0  0
  -21.4140   -4.7130   25.0470 C   0  0  0  0  0  0  0  0  0  0  0  0
  -21.8770   -4.1060   23.8660 C   0  0  0  0  0  3  0  0  0  0  0  0
  -21.9830   -4.8600   22.6850 C   0  0  0  0  0  0  0  0  0  0  0  0
  -22.4100   -4.2640   21.5450 F   0  0  0  0  0  0  0  0  0  0  0  0
  -21.3060   -3.9840   26.1830 F   0  0  0  0  0  0  0  0  0  0  0  0
  -22.7810  -13.5600   21.2400 C   0  0  0  0  0  0  0  0  0  0  0  0
  -22.1710  -12.8500   22.1810 N   0  0  0  0  0  0  0  0  0  0  0  0
  -22.2830  -14.5980   20.8020 O   0  0  0  0  0  0  0  0  0  0  0  0
  -22.5900  -12.0110   22.5540 H   0  0  0  0  0  0  0  0  0  0  0  0
  -21.2740  -13.1490   22.5370 H   0  0  0  0  0  0  0  0  0  0  0  0
  -25.2990  -15.2310   20.1410 N   0  0  0  0  0  0  0  0  0  0  0  0
  -24.5530  -15.8760   20.3740 H   0  0  0  0  0  0  0  0  0  0  0  0
  -26.0960  -15.6800   19.7090 H   0  0  0  0  0  0  0  0  0  0  0  0
  1  2  1  0
  1  3  1  0
  2  4  1  0
  3  4  1  0
  4  8  1  0
  4 53  1  1
  5  6  2  0
  5  8  1  0
  6 10  1  0
  7  9  1  0
  8  7  2  0
  9 11  1  0
 10 12  1  0
 10  9  2  0
 13 24  2  0
 14 12  1  0
 14 19  1  0
 15 23  1  0
 15 25  1  0
 16 22  1  0
 16 18  1  0
 17 23  1  0
 18 19  2  0
 18 17  1  0
 20 14  2  0
 21 20  1  0
 21 16  2  0
 22 15  1  0
 23 13  1  0
 25 27  2  0
 26 25  1  0
 28 26  1  0
 29 38  2  0
 29 34  1  0
 30 26  1  0
 30 34  1  0
 31 30  1  0
 32 33  1  0
 32 31  1  0
 33 29  1  0
 34 35  2  0
 35 36  1  0
 37 36  2  0
 38 37  1  0
 39 13  1  0
 39 44  1  0
 39 40  1  0
 40 43  1  1
 40 41  1  0
 42 40  1  0
 44 47  1  0
 45 49  1  0
 45 44  1  0
 46 45  2  0
 49 48  1  0
 51 49  1  0
 51 52  1  0
 51 50  1  0
 53 58  1  0
 54 55  2  0
 54 57  1  0
 55 58  1  0
 56 59  1  0
 57 56  2  0
 58 59  2  0
 59 60  1  0
 62 57  1  0
 62 61  1  0
 63 62  1  0
 64 69  1  0
 65 66  1  0
 65 64  1  0
 67 66  1  0
 67 74  1  0
 67 68  1  0
 69 63  1  0
 69 68  1  0
 70 63  2  0
 71 72  2  0
 72 91  1  0
 73 72  1  0
 73 76  1  0
 74 75  1  0
 74 71  1  0
 75 73  2  0
 76 77  1  0
 77 78  2  0
 79 82  1  0
 79 78  1  0
 80 79  2  0
 81 80  1  0
 81 76  2  0
 82 83  1  0
 83 88  2  0
 83 84  1  0
 84 85  2  0
 86 85  1  0
 86 90  1  0
 87 86  2  0
 88 87  1  0
 89 88  1  0
 91 92  1  0
 92 95  1  0
 92 94  1  0
 93 91  2  0
 96 71  1  0
 96 97  1  0
 98 96  1  0
M  ISO  4  10 101  12 101  62 100  63 100
M  END
>  <TORSDO>  (44) 
F 20

>  <SCORE>  (44) 
-12.263

>  <name>  (44) 
43

>  <ligand_id>  (44) 
43

>  <original_smiles>  (44) 
[H]c1c([H])c([H])c2c(c1[H])C([H])([H])C([H])([H])C([H])([H])C2([H])N([H])C(=O)C1([H])N(C(=O)C([H])(N([H])C(=O)C([H])(N([H])C([H])([H])[H])C([H])([H])[H])C(C([H])([H])[H])(C([H])([H])[H])C([H])([H])[H])C([H])([H])c2c([H])c(Oc3c([H])c([H])c(C4(C([H])([H])c5c([H])c([H])c(C([H])(C(=O)N6C([H])([H])C([H])([H])C([H])([H])C([H])(n7nc(-c8c([H])c([H])c(Oc9c([H])c([H])c(F)c([H])c9F)c([H])c8[H])c(C(=O)N([H])[H])c7N([H])[H])C6([H])[H])C([H])([H])[H])c([H])c5C([H])([H])[H])C([H])([H])C([H])([H])C4([H])[H])c([H])c3C([H])([H])[H])c([H])c([H])c2C1([H])[H]

>  <smiles>  (44) 
[H]c1c([H])c([H])c2c(c1[H])C([H])([H])C([H])([H])C([H])([H])C2([H])N([H])C(=O)C1([H])N(C(=O)C([H])(N([H])C(=O)C([H])(N([H])C([H])([H])[H])C([H])([H])[H])C(C([H])([H])[H])(C([H])([H])[H])C([H])([H])[H])C([H])([H])c2c([H])c(Oc3c([H])c([H])c(C4(C([H])([H])c5c([H])c([H])c(C([H])(C(=O)N6C([H])([H])C([H])([H])C([H])([H])C([H])(n7nc(-c8c([H])c([H])c(Oc9c([H])c([H])c(F)c([H])c9F)c([H])c8[H])c(C(=O)N([H])[H])c7N([H])[H])C6([H])[H])C([H])([H])[H])c([H])c5C([H])([H])[H])C([H])([H])C([H])([H])C4([H])[H])c([H])c3C([H])([H])[H])c([H])c([H])c2C1([H])[H]

$$$$
44:0:0
     RDKit          3D

 93102  0  0  1  0  0  0  0  0999 V2000
  -28.3680  -20.8880   21.2600 C   0  0  0  0  0  3  0  0  0  0  0  0
  -27.4890  -21.9080   21.6610 C   0  0  0  0  0  3  0  0  0  0  0  0
  -29.8340  -22.5500   20.2620 C   0  0  0  0  0  3  0  0  0  0  0  0
  -29.5530  -21.1930   20.5540 C   0  0  0  0  0  0  0  0  0  0  0  0
  -27.7680  -23.2570   21.3670 C   0  0  0  0  0  0  0  0  0  0  0  0
  -28.9530  -23.5880   20.6590 C   0  0  0  0  0  0  0  0  0  0  0  0
  -26.7820  -24.3200   21.8310 C   0  0  0  0  0  1  0  0  0  0  0  0
  -30.5220  -20.0990   20.0800 C   0  0  0  0  0  2  0  0  0  0  0  0
  -31.0310  -14.7850   20.0210 C   0  0  0  0  0  0  0  0  0  0  0  0
  -30.6660  -12.5800   18.9510 C   0  0  0  0  0  2  0  0  0  0  0  0
  -29.6850  -12.7010   17.7700 C   0  0  0  0  0  2  0  0  0  0  0  0
  -28.2300  -12.5560   18.2540 C   0  0  0  0  0  2  0  0  0  0  0  0
  -27.9250  -13.4650   19.4700 C   0  0  0  0  0  3  0  0  0  0  0  0
  -29.0190  -13.3100   20.5570 C   0  0  0  0  0  2  0  0  0  0  0  0
  -30.3190  -13.6170   19.9430 N   0  0  0  0  0  0  0  0  0  0  0  0
  -32.0820  -14.9290   19.3880 O   0  0  0  0  0  0  0  0  0  0  0  0
  -31.7850  -17.9830   20.8860 C   0  0  0  0  0  2  0  0  0  0  0  0
  -29.4250  -17.7570   20.1210 C   0  0  0  0  0  2  0  0  0  0  0  0
  -31.6540  -16.5980   21.5760 C   0  0  0  0  0  2  0  0  0  0  0  0
  -29.3470  -16.4380   20.9100 C   0  0  0  0  0  2  0  0  0  0  0  0
  -30.4270  -18.7160   20.7910 C   0  0  0  0  0  3  0  0  0  0  0  0
  -30.6470  -15.7400   20.9190 N   0  0  0  0  0  0  0  0  0  0  0  0
  -25.5820  -14.1300   20.3080 C   0  0  0  0  0  0  0  0  0  0  0  0
  -24.5110  -13.3790   20.7150 C   0  0  0  0  0  0  0  0  0  0  0  0
  -24.9330  -12.0150   20.6340 C   0  0  0  0  0  0  0  0  0  0  0  0
  -26.5880  -13.2240   20.0080 N   0  0  0  0  0  0  0  0  0  0  0  0
  -26.2040  -11.9480   20.2620 N   0  0  0  0  0  0  0  0  0  0  0  0
  -24.1850  -10.7690   20.8350 C   0  0  0  0  0  0  0  0  0  0  0  0
  -24.6050   -9.7990   21.7710 C   0  0  0  0  0  3  0  0  0  0  0  0
  -23.8600   -8.6150   21.9580 C   0  0  0  0  0  3  0  0  0  0  0  0
  -22.6820   -8.3930   21.2080 C   0  0  0  0  0  0  0  0  0  0  0  0
  -22.2810   -9.3520   20.2600 C   0  0  0  0  0  3  0  0  0  0  0  0
  -23.0260  -10.5270   20.0700 C   0  0  0  0  0  3  0  0  0  0  0  0
  -21.9100   -7.2600   21.3020 O   0  0  0  0  0  0  0  0  0  0  0  0
  -21.8170   -6.5470   22.4710 C   0  0  0  0  0  0  0  0  0  0  0  0
  -21.3450   -7.1330   23.6660 C   0  0  0  0  0  3  0  0  0  0  0  0
  -21.1960   -6.3450   24.8250 C   0  0  0  0  0  3  0  0  0  0  0  0
  -21.5140   -4.9730   24.7900 C   0  0  0  0  0  0  0  0  0  0  0  0
  -21.9820   -4.3880   23.6010 C   0  0  0  0  0  3  0  0  0  0  0  0
  -22.1290   -5.1720   22.4430 C   0  0  0  0  0  0  0  0  0  0  0  0
  -22.5580   -4.5980   21.2930 F   0  0  0  0  0  0  0  0  0  0  0  0
  -21.3630   -4.2150   25.9010 F   0  0  0  0  0  0  0  0  0  0  0  0
  -23.1420  -13.8850   21.0650 C   0  0  0  0  0  0  0  0  0  0  0  0
  -22.4440  -13.1980   21.9630 N   0  0  0  0  0  0  0  0  0  0  0  0
  -22.6990  -14.9250   20.5770 O   0  0  0  0  0  0  0  0  0  0  0  0
  -22.8140  -12.3570   22.3790 H   0  0  0  0  0  0  0  0  0  0  0  0
  -21.5280  -13.5200   22.2400 H   0  0  0  0  0  0  0  0  0  0  0  0
  -25.7750  -15.4990   20.1490 N   0  0  0  0  0  0  0  0  0  0  0  0
  -25.0340  -16.1730   20.3070 H   0  0  0  0  0  0  0  0  0  0  0  0
  -26.6130  -15.9180   19.7710 H   0  0  0  0  0  0  0  0  0  0  0  0
  -29.2840  -25.0430   20.3130 C   0  0  0  0  0  2  0  0  0  0  0  0
  -28.4640  -25.5770   19.1200 C   0  0  0  0  0  2  0  0  0  0  0  0
  -28.4540  -27.0180   19.0970 O   0  0  0  0  0  0  0  0  0  0  0  0
  -24.6680  -31.6230   22.9890 C   0  0  0  0  0  0  0  0  0  0  0  0
  -27.2440  -27.6720   19.2450 C   0  0  0  0  0  0  0  0  0  0  0  0
  -23.3970  -30.3520   21.2910 C   0  0  0  0  0  3  0  0  0  0  0  0
  -24.7960  -29.0540   19.6000 C   0  0  0  0  0  0  0  0  0  0  0  0
  -25.8850  -30.8500   20.9550 C   0  0  0  0  0  2  0  0  0  0  0  0
  -25.9740  -29.5630   20.1600 C   0  0  0  0  0  0  0  0  0  0  0  0
  -27.1980  -28.8790   19.9800 C   0  0  0  0  0  3  0  0  0  0  0  0
  -26.0450  -27.1920   18.6630 C   0  0  0  0  0  3  0  0  0  0  0  0
  -24.8260  -27.8680   18.8480 C   0  0  0  0  0  3  0  0  0  0  0  0
  -23.5280  -29.8420   19.8310 C   0  0  0  0  0  2  0  0  0  0  0  0
  -24.6720  -30.9510   21.8040 N   0  0  0  0  0  0  0  0  0  0  0  0
  -23.6210  -31.7820   23.6310 O   0  0  0  0  0  0  0  0  0  0  0  0
  -22.8640  -29.1990   22.1720 C   0  0  0  0  0  0  0  0  0  0  0  0
  -21.5480  -28.9420   22.0880 N   0  0  0  0  0  0  0  0  0  0  0  0
  -23.6280  -28.5440   22.8860 O   0  0  0  0  0  0  0  0  0  0  0  0
  -20.9890  -29.5310   21.4880 H   0  0  0  0  0  0  0  0  0  0  0  0
  -18.2940  -27.4510   22.5810 C   0  0  0  0  0  0  0  0  0  0  0  0
  -20.8330  -27.8800   22.7970 C   0  0  0  0  0  3  0  0  0  0  0  0
  -21.0210  -26.5160   22.0940 C   0  0  0  0  0  2  0  0  0  0  0  0
  -19.9090  -26.1970   21.0890 C   0  0  0  0  0  2  0  0  0  0  0  0
  -18.5450  -26.1810   21.7840 C   0  0  0  0  0  2  0  0  0  0  0  0
  -19.3680  -28.2570   23.0420 C   0  0  0  0  0  0  0  0  0  0  0  0
  -19.0790  -29.4460   23.7460 C   0  0  0  0  0  3  0  0  0  0  0  0
  -17.7480  -29.8310   23.9940 C   0  0  0  0  0  3  0  0  0  0  0  0
  -16.6890  -29.0210   23.5490 C   0  0  0  0  0  3  0  0  0  0  0  0
  -16.9630  -27.8330   22.8500 C   0  0  0  0  0  3  0  0  0  0  0  0
  -25.9710  -32.2460   23.5820 C   0  0  0  0  0  3  0  0  0  0  0  0
  -26.5920  -31.3880   24.7510 C   0  0  1  0  0  0  0  0  0  0  0  0
  -25.5820  -31.0240   25.8640 C   0  0  0  0  0  1  0  0  0  0  0  0
  -27.1830  -30.0700   24.2010 C   0  0  0  0  0  1  0  0  0  0  0  0
  -27.7640  -32.1610   25.4020 C   0  0  0  0  0  1  0  0  0  0  0  0
  -25.6430  -33.5990   24.0480 N   0  0  0  0  0  0  0  0  0  0  0  0
  -25.9100  -34.7220   23.3680 C   0  0  0  0  0  0  0  0  0  0  0  0
  -26.5330  -34.7280   22.3020 O   0  0  0  0  0  0  0  0  0  0  0  0
  -25.0860  -33.6670   24.8880 H   0  0  0  0  0  0  0  0  0  0  0  0
  -24.1160  -36.4780   23.2530 C   0  0  0  0  0  1  0  0  0  0  0  0
  -25.4080  -36.0510   23.9660 C   0  0  0  0  0  3  0  0  0  0  0  0
  -27.5550  -36.9330   24.7640 C   0  0  0  0  0  1  0  0  0  0  0  0
  -26.4030  -37.1440   23.8920 N   0  0  0  0  0  0  0  0  0  0  0  0
  -25.9790  -38.0350   24.1350 H   0  0  0  0  0  0  0  0  0  0  0  0
  1  2  1  0
  3  4  1  0
  3  6  2  0
  4  1  2  0
  5  2  2  0
  5  7  1  0
  6  5  1  0
  8  4  1  0
  9 22  1  0
 10 15  1  0
 11 12  1  0
 11 10  1  0
 13 12  1  0
 13 26  1  0
 13 14  1  0
 15  9  1  0
 15 14  1  0
 16  9  2  0
 17 19  1  0
 18 21  1  0
 18 20  1  0
 20 22  1  0
 21  8  1  0
 21 17  1  0
 22 19  1  0
 23 24  2  0
 24 43  1  0
 25 24  1  0
 25 28  1  0
 26 27  1  0
 26 23  1  0
 27 25  2  0
 28 29  1  0
 29 30  2  0
 31 34  1  0
 31 30  1  0
 32 31  2  0
 33 32  1  0
 33 28  2  0
 34 35  1  0
 35 36  1  0
 36 37  2  0
 38 37  1  0
 38 42  1  0
 39 38  2  0
 40 35  2  0
 40 39  1  0
 41 40  1  0
 43 44  1  0
 44 47  1  0
 44 46  1  0
 45 43  2  0
 48 49  1  0
 48 23  1  0
 50 48  1  0
 51  6  1  0
 52 51  1  0
 53 52  1  0
 53 55  1  0
 54 65  2  0
 55 60  1  0
 56 64  1  0
 56 66  1  0
 57 63  1  0
 57 59  1  0
 58 64  1  0
 59 58  1  0
 60 59  2  0
 61 62  1  0
 61 55  2  0
 62 57  2  0
 63 56  1  0
 64 54  1  0
 66 68  2  0
 67 66  1  0
 69 67  1  0
 70 79  2  0
 70 75  1  0
 71 67  1  0
 71 75  1  0
 72 71  1  0
 73 74  1  0
 73 72  1  0
 74 70  1  0
 75 76  2  0
 76 77  1  0
 78 77  2  0
 79 78  1  0
 80 54  1  0
 80 85  1  0
 80 81  1  0
 81 84  1  1
 81 82  1  0
 83 81  1  0
 85 88  1  0
 86 90  1  0
 86 85  1  0
 87 86  2  0
 90 89  1  0
 92 90  1  0
 92 93  1  0
 92 91  1  0
M  ISO  4   9 100  22 100  52 101  53 101
M  END
>  <TORSDO>  (45) 
F 19

>  <SCORE>  (45) 
-12.369

>  <name>  (45) 
44

>  <ligand_id>  (45) 
44

>  <original_smiles>  (45) 
[H]c1c([H])c([H])c2c(c1[H])C([H])([H])C([H])([H])C([H])([H])C2([H])N([H])C(=O)C1([H])N(C(=O)C([H])(N([H])C(=O)C([H])(N([H])C([H])([H])[H])C([H])([H])[H])C(C([H])([H])[H])(C([H])([H])[H])C([H])([H])[H])C([H])([H])c2c([H])c(OC([H])([H])C([H])([H])c3c([H])c(C([H])([H])C4([H])C([H])([H])C([H])([H])N(C(=O)N5C([H])([H])C([H])([H])C([H])([H])C([H])(n6nc(-c7c([H])c([H])c(Oc8c([H])c([H])c(F)c([H])c8F)c([H])c7[H])c(C(=O)N([H])[H])c6N([H])[H])C5([H])[H])C([H])([H])C4([H])[H])c([H])c([H])c3C([H])([H])[H])c([H])c([H])c2C1([H])[H]

>  <smiles>  (45) 
[H]c1c([H])c([H])c2c(c1[H])C([H])([H])C([H])([H])C([H])([H])C2([H])N([H])C(=O)C1([H])N(C(=O)C([H])(N([H])C(=O)C([H])(N([H])C([H])([H])[H])C([H])([H])[H])C(C([H])([H])[H])(C([H])([H])[H])C([H])([H])[H])C([H])([H])c2c([H])c(OC([H])([H])C([H])([H])c3c([H])c(C([H])([H])C4([H])C([H])([H])C([H])([H])N(C(=O)N5C([H])([H])C([H])([H])C([H])([H])C([H])(n6nc(-c7c([H])c([H])c(Oc8c([H])c([H])c(F)c([H])c8F)c([H])c7[H])c(C(=O)N([H])[H])c6N([H])[H])C5([H])[H])C([H])([H])C4([H])[H])c([H])c([H])c3C([H])([H])[H])c([H])c([H])c2C1([H])[H]

$$$$
45:0:0
     RDKit          3D

 91 99  0  0  1  0  0  0  0  0999 V2000
  -28.1260  -23.1860   21.5380 C   0  0  0  0  0  3  0  0  0  0  0  0
  -28.6450  -23.0170   19.1840 C   0  0  0  0  0  3  0  0  0  0  0  0
  -28.4030  -22.3650   20.4160 C   0  0  0  0  0  0  0  0  0  0  0  0
  -28.0890  -24.6040   21.4430 C   0  0  0  0  0  0  0  0  0  0  0  0
  -28.6150  -24.4360   19.0800 C   0  0  0  0  0  0  0  0  0  0  0  0
  -28.3380  -25.2550   20.2060 C   0  0  0  0  0  0  0  0  0  0  0  0
  -27.7540  -25.4190   22.6810 C   0  0  0  0  0  1  0  0  0  0  0  0
  -28.8400  -25.0250   17.8670 O   0  0  0  0  0  0  0  0  0  0  0  0
  -28.9320  -24.4060   17.1500 H   0  0  0  0  0  0  0  0  0  0  0  0
  -28.3740  -26.6490   20.0960 O   0  0  0  0  0  0  0  0  0  0  0  0
  -24.6060  -31.8900   23.2250 C   0  0  0  0  0  0  0  0  0  0  0  0
  -27.2130  -27.4080   20.1190 C   0  0  0  0  0  0  0  0  0  0  0  0
  -23.3850  -30.4900   21.5920 C   0  0  0  0  0  3  0  0  0  0  0  0
  -24.8270  -28.9490   20.1480 C   0  0  0  0  0  0  0  0  0  0  0  0
  -25.9130  -30.8350   21.3780 C   0  0  0  0  0  2  0  0  0  0  0  0
  -25.9920  -29.4590   20.7360 C   0  0  0  0  0  0  0  0  0  0  0  0
  -27.1870  -28.6950   20.7210 C   0  0  0  0  0  3  0  0  0  0  0  0
  -26.0320  -26.9300   19.5130 C   0  0  0  0  0  3  0  0  0  0  0  0
  -24.8450  -27.6870   19.5290 C   0  0  0  0  0  3  0  0  0  0  0  0
  -23.5810  -29.8070   20.2120 C   0  0  0  0  0  2  0  0  0  0  0  0
  -24.6540  -31.0880   22.1230 N   0  0  0  0  0  0  0  0  0  0  0  0
  -23.5280  -32.1640   23.7740 O   0  0  0  0  0  0  0  0  0  0  0  0
  -22.7410  -29.4690   22.5560 C   0  0  0  0  0  0  0  0  0  0  0  0
  -21.4140  -29.2880   22.4410 N   0  0  0  0  0  0  0  0  0  0  0  0
  -23.4300  -28.8390   23.3620 O   0  0  0  0  0  0  0  0  0  0  0  0
  -20.9160  -29.8490   21.7630 H   0  0  0  0  0  0  0  0  0  0  0  0
  -18.0450  -28.0850   22.9550 C   0  0  0  0  0  0  0  0  0  0  0  0
  -20.6040  -28.3470   23.2140 C   0  0  0  0  0  3  0  0  0  0  0  0
  -20.7040  -26.9150   22.6340 C   0  0  0  0  0  2  0  0  0  0  0  0
  -19.5970  -26.5910   21.6260 C   0  0  0  0  0  2  0  0  0  0  0  0
  -18.2190  -26.7360   22.2770 C   0  0  0  0  0  2  0  0  0  0  0  0
  -19.1650  -28.8490   23.3790 C   0  0  0  0  0  0  0  0  0  0  0  0
  -18.9470  -30.1130   23.9690 C   0  0  0  0  0  3  0  0  0  0  0  0
  -17.6410  -30.6130   24.1370 C   0  0  0  0  0  3  0  0  0  0  0  0
  -16.5370  -29.8450   23.7290 C   0  0  0  0  0  3  0  0  0  0  0  0
  -16.7400  -28.5810   23.1460 C   0  0  0  0  0  3  0  0  0  0  0  0
  -25.8980  -32.5190   23.8350 C   0  0  0  0  0  3  0  0  0  0  0  0
  -25.5920  -33.9150   24.1820 N   0  0  0  0  0  0  0  0  0  0  0  0
  -25.9130  -34.9720   23.4240 C   0  0  0  0  0  0  0  0  0  0  0  0
  -26.5690  -34.8750   22.3820 O   0  0  0  0  0  0  0  0  0  0  0  0
  -25.0130  -34.0630   24.9940 H   0  0  0  0  0  0  0  0  0  0  0  0
  -24.1810  -36.7630   23.0990 C   0  0  0  0  0  1  0  0  0  0  0  0
  -25.4320  -36.3570   23.8950 C   0  0  0  0  0  3  0  0  0  0  0  0
  -27.5770  -37.2380   24.7040 C   0  0  0  0  0  1  0  0  0  0  0  0
  -26.4630  -37.4120   23.7730 N   0  0  0  0  0  0  0  0  0  0  0  0
  -26.0600  -38.3310   23.9290 H   0  0  0  0  0  0  0  0  0  0  0  0
  -26.4330  -31.7370   25.0970 C   0  0  1  0  0  0  0  0  0  0  0  0
  -25.3530  -31.4870   26.1750 C   0  0  0  0  0  1  0  0  0  0  0  0
  -27.0120  -30.3630   24.6820 C   0  0  0  0  0  1  0  0  0  0  0  0
  -27.5930  -32.5250   25.7500 C   0  0  0  0  0  1  0  0  0  0  0  0
  -28.2680  -20.8200   20.5270 C   0  0  0  0  0  2  0  0  0  0  0  0
  -29.5310  -19.8950   20.4000 C   0  0  0  0  0  2  0  0  0  0  0  0
  -29.2330  -18.3940   20.7800 C   0  0  0  0  0  2  0  0  0  0  0  0
  -30.2980  -17.2740   20.4770 C   0  0  0  0  0  2  0  0  0  0  0  0
  -29.9080  -15.8500   21.0310 C   0  0  0  0  0  2  0  0  0  0  0  0
  -30.6960  -14.6020   20.4980 C   0  0  0  0  0  0  0  0  0  0  0  0
  -30.4710  -12.4050   19.3710 C   0  0  0  0  0  2  0  0  0  0  0  0
  -29.5450  -12.5960   18.1500 C   0  0  0  0  0  2  0  0  0  0  0  0
  -28.0630  -12.4430   18.5550 C   0  0  0  0  0  2  0  0  0  0  0  0
  -27.7000  -13.2820   19.8090 C   0  0  0  0  0  3  0  0  0  0  0  0
  -28.7410  -13.0750   20.9330 C   0  0  0  0  0  2  0  0  0  0  0  0
  -30.0690  -13.3930   20.3870 N   0  0  0  0  0  0  0  0  0  0  0  0
  -31.8420  -14.7700   20.0730 O   0  0  0  0  0  0  0  0  0  0  0  0
  -25.2930  -13.8970   20.4760 C   0  0  0  0  0  0  0  0  0  0  0  0
  -24.2180  -13.1310   20.8350 C   0  0  0  0  0  0  0  0  0  0  0  0
  -24.6780  -11.7780   20.8260 C   0  0  0  0  0  0  0  0  0  0  0  0
  -26.3410  -13.0110   20.2690 N   0  0  0  0  0  0  0  0  0  0  0  0
  -25.9740  -11.7330   20.5390 N   0  0  0  0  0  0  0  0  0  0  0  0
  -23.9470  -10.5210   21.0190 C   0  0  0  0  0  0  0  0  0  0  0  0
  -24.3660   -9.5610   21.9670 C   0  0  0  0  0  3  0  0  0  0  0  0
  -23.6400   -8.3640   22.1450 C   0  0  0  0  0  3  0  0  0  0  0  0
  -22.4790   -8.1200   21.3740 C   0  0  0  0  0  0  0  0  0  0  0  0
  -22.0790   -9.0660   20.4160 C   0  0  0  0  0  3  0  0  0  0  0  0
  -22.8060  -10.2550   20.2370 C   0  0  0  0  0  3  0  0  0  0  0  0
  -21.7240   -6.9750   21.4610 O   0  0  0  0  0  0  0  0  0  0  0  0
  -21.6590   -6.2410   22.6170 C   0  0  0  0  0  0  0  0  0  0  0  0
  -21.2170   -6.8070   23.8340 C   0  0  0  0  0  3  0  0  0  0  0  0
  -21.1000   -6.0010   24.9830 C   0  0  0  0  0  3  0  0  0  0  0  0
  -21.4130   -4.6290   24.9170 C   0  0  0  0  0  0  0  0  0  0  0  0
  -21.8470   -4.0620   23.7060 C   0  0  0  0  0  3  0  0  0  0  0  0
  -21.9670   -4.8670   22.5580 C   0  0  0  0  0  0  0  0  0  0  0  0
  -22.3660   -4.3120   21.3880 F   0  0  0  0  0  0  0  0  0  0  0  0
  -21.2920   -3.8530   26.0180 F   0  0  0  0  0  0  0  0  0  0  0  0
  -22.8170  -13.6120   21.0810 C   0  0  0  0  0  0  0  0  0  0  0  0
  -22.0780  -12.9220   21.9410 N   0  0  0  0  0  0  0  0  0  0  0  0
  -22.3870  -14.6330   20.5470 O   0  0  0  0  0  0  0  0  0  0  0  0
  -22.4430  -12.0950   22.3930 H   0  0  0  0  0  0  0  0  0  0  0  0
  -21.1360  -13.2200   22.1550 H   0  0  0  0  0  0  0  0  0  0  0  0
  -25.4640  -15.2650   20.2890 N   0  0  0  0  0  0  0  0  0  0  0  0
  -24.7020  -15.9250   20.3960 H   0  0  0  0  0  0  0  0  0  0  0  0
  -26.3240  -15.6990   19.9780 H   0  0  0  0  0  0  0  0  0  0  0  0
  2  3  1  0
  3 51  1  0
  3  1  2  0
  4  1  1  0
  4  7  1  0
  5  2  2  0
  5  6  1  0
  6  4  2  0
  8  5  1  0
  9  8  1  0
 10 12  1  0
 10  6  1  0
 11 22  2  0
 12 17  1  0
 13 21  1  0
 13 23  1  0
 14 20  1  0
 14 16  1  0
 15 21  1  0
 16 15  1  0
 17 16  2  0
 18 19  1  0
 18 12  2  0
 19 14  2  0
 20 13  1  0
 21 11  1  0
 23 25  2  0
 24 23  1  0
 26 24  1  0
 27 36  2  0
 27 32  1  0
 28 24  1  0
 28 32  1  0
 29 28  1  0
 30 31  1  0
 30 29  1  0
 31 27  1  0
 32 33  2  0
 33 34  1  0
 35 34  2  0
 36 35  1  0
 37 11  1  0
 37 38  1  0
 37 47  1  0
 38 41  1  0
 39 43  1  0
 39 38  1  0
 40 39  2  0
 43 42  1  0
 45 43  1  0
 45 46  1  0
 45 44  1  0
 47 50  1  1
 47 48  1  0
 49 47  1  0
 52 51  1  0
 52 53  1  0
 54 53  1  0
 54 55  1  0
 56 55  1  0
 57 62  1  0
 58 59  1  0
 58 57  1  0
 60 59  1  0
 60 67  1  0
 60 61  1  0
 62 56  1  0
 62 61  1  0
 63 56  2  0
 64 65  2  0
 65 84  1  0
 66 65  1  0
 66 69  1  0
 67 64  1  0
 67 68  1  0
 68 66  2  0
 69 70  1  0
 70 71  2  0
 72 75  1  0
 72 71  1  0
 73 72  2  0
 74 73  1  0
 74 69  2  0
 75 76  1  0
 76 77  1  0
 77 78  2  0
 79 78  1  0
 79 83  1  0
 80 79  2  0
 81 76  2  0
 81 80  1  0
 82 81  1  0
 84 85  1  0
 85 88  1  0
 85 87  1  0
 86 84  2  0
 89 90  1  0
 89 64  1  0
 91 89  1  0
M  ISO  4   6 101  10 101  55 100  56 100
M  END
>  <TORSDO>  (46) 
F 22

>  <SCORE>  (46) 
-13.296

>  <name>  (46) 
45

>  <ligand_id>  (46) 
45

>  <original_smiles>  (46) 
[H]Oc1c([H])c(C([H])([H])C([H])([H])C([H])([H])C([H])([H])C([H])([H])C(=O)N2C([H])([H])C([H])([H])C([H])([H])C([H])(n3nc(-c4c([H])c([H])c(Oc5c([H])c([H])c(F)c([H])c5F)c([H])c4[H])c(C(=O)N([H])[H])c3N([H])[H])C2([H])[H])c([H])c(C([H])([H])[H])c1Oc1c([H])c([H])c2c(c1[H])C([H])([H])N(C(=O)C([H])(N([H])C(=O)C([H])(N([H])C([H])([H])[H])C([H])([H])[H])C(C([H])([H])[H])(C([H])([H])[H])C([H])([H])[H])C([H])(C(=O)N([H])C1([H])c3c([H])c([H])c([H])c([H])c3C([H])([H])C([H])([H])C1([H])[H])C2([H])[H]

>  <smiles>  (46) 
[H]Oc1c([H])c(C([H])([H])C([H])([H])C([H])([H])C([H])([H])C([H])([H])C(=O)N2C([H])([H])C([H])([H])C([H])([H])C([H])(n3nc(-c4c([H])c([H])c(Oc5c([H])c([H])c(F)c([H])c5F)c([H])c4[H])c(C(=O)N([H])[H])c3N([H])[H])C2([H])[H])c([H])c(C([H])([H])[H])c1Oc1c([H])c([H])c2c(c1[H])C([H])([H])N(C(=O)C([H])(N([H])C(=O)C([H])(N([H])C([H])([H])[H])C([H])([H])[H])C(C([H])([H])[H])(C([H])([H])[H])C([H])([H])[H])C([H])(C(=O)N([H])C1([H])c3c([H])c([H])c([H])c([H])c3C([H])([H])C([H])([H])C1([H])[H])C2([H])[H]

$$$$
46:0:0
     RDKit          3D

 90 98  0  0  1  0  0  0  0  0999 V2000
  -29.1790  -23.3360   20.8940 C   0  0  0  0  0  3  0  0  0  0  0  0
  -28.7530  -24.6700   21.0570 C   0  0  0  0  0  3  0  0  0  0  0  0
  -28.7630  -24.9680   18.6400 C   0  0  0  0  0  3  0  0  0  0  0  0
  -29.4350  -22.8220   19.6030 C   0  0  0  0  0  0  0  0  0  0  0  0
  -28.5870  -25.5010   19.9320 C   0  0  0  0  0  0  0  0  0  0  0  0
  -29.1850  -23.6340   18.4740 C   0  0  0  0  0  0  0  0  0  0  0  0
  -29.4170  -23.1620   17.2250 F   0  0  0  0  0  0  0  0  0  0  0  0
  -28.4450  -26.8530   20.1020 O   0  0  0  0  0  0  0  0  0  0  0  0
  -24.5820  -31.9010   23.2470 C   0  0  0  0  0  0  0  0  0  0  0  0
  -27.2220  -27.4780   20.1550 C   0  0  0  0  0  0  0  0  0  0  0  0
  -23.3670  -30.4970   21.6090 C   0  0  0  0  0  3  0  0  0  0  0  0
  -24.8120  -28.9500   20.1860 C   0  0  0  0  0  0  0  0  0  0  0  0
  -25.8850  -30.8620   21.3970 C   0  0  0  0  0  2  0  0  0  0  0  0
  -25.9660  -29.4870   20.7680 C   0  0  0  0  0  0  0  0  0  0  0  0
  -27.1690  -28.7530   20.7560 C   0  0  0  0  0  3  0  0  0  0  0  0
  -26.0510  -26.9390   19.5790 C   0  0  0  0  0  3  0  0  0  0  0  0
  -24.8460  -27.6730   19.5950 C   0  0  0  0  0  3  0  0  0  0  0  0
  -23.5690  -29.8090   20.2310 C   0  0  0  0  0  2  0  0  0  0  0  0
  -24.6300  -31.1020   22.1430 N   0  0  0  0  0  0  0  0  0  0  0  0
  -23.5040  -32.1730   23.7930 O   0  0  0  0  0  0  0  0  0  0  0  0
  -22.7220  -29.4780   22.5750 C   0  0  0  0  0  0  0  0  0  0  0  0
  -21.3980  -29.2930   22.4470 N   0  0  0  0  0  0  0  0  0  0  0  0
  -23.4070  -28.8580   23.3910 O   0  0  0  0  0  0  0  0  0  0  0  0
  -20.9060  -29.8470   21.7590 H   0  0  0  0  0  0  0  0  0  0  0  0
  -18.0300  -28.0840   22.9310 C   0  0  0  0  0  0  0  0  0  0  0  0
  -20.5830  -28.3550   23.2170 C   0  0  0  0  0  3  0  0  0  0  0  0
  -20.6970  -26.9210   22.6490 C   0  0  0  0  0  2  0  0  0  0  0  0
  -19.6030  -26.5880   21.6300 C   0  0  0  0  0  2  0  0  0  0  0  0
  -18.2170  -26.7310   22.2650 C   0  0  0  0  0  2  0  0  0  0  0  0
  -19.1420  -28.8540   23.3640 C   0  0  0  0  0  0  0  0  0  0  0  0
  -18.9140  -30.1210   23.9450 C   0  0  0  0  0  3  0  0  0  0  0  0
  -17.6070  -30.6170   24.0980 C   0  0  0  0  0  3  0  0  0  0  0  0
  -16.5090  -29.8450   23.6820 C   0  0  0  0  0  3  0  0  0  0  0  0
  -16.7200  -28.5800   23.1050 C   0  0  0  0  0  3  0  0  0  0  0  0
  -25.8730  -32.5300   23.8610 C   0  0  0  0  0  3  0  0  0  0  0  0
  -25.5700  -33.9290   24.1910 N   0  0  0  0  0  0  0  0  0  0  0  0
  -25.9080  -34.9780   23.4310 C   0  0  0  0  0  0  0  0  0  0  0  0
  -26.5790  -34.8720   22.4020 O   0  0  0  0  0  0  0  0  0  0  0  0
  -24.9740  -34.0850   24.9910 H   0  0  0  0  0  0  0  0  0  0  0  0
  -24.1860  -36.7760   23.0700 C   0  0  0  0  0  1  0  0  0  0  0  0
  -25.4230  -36.3690   23.8860 C   0  0  0  0  0  3  0  0  0  0  0  0
  -27.5580  -37.2460   24.7210 C   0  0  0  0  0  1  0  0  0  0  0  0
  -26.4590  -37.4180   23.7760 N   0  0  0  0  0  0  0  0  0  0  0  0
  -26.0560  -38.3390   23.9220 H   0  0  0  0  0  0  0  0  0  0  0  0
  -26.3980  -31.7570   25.1320 C   0  0  1  0  0  0  0  0  0  0  0  0
  -25.3120  -31.5190   26.2080 C   0  0  0  0  0  1  0  0  0  0  0  0
  -26.9750  -30.3790   24.7320 C   0  0  0  0  0  1  0  0  0  0  0  0
  -27.5540  -32.5470   25.7890 C   0  0  0  0  0  1  0  0  0  0  0  0
  -30.1290  -21.4740   19.4470 C   0  0  0  0  0  2  0  0  0  0  0  0
  -29.3980  -20.2550   20.0400 C   0  0  0  0  0  2  0  0  0  0  0  0
  -30.3940  -19.1100   20.3020 C   0  0  0  0  0  2  0  0  0  0  0  0
  -29.7580  -17.7460   20.6100 C   0  0  0  0  0  2  0  0  0  0  0  0
  -30.7350  -16.8210   21.3630 C   0  0  0  0  0  2  0  0  0  0  0  0
  -30.2350  -15.3660   21.5130 C   0  0  0  0  0  2  0  0  0  0  0  0
  -30.7080  -14.3830   20.4190 C   0  0  0  0  0  0  0  0  0  0  0  0
  -30.3310  -12.3300   19.0890 C   0  0  0  0  0  2  0  0  0  0  0  0
  -29.3530  -12.6100   17.9320 C   0  0  0  0  0  2  0  0  0  0  0  0
  -27.8900  -12.4780   18.3990 C   0  0  0  0  0  2  0  0  0  0  0  0
  -27.6110  -13.2570   19.7130 C   0  0  0  0  0  3  0  0  0  0  0  0
  -28.6880  -12.9230   20.7710 C   0  0  0  0  0  2  0  0  0  0  0  0
  -30.0000  -13.2460   20.1890 N   0  0  0  0  0  0  0  0  0  0  0  0
  -31.7340  -14.6510   19.7840 O   0  0  0  0  0  0  0  0  0  0  0  0
  -25.2240  -13.8810   20.4500 C   0  0  0  0  0  0  0  0  0  0  0  0
  -24.1580  -13.1140   20.8380 C   0  0  0  0  0  0  0  0  0  0  0  0
  -24.6110  -11.7600   20.8010 C   0  0  0  0  0  0  0  0  0  0  0  0
  -26.2630  -12.9940   20.2090 N   0  0  0  0  0  0  0  0  0  0  0  0
  -25.8960  -11.7140   20.4720 N   0  0  0  0  0  0  0  0  0  0  0  0
  -23.8830  -10.5030   21.0060 C   0  0  0  0  0  0  0  0  0  0  0  0
  -24.3400   -9.5240   21.9170 C   0  0  0  0  0  3  0  0  0  0  0  0
  -23.6130   -8.3300   22.1110 C   0  0  0  0  0  3  0  0  0  0  0  0
  -22.4130   -8.1060   21.3940 C   0  0  0  0  0  0  0  0  0  0  0  0
  -21.9750   -9.0730   20.4720 C   0  0  0  0  0  3  0  0  0  0  0  0
  -22.7040  -10.2580   20.2760 C   0  0  0  0  0  3  0  0  0  0  0  0
  -21.6550   -6.9650   21.4980 O   0  0  0  0  0  0  0  0  0  0  0  0
  -21.6550   -6.2040   22.6390 C   0  0  0  0  0  0  0  0  0  0  0  0
  -21.3020   -6.7440   23.8940 C   0  0  0  0  0  3  0  0  0  0  0  0
  -21.2460   -5.9100   25.0300 C   0  0  0  0  0  3  0  0  0  0  0  0
  -21.5330   -4.5370   24.9100 C   0  0  0  0  0  0  0  0  0  0  0  0
  -21.8800   -3.9960   23.6590 C   0  0  0  0  0  3  0  0  0  0  0  0
  -21.9370   -4.8270   22.5260 C   0  0  0  0  0  0  0  0  0  0  0  0
  -22.2510   -4.2960   21.3190 F   0  0  0  0  0  0  0  0  0  0  0  0
  -21.4710   -3.7340   25.9970 F   0  0  0  0  0  0  0  0  0  0  0  0
  -22.7680  -13.5980   21.1360 C   0  0  0  0  0  0  0  0  0  0  0  0
  -22.0550  -12.9070   22.0170 N   0  0  0  0  0  0  0  0  0  0  0  0
  -22.3250  -14.6250   20.6230 O   0  0  0  0  0  0  0  0  0  0  0  0
  -22.4280  -12.0760   22.4530 H   0  0  0  0  0  0  0  0  0  0  0  0
  -21.1230  -13.2120   22.2610 H   0  0  0  0  0  0  0  0  0  0  0  0
  -25.3930  -15.2510   20.2680 N   0  0  0  0  0  0  0  0  0  0  0  0
  -24.6310  -15.9100   20.3890 H   0  0  0  0  0  0  0  0  0  0  0  0
  -26.2470  -15.6870   19.9420 H   0  0  0  0  0  0  0  0  0  0  0  0
  1  2  1  0
  3  5  1  0
  4  1  2  0
  5  8  1  0
  5  2  2  0
  6  3  2  0
  6  4  1  0
  7  6  1  0
  8 10  1  0
  9 20  2  0
 10 15  1  0
 11 19  1  0
 11 21  1  0
 12 18  1  0
 12 14  1  0
 13 19  1  0
 14 13  1  0
 15 14  2  0
 16 17  1  0
 16 10  2  0
 17 12  2  0
 18 11  1  0
 19  9  1  0
 21 23  2  0
 22 21  1  0
 24 22  1  0
 25 34  2  0
 25 30  1  0
 26 22  1  0
 26 30  1  0
 27 26  1  0
 28 29  1  0
 28 27  1  0
 29 25  1  0
 30 31  2  0
 31 32  1  0
 33 32  2  0
 34 33  1  0
 35  9  1  0
 35 36  1  0
 35 45  1  0
 36 39  1  0
 37 41  1  0
 37 36  1  0
 38 37  2  0
 41 40  1  0
 43 41  1  0
 43 44  1  0
 43 42  1  0
 45 48  1  1
 45 46  1  0
 47 45  1  0
 49  4  1  0
 49 50  1  0
 50 51  1  0
 51 52  1  0
 52 53  1  0
 53 54  1  0
 55 54  1  0
 56 61  1  0
 57 58  1  0
 57 56  1  0
 59 58  1  0
 59 66  1  0
 59 60  1  0
 61 55  1  0
 61 60  1  0
 62 55  2  0
 63 64  2  0
 64 83  1  0
 65 64  1  0
 65 68  1  0
 66 63  1  0
 66 67  1  0
 67 65  2  0
 68 69  1  0
 69 70  2  0
 71 74  1  0
 71 70  1  0
 72 71  2  0
 73 72  1  0
 73 68  2  0
 74 75  1  0
 75 76  1  0
 76 77  2  0
 78 77  1  0
 78 82  1  0
 79 78  2  0
 80 75  2  0
 80 79  1  0
 81 80  1  0
 83 84  1  0
 84 87  1  0
 84 86  1  0
 85 83  2  0
 88 89  1  0
 88 63  1  0
 90 88  1  0
M  ISO  4   5 101   8 101  54 100  55 100
M  END
>  <TORSDO>  (47) 
F 22

>  <SCORE>  (47) 
-13.083

>  <name>  (47) 
46

>  <ligand_id>  (47) 
46

>  <original_smiles>  (47) 
[H]c1c([H])c([H])c2c(c1[H])C([H])([H])C([H])([H])C([H])([H])C2([H])N([H])C(=O)C1([H])N(C(=O)C([H])(N([H])C(=O)C([H])(N([H])C([H])([H])[H])C([H])([H])[H])C(C([H])([H])[H])(C([H])([H])[H])C([H])([H])[H])C([H])([H])c2c([H])c(Oc3c([H])c([H])c(C([H])([H])C([H])([H])C([H])([H])C([H])([H])C([H])([H])C([H])([H])C(=O)N4C([H])([H])C([H])([H])C([H])([H])C([H])(n5nc(-c6c([H])c([H])c(Oc7c([H])c([H])c(F)c([H])c7F)c([H])c6[H])c(C(=O)N([H])[H])c5N([H])[H])C4([H])[H])c(F)c3[H])c([H])c([H])c2C1([H])[H]

>  <smiles>  (47) 
[H]c1c([H])c([H])c2c(c1[H])C([H])([H])C([H])([H])C([H])([H])C2([H])N([H])C(=O)C1([H])N(C(=O)C([H])(N([H])C(=O)C([H])(N([H])C([H])([H])[H])C([H])([H])[H])C(C([H])([H])[H])(C([H])([H])[H])C([H])([H])[H])C([H])([H])c2c([H])c(Oc3c([H])c([H])c(C([H])([H])C([H])([H])C([H])([H])C([H])([H])C([H])([H])C([H])([H])C(=O)N4C([H])([H])C([H])([H])C([H])([H])C([H])(n5nc(-c6c([H])c([H])c(Oc7c([H])c([H])c(F)c([H])c7F)c([H])c6[H])c(C(=O)N([H])[H])c5N([H])[H])C4([H])[H])c(F)c3[H])c([H])c([H])c2C1([H])[H]

$$$$
47:0:0
     RDKit          3D

 95104  0  0  1  0  0  0  0  0999 V2000
  -28.6130  -24.3180   23.5210 C   0  0  0  0  0  3  0  0  0  0  0  0
  -29.4620  -23.5530   24.3460 C   0  0  0  0  0  3  0  0  0  0  0  0
  -29.4210  -23.0990   21.5810 C   0  0  0  0  0  3  0  0  0  0  0  0
  -28.6050  -24.1130   22.1280 C   0  0  0  0  0  0  0  0  0  0  0  0
  -30.2510  -22.2990   22.4020 C   0  0  0  0  0  0  0  0  0  0  0  0
  -30.3070  -22.5550   23.7970 C   0  0  0  0  0  0  0  0  0  0  0  0
  -31.5920  -22.3550   25.8220 C   0  0  0  0  0  1  0  0  0  0  0  0
  -31.1900  -21.8210   24.5640 O   0  0  0  0  0  0  0  0  0  0  0  0
  -27.7270  -24.9720   21.2250 C   0  0  0  0  0  2  0  0  0  0  0  0
  -28.4260  -26.2710   20.7630 C   0  0  0  0  0  2  0  0  0  0  0  0
  -27.8650  -26.8010   19.5580 O   0  0  0  0  0  0  0  0  0  0  0  0
  -24.5420  -31.9450   23.1990 C   0  0  0  0  0  0  0  0  0  0  0  0
  -26.7490  -27.5790   19.7270 C   0  0  0  0  0  0  0  0  0  0  0  0
  -23.1520  -30.6730   21.5960 C   0  0  0  0  0  3  0  0  0  0  0  0
  -24.4250  -29.1530   19.9900 C   0  0  0  0  0  0  0  0  0  0  0  0
  -25.6640  -30.9520   21.2110 C   0  0  0  0  0  2  0  0  0  0  0  0
  -25.6440  -29.6110   20.5130 C   0  0  0  0  0  0  0  0  0  0  0  0
  -26.8090  -28.8270   20.3850 C   0  0  0  0  0  3  0  0  0  0  0  0
  -25.5220  -27.1340   19.1960 C   0  0  0  0  0  3  0  0  0  0  0  0
  -24.3560  -27.9120   19.3330 C   0  0  0  0  0  3  0  0  0  0  0  0
  -23.2220  -30.0520   20.1750 C   0  0  0  0  0  2  0  0  0  0  0  0
  -24.4760  -31.2020   22.0590 N   0  0  0  0  0  0  0  0  0  0  0  0
  -23.5210  -32.2290   23.8390 O   0  0  0  0  0  0  0  0  0  0  0  0
  -22.5400  -29.6300   22.5590 C   0  0  0  0  0  0  0  0  0  0  0  0
  -21.2220  -29.4060   22.4380 N   0  0  0  0  0  0  0  0  0  0  0  0
  -23.2480  -29.0260   23.3690 O   0  0  0  0  0  0  0  0  0  0  0  0
  -20.7110  -29.9490   21.7570 H   0  0  0  0  0  0  0  0  0  0  0  0
  -17.9290  -27.9690   22.8150 C   0  0  0  0  0  0  0  0  0  0  0  0
  -20.4380  -28.4430   23.2100 C   0  0  0  0  0  3  0  0  0  0  0  0
  -20.6850  -27.0010   22.7120 C   0  0  0  0  0  2  0  0  0  0  0  0
  -19.6710  -26.5440   21.6590 C   0  0  0  0  0  2  0  0  0  0  0  0
  -18.2470  -26.6080   22.2180 C   0  0  0  0  0  2  0  0  0  0  0  0
  -18.9580  -28.8370   23.2660 C   0  0  0  0  0  0  0  0  0  0  0  0
  -18.6090  -30.1050   23.7770 C   0  0  0  0  0  3  0  0  0  0  0  0
  -17.2620  -30.5070   23.8470 C   0  0  0  0  0  3  0  0  0  0  0  0
  -16.2460  -29.6390   23.4140 C   0  0  0  0  0  3  0  0  0  0  0  0
  -16.5800  -28.3710   22.9030 C   0  0  0  0  0  3  0  0  0  0  0  0
  -25.9010  -32.4930   23.7390 C   0  0  0  0  0  3  0  0  0  0  0  0
  -25.6840  -33.8870   24.1470 N   0  0  0  0  0  0  0  0  0  0  0  0
  -26.0340  -34.9560   23.4180 C   0  0  0  0  0  0  0  0  0  0  0  0
  -26.6460  -34.8670   22.3510 O   0  0  0  0  0  0  0  0  0  0  0  0
  -25.1440  -34.0360   24.9870 H   0  0  0  0  0  0  0  0  0  0  0  0
  -24.3900  -36.8480   23.2270 C   0  0  0  0  0  1  0  0  0  0  0  0
  -25.6430  -36.3430   23.9610 C   0  0  0  0  0  3  0  0  0  0  0  0
  -27.8590  -37.0730   24.7260 C   0  0  0  0  0  1  0  0  0  0  0  0
  -26.7240  -37.3460   23.8490 N   0  0  0  0  0  0  0  0  0  0  0  0
  -26.3740  -38.2780   24.0610 H   0  0  0  0  0  0  0  0  0  0  0  0
  -26.4850  -31.6440   24.9350 C   0  0  1  0  0  0  0  0  0  0  0  0
  -25.4680  -31.3910   26.0720 C   0  0  0  0  0  1  0  0  0  0  0  0
  -26.9890  -30.2690   24.4360 C   0  0  0  0  0  1  0  0  0  0  0  0
  -27.7100  -32.3680   25.5430 C   0  0  0  0  0  1  0  0  0  0  0  0
  -31.0910  -21.1840   21.7670 C   0  0  0  0  0  2  0  0  0  0  0  0
  -30.2520  -20.2000   20.9210 C   0  0  0  0  0  2  0  0  0  0  0  0
  -31.1440  -14.8090   19.7550 C   0  0  0  0  0  0  0  0  0  0  0  0
  -30.7190  -12.5860   18.7570 C   0  0  0  0  0  2  0  0  0  0  0  0
  -29.6930  -12.7010   17.6120 C   0  0  0  0  0  2  0  0  0  0  0  0
  -28.2550  -12.5950   18.1560 C   0  0  0  0  0  2  0  0  0  0  0  0
  -28.0090  -13.5370   19.3650 C   0  0  0  0  0  3  0  0  0  0  0  0
  -29.1420  -13.4120   20.4100 C   0  0  0  0  0  2  0  0  0  0  0  0
  -30.4270  -13.6520   19.7290 N   0  0  0  0  0  0  0  0  0  0  0  0
  -32.2120  -14.9480   19.1470 O   0  0  0  0  0  0  0  0  0  0  0  0
  -30.2000  -18.0950   19.4720 C   0  0  0  0  0  2  0  0  0  0  0  0
  -30.9200  -17.9000   21.9020 C   0  0  0  0  0  2  0  0  0  0  0  0
  -29.6190  -16.7100   19.8180 C   0  0  0  0  0  2  0  0  0  0  0  0
  -31.3730  -16.4590   21.5640 C   0  0  0  0  0  2  0  0  0  0  0  0
  -30.8940  -18.8140   20.6560 C   0  0  0  0  0  3  0  0  0  0  0  0
  -30.6100  -15.8320   20.4650 N   0  0  0  0  0  0  0  0  0  0  0  0
  -25.7390  -14.2620   20.3320 C   0  0  0  0  0  0  0  0  0  0  0  0
  -24.6620  -13.5390   20.7710 C   0  0  0  0  0  0  0  0  0  0  0  0
  -25.0300  -12.1650   20.6390 C   0  0  0  0  0  0  0  0  0  0  0  0
  -26.6950  -13.3280   19.9620 N   0  0  0  0  0  0  0  0  0  0  0  0
  -26.2780  -12.0610   20.2030 N   0  0  0  0  0  0  0  0  0  0  0  0
  -24.2480  -10.9410   20.8450 C   0  0  0  0  0  0  0  0  0  0  0  0
  -24.6620   -9.9450   21.7550 C   0  0  0  0  0  3  0  0  0  0  0  0
  -23.8830   -8.7850   21.9480 C   0  0  0  0  0  3  0  0  0  0  0  0
  -22.6750   -8.6120   21.2300 C   0  0  0  0  0  0  0  0  0  0  0  0
  -22.2810   -9.5970   20.3070 C   0  0  0  0  0  3  0  0  0  0  0  0
  -23.0600  -10.7490   20.1120 C   0  0  0  0  0  3  0  0  0  0  0  0
  -21.8700   -7.5050   21.3330 O   0  0  0  0  0  0  0  0  0  0  0  0
  -21.7560   -6.8040   22.5070 C   0  0  0  0  0  0  0  0  0  0  0  0
  -21.3350   -7.4220   23.7050 C   0  0  0  0  0  3  0  0  0  0  0  0
  -21.1650   -6.6500   24.8720 C   0  0  0  0  0  3  0  0  0  0  0  0
  -21.4050   -5.2620   24.8410 C   0  0  0  0  0  0  0  0  0  0  0  0
  -21.8190   -4.6460   23.6470 C   0  0  0  0  0  3  0  0  0  0  0  0
  -21.9910   -5.4150   22.4830 C   0  0  0  0  0  0  0  0  0  0  0  0
  -22.3700   -4.8130   21.3290 F   0  0  0  0  0  0  0  0  0  0  0  0
  -21.2350   -4.5180   25.9580 F   0  0  0  0  0  0  0  0  0  0  0  0
  -23.3300  -14.0860   21.1970 C   0  0  0  0  0  0  0  0  0  0  0  0
  -22.6560  -13.4070   22.1200 N   0  0  0  0  0  0  0  0  0  0  0  0
  -22.9010  -15.1480   20.7480 O   0  0  0  0  0  0  0  0  0  0  0  0
  -23.0170  -12.5460   22.5040 H   0  0  0  0  0  0  0  0  0  0  0  0
  -21.7650  -13.7540   22.4470 H   0  0  0  0  0  0  0  0  0  0  0  0
  -25.9760  -15.6260   20.1960 N   0  0  0  0  0  0  0  0  0  0  0  0
  -25.2650  -16.3190   20.4080 H   0  0  0  0  0  0  0  0  0  0  0  0
  -26.8200  -16.0290   19.8100 H   0  0  0  0  0  0  0  0  0  0  0  0
  1  2  1  0
  3  4  1  0
  3  5  2  0
  4  1  2  0
  5  6  1  0
  6  2  2  0
  6  8  1  0
  8  7  1  0
  9  4  1  0
 10  9  1  0
 11 13  1  0
 11 10  1  0
 12 23  2  0
 13 18  1  0
 14 22  1  0
 14 24  1  0
 15 21  1  0
 15 17  1  0
 16 22  1  0
 17 16  1  0
 18 17  2  0
 19 20  1  0
 19 13  2  0
 20 15  2  0
 21 14  1  0
 22 12  1  0
 24 26  2  0
 25 24  1  0
 27 25  1  0
 28 37  2  0
 28 33  1  0
 29 25  1  0
 29 33  1  0
 30 29  1  0
 31 32  1  0
 31 30  1  0
 32 28  1  0
 33 34  2  0
 34 35  1  0
 36 35  2  0
 37 36  1  0
 38 12  1  0
 38 39  1  0
 38 48  1  0
 39 42  1  0
 40 44  1  0
 40 39  1  0
 41 40  2  0
 44 43  1  0
 46 44  1  0
 46 47  1  0
 46 45  1  0
 48 51  1  1
 48 49  1  0
 50 48  1  0
 52  5  1  0
 53 52  1  0
 54 67  1  0
 55 60  1  0
 56 57  1  0
 56 55  1  0
 58 57  1  0
 58 71  1  0
 58 59  1  0
 60 54  1  0
 60 59  1  0
 61 54  2  0
 62 64  1  0
 62 66  1  0
 64 67  1  0
 65 63  1  0
 66 53  1  0
 66 63  1  0
 67 65  1  0
 68 69  2  0
 69 88  1  0
 70 69  1  0
 70 73  1  0
 71 72  1  0
 71 68  1  0
 72 70  2  0
 73 74  1  0
 74 75  2  0
 76 79  1  0
 76 75  1  0
 77 76  2  0
 78 77  1  0
 78 73  2  0
 79 80  1  0
 80 81  1  0
 81 82  2  0
 83 82  1  0
 83 87  1  0
 84 83  2  0
 85 80  2  0
 85 84  1  0
 86 85  1  0
 88 89  1  0
 89 92  1  0
 89 91  1  0
 90 88  2  0
 93 68  1  0
 93 94  1  0
 95 93  1  0
M  ISO  4  10 101  11 101  54 100  67 100
M  END
>  <TORSDO>  (48) 
F 21

>  <SCORE>  (48) 
-10.790

>  <name>  (48) 
47

>  <ligand_id>  (48) 
47

>  <original_smiles>  (48) 
[H]c1c([H])c([H])c2c(c1[H])C([H])([H])C([H])([H])C([H])([H])C2([H])N([H])C(=O)C1([H])N(C(=O)C([H])(N([H])C(=O)C([H])(N([H])C([H])([H])[H])C([H])([H])[H])C(C([H])([H])[H])(C([H])([H])[H])C([H])([H])[H])C([H])([H])c2c([H])c(OC([H])([H])C([H])([H])c3c([H])c([H])c(OC([H])([H])[H])c(C([H])([H])C([H])([H])C4([H])C([H])([H])C([H])([H])N(C(=O)N5C([H])([H])C([H])([H])C([H])([H])C([H])(n6nc(-c7c([H])c([H])c(Oc8c([H])c([H])c(F)c([H])c8F)c([H])c7[H])c(C(=O)N([H])[H])c6N([H])[H])C5([H])[H])C([H])([H])C4([H])[H])c3[H])c([H])c([H])c2C1([H])[H]

>  <smiles>  (48) 
[H]c1c([H])c([H])c2c(c1[H])C([H])([H])C([H])([H])C([H])([H])C2([H])N([H])C(=O)C1([H])N(C(=O)C([H])(N([H])C(=O)C([H])(N([H])C([H])([H])[H])C([H])([H])[H])C(C([H])([H])[H])(C([H])([H])[H])C([H])([H])[H])C([H])([H])c2c([H])c(OC([H])([H])C([H])([H])c3c([H])c([H])c(OC([H])([H])[H])c(C([H])([H])C([H])([H])C4([H])C([H])([H])C([H])([H])N(C(=O)N5C([H])([H])C([H])([H])C([H])([H])C([H])(n6nc(-c7c([H])c([H])c(Oc8c([H])c([H])c(F)c([H])c8F)c([H])c7[H])c(C(=O)N([H])[H])c6N([H])[H])C5([H])[H])C([H])([H])C4([H])[H])c3[H])c([H])c([H])c2C1([H])[H]

$$$$
48:0:0
     RDKit          3D

 92101  0  0  1  0  0  0  0  0999 V2000
  -28.0380  -18.7020   19.0010 C   0  0  0  0  0  3  0  0  0  0  0  0
  -29.7130  -17.1920   20.2970 C   0  0  0  0  0  0  0  0  0  0  0  0
  -28.3760  -19.9700   19.5660 C   0  0  0  0  0  0  0  0  0  0  0  0
  -29.4390  -19.9550   20.4360 C   0  0  0  0  0  0  0  0  0  0  0  0
  -28.6920  -17.4310   19.2820 C   0  0  0  0  0  0  0  0  0  0  0  0
  -30.0790  -18.6000   20.8110 C   0  0  0  0  0  0  0  0  0  0  0  0
  -29.6460  -21.5850   20.7070 C   0  0  0  0  0  2  0  0  0  0  0  0
  -27.7920  -21.4330   19.2320 C   0  0  2  0  0  0  0  0  0  0  0  0
  -28.3700  -22.6340   20.2170 C   0  0  1  0  0  0  0  0  0  0  0  0
  -28.3120  -16.3630   18.2730 C   0  0  0  0  0  1  0  0  0  0  0  0
  -31.2400  -18.6690   21.7810 C   0  0  0  0  0  1  0  0  0  0  0  0
  -26.2490  -21.3840   19.2300 C   0  0  0  0  0  1  0  0  0  0  0  0
  -28.2510  -21.7450   17.7910 C   0  0  0  0  0  1  0  0  0  0  0  0
  -27.5030  -22.7580   21.4860 C   0  0  0  0  0  1  0  0  0  0  0  0
  -30.4620  -15.6500   20.5360 C   0  0  0  0  0  0  0  0  0  0  0  0
  -30.5910  -13.1230   19.8720 C   0  0  0  0  0  2  0  0  0  0  0  0
  -29.7740  -12.7160   18.6170 C   0  0  0  0  0  2  0  0  0  0  0  0
  -28.3040  -12.4310   18.9780 C   0  0  0  0  0  2  0  0  0  0  0  0
  -27.7360  -13.4500   19.9930 C   0  0  0  0  0  3  0  0  0  0  0  0
  -28.6980  -13.7780   21.1480 C   0  0  0  0  0  2  0  0  0  0  0  0
  -29.9350  -14.3120   20.5460 N   0  0  0  0  0  0  0  0  0  0  0  0
  -31.7040  -15.6070   20.5270 O   0  0  0  0  0  0  0  0  0  0  0  0
  -25.3260  -14.0100   20.5900 C   0  0  0  0  0  0  0  0  0  0  0  0
  -24.2470  -13.2290   20.8950 C   0  0  0  0  0  0  0  0  0  0  0  0
  -24.7290  -11.8840   20.9240 C   0  0  0  0  0  0  0  0  0  0  0  0
  -26.3880  -13.1350   20.4340 N   0  0  0  0  0  0  0  0  0  0  0  0
  -26.0380  -11.8540   20.7030 N   0  0  0  0  0  0  0  0  0  0  0  0
  -24.0070  -10.6170   21.0880 C   0  0  0  0  0  0  0  0  0  0  0  0
  -24.3910   -9.6680   22.0610 C   0  0  0  0  0  3  0  0  0  0  0  0
  -23.6660   -8.4670   22.2130 C   0  0  0  0  0  3  0  0  0  0  0  0
  -22.5440   -8.2070   21.3910 C   0  0  0  0  0  0  0  0  0  0  0  0
  -22.1820   -9.1430   20.4070 C   0  0  0  0  0  3  0  0  0  0  0  0
  -22.9070  -10.3350   20.2530 C   0  0  0  0  0  3  0  0  0  0  0  0
  -21.7950   -7.0570   21.4510 O   0  0  0  0  0  0  0  0  0  0  0  0
  -21.6810   -6.3330   22.6110 C   0  0  0  0  0  0  0  0  0  0  0  0
  -21.1660   -6.9010   23.7960 C   0  0  0  0  0  3  0  0  0  0  0  0
  -21.0020   -6.1010   24.9450 C   0  0  0  0  0  3  0  0  0  0  0  0
  -21.3430   -4.7370   24.9100 C   0  0  0  0  0  0  0  0  0  0  0  0
  -21.8520   -4.1690   23.7280 C   0  0  0  0  0  3  0  0  0  0  0  0
  -22.0190   -4.9650   22.5810 C   0  0  0  0  0  0  0  0  0  0  0  0
  -22.4900   -4.4080   21.4390 F   0  0  0  0  0  0  0  0  0  0  0  0
  -21.1790   -3.9660   26.0100 F   0  0  0  0  0  0  0  0  0  0  0  0
  -22.8310  -13.6960   21.0550 C   0  0  0  0  0  0  0  0  0  0  0  0
  -22.0540  -13.0120   21.8870 N   0  0  0  0  0  0  0  0  0  0  0  0
  -22.4200  -14.7030   20.4800 O   0  0  0  0  0  0  0  0  0  0  0  0
  -22.3990  -12.1970   22.3710 H   0  0  0  0  0  0  0  0  0  0  0  0
  -21.0990  -13.3050   22.0410 H   0  0  0  0  0  0  0  0  0  0  0  0
  -25.4930  -15.3790   20.4030 N   0  0  0  0  0  0  0  0  0  0  0  0
  -24.7280  -16.0400   20.4830 H   0  0  0  0  0  0  0  0  0  0  0  0
  -26.3780  -15.8240   20.1930 H   0  0  0  0  0  0  0  0  0  0  0  0
  -28.2620  -24.3640   19.5620 C   0  0  0  0  0  2  0  0  0  0  0  0
  -28.2530  -25.9830   19.9930 O   0  0  0  0  0  0  0  0  0  0  0  0
  -24.5790  -31.8760   23.0230 C   0  0  0  0  0  0  0  0  0  0  0  0
  -27.2210  -27.0750   19.8960 C   0  0  0  0  0  0  0  0  0  0  0  0
  -23.4000  -30.4730   21.3780 C   0  0  0  0  0  3  0  0  0  0  0  0
  -24.8740  -28.9240   19.9070 C   0  0  0  0  0  0  0  0  0  0  0  0
  -25.9590  -30.7430   21.2060 C   0  0  0  0  0  2  0  0  0  0  0  0
  -26.0580  -29.3410   20.5260 C   0  0  0  0  0  0  0  0  0  0  0  0
  -27.2180  -28.4360   20.5010 C   0  0  0  0  0  3  0  0  0  0  0  0
  -26.0020  -26.8280   19.2200 C   0  0  0  0  0  3  0  0  0  0  0  0
  -24.8740  -27.6920   19.2330 C   0  0  0  0  0  3  0  0  0  0  0  0
  -23.6310  -29.8140   19.9880 C   0  0  0  0  0  2  0  0  0  0  0  0
  -24.6690  -31.0590   21.9220 N   0  0  0  0  0  0  0  0  0  0  0  0
  -23.4900  -32.1290   23.5640 O   0  0  0  0  0  0  0  0  0  0  0  0
  -22.7420  -29.4480   22.3380 C   0  0  0  0  0  0  0  0  0  0  0  0
  -21.4110  -29.2690   22.2450 N   0  0  0  0  0  0  0  0  0  0  0  0
  -23.4360  -28.8160   23.1380 O   0  0  0  0  0  0  0  0  0  0  0  0
  -20.9030  -29.8320   21.5770 H   0  0  0  0  0  0  0  0  0  0  0  0
  -18.0560  -28.0130   22.8260 C   0  0  0  0  0  0  0  0  0  0  0  0
  -20.6200  -28.3020   23.0150 C   0  0  0  0  0  3  0  0  0  0  0  0
  -20.7180  -26.8880   22.3960 C   0  0  0  0  0  2  0  0  0  0  0  0
  -19.5860  -26.5830   21.4080 C   0  0  0  0  0  2  0  0  0  0  0  0
  -18.2260  -26.6890   22.1010 C   0  0  0  0  0  2  0  0  0  0  0  0
  -19.1790  -28.7780   23.2410 C   0  0  0  0  0  0  0  0  0  0  0  0
  -18.9630  -30.0160   23.8840 C   0  0  0  0  0  3  0  0  0  0  0  0
  -17.6570  -30.4890   24.1150 C   0  0  0  0  0  3  0  0  0  0  0  0
  -16.5500  -29.7230   23.7130 C   0  0  0  0  0  3  0  0  0  0  0  0
  -16.7510  -28.4860   23.0750 C   0  0  0  0  0  3  0  0  0  0  0  0
  -25.8400  -32.5440   23.6510 C   0  0  0  0  0  3  0  0  0  0  0  0
  -25.4730  -33.9100   24.0660 N   0  0  0  0  0  0  0  0  0  0  0  0
  -25.7680  -35.0260   23.3860 C   0  0  0  0  0  0  0  0  0  0  0  0
  -26.4410  -35.0150   22.3520 O   0  0  0  0  0  0  0  0  0  0  0  0
  -24.8770  -33.9880   24.8770 H   0  0  0  0  0  0  0  0  0  0  0  0
  -24.0020  -36.8020   23.1290 C   0  0  0  0  0  1  0  0  0  0  0  0
  -25.2360  -36.3650   23.9350 C   0  0  0  0  0  3  0  0  0  0  0  0
  -27.3260  -37.2410   24.8820 C   0  0  0  0  0  1  0  0  0  0  0  0
  -26.2410  -37.4500   23.9260 N   0  0  0  0  0  0  0  0  0  0  0  0
  -25.8080  -38.3460   24.1310 H   0  0  0  0  0  0  0  0  0  0  0  0
  -26.4130  -31.7420   24.8850 C   0  0  1  0  0  0  0  0  0  0  0  0
  -25.3560  -31.4250   25.9680 C   0  0  0  0  0  1  0  0  0  0  0  0
  -27.0330  -30.3990   24.4340 C   0  0  0  0  0  1  0  0  0  0  0  0
  -27.5520  -32.5500   25.5510 C   0  0  0  0  0  1  0  0  0  0  0  0
  1  5  2  0
  1  3  1  0
  2 15  1  0
  2  6  2  0
  3  4  2  0
  4  7  1  0
  4  6  1  0
  5  2  1  0
  6 11  1  0
  8  3  1  0
  8  9  1  0
  9  7  1  0
  9 14  1  1
 10  5  1  0
  8 12  1  6
 13  8  1  0
 15 21  1  0
 16 21  1  0
 17 18  1  0
 17 16  1  0
 19 18  1  0
 19 26  1  0
 19 20  1  0
 21 20  1  0
 22 15  2  0
 23 24  2  0
 24 25  1  0
 24 43  1  0
 25 28  1  0
 26 23  1  0
 26 27  1  0
 27 25  2  0
 28 29  1  0
 29 30  2  0
 31 34  1  0
 31 30  1  0
 32 31  2  0
 33 32  1  0
 33 28  2  0
 34 35  1  0
 35 36  1  0
 36 37  2  0
 38 37  1  0
 38 42  1  0
 39 38  2  0
 40 35  2  0
 40 39  1  0
 41 40  1  0
 43 44  1  0
 44 47  1  0
 44 46  1  0
 45 43  2  0
 48 49  1  0
 48 23  1  0
 50 48  1  0
 51 52  1  0
 51  9  1  0
 53 64  2  0
 54 52  1  0
 54 59  1  0
 55 63  1  0
 55 65  1  0
 56 62  1  0
 56 58  1  0
 57 63  1  0
 58 57  1  0
 59 58  2  0
 60 61  1  0
 60 54  2  0
 61 56  2  0
 62 55  1  0
 63 53  1  0
 65 67  2  0
 66 65  1  0
 68 66  1  0
 69 78  2  0
 69 74  1  0
 70 66  1  0
 70 74  1  0
 71 70  1  0
 72 73  1  0
 72 71  1  0
 73 69  1  0
 74 75  2  0
 75 76  1  0
 77 76  2  0
 78 77  1  0
 79 53  1  0
 79 80  1  0
 79 89  1  0
 80 83  1  0
 81 85  1  0
 81 80  1  0
 82 81  2  0
 85 84  1  0
 87 85  1  0
 87 88  1  0
 87 86  1  0
 89 92  1  1
 89 90  1  0
 91 89  1  0
M  ISO  4   2 100  15 100  51 101  52 101
M  END
>  <TORSDO>  (49) 
F 17

>  <SCORE>  (49) 
-16.007

>  <name>  (49) 
48

>  <ligand_id>  (49) 
48

>  <original_smiles>  (49) 
[H]c1c([H])c([H])c2c(c1[H])C([H])([H])C([H])([H])C([H])([H])C2([H])N([H])C(=O)C1([H])N(C(=O)C([H])(N([H])C(=O)C([H])(N([H])C([H])([H])[H])C([H])([H])[H])C(C([H])([H])[H])(C([H])([H])[H])C([H])([H])[H])C([H])([H])c2c([H])c(OC([H])([H])C3(C([H])([H])[H])C([H])([H])c4c(C([H])([H])[H])c(C(=O)N5C([H])([H])C([H])([H])C([H])([H])C([H])(n6nc(-c7c([H])c([H])c(Oc8c([H])c([H])c(F)c([H])c8F)c([H])c7[H])c(C(=O)N([H])[H])c6N([H])[H])C5([H])[H])c(C([H])([H])[H])c([H])c4C3(C([H])([H])[H])C([H])([H])[H])c([H])c([H])c2C1([H])[H]

>  <smiles>  (49) 
[H]c1c([H])c([H])c2c(c1[H])C([H])([H])C([H])([H])C([H])([H])C2([H])N([H])C(=O)C1([H])N(C(=O)C([H])(N([H])C(=O)C([H])(N([H])C([H])([H])[H])C([H])([H])[H])C(C([H])([H])[H])(C([H])([H])[H])C([H])([H])[H])C([H])([H])c2c([H])c(OC([H])([H])C3(C([H])([H])[H])C([H])([H])c4c(C([H])([H])[H])c(C(=O)N5C([H])([H])C([H])([H])C([H])([H])C([H])(n6nc(-c7c([H])c([H])c(Oc8c([H])c([H])c(F)c([H])c8F)c([H])c7[H])c(C(=O)N([H])[H])c6N([H])[H])C5([H])[H])c(C([H])([H])[H])c([H])c4C3(C([H])([H])[H])C([H])([H])[H])c([H])c([H])c2C1([H])[H]

$$$$
49:0:0
     RDKit          3D

 85 91  0  0  1  0  0  0  0  0999 V2000
  -28.2010  -19.7030   19.7180 C   0  0  0  0  0  3  0  0  0  0  0  0
  -27.8350  -21.3270   19.7230 C   0  0  0  0  0  3  0  0  0  0  0  0
  -29.3020  -18.6790   20.2720 C   0  0  0  0  0  3  0  0  0  0  0  0
  -29.8850  -20.0770   20.8070 C   0  0  0  0  0  0  0  0  0  0  0  0
  -29.5010  -21.7100   20.8140 C   0  0  0  0  0  0  0  0  0  0  0  0
  -28.3800  -22.7300   20.2810 C   0  0  0  0  0  3  0  0  0  0  0  0
  -31.2070  -19.7770   21.5080 C   0  0  0  0  0  1  0  0  0  0  0  0
  -30.5220  -22.5560   21.5680 C   0  0  0  0  0  1  0  0  0  0  0  0
  -29.9190  -16.7000   20.1960 C   0  0  0  0  0  2  0  0  0  0  0  0
  -30.3120  -13.9040   19.4900 C   0  0  0  0  0  2  0  0  0  0  0  0
  -29.5760  -13.0580   18.3660 C   0  0  0  0  0  2  0  0  0  0  0  0
  -28.2450  -12.4790   18.8460 C   0  0  0  0  0  2  0  0  0  0  0  0
  -27.5680  -13.5200   19.7450 C   0  0  0  0  0  3  0  0  0  0  0  0
  -28.4900  -14.2380   20.7980 C   0  0  0  0  0  2  0  0  0  0  0  0
  -29.5160  -15.1550   20.1230 N   0  0  0  0  0  0  0  0  0  0  0  0
  -31.1630  -16.4390   20.1250 O   0  0  0  0  0  1  0  0  0  0  0  0
  -25.1970  -13.9170   20.4880 C   0  0  0  0  0  0  0  0  0  0  0  0
  -24.1570  -13.1070   20.8380 C   0  0  0  0  0  0  0  0  0  0  0  0
  -24.6650  -11.7700   20.8130 C   0  0  0  0  0  0  0  0  0  0  0  0
  -26.2750  -13.0870   20.2690 N   0  0  0  0  0  0  0  0  0  0  0  0
  -25.9690  -11.7800   20.5180 N   0  0  0  0  0  0  0  0  0  0  0  0
  -23.9530  -10.4920   20.9950 C   0  0  0  0  0  0  0  0  0  0  0  0
  -24.3620   -9.5400   21.9560 C   0  0  0  0  0  3  0  0  0  0  0  0
  -23.6400   -8.3390   22.1310 C   0  0  0  0  0  3  0  0  0  0  0  0
  -22.4900   -8.0790   21.3480 C   0  0  0  0  0  0  0  0  0  0  0  0
  -22.0970   -9.0190   20.3790 C   0  0  0  0  0  3  0  0  0  0  0  0
  -22.8210  -10.2110   20.2020 C   0  0  0  0  0  3  0  0  0  0  0  0
  -21.7430   -6.9280   21.4290 O   0  0  0  0  0  0  0  0  0  0  0  0
  -21.6490   -6.2090   22.5960 C   0  0  0  0  0  0  0  0  0  0  0  0
  -21.1390   -6.7800   23.7830 C   0  0  0  0  0  3  0  0  0  0  0  0
  -20.9960   -5.9870   24.9400 C   0  0  0  0  0  3  0  0  0  0  0  0
  -21.3520   -4.6250   24.9110 C   0  0  0  0  0  0  0  0  0  0  0  0
  -21.8550   -4.0550   23.7280 C   0  0  0  0  0  3  0  0  0  0  0  0
  -21.9990   -4.8440   22.5730 C   0  0  0  0  0  0  0  0  0  0  0  0
  -22.4620   -4.2830   21.4310 F   0  0  0  0  0  0  0  0  0  0  0  0
  -21.2100   -3.8630   26.0200 F   0  0  0  0  0  0  0  0  0  0  0  0
  -22.7450  -13.5530   21.0740 C   0  0  0  0  0  0  0  0  0  0  0  0
  -22.0200  -12.8570   21.9410 N   0  0  0  0  0  0  0  0  0  0  0  0
  -22.2970  -14.5610   20.5270 O   0  0  0  0  0  0  0  0  0  0  0  0
  -22.3990  -12.0430   22.4020 H   0  0  0  0  0  0  0  0  0  0  0  0
  -21.0730  -13.1400   22.1480 H   0  0  0  0  0  0  0  0  0  0  0  0
  -25.3140  -15.2900   20.2990 N   0  0  0  0  0  0  0  0  0  0  0  0
  -24.5190  -15.9140   20.3830 H   0  0  0  0  0  0  0  0  0  0  0  0
  -26.1490  -15.7560   19.9670 H   0  0  0  0  0  0  0  0  0  0  0  0
  -28.1610  -24.5970   20.2780 O   0  0  0  0  0  1  0  0  0  0  0  0
  -24.7090  -31.7770   23.1060 C   0  0  0  0  0  0  0  0  0  0  0  0
  -27.2250  -26.0880   20.2670 C   0  0  0  0  0  0  0  0  0  0  0  0
  -23.5630  -30.3440   21.4800 C   0  0  0  0  0  3  0  0  0  0  0  0
  -25.0240  -28.5420   20.1470 C   0  0  0  0  0  0  0  0  0  0  0  0
  -26.1630  -30.2850   21.4700 C   0  0  0  0  0  2  0  0  0  0  0  0
  -26.2200  -28.7730   20.8340 C   0  0  0  0  0  0  0  0  0  0  0  0
  -27.2650  -27.5980   20.8450 C   0  0  0  0  0  3  0  0  0  0  0  0
  -25.9950  -26.2450   19.5090 C   0  0  0  0  0  3  0  0  0  0  0  0
  -24.9900  -27.3060   19.4610 C   0  0  0  0  0  3  0  0  0  0  0  0
  -23.8490  -29.5750   20.1450 C   0  0  0  0  0  2  0  0  0  0  0  0
  -24.8440  -30.8540   22.0700 N   0  0  0  0  0  0  0  0  0  0  0  0
  -23.5980  -32.1130   23.5630 O   0  0  0  0  0  0  0  0  0  0  0  0
  -22.7700  -29.4440   22.4700 C   0  0  0  0  0  0  0  0  0  0  0  0
  -21.4300  -29.3420   22.3430 N   0  0  0  0  0  0  0  0  0  0  0  0
  -23.3850  -28.8250   23.3400 O   0  0  0  0  0  0  0  0  0  0  0  0
  -20.9720  -29.8880   21.6270 H   0  0  0  0  0  0  0  0  0  0  0  0
  -18.0070  -28.1970   22.8900 C   0  0  0  0  0  0  0  0  0  0  0  0
  -20.5770  -28.4270   23.1230 C   0  0  0  0  0  3  0  0  0  0  0  0
  -20.6430  -26.9920   22.5480 C   0  0  0  0  0  2  0  0  0  0  0  0
  -19.5300  -26.6950   21.5380 C   0  0  0  0  0  2  0  0  0  0  0  0
  -18.1570  -26.8550   22.1940 C   0  0  0  0  0  2  0  0  0  0  0  0
  -19.1420  -28.9440   23.3090 C   0  0  0  0  0  0  0  0  0  0  0  0
  -18.9420  -30.1940   23.9310 C   0  0  0  0  0  3  0  0  0  0  0  0
  -17.6450  -30.7030   24.1310 C   0  0  0  0  0  3  0  0  0  0  0  0
  -16.5260  -29.9560   23.7210 C   0  0  0  0  0  3  0  0  0  0  0  0
  -16.7090  -28.7050   23.1060 C   0  0  0  0  0  3  0  0  0  0  0  0
  -25.9340  -32.4700   23.7810 C   0  0  0  0  0  3  0  0  0  0  0  0
  -25.5810  -33.8740   24.1090 N   0  0  0  0  0  0  0  0  0  0  0  0
  -25.9150  -34.9600   23.3940 C   0  0  0  0  0  0  0  0  0  0  0  0
  -26.5910  -34.8850   22.3670 O   0  0  0  0  0  0  0  0  0  0  0  0
  -24.9680  -34.0020   24.9010 H   0  0  0  0  0  0  0  0  0  0  0  0
  -24.1770  -36.7700   23.1090 C   0  0  0  0  0  1  0  0  0  0  0  0
  -25.4310  -36.3440   23.8890 C   0  0  0  0  0  3  0  0  0  0  0  0
  -27.5690  -37.2450   24.7080 C   0  0  0  0  0  1  0  0  0  0  0  0
  -26.4560  -37.4090   23.7780 N   0  0  0  0  0  0  0  0  0  0  0  0
  -26.0410  -38.3240   23.9360 H   0  0  0  0  0  0  0  0  0  0  0  0
  -26.4000  -31.7400   25.1030 C   0  0  1  0  0  0  0  0  0  0  0  0
  -25.2670  -31.5280   26.1350 C   0  0  0  0  0  1  0  0  0  0  0  0
  -27.0010  -30.3520   24.7980 C   0  0  0  0  0  1  0  0  0  0  0  0
  -27.5250  -32.5540   25.7860 C   0  0  0  0  0  1  0  0  0  0  0  0
  1  2  2  0
  1  3  1  0
  2  6  1  0
  3  4  2  0
  4  5  1  0
  4  7  1  0
  5  8  1  0
  6  5  2  0
 10 15  1  0
 11 12  1  0
 11 10  1  0
 13 12  1  0
 13 20  1  0
 13 14  1  0
 15  9  1  0
 15 14  1  0
 16  9  1  0
 17 18  2  0
 18 37  1  0
 19 18  1  0
 19 22  1  0
 20 17  1  0
 20 21  1  0
 21 19  2  0
 22 23  1  0
 23 24  2  0
 25 28  1  0
 25 24  1  0
 26 25  2  0
 27 26  1  0
 27 22  2  0
 28 29  1  0
 29 30  1  0
 30 31  2  0
 32 31  1  0
 32 36  1  0
 33 32  2  0
 34 29  2  0
 34 33  1  0
 35 34  1  0
 37 38  1  0
 38 41  1  0
 38 40  1  0
 39 37  2  0
 42 43  1  0
 42 17  1  0
 44 42  1  0
 46 57  2  0
 47 45  1  0
 47 52  1  0
 48 56  1  0
 48 58  1  0
 49 51  1  0
 50 56  1  0
 51 52  2  0
 51 50  1  0
 53 47  2  0
 54 53  1  0
 54 49  2  0
 55 49  1  0
 55 48  1  0
 56 46  1  0
 58 60  2  0
 59 58  1  0
 61 59  1  0
 62 71  2  0
 62 67  1  0
 63 59  1  0
 63 67  1  0
 64 63  1  0
 65 66  1  0
 65 64  1  0
 66 62  1  0
 67 68  2  0
 68 69  1  0
 70 69  2  0
 71 70  1  0
 72 46  1  0
 72 73  1  0
 72 82  1  0
 73 76  1  0
 74 78  1  0
 74 73  1  0
 75 74  2  0
 78 77  1  0
 80 78  1  0
 80 81  1  0
 80 79  1  0
 82 85  1  1
 82 83  1  0
 84 82  1  0
M  ISO  4   3 100   6 101   9 100  45 101
M  END
>  <TORSDO>  (50) 
F 16

>  <SCORE>  (50) 
-16.674

>  <name>  (50) 
49

>  <ligand_id>  (50) 
49

>  <original_smiles>  (50) 
[H]c1c([H])c([H])c2c(c1[H])C([H])([H])C([H])([H])C([H])([H])C2([H])N([H])C(=O)C1([H])N(C(=O)C([H])(N([H])C(=O)C([H])(N([H])C([H])([H])[H])C([H])([H])[H])C(C([H])([H])[H])(C([H])([H])[H])C([H])([H])[H])C([H])([H])c2c([H])c(Oc3c([H])c([H])c(C(=O)N4C([H])([H])C([H])([H])C([H])([H])C([H])(n5nc(-c6c([H])c([H])c(Oc7c([H])c([H])c(F)c([H])c7F)c([H])c6[H])c(C(=O)N([H])[H])c5N([H])[H])C4([H])[H])c(C([H])([H])[H])c3C([H])([H])[H])c([H])c([H])c2C1([H])[H]

>  <smiles>  (50) 
[H]c1c([H])c([H])c2c(c1[H])C([H])([H])C([H])([H])C([H])([H])C2([H])N([H])C(=O)C1([H])N(C(=O)C([H])(N([H])C(=O)C([H])(N([H])C([H])([H])[H])C([H])([H])[H])C(C([H])([H])[H])(C([H])([H])[H])C([H])([H])[H])C([H])([H])c2c([H])c(Oc3c([H])c([H])c(C(=O)N4C([H])([H])C([H])([H])C([H])([H])C([H])(n5nc(-c6c([H])c([H])c(Oc7c([H])c([H])c(F)c([H])c7F)c([H])c6[H])c(C(=O)N([H])[H])c5N([H])[H])C4([H])[H])c(C([H])([H])[H])c3C([H])([H])[H])c([H])c([H])c2C1([H])[H]

$$$$
50:0:0
     RDKit          3D

 93101  0  0  1  0  0  0  0  0999 V2000
  -28.9800  -23.6020   20.5930 C   0  0  0  0  0  3  0  0  0  0  0  0
  -28.6130  -24.8600   18.5720 C   0  0  0  0  0  3  0  0  0  0  0  0
  -29.2600  -22.3100   19.8820 C   0  0  0  0  0  0  0  0  0  0  0  0
  -29.1680  -22.4320   18.4620 C   0  0  0  0  0  0  0  0  0  0  0  0
  -28.6270  -24.9230   19.9800 C   0  0  0  0  0  0  0  0  0  0  0  0
  -28.8340  -23.6670   17.8320 C   0  0  0  0  0  0  0  0  0  0  0  0
  -28.7320  -24.8620   15.7280 C   0  0  0  0  0  1  0  0  0  0  0  0
  -28.7720  -23.6420   16.4520 O   0  0  0  0  0  0  0  0  0  0  0  0
  -28.4590  -26.2660   20.5910 O   0  0  0  0  0  0  0  0  0  0  0  0
  -24.5000  -31.9820   23.1550 C   0  0  0  0  0  0  0  0  0  0  0  0
  -27.3560  -27.2040   20.4380 C   0  0  0  0  0  0  0  0  0  0  0  0
  -23.4060  -30.4550   21.5600 C   0  0  0  0  0  3  0  0  0  0  0  0
  -24.9550  -28.8680   20.2590 C   0  0  0  0  0  0  0  0  0  0  0  0
  -25.9540  -30.8130   21.4490 C   0  0  0  0  0  2  0  0  0  0  0  0
  -26.1020  -29.3890   20.8690 C   0  0  0  0  0  0  0  0  0  0  0  0
  -27.3000  -28.5750   20.9370 C   0  0  0  0  0  3  0  0  0  0  0  0
  -26.1580  -26.7790   19.8190 C   0  0  0  0  0  3  0  0  0  0  0  0
  -24.9980  -27.5740   19.7200 C   0  0  0  0  0  3  0  0  0  0  0  0
  -23.6930  -29.7180   20.2250 C   0  0  0  0  0  2  0  0  0  0  0  0
  -24.6390  -31.1080   22.1080 N   0  0  0  0  0  0  0  0  0  0  0  0
  -23.3870  -32.2460   23.6370 O   0  0  0  0  0  0  0  0  0  0  0  0
  -22.7380  -29.4720   22.5560 C   0  0  0  0  0  0  0  0  0  0  0  0
  -21.4160  -29.2610   22.4210 N   0  0  0  0  0  0  0  0  0  0  0  0
  -23.4140  -28.9020   23.4160 O   0  0  0  0  0  0  0  0  0  0  0  0
  -20.9240  -29.7750   21.7030 H   0  0  0  0  0  0  0  0  0  0  0  0
  -18.0500  -28.0380   22.9760 C   0  0  0  0  0  0  0  0  0  0  0  0
  -20.6090  -28.3360   23.2220 C   0  0  0  0  0  3  0  0  0  0  0  0
  -20.7220  -26.8890   22.6870 C   0  0  0  0  0  2  0  0  0  0  0  0
  -19.6180  -26.5260   21.6880 C   0  0  0  0  0  2  0  0  0  0  0  0
  -18.2390  -26.6740   22.3350 C   0  0  0  0  0  2  0  0  0  0  0  0
  -19.1630  -28.8250   23.3780 C   0  0  0  0  0  0  0  0  0  0  0  0
  -18.9320  -30.0990   23.9420 C   0  0  0  0  0  3  0  0  0  0  0  0
  -17.6230  -30.5880   24.1030 C   0  0  0  0  0  3  0  0  0  0  0  0
  -16.5240  -29.8000   23.7160 C   0  0  0  0  0  3  0  0  0  0  0  0
  -16.7400  -28.5270   23.1600 C   0  0  0  0  0  3  0  0  0  0  0  0
  -25.7300  -32.7030   23.7820 C   0  0  0  0  0  3  0  0  0  0  0  0
  -25.3320  -34.0870   24.0880 N   0  0  0  0  0  0  0  0  0  0  0  0
  -25.6230  -35.1520   23.3300 C   0  0  0  0  0  0  0  0  0  0  0  0
  -26.3210  -35.0790   22.3150 O   0  0  0  0  0  0  0  0  0  0  0  0
  -24.7170  -34.2150   24.8770 H   0  0  0  0  0  0  0  0  0  0  0  0
  -23.8220  -36.8560   22.9080 C   0  0  0  0  0  1  0  0  0  0  0  0
  -25.0510  -36.5150   23.7650 C   0  0  0  0  0  3  0  0  0  0  0  0
  -27.1010  -37.5120   24.6750 C   0  0  0  0  0  1  0  0  0  0  0  0
  -26.0320  -37.6200   23.6860 N   0  0  0  0  0  0  0  0  0  0  0  0
  -25.5730  -38.5180   23.8090 H   0  0  0  0  0  0  0  0  0  0  0  0
  -26.2700  -31.9900   25.0820 C   0  0  1  0  0  0  0  0  0  0  0  0
  -25.1690  -31.6610   26.1170 C   0  0  0  0  0  1  0  0  0  0  0  0
  -26.9840  -30.6660   24.7260 C   0  0  0  0  0  1  0  0  0  0  0  0
  -27.3240  -32.8870   25.7720 C   0  0  0  0  0  1  0  0  0  0  0  0
  -29.8690  -20.8950   20.5380 C   0  0  0  0  0  2  0  0  0  0  0  0
  -29.4370  -19.2530   20.2980 C   0  0  0  0  0  3  0  0  0  0  0  0
  -30.4720  -17.9040   20.4190 C   0  0  0  0  0  3  0  0  0  0  0  0
  -30.7970  -15.1520   20.3400 C   0  0  0  0  0  0  0  0  0  0  0  0
  -30.6530  -12.7990   19.3940 C   0  0  0  0  0  2  0  0  0  0  0  0
  -29.7340  -12.7670   18.1520 C   0  0  0  0  0  2  0  0  0  0  0  0
  -28.2630  -12.5680   18.5660 C   0  0  0  0  0  2  0  0  0  0  0  0
  -27.8500  -13.4900   19.7430 C   0  0  0  0  0  3  0  0  0  0  0  0
  -28.8960  -13.4970   20.8780 C   0  0  0  0  0  2  0  0  0  0  0  0
  -30.1760  -13.9020   20.2800 N   0  0  0  0  0  0  0  0  0  0  0  0
  -32.0030  -15.1850   20.0830 O   0  0  0  0  0  0  0  0  0  0  0  0
  -30.0540  -16.3660   20.4780 N   0  0  0  0  0  0  0  0  0  0  0  0
  -29.0730  -16.2080   20.6500 H   0  0  0  0  0  0  0  0  0  0  0  0
  -25.4620  -14.0740   20.4530 C   0  0  0  0  0  0  0  0  0  0  0  0
  -24.3900  -13.3030   20.8090 C   0  0  0  0  0  0  0  0  0  0  0  0
  -24.8530  -11.9500   20.7860 C   0  0  0  0  0  0  0  0  0  0  0  0
  -26.5060  -13.1940   20.2280 N   0  0  0  0  0  0  0  0  0  0  0  0
  -26.1480  -11.9100   20.4950 N   0  0  0  0  0  0  0  0  0  0  0  0
  -24.1180  -10.6900   20.9630 C   0  0  0  0  0  0  0  0  0  0  0  0
  -24.4940   -9.7430   21.9430 C   0  0  0  0  0  3  0  0  0  0  0  0
  -23.7570   -8.5510   22.1070 C   0  0  0  0  0  3  0  0  0  0  0  0
  -22.6290   -8.2950   21.2920 C   0  0  0  0  0  0  0  0  0  0  0  0
  -22.2740   -9.2270   20.3010 C   0  0  0  0  0  3  0  0  0  0  0  0
  -23.0120  -10.4110   20.1360 C   0  0  0  0  0  3  0  0  0  0  0  0
  -21.8690   -7.1520   21.3650 O   0  0  0  0  0  0  0  0  0  0  0  0
  -21.7170   -6.4620   22.5410 C   0  0  0  0  0  0  0  0  0  0  0  0
  -21.1440   -7.0580   23.6860 C   0  0  0  0  0  3  0  0  0  0  0  0
  -20.9420   -6.2920   24.8520 C   0  0  0  0  0  3  0  0  0  0  0  0
  -21.3030   -4.9310   24.8720 C   0  0  0  0  0  0  0  0  0  0  0  0
  -21.8670   -4.3350   23.7310 C   0  0  0  0  0  3  0  0  0  0  0  0
  -22.0710   -5.0980   22.5680 C   0  0  0  0  0  0  0  0  0  0  0  0
  -22.5950   -4.5140   21.4630 F   0  0  0  0  0  0  0  0  0  0  0  0
  -21.1020   -4.1920   25.9890 F   0  0  0  0  0  0  0  0  0  0  0  0
  -22.9900  -13.7820   21.0570 C   0  0  0  0  0  0  0  0  0  0  0  0
  -22.2480  -13.0960   21.9190 N   0  0  0  0  0  0  0  0  0  0  0  0
  -22.5620  -14.8030   20.5210 O   0  0  0  0  0  0  0  0  0  0  0  0
  -22.6050  -12.2690   22.3740 H   0  0  0  0  0  0  0  0  0  0  0  0
  -21.3080  -13.4000   22.1260 H   0  0  0  0  0  0  0  0  0  0  0  0
  -25.6300  -15.4440   20.2730 N   0  0  0  0  0  0  0  0  0  0  0  0
  -24.8590  -16.0970   20.3630 H   0  0  0  0  0  0  0  0  0  0  0  0
  -26.4740  -15.8800   19.9240 H   0  0  0  0  0  0  0  0  0  0  0  0
  -29.5180  -21.2690   17.5290 C   0  0  0  0  0  2  0  0  0  0  0  0
  -28.6240  -19.2070   16.2870 C   0  0  0  0  0  1  0  0  0  0  0  0
  -28.2800  -20.4490   17.1200 C   0  0  0  0  0  2  0  0  0  0  0  0
  2  5  2  0
  3 50  1  0
  3  1  2  0
  4  3  1  0
  5  9  1  0
  5  1  1  0
  6  4  2  0
  6  2  1  0
  7  8  1  0
  8  6  1  0
 10 21  2  0
 11  9  1  0
 11 16  1  0
 12 20  1  0
 12 22  1  0
 13 15  1  0
 14 20  1  0
 15 16  2  0
 15 14  1  0
 17 11  2  0
 18 17  1  0
 18 13  2  0
 19 13  1  0
 19 12  1  0
 20 10  1  0
 22 24  2  0
 23 22  1  0
 25 23  1  0
 26 35  2  0
 26 31  1  0
 27 23  1  0
 27 31  1  0
 28 27  1  0
 29 30  1  0
 29 28  1  0
 30 26  1  0
 31 32  2  0
 32 33  1  0
 34 33  2  0
 35 34  1  0
 36 10  1  0
 36 37  1  0
 36 46  1  0
 37 40  1  0
 38 42  1  0
 38 37  1  0
 39 38  2  0
 42 41  1  0
 44 42  1  0
 44 45  1  0
 44 43  1  0
 46 49  1  1
 46 47  1  0
 48 46  1  0
 51 52  2  0
 51 50  1  0
 52 61  1  0
 53 61  1  0
 54 59  1  0
 55 56  1  0
 55 54  1  0
 57 56  1  0
 57 66  1  0
 57 58  1  0
 59 53  1  0
 59 58  1  0
 60 53  2  0
 61 62  1  0
 63 64  2  0
 64 83  1  0
 65 64  1  0
 65 68  1  0
 66 63  1  0
 66 67  1  0
 67 65  2  0
 68 69  1  0
 69 70  2  0
 71 74  1  0
 71 70  1  0
 72 71  2  0
 73 72  1  0
 73 68  2  0
 74 75  1  0
 75 80  2  0
 75 76  1  0
 76 77  2  0
 77 78  1  0
 78 82  1  0
 79 78  2  0
 80 79  1  0
 81 80  1  0
 83 84  1  0
 84 87  1  0
 84 86  1  0
 85 83  2  0
 88 89  1  0
 88 63  1  0
 90 88  1  0
 91  4  1  0
 92 93  1  0
 93 91  1  0
M  ISO  4   5 101   9 101  53 100  61 100
M  END
>  <TORSDO>  (51) 
F 22

>  <SCORE>  (51) 
-14.066

>  <name>  (51) 
50

>  <ligand_id>  (51) 
50

>  <original_smiles>  (51) 
[H]c1c([H])c([H])c2c(c1[H])C([H])([H])C([H])([H])C([H])([H])C2([H])N([H])C(=O)C1([H])N(C(=O)C([H])(N([H])C(=O)C([H])(N([H])C([H])([H])[H])C([H])([H])[H])C(C([H])([H])[H])(C([H])([H])[H])C([H])([H])[H])C([H])([H])c2c([H])c(Oc3c([H])c(OC([H])([H])[H])c(C([H])([H])C([H])([H])C([H])([H])[H])c(C([H])([H])C([H])([H])C([H])([H])N([H])C(=O)N4C([H])([H])C([H])([H])C([H])([H])C([H])(n5nc(-c6c([H])c([H])c(Oc7c([H])c([H])c(F)c([H])c7F)c([H])c6[H])c(C(=O)N([H])[H])c5N([H])[H])C4([H])[H])c3[H])c([H])c([H])c2C1([H])[H]

>  <smiles>  (51) 
[H]c1c([H])c([H])c2c(c1[H])C([H])([H])C([H])([H])C([H])([H])C2([H])N([H])C(=O)C1([H])N(C(=O)C([H])(N([H])C(=O)C([H])(N([H])C([H])([H])[H])C([H])([H])[H])C(C([H])([H])[H])(C([H])([H])[H])C([H])([H])[H])C([H])([H])c2c([H])c(Oc3c([H])c(OC([H])([H])[H])c(C([H])([H])C([H])([H])C([H])([H])[H])c(C([H])([H])C([H])([H])C([H])([H])N([H])C(=O)N4C([H])([H])C([H])([H])C([H])([H])C([H])(n5nc(-c6c([H])c([H])c(Oc7c([H])c([H])c(F)c([H])c7F)c([H])c6[H])c(C(=O)N([H])[H])c5N([H])[H])C4([H])[H])c3[H])c([H])c([H])c2C1([H])[H]

$$$$
51:0:0
     RDKit          3D

 91100  0  0  1  0  0  0  0  0999 V2000
  -28.4130  -21.1710   20.7960 C   0  0  0  0  0  3  0  0  0  0  0  0
  -29.4260  -22.7880   19.3440 C   0  0  0  0  0  3  0  0  0  0  0  0
  -27.7200  -23.6470   20.7880 C   0  0  0  0  0  3  0  0  0  0  0  0
  -29.4040  -21.2210   19.7860 C   0  0  0  0  0  0  0  0  0  0  0  0
  -27.6420  -22.2890   21.2600 C   0  0  0  0  0  0  0  0  0  0  0  0
  -28.6080  -24.1200   19.7870 C   0  0  0  0  0  0  0  0  0  0  0  0
  -30.2140  -19.5960   19.3680 C   0  0  0  0  0  0  0  0  0  0  0  0
  -30.8020  -19.6980   18.2900 O   0  0  0  0  0  0  0  0  0  0  0  0
  -29.7650  -17.5290   22.2290 C   0  0  0  0  0  2  0  0  0  0  0  0
  -31.0200  -18.0410   21.5330 C   0  0  0  0  0  2  0  0  0  0  0  0
  -29.0750  -17.4960   20.8630 C   0  0  0  0  0  2  0  0  0  0  0  0
  -30.3900  -17.8250   20.1330 C   0  0  1  0  0  0  0  0  0  0  0  0
  -31.1230  -16.1180   19.6550 C   0  0  0  0  0  0  0  0  0  0  0  0
  -31.2010  -13.5440   18.8290 C   0  0  0  0  0  2  0  0  0  0  0  0
  -30.1990  -13.1230   17.7080 C   0  0  0  0  0  2  0  0  0  0  0  0
  -28.8230  -12.7530   18.2850 C   0  0  0  0  0  2  0  0  0  0  0  0
  -28.4110  -13.7420   19.3970 C   0  0  0  0  0  3  0  0  0  0  0  0
  -29.5490  -14.0350   20.4070 C   0  0  0  0  0  2  0  0  0  0  0  0
  -30.6500  -14.7140   19.6670 N   0  0  0  0  0  0  0  0  0  0  0  0
  -32.2970  -16.0520   19.2400 O   0  0  0  0  0  0  0  0  0  0  0  0
  -26.1640  -14.2550   20.4800 C   0  0  0  0  0  0  0  0  0  0  0  0
  -25.1350  -13.4720   20.9110 C   0  0  0  0  0  0  0  0  0  0  0  0
  -25.5540  -12.1220   20.7050 C   0  0  0  0  0  0  0  0  0  0  0  0
  -27.1490  -13.3910   20.0400 N   0  0  0  0  0  0  0  0  0  0  0  0
  -26.8000  -12.0910   20.2420 N   0  0  0  0  0  0  0  0  0  0  0  0
  -24.8090  -10.8660   20.8730 C   0  0  0  0  0  0  0  0  0  0  0  0
  -25.1910   -9.8970   21.8280 C   0  0  0  0  0  3  0  0  0  0  0  0
  -24.4410   -8.7120   21.9880 C   0  0  0  0  0  3  0  0  0  0  0  0
  -23.2930   -8.4850   21.1910 C   0  0  0  0  0  0  0  0  0  0  0  0
  -22.9260   -9.4420   20.2300 C   0  0  0  0  0  3  0  0  0  0  0  0
  -23.6770  -10.6190   20.0680 C   0  0  0  0  0  3  0  0  0  0  0  0
  -22.5190   -7.3510   21.2610 O   0  0  0  0  0  0  0  0  0  0  0  0
  -22.2410   -6.7400   22.4570 C   0  0  0  0  0  0  0  0  0  0  0  0
  -21.5830   -7.4200   23.5040 C   0  0  0  0  0  3  0  0  0  0  0  0
  -21.2580   -6.7350   24.6920 C   0  0  0  0  0  3  0  0  0  0  0  0
  -21.5750   -5.3710   24.8280 C   0  0  0  0  0  0  0  0  0  0  0  0
  -22.2250   -4.6900   23.7850 C   0  0  0  0  0  3  0  0  0  0  0  0
  -22.5540   -5.3740   22.6000 C   0  0  0  0  0  0  0  0  0  0  0  0
  -23.1620   -4.7090   21.5880 F   0  0  0  0  0  0  0  0  0  0  0  0
  -21.2540   -4.7090   25.9650 F   0  0  0  0  0  0  0  0  0  0  0  0
  -23.7960  -13.9570   21.3810 C   0  0  0  0  0  0  0  0  0  0  0  0
  -23.1600  -13.2280   22.2920 N   0  0  0  0  0  0  0  0  0  0  0  0
  -23.3250  -15.0180   20.9750 O   0  0  0  0  0  0  0  0  0  0  0  0
  -23.5510  -12.3660   22.6430 H   0  0  0  0  0  0  0  0  0  0  0  0
  -22.2660  -13.5370   22.6450 H   0  0  0  0  0  0  0  0  0  0  0  0
  -26.3240  -15.6340   20.3920 N   0  0  0  0  0  0  0  0  0  0  0  0
  -25.5970  -16.2780   20.6790 H   0  0  0  0  0  0  0  0  0  0  0  0
  -27.1240  -16.0970   19.9830 H   0  0  0  0  0  0  0  0  0  0  0  0
  -26.7570  -22.0230   22.2640 O   0  0  0  0  0  0  0  0  0  0  0  0
  -26.3690  -22.8010   22.6510 H   0  0  0  0  0  0  0  0  0  0  0  0
  -28.5990  -25.7370   19.5330 O   0  0  0  0  0  0  0  0  0  0  0  0
  -25.0110  -31.8000   23.0170 C   0  0  0  0  0  0  0  0  0  0  0  0
  -27.5930  -26.9350   19.6730 C   0  0  0  0  0  0  0  0  0  0  0  0
  -23.8310  -30.4880   21.3050 C   0  0  0  0  0  3  0  0  0  0  0  0
  -25.2910  -28.9540   19.7790 C   0  0  0  0  0  0  0  0  0  0  0  0
  -26.4060  -30.6750   21.1670 C   0  0  0  0  0  2  0  0  0  0  0  0
  -26.4890  -29.2810   20.4250 C   0  0  0  0  0  0  0  0  0  0  0  0
  -27.6210  -28.3020   20.3410 C   0  0  0  0  0  3  0  0  0  0  0  0
  -26.3530  -26.8400   18.9860 C   0  0  0  0  0  3  0  0  0  0  0  0
  -25.2620  -27.7620   19.0350 C   0  0  0  0  0  3  0  0  0  0  0  0
  -24.0710  -29.8840   19.8900 C   0  0  0  0  0  2  0  0  0  0  0  0
  -25.1060  -31.0190   21.8840 N   0  0  0  0  0  0  0  0  0  0  0  0
  -23.9180  -32.0420   23.5590 O   0  0  0  0  0  0  0  0  0  0  0  0
  -23.1420  -29.4380   22.2220 C   0  0  0  0  0  0  0  0  0  0  0  0
  -21.8050  -29.2970   22.1340 N   0  0  0  0  0  0  0  0  0  0  0  0
  -23.8230  -28.7490   22.9850 O   0  0  0  0  0  0  0  0  0  0  0  0
  -21.3020  -29.9070   21.5050 H   0  0  0  0  0  0  0  0  0  0  0  0
  -18.4270  -28.0730   22.7050 C   0  0  0  0  0  0  0  0  0  0  0  0
  -21.0030  -28.2990   22.8560 C   0  0  0  0  0  3  0  0  0  0  0  0
  -21.0550  -26.9240   22.1490 C   0  0  0  0  0  2  0  0  0  0  0  0
  -19.8980  -26.7050   21.1680 C   0  0  0  0  0  2  0  0  0  0  0  0
  -18.5550  -26.7940   21.8960 C   0  0  0  0  0  2  0  0  0  0  0  0
  -19.5760  -28.7870   23.1430 C   0  0  0  0  0  0  0  0  0  0  0  0
  -19.3990  -29.9830   23.8720 C   0  0  0  0  0  3  0  0  0  0  0  0
  -18.1100  -30.4670   24.1640 C   0  0  0  0  0  3  0  0  0  0  0  0
  -16.9770  -29.7520   23.7370 C   0  0  0  0  0  3  0  0  0  0  0  0
  -17.1380  -28.5570   23.0130 C   0  0  0  0  0  3  0  0  0  0  0  0
  -26.2670  -32.4350   23.6820 C   0  0  0  0  0  3  0  0  0  0  0  0
  -26.8440  -31.5620   24.8660 C   0  0  1  0  0  0  0  0  0  0  0  0
  -25.7850  -31.1620   25.9190 C   0  0  0  0  0  1  0  0  0  0  0  0
  -27.4840  -30.2610   24.3370 C   0  0  0  0  0  1  0  0  0  0  0  0
  -27.9710  -32.3380   25.5860 C   0  0  0  0  0  1  0  0  0  0  0  0
  -25.8980  -33.7740   24.1810 N   0  0  0  0  0  0  0  0  0  0  0  0
  -26.1940  -34.9330   23.5770 C   0  0  0  0  0  0  0  0  0  0  0  0
  -26.8580  -34.9910   22.5400 O   0  0  0  0  0  0  0  0  0  0  0  0
  -25.2970  -33.7990   24.9910 H   0  0  0  0  0  0  0  0  0  0  0  0
  -24.4090  -36.7100   23.4870 C   0  0  0  0  0  1  0  0  0  0  0  0
  -25.6720  -36.2350   24.2210 C   0  0  0  0  0  3  0  0  0  0  0  0
  -27.7840  -37.0840   25.1460 C   0  0  0  0  0  1  0  0  0  0  0  0
  -26.6690  -37.3290   24.2360 N   0  0  0  0  0  0  0  0  0  0  0  0
  -26.2340  -38.2080   24.5000 H   0  0  0  0  0  0  0  0  0  0  0  0
  1  5  1  0
  2  4  1  0
  2  6  2  0
  3  5  2  0
  4  1  2  0
  5 49  1  0
  6  3  1  0
  7  4  1  0
 12  7  1  6
  8  7  2  0
 10  9  1  0
 11  9  1  0
 12 11  1  0
 12 10  1  0
 13 19  1  0
 13 12  1  0
 14 19  1  0
 15 16  1  0
 15 14  1  0
 17 16  1  0
 17 24  1  0
 17 18  1  0
 19 18  1  0
 20 13  2  0
 21 22  2  0
 22 41  1  0
 23 26  1  0
 23 22  1  0
 24 25  1  0
 24 21  1  0
 25 23  2  0
 26 27  1  0
 27 28  2  0
 29 32  1  0
 29 28  1  0
 30 29  2  0
 31 30  1  0
 31 26  2  0
 32 33  1  0
 33 38  2  0
 33 34  1  0
 34 35  2  0
 35 36  1  0
 36 40  1  0
 37 36  2  0
 38 37  1  0
 39 38  1  0
 41 42  1  0
 42 44  1  0
 42 45  1  0
 43 41  2  0
 46 21  1  0
 46 47  1  0
 48 46  1  0
 49 50  1  0
 51 53  1  0
 51  6  1  0
 52 63  2  0
 53 58  1  0
 54 62  1  0
 54 64  1  0
 55 61  1  0
 55 57  1  0
 56 62  1  0
 57 56  1  0
 58 57  2  0
 59 60  1  0
 59 53  2  0
 60 55  2  0
 61 54  1  0
 62 52  1  0
 64 66  2  0
 65 64  1  0
 67 65  1  0
 68 77  2  0
 68 73  1  0
 69 65  1  0
 69 73  1  0
 70 69  1  0
 71 72  1  0
 71 70  1  0
 72 68  1  0
 73 74  2  0
 74 75  1  0
 76 75  2  0
 77 76  1  0
 78 52  1  0
 78 83  1  0
 78 79  1  0
 79 82  1  1
 79 80  1  0
 81 79  1  0
 83 86  1  0
 84 83  1  0
 84 88  1  0
 85 84  2  0
 88 87  1  0
 88 90  1  0
 90 91  1  0
 90 89  1  0
M  ISO  4   6 101  12 100  13 100  51 101
M  END
>  <TORSDO>  (52) 
F 19

>  <SCORE>  (52) 
-12.217

>  <name>  (52) 
51

>  <ligand_id>  (52) 
51

>  <original_smiles>  (52) 
[H]Oc1c([H])c(Oc2c([H])c([H])c3c(c2[H])C([H])([H])N(C(=O)C([H])(N([H])C(=O)C([H])(N([H])C([H])([H])[H])C([H])([H])[H])C(C([H])([H])[H])(C([H])([H])[H])C([H])([H])[H])C([H])(C(=O)N([H])C2([H])c4c([H])c([H])c([H])c([H])c4C([H])([H])C([H])([H])C2([H])[H])C3([H])[H])c([H])c(C(=O)C2(C(=O)N3C([H])([H])C([H])([H])C([H])([H])C([H])(n4nc(-c5c([H])c([H])c(Oc6c([H])c([H])c(F)c([H])c6F)c([H])c5[H])c(C(=O)N([H])[H])c4N([H])[H])C3([H])[H])C([H])([H])C([H])([H])C2([H])[H])c1[H]

>  <smiles>  (52) 
[H]Oc1c([H])c(Oc2c([H])c([H])c3c(c2[H])C([H])([H])N(C(=O)C([H])(N([H])C(=O)C([H])(N([H])C([H])([H])[H])C([H])([H])[H])C(C([H])([H])[H])(C([H])([H])[H])C([H])([H])[H])C([H])(C(=O)N([H])C2([H])c4c([H])c([H])c([H])c([H])c4C([H])([H])C([H])([H])C2([H])[H])C3([H])[H])c([H])c(C(=O)C2(C(=O)N3C([H])([H])C([H])([H])C([H])([H])C([H])(n4nc(-c5c([H])c([H])c(Oc6c([H])c([H])c(F)c([H])c6F)c([H])c5[H])c(C(=O)N([H])[H])c4N([H])[H])C3([H])[H])C([H])([H])C([H])([H])C2([H])[H])c1[H]

$$$$
52:0:0
     RDKit          3D

 90 98  0  0  1  0  0  0  0  0999 V2000
  -30.2610  -21.3310   18.7420 C   0  0  0  0  0  3  0  0  0  0  0  0
  -30.8870  -20.1870   18.1770 C   0  0  0  0  0  3  0  0  0  0  0  0
  -29.2210  -19.8130   20.2720 C   0  0  0  0  0  3  0  0  0  0  0  0
  -29.3740  -21.2700   19.8360 C   0  0  0  0  0  0  0  0  0  0  0  0
  -29.8330  -18.5230   19.6850 C   0  0  0  0  0  0  0  0  0  0  0  0
  -30.7030  -18.8380   18.6160 C   0  0  0  0  0  0  0  0  0  0  0  0
  -32.6520  -17.9530   17.5680 C   0  0  0  0  0  1  0  0  0  0  0  0
  -31.2970  -17.7790   17.9700 O   0  0  0  0  0  0  0  0  0  0  0  0
  -28.8410  -22.7810   20.5010 C   0  0  0  0  0  2  0  0  0  0  0  0
  -28.2440  -24.3240   19.8130 C   0  0  0  0  0  2  0  0  0  0  0  0
  -28.2280  -25.8950   20.3080 O   0  0  0  0  0  0  0  0  0  0  0  0
  -24.6400  -31.8450   23.1870 C   0  0  0  0  0  0  0  0  0  0  0  0
  -27.1950  -26.9610   20.1910 C   0  0  0  0  0  0  0  0  0  0  0  0
  -23.4440  -30.4500   21.5510 C   0  0  0  0  0  3  0  0  0  0  0  0
  -24.8880  -28.8320   20.1340 C   0  0  0  0  0  0  0  0  0  0  0  0
  -26.0070  -30.6510   21.4090 C   0  0  0  0  0  2  0  0  0  0  0  0
  -26.0720  -29.2380   20.7630 C   0  0  0  0  0  0  0  0  0  0  0  0
  -27.2110  -28.3210   20.7710 C   0  0  0  0  0  3  0  0  0  0  0  0
  -25.9810  -26.7020   19.5120 C   0  0  0  0  0  3  0  0  0  0  0  0
  -24.8680  -27.5840   19.4900 C   0  0  0  0  0  3  0  0  0  0  0  0
  -23.6720  -29.7580   20.1750 C   0  0  0  0  0  2  0  0  0  0  0  0
  -24.7190  -31.0100   22.1020 N   0  0  0  0  0  0  0  0  0  0  0  0
  -23.5510  -32.1410   23.7050 O   0  0  0  0  0  0  0  0  0  0  0  0
  -22.7410  -29.4600   22.5180 C   0  0  0  0  0  0  0  0  0  0  0  0
  -21.4080  -29.3150   22.4010 N   0  0  0  0  0  0  0  0  0  0  0  0
  -23.4020  -28.8260   23.3440 O   0  0  0  0  0  0  0  0  0  0  0  0
  -20.9270  -29.8830   21.7160 H   0  0  0  0  0  0  0  0  0  0  0  0
  -18.0100  -28.1600   22.9330 C   0  0  0  0  0  0  0  0  0  0  0  0
  -20.5760  -28.3870   23.1730 C   0  0  0  0  0  3  0  0  0  0  0  0
  -20.6490  -26.9570   22.5920 C   0  0  0  0  0  2  0  0  0  0  0  0
  -19.5340  -26.6560   21.5850 C   0  0  0  0  0  2  0  0  0  0  0  0
  -18.1600  -26.8150   22.2440 C   0  0  0  0  0  2  0  0  0  0  0  0
  -19.1420  -28.9060   23.3550 C   0  0  0  0  0  0  0  0  0  0  0  0
  -18.9440  -30.1630   23.9660 C   0  0  0  0  0  3  0  0  0  0  0  0
  -17.6450  -30.6770   24.1510 C   0  0  0  0  0  3  0  0  0  0  0  0
  -16.5280  -29.9310   23.7390 C   0  0  0  0  0  3  0  0  0  0  0  0
  -16.7110  -28.6730   23.1390 C   0  0  0  0  0  3  0  0  0  0  0  0
  -25.9110  -32.4820   23.8250 C   0  0  0  0  0  3  0  0  0  0  0  0
  -25.5980  -33.8820   24.1670 N   0  0  0  0  0  0  0  0  0  0  0  0
  -25.9140  -34.9460   23.4160 C   0  0  0  0  0  0  0  0  0  0  0  0
  -26.5670  -34.8540   22.3730 O   0  0  0  0  0  0  0  0  0  0  0  0
  -25.0190  -34.0260   24.9800 H   0  0  0  0  0  0  0  0  0  0  0  0
  -24.1750  -36.7430   23.1130 C   0  0  0  0  0  1  0  0  0  0  0  0
  -25.4330  -36.3320   23.8950 C   0  0  0  0  0  3  0  0  0  0  0  0
  -27.5800  -37.2220   24.6920 C   0  0  0  0  0  1  0  0  0  0  0  0
  -26.4620  -37.3890   23.7680 N   0  0  0  0  0  0  0  0  0  0  0  0
  -26.0550  -38.3080   23.9270 H   0  0  0  0  0  0  0  0  0  0  0  0
  -26.4130  -31.7150   25.1110 C   0  0  1  0  0  0  0  0  0  0  0  0
  -25.3070  -31.4870   26.1700 C   0  0  0  0  0  1  0  0  0  0  0  0
  -26.9970  -30.3340   24.7310 C   0  0  0  0  0  1  0  0  0  0  0  0
  -27.5620  -32.5060   25.7820 C   0  0  0  0  0  1  0  0  0  0  0  0
  -29.4510  -16.8350   19.9160 C   0  0  0  0  0  3  0  0  0  0  0  0
  -30.3540  -15.3010   19.9970 C   0  0  0  0  0  0  0  0  0  0  0  0
  -30.3990  -12.7950   19.3040 C   0  0  0  0  0  2  0  0  0  0  0  0
  -29.4430  -12.5310   18.1110 C   0  0  0  0  0  2  0  0  0  0  0  0
  -28.0020  -12.2780   18.6010 C   0  0  0  0  0  2  0  0  0  0  0  0
  -27.5660  -13.2910   19.6920 C   0  0  0  0  0  3  0  0  0  0  0  0
  -28.6580  -13.4240   20.7720 C   0  0  0  0  0  2  0  0  0  0  0  0
  -29.8620  -13.9590   20.0970 N   0  0  0  0  0  0  0  0  0  0  0  0
  -31.5760  -15.3050   19.7720 O   0  0  0  0  0  0  0  0  0  0  0  0
  -25.2210  -13.8570   20.5440 C   0  0  0  0  0  0  0  0  0  0  0  0
  -24.1630  -13.0960   20.9420 C   0  0  0  0  0  0  0  0  0  0  0  0
  -24.6090  -11.7500   20.8600 C   0  0  0  0  0  0  0  0  0  0  0  0
  -26.2520  -12.9830   20.2470 N   0  0  0  0  0  0  0  0  0  0  0  0
  -25.8910  -11.6990   20.5050 N   0  0  0  0  0  0  0  0  0  0  0  0
  -23.8620  -10.5080   21.0520 C   0  0  0  0  0  0  0  0  0  0  0  0
  -24.3020   -9.5240   21.9580 C   0  0  0  0  0  3  0  0  0  0  0  0
  -23.5520   -8.3460   22.1470 C   0  0  0  0  0  3  0  0  0  0  0  0
  -22.3510   -8.1480   21.4260 C   0  0  0  0  0  0  0  0  0  0  0  0
  -21.9260   -9.1250   20.5090 C   0  0  0  0  0  3  0  0  0  0  0  0
  -22.6770  -10.2950   20.3190 C   0  0  0  0  0  3  0  0  0  0  0  0
  -21.5700   -7.0230   21.5240 O   0  0  0  0  0  0  0  0  0  0  0  0
  -21.5410   -6.2690   22.6670 C   0  0  0  0  0  0  0  0  0  0  0  0
  -21.1360   -6.8090   23.9060 C   0  0  0  0  0  3  0  0  0  0  0  0
  -21.0450   -5.9750   25.0380 C   0  0  0  0  0  3  0  0  0  0  0  0
  -21.3580   -4.6070   24.9320 C   0  0  0  0  0  0  0  0  0  0  0  0
  -21.7610   -4.0680   23.6970 C   0  0  0  0  0  3  0  0  0  0  0  0
  -21.8490   -4.8980   22.5670 C   0  0  0  0  0  0  0  0  0  0  0  0
  -22.2160   -4.3710   21.3730 F   0  0  0  0  0  0  0  0  0  0  0  0
  -21.2650   -3.8030   26.0180 F   0  0  0  0  0  0  0  0  0  0  0  0
  -22.7880  -13.6030   21.2710 C   0  0  0  0  0  0  0  0  0  0  0  0
  -22.0790  -12.9210   22.1670 N   0  0  0  0  0  0  0  0  0  0  0  0
  -22.3560  -14.6410   20.7750 O   0  0  0  0  0  0  0  0  0  0  0  0
  -22.4410  -12.0860   22.6050 H   0  0  0  0  0  0  0  0  0  0  0  0
  -21.1580  -13.2470   22.4220 H   0  0  0  0  0  0  0  0  0  0  0  0
  -25.3430  -15.2180   20.3920 N   0  0  0  0  0  0  0  0  0  0  0  0
  -24.5380  -15.8040   20.5780 H   0  0  0  0  0  0  0  0  0  0  0  0
  -26.1550  -15.7400   20.0890 H   0  0  0  0  0  0  0  0  0  0  0  0
  -26.9710  -17.5280   19.8680 C   0  0  0  0  0  1  0  0  0  0  0  0
  -28.1190  -16.8650   20.6810 C   0  0  0  0  0  2  0  0  0  0  0  0
  1  4  1  0
  2  6  1  0
  2  1  2  0
  4  3  2  0
  4  9  1  0
  5 52  1  0
  5  3  1  0
  6  5  2  0
  7  8  1  0
  8  6  1  0
 10 11  1  0
 10  9  1  0
 12 23  2  0
 13 11  1  0
 13 18  1  0
 14 22  1  0
 14 24  1  0
 15 21  1  0
 15 17  1  0
 16 22  1  0
 17 18  2  0
 17 16  1  0
 19 13  2  0
 20 19  1  0
 20 15  2  0
 21 14  1  0
 22 12  1  0
 24 26  2  0
 25 24  1  0
 27 25  1  0
 28 37  2  0
 28 33  1  0
 29 25  1  0
 29 33  1  0
 30 29  1  0
 31 32  1  0
 31 30  1  0
 32 28  1  0
 33 34  2  0
 34 35  1  0
 36 35  2  0
 37 36  1  0
 38 12  1  0
 38 39  1  0
 38 48  1  0
 39 42  1  0
 40 44  1  0
 40 39  1  0
 41 40  2  0
 44 43  1  0
 46 44  1  0
 46 47  1  0
 46 45  1  0
 48 51  1  1
 48 49  1  0
 50 48  1  0
 52 53  1  0
 52 90  1  0
 53 59  1  0
 54 59  1  0
 55 56  1  0
 55 54  1  0
 57 56  1  0
 57 64  1  0
 57 58  1  0
 59 58  1  0
 60 53  2  0
 61 62  2  0
 62 81  1  0
 63 62  1  0
 63 66  1  0
 64 65  1  0
 64 61  1  0
 65 63  2  0
 66 67  1  0
 67 68  2  0
 69 72  1  0
 69 68  1  0
 70 69  2  0
 71 70  1  0
 71 66  2  0
 72 73  1  0
 73 74  1  0
 74 75  2  0
 76 75  1  0
 76 80  1  0
 77 76  2  0
 78 73  2  0
 78 77  1  0
 79 78  1  0
 81 82  1  0
 82 85  1  0
 82 84  1  0
 83 81  2  0
 86 61  1  0
 86 87  1  0
 88 86  1  0
 89 90  1  0
M  ISO  4  10 101  11 101  52 100  53 100
M  END
>  <TORSDO>  (53) 
F 21

>  <SCORE>  (53) 
-15.530

>  <name>  (53) 
52

>  <ligand_id>  (53) 
52

>  <original_smiles>  (53) 
[H]c1c([H])c([H])c2c(c1[H])C([H])([H])C([H])([H])C([H])([H])C2([H])N([H])C(=O)C1([H])N(C(=O)C([H])(N([H])C(=O)C([H])(N([H])C([H])([H])[H])C([H])([H])[H])C(C([H])([H])[H])(C([H])([H])[H])C([H])([H])[H])C([H])([H])c2c([H])c(OC([H])([H])C([H])([H])c3c([H])c([H])c(OC([H])([H])[H])c(C([H])(C(=O)N4C([H])([H])C([H])([H])C([H])([H])C([H])(n5nc(-c6c([H])c([H])c(Oc7c([H])c([H])c(F)c([H])c7F)c([H])c6[H])c(C(=O)N([H])[H])c5N([H])[H])C4([H])[H])C([H])([H])C([H])([H])[H])c3[H])c([H])c([H])c2C1([H])[H]

>  <smiles>  (53) 
[H]c1c([H])c([H])c2c(c1[H])C([H])([H])C([H])([H])C([H])([H])C2([H])N([H])C(=O)C1([H])N(C(=O)C([H])(N([H])C(=O)C([H])(N([H])C([H])([H])[H])C([H])([H])[H])C(C([H])([H])[H])(C([H])([H])[H])C([H])([H])[H])C([H])([H])c2c([H])c(OC([H])([H])C([H])([H])c3c([H])c([H])c(OC([H])([H])[H])c(C([H])(C(=O)N4C([H])([H])C([H])([H])C([H])([H])C([H])(n5nc(-c6c([H])c([H])c(Oc7c([H])c([H])c(F)c([H])c7F)c([H])c6[H])c(C(=O)N([H])[H])c5N([H])[H])C4([H])[H])C([H])([H])C([H])([H])[H])c3[H])c([H])c([H])c2C1([H])[H]

$$$$
53:0:0
     RDKit          3D

 90 99  0  0  1  0  0  0  0  0999 V2000
  -28.3010  -22.3270   21.3630 C   0  0  0  0  0  3  0  0  0  0  0  0
  -28.0520  -23.7770   21.3420 C   0  0  0  0  0  3  0  0  0  0  0  0
  -28.9640  -22.3980   19.1370 C   0  0  0  0  0  3  0  0  0  0  0  0
  -28.8060  -21.5200   20.2730 C   0  0  0  0  0  0  0  0  0  0  0  0
  -28.7110  -23.8500   19.1050 C   0  0  0  0  0  0  0  0  0  0  0  0
  -28.2490  -24.6630   20.2180 C   0  0  0  0  0  0  0  0  0  0  0  0
  -28.9990  -24.5710   17.8030 C   0  0  0  0  0  1  0  0  0  0  0  0
  -30.5630  -15.1580   19.9500 C   0  0  0  0  0  0  0  0  0  0  0  0
  -30.3490  -12.7980   18.9900 C   0  0  0  0  0  2  0  0  0  0  0  0
  -29.3560  -12.6940   17.8120 C   0  0  0  0  0  2  0  0  0  0  0  0
  -27.9330  -12.4460   18.3410 C   0  0  0  0  0  2  0  0  0  0  0  0
  -27.5750  -13.3750   19.5290 C   0  0  0  0  0  3  0  0  0  0  0  0
  -28.6970  -13.4580   20.5870 C   0  0  0  0  0  2  0  0  0  0  0  0
  -29.8960  -13.9200   19.8780 N   0  0  0  0  0  0  0  0  0  0  0  0
  -31.7590  -15.0860   19.6310 O   0  0  0  0  0  0  0  0  0  0  0  0
  -28.3430  -18.6550   20.7310 C   0  0  0  0  0  2  0  0  0  0  0  0
  -30.0930  -19.1760   19.2330 C   0  0  0  0  0  2  0  0  0  0  0  0
  -28.9240  -17.1130   20.9180 C   0  0  0  0  0  2  0  0  0  0  0  0
  -30.7470  -17.7020   19.4910 C   0  0  0  0  0  2  0  0  0  0  0  0
  -29.3020  -19.8970   20.3960 C   0  0  0  0  0  3  0  0  0  0  0  0
  -29.9540  -16.4910   19.9800 N   0  0  0  0  0  0  0  0  0  0  0  0
  -25.2560  -13.9060   20.4500 C   0  0  0  0  0  0  0  0  0  0  0  0
  -24.2220  -13.1140   20.8630 C   0  0  0  0  0  0  0  0  0  0  0  0
  -24.6880  -11.7660   20.7590 C   0  0  0  0  0  0  0  0  0  0  0  0
  -26.2830  -13.0440   20.1150 N   0  0  0  0  0  0  0  0  0  0  0  0
  -25.9570  -11.7480   20.3670 N   0  0  0  0  0  0  0  0  0  0  0  0
  -23.9780  -10.4960   20.9540 C   0  0  0  0  0  0  0  0  0  0  0  0
  -24.4330   -9.5260   21.8750 C   0  0  0  0  0  3  0  0  0  0  0  0
  -23.7200   -8.3220   22.0600 C   0  0  0  0  0  3  0  0  0  0  0  0
  -22.5360   -8.0780   21.3240 C   0  0  0  0  0  0  0  0  0  0  0  0
  -22.1000   -9.0360   20.3920 C   0  0  0  0  0  3  0  0  0  0  0  0
  -22.8130  -10.2310   20.2050 C   0  0  0  0  0  3  0  0  0  0  0  0
  -21.7910   -6.9270   21.4180 O   0  0  0  0  0  0  0  0  0  0  0  0
  -21.7170   -6.2120   22.5870 C   0  0  0  0  0  0  0  0  0  0  0  0
  -21.2470   -6.7900   23.7860 C   0  0  0  0  0  3  0  0  0  0  0  0
  -21.1210   -6.0000   24.9470 C   0  0  0  0  0  3  0  0  0  0  0  0
  -21.4570   -4.6330   24.9090 C   0  0  0  0  0  0  0  0  0  0  0  0
  -21.9210   -4.0550   23.7130 C   0  0  0  0  0  3  0  0  0  0  0  0
  -22.0480   -4.8420   22.5550 C   0  0  0  0  0  0  0  0  0  0  0  0
  -22.4740   -4.2740   21.4020 F   0  0  0  0  0  0  0  0  0  0  0  0
  -21.3290   -3.8730   26.0210 F   0  0  0  0  0  0  0  0  0  0  0  0
  -22.8430  -13.5760   21.2320 C   0  0  0  0  0  0  0  0  0  0  0  0
  -22.1730  -12.8540   22.1220 N   0  0  0  0  0  0  0  0  0  0  0  0
  -22.3720  -14.6140   20.7670 O   0  0  0  0  0  0  0  0  0  0  0  0
  -22.5680  -12.0150   22.5210 H   0  0  0  0  0  0  0  0  0  0  0  0
  -21.2500  -13.1470   22.4120 H   0  0  0  0  0  0  0  0  0  0  0  0
  -25.3980  -15.2830   20.3010 N   0  0  0  0  0  0  0  0  0  0  0  0
  -24.6310  -15.9220   20.4780 H   0  0  0  0  0  0  0  0  0  0  0  0
  -26.2040  -15.7360   19.8900 H   0  0  0  0  0  0  0  0  0  0  0  0
  -28.2600  -26.1620   20.2480 O   0  0  0  0  0  0  0  0  0  0  0  0
  -24.6430  -31.9240   23.2520 C   0  0  0  0  0  0  0  0  0  0  0  0
  -27.1830  -27.1410   20.2380 C   0  0  0  0  0  0  0  0  0  0  0  0
  -23.4350  -30.5270   21.6190 C   0  0  0  0  0  3  0  0  0  0  0  0
  -24.8720  -28.9320   20.1940 C   0  0  0  0  0  0  0  0  0  0  0  0
  -25.9900  -30.7700   21.4510 C   0  0  0  0  0  2  0  0  0  0  0  0
  -26.0550  -29.3670   20.8060 C   0  0  0  0  0  0  0  0  0  0  0  0
  -27.2090  -28.4860   20.8090 C   0  0  0  0  0  3  0  0  0  0  0  0
  -25.9790  -26.8180   19.5830 C   0  0  0  0  0  3  0  0  0  0  0  0
  -24.8500  -27.6740   19.5660 C   0  0  0  0  0  3  0  0  0  0  0  0
  -23.6530  -29.8430   20.2410 C   0  0  0  0  0  2  0  0  0  0  0  0
  -24.7100  -31.0980   22.1610 N   0  0  0  0  0  0  0  0  0  0  0  0
  -23.5590  -32.2130   23.7830 O   0  0  0  0  0  0  0  0  0  0  0  0
  -22.7540  -29.5270   22.5880 C   0  0  0  0  0  0  0  0  0  0  0  0
  -21.4250  -29.3540   22.4630 N   0  0  0  0  0  0  0  0  0  0  0  0
  -23.4260  -28.9080   23.4180 O   0  0  0  0  0  0  0  0  0  0  0  0
  -20.9390  -29.9040   21.7690 H   0  0  0  0  0  0  0  0  0  0  0  0
  -18.0500  -28.1390   22.9650 C   0  0  0  0  0  0  0  0  0  0  0  0
  -20.6070  -28.4180   23.2380 C   0  0  0  0  0  3  0  0  0  0  0  0
  -20.7170  -26.9810   22.6760 C   0  0  0  0  0  2  0  0  0  0  0  0
  -19.6210  -26.6460   21.6600 C   0  0  0  0  0  2  0  0  0  0  0  0
  -18.2360  -26.7870   22.2990 C   0  0  0  0  0  2  0  0  0  0  0  0
  -19.1620  -28.9110   23.3930 C   0  0  0  0  0  0  0  0  0  0  0  0
  -18.9320  -30.1750   23.9780 C   0  0  0  0  0  3  0  0  0  0  0  0
  -17.6230  -30.6660   24.1400 C   0  0  0  0  0  3  0  0  0  0  0  0
  -16.5250  -29.8910   23.7290 C   0  0  0  0  0  3  0  0  0  0  0  0
  -16.7390  -28.6300   23.1450 C   0  0  0  0  0  3  0  0  0  0  0  0
  -25.9230  -32.5620   23.8740 C   0  0  0  0  0  3  0  0  0  0  0  0
  -25.6120  -33.9600   24.2120 N   0  0  0  0  0  0  0  0  0  0  0  0
  -25.9210  -35.0180   23.4500 C   0  0  0  0  0  0  0  0  0  0  0  0
  -26.5640  -34.9200   22.4030 O   0  0  0  0  0  0  0  0  0  0  0  0
  -25.0420  -34.1100   25.0320 H   0  0  0  0  0  0  0  0  0  0  0  0
  -24.1700  -36.8020   23.1600 C   0  0  0  0  0  1  0  0  0  0  0  0
  -25.4430  -36.4060   23.9250 C   0  0  0  0  0  3  0  0  0  0  0  0
  -27.5980  -37.3110   24.6770 C   0  0  0  0  0  1  0  0  0  0  0  0
  -26.4640  -37.4650   23.7710 N   0  0  0  0  0  0  0  0  0  0  0  0
  -26.0550  -38.3840   23.9270 H   0  0  0  0  0  0  0  0  0  0  0  0
  -26.4390  -31.7920   25.1540 C   0  0  1  0  0  0  0  0  0  0  0  0
  -25.3470  -31.5610   26.2240 C   0  0  0  0  0  1  0  0  0  0  0  0
  -27.0190  -30.4120   24.7700 C   0  0  0  0  0  1  0  0  0  0  0  0
  -27.5900  -32.5870   25.8150 C   0  0  0  0  0  1  0  0  0  0  0  0
  2  1  1  0
  3  4  1  0
  4  1  2  0
  5  3  2  0
  5  6  1  0
  6 50  1  0
  6  2  2  0
  7  5  1  0
  8 21  1  0
  9 14  1  0
 10 11  1  0
 10  9  1  0
 12 11  1  0
 12 25  1  0
 12 13  1  0
 14  8  1  0
 14 13  1  0
 15  8  2  0
 16 18  1  0
 17 19  1  0
 17 20  1  0
 19 21  1  0
 20  4  1  0
 20 16  1  0
 21 18  1  0
 22 23  2  0
 23 42  1  0
 24 23  1  0
 24 27  1  0
 25 26  1  0
 25 22  1  0
 26 24  2  0
 27 28  1  0
 28 29  2  0
 30 33  1  0
 30 29  1  0
 31 30  2  0
 32 31  1  0
 32 27  2  0
 33 34  1  0
 34 35  1  0
 35 36  2  0
 37 36  1  0
 37 41  1  0
 38 37  2  0
 39 34  2  0
 39 38  1  0
 40 39  1  0
 42 43  1  0
 43 46  1  0
 43 45  1  0
 44 42  2  0
 47 22  1  0
 47 48  1  0
 49 47  1  0
 51 62  2  0
 52 50  1  0
 52 57  1  0
 53 61  1  0
 53 63  1  0
 54 60  1  0
 54 56  1  0
 55 61  1  0
 56 57  2  0
 56 55  1  0
 58 52  2  0
 59 58  1  0
 59 54  2  0
 60 53  1  0
 61 51  1  0
 63 65  2  0
 64 63  1  0
 66 64  1  0
 67 76  2  0
 67 72  1  0
 68 64  1  0
 68 72  1  0
 69 68  1  0
 70 71  1  0
 70 69  1  0
 71 67  1  0
 72 73  2  0
 73 74  1  0
 75 74  2  0
 76 75  1  0
 77 51  1  0
 77 78  1  0
 77 87  1  0
 78 81  1  0
 79 83  1  0
 79 78  1  0
 80 79  2  0
 83 82  1  0
 85 83  1  0
 85 86  1  0
 85 84  1  0
 87 90  1  1
 87 88  1  0
 89 87  1  0
M  ISO  4   6 101   8 100  21 100  50 101
M  END
>  <TORSDO>  (54) 
F 16

>  <SCORE>  (54) 
-15.918

>  <name>  (54) 
53

>  <ligand_id>  (54) 
53

>  <original_smiles>  (54) 
[H]c1c([H])c([H])c2c(c1[H])C([H])([H])C([H])([H])C([H])([H])C2([H])N([H])C(=O)C1([H])N(C(=O)C([H])(N([H])C(=O)C([H])(N([H])C([H])([H])[H])C([H])([H])[H])C(C([H])([H])[H])(C([H])([H])[H])C([H])([H])[H])C([H])([H])c2c([H])c(Oc3c([H])c([H])c(C4([H])C([H])([H])C([H])([H])N(C(=O)N5C([H])([H])C([H])([H])C([H])([H])C([H])(n6nc(-c7c([H])c([H])c(Oc8c([H])c([H])c(F)c([H])c8F)c([H])c7[H])c(C(=O)N([H])[H])c6N([H])[H])C5([H])[H])C([H])([H])C4([H])[H])c([H])c3C([H])([H])[H])c([H])c([H])c2C1([H])[H]

>  <smiles>  (54) 
[H]c1c([H])c([H])c2c(c1[H])C([H])([H])C([H])([H])C([H])([H])C2([H])N([H])C(=O)C1([H])N(C(=O)C([H])(N([H])C(=O)C([H])(N([H])C([H])([H])[H])C([H])([H])[H])C(C([H])([H])[H])(C([H])([H])[H])C([H])([H])[H])C([H])([H])c2c([H])c(Oc3c([H])c([H])c(C4([H])C([H])([H])C([H])([H])N(C(=O)N5C([H])([H])C([H])([H])C([H])([H])C([H])(n6nc(-c7c([H])c([H])c(Oc8c([H])c([H])c(F)c([H])c8F)c([H])c7[H])c(C(=O)N([H])[H])c6N([H])[H])C5([H])[H])C([H])([H])C4([H])[H])c([H])c3C([H])([H])[H])c([H])c([H])c2C1([H])[H]

$$$$
54:0:0
     RDKit          3D

 97105  0  0  1  0  0  0  0  0999 V2000
  -27.5750  -20.7870   21.0050 C   0  0  0  0  0  3  0  0  0  0  0  0
  -30.2720  -20.9080   20.3300 C   0  0  0  0  0  3  0  0  0  0  0  0
  -28.3100  -21.9310   21.3540 C   0  0  0  0  0  0  0  0  0  0  0  0
  -28.1390  -19.7460   20.2450 C   0  0  0  0  0  0  0  0  0  0  0  0
  -29.6600  -22.0460   20.9420 C   0  0  0  0  0  0  0  0  0  0  0  0
  -29.5380  -19.7280   20.0020 C   0  0  0  0  0  0  0  0  0  0  0  0
  -27.5800  -23.0060   22.1430 C   0  0  0  0  0  1  0  0  0  0  0  0
  -30.2510  -18.5150   19.3420 C   0  0  0  0  0  2  0  0  0  0  0  0
  -30.9170  -17.4790   20.3210 C   0  0  0  0  0  2  0  0  0  0  0  0
  -30.2700  -16.0510   20.4960 C   0  0  0  0  0  2  0  0  0  0  0  0
  -31.0620  -14.7810   20.0190 C   0  0  0  0  0  0  0  0  0  0  0  0
  -30.7990  -12.5430   18.9910 C   0  0  0  0  0  2  0  0  0  0  0  0
  -29.8550  -12.7170   17.7820 C   0  0  0  0  0  2  0  0  0  0  0  0
  -28.3820  -12.5870   18.2230 C   0  0  0  0  0  2  0  0  0  0  0  0
  -28.0500  -13.4720   19.4530 C   0  0  0  0  0  3  0  0  0  0  0  0
  -29.1120  -13.2980   20.5620 C   0  0  0  0  0  2  0  0  0  0  0  0
  -30.4300  -13.5730   19.9770 N   0  0  0  0  0  0  0  0  0  0  0  0
  -32.2080  -14.9110   19.5810 O   0  0  0  0  0  0  0  0  0  0  0  0
  -25.6860  -14.1420   20.2180 C   0  0  0  0  0  0  0  0  0  0  0  0
  -24.6070  -13.4040   20.6110 C   0  0  0  0  0  0  0  0  0  0  0  0
  -25.0330  -12.0400   20.5790 C   0  0  0  0  0  0  0  0  0  0  0  0
  -26.7020  -13.2330   19.9610 N   0  0  0  0  0  0  0  0  0  0  0  0
  -26.3150  -11.9630   20.2460 N   0  0  0  0  0  0  0  0  0  0  0  0
  -24.2780  -10.8010   20.7900 C   0  0  0  0  0  0  0  0  0  0  0  0
  -24.6750   -9.8460   21.7520 C   0  0  0  0  0  3  0  0  0  0  0  0
  -23.9210   -8.6690   21.9470 C   0  0  0  0  0  3  0  0  0  0  0  0
  -22.7560   -8.4370   21.1760 C   0  0  0  0  0  0  0  0  0  0  0  0
  -22.3780   -9.3800   20.2040 C   0  0  0  0  0  3  0  0  0  0  0  0
  -23.1330  -10.5480   20.0080 C   0  0  0  0  0  3  0  0  0  0  0  0
  -21.9810   -7.3060   21.2750 O   0  0  0  0  0  0  0  0  0  0  0  0
  -21.8430   -6.6290   22.4610 C   0  0  0  0  0  0  0  0  0  0  0  0
  -21.3360   -7.2530   23.6210 C   0  0  0  0  0  3  0  0  0  0  0  0
  -21.1450   -6.5030   24.7990 C   0  0  0  0  0  3  0  0  0  0  0  0
  -21.4520   -5.1300   24.8170 C   0  0  0  0  0  0  0  0  0  0  0  0
  -21.9530   -4.5050   23.6610 C   0  0  0  0  0  3  0  0  0  0  0  0
  -22.1440   -5.2510   22.4850 C   0  0  0  0  0  0  0  0  0  0  0  0
  -22.6070   -4.6410   21.3680 F   0  0  0  0  0  0  0  0  0  0  0  0
  -21.2590   -4.4050   25.9440 F   0  0  0  0  0  0  0  0  0  0  0  0
  -23.2270  -13.9230   20.9030 C   0  0  0  0  0  0  0  0  0  0  0  0
  -22.4990  -13.2690   21.7990 N   0  0  0  0  0  0  0  0  0  0  0  0
  -22.8030  -14.9470   20.3670 O   0  0  0  0  0  0  0  0  0  0  0  0
  -22.8510  -12.4370   22.2490 H   0  0  0  0  0  0  0  0  0  0  0  0
  -21.5780  -13.6060   22.0400 H   0  0  0  0  0  0  0  0  0  0  0  0
  -25.8820  -15.5060   20.0300 N   0  0  0  0  0  0  0  0  0  0  0  0
  -25.1210  -16.1670   20.1390 H   0  0  0  0  0  0  0  0  0  0  0  0
  -26.7250  -15.9130   19.6520 H   0  0  0  0  0  0  0  0  0  0  0  0
  -30.4800  -23.3240   21.2260 C   0  0  0  0  0  2  0  0  0  0  0  0
  -30.1840  -24.6120   20.3830 C   0  0  0  0  0  2  0  0  0  0  0  0
  -29.0160  -25.5370   20.8300 C   0  0  0  0  0  2  0  0  0  0  0  0
  -29.0710  -26.8490   20.2210 O   0  0  0  0  0  0  0  0  0  0  0  0
  -24.9000  -31.8080   23.2430 C   0  0  0  0  0  0  0  0  0  0  0  0
  -27.8790  -27.5500   20.1930 C   0  0  0  0  0  0  0  0  0  0  0  0
  -23.8390  -30.4040   21.5100 C   0  0  0  0  0  3  0  0  0  0  0  0
  -25.4230  -28.9640   20.1180 C   0  0  0  0  0  0  0  0  0  0  0  0
  -26.3530  -30.8690   21.4420 C   0  0  0  0  0  2  0  0  0  0  0  0
  -26.5280  -29.5170   20.7780 C   0  0  0  0  0  0  0  0  0  0  0  0
  -27.7600  -28.8200   20.8050 C   0  0  0  0  0  3  0  0  0  0  0  0
  -26.7600  -27.0220   19.5140 C   0  0  0  0  0  3  0  0  0  0  0  0
  -25.5370  -27.7200   19.4740 C   0  0  0  0  0  3  0  0  0  0  0  0
  -24.1410  -29.7700   20.1260 C   0  0  0  0  0  2  0  0  0  0  0  0
  -25.0470  -31.0430   22.1240 N   0  0  0  0  0  0  0  0  0  0  0  0
  -23.7830  -32.0220   23.7320 O   0  0  0  0  0  0  0  0  0  0  0  0
  -23.1840  -29.3330   22.4150 C   0  0  0  0  0  0  0  0  0  0  0  0
  -21.8660  -29.1400   22.2480 N   0  0  0  0  0  0  0  0  0  0  0  0
  -23.8600  -28.6800   23.2140 O   0  0  0  0  0  0  0  0  0  0  0  0
  -21.3810  -29.7340   21.5900 H   0  0  0  0  0  0  0  0  0  0  0  0
  -18.4900  -27.9000   22.6670 C   0  0  0  0  0  0  0  0  0  0  0  0
  -21.0500  -28.1300   22.9200 C   0  0  0  0  0  3  0  0  0  0  0  0
  -21.1540  -26.7690   22.1870 C   0  0  0  0  0  2  0  0  0  0  0  0
  -20.0170  -26.5170   21.1980 C   0  0  0  0  0  2  0  0  0  0  0  0
  -18.6600  -26.6010   21.8990 C   0  0  0  0  0  2  0  0  0  0  0  0
  -19.6150  -28.6240   23.1370 C   0  0  0  0  0  0  0  0  0  0  0  0
  -19.4080  -29.8410   23.8220 C   0  0  0  0  0  3  0  0  0  0  0  0
  -18.1070  -30.3360   24.0330 C   0  0  0  0  0  3  0  0  0  0  0  0
  -16.9960  -29.6100   23.5700 C   0  0  0  0  0  3  0  0  0  0  0  0
  -17.1860  -28.3900   22.8960 C   0  0  0  0  0  3  0  0  0  0  0  0
  -26.1240  -32.4740   23.9460 C   0  0  0  0  0  3  0  0  0  0  0  0
  -26.6180  -31.6790   25.2150 C   0  0  1  0  0  0  0  0  0  0  0  0
  -25.4880  -31.3110   26.2040 C   0  0  0  0  0  1  0  0  0  0  0  0
  -27.3140  -30.3650   24.7920 C   0  0  0  0  0  1  0  0  0  0  0  0
  -27.6700  -32.5180   25.9810 C   0  0  0  0  0  1  0  0  0  0  0  0
  -25.7320  -33.8430   24.3090 N   0  0  0  0  0  0  0  0  0  0  0  0
  -26.0580  -34.9380   23.6120 C   0  0  0  0  0  0  0  0  0  0  0  0
  -26.7900  -34.9040   22.6180 O   0  0  0  0  0  0  0  0  0  0  0  0
  -25.0770  -33.9350   25.0730 H   0  0  0  0  0  0  0  0  0  0  0  0
  -24.2780  -36.6710   23.2150 C   0  0  0  0  0  1  0  0  0  0  0  0
  -25.4810  -36.2860   24.0900 C   0  0  0  0  0  3  0  0  0  0  0  0
  -27.5220  -37.2150   25.0930 C   0  0  0  0  0  1  0  0  0  0  0  0
  -26.4730  -37.3830   24.0890 N   0  0  0  0  0  0  0  0  0  0  0  0
  -26.0220  -38.2810   24.2490 H   0  0  0  0  0  0  0  0  0  0  0  0
  -27.1640  -18.7600   19.6150 C   0  0  0  0  0  2  0  0  0  0  0  0
  -26.5090  -19.3650   18.3410 C   0  0  0  0  0  2  0  0  0  0  0  0
  -25.6890  -20.6490   18.5940 C   0  0  0  0  0  2  0  0  0  0  0  0
  -25.1930  -21.3720   17.3380 C   0  0  0  0  0  2  0  0  0  0  0  0
  -24.3900  -22.6250   17.7190 C   0  0  0  0  0  2  0  0  0  0  0  0
  -23.5090  -24.8920   16.9840 C   0  0  0  0  0  1  0  0  0  0  0  0
  -24.4390  -23.7220   16.6490 C   0  0  0  0  0  2  0  0  0  0  0  0
  1  3  1  0
  2  5  1  0
  3  7  1  0
  4  1  2  0
  5 47  1  0
  5  3  2  0
  6  4  1  0
  6  2  2  0
  8  6  1  0
  8  9  1  0
  9 10  1  0
 11 10  1  0
 12 17  1  0
 13 14  1  0
 13 12  1  0
 15 14  1  0
 15 22  1  0
 15 16  1  0
 17 11  1  0
 17 16  1  0
 18 11  2  0
 19 20  2  0
 20 39  1  0
 21 20  1  0
 21 24  1  0
 22 19  1  0
 22 23  1  0
 23 21  2  0
 24 25  1  0
 25 26  2  0
 27 30  1  0
 27 26  1  0
 28 27  2  0
 29 28  1  0
 29 24  2  0
 30 31  1  0
 31 36  2  0
 31 32  1  0
 32 33  2  0
 33 34  1  0
 34 38  1  0
 35 34  2  0
 36 35  1  0
 37 36  1  0
 39 40  1  0
 40 43  1  0
 40 42  1  0
 41 39  2  0
 44 45  1  0
 44 19  1  0
 46 44  1  0
 48 49  1  0
 48 47  1  0
 50 49  1  0
 51 62  2  0
 52 50  1  0
 52 57  1  0
 53 61  1  0
 53 63  1  0
 54 60  1  0
 54 56  1  0
 55 61  1  0
 56 57  2  0
 56 55  1  0
 58 52  2  0
 59 58  1  0
 59 54  2  0
 60 53  1  0
 61 51  1  0
 63 65  2  0
 64 63  1  0
 66 64  1  0
 67 76  2  0
 67 72  1  0
 68 64  1  0
 68 72  1  0
 69 68  1  0
 70 71  1  0
 70 69  1  0
 71 67  1  0
 72 73  2  0
 73 74  1  0
 75 74  2  0
 76 75  1  0
 77 51  1  0
 77 82  1  0
 77 78  1  0
 78 81  1  1
 78 79  1  0
 80 78  1  0
 82 85  1  0
 83 87  1  0
 83 82  1  0
 84 83  2  0
 87 86  1  0
 89 87  1  0
 89 90  1  0
 89 88  1  0
 91  4  1  0
 92 93  1  0
 92 91  1  0
 94 95  1  0
 94 93  1  0
 97 96  1  0
 97 95  1  0
M  ISO  4  10 100  11 100  49 101  50 101
M  END
>  <TORSDO>  (55) 
F 28

>  <SCORE>  (55) 
-10.128

>  <name>  (55) 
54

>  <ligand_id>  (55) 
54

>  <original_smiles>  (55) 
[H]c1c([H])c([H])c2c(c1[H])C([H])([H])C([H])([H])C([H])([H])C2([H])N([H])C(=O)C1([H])N(C(=O)C([H])(N([H])C(=O)C([H])(N([H])C([H])([H])[H])C([H])([H])[H])C(C([H])([H])[H])(C([H])([H])[H])C([H])([H])[H])C([H])([H])c2c([H])c(OC([H])([H])C([H])([H])C([H])([H])c3c([H])c(C([H])([H])C([H])([H])C([H])([H])C(=O)N4C([H])([H])C([H])([H])C([H])([H])C([H])(n5nc(-c6c([H])c([H])c(Oc7c([H])c([H])c(F)c([H])c7F)c([H])c6[H])c(C(=O)N([H])[H])c5N([H])[H])C4([H])[H])c(C([H])([H])C([H])([H])C([H])([H])C([H])([H])C([H])([H])C([H])([H])C([H])([H])[H])c([H])c3C([H])([H])[H])c([H])c([H])c2C1([H])[H]

>  <smiles>  (55) 
[H]c1c([H])c([H])c2c(c1[H])C([H])([H])C([H])([H])C([H])([H])C2([H])N([H])C(=O)C1([H])N(C(=O)C([H])(N([H])C(=O)C([H])(N([H])C([H])([H])[H])C([H])([H])[H])C(C([H])([H])[H])(C([H])([H])[H])C([H])([H])[H])C([H])([H])c2c([H])c(OC([H])([H])C([H])([H])C([H])([H])c3c([H])c(C([H])([H])C([H])([H])C([H])([H])C(=O)N4C([H])([H])C([H])([H])C([H])([H])C([H])(n5nc(-c6c([H])c([H])c(Oc7c([H])c([H])c(F)c([H])c7F)c([H])c6[H])c(C(=O)N([H])[H])c5N([H])[H])C4([H])[H])c(C([H])([H])C([H])([H])C([H])([H])C([H])([H])C([H])([H])C([H])([H])C([H])([H])[H])c([H])c3C([H])([H])[H])c([H])c([H])c2C1([H])[H]

$$$$
55:0:0
     RDKit          3D

 92100  0  0  1  0  0  0  0  0999 V2000
  -28.2950  -23.8990   20.2400 C   0  0  0  0  0  3  0  0  0  0  0  0
  -30.3810  -24.2290   22.0420 C   0  0  0  0  0  3  0  0  0  0  0  0
  -28.9450  -22.6940   20.7500 C   0  0  0  0  0  0  0  0  0  0  0  0
  -28.6760  -25.2500   20.6180 C   0  0  0  0  0  0  0  0  0  0  0  0
  -30.0380  -22.9120   21.6430 C   0  0  0  0  0  0  0  0  0  0  0  0
  -29.7140  -25.3610   21.5540 C   0  0  0  0  0  0  0  0  0  0  0  0
  -30.1380  -26.5920   21.9370 F   0  0  0  0  0  0  0  0  0  0  0  0
  -32.1740  -21.9290   22.1100 C   0  0  0  0  0  1  0  0  0  0  0  0
  -30.7490  -21.8470   22.1450 O   0  0  0  0  0  0  0  0  0  0  0  0
  -28.3480  -26.4760   19.9850 O   0  0  0  0  0  0  0  0  0  0  0  0
  -24.5860  -31.8430   23.1930 C   0  0  0  0  0  0  0  0  0  0  0  0
  -27.2010  -27.2570   20.1600 C   0  0  0  0  0  0  0  0  0  0  0  0
  -23.3900  -30.4450   21.5450 C   0  0  0  0  0  3  0  0  0  0  0  0
  -24.8420  -28.8770   20.1410 C   0  0  0  0  0  0  0  0  0  0  0  0
  -25.9310  -30.7520   21.3810 C   0  0  0  0  0  2  0  0  0  0  0  0
  -26.0080  -29.3660   20.7430 C   0  0  0  0  0  0  0  0  0  0  0  0
  -27.1930  -28.5690   20.7390 C   0  0  0  0  0  3  0  0  0  0  0  0
  -26.0100  -26.8120   19.5550 C   0  0  0  0  0  3  0  0  0  0  0  0
  -24.8430  -27.6060   19.5400 C   0  0  0  0  0  3  0  0  0  0  0  0
  -23.6120  -29.7600   20.1700 C   0  0  0  0  0  2  0  0  0  0  0  0
  -24.6550  -31.0330   22.0950 N   0  0  0  0  0  0  0  0  0  0  0  0
  -23.5000  -32.1210   23.7190 O   0  0  0  0  0  0  0  0  0  0  0  0
  -22.7210  -29.4320   22.5050 C   0  0  0  0  0  0  0  0  0  0  0  0
  -21.3930  -29.2700   22.3820 N   0  0  0  0  0  0  0  0  0  0  0  0
  -23.3980  -28.7950   23.3140 O   0  0  0  0  0  0  0  0  0  0  0  0
  -20.9040  -29.8380   21.7050 H   0  0  0  0  0  0  0  0  0  0  0  0
  -18.0080  -28.1110   22.9050 C   0  0  0  0  0  0  0  0  0  0  0  0
  -20.5710  -28.3340   23.1520 C   0  0  0  0  0  3  0  0  0  0  0  0
  -20.6480  -26.9090   22.5580 C   0  0  0  0  0  2  0  0  0  0  0  0
  -19.5320  -26.6100   21.5520 C   0  0  0  0  0  2  0  0  0  0  0  0
  -18.1590  -26.7670   22.2120 C   0  0  0  0  0  2  0  0  0  0  0  0
  -19.1400  -28.8530   23.3320 C   0  0  0  0  0  0  0  0  0  0  0  0
  -18.9440  -30.1120   23.9420 C   0  0  0  0  0  3  0  0  0  0  0  0
  -17.6480  -30.6280   24.1310 C   0  0  0  0  0  3  0  0  0  0  0  0
  -16.5300  -29.8840   23.7160 C   0  0  0  0  0  3  0  0  0  0  0  0
  -16.7100  -28.6260   23.1100 C   0  0  0  0  0  3  0  0  0  0  0  0
  -25.8640  -32.4750   23.8230 C   0  0  0  0  0  3  0  0  0  0  0  0
  -25.5530  -33.8710   24.1590 N   0  0  0  0  0  0  0  0  0  0  0  0
  -25.8880  -34.9290   23.4110 C   0  0  0  0  0  0  0  0  0  0  0  0
  -26.5560  -34.8340   22.3790 O   0  0  0  0  0  0  0  0  0  0  0  0
  -24.9550  -34.0210   24.9570 H   0  0  0  0  0  0  0  0  0  0  0  0
  -24.1540  -36.7250   23.0730 C   0  0  0  0  0  1  0  0  0  0  0  0
  -25.3980  -36.3130   23.8780 C   0  0  0  0  0  3  0  0  0  0  0  0
  -27.5310  -37.1960   24.7130 C   0  0  0  0  0  1  0  0  0  0  0  0
  -26.4260  -37.3710   23.7760 N   0  0  0  0  0  0  0  0  0  0  0  0
  -26.0150  -38.2870   23.9430 H   0  0  0  0  0  0  0  0  0  0  0  0
  -26.3780  -31.7010   25.1010 C   0  0  1  0  0  0  0  0  0  0  0  0
  -25.2800  -31.4580   26.1640 C   0  0  0  0  0  1  0  0  0  0  0  0
  -26.9680  -30.3270   24.7070 C   0  0  0  0  0  1  0  0  0  0  0  0
  -27.5250  -32.4950   25.7700 C   0  0  0  0  0  1  0  0  0  0  0  0
  -28.4730  -21.2070   20.3590 C   0  0  0  0  0  3  0  0  0  0  0  0
  -29.4750  -19.9240   20.4080 C   0  0  0  0  0  3  0  0  0  0  0  0
  -29.0090  -18.3950   20.1680 C   0  0  0  0  0  3  0  0  0  0  0  0
  -30.1110  -17.2400   20.4270 C   0  0  0  0  0  3  0  0  0  0  0  0
  -30.5230  -14.6600   20.2000 C   0  0  0  0  0  0  0  0  0  0  0  0
  -30.3090  -12.3880   19.1950 C   0  0  0  0  0  2  0  0  0  0  0  0
  -29.3560  -12.4900   17.9850 C   0  0  0  0  0  2  0  0  0  0  0  0
  -27.8790  -12.3690   18.4170 C   0  0  0  0  0  2  0  0  0  0  0  0
  -27.5350  -13.2290   19.6670 C   0  0  0  0  0  3  0  0  0  0  0  0
  -28.6150  -13.0900   20.7640 C   0  0  0  0  0  2  0  0  0  0  0  0
  -29.9000  -13.4390   20.1480 N   0  0  0  0  0  0  0  0  0  0  0  0
  -31.7130  -14.7780   19.8910 O   0  0  0  0  0  0  0  0  0  0  0  0
  -29.7190  -15.7690   20.3870 N   0  0  0  0  0  0  0  0  0  0  0  0
  -28.7400  -15.5610   20.5070 H   0  0  0  0  0  0  0  0  0  0  0  0
  -25.1560  -13.8180   20.4180 C   0  0  0  0  0  0  0  0  0  0  0  0
  -24.1010  -13.0400   20.8090 C   0  0  0  0  0  0  0  0  0  0  0  0
  -24.5660  -11.6920   20.7690 C   0  0  0  0  0  0  0  0  0  0  0  0
  -26.1990  -12.9410   20.1740 N   0  0  0  0  0  0  0  0  0  0  0  0
  -25.8530  -11.6560   20.4500 N   0  0  0  0  0  0  0  0  0  0  0  0
  -23.8380  -10.4300   20.9690 C   0  0  0  0  0  0  0  0  0  0  0  0
  -24.2750   -9.4760   21.9140 C   0  0  0  0  0  3  0  0  0  0  0  0
  -23.5540   -8.2790   22.1050 C   0  0  0  0  0  3  0  0  0  0  0  0
  -22.3810   -8.0260   21.3520 C   0  0  0  0  0  0  0  0  0  0  0  0
  -21.9660   -8.9680   20.3940 C   0  0  0  0  0  3  0  0  0  0  0  0
  -22.6890  -10.1590   20.2000 C   0  0  0  0  0  3  0  0  0  0  0  0
  -21.6310   -6.8810   21.4520 O   0  0  0  0  0  0  0  0  0  0  0  0
  -21.5740   -6.1540   22.6130 C   0  0  0  0  0  0  0  0  0  0  0  0
  -21.1290   -6.7220   23.8270 C   0  0  0  0  0  3  0  0  0  0  0  0
  -21.0210   -5.9190   24.9810 C   0  0  0  0  0  3  0  0  0  0  0  0
  -21.3520   -4.5520   24.9210 C   0  0  0  0  0  0  0  0  0  0  0  0
  -21.7910   -3.9860   23.7120 C   0  0  0  0  0  3  0  0  0  0  0  0
  -21.8980   -4.7840   22.5620 C   0  0  0  0  0  0  0  0  0  0  0  0
  -22.3000   -4.2280   21.3940 F   0  0  0  0  0  0  0  0  0  0  0  0
  -21.2400   -3.7800   26.0260 F   0  0  0  0  0  0  0  0  0  0  0  0
  -22.7050  -13.5130   21.0910 C   0  0  0  0  0  0  0  0  0  0  0  0
  -21.9940  -12.8220   21.9740 N   0  0  0  0  0  0  0  0  0  0  0  0
  -22.2550  -14.5300   20.5660 O   0  0  0  0  0  0  0  0  0  0  0  0
  -22.3690  -12.0000   22.4200 H   0  0  0  0  0  0  0  0  0  0  0  0
  -21.0540  -13.1110   22.2050 H   0  0  0  0  0  0  0  0  0  0  0  0
  -25.3000  -15.1900   20.2290 N   0  0  0  0  0  0  0  0  0  0  0  0
  -24.5140  -15.8200   20.3630 H   0  0  0  0  0  0  0  0  0  0  0  0
  -26.1110  -15.6540   19.8430 H   0  0  0  0  0  0  0  0  0  0  0  0
  1  4  2  0
  1  3  1  0
  3  5  2  0
  4  6  1  0
  5  2  1  0
  5  9  1  0
  6  7  1  0
  6  2  2  0
  8  9  1  0
 10 12  1  0
 10  4  1  0
 11 22  2  0
 12 17  1  0
 13 21  1  0
 13 23  1  0
 14 20  1  0
 14 16  1  0
 15 21  1  0
 16 15  1  0
 17 16  2  0
 18 12  2  0
 19 18  1  0
 19 14  2  0
 20 13  1  0
 21 11  1  0
 23 25  2  0
 24 23  1  0
 26 24  1  0
 27 36  2  0
 27 32  1  0
 28 24  1  0
 28 32  1  0
 29 28  1  0
 30 31  1  0
 30 29  1  0
 31 27  1  0
 32 33  2  0
 33 34  1  0
 35 34  2  0
 36 35  1  0
 37 11  1  0
 37 38  1  0
 37 47  1  0
 38 41  1  0
 39 43  1  0
 39 38  1  0
 40 39  2  0
 43 42  1  0
 45 43  1  0
 45 46  1  0
 45 44  1  0
 47 50  1  1
 47 48  1  0
 49 47  1  0
 51 52  2  0
 51  3  1  0
 53 52  1  0
 53 54  2  0
 55 63  1  0
 56 61  1  0
 57 58  1  0
 57 56  1  0
 59 58  1  0
 59 68  1  0
 59 60  1  0
 61 55  1  0
 61 60  1  0
 62 55  2  0
 63 54  1  0
 63 64  1  0
 65 66  2  0
 66 85  1  0
 67 66  1  0
 67 70  1  0
 68 65  1  0
 68 69  1  0
 69 67  2  0
 70 71  1  0
 71 72  2  0
 73 76  1  0
 73 72  1  0
 74 73  2  0
 75 74  1  0
 75 70  2  0
 76 77  1  0
 77 78  1  0
 78 79  2  0
 80 79  1  0
 80 84  1  0
 81 80  2  0
 82 77  2  0
 82 81  1  0
 83 82  1  0
 85 86  1  0
 86 89  1  0
 86 88  1  0
 87 85  2  0
 90 91  1  0
 90 65  1  0
 92 90  1  0
M  ISO  4   4 101  10 101  55 100  63 100
M  END
>  <TORSDO>  (56) 
F 21

>  <SCORE>  (56) 
-13.116

>  <name>  (56) 
55

>  <ligand_id>  (56) 
55

>  <original_smiles>  (56) 
[H]c1c([H])c([H])c2c(c1[H])C([H])([H])C([H])([H])C([H])([H])C2([H])N([H])C(=O)C1([H])N(C(=O)C([H])(N([H])C(=O)C([H])(N([H])C([H])([H])[H])C([H])([H])[H])C(C([H])([H])[H])(C([H])([H])[H])C([H])([H])[H])C([H])([H])c2c([H])c(Oc3c([H])c(C([H])([H])C([H])([H])C([H])([H])C([H])([H])N([H])C(=O)N4C([H])([H])C([H])([H])C([H])([H])C([H])(n5nc(-c6c([H])c([H])c(Oc7c([H])c([H])c(F)c([H])c7F)c([H])c6[H])c(C(=O)N([H])[H])c5N([H])[H])C4([H])[H])c(OC([H])([H])[H])c([H])c3F)c([H])c([H])c2C1([H])[H]

>  <smiles>  (56) 
[H]c1c([H])c([H])c2c(c1[H])C([H])([H])C([H])([H])C([H])([H])C2([H])N([H])C(=O)C1([H])N(C(=O)C([H])(N([H])C(=O)C([H])(N([H])C([H])([H])[H])C([H])([H])[H])C(C([H])([H])[H])(C([H])([H])[H])C([H])([H])[H])C([H])([H])c2c([H])c(Oc3c([H])c(C([H])([H])C([H])([H])C([H])([H])C([H])([H])N([H])C(=O)N4C([H])([H])C([H])([H])C([H])([H])C([H])(n5nc(-c6c([H])c([H])c(Oc7c([H])c([H])c(F)c([H])c7F)c([H])c6[H])c(C(=O)N([H])[H])c5N([H])[H])C4([H])[H])c(OC([H])([H])[H])c([H])c3F)c([H])c([H])c2C1([H])[H]

$$$$
56:0:0
     RDKit          3D

 88 96  0  0  1  0  0  0  0  0999 V2000
  -28.6010  -22.6230   21.0900 C   0  0  0  0  0  3  0  0  0  0  0  0
  -28.2710  -24.0340   21.1860 C   0  0  0  0  0  3  0  0  0  0  0  0
  -28.8820  -24.3440   18.9210 C   0  0  0  0  0  3  0  0  0  0  0  0
  -29.1140  -22.0090   19.9030 C   0  0  0  0  0  0  0  0  0  0  0  0
  -29.2270  -22.9470   18.8170 C   0  0  0  0  0  0  0  0  0  0  0  0
  -28.4070  -24.9690   20.1060 C   0  0  0  0  0  0  0  0  0  0  0  0
  -29.7930  -22.4890   17.4810 C   0  0  0  0  0  1  0  0  0  0  0  0
  -28.3470  -26.4100   20.2140 O   0  0  0  0  0  0  0  0  0  0  0  0
  -24.6030  -31.8870   23.2280 C   0  0  0  0  0  0  0  0  0  0  0  0
  -27.2060  -27.2550   20.1920 C   0  0  0  0  0  0  0  0  0  0  0  0
  -23.3970  -30.4830   21.5920 C   0  0  0  0  0  3  0  0  0  0  0  0
  -24.8460  -28.9110   20.1680 C   0  0  0  0  0  0  0  0  0  0  0  0
  -25.9400  -30.7810   21.4100 C   0  0  0  0  0  2  0  0  0  0  0  0
  -26.0160  -29.3920   20.7680 C   0  0  0  0  0  0  0  0  0  0  0  0
  -27.1940  -28.5770   20.7650 C   0  0  0  0  0  3  0  0  0  0  0  0
  -26.0140  -26.8390   19.5650 C   0  0  0  0  0  3  0  0  0  0  0  0
  -24.8500  -27.6450   19.5560 C   0  0  0  0  0  3  0  0  0  0  0  0
  -23.6110  -29.7960   20.2160 C   0  0  0  0  0  2  0  0  0  0  0  0
  -24.6660  -31.0730   22.1320 N   0  0  0  0  0  0  0  0  0  0  0  0
  -23.5200  -32.1680   23.7620 O   0  0  0  0  0  0  0  0  0  0  0  0
  -22.7310  -29.4770   22.5600 C   0  0  0  0  0  0  0  0  0  0  0  0
  -21.4040  -29.3000   22.4340 N   0  0  0  0  0  0  0  0  0  0  0  0
  -23.4080  -28.8560   23.3840 O   0  0  0  0  0  0  0  0  0  0  0  0
  -20.9170  -29.8520   21.7430 H   0  0  0  0  0  0  0  0  0  0  0  0
  -18.0280  -28.0950   22.9350 C   0  0  0  0  0  0  0  0  0  0  0  0
  -20.5860  -28.3650   23.2080 C   0  0  0  0  0  3  0  0  0  0  0  0
  -20.6930  -26.9300   22.6400 C   0  0  0  0  0  2  0  0  0  0  0  0
  -19.5940  -26.6000   21.6250 C   0  0  0  0  0  2  0  0  0  0  0  0
  -18.2100  -26.7430   22.2650 C   0  0  0  0  0  2  0  0  0  0  0  0
  -19.1420  -28.8640   23.3630 C   0  0  0  0  0  0  0  0  0  0  0  0
  -18.9170  -30.1280   23.9500 C   0  0  0  0  0  3  0  0  0  0  0  0
  -17.6100  -30.6230   24.1120 C   0  0  0  0  0  3  0  0  0  0  0  0
  -16.5100  -29.8520   23.7000 C   0  0  0  0  0  3  0  0  0  0  0  0
  -16.7200  -28.5890   23.1170 C   0  0  0  0  0  3  0  0  0  0  0  0
  -25.8860  -32.5220   23.8490 C   0  0  0  0  0  3  0  0  0  0  0  0
  -26.4020  -31.7540   25.1280 C   0  0  1  0  0  0  0  0  0  0  0  0
  -25.3100  -31.5210   26.1970 C   0  0  0  0  0  1  0  0  0  0  0  0
  -26.9830  -30.3730   24.7420 C   0  0  0  0  0  1  0  0  0  0  0  0
  -27.5540  -32.5480   25.7860 C   0  0  0  0  0  1  0  0  0  0  0  0
  -25.5740  -33.9220   24.1810 N   0  0  0  0  0  0  0  0  0  0  0  0
  -25.9060  -34.9770   23.4260 C   0  0  0  0  0  0  0  0  0  0  0  0
  -26.5730  -34.8750   22.3930 O   0  0  0  0  0  0  0  0  0  0  0  0
  -24.9790  -34.0730   24.9830 H   0  0  0  0  0  0  0  0  0  0  0  0
  -24.1780  -36.7740   23.0830 C   0  0  0  0  0  1  0  0  0  0  0  0
  -25.4220  -36.3650   23.8880 C   0  0  0  0  0  3  0  0  0  0  0  0
  -27.5610  -37.2480   24.7120 C   0  0  0  0  0  1  0  0  0  0  0  0
  -26.4550  -37.4190   23.7730 N   0  0  0  0  0  0  0  0  0  0  0  0
  -26.0510  -38.3390   23.9220 H   0  0  0  0  0  0  0  0  0  0  0  0
  -29.6820  -20.4870   19.7320 C   0  0  0  0  0  3  0  0  0  0  0  0
  -29.3530  -19.1130   20.5620 C   0  0  0  0  0  3  0  0  0  0  0  0
  -30.1000  -17.7000   20.1210 C   0  0  0  0  0  3  0  0  0  0  0  0
  -29.7820  -16.2180   20.7710 C   0  0  0  0  0  3  0  0  0  0  0  0
  -30.5810  -14.8580   20.3530 C   0  0  0  0  0  0  0  0  0  0  0  0
  -30.4380  -12.5580   19.3390 C   0  0  0  0  0  2  0  0  0  0  0  0
  -29.5040  -12.6200   18.1070 C   0  0  0  0  0  2  0  0  0  0  0  0
  -28.0330  -12.4330   18.5250 C   0  0  0  0  0  2  0  0  0  0  0  0
  -27.6480  -13.3100   19.7440 C   0  0  0  0  0  3  0  0  0  0  0  0
  -28.7000  -13.2300   20.8700 C   0  0  0  0  0  2  0  0  0  0  0  0
  -29.9960  -13.6050   20.2930 N   0  0  0  0  0  0  0  0  0  0  0  0
  -31.7530  -14.9660   19.9780 O   0  0  0  0  0  0  0  0  0  0  0  0
  -25.2530  -13.8900   20.4550 C   0  0  0  0  0  0  0  0  0  0  0  0
  -24.1890  -13.1150   20.8220 C   0  0  0  0  0  0  0  0  0  0  0  0
  -24.6590  -11.7650   20.8040 C   0  0  0  0  0  0  0  0  0  0  0  0
  -26.3020  -13.0150   20.2290 N   0  0  0  0  0  0  0  0  0  0  0  0
  -25.9520  -11.7330   20.5040 N   0  0  0  0  0  0  0  0  0  0  0  0
  -23.9360  -10.5020   21.0000 C   0  0  0  0  0  0  0  0  0  0  0  0
  -24.3660   -9.5420   21.9430 C   0  0  0  0  0  3  0  0  0  0  0  0
  -23.6440   -8.3430   22.1250 C   0  0  0  0  0  3  0  0  0  0  0  0
  -22.4770   -8.0960   21.3640 C   0  0  0  0  0  0  0  0  0  0  0  0
  -22.0660   -9.0430   20.4090 C   0  0  0  0  0  3  0  0  0  0  0  0
  -22.7890  -10.2340   20.2260 C   0  0  0  0  0  3  0  0  0  0  0  0
  -21.7260   -6.9480   21.4540 O   0  0  0  0  0  0  0  0  0  0  0  0
  -21.6700   -6.2130   22.6110 C   0  0  0  0  0  0  0  0  0  0  0  0
  -21.2350   -6.7750   23.8310 C   0  0  0  0  0  3  0  0  0  0  0  0
  -21.1280   -5.9660   24.9800 C   0  0  0  0  0  3  0  0  0  0  0  0
  -21.4460   -4.5970   24.9100 C   0  0  0  0  0  0  0  0  0  0  0  0
  -21.8730   -4.0340   23.6950 C   0  0  0  0  0  3  0  0  0  0  0  0
  -21.9820   -4.8400   22.5480 C   0  0  0  0  0  0  0  0  0  0  0  0
  -22.3760   -4.2870   21.3750 F   0  0  0  0  0  0  0  0  0  0  0  0
  -21.3350   -3.8180   26.0130 F   0  0  0  0  0  0  0  0  0  0  0  0
  -22.7870  -13.5870   21.0800 C   0  0  0  0  0  0  0  0  0  0  0  0
  -22.0560  -12.8920   21.9450 N   0  0  0  0  0  0  0  0  0  0  0  0
  -22.3480  -14.6070   20.5500 O   0  0  0  0  0  0  0  0  0  0  0  0
  -22.4250  -12.0680   22.3960 H   0  0  0  0  0  0  0  0  0  0  0  0
  -21.1150  -13.1890   22.1600 H   0  0  0  0  0  0  0  0  0  0  0  0
  -25.4130  -15.2610   20.2710 N   0  0  0  0  0  0  0  0  0  0  0  0
  -24.6450  -15.9150   20.3750 H   0  0  0  0  0  0  0  0  0  0  0  0
  -26.2670  -15.7010   19.9530 H   0  0  0  0  0  0  0  0  0  0  0  0
  1  2  1  0
  3  6  1  0
  4  1  2  0
  5  3  2  0
  5  4  1  0
  6  8  1  0
  6  2  2  0
  7  5  1  0
  9 20  2  0
 10  8  1  0
 10 15  1  0
 11 19  1  0
 11 21  1  0
 12 18  1  0
 12 14  1  0
 13 19  1  0
 14 13  1  0
 15 14  2  0
 16 10  2  0
 17 16  1  0
 17 12  2  0
 18 11  1  0
 19  9  1  0
 21 23  2  0
 22 21  1  0
 24 22  1  0
 25 34  2  0
 25 30  1  0
 26 22  1  0
 26 30  1  0
 27 26  1  0
 28 29  1  0
 28 27  1  0
 29 25  1  0
 30 31  2  0
 31 32  1  0
 33 32  2  0
 34 33  1  0
 35  9  1  0
 35 40  1  0
 35 36  1  0
 36 39  1  1
 36 37  1  0
 38 36  1  0
 40 43  1  0
 41 45  1  0
 41 40  1  0
 42 41  2  0
 45 44  1  0
 47 45  1  0
 47 48  1  0
 47 46  1  0
 49  4  1  0
 49 50  2  0
 51 50  1  0
 51 52  2  0
 53 52  1  0
 54 59  1  0
 55 56  1  0
 55 54  1  0
 57 56  1  0
 57 64  1  0
 57 58  1  0
 59 53  1  0
 59 58  1  0
 60 53  2  0
 61 62  2  0
 62 81  1  0
 63 62  1  0
 63 66  1  0
 64 61  1  0
 64 65  1  0
 65 63  2  0
 66 67  1  0
 67 68  2  0
 69 72  1  0
 69 68  1  0
 70 69  2  0
 71 70  1  0
 71 66  2  0
 72 73  1  0
 73 74  1  0
 74 75  2  0
 76 75  1  0
 76 80  1  0
 77 76  2  0
 78 73  2  0
 78 77  1  0
 79 78  1  0
 81 82  1  0
 82 85  1  0
 82 84  1  0
 83 81  2  0
 86 87  1  0
 86 61  1  0
 88 86  1  0
M  ISO  4   6 101   8 101  52 100  53 100
M  END
>  <TORSDO>  (57) 
F 20

>  <SCORE>  (57) 
-13.717

>  <name>  (57) 
56

>  <ligand_id>  (57) 
56

>  <original_smiles>  (57) 
[H]c1c([H])c([H])c2c(c1[H])C([H])([H])C([H])([H])C([H])([H])C2([H])N([H])C(=O)C1([H])N(C(=O)C([H])(N([H])C(=O)C([H])(N([H])C([H])([H])[H])C([H])([H])[H])C(C([H])([H])[H])(C([H])([H])[H])C([H])([H])[H])C([H])([H])c2c([H])c(Oc3c([H])c([H])c(C([H])([H])C([H])([H])C([H])([H])C([H])([H])C(=O)N4C([H])([H])C([H])([H])C([H])([H])C([H])(n5nc(-c6c([H])c([H])c(Oc7c([H])c([H])c(F)c([H])c7F)c([H])c6[H])c(C(=O)N([H])[H])c5N([H])[H])C4([H])[H])c(C([H])([H])[H])c3[H])c([H])c([H])c2C1([H])[H]

>  <smiles>  (57) 
[H]c1c([H])c([H])c2c(c1[H])C([H])([H])C([H])([H])C([H])([H])C2([H])N([H])C(=O)C1([H])N(C(=O)C([H])(N([H])C(=O)C([H])(N([H])C([H])([H])[H])C([H])([H])[H])C(C([H])([H])[H])(C([H])([H])[H])C([H])([H])[H])C([H])([H])c2c([H])c(Oc3c([H])c([H])c(C([H])([H])C([H])([H])C([H])([H])C([H])([H])C(=O)N4C([H])([H])C([H])([H])C([H])([H])C([H])(n5nc(-c6c([H])c([H])c(Oc7c([H])c([H])c(F)c([H])c7F)c([H])c6[H])c(C(=O)N([H])[H])c5N([H])[H])C4([H])[H])c(C([H])([H])[H])c3[H])c([H])c([H])c2C1([H])[H]

$$$$
57:0:0
     RDKit          3D

 88 96  0  0  1  0  0  0  0  0999 V2000
  -29.2670  -22.3790   22.4470 C   0  0  0  0  0  3  0  0  0  0  0  0
  -29.3480  -21.1020   21.7980 C   0  0  0  0  0  3  0  0  0  0  0  0
  -28.8150  -23.6270   21.8980 C   0  0  0  0  0  3  0  0  0  0  0  0
  -28.9500  -20.8390   20.4660 C   0  0  0  0  0  0  0  0  0  0  0  0
  -28.4920  -22.3290   19.9100 C   0  0  0  0  0  0  0  0  0  0  0  0
  -28.3850  -23.8390   20.5650 C   0  0  0  0  0  0  0  0  0  0  0  0
  -28.0870  -22.3200   18.4500 C   0  0  0  0  0  1  0  0  0  0  0  0
  -29.4130  -17.5020   20.0000 C   0  0  0  0  0  0  0  0  0  0  0  0
  -28.9370  -19.0220   20.0060 C   0  0  0  0  0  0  0  0  0  0  0  0
  -30.2180  -15.9300   20.1270 C   0  0  0  0  0  0  0  0  0  0  0  0
  -30.3490  -13.3370   19.3220 C   0  0  0  0  0  2  0  0  0  0  0  0
  -29.4530  -12.8450   18.1430 C   0  0  0  0  0  2  0  0  0  0  0  0
  -28.0530  -12.4500   18.6350 C   0  0  0  0  0  2  0  0  0  0  0  0
  -27.5320  -13.4670   19.6720 C   0  0  0  0  0  3  0  0  0  0  0  0
  -28.5710  -13.8660   20.7470 C   0  0  0  0  0  2  0  0  0  0  0  0
  -29.7070  -14.5360   20.0580 N   0  0  0  0  0  0  0  0  0  0  0  0
  -31.4570  -15.7900   20.0230 O   0  0  0  0  0  0  0  0  0  0  0  0
  -25.2020  -13.9700   20.5280 C   0  0  0  0  0  0  0  0  0  0  0  0
  -24.1530  -13.1820   20.9070 C   0  0  0  0  0  0  0  0  0  0  0  0
  -24.6220  -11.8340   20.8340 C   0  0  0  0  0  0  0  0  0  0  0  0
  -26.2370  -13.1060   20.2320 N   0  0  0  0  0  0  0  0  0  0  0  0
  -25.9060  -11.8110   20.4820 N   0  0  0  0  0  0  0  0  0  0  0  0
  -23.8970  -10.5680   21.0170 C   0  0  0  0  0  0  0  0  0  0  0  0
  -24.3380   -9.5860   21.9330 C   0  0  0  0  0  3  0  0  0  0  0  0
  -23.6080   -8.3910   22.1090 C   0  0  0  0  0  3  0  0  0  0  0  0
  -22.4220   -8.1670   21.3690 C   0  0  0  0  0  0  0  0  0  0  0  0
  -22.0000   -9.1380   20.4430 C   0  0  0  0  0  3  0  0  0  0  0  0
  -22.7310  -10.3240   20.2650 C   0  0  0  0  0  3  0  0  0  0  0  0
  -21.6650   -7.0240   21.4540 O   0  0  0  0  0  0  0  0  0  0  0  0
  -21.6180   -6.2740   22.6030 C   0  0  0  0  0  0  0  0  0  0  0  0
  -21.1820   -6.8190   23.8300 C   0  0  0  0  0  3  0  0  0  0  0  0
  -21.0820   -5.9960   24.9690 C   0  0  0  0  0  3  0  0  0  0  0  0
  -21.4080   -4.6300   24.8820 C   0  0  0  0  0  0  0  0  0  0  0  0
  -21.8370   -4.0840   23.6600 C   0  0  0  0  0  3  0  0  0  0  0  0
  -21.9390   -4.9040   22.5220 C   0  0  0  0  0  0  0  0  0  0  0  0
  -22.3310   -4.3680   21.3420 F   0  0  0  0  0  0  0  0  0  0  0  0
  -21.3050   -3.8370   25.9750 F   0  0  0  0  0  0  0  0  0  0  0  0
  -22.7630  -13.6540   21.2180 C   0  0  0  0  0  0  0  0  0  0  0  0
  -22.0540  -12.9410   22.0840 N   0  0  0  0  0  0  0  0  0  0  0  0
  -22.3190  -14.6910   20.7290 O   0  0  0  0  0  0  0  0  0  0  0  0
  -22.4290  -12.1020   22.5010 H   0  0  0  0  0  0  0  0  0  0  0  0
  -21.1220  -13.2410   22.3360 H   0  0  0  0  0  0  0  0  0  0  0  0
  -25.3580  -15.3460   20.3780 N   0  0  0  0  0  0  0  0  0  0  0  0
  -24.5950  -15.9960   20.5320 H   0  0  0  0  0  0  0  0  0  0  0  0
  -26.2020  -15.8000   20.0530 H   0  0  0  0  0  0  0  0  0  0  0  0
  -27.7760  -19.0000   19.3450 O   0  0  0  0  0  0  0  0  0  0  0  0
  -27.4040  -19.8720   19.4060 H   0  0  0  0  0  0  0  0  0  0  0  0
  -28.2060  -25.4480   20.1860 O   0  0  0  0  0  0  0  0  0  0  0  0
  -24.6790  -31.9010   23.1950 C   0  0  0  0  0  0  0  0  0  0  0  0
  -27.2170  -26.6870   20.2960 C   0  0  0  0  0  0  0  0  0  0  0  0
  -23.5000  -30.4750   21.5790 C   0  0  0  0  0  3  0  0  0  0  0  0
  -24.9540  -28.7900   20.2040 C   0  0  0  0  0  0  0  0  0  0  0  0
  -26.0850  -30.5910   21.4680 C   0  0  0  0  0  2  0  0  0  0  0  0
  -26.1520  -29.1330   20.8430 C   0  0  0  0  0  0  0  0  0  0  0  0
  -27.2640  -28.1150   20.8510 C   0  0  0  0  0  3  0  0  0  0  0  0
  -25.9840  -26.5920   19.5920 C   0  0  0  0  0  3  0  0  0  0  0  0
  -24.9150  -27.5440   19.5530 C   0  0  0  0  0  3  0  0  0  0  0  0
  -23.7510  -29.7530   20.2220 C   0  0  0  0  0  2  0  0  0  0  0  0
  -24.7790  -31.0260   22.1320 N   0  0  0  0  0  0  0  0  0  0  0  0
  -23.5840  -32.2060   23.6970 O   0  0  0  0  0  0  0  0  0  0  0  0
  -22.7790  -29.5150   22.5640 C   0  0  0  0  0  0  0  0  0  0  0  0
  -21.4450  -29.3590   22.4420 N   0  0  0  0  0  0  0  0  0  0  0  0
  -23.4330  -28.9060   23.4140 O   0  0  0  0  0  0  0  0  0  0  0  0
  -20.9650  -29.9000   21.7370 H   0  0  0  0  0  0  0  0  0  0  0  0
  -18.0630  -28.1300   22.9710 C   0  0  0  0  0  0  0  0  0  0  0  0
  -20.6230  -28.4290   23.2270 C   0  0  0  0  0  3  0  0  0  0  0  0
  -20.7360  -26.9870   22.6770 C   0  0  0  0  0  2  0  0  0  0  0  0
  -19.6380  -26.6390   21.6670 C   0  0  0  0  0  2  0  0  0  0  0  0
  -18.2560  -26.7750   22.3080 C   0  0  0  0  0  2  0  0  0  0  0  0
  -19.1740  -28.9120   23.3870 C   0  0  0  0  0  0  0  0  0  0  0  0
  -18.9370  -30.1750   23.9730 C   0  0  0  0  0  3  0  0  0  0  0  0
  -17.6250  -30.6560   24.1420 C   0  0  0  0  0  3  0  0  0  0  0  0
  -16.5300  -29.8720   23.7370 C   0  0  0  0  0  3  0  0  0  0  0  0
  -16.7500  -28.6110   23.1580 C   0  0  0  0  0  3  0  0  0  0  0  0
  -25.9360  -32.5700   23.8290 C   0  0  0  0  0  3  0  0  0  0  0  0
  -25.5990  -33.9700   24.1590 N   0  0  0  0  0  0  0  0  0  0  0  0
  -25.9200  -35.0390   23.4170 C   0  0  0  0  0  0  0  0  0  0  0  0
  -26.5850  -34.9500   22.3820 O   0  0  0  0  0  0  0  0  0  0  0  0
  -25.0040  -34.1120   24.9620 H   0  0  0  0  0  0  0  0  0  0  0  0
  -24.1780  -36.8360   23.1060 C   0  0  0  0  0  1  0  0  0  0  0  0
  -25.4330  -36.4250   23.8940 C   0  0  0  0  0  3  0  0  0  0  0  0
  -27.5670  -37.3310   24.7080 C   0  0  0  0  0  1  0  0  0  0  0  0
  -26.4570  -37.4870   23.7720 N   0  0  0  0  0  0  0  0  0  0  0  0
  -26.0450  -38.4050   23.9170 H   0  0  0  0  0  0  0  0  0  0  0  0
  -26.4400  -31.8260   25.1290 C   0  0  1  0  0  0  0  0  0  0  0  0
  -25.3340  -31.6010   26.1890 C   0  0  0  0  0  1  0  0  0  0  0  0
  -27.0380  -30.4450   24.7850 C   0  0  0  0  0  1  0  0  0  0  0  0
  -27.5760  -32.6410   25.7910 C   0  0  0  0  0  1  0  0  0  0  0  0
  2  1  2  0
  3  1  1  0
  4  2  1  0
  5  4  2  0
  5  6  1  0
  6  3  2  0
  7  5  1  0
  8  9  2  0
  8 10  2  0
  9  4  1  0
 11 16  1  0
 12 13  1  0
 12 11  1  0
 14 13  1  0
 14 21  1  0
 14 15  1  0
 16 10  1  0
 16 15  1  0
 17 10  2  0
 18 19  2  0
 19 38  1  0
 20 19  1  0
 20 23  1  0
 21 22  1  0
 21 18  1  0
 22 20  2  0
 23 24  1  0
 24 25  2  0
 26 29  1  0
 26 25  1  0
 27 26  2  0
 28 27  1  0
 28 23  2  0
 29 30  1  0
 30 31  1  0
 31 32  2  0
 33 32  1  0
 33 37  1  0
 34 33  2  0
 35 30  2  0
 35 34  1  0
 36 35  1  0
 38 39  1  0
 39 42  1  0
 39 41  1  0
 40 38  2  0
 43 18  1  0
 43 44  1  0
 45 43  1  0
 46 47  1  0
 46  9  1  0
 48 50  1  0
 48  6  1  0
 49 60  2  0
 50 55  1  0
 51 59  1  0
 51 61  1  0
 52 58  1  0
 52 54  1  0
 53 59  1  0
 54 55  2  0
 54 53  1  0
 56 50  2  0
 57 56  1  0
 57 52  2  0
 58 51  1  0
 59 49  1  0
 61 63  2  0
 62 61  1  0
 64 62  1  0
 65 74  2  0
 65 70  1  0
 66 62  1  0
 66 70  1  0
 67 66  1  0
 68 69  1  0
 68 67  1  0
 69 65  1  0
 70 71  2  0
 71 72  1  0
 73 72  2  0
 74 73  1  0
 75 49  1  0
 75 76  1  0
 75 85  1  0
 76 79  1  0
 77 81  1  0
 77 76  1  0
 78 77  2  0
 81 80  1  0
 83 81  1  0
 83 84  1  0
 83 82  1  0
 85 88  1  1
 85 86  1  0
 87 85  1  0
M  ISO  4   6 101   8 100  10 100  48 101
M  END
>  <TORSDO>  (58) 
F 18

>  <SCORE>  (58) 
-16.503

>  <name>  (58) 
57

>  <ligand_id>  (58) 
57

>  <original_smiles>  (58) 
[H]OC(=C([H])C(=O)N1C([H])([H])C([H])([H])C([H])([H])C([H])(n2nc(-c3c([H])c([H])c(Oc4c([H])c([H])c(F)c([H])c4F)c([H])c3[H])c(C(=O)N([H])[H])c2N([H])[H])C1([H])[H])c1c([H])c([H])c([H])c(Oc2c([H])c([H])c3c(c2[H])C([H])([H])N(C(=O)C([H])(N([H])C(=O)C([H])(N([H])C([H])([H])[H])C([H])([H])[H])C(C([H])([H])[H])(C([H])([H])[H])C([H])([H])[H])C([H])(C(=O)N([H])C2([H])c4c([H])c([H])c([H])c([H])c4C([H])([H])C([H])([H])C2([H])[H])C3([H])[H])c1C([H])([H])[H]

>  <smiles>  (58) 
[H]OC(=C([H])C(=O)N1C([H])([H])C([H])([H])C([H])([H])C([H])(n2nc(-c3c([H])c([H])c(Oc4c([H])c([H])c(F)c([H])c4F)c([H])c3[H])c(C(=O)N([H])[H])c2N([H])[H])C1([H])[H])c1c([H])c([H])c([H])c(Oc2c([H])c([H])c3c(c2[H])C([H])([H])N(C(=O)C([H])(N([H])C(=O)C([H])(N([H])C([H])([H])[H])C([H])([H])[H])C(C([H])([H])[H])(C([H])([H])[H])C([H])([H])[H])C([H])(C(=O)N([H])C2([H])c4c([H])c([H])c([H])c([H])c4C([H])([H])C([H])([H])C2([H])[H])C3([H])[H])c1C([H])([H])[H]

$$$$
58:0:0
     RDKit          3D

 92100  0  0  1  0  0  0  0  0999 V2000
  -29.9640  -17.6620   18.7120 C   0  0  0  0  0  3  0  0  0  0  0  0
  -29.5200  -19.0000   18.3230 C   0  0  0  0  0  3  0  0  0  0  0  0
  -30.7190  -17.3030   19.8910 C   0  0  0  0  0  0  0  0  0  0  0  0
  -29.7760  -20.2460   19.0150 C   0  0  0  0  0  0  0  0  0  0  0  0
  -31.0060  -18.5500   20.6120 C   0  0  0  0  0  0  0  0  0  0  0  0
  -30.5780  -19.9250   20.1850 C   0  0  0  0  0  0  0  0  0  0  0  0
  -31.3550  -15.7890   20.1160 C   0  0  0  0  0  0  0  0  0  0  0  0
  -31.2760  -13.2890   19.5680 C   0  0  0  0  0  2  0  0  0  0  0  0
  -30.4190  -12.9920   18.3140 C   0  0  0  0  0  2  0  0  0  0  0  0
  -28.9480  -12.7830   18.7130 C   0  0  0  0  0  2  0  0  0  0  0  0
  -28.4480  -13.8730   19.6960 C   0  0  0  0  0  3  0  0  0  0  0  0
  -29.4450  -14.1770   20.8320 C   0  0  0  0  0  2  0  0  0  0  0  0
  -30.7310  -14.5290   20.2230 N   0  0  0  0  0  0  0  0  0  0  0  0
  -32.5800  -15.7150   19.9730 O   0  0  0  0  0  0  0  0  0  0  0  0
  -26.1100  -14.5080   20.5070 C   0  0  0  0  0  0  0  0  0  0  0  0
  -25.0080  -13.7680   20.8260 C   0  0  0  0  0  0  0  0  0  0  0  0
  -25.4030  -12.3980   20.7110 C   0  0  0  0  0  0  0  0  0  0  0  0
  -27.1060  -13.5980   20.2000 N   0  0  0  0  0  0  0  0  0  0  0  0
  -26.6920  -12.3190   20.3970 N   0  0  0  0  0  0  0  0  0  0  0  0
  -24.6110  -11.1660   20.8220 C   0  0  0  0  0  0  0  0  0  0  0  0
  -24.9810  -10.1210   21.6970 C   0  0  0  0  0  3  0  0  0  0  0  0
  -24.1880   -8.9570   21.8020 C   0  0  0  0  0  3  0  0  0  0  0  0
  -23.0090   -8.8280   21.0300 C   0  0  0  0  0  0  0  0  0  0  0  0
  -22.6570   -9.8620   20.1430 C   0  0  0  0  0  3  0  0  0  0  0  0
  -23.4510  -11.0160   20.0370 C   0  0  0  0  0  3  0  0  0  0  0  0
  -22.1920   -7.7240   21.0460 O   0  0  0  0  0  0  0  0  0  0  0  0
  -22.0720   -6.9320   22.1600 C   0  0  0  0  0  0  0  0  0  0  0  0
  -21.6430   -7.4520   23.4000 C   0  0  0  0  0  3  0  0  0  0  0  0
  -21.4680   -6.5930   24.5020 C   0  0  0  0  0  3  0  0  0  0  0  0
  -21.7070   -5.2120   24.3660 C   0  0  0  0  0  0  0  0  0  0  0  0
  -22.1280   -4.6910   23.1300 C   0  0  0  0  0  3  0  0  0  0  0  0
  -22.3060   -5.5470   22.0290 C   0  0  0  0  0  0  0  0  0  0  0  0
  -22.6920   -5.0350   20.8350 F   0  0  0  0  0  0  0  0  0  0  0  0
  -21.5300   -4.3870   25.4220 F   0  0  0  0  0  0  0  0  0  0  0  0
  -23.6350  -14.2990   21.1210 C   0  0  0  0  0  0  0  0  0  0  0  0
  -22.8750  -13.6050   21.9560 N   0  0  0  0  0  0  0  0  0  0  0  0
  -23.2500  -15.3660   20.6420 O   0  0  0  0  0  0  0  0  0  0  0  0
  -23.2020  -12.7430   22.3680 H   0  0  0  0  0  0  0  0  0  0  0  0
  -21.9530  -13.9420   22.1930 H   0  0  0  0  0  0  0  0  0  0  0  0
  -26.3440  -15.8790   20.4190 N   0  0  0  0  0  0  0  0  0  0  0  0
  -25.6090  -16.5600   20.5780 H   0  0  0  0  0  0  0  0  0  0  0  0
  -27.2230  -16.3020   20.1510 H   0  0  0  0  0  0  0  0  0  0  0  0
  -29.0110  -21.7190   18.5720 C   0  0  0  0  0  2  0  0  0  0  0  0
  -29.3350  -23.4320   18.6980 C   0  0  0  0  0  3  0  0  0  0  0  0
  -28.2280  -24.7730   18.4980 C   0  0  0  0  0  3  0  0  0  0  0  0
  -28.3820  -26.3560   18.7050 O   0  0  0  0  0  0  0  0  0  0  0  0
  -24.6180  -31.3260   22.8150 C   0  0  0  0  0  0  0  0  0  0  0  0
  -27.2700  -27.2950   18.8790 C   0  0  0  0  0  0  0  0  0  0  0  0
  -23.3860  -30.0440   21.1070 C   0  0  0  0  0  3  0  0  0  0  0  0
  -24.8180  -28.8360   19.3320 C   0  0  0  0  0  0  0  0  0  0  0  0
  -25.8810  -30.5780   20.7550 C   0  0  0  0  0  2  0  0  0  0  0  0
  -26.0160  -29.2940   19.8970 C   0  0  0  0  0  0  0  0  0  0  0  0
  -27.2370  -28.5390   19.6600 C   0  0  0  0  0  3  0  0  0  0  0  0
  -26.0350  -26.9800   18.2770 C   0  0  0  0  0  3  0  0  0  0  0  0
  -24.8430  -27.7050   18.5080 C   0  0  0  0  0  3  0  0  0  0  0  0
  -23.5320  -29.5950   19.6270 C   0  0  0  0  0  2  0  0  0  0  0  0
  -24.6530  -30.6660   21.6150 N   0  0  0  0  0  0  0  0  0  0  0  0
  -23.5730  -31.4180   23.4770 O   0  0  0  0  0  0  0  0  0  0  0  0
  -22.9080  -28.8500   21.9720 C   0  0  0  0  0  0  0  0  0  0  0  0
  -21.6170  -28.4870   21.8710 N   0  0  0  0  0  0  0  0  0  0  0  0
  -23.7030  -28.2550   22.7050 O   0  0  0  0  0  0  0  0  0  0  0  0
  -21.0190  -29.0240   21.2580 H   0  0  0  0  0  0  0  0  0  0  0  0
  -18.5410  -26.6020   22.2060 C   0  0  0  0  0  0  0  0  0  0  0  0
  -20.9880  -27.3590   22.5660 C   0  0  0  0  0  3  0  0  0  0  0  0
  -21.3880  -26.0150   21.9160 C   0  0  0  0  0  2  0  0  0  0  0  0
  -20.3960  -25.5400   20.8510 C   0  0  0  0  0  2  0  0  0  0  0  0
  -19.0010  -25.3600   21.4590 C   0  0  0  0  0  2  0  0  0  0  0  0
  -19.4720  -27.5460   22.7130 C   0  0  0  0  0  0  0  0  0  0  0  0
  -18.9880  -28.6940   23.3790 C   0  0  0  0  0  3  0  0  0  0  0  0
  -17.6060  -28.9060   23.5380 C   0  0  0  0  0  3  0  0  0  0  0  0
  -16.6900  -27.9630   23.0450 C   0  0  0  0  0  3  0  0  0  0  0  0
  -17.1570  -26.8120   22.3850 C   0  0  0  0  0  3  0  0  0  0  0  0
  -25.8880  -32.0150   23.4020 C   0  0  0  0  0  3  0  0  0  0  0  0
  -25.4800  -33.3200   23.9460 N   0  0  0  0  0  0  0  0  0  0  0  0
  -25.6780  -34.4980   23.3410 C   0  0  0  0  0  0  0  0  0  0  0  0
  -26.2910  -34.6080   22.2760 O   0  0  0  0  0  0  0  0  0  0  0  0
  -24.9360  -33.3060   24.7960 H   0  0  0  0  0  0  0  0  0  0  0  0
  -23.7970  -36.1710   23.3410 C   0  0  0  0  0  1  0  0  0  0  0  0
  -25.1100  -35.7560   24.0250 C   0  0  0  0  0  3  0  0  0  0  0  0
  -27.2090  -36.6940   24.8950 C   0  0  0  0  0  1  0  0  0  0  0  0
  -26.0450  -36.9020   24.0350 N   0  0  0  0  0  0  0  0  0  0  0  0
  -25.5700  -37.7420   24.3490 H   0  0  0  0  0  0  0  0  0  0  0  0
  -26.5970  -31.1570   24.5220 C   0  0  1  0  0  0  0  0  0  0  0  0
  -25.6440  -30.6980   25.6480 C   0  0  0  0  0  1  0  0  0  0  0  0
  -27.2540  -29.8950   23.9180 C   0  0  0  0  0  1  0  0  0  0  0  0
  -27.7310  -31.9750   25.1820 C   0  0  0  0  0  1  0  0  0  0  0  0
  -31.7340  -18.3810   21.9510 C   0  0  0  0  0  2  0  0  0  0  0  0
  -33.8860  -19.7790   21.5500 C   0  0  0  0  0  1  0  0  0  0  0  0
  -33.2720  -18.4240   21.9190 C   0  0  0  0  0  2  0  0  0  0  0  0
  -30.9980  -21.1680   20.9630 C   0  0  0  0  0  2  0  0  0  0  0  0
  -30.2350  -21.5240   23.3960 C   0  0  0  0  0  1  0  0  0  0  0  0
  -29.9140  -21.7110   21.9060 C   0  0  0  0  0  2  0  0  0  0  0  0
  1  3  1  0
  2  1  2  0
  2  4  1  0
  3  7  1  0
  3  5  2  0
  4  6  2  0
  5 87  1  0
  6  5  1  0
  6 90  1  0
  7 13  1  0
  8 13  1  0
  9 10  1  0
  9  8  1  0
 11 10  1  0
 11 18  1  0
 11 12  1  0
 13 12  1  0
 14  7  2  0
 15 16  2  0
 16 35  1  0
 17 20  1  0
 17 16  1  0
 18 19  1  0
 18 15  1  0
 19 17  2  0
 20 21  1  0
 21 22  2  0
 23 26  1  0
 23 22  1  0
 24 23  2  0
 25 24  1  0
 25 20  2  0
 26 27  1  0
 27 28  1  0
 28 29  2  0
 30 29  1  0
 30 34  1  0
 31 30  2  0
 32 27  2  0
 32 31  1  0
 33 32  1  0
 35 36  1  0
 36 39  1  0
 36 38  1  0
 37 35  2  0
 40 15  1  0
 40 41  1  0
 42 40  1  0
 43 44  1  0
 43  4  1  0
 45 44  2  0
 45 46  1  0
 46 48  1  0
 47 58  2  0
 48 53  1  0
 49 57  1  0
 49 59  1  0
 50 56  1  0
 50 52  1  0
 51 57  1  0
 52 51  1  0
 53 52  2  0
 54 55  1  0
 54 48  2  0
 55 50  2  0
 56 49  1  0
 57 47  1  0
 59 61  2  0
 60 59  1  0
 62 60  1  0
 63 72  2  0
 63 68  1  0
 64 60  1  0
 64 68  1  0
 65 64  1  0
 66 67  1  0
 66 65  1  0
 67 63  1  0
 68 69  2  0
 69 70  1  0
 71 70  2  0
 72 71  1  0
 73 47  1  0
 73 74  1  0
 73 83  1  0
 74 77  1  0
 75 74  1  0
 75 79  1  0
 76 75  2  0
 79 78  1  0
 79 81  1  0
 81 82  1  0
 81 80  1  0
 83 86  1  1
 83 84  1  0
 85 83  1  0
 88 89  1  0
 89 87  1  0
 90 92  1  0
 92 91  1  0
M  ISO  4   3 100   7 100  45 101  46 101
M  END
>  <TORSDO>  (59) 
F 23

>  <SCORE>  (59) 
-9.759

>  <name>  (59) 
58

>  <ligand_id>  (59) 
58

>  <original_smiles>  (59) 
[H]c1c([H])c([H])c2c(c1[H])C([H])([H])C([H])([H])C([H])([H])C2([H])N([H])C(=O)C1([H])N(C(=O)C([H])(N([H])C(=O)C([H])(N([H])C([H])([H])[H])C([H])([H])[H])C(C([H])([H])[H])(C([H])([H])[H])C([H])([H])[H])C([H])([H])c2c([H])c(OC([H])([H])C([H])([H])C([H])([H])c3c([H])c([H])c(C(=O)N4C([H])([H])C([H])([H])C([H])([H])C([H])(n5nc(-c6c([H])c([H])c(Oc7c([H])c([H])c(F)c([H])c7F)c([H])c6[H])c(C(=O)N([H])[H])c5N([H])[H])C4([H])[H])c(C([H])([H])C([H])([H])C([H])([H])[H])c3C([H])([H])C([H])([H])C([H])([H])[H])c([H])c([H])c2C1([H])[H]

>  <smiles>  (59) 
[H]c1c([H])c([H])c2c(c1[H])C([H])([H])C([H])([H])C([H])([H])C2([H])N([H])C(=O)C1([H])N(C(=O)C([H])(N([H])C(=O)C([H])(N([H])C([H])([H])[H])C([H])([H])[H])C(C([H])([H])[H])(C([H])([H])[H])C([H])([H])[H])C([H])([H])c2c([H])c(OC([H])([H])C([H])([H])C([H])([H])c3c([H])c([H])c(C(=O)N4C([H])([H])C([H])([H])C([H])([H])C([H])(n5nc(-c6c([H])c([H])c(Oc7c([H])c([H])c(F)c([H])c7F)c([H])c6[H])c(C(=O)N([H])[H])c5N([H])[H])C4([H])[H])c(C([H])([H])C([H])([H])C([H])([H])[H])c3C([H])([H])C([H])([H])C([H])([H])[H])c([H])c([H])c2C1([H])[H]

$$$$
59:0:0
     RDKit          3D

 93102  0  0  1  0  0  0  0  0999 V2000
  -30.5090  -22.9390   18.9570 C   0  0  0  0  0  3  0  0  0  0  0  0
  -30.9610  -24.2460   18.7120 C   0  0  0  0  0  3  0  0  0  0  0  0
  -28.4820  -23.8790   19.9390 C   0  0  0  0  0  3  0  0  0  0  0  0
  -29.2570  -22.6920   19.5460 C   0  0  0  0  0  0  0  0  0  0  0  0
  -30.1970  -25.3770   19.0650 C   0  0  0  0  0  0  0  0  0  0  0  0
  -28.9350  -25.2530   19.7040 C   0  0  0  0  0  0  0  0  0  0  0  0
  -30.8210  -26.7370   18.7940 C   0  0  0  0  0  1  0  0  0  0  0  0
  -28.4630  -26.4800   20.2680 O   0  0  0  0  0  0  0  0  0  0  0  0
  -24.6630  -31.8480   23.1270 C   0  0  0  0  0  0  0  0  0  0  0  0
  -27.3170  -27.2800   20.0720 C   0  0  0  0  0  0  0  0  0  0  0  0
  -23.4640  -30.4360   21.4880 C   0  0  0  0  0  3  0  0  0  0  0  0
  -24.9270  -28.8820   20.0500 C   0  0  0  0  0  0  0  0  0  0  0  0
  -25.9970  -30.7720   21.2940 C   0  0  0  0  0  2  0  0  0  0  0  0
  -26.0860  -29.3890   20.6460 C   0  0  0  0  0  0  0  0  0  0  0  0
  -27.2740  -28.5970   20.6440 C   0  0  0  0  0  3  0  0  0  0  0  0
  -26.1400  -26.8270   19.4430 C   0  0  0  0  0  3  0  0  0  0  0  0
  -24.9590  -27.6120   19.4350 C   0  0  0  0  0  3  0  0  0  0  0  0
  -23.6810  -29.7510   20.1080 C   0  0  0  0  0  2  0  0  0  0  0  0
  -24.7270  -31.0390   22.0290 N   0  0  0  0  0  0  0  0  0  0  0  0
  -23.5790  -32.1180   23.6670 O   0  0  0  0  0  0  0  0  0  0  0  0
  -22.8110  -29.4230   22.4580 C   0  0  0  0  0  0  0  0  0  0  0  0
  -21.4810  -29.2580   22.3560 N   0  0  0  0  0  0  0  0  0  0  0  0
  -23.4980  -28.7910   23.2640 O   0  0  0  0  0  0  0  0  0  0  0  0
  -20.9840  -29.8200   21.6800 H   0  0  0  0  0  0  0  0  0  0  0  0
  -18.1040  -28.0900   22.9230 C   0  0  0  0  0  0  0  0  0  0  0  0
  -20.6710  -28.3180   23.1350 C   0  0  0  0  0  3  0  0  0  0  0  0
  -20.7450  -26.8950   22.5370 C   0  0  0  0  0  2  0  0  0  0  0  0
  -19.6160  -26.5980   21.5450 C   0  0  0  0  0  2  0  0  0  0  0  0
  -18.2510  -26.7480   22.2220 C   0  0  0  0  0  2  0  0  0  0  0  0
  -19.2410  -28.8340   23.3360 C   0  0  0  0  0  0  0  0  0  0  0  0
  -19.0490  -30.0890   23.9540 C   0  0  0  0  0  3  0  0  0  0  0  0
  -17.7540  -30.6000   24.1610 C   0  0  0  0  0  3  0  0  0  0  0  0
  -16.6330  -29.8540   23.7590 C   0  0  0  0  0  3  0  0  0  0  0  0
  -16.8080  -28.6000   23.1460 C   0  0  0  0  0  3  0  0  0  0  0  0
  -25.9440  -32.4910   23.7460 C   0  0  0  0  0  3  0  0  0  0  0  0
  -25.6150  -33.8780   24.1130 N   0  0  0  0  0  0  0  0  0  0  0  0
  -25.9260  -34.9550   23.3810 C   0  0  0  0  0  0  0  0  0  0  0  0
  -26.5860  -34.8870   22.3410 O   0  0  0  0  0  0  0  0  0  0  0  0
  -25.0230  -34.0040   24.9210 H   0  0  0  0  0  0  0  0  0  0  0  0
  -24.1780  -36.7410   23.0820 C   0  0  0  0  0  1  0  0  0  0  0  0
  -25.4250  -36.3250   23.8780 C   0  0  0  0  0  3  0  0  0  0  0  0
  -27.5460  -37.2180   24.7380 C   0  0  0  0  0  1  0  0  0  0  0  0
  -26.4450  -37.3930   23.7940 N   0  0  0  0  0  0  0  0  0  0  0  0
  -26.0260  -38.3040   23.9610 H   0  0  0  0  0  0  0  0  0  0  0  0
  -26.4900  -31.7030   25.0000 C   0  0  1  0  0  0  0  0  0  0  0  0
  -25.4150  -31.4260   26.0770 C   0  0  0  0  0  1  0  0  0  0  0  0
  -27.0930  -30.3450   24.5740 C   0  0  0  0  0  1  0  0  0  0  0  0
  -27.6330  -32.5050   25.6680 C   0  0  0  0  0  1  0  0  0  0  0  0
  -28.7660  -21.1740   19.4370 C   0  0  0  0  0  2  0  0  0  0  0  0
  -28.2130  -17.4910   20.3950 C   0  0  0  0  0  2  0  0  0  0  0  0
  -27.8640  -18.9900   20.3570 C   0  0  0  0  0  2  0  0  0  0  0  0
  -30.2310  -18.7170   19.9860 C   0  0  0  0  0  2  0  0  0  0  0  0
  -29.6030  -17.2370   19.8040 C   0  0  0  0  0  3  0  0  0  0  0  0
  -29.1400  -19.8730   20.3730 C   0  0  1  0  0  0  0  0  0  0  0  0
  -29.4270  -20.3870   21.7950 C   0  0  0  0  0  1  0  0  0  0  0  0
  -30.8280  -14.8240   19.9290 C   0  0  0  0  0  0  0  0  0  0  0  0
  -30.5920  -12.5350   18.9430 C   0  0  0  0  0  2  0  0  0  0  0  0
  -29.5810  -12.6250   17.7780 C   0  0  0  0  0  2  0  0  0  0  0  0
  -28.1410  -12.4440   18.2930 C   0  0  0  0  0  2  0  0  0  0  0  0
  -27.8440  -13.3080   19.5470 C   0  0  0  0  0  3  0  0  0  0  0  0
  -28.9740  -13.2050   20.5990 C   0  0  0  0  0  2  0  0  0  0  0  0
  -30.2380  -13.5740   19.9420 N   0  0  0  0  0  0  0  0  0  0  0  0
  -31.9230  -14.9770   19.3800 O   0  0  0  0  0  0  0  0  0  0  0  0
  -30.1000  -15.9060   20.4150 N   0  0  0  0  0  0  0  0  0  0  0  0
  -29.4350  -15.5710   21.0960 H   0  0  0  0  0  0  0  0  0  0  0  0
  -25.5140  -13.8820   20.4600 C   0  0  0  0  0  0  0  0  0  0  0  0
  -24.4700  -13.1070   20.8750 C   0  0  0  0  0  0  0  0  0  0  0  0
  -24.9140  -11.7550   20.7560 C   0  0  0  0  0  0  0  0  0  0  0  0
  -26.5330  -13.0080   20.1160 N   0  0  0  0  0  0  0  0  0  0  0  0
  -26.1800  -11.7170   20.3510 N   0  0  0  0  0  0  0  0  0  0  0  0
  -24.1820  -10.4970   20.9440 C   0  0  0  0  0  0  0  0  0  0  0  0
  -24.5990   -9.5370   21.8910 C   0  0  0  0  0  3  0  0  0  0  0  0
  -23.8680   -8.3450   22.0720 C   0  0  0  0  0  3  0  0  0  0  0  0
  -22.7050   -8.1030   21.3020 C   0  0  0  0  0  0  0  0  0  0  0  0
  -22.3070   -9.0510   20.3430 C   0  0  0  0  0  3  0  0  0  0  0  0
  -23.0390  -10.2360   20.1630 C   0  0  0  0  0  3  0  0  0  0  0  0
  -21.9480   -6.9600   21.3910 O   0  0  0  0  0  0  0  0  0  0  0  0
  -21.8090   -6.2760   22.5700 C   0  0  0  0  0  0  0  0  0  0  0  0
  -21.2460   -6.8760   23.7180 C   0  0  0  0  0  3  0  0  0  0  0  0
  -21.0610   -6.1160   24.8900 C   0  0  0  0  0  3  0  0  0  0  0  0
  -21.4260   -4.7570   24.9130 C   0  0  0  0  0  0  0  0  0  0  0  0
  -21.9770   -4.1560   23.7680 C   0  0  0  0  0  3  0  0  0  0  0  0
  -22.1670   -4.9140   22.6000 C   0  0  0  0  0  0  0  0  0  0  0  0
  -22.6800   -4.3250   21.4930 F   0  0  0  0  0  0  0  0  0  0  0  0
  -21.2380   -4.0240   26.0350 F   0  0  0  0  0  0  0  0  0  0  0  0
  -23.1040  -13.5900   21.2650 C   0  0  0  0  0  0  0  0  0  0  0  0
  -22.4290  -12.8670   22.1510 N   0  0  0  0  0  0  0  0  0  0  0  0
  -22.6460  -14.6430   20.8240 O   0  0  0  0  0  0  0  0  0  0  0  0
  -22.8160  -12.0180   22.5330 H   0  0  0  0  0  0  0  0  0  0  0  0
  -21.5130  -13.1670   22.4500 H   0  0  0  0  0  0  0  0  0  0  0  0
  -25.6650  -15.2550   20.3250 N   0  0  0  0  0  0  0  0  0  0  0  0
  -24.9020  -15.8990   20.5060 H   0  0  0  0  0  0  0  0  0  0  0  0
  -26.4780  -15.7040   19.9290 H   0  0  0  0  0  0  0  0  0  0  0  0
  1  4  1  0
  2  1  2  0
  2  5  1  0
  4  3  2  0
  5  6  2  0
  6  3  1  0
  6  8  1  0
  7  5  1  0
  9 20  2  0
 10  8  1  0
 10 15  1  0
 11 19  1  0
 11 21  1  0
 12 18  1  0
 12 14  1  0
 13 19  1  0
 14 13  1  0
 15 14  2  0
 16 10  2  0
 17 16  1  0
 17 12  2  0
 18 11  1  0
 19  9  1  0
 21 23  2  0
 22 21  1  0
 24 22  1  0
 25 34  2  0
 25 30  1  0
 26 22  1  0
 26 30  1  0
 27 26  1  0
 28 29  1  0
 28 27  1  0
 29 25  1  0
 30 31  2  0
 31 32  1  0
 33 32  2  0
 34 33  1  0
 35  9  1  0
 35 36  1  0
 35 45  1  0
 36 39  1  0
 37 41  1  0
 37 36  1  0
 38 37  2  0
 41 40  1  0
 43 41  1  0
 43 44  1  0
 43 42  1  0
 45 48  1  1
 45 46  1  0
 47 45  1  0
 49  4  1  0
 49 54  1  0
 51 54  1  0
 51 50  1  0
 52 54  1  0
 53 52  1  0
 53 50  1  0
 53 64  1  0
 54 55  1  1
 56 62  1  0
 56 64  1  0
 57 62  1  0
 58 59  1  0
 58 57  1  0
 60 59  1  0
 60 69  1  0
 60 61  1  0
 62 61  1  0
 63 56  2  0
 64 65  1  0
 66 67  2  0
 67 86  1  0
 68 67  1  0
 68 71  1  0
 69 70  1  0
 69 66  1  0
 70 68  2  0
 71 72  1  0
 72 73  2  0
 74 77  1  0
 74 73  1  0
 75 74  2  0
 76 75  1  0
 76 71  2  0
 77 78  1  0
 78 83  2  0
 78 79  1  0
 79 80  2  0
 80 81  1  0
 81 85  1  0
 82 81  2  0
 83 82  1  0
 84 83  1  0
 86 87  1  0
 87 90  1  0
 87 89  1  0
 88 86  2  0
 91 66  1  0
 91 92  1  0
 93 91  1  0
M  ISO  4   6 101   8 101  56 100  64 100
M  END
>  <TORSDO>  (60) 
F 18

>  <SCORE>  (60) 
-14.096

>  <name>  (60) 
59

>  <ligand_id>  (60) 
59

>  <original_smiles>  (60) 
[H]c1c([H])c([H])c2c(c1[H])C([H])([H])C([H])([H])C([H])([H])C2([H])N([H])C(=O)C1([H])N(C(=O)C([H])(N([H])C(=O)C([H])(N([H])C([H])([H])[H])C([H])([H])[H])C(C([H])([H])[H])(C([H])([H])[H])C([H])([H])[H])C([H])([H])c2c([H])c(Oc3c([H])c(C([H])([H])C4(C([H])([H])[H])C([H])([H])C([H])([H])C([H])(N([H])C(=O)N5C([H])([H])C([H])([H])C([H])([H])C([H])(n6nc(-c7c([H])c([H])c(Oc8c([H])c([H])c(F)c([H])c8F)c([H])c7[H])c(C(=O)N([H])[H])c6N([H])[H])C5([H])[H])C4([H])[H])c([H])c([H])c3C([H])([H])[H])c([H])c([H])c2C1([H])[H]

>  <smiles>  (60) 
[H]c1c([H])c([H])c2c(c1[H])C([H])([H])C([H])([H])C([H])([H])C2([H])N([H])C(=O)C1([H])N(C(=O)C([H])(N([H])C(=O)C([H])(N([H])C([H])([H])[H])C([H])([H])[H])C(C([H])([H])[H])(C([H])([H])[H])C([H])([H])[H])C([H])([H])c2c([H])c(Oc3c([H])c(C([H])([H])C4(C([H])([H])[H])C([H])([H])C([H])([H])C([H])(N([H])C(=O)N5C([H])([H])C([H])([H])C([H])([H])C([H])(n6nc(-c7c([H])c([H])c(Oc8c([H])c([H])c(F)c([H])c8F)c([H])c7[H])c(C(=O)N([H])[H])c6N([H])[H])C5([H])[H])C4([H])[H])c([H])c([H])c3C([H])([H])[H])c([H])c([H])c2C1([H])[H]

$$$$
60:0:0
     RDKit          3D

 90 98  0  0  1  0  0  0  0  0999 V2000
  -28.9300  -22.7770   19.0280 C   0  0  0  0  0  3  0  0  0  0  0  0
  -28.5900  -24.1800   19.0170 C   0  0  0  0  0  3  0  0  0  0  0  0
  -28.8120  -22.7600   21.3990 C   0  0  0  0  0  3  0  0  0  0  0  0
  -29.0960  -22.0020   20.2190 C   0  0  0  0  0  0  0  0  0  0  0  0
  -28.4720  -24.1700   21.3910 C   0  0  0  0  0  0  0  0  0  0  0  0
  -28.3710  -24.9560   20.1950 C   0  0  0  0  0  0  0  0  0  0  0  0
  -28.3050  -24.8180   22.6130 N   0  0  0  0  0  0  0  0  0  0  0  0
  -28.7260  -24.4070   23.4400 H   0  0  0  0  0  0  0  0  0  0  0  0
  -28.3450  -25.8320   22.6060 H   0  0  0  0  0  0  0  0  0  0  0  0
  -28.3290  -26.4020   20.1810 O   0  0  0  0  0  0  0  0  0  0  0  0
  -24.6160  -31.8810   23.2390 C   0  0  0  0  0  0  0  0  0  0  0  0
  -27.1920  -27.2490   20.1840 C   0  0  0  0  0  0  0  0  0  0  0  0
  -23.3990  -30.4830   21.6070 C   0  0  0  0  0  3  0  0  0  0  0  0
  -24.8370  -28.9100   20.1750 C   0  0  0  0  0  0  0  0  0  0  0  0
  -25.9410  -30.7770   21.4120 C   0  0  0  0  0  2  0  0  0  0  0  0
  -26.0110  -29.3880   20.7690 C   0  0  0  0  0  0  0  0  0  0  0  0
  -27.1880  -28.5690   20.7610 C   0  0  0  0  0  3  0  0  0  0  0  0
  -25.9950  -26.8370   19.5640 C   0  0  0  0  0  3  0  0  0  0  0  0
  -24.8350  -27.6440   19.5620 C   0  0  0  0  0  3  0  0  0  0  0  0
  -23.6060  -29.7980   20.2280 C   0  0  0  0  0  2  0  0  0  0  0  0
  -24.6720  -31.0680   22.1420 N   0  0  0  0  0  0  0  0  0  0  0  0
  -23.5360  -32.1640   23.7800 O   0  0  0  0  0  0  0  0  0  0  0  0
  -22.7360  -29.4760   22.5760 C   0  0  0  0  0  0  0  0  0  0  0  0
  -21.4080  -29.2990   22.4550 N   0  0  0  0  0  0  0  0  0  0  0  0
  -23.4140  -28.8540   23.3980 O   0  0  0  0  0  0  0  0  0  0  0  0
  -20.9180  -29.8520   21.7650 H   0  0  0  0  0  0  0  0  0  0  0  0
  -18.0340  -28.0940   22.9670 C   0  0  0  0  0  0  0  0  0  0  0  0
  -20.5930  -28.3620   23.2300 C   0  0  0  0  0  3  0  0  0  0  0  0
  -20.6970  -26.9290   22.6600 C   0  0  0  0  0  2  0  0  0  0  0  0
  -19.5950  -26.6000   21.6480 C   0  0  0  0  0  2  0  0  0  0  0  0
  -18.2140  -26.7430   22.2940 C   0  0  0  0  0  2  0  0  0  0  0  0
  -19.1520  -28.8600   23.3920 C   0  0  0  0  0  0  0  0  0  0  0  0
  -18.9290  -30.1250   23.9810 C   0  0  0  0  0  3  0  0  0  0  0  0
  -17.6230  -30.6210   24.1500 C   0  0  0  0  0  3  0  0  0  0  0  0
  -16.5210  -29.8520   23.7400 C   0  0  0  0  0  3  0  0  0  0  0  0
  -16.7270  -28.5900   23.1550 C   0  0  0  0  0  3  0  0  0  0  0  0
  -25.9020  -32.5130   23.8550 C   0  0  0  0  0  3  0  0  0  0  0  0
  -25.5950  -33.9110   24.1940 N   0  0  0  0  0  0  0  0  0  0  0  0
  -25.9150  -34.9680   23.4350 C   0  0  0  0  0  0  0  0  0  0  0  0
  -26.5670  -34.8680   22.3920 O   0  0  0  0  0  0  0  0  0  0  0  0
  -25.0160  -34.0630   25.0060 H   0  0  0  0  0  0  0  0  0  0  0  0
  -24.1780  -36.7610   23.1210 C   0  0  0  0  0  1  0  0  0  0  0  0
  -25.4370  -36.3550   23.9050 C   0  0  0  0  0  3  0  0  0  0  0  0
  -27.5860  -37.2420   24.6940 C   0  0  0  0  0  1  0  0  0  0  0  0
  -26.4650  -37.4090   23.7730 N   0  0  0  0  0  0  0  0  0  0  0  0
  -26.0620  -38.3300   23.9290 H   0  0  0  0  0  0  0  0  0  0  0  0
  -26.4260  -31.7400   25.1290 C   0  0  1  0  0  0  0  0  0  0  0  0
  -25.3390  -31.5040   26.2050 C   0  0  0  0  0  1  0  0  0  0  0  0
  -27.0040  -30.3600   24.7340 C   0  0  0  0  0  1  0  0  0  0  0  0
  -27.5820  -32.5300   25.7840 C   0  0  0  0  0  1  0  0  0  0  0  0
  -29.8310  -20.5540   20.2000 C   0  0  0  0  0  3  0  0  0  0  0  0
  -29.2230  -19.0700   20.5480 C   0  0  0  0  0  3  0  0  0  0  0  0
  -30.1540  -17.7190   20.3300 C   0  0  0  0  0  3  0  0  0  0  0  0
  -29.7090  -16.1980   20.7840 C   0  0  0  0  0  3  0  0  0  0  0  0
  -30.5460  -14.8510   20.4040 C   0  0  0  0  0  0  0  0  0  0  0  0
  -30.4140  -12.5540   19.3770 C   0  0  0  0  0  2  0  0  0  0  0  0
  -29.4820  -12.6170   18.1430 C   0  0  0  0  0  2  0  0  0  0  0  0
  -28.0090  -12.4260   18.5560 C   0  0  0  0  0  2  0  0  0  0  0  0
  -27.6180  -13.3060   19.7720 C   0  0  0  0  0  3  0  0  0  0  0  0
  -28.6660  -13.2220   20.9020 C   0  0  0  0  0  2  0  0  0  0  0  0
  -29.9660  -13.5960   20.3340 N   0  0  0  0  0  0  0  0  0  0  0  0
  -31.7240  -14.9660   20.0490 O   0  0  0  0  0  0  0  0  0  0  0  0
  -25.2230  -13.8930   20.4760 C   0  0  0  0  0  0  0  0  0  0  0  0
  -24.1560  -13.1170   20.8390 C   0  0  0  0  0  0  0  0  0  0  0  0
  -24.6250  -11.7670   20.8220 C   0  0  0  0  0  0  0  0  0  0  0  0
  -26.2710  -13.0140   20.2520 N   0  0  0  0  0  0  0  0  0  0  0  0
  -25.9190  -11.7320   20.5250 N   0  0  0  0  0  0  0  0  0  0  0  0
  -23.9020  -10.5030   21.0110 C   0  0  0  0  0  0  0  0  0  0  0  0
  -24.3210   -9.5470   21.9620 C   0  0  0  0  0  3  0  0  0  0  0  0
  -23.5970   -8.3480   22.1400 C   0  0  0  0  0  3  0  0  0  0  0  0
  -22.4390   -8.0970   21.3640 C   0  0  0  0  0  0  0  0  0  0  0  0
  -22.0390   -9.0420   20.4040 C   0  0  0  0  0  3  0  0  0  0  0  0
  -22.7640  -10.2320   20.2250 C   0  0  0  0  0  3  0  0  0  0  0  0
  -21.6880   -6.9500   21.4500 O   0  0  0  0  0  0  0  0  0  0  0  0
  -21.6090   -6.2260   22.6130 C   0  0  0  0  0  0  0  0  0  0  0  0
  -21.1350   -6.7950   23.8140 C   0  0  0  0  0  3  0  0  0  0  0  0
  -21.0050   -5.9970   24.9680 C   0  0  0  0  0  3  0  0  0  0  0  0
  -21.3390   -4.6300   24.9210 C   0  0  0  0  0  0  0  0  0  0  0  0
  -21.8050   -4.0600   23.7230 C   0  0  0  0  0  3  0  0  0  0  0  0
  -21.9380   -4.8560   22.5720 C   0  0  0  0  0  0  0  0  0  0  0  0
  -22.3680   -4.2960   21.4160 F   0  0  0  0  0  0  0  0  0  0  0  0
  -21.2060   -3.8610   26.0260 F   0  0  0  0  0  0  0  0  0  0  0  0
  -22.7540  -13.5900   21.0920 C   0  0  0  0  0  0  0  0  0  0  0  0
  -22.0200  -12.8950   21.9540 N   0  0  0  0  0  0  0  0  0  0  0  0
  -22.3190  -14.6110   20.5610 O   0  0  0  0  0  0  0  0  0  0  0  0
  -22.3860  -12.0710   22.4050 H   0  0  0  0  0  0  0  0  0  0  0  0
  -21.0780  -13.1930   22.1650 H   0  0  0  0  0  0  0  0  0  0  0  0
  -25.3850  -15.2620   20.2940 N   0  0  0  0  0  0  0  0  0  0  0  0
  -24.6160  -15.9170   20.3980 H   0  0  0  0  0  0  0  0  0  0  0  0
  -26.2390  -15.7040   19.9810 H   0  0  0  0  0  0  0  0  0  0  0  0
  1  4  1  0
  2  1  2  0
  2  6  1  0
  4  3  2  0
  5  3  1  0
  5  7  1  0
  6  5  2  0
  7  8  1  0
  9  7  1  0
 10 12  1  0
 10  6  1  0
 11 22  2  0
 12 17  1  0
 13 21  1  0
 13 23  1  0
 14 20  1  0
 14 16  1  0
 15 21  1  0
 16 15  1  0
 17 16  2  0
 18 12  2  0
 19 18  1  0
 19 14  2  0
 20 13  1  0
 21 11  1  0
 23 25  2  0
 24 23  1  0
 26 24  1  0
 27 36  2  0
 27 32  1  0
 28 24  1  0
 28 32  1  0
 29 28  1  0
 30 31  1  0
 30 29  1  0
 31 27  1  0
 32 33  2  0
 33 34  1  0
 35 34  2  0
 36 35  1  0
 37 11  1  0
 37 38  1  0
 37 47  1  0
 38 41  1  0
 39 43  1  0
 39 38  1  0
 40 39  2  0
 43 42  1  0
 45 43  1  0
 45 46  1  0
 45 44  1  0
 47 50  1  1
 47 48  1  0
 49 47  1  0
 51  4  1  0
 51 52  2  0
 53 52  1  0
 53 54  2  0
 55 54  1  0
 56 61  1  0
 57 58  1  0
 57 56  1  0
 59 58  1  0
 59 66  1  0
 59 60  1  0
 61 55  1  0
 61 60  1  0
 62 55  2  0
 63 64  2  0
 64 83  1  0
 65 64  1  0
 65 68  1  0
 66 63  1  0
 66 67  1  0
 67 65  2  0
 68 69  1  0
 69 70  2  0
 71 74  1  0
 71 70  1  0
 72 71  2  0
 73 72  1  0
 73 68  2  0
 74 75  1  0
 75 76  1  0
 76 77  2  0
 78 77  1  0
 78 82  1  0
 79 78  2  0
 80 75  2  0
 80 79  1  0
 81 80  1  0
 83 84  1  0
 84 87  1  0
 84 86  1  0
 85 83  2  0
 88 89  1  0
 88 63  1  0
 90 88  1  0
M  ISO  4   6 101  10 101  54 100  55 100
M  END
>  <TORSDO>  (61) 
F 21

>  <SCORE>  (61) 
-13.646

>  <name>  (61) 
60

>  <ligand_id>  (61) 
60

>  <original_smiles>  (61) 
[H]c1c([H])c([H])c2c(c1[H])C([H])([H])C([H])([H])C([H])([H])C2([H])N([H])C(=O)C1([H])N(C(=O)C([H])(N([H])C(=O)C([H])(N([H])C([H])([H])[H])C([H])([H])[H])C(C([H])([H])[H])(C([H])([H])[H])C([H])([H])[H])C([H])([H])c2c([H])c(Oc3c([H])c([H])c(C([H])([H])C([H])([H])C([H])([H])C([H])([H])C(=O)N4C([H])([H])C([H])([H])C([H])([H])C([H])(n5nc(-c6c([H])c([H])c(Oc7c([H])c([H])c(F)c([H])c7F)c([H])c6[H])c(C(=O)N([H])[H])c5N([H])[H])C4([H])[H])c([H])c3N([H])[H])c([H])c([H])c2C1([H])[H]

>  <smiles>  (61) 
[H]c1c([H])c([H])c2c(c1[H])C([H])([H])C([H])([H])C([H])([H])C2([H])N([H])C(=O)C1([H])N(C(=O)C([H])(N([H])C(=O)C([H])(N([H])C([H])([H])[H])C([H])([H])[H])C(C([H])([H])[H])(C([H])([H])[H])C([H])([H])[H])C([H])([H])c2c([H])c(Oc3c([H])c([H])c(C([H])([H])C([H])([H])C([H])([H])C([H])([H])C(=O)N4C([H])([H])C([H])([H])C([H])([H])C([H])(n5nc(-c6c([H])c([H])c(Oc7c([H])c([H])c(F)c([H])c7F)c([H])c6[H])c(C(=O)N([H])[H])c5N([H])[H])C4([H])[H])c([H])c3N([H])[H])c([H])c([H])c2C1([H])[H]

$$$$
61:0:0
     RDKit          3D

 90 98  0  0  1  0  0  0  0  0999 V2000
  -26.8510  -22.2970   19.6700 C   0  0  0  0  0  3  0  0  0  0  0  0
  -27.1010  -23.6500   20.0120 C   0  0  0  0  0  3  0  0  0  0  0  0
  -29.3980  -22.9980   20.2180 C   0  0  0  0  0  3  0  0  0  0  0  0
  -27.8210  -21.2640   19.5870 C   0  0  0  0  0  0  0  0  0  0  0  0
  -29.1900  -21.4780   19.9010 C   0  0  0  0  0  0  0  0  0  0  0  0
  -28.3850  -24.1920   20.2590 C   0  0  0  0  0  0  0  0  0  0  0  0
  -26.9120  -19.6380   18.0030 C   0  0  0  0  0  2  0  0  0  0  0  0
  -27.3020  -19.9290   19.2540 C   0  0  0  0  0  0  0  0  0  0  0  0
  -27.1950  -18.9230   20.3850 C   0  0  0  0  0  1  0  0  0  0  0  0
  -28.4660  -25.7280   20.5370 O   0  0  0  0  0  0  0  0  0  0  0  0
  -24.5140  -31.6790   23.1850 C   0  0  0  0  0  0  0  0  0  0  0  0
  -27.4400  -26.8320   20.4010 C   0  0  0  0  0  0  0  0  0  0  0  0
  -23.4840  -30.2140   21.4960 C   0  0  0  0  0  3  0  0  0  0  0  0
  -25.0850  -28.6600   20.1790 C   0  0  0  0  0  0  0  0  0  0  0  0
  -26.0450  -30.5150   21.5170 C   0  0  0  0  0  2  0  0  0  0  0  0
  -26.2100  -29.0960   20.8890 C   0  0  0  0  0  0  0  0  0  0  0  0
  -27.3740  -28.1990   20.9890 C   0  0  0  0  0  3  0  0  0  0  0  0
  -26.3120  -26.6050   19.5740 C   0  0  0  0  0  3  0  0  0  0  0  0
  -25.1650  -27.4360   19.5000 C   0  0  0  0  0  3  0  0  0  0  0  0
  -23.8290  -29.5320   20.1440 C   0  0  0  0  0  2  0  0  0  0  0  0
  -24.6980  -30.8340   22.1190 N   0  0  0  0  0  0  0  0  0  0  0  0
  -23.3830  -31.9280   23.6330 O   0  0  0  0  0  0  0  0  0  0  0  0
  -22.7740  -29.2000   22.4320 C   0  0  0  0  0  0  0  0  0  0  0  0
  -21.4520  -29.0080   22.2590 N   0  0  0  0  0  0  0  0  0  0  0  0
  -23.4210  -28.5860   23.2830 O   0  0  0  0  0  0  0  0  0  0  0  0
  -20.9820  -29.5570   21.5530 H   0  0  0  0  0  0  0  0  0  0  0  0
  -18.0750  -27.7410   22.6650 C   0  0  0  0  0  0  0  0  0  0  0  0
  -20.6230  -28.0480   22.9960 C   0  0  0  0  0  3  0  0  0  0  0  0
  -20.7630  -26.6250   22.4100 C   0  0  0  0  0  2  0  0  0  0  0  0
  -19.6930  -26.2960   21.3630 C   0  0  0  0  0  2  0  0  0  0  0  0
  -18.2930  -26.4060   21.9730 C   0  0  0  0  0  2  0  0  0  0  0  0
  -19.1690  -28.5200   23.1310 C   0  0  0  0  0  0  0  0  0  0  0  0
  -18.9090  -29.7660   23.7400 C   0  0  0  0  0  3  0  0  0  0  0  0
  -17.5900  -30.2370   23.8860 C   0  0  0  0  0  3  0  0  0  0  0  0
  -16.5120  -29.4570   23.4320 C   0  0  0  0  0  3  0  0  0  0  0  0
  -16.7550  -28.2110   22.8290 C   0  0  0  0  0  3  0  0  0  0  0  0
  -25.7150  -32.3860   23.8820 C   0  0  0  0  0  3  0  0  0  0  0  0
  -26.1300  -31.7000   25.2430 C   0  0  1  0  0  0  0  0  0  0  0  0
  -24.9470  -31.4700   26.2120 C   0  0  0  0  0  1  0  0  0  0  0  0
  -26.7990  -30.3280   24.9930 C   0  0  0  0  0  1  0  0  0  0  0  0
  -27.1820  -32.5730   25.9690 C   0  0  0  0  0  1  0  0  0  0  0  0
  -25.3390  -33.7920   24.1200 N   0  0  0  0  0  0  0  0  0  0  0  0
  -25.7290  -34.8300   23.3680 C   0  0  0  0  0  0  0  0  0  0  0  0
  -26.5020  -34.7070   22.4150 O   0  0  0  0  0  0  0  0  0  0  0  0
  -24.6620  -33.9570   24.8490 H   0  0  0  0  0  0  0  0  0  0  0  0
  -24.0200  -36.5860   22.7790 C   0  0  0  0  0  1  0  0  0  0  0  0
  -25.1750  -36.2250   23.7270 C   0  0  0  0  0  3  0  0  0  0  0  0
  -27.1920  -37.1820   24.7540 C   0  0  0  0  0  1  0  0  0  0  0  0
  -26.1980  -37.2940   23.6890 N   0  0  0  0  0  0  0  0  0  0  0  0
  -25.7650  -38.2100   23.7550 H   0  0  0  0  0  0  0  0  0  0  0  0
  -30.1600  -19.9950   20.0670 C   0  0  0  0  0  2  0  0  0  0  0  0
  -30.1710  -18.3110   19.3500 C   0  0  0  0  0  2  0  0  0  0  0  0
  -30.9580  -15.4110   19.6780 C   0  0  0  0  0  0  0  0  0  0  0  0
  -30.8190  -12.9250   18.8990 C   0  0  0  0  0  2  0  0  0  0  0  0
  -29.8240  -12.7160   17.7260 C   0  0  0  0  0  2  0  0  0  0  0  0
  -28.3980  -12.4960   18.2550 C   0  0  0  0  0  2  0  0  0  0  0  0
  -28.0460  -13.4970   19.3830 C   0  0  0  0  0  3  0  0  0  0  0  0
  -29.1620  -13.6450   20.4430 C   0  0  0  0  0  2  0  0  0  0  0  0
  -30.3710  -14.1060   19.7360 N   0  0  0  0  0  0  0  0  0  0  0  0
  -32.1260  -15.3720   19.2620 O   0  0  0  0  0  0  0  0  0  0  0  0
  -30.2510  -16.7100   19.9090 N   0  0  0  0  0  0  0  0  0  0  0  0
  -29.3930  -16.4970   20.3950 H   0  0  0  0  0  0  0  0  0  0  0  0
  -25.7960  -14.1560   20.3800 C   0  0  0  0  0  0  0  0  0  0  0  0
  -24.7100  -13.4300   20.7800 C   0  0  0  0  0  0  0  0  0  0  0  0
  -25.0640  -12.0570   20.6040 C   0  0  0  0  0  0  0  0  0  0  0  0
  -26.7430  -13.2320   19.9780 N   0  0  0  0  0  0  0  0  0  0  0  0
  -26.3200  -11.9560   20.1780 N   0  0  0  0  0  0  0  0  0  0  0  0
  -24.2560  -10.8400   20.7590 C   0  0  0  0  0  0  0  0  0  0  0  0
  -24.6000   -9.8360   21.6920 C   0  0  0  0  0  3  0  0  0  0  0  0
  -23.7930   -8.6870   21.8380 C   0  0  0  0  0  3  0  0  0  0  0  0
  -22.6280   -8.5330   21.0520 C   0  0  0  0  0  0  0  0  0  0  0  0
  -22.3000   -9.5240   20.1090 C   0  0  0  0  0  3  0  0  0  0  0  0
  -23.1070  -10.6640   19.9610 C   0  0  0  0  0  3  0  0  0  0  0  0
  -21.7990   -7.4380   21.1080 O   0  0  0  0  0  0  0  0  0  0  0  0
  -21.5620   -6.7730   22.2850 C   0  0  0  0  0  0  0  0  0  0  0  0
  -20.9880   -7.4170   23.4020 C   0  0  0  0  0  3  0  0  0  0  0  0
  -20.6980   -6.6800   24.5670 C   0  0  0  0  0  3  0  0  0  0  0  0
  -20.9710   -5.3000   24.6140 C   0  0  0  0  0  0  0  0  0  0  0  0
  -21.5380   -4.6560   23.5000 C   0  0  0  0  0  3  0  0  0  0  0  0
  -21.8290   -5.3900   22.3380 C   0  0  0  0  0  0  0  0  0  0  0  0
  -22.3550   -4.7600   21.2600 F   0  0  0  0  0  0  0  0  0  0  0  0
  -20.6850   -4.5890   25.7310 F   0  0  0  0  0  0  0  0  0  0  0  0
  -23.3820  -13.9850   21.2050 C   0  0  0  0  0  0  0  0  0  0  0  0
  -22.6820  -13.2880   22.0920 N   0  0  0  0  0  0  0  0  0  0  0  0
  -22.9810  -15.0700   20.7850 O   0  0  0  0  0  0  0  0  0  0  0  0
  -23.0230  -12.4100   22.4520 H   0  0  0  0  0  0  0  0  0  0  0  0
  -21.7940  -13.6410   22.4180 H   0  0  0  0  0  0  0  0  0  0  0  0
  -26.0500  -15.5220   20.2940 N   0  0  0  0  0  0  0  0  0  0  0  0
  -25.3440  -16.2130   20.5210 H   0  0  0  0  0  0  0  0  0  0  0  0
  -26.8890  -15.9270   19.9000 H   0  0  0  0  0  0  0  0  0  0  0  0
  1  2  1  0
  2  6  2  0
  3  6  1  0
  4  1  2  0
  4  5  1  0
  5 51  1  0
  5  3  2  0
  6 10  1  0
  7  8  2  0
  8  4  1  0
  8  9  1  0
 11 22  2  0
 12 10  1  0
 12 17  1  0
 13 21  1  0
 13 23  1  0
 14 16  1  0
 15 21  1  0
 16 17  2  0
 16 15  1  0
 18 12  2  0
 19 18  1  0
 19 14  2  0
 20 14  1  0
 20 13  1  0
 21 11  1  0
 23 25  2  0
 24 23  1  0
 26 24  1  0
 27 36  2  0
 27 32  1  0
 28 24  1  0
 28 32  1  0
 29 28  1  0
 30 31  1  0
 30 29  1  0
 31 27  1  0
 32 33  2  0
 33 34  1  0
 35 34  2  0
 36 35  1  0
 37 11  1  0
 37 42  1  0
 37 38  1  0
 38 41  1  1
 38 39  1  0
 40 38  1  0
 42 45  1  0
 43 47  1  0
 43 42  1  0
 44 43  2  0
 47 46  1  0
 49 47  1  0
 49 50  1  0
 49 48  1  0
 52 61  1  0
 52 51  1  0
 53 59  1  0
 53 61  1  0
 54 59  1  0
 55 56  1  0
 55 54  1  0
 57 56  1  0
 57 66  1  0
 57 58  1  0
 59 58  1  0
 60 53  2  0
 61 62  1  0
 63 64  2  0
 64 83  1  0
 65 68  1  0
 65 64  1  0
 66 67  1  0
 66 63  1  0
 67 65  2  0
 68 69  1  0
 69 70  2  0
 71 74  1  0
 71 70  1  0
 72 71  2  0
 73 72  1  0
 73 68  2  0
 74 75  1  0
 75 80  2  0
 75 76  1  0
 76 77  2  0
 77 78  1  0
 78 82  1  0
 79 78  2  0
 80 79  1  0
 81 80  1  0
 83 84  1  0
 84 87  1  0
 84 86  1  0
 85 83  2  0
 88 63  1  0
 88 89  1  0
 90 88  1  0
M  ISO  4   6 101  10 101  53 100  61 100
M  END
>  <TORSDO>  (62) 
F 19

>  <SCORE>  (62) 
-13.698

>  <name>  (62) 
61

>  <ligand_id>  (62) 
61

>  <original_smiles>  (62) 
[H]C([H])=C(c1c([H])c([H])c(Oc2c([H])c([H])c3c(c2[H])C([H])([H])N(C(=O)C([H])(N([H])C(=O)C([H])(N([H])C([H])([H])[H])C([H])([H])[H])C(C([H])([H])[H])(C([H])([H])[H])C([H])([H])[H])C([H])(C(=O)N([H])C2([H])c4c([H])c([H])c([H])c([H])c4C([H])([H])C([H])([H])C2([H])[H])C3([H])[H])c([H])c1C([H])([H])C([H])([H])N([H])C(=O)N1C([H])([H])C([H])([H])C([H])([H])C([H])(n2nc(-c3c([H])c([H])c(Oc4c([H])c([H])c(F)c([H])c4F)c([H])c3[H])c(C(=O)N([H])[H])c2N([H])[H])C1([H])[H])C([H])([H])[H]

>  <smiles>  (62) 
[H]C([H])=C(c1c([H])c([H])c(Oc2c([H])c([H])c3c(c2[H])C([H])([H])N(C(=O)C([H])(N([H])C(=O)C([H])(N([H])C([H])([H])[H])C([H])([H])[H])C(C([H])([H])[H])(C([H])([H])[H])C([H])([H])[H])C([H])(C(=O)N([H])C2([H])c4c([H])c([H])c([H])c([H])c4C([H])([H])C([H])([H])C2([H])[H])C3([H])[H])c([H])c1C([H])([H])C([H])([H])N([H])C(=O)N1C([H])([H])C([H])([H])C([H])([H])C([H])(n2nc(-c3c([H])c([H])c(Oc4c([H])c([H])c(F)c([H])c4F)c([H])c3[H])c(C(=O)N([H])[H])c2N([H])[H])C1([H])[H])C([H])([H])[H]

$$$$
62:0:0
     RDKit          3D

 90 98  0  0  1  0  0  0  0  0999 V2000
  -29.3800  -22.3050   19.4640 C   0  0  0  0  0  3  0  0  0  0  0  0
  -27.8670  -22.2170   21.2120 C   0  0  0  0  0  3  0  0  0  0  0  0
  -28.7390  -21.3930   20.3890 C   0  0  0  0  0  0  0  0  0  0  0  0
  -29.1870  -23.7760   19.3980 C   0  0  0  0  0  0  0  0  0  0  0  0
  -27.6600  -23.6770   21.1550 C   0  0  0  0  0  0  0  0  0  0  0  0
  -28.3000  -24.5870   20.2270 C   0  0  0  0  0  0  0  0  0  0  0  0
  -30.0040  -24.5280   18.3650 C   0  0  0  0  0  1  0  0  0  0  0  0
  -26.7860  -24.2370   22.0830 N   0  0  0  0  0  0  0  0  0  0  0  0
  -26.5900  -23.7320   22.9410 H   0  0  0  0  0  0  0  0  0  0  0  0
  -26.8090  -25.2450   22.2000 H   0  0  0  0  0  0  0  0  0  0  0  0
  -28.2660  -26.1000   20.2170 O   0  0  0  0  0  0  0  0  0  0  0  0
  -24.6340  -31.8930   23.2400 C   0  0  0  0  0  0  0  0  0  0  0  0
  -27.1820  -27.0860   20.2170 C   0  0  0  0  0  0  0  0  0  0  0  0
  -23.4240  -30.4930   21.6120 C   0  0  0  0  0  3  0  0  0  0  0  0
  -24.8610  -28.8910   20.1850 C   0  0  0  0  0  0  0  0  0  0  0  0
  -25.9810  -30.7300   21.4380 C   0  0  0  0  0  2  0  0  0  0  0  0
  -26.0460  -29.3240   20.7920 C   0  0  0  0  0  0  0  0  0  0  0  0
  -27.2010  -28.4380   20.7870 C   0  0  0  0  0  3  0  0  0  0  0  0
  -25.9680  -26.7750   19.5670 C   0  0  0  0  0  3  0  0  0  0  0  0
  -24.8400  -27.6340   19.5570 C   0  0  0  0  0  3  0  0  0  0  0  0
  -23.6380  -29.8030   20.2370 C   0  0  0  0  0  2  0  0  0  0  0  0
  -24.7010  -31.0640   22.1510 N   0  0  0  0  0  0  0  0  0  0  0  0
  -23.5510  -32.1820   23.7730 O   0  0  0  0  0  0  0  0  0  0  0  0
  -22.7440  -29.4970   22.5860 C   0  0  0  0  0  0  0  0  0  0  0  0
  -21.4150  -29.3210   22.4620 N   0  0  0  0  0  0  0  0  0  0  0  0
  -23.4160  -28.8810   23.4180 O   0  0  0  0  0  0  0  0  0  0  0  0
  -20.9280  -29.8680   21.7670 H   0  0  0  0  0  0  0  0  0  0  0  0
  -18.0430  -28.0930   22.9710 C   0  0  0  0  0  0  0  0  0  0  0  0
  -20.5990  -28.3840   23.2400 C   0  0  0  0  0  3  0  0  0  0  0  0
  -20.7150  -26.9470   22.6800 C   0  0  0  0  0  2  0  0  0  0  0  0
  -19.6190  -26.6050   21.6650 C   0  0  0  0  0  2  0  0  0  0  0  0
  -18.2350  -26.7410   22.3050 C   0  0  0  0  0  2  0  0  0  0  0  0
  -19.1530  -28.8710   23.3950 C   0  0  0  0  0  0  0  0  0  0  0  0
  -18.9180  -30.1340   23.9800 C   0  0  0  0  0  3  0  0  0  0  0  0
  -17.6070  -30.6210   24.1430 C   0  0  0  0  0  3  0  0  0  0  0  0
  -16.5120  -29.8400   23.7330 C   0  0  0  0  0  3  0  0  0  0  0  0
  -16.7310  -28.5780   23.1530 C   0  0  0  0  0  3  0  0  0  0  0  0
  -25.9140  -32.5320   23.8600 C   0  0  0  0  0  3  0  0  0  0  0  0
  -26.4320  -31.7660   25.1410 C   0  0  1  0  0  0  0  0  0  0  0  0
  -25.3400  -31.5350   26.2130 C   0  0  0  0  0  1  0  0  0  0  0  0
  -27.0130  -30.3850   24.7600 C   0  0  0  0  0  1  0  0  0  0  0  0
  -27.5850  -32.5620   25.7960 C   0  0  0  0  0  1  0  0  0  0  0  0
  -25.6020  -33.9310   24.1970 N   0  0  0  0  0  0  0  0  0  0  0  0
  -25.9120  -34.9910   23.4370 C   0  0  0  0  0  0  0  0  0  0  0  0
  -26.5540  -34.8930   22.3890 O   0  0  0  0  0  0  0  0  0  0  0  0
  -25.0250  -34.0800   25.0130 H   0  0  0  0  0  0  0  0  0  0  0  0
  -24.1640  -36.7800   23.1480 C   0  0  0  0  0  1  0  0  0  0  0  0
  -25.4340  -36.3770   23.9140 C   0  0  0  0  0  3  0  0  0  0  0  0
  -27.5900  -37.2770   24.6740 C   0  0  0  0  0  1  0  0  0  0  0  0
  -26.4570  -37.4360   23.7650 N   0  0  0  0  0  0  0  0  0  0  0  0
  -26.0510  -38.3540   23.9220 H   0  0  0  0  0  0  0  0  0  0  0  0
  -28.7330  -19.6760   20.4740 C   0  0  0  0  0  2  0  0  0  0  0  0
  -29.8530  -18.3480   20.2620 C   0  0  0  0  0  3  0  0  0  0  0  0
  -29.5390  -16.6370   20.5210 C   0  0  0  0  0  3  0  0  0  0  0  0
  -30.4180  -15.1940   20.2060 C   0  0  0  0  0  0  0  0  0  0  0  0
  -30.3700  -12.8020   19.2500 C   0  0  0  0  0  2  0  0  0  0  0  0
  -29.4010  -12.7220   18.0430 C   0  0  0  0  0  2  0  0  0  0  0  0
  -27.9560  -12.4700   18.5120 C   0  0  0  0  0  2  0  0  0  0  0  0
  -27.5650  -13.3780   19.7050 C   0  0  0  0  0  3  0  0  0  0  0  0
  -28.6500  -13.4130   20.7990 C   0  0  0  0  0  2  0  0  0  0  0  0
  -29.8920  -13.8860   20.1710 N   0  0  0  0  0  0  0  0  0  0  0  0
  -31.6090  -15.2640   19.8700 O   0  0  0  0  0  0  0  0  0  0  0  0
  -25.2140  -13.9280   20.5400 C   0  0  0  0  0  0  0  0  0  0  0  0
  -24.1630  -13.1440   20.9270 C   0  0  0  0  0  0  0  0  0  0  0  0
  -24.6290  -11.7950   20.8540 C   0  0  0  0  0  0  0  0  0  0  0  0
  -26.2490  -13.0580   20.2450 N   0  0  0  0  0  0  0  0  0  0  0  0
  -25.9100  -11.7680   20.5010 N   0  0  0  0  0  0  0  0  0  0  0  0
  -23.9100  -10.5270   21.0430 C   0  0  0  0  0  0  0  0  0  0  0  0
  -24.3570   -9.5520   21.9610 C   0  0  0  0  0  3  0  0  0  0  0  0
  -23.6350   -8.3520   22.1390 C   0  0  0  0  0  3  0  0  0  0  0  0
  -22.4520   -8.1180   21.3980 C   0  0  0  0  0  0  0  0  0  0  0  0
  -22.0230   -9.0830   20.4700 C   0  0  0  0  0  3  0  0  0  0  0  0
  -22.7460  -10.2740   20.2900 C   0  0  0  0  0  3  0  0  0  0  0  0
  -21.7010   -6.9710   21.4850 O   0  0  0  0  0  0  0  0  0  0  0  0
  -21.6510   -6.2290   22.6380 C   0  0  0  0  0  0  0  0  0  0  0  0
  -21.1940   -6.7760   23.8570 C   0  0  0  0  0  3  0  0  0  0  0  0
  -21.0930   -5.9600   25.0010 C   0  0  0  0  0  3  0  0  0  0  0  0
  -21.4390   -4.5980   24.9270 C   0  0  0  0  0  0  0  0  0  0  0  0
  -21.8880   -4.0500   23.7140 C   0  0  0  0  0  3  0  0  0  0  0  0
  -21.9910   -4.8620   22.5710 C   0  0  0  0  0  0  0  0  0  0  0  0
  -22.4040   -4.3250   21.3990 F   0  0  0  0  0  0  0  0  0  0  0  0
  -21.3340   -3.8110   26.0250 F   0  0  0  0  0  0  0  0  0  0  0  0
  -22.7740  -13.6130   21.2480 C   0  0  0  0  0  0  0  0  0  0  0  0
  -22.0750  -12.9010   22.1240 N   0  0  0  0  0  0  0  0  0  0  0  0
  -22.3200  -14.6470   20.7580 O   0  0  0  0  0  0  0  0  0  0  0  0
  -22.4550  -12.0660   22.5420 H   0  0  0  0  0  0  0  0  0  0  0  0
  -21.1440  -13.1970   22.3820 H   0  0  0  0  0  0  0  0  0  0  0  0
  -25.3700  -15.3030   20.3880 N   0  0  0  0  0  0  0  0  0  0  0  0
  -24.6090  -15.9550   20.5430 H   0  0  0  0  0  0  0  0  0  0  0  0
  -26.2120  -15.7510   20.0500 H   0  0  0  0  0  0  0  0  0  0  0  0
  1  3  1  0
  3 52  1  0
  3  2  2  0
  4  1  2  0
  4  6  1  0
  5  2  1  0
  5  8  1  0
  6  5  2  0
  7  4  1  0
  8 10  1  0
  8  9  1  0
 11  6  1  0
 12 23  2  0
 13 11  1  0
 13 18  1  0
 14 22  1  0
 14 24  1  0
 15 21  1  0
 15 17  1  0
 16 22  1  0
 17 16  1  0
 18 17  2  0
 19 13  2  0
 20 19  1  0
 20 15  2  0
 21 14  1  0
 22 12  1  0
 24 26  2  0
 25 24  1  0
 27 25  1  0
 28 37  2  0
 28 33  1  0
 29 25  1  0
 29 33  1  0
 30 29  1  0
 31 32  1  0
 31 30  1  0
 32 28  1  0
 33 34  2  0
 34 35  1  0
 36 35  2  0
 37 36  1  0
 38 12  1  0
 38 43  1  0
 38 39  1  0
 39 42  1  1
 39 40  1  0
 41 39  1  0
 43 46  1  0
 44 48  1  0
 44 43  1  0
 45 44  2  0
 48 47  1  0
 50 48  1  0
 50 51  1  0
 50 49  1  0
 53 52  1  0
 53 54  2  0
 55 54  1  0
 56 61  1  0
 57 58  1  0
 57 56  1  0
 59 58  1  0
 59 66  1  0
 59 60  1  0
 61 55  1  0
 61 60  1  0
 62 55  2  0
 63 64  2  0
 64 83  1  0
 65 64  1  0
 65 68  1  0
 66 67  1  0
 66 63  1  0
 67 65  2  0
 68 69  1  0
 69 70  2  0
 71 74  1  0
 71 70  1  0
 72 71  2  0
 73 72  1  0
 73 68  2  0
 74 75  1  0
 75 76  1  0
 76 77  2  0
 78 77  1  0
 78 82  1  0
 79 78  2  0
 80 75  2  0
 80 79  1  0
 81 80  1  0
 83 84  1  0
 84 87  1  0
 84 86  1  0
 85 83  2  0
 88 63  1  0
 88 89  1  0
 90 88  1  0
M  ISO  4   6 101  11 101  54 100  55 100
M  END
>  <TORSDO>  (63) 
F 20

>  <SCORE>  (63) 
-15.936

>  <name>  (63) 
62

>  <ligand_id>  (63) 
62

>  <original_smiles>  (63) 
[H]c1c([H])c([H])c2c(c1[H])C([H])([H])C([H])([H])C([H])([H])C2([H])N([H])C(=O)C1([H])N(C(=O)C([H])(N([H])C(=O)C([H])(N([H])C([H])([H])[H])C([H])([H])[H])C(C([H])([H])[H])(C([H])([H])[H])C([H])([H])[H])C([H])([H])c2c([H])c(Oc3c(N([H])[H])c([H])c(C([H])([H])C([H])([H])C([H])([H])C(=O)N4C([H])([H])C([H])([H])C([H])([H])C([H])(n5nc(-c6c([H])c([H])c(Oc7c([H])c([H])c(F)c([H])c7F)c([H])c6[H])c(C(=O)N([H])[H])c5N([H])[H])C4([H])[H])c([H])c3C([H])([H])[H])c([H])c([H])c2C1([H])[H]

>  <smiles>  (63) 
[H]c1c([H])c([H])c2c(c1[H])C([H])([H])C([H])([H])C([H])([H])C2([H])N([H])C(=O)C1([H])N(C(=O)C([H])(N([H])C(=O)C([H])(N([H])C([H])([H])[H])C([H])([H])[H])C(C([H])([H])[H])(C([H])([H])[H])C([H])([H])[H])C([H])([H])c2c([H])c(Oc3c(N([H])[H])c([H])c(C([H])([H])C([H])([H])C([H])([H])C(=O)N4C([H])([H])C([H])([H])C([H])([H])C([H])(n5nc(-c6c([H])c([H])c(Oc7c([H])c([H])c(F)c([H])c7F)c([H])c6[H])c(C(=O)N([H])[H])c5N([H])[H])C4([H])[H])c([H])c3C([H])([H])[H])c([H])c([H])c2C1([H])[H]

$$$$
63:0:0
     RDKit          3D

 91 99  0  0  1  0  0  0  0  0999 V2000
  -27.2120  -25.6220   21.4950 C   0  0  0  0  0  3  0  0  0  0  0  0
  -26.6970  -24.6770   22.3720 C   0  0  0  0  0  3  0  0  0  0  0  0
  -28.6890  -23.9120   20.4010 C   0  0  0  0  0  0  0  0  0  0  0  0
  -28.2210  -23.0440   21.4540 C   0  0  0  0  0  0  0  0  0  0  0  0
  -28.1740  -25.3730   20.4680 C   0  0  0  0  0  0  0  0  0  0  0  0
  -27.2100  -23.3970   22.3620 C   0  0  0  0  0  0  0  0  0  0  0  0
  -28.8140  -21.6720   21.7330 C   0  0  0  0  0  1  0  0  0  0  0  0
  -26.7450  -22.5040   23.2720 F   0  0  0  0  0  0  0  0  0  0  0  0
  -28.4320  -26.6700   19.7980 O   0  0  0  0  0  0  0  0  0  0  0  0
  -24.6320  -32.0330   23.1800 C   0  0  0  0  0  0  0  0  0  0  0  0
  -27.4180  -27.7170   19.7480 C   0  0  0  0  0  0  0  0  0  0  0  0
  -23.4870  -30.7070   21.4450 C   0  0  0  0  0  3  0  0  0  0  0  0
  -25.0040  -29.3420   19.8730 C   0  0  0  0  0  0  0  0  0  0  0  0
  -26.0220  -31.1240   21.2800 C   0  0  0  0  0  2  0  0  0  0  0  0
  -26.1670  -29.7970   20.5110 C   0  0  0  0  0  0  0  0  0  0  0  0
  -27.3750  -29.0000   20.4390 C   0  0  0  0  0  3  0  0  0  0  0  0
  -26.2320  -27.3810   19.0640 C   0  0  0  0  0  3  0  0  0  0  0  0
  -25.0510  -28.1500   19.1320 C   0  0  0  0  0  3  0  0  0  0  0  0
  -23.7260  -30.1590   20.0120 C   0  0  0  0  0  2  0  0  0  0  0  0
  -24.7340  -31.3060   22.0250 N   0  0  0  0  0  0  0  0  0  0  0  0
  -23.5400  -32.2150   23.7390 O   0  0  0  0  0  0  0  0  0  0  0  0
  -22.8750  -29.5920   22.3300 C   0  0  0  0  0  0  0  0  0  0  0  0
  -21.5610  -29.3450   22.1870 N   0  0  0  0  0  0  0  0  0  0  0  0
  -23.5860  -28.9550   23.1110 O   0  0  0  0  0  0  0  0  0  0  0  0
  -21.0390  -29.9180   21.5380 H   0  0  0  0  0  0  0  0  0  0  0  0
  -18.2710  -27.8750   22.5680 C   0  0  0  0  0  0  0  0  0  0  0  0
  -20.8010  -28.3040   22.8850 C   0  0  0  0  0  3  0  0  0  0  0  0
  -21.0120  -26.9220   22.2220 C   0  0  0  0  0  2  0  0  0  0  0  0
  -19.9450  -26.5870   21.1750 C   0  0  0  0  0  2  0  0  0  0  0  0
  -18.5500  -26.5890   21.8090 C   0  0  0  0  0  2  0  0  0  0  0  0
  -19.3270  -28.6880   23.0600 C   0  0  0  0  0  0  0  0  0  0  0  0
  -19.0090  -29.8880   23.7310 C   0  0  0  0  0  3  0  0  0  0  0  0
  -17.6700  -30.2790   23.9150 C   0  0  0  0  0  3  0  0  0  0  0  0
  -16.6280  -29.4630   23.4380 C   0  0  0  0  0  3  0  0  0  0  0  0
  -16.9300  -28.2620   22.7720 C   0  0  0  0  0  3  0  0  0  0  0  0
  -25.8830  -32.6860   23.8450 C   0  0  0  0  0  3  0  0  0  0  0  0
  -26.3730  -31.9140   25.1320 C   0  0  1  0  0  0  0  0  0  0  0  0
  -25.2510  -31.6450   26.1630 C   0  0  0  0  0  1  0  0  0  0  0  0
  -26.9980  -30.5530   24.7550 C   0  0  0  0  0  1  0  0  0  0  0  0
  -27.4830  -32.7280   25.8380 C   0  0  0  0  0  1  0  0  0  0  0  0
  -25.5370  -34.0760   24.1810 N   0  0  0  0  0  0  0  0  0  0  0  0
  -25.8650  -35.1460   23.4440 C   0  0  0  0  0  0  0  0  0  0  0  0
  -26.5550  -35.0660   22.4240 O   0  0  0  0  0  0  0  0  0  0  0  0
  -24.9230  -34.2100   24.9710 H   0  0  0  0  0  0  0  0  0  0  0  0
  -24.1070  -36.9130   23.0890 C   0  0  0  0  0  1  0  0  0  0  0  0
  -25.3470  -36.5210   23.9090 C   0  0  0  0  0  3  0  0  0  0  0  0
  -27.4530  -37.4400   24.7750 C   0  0  0  0  0  1  0  0  0  0  0  0
  -26.3600  -37.5950   23.8200 N   0  0  0  0  0  0  0  0  0  0  0  0
  -25.9340  -38.5050   23.9700 H   0  0  0  0  0  0  0  0  0  0  0  0
  -29.7670  -23.0860   19.4480 C   0  0  0  0  0  2  0  0  0  0  0  0
  -29.9050  -21.3820   19.1360 C   0  0  0  0  0  3  0  0  0  0  0  0
  -30.4970  -20.0180   20.0050 C   0  0  0  0  0  3  0  0  0  0  0  0
  -30.9040  -18.4790   19.3840 C   0  0  0  0  0  2  0  0  0  0  0  0
  -31.5880  -15.8530   20.0400 C   0  0  0  0  0  0  0  0  0  0  0  0
  -31.5440  -13.4030   19.3720 C   0  0  0  0  0  2  0  0  0  0  0  0
  -30.6630  -13.2020   18.1150 C   0  0  0  0  0  2  0  0  0  0  0  0
  -29.1860  -13.0130   18.5060 C   0  0  0  0  0  2  0  0  0  0  0  0
  -28.7200  -14.0440   19.5670 C   0  0  0  0  0  3  0  0  0  0  0  0
  -29.7300  -14.2030   20.7260 C   0  0  0  0  0  2  0  0  0  0  0  0
  -31.0180  -14.5800   20.1300 N   0  0  0  0  0  0  0  0  0  0  0  0
  -32.7830  -15.9000   19.7280 O   0  0  0  0  0  0  0  0  0  0  0  0
  -30.7960  -17.0450   20.0860 N   0  0  0  0  0  0  0  0  0  0  0  0
  -29.8670  -16.8540   20.4310 H   0  0  0  0  0  0  0  0  0  0  0  0
  -26.3460  -14.6680   20.2880 C   0  0  0  0  0  0  0  0  0  0  0  0
  -25.2570  -13.9160   20.6310 C   0  0  0  0  0  0  0  0  0  0  0  0
  -25.6870  -12.5540   20.5840 C   0  0  0  0  0  0  0  0  0  0  0  0
  -27.3690  -13.7690   20.0450 N   0  0  0  0  0  0  0  0  0  0  0  0
  -26.9810  -12.4890   20.2880 N   0  0  0  0  0  0  0  0  0  0  0  0
  -24.9240  -11.3080   20.7410 C   0  0  0  0  0  0  0  0  0  0  0  0
  -25.2220  -10.3840   21.7660 C   0  0  0  0  0  3  0  0  0  0  0  0
  -24.4600   -9.2040   21.9100 C   0  0  0  0  0  3  0  0  0  0  0  0
  -23.3850   -8.9410   21.0280 C   0  0  0  0  0  0  0  0  0  0  0  0
  -23.1080   -9.8530   19.9940 C   0  0  0  0  0  3  0  0  0  0  0  0
  -23.8700  -11.0240   19.8490 C   0  0  0  0  0  3  0  0  0  0  0  0
  -22.6070   -7.8110   21.0770 O   0  0  0  0  0  0  0  0  0  0  0  0
  -22.2810   -7.2110   22.2680 C   0  0  0  0  0  0  0  0  0  0  0  0
  -21.5940   -7.9040   23.2890 C   0  0  0  0  0  3  0  0  0  0  0  0
  -21.2190   -7.2310   24.4680 C   0  0  0  0  0  3  0  0  0  0  0  0
  -21.5200   -5.8640   24.6250 C   0  0  0  0  0  0  0  0  0  0  0  0
  -22.1970   -5.1700   23.6070 C   0  0  0  0  0  3  0  0  0  0  0  0
  -22.5730   -5.8420   22.4310 C   0  0  0  0  0  0  0  0  0  0  0  0
  -23.2080   -5.1630   21.4450 F   0  0  0  0  0  0  0  0  0  0  0  0
  -21.1510   -5.2140   25.7530 F   0  0  0  0  0  0  0  0  0  0  0  0
  -23.8700  -14.4270   20.8880 C   0  0  0  0  0  0  0  0  0  0  0  0
  -23.1210  -13.7500   21.7500 N   0  0  0  0  0  0  0  0  0  0  0  0
  -23.4600  -15.4590   20.3580 O   0  0  0  0  0  0  0  0  0  0  0  0
  -23.4690  -12.9150   22.1990 H   0  0  0  0  0  0  0  0  0  0  0  0
  -22.1870  -14.0670   21.9630 H   0  0  0  0  0  0  0  0  0  0  0  0
  -26.5460  -16.0380   20.1370 N   0  0  0  0  0  0  0  0  0  0  0  0
  -25.7910  -16.7060   20.2470 H   0  0  0  0  0  0  0  0  0  0  0  0
  -27.3970  -16.4600   19.7930 H   0  0  0  0  0  0  0  0  0  0  0  0
  1  2  1  0
  3  5  1  0
  3  4  2  0
  4  7  1  0
  4  6  1  0
  5  1  2  0
  6  2  2  0
  6  8  1  0
  9  5  1  0
 10 21  2  0
 11  9  1  0
 11 16  1  0
 12 20  1  0
 12 22  1  0
 13 19  1  0
 13 15  1  0
 14 20  1  0
 15 14  1  0
 16 15  2  0
 17 18  1  0
 17 11  2  0
 18 13  2  0
 19 12  1  0
 20 10  1  0
 22 24  2  0
 23 22  1  0
 25 23  1  0
 26 35  2  0
 26 31  1  0
 27 23  1  0
 27 31  1  0
 28 27  1  0
 29 30  1  0
 29 28  1  0
 30 26  1  0
 31 32  2  0
 32 33  1  0
 34 33  2  0
 35 34  1  0
 36 10  1  0
 36 41  1  0
 36 37  1  0
 37 40  1  1
 37 38  1  0
 39 37  1  0
 41 44  1  0
 42 46  1  0
 42 41  1  0
 43 42  2  0
 46 45  1  0
 48 46  1  0
 48 49  1  0
 48 47  1  0
 50  3  1  0
 51 50  1  0
 51 52  2  0
 53 52  1  0
 53 62  1  0
 54 62  1  0
 54 60  1  0
 55 60  1  0
 56 57  1  0
 56 55  1  0
 58 57  1  0
 58 67  1  0
 58 59  1  0
 60 59  1  0
 61 54  2  0
 62 63  1  0
 64 65  2  0
 65 84  1  0
 66 65  1  0
 66 69  1  0
 67 68  1  0
 67 64  1  0
 68 66  2  0
 69 70  1  0
 70 71  2  0
 72 75  1  0
 72 71  1  0
 73 72  2  0
 74 73  1  0
 74 69  2  0
 75 76  1  0
 76 81  2  0
 76 77  1  0
 77 78  2  0
 78 79  1  0
 79 83  1  0
 80 79  2  0
 81 80  1  0
 82 81  1  0
 84 85  1  0
 85 88  1  0
 85 87  1  0
 86 84  2  0
 89 90  1  0
 89 64  1  0
 91 89  1  0
M  ISO  4   5 101   9 101  54 100  62 100
M  END
>  <TORSDO>  (64) 
F 20

>  <SCORE>  (64) 
-9.905

>  <name>  (64) 
63

>  <ligand_id>  (64) 
63

>  <original_smiles>  (64) 
[H]c1c([H])c([H])c2c(c1[H])C([H])([H])C([H])([H])C([H])([H])C2([H])N([H])C(=O)C1([H])N(C(=O)C([H])(N([H])C(=O)C([H])(N([H])C([H])([H])[H])C([H])([H])[H])C(C([H])([H])[H])(C([H])([H])[H])C([H])([H])[H])C([H])([H])c2c([H])c(Oc3c([H])c([H])c(F)c(C([H])([H])[H])c3C([H])([H])C([H])([H])C([H])([H])C([H])([H])N([H])C(=O)N3C([H])([H])C([H])([H])C([H])([H])C([H])(n4nc(-c5c([H])c([H])c(Oc6c([H])c([H])c(F)c([H])c6F)c([H])c5[H])c(C(=O)N([H])[H])c4N([H])[H])C3([H])[H])c([H])c([H])c2C1([H])[H]

>  <smiles>  (64) 
[H]c1c([H])c([H])c2c(c1[H])C([H])([H])C([H])([H])C([H])([H])C2([H])N([H])C(=O)C1([H])N(C(=O)C([H])(N([H])C(=O)C([H])(N([H])C([H])([H])[H])C([H])([H])[H])C(C([H])([H])[H])(C([H])([H])[H])C([H])([H])[H])C([H])([H])c2c([H])c(Oc3c([H])c([H])c(F)c(C([H])([H])[H])c3C([H])([H])C([H])([H])C([H])([H])C([H])([H])N([H])C(=O)N3C([H])([H])C([H])([H])C([H])([H])C([H])(n4nc(-c5c([H])c([H])c(Oc6c([H])c([H])c(F)c([H])c6F)c([H])c5[H])c(C(=O)N([H])[H])c4N([H])[H])C3([H])[H])c([H])c([H])c2C1([H])[H]

$$$$
64:0:0
     RDKit          3D

 99108  0  0  1  0  0  0  0  0999 V2000
  -32.6550  -22.5600   18.8870 C   0  0  0  0  0  2  0  0  0  0  0  0
  -30.8120  -22.4150   17.1870 C   0  0  0  0  0  2  0  0  0  0  0  0
  -32.1420  -23.9580   19.2730 C   0  0  0  0  0  2  0  0  0  0  0  0
  -30.3690  -23.8270   17.5910 C   0  0  0  0  0  2  0  0  0  0  0  0
  -32.3160  -22.1710   17.4330 C   0  0  0  0  0  3  0  0  0  0  0  0
  -30.6850  -24.1030   19.0150 N   0  0  2  0  0  4  0  0  0  0  0  0
  -30.2200  -23.3960   19.5670 H   0  0  0  0  0  0  0  0  0  0  0  0
  -32.7420  -20.7040   17.1850 C   0  0  0  0  0  2  0  0  0  0  0  0
  -32.2360  -20.0410   15.8820 C   0  0  0  0  0  2  0  0  0  0  0  0
  -32.4890  -15.7130   16.2470 C   0  0  0  0  0  3  0  0  0  0  0  0
  -33.2550  -16.3610   15.2570 C   0  0  0  0  0  3  0  0  0  0  0  0
  -31.5670  -17.8510   16.9080 C   0  0  0  0  0  3  0  0  0  0  0  0
  -31.6470  -16.4550   17.1050 C   0  0  0  0  0  0  0  0  0  0  0  0
  -33.2140  -17.7650   15.1120 C   0  0  0  0  0  0  0  0  0  0  0  0
  -32.3510  -18.5190   15.9440 C   0  0  0  0  0  0  0  0  0  0  0  0
  -34.1140  -18.4190   14.0780 C   0  0  0  0  0  1  0  0  0  0  0  0
  -31.4310  -14.7250   18.8970 C   0  0  0  0  0  3  0  0  0  0  0  0
  -30.9990  -15.8550   18.2970 C   0  0  0  0  0  0  0  0  0  0  0  0
  -30.9690  -14.3180   20.2200 C   0  0  0  0  0  0  0  0  0  0  0  0
  -30.3310  -12.1700   19.3470 C   0  0  0  0  0  2  0  0  0  0  0  0
  -29.4070  -12.4300   18.1520 C   0  0  0  0  0  2  0  0  0  0  0  0
  -27.9550  -12.4100   18.6380 C   0  0  0  0  0  2  0  0  0  0  0  0
  -27.6880  -13.2990   19.8830 C   0  0  0  0  0  3  0  0  0  0  0  0
  -28.8070  -13.1580   20.9690 C   0  0  0  0  0  2  0  0  0  0  0  0
  -30.1250  -13.2560   20.2920 N   0  0  0  0  0  0  0  0  0  0  0  0
  -31.5260  -14.8480   21.1470 O   0  0  0  0  0  0  0  0  0  0  0  0
  -25.2650  -13.9420   20.5230 C   0  0  0  0  0  0  0  0  0  0  0  0
  -24.1730  -13.1870   20.8640 C   0  0  0  0  0  0  0  0  0  0  0  0
  -24.6230  -11.8300   20.8810 C   0  0  0  0  0  0  0  0  0  0  0  0
  -26.3210  -13.0530   20.3720 N   0  0  0  0  0  0  0  0  0  0  0  0
  -25.9290  -11.7800   20.6430 N   0  0  0  0  0  0  0  0  0  0  0  0
  -23.8760  -10.5760   21.0640 C   0  0  0  0  0  0  0  0  0  0  0  0
  -24.2820   -9.6060   22.0070 C   0  0  0  0  0  3  0  0  0  0  0  0
  -23.5360   -8.4200   22.1840 C   0  0  0  0  0  3  0  0  0  0  0  0
  -22.3680   -8.1950   21.4160 C   0  0  0  0  0  0  0  0  0  0  0  0
  -21.9810   -9.1520   20.4630 C   0  0  0  0  0  3  0  0  0  0  0  0
  -22.7270  -10.3290   20.2840 C   0  0  0  0  0  3  0  0  0  0  0  0
  -21.5980   -7.0590   21.5010 O   0  0  0  0  0  0  0  0  0  0  0  0
  -21.5420   -6.3100   22.6490 C   0  0  0  0  0  0  0  0  0  0  0  0
  -21.1410   -6.8660   23.8830 C   0  0  0  0  0  3  0  0  0  0  0  0
  -21.0320   -6.0470   25.0240 C   0  0  0  0  0  3  0  0  0  0  0  0
  -21.3140   -4.6700   24.9330 C   0  0  0  0  0  0  0  0  0  0  0  0
  -21.7090   -4.1120   23.7040 C   0  0  0  0  0  3  0  0  0  0  0  0
  -21.8210   -4.9290   22.5650 C   0  0  0  0  0  0  0  0  0  0  0  0
  -22.1800   -4.3830   21.3790 F   0  0  0  0  0  0  0  0  0  0  0  0
  -21.2040   -3.8810   26.0260 F   0  0  0  0  0  0  0  0  0  0  0  0
  -22.7680  -13.6800   21.0700 C   0  0  0  0  0  0  0  0  0  0  0  0
  -22.0040  -13.0090   21.9250 N   0  0  0  0  0  0  0  0  0  0  0  0
  -22.3570  -14.6940   20.5100 O   0  0  0  0  0  0  0  0  0  0  0  0
  -22.3510  -12.1880   22.3980 H   0  0  0  0  0  0  0  0  0  0  0  0
  -21.0600  -13.3210   22.1070 H   0  0  0  0  0  0  0  0  0  0  0  0
  -25.4410  -15.3050   20.3070 N   0  0  0  0  0  0  0  0  0  0  0  0
  -24.6780  -15.9700   20.3720 H   0  0  0  0  0  0  0  0  0  0  0  0
  -26.3210  -15.7330   20.0450 H   0  0  0  0  0  0  0  0  0  0  0  0
  -29.9430  -16.5450   18.7630 O   0  0  0  0  0  0  0  0  0  0  0  0
  -29.7760  -17.2500   18.1500 H   0  0  0  0  0  0  0  0  0  0  0  0
  -30.1870  -25.4220   19.4900 C   0  0  0  0  0  2  0  0  0  0  0  0
  -28.6590  -25.6110   19.4320 C   0  0  0  0  0  2  0  0  0  0  0  0
  -28.4420  -26.8350   20.1100 O   0  0  0  0  0  0  0  0  0  0  0  0
  -24.5260  -31.8370   23.1530 C   0  0  0  0  0  0  0  0  0  0  0  0
  -27.2160  -27.4500   20.0740 C   0  0  0  0  0  0  0  0  0  0  0  0
  -23.3300  -30.4330   21.4990 C   0  0  0  0  0  3  0  0  0  0  0  0
  -24.7960  -28.9020   20.0800 C   0  0  0  0  0  0  0  0  0  0  0  0
  -25.8480  -30.8130   21.3100 C   0  0  0  0  0  2  0  0  0  0  0  0
  -25.9400  -29.4450   20.6720 C   0  0  0  0  0  0  0  0  0  0  0  0
  -27.1470  -28.7230   20.6700 C   0  0  0  0  0  3  0  0  0  0  0  0
  -26.0530  -26.9010   19.4830 C   0  0  0  0  0  3  0  0  0  0  0  0
  -24.8450  -27.6270   19.4850 C   0  0  0  0  0  3  0  0  0  0  0  0
  -23.5460  -29.7520   20.1210 C   0  0  0  0  0  2  0  0  0  0  0  0
  -24.5850  -31.0420   22.0470 N   0  0  0  0  0  0  0  0  0  0  0  0
  -23.4430  -32.1000   23.6940 O   0  0  0  0  0  0  0  0  0  0  0  0
  -22.6830  -29.4050   22.4550 C   0  0  0  0  0  0  0  0  0  0  0  0
  -21.3530  -29.2500   22.3540 N   0  0  0  0  0  0  0  0  0  0  0  0
  -23.3730  -28.7500   23.2410 O   0  0  0  0  0  0  0  0  0  0  0  0
  -20.8540  -29.8350   21.6980 H   0  0  0  0  0  0  0  0  0  0  0  0
  -17.9680  -28.1240   22.9150 C   0  0  0  0  0  0  0  0  0  0  0  0
  -20.5380  -28.3110   23.1250 C   0  0  0  0  0  3  0  0  0  0  0  0
  -20.5890  -26.8910   22.5140 C   0  0  0  0  0  2  0  0  0  0  0  0
  -19.4540  -26.6180   21.5230 C   0  0  0  0  0  2  0  0  0  0  0  0
  -18.0940  -26.7850   22.2070 C   0  0  0  0  0  2  0  0  0  0  0  0
  -19.1160  -28.8480   23.3330 C   0  0  0  0  0  0  0  0  0  0  0  0
  -18.9470  -30.1030   23.9530 C   0  0  0  0  0  3  0  0  0  0  0  0
  -17.6610  -30.6350   24.1640 C   0  0  0  0  0  3  0  0  0  0  0  0
  -16.5260  -29.9090   23.7630 C   0  0  0  0  0  3  0  0  0  0  0  0
  -16.6820  -28.6530   23.1450 C   0  0  0  0  0  3  0  0  0  0  0  0
  -25.8100  -32.4720   23.7750 C   0  0  0  0  0  3  0  0  0  0  0  0
  -25.4890  -33.8580   24.1360 N   0  0  0  0  0  0  0  0  0  0  0  0
  -25.8080  -34.9300   23.3990 C   0  0  0  0  0  0  0  0  0  0  0  0
  -26.4780  -34.8570   22.3660 O   0  0  0  0  0  0  0  0  0  0  0  0
  -24.9060  -33.9880   24.9500 H   0  0  0  0  0  0  0  0  0  0  0  0
  -24.0640  -36.7100   23.0770 C   0  0  0  0  0  1  0  0  0  0  0  0
  -25.3040  -36.3010   23.8880 C   0  0  0  0  0  3  0  0  0  0  0  0
  -27.4260  -37.1850   24.7500 C   0  0  0  0  0  1  0  0  0  0  0  0
  -26.3260  -37.3670   23.8070 N   0  0  0  0  0  0  0  0  0  0  0  0
  -25.9100  -38.2760   23.9830 H   0  0  0  0  0  0  0  0  0  0  0  0
  -26.3540  -31.6800   25.0270 C   0  0  1  0  0  0  0  0  0  0  0  0
  -25.2790  -31.4070   26.1040 C   0  0  0  0  0  1  0  0  0  0  0  0
  -26.9510  -30.3210   24.5940 C   0  0  0  0  0  1  0  0  0  0  0  0
  -27.4990  -32.4770   25.6960 C   0  0  0  0  0  1  0  0  0  0  0  0
  1  3  1  0
  2  5  1  0
  2  4  1  0
  4  6  1  0
  5  8  1  0
  5  1  1  0
  6  3  1  0
  6 57  1  0
  6  7  1  1
  9 15  1  0
  9  8  1  0
 10 13  1  0
 11 10  2  0
 12 13  2  0
 13 18  1  0
 14 11  1  0
 14 15  2  0
 15 12  1  0
 16 14  1  0
 17 19  1  0
 18 55  1  0
 18 17  2  0
 19 25  1  0
 19 26  2  0
 20 25  1  0
 21 22  1  0
 21 20  1  0
 23 22  1  0
 23 30  1  0
 23 24  1  0
 25 24  1  0
 27 28  2  0
 28 29  1  0
 28 47  1  0
 29 32  1  0
 30 27  1  0
 30 31  1  0
 31 29  2  0
 32 33  1  0
 33 34  2  0
 35 38  1  0
 35 34  1  0
 36 35  2  0
 37 36  1  0
 37 32  2  0
 38 39  1  0
 39 40  1  0
 40 41  2  0
 42 41  1  0
 42 46  1  0
 43 42  2  0
 44 39  2  0
 44 43  1  0
 45 44  1  0
 47 48  1  0
 48 51  1  0
 48 50  1  0
 49 47  2  0
 52 53  1  0
 52 27  1  0
 54 52  1  0
 56 55  1  0
 58 57  1  0
 58 59  1  0
 60 71  2  0
 61 59  1  0
 61 66  1  0
 62 70  1  0
 62 72  1  0
 63 69  1  0
 63 65  1  0
 64 70  1  0
 65 64  1  0
 66 65  2  0
 67 68  1  0
 67 61  2  0
 68 63  2  0
 69 62  1  0
 70 60  1  0
 72 74  2  0
 73 72  1  0
 75 73  1  0
 76 85  2  0
 76 81  1  0
 77 73  1  0
 77 81  1  0
 78 77  1  0
 79 80  1  0
 79 78  1  0
 80 76  1  0
 81 82  2  0
 82 83  1  0
 84 83  2  0
 85 84  1  0
 86 60  1  0
 86 87  1  0
 86 96  1  0
 87 90  1  0
 88 92  1  0
 88 87  1  0
 89 88  2  0
 92 91  1  0
 94 92  1  0
 94 95  1  0
 94 93  1  0
 96 99  1  1
 96 97  1  0
 98 96  1  0
M  ISO  4  17 100  19 100  58 101  59 101
M  END
>  <TORSDO>  (65) 
F 23

>  <SCORE>  (65) 
-12.543

>  <name>  (65) 
64

>  <ligand_id>  (65) 
64

>  <original_smiles>  (65) 
[H]OC(=C([H])C(=O)N1C([H])([H])C([H])([H])C([H])([H])C([H])(n2nc(-c3c([H])c([H])c(Oc4c([H])c([H])c(F)c([H])c4F)c([H])c3[H])c(C(=O)N([H])[H])c2N([H])[H])C1([H])[H])c1c([H])c([H])c(C([H])([H])[H])c(C([H])([H])C([H])([H])C2([H])C([H])([H])C([H])([H])[N+]([H])(C([H])([H])C([H])([H])Oc3c([H])c([H])c4c(c3[H])C([H])([H])N(C(=O)C([H])(N([H])C(=O)C([H])(N([H])C([H])([H])[H])C([H])([H])[H])C(C([H])([H])[H])(C([H])([H])[H])C([H])([H])[H])C([H])(C(=O)N([H])C3([H])c5c([H])c([H])c([H])c([H])c5C([H])([H])C([H])([H])C3([H])[H])C4([H])[H])C([H])([H])C2([H])[H])c1[H]

>  <smiles>  (65) 
[H]OC(=C([H])C(=O)N1C([H])([H])C([H])([H])C([H])([H])C([H])(n2nc(-c3c([H])c([H])c(Oc4c([H])c([H])c(F)c([H])c4F)c([H])c3[H])c(C(=O)N([H])[H])c2N([H])[H])C1([H])[H])c1c([H])c([H])c(C([H])([H])[H])c(C([H])([H])C([H])([H])C2([H])C([H])([H])C([H])([H])[N+]([H])(C([H])([H])C([H])([H])Oc3c([H])c([H])c4c(c3[H])C([H])([H])N(C(=O)C([H])(N([H])C(=O)C([H])(N([H])C([H])([H])[H])C([H])([H])[H])C(C([H])([H])[H])(C([H])([H])[H])C([H])([H])[H])C([H])(C(=O)N([H])C3([H])c5c([H])c([H])c([H])c([H])c5C([H])([H])C([H])([H])C3([H])[H])C4([H])[H])C([H])([H])C2([H])[H])c1[H]

$$$$
65:0:0
     RDKit          3D

 96104  0  0  1  0  0  0  0  0999 V2000
  -27.1820  -24.2320   17.5380 C   0  0  0  0  0  3  0  0  0  0  0  0
  -26.6560  -23.3570   18.5130 C   0  0  0  0  0  3  0  0  0  0  0  0
  -28.0040  -25.3090   17.9320 C   0  0  0  0  0  3  0  0  0  0  0  0
  -27.1570  -23.4000   19.8310 C   0  0  0  0  0  0  0  0  0  0  0  0
  -28.2450  -24.2590   20.0960 C   0  0  0  0  0  0  0  0  0  0  0  0
  -28.3700  -25.4300   19.2950 C   0  0  0  0  0  0  0  0  0  0  0  0
  -26.6040  -22.4370   20.8780 C   0  0  0  0  0  1  0  0  0  0  0  0
  -28.4580  -26.7000   19.8740 O   0  0  0  0  0  0  0  0  0  0  0  0
  -24.6760  -31.8880   23.2060 C   0  0  0  0  0  0  0  0  0  0  0  0
  -27.2740  -27.4430   19.9950 C   0  0  0  0  0  0  0  0  0  0  0  0
  -23.4430  -30.4930   21.5980 C   0  0  0  0  0  3  0  0  0  0  0  0
  -24.8640  -28.9620   20.1480 C   0  0  0  0  0  0  0  0  0  0  0  0
  -25.9710  -30.8490   21.3390 C   0  0  0  0  0  2  0  0  0  0  0  0
  -26.0520  -29.4800   20.6790 C   0  0  0  0  0  0  0  0  0  0  0  0
  -27.2620  -28.7430   20.5770 C   0  0  0  0  0  3  0  0  0  0  0  0
  -26.0280  -26.9320   19.5410 C   0  0  0  0  0  3  0  0  0  0  0  0
  -24.8450  -27.6770   19.5960 C   0  0  0  0  0  3  0  0  0  0  0  0
  -23.6250  -29.8280   20.2150 C   0  0  0  0  0  2  0  0  0  0  0  0
  -24.7170  -31.0910   22.1080 N   0  0  0  0  0  0  0  0  0  0  0  0
  -23.5990  -32.1520   23.7610 O   0  0  0  0  0  0  0  0  0  0  0  0
  -22.8090  -29.4660   22.5600 C   0  0  0  0  0  0  0  0  0  0  0  0
  -21.4860  -29.2630   22.4340 N   0  0  0  0  0  0  0  0  0  0  0  0
  -23.5030  -28.8530   23.3750 O   0  0  0  0  0  0  0  0  0  0  0  0
  -20.9920  -29.7940   21.7310 H   0  0  0  0  0  0  0  0  0  0  0  0
  -18.1320  -27.9970   22.9210 C   0  0  0  0  0  0  0  0  0  0  0  0
  -20.6810  -28.3170   23.2060 C   0  0  0  0  0  3  0  0  0  0  0  0
  -20.8220  -26.8830   22.6460 C   0  0  0  0  0  2  0  0  0  0  0  0
  -19.7330  -26.5230   21.6310 C   0  0  0  0  0  2  0  0  0  0  0  0
  -18.3430  -26.6440   22.2630 C   0  0  0  0  0  2  0  0  0  0  0  0
  -19.2280  -28.7930   23.3470 C   0  0  0  0  0  0  0  0  0  0  0  0
  -18.9760  -30.0580   23.9200 C   0  0  0  0  0  3  0  0  0  0  0  0
  -17.6580  -30.5300   24.0750 C   0  0  0  0  0  3  0  0  0  0  0  0
  -16.5760  -29.7320   23.6650 C   0  0  0  0  0  3  0  0  0  0  0  0
  -16.8110  -28.4690   23.0940 C   0  0  0  0  0  3  0  0  0  0  0  0
  -25.9670  -32.5220   23.8070 C   0  0  0  0  0  3  0  0  0  0  0  0
  -26.5130  -31.7390   25.0630 C   0  0  1  0  0  0  0  0  0  0  0  0
  -25.4370  -31.4790   26.1470 C   0  0  0  0  0  1  0  0  0  0  0  0
  -27.0920  -30.3690   24.6360 C   0  0  0  0  0  1  0  0  0  0  0  0
  -27.6730  -32.5280   25.7080 C   0  0  0  0  0  1  0  0  0  0  0  0
  -25.6510  -33.9110   24.1650 N   0  0  0  0  0  0  0  0  0  0  0  0
  -25.9570  -34.9780   23.4170 C   0  0  0  0  0  0  0  0  0  0  0  0
  -26.6010  -34.8980   22.3680 O   0  0  0  0  0  0  0  0  0  0  0  0
  -25.0730  -34.0450   24.9820 H   0  0  0  0  0  0  0  0  0  0  0  0
  -24.1950  -36.7540   23.1330 C   0  0  0  0  0  1  0  0  0  0  0  0
  -25.4640  -36.3540   23.9050 C   0  0  0  0  0  3  0  0  0  0  0  0
  -27.6120  -37.2460   24.6940 C   0  0  0  0  0  1  0  0  0  0  0  0
  -26.4820  -37.4200   23.7840 N   0  0  0  0  0  0  0  0  0  0  0  0
  -26.0740  -38.3330   23.9560 H   0  0  0  0  0  0  0  0  0  0  0  0
  -29.4430  -23.7050   20.9010 C   0  0  0  0  0  2  0  0  0  0  0  0
  -30.4800  -22.8310   20.0610 C   0  0  0  0  0  2  0  0  0  0  0  0
  -29.0420  -20.7690   19.2840 C   0  0  0  0  0  1  0  0  0  0  0  0
  -30.3550  -21.2540   19.9010 C   0  0  0  0  0  3  0  0  0  0  0  0
  -31.4510  -20.6330   19.1010 N   0  0  0  0  0  4  0  0  0  0  0  0
  -31.3520  -21.0210   18.1760 H   0  0  0  0  0  0  0  0  0  0  0  0
  -32.3700  -20.8920   19.4240 H   0  0  0  0  0  0  0  0  0  0  0  0
  -31.4190  -19.1510   18.8860 C   0  0  0  0  0  2  0  0  0  0  0  0
  -31.7870  -18.2830   20.0980 C   0  0  0  0  0  2  0  0  0  0  0  0
  -30.6120  -17.9060   21.0160 C   0  0  0  0  0  2  0  0  0  0  0  0
  -30.9320  -16.6910   21.9150 C   0  0  0  0  0  2  0  0  0  0  0  0
  -30.1910  -15.3940   21.5240 C   0  0  0  0  0  2  0  0  0  0  0  0
  -30.7690  -14.4900   20.4040 C   0  0  0  0  0  0  0  0  0  0  0  0
  -30.4530  -12.4190   19.0530 C   0  0  0  0  0  2  0  0  0  0  0  0
  -29.4850  -12.6630   17.8780 C   0  0  0  0  0  2  0  0  0  0  0  0
  -28.0130  -12.5230   18.3170 C   0  0  0  0  0  2  0  0  0  0  0  0
  -27.7100  -13.3270   19.6070 C   0  0  0  0  0  3  0  0  0  0  0  0
  -28.7650  -13.0130   20.6850 C   0  0  0  0  0  2  0  0  0  0  0  0
  -30.0880  -13.3410   20.1400 N   0  0  0  0  0  0  0  0  0  0  0  0
  -31.7960  -14.8000   19.7910 O   0  0  0  0  0  0  0  0  0  0  0  0
  -25.3220  -13.9830   20.3120 C   0  0  0  0  0  0  0  0  0  0  0  0
  -24.2500  -13.2250   20.7190 C   0  0  0  0  0  0  0  0  0  0  0  0
  -24.7040  -11.8720   20.7120 C   0  0  0  0  0  0  0  0  0  0  0  0
  -26.3580  -13.0880   20.0970 N   0  0  0  0  0  0  0  0  0  0  0  0
  -25.9890  -11.8170   20.3830 N   0  0  0  0  0  0  0  0  0  0  0  0
  -23.9710  -10.6170   20.9350 C   0  0  0  0  0  0  0  0  0  0  0  0
  -24.4200   -9.6550   21.8660 C   0  0  0  0  0  3  0  0  0  0  0  0
  -23.6910   -8.4600   22.0730 C   0  0  0  0  0  3  0  0  0  0  0  0
  -22.5000   -8.2250   21.3410 C   0  0  0  0  0  0  0  0  0  0  0  0
  -22.0720   -9.1740   20.4020 C   0  0  0  0  0  3  0  0  0  0  0  0
  -22.8010  -10.3570   20.1940 C   0  0  0  0  0  3  0  0  0  0  0  0
  -21.7400   -7.0870   21.4550 O   0  0  0  0  0  0  0  0  0  0  0  0
  -21.7090   -6.3520   22.6100 C   0  0  0  0  0  0  0  0  0  0  0  0
  -21.3460   -6.9250   23.8470 C   0  0  0  0  0  3  0  0  0  0  0  0
  -21.2610   -6.1140   24.9970 C   0  0  0  0  0  3  0  0  0  0  0  0
  -21.5360   -4.7360   24.9090 C   0  0  0  0  0  0  0  0  0  0  0  0
  -21.8970   -4.1640   23.6760 C   0  0  0  0  0  3  0  0  0  0  0  0
  -21.9790   -4.9710   22.5290 C   0  0  0  0  0  0  0  0  0  0  0  0
  -22.3050   -4.4160   21.3350 F   0  0  0  0  0  0  0  0  0  0  0  0
  -21.4490   -3.9560   26.0100 F   0  0  0  0  0  0  0  0  0  0  0  0
  -22.8610  -13.7170   21.0020 C   0  0  0  0  0  0  0  0  0  0  0  0
  -22.1420  -13.0450   21.9000 N   0  0  0  0  0  0  0  0  0  0  0  0
  -22.4200  -14.7320   20.4670 O   0  0  0  0  0  0  0  0  0  0  0  0
  -22.5150  -12.2290   22.3570 H   0  0  0  0  0  0  0  0  0  0  0  0
  -21.2120  -13.3550   22.1350 H   0  0  0  0  0  0  0  0  0  0  0  0
  -25.5000  -15.3490   20.1120 N   0  0  0  0  0  0  0  0  0  0  0  0
  -24.7580  -16.0280   20.2460 H   0  0  0  0  0  0  0  0  0  0  0  0
  -26.3520  -15.7840   19.7800 H   0  0  0  0  0  0  0  0  0  0  0  0
  1  3  2  0
  1  2  1  0
  2  4  2  0
  3  6  1  0
  4  5  1  0
  4  7  1  0
  5 49  1  0
  6  8  1  0
  6  5  2  0
  8 10  1  0
  9 20  2  0
 10 15  1  0
 11 19  1  0
 11 21  1  0
 12 18  1  0
 12 14  1  0
 13 19  1  0
 14 13  1  0
 15 14  2  0
 16 17  1  0
 16 10  2  0
 17 12  2  0
 18 11  1  0
 19  9  1  0
 21 23  2  0
 22 21  1  0
 24 22  1  0
 25 34  2  0
 25 30  1  0
 26 22  1  0
 26 30  1  0
 27 26  1  0
 28 29  1  0
 28 27  1  0
 29 25  1  0
 30 31  2  0
 31 32  1  0
 33 32  2  0
 34 33  1  0
 35  9  1  0
 35 40  1  0
 35 36  1  0
 36 39  1  1
 36 37  1  0
 38 36  1  0
 40 43  1  0
 41 45  1  0
 41 40  1  0
 42 41  2  0
 45 44  1  0
 47 45  1  0
 47 48  1  0
 47 46  1  0
 50 49  1  0
 52 51  1  0
 52 50  1  0
 53 55  1  0
 53 52  1  0
 54 53  1  0
 56 53  1  0
 56 57  1  0
 57 58  1  0
 58 59  1  0
 60 59  1  0
 61 60  1  0
 62 67  1  0
 63 64  1  0
 63 62  1  0
 65 64  1  0
 65 72  1  0
 65 66  1  0
 67 61  1  0
 67 66  1  0
 68 61  2  0
 69 70  2  0
 70 89  1  0
 71 70  1  0
 71 74  1  0
 72 69  1  0
 72 73  1  0
 73 71  2  0
 74 75  1  0
 75 76  2  0
 77 80  1  0
 77 76  1  0
 78 77  2  0
 79 78  1  0
 79 74  2  0
 80 81  1  0
 81 82  1  0
 82 83  2  0
 84 83  1  0
 84 88  1  0
 85 84  2  0
 86 81  2  0
 86 85  1  0
 87 86  1  0
 89 90  1  0
 90 93  1  0
 90 92  1  0
 91 89  2  0
 94 95  1  0
 94 69  1  0
 96 94  1  0
M  ISO  4   6 101   8 101  60 100  61 100
M  END
>  <TORSDO>  (66) 
F 25

>  <SCORE>  (66) 
-11.940

>  <name>  (66) 
65

>  <ligand_id>  (66) 
65

>  <original_smiles>  (66) 
[H]c1c([H])c(Oc2c([H])c([H])c3c(c2[H])C([H])([H])N(C(=O)C([H])(N([H])C(=O)C([H])(N([H])C([H])([H])[H])C([H])([H])[H])C(C([H])([H])[H])(C([H])([H])[H])C([H])([H])[H])C([H])(C(=O)N([H])C2([H])c4c([H])c([H])c([H])c([H])c4C([H])([H])C([H])([H])C2([H])[H])C3([H])[H])c(C([H])([H])C([H])([H])C([H])(C([H])([H])[H])[N+]([H])([H])C([H])([H])C([H])([H])C([H])([H])C([H])([H])C([H])([H])C(=O)N2C([H])([H])C([H])([H])C([H])([H])C([H])(n3nc(-c4c([H])c([H])c(Oc5c([H])c([H])c(F)c([H])c5F)c([H])c4[H])c(C(=O)N([H])[H])c3N([H])[H])C2([H])[H])c(C([H])([H])[H])c1[H]

>  <smiles>  (66) 
[H]c1c([H])c(Oc2c([H])c([H])c3c(c2[H])C([H])([H])N(C(=O)C([H])(N([H])C(=O)C([H])(N([H])C([H])([H])[H])C([H])([H])[H])C(C([H])([H])[H])(C([H])([H])[H])C([H])([H])[H])C([H])(C(=O)N([H])C2([H])c4c([H])c([H])c([H])c([H])c4C([H])([H])C([H])([H])C2([H])[H])C3([H])[H])c(C([H])([H])C([H])([H])C([H])(C([H])([H])[H])[N+]([H])([H])C([H])([H])C([H])([H])C([H])([H])C([H])([H])C([H])([H])C(=O)N2C([H])([H])C([H])([H])C([H])([H])C([H])(n3nc(-c4c([H])c([H])c(Oc5c([H])c([H])c(F)c([H])c5F)c([H])c4[H])c(C(=O)N([H])[H])c3N([H])[H])C2([H])[H])c(C([H])([H])[H])c1[H]

$$$$
66:0:0
     RDKit          3D

 93101  0  0  1  0  0  0  0  0999 V2000
  -29.7390  -18.6310   20.9870 C   0  0  0  0  0  3  0  0  0  0  0  0
  -30.1770  -16.1900   19.4090 C   0  0  0  0  0  0  0  0  0  0  0  0
  -30.2710  -17.4550   21.5580 C   0  0  0  0  0  0  0  0  0  0  0  0
  -29.4670  -18.7530   19.6160 C   0  0  0  0  0  0  0  0  0  0  0  0
  -29.6780  -17.4900   18.8490 C   0  0  0  0  0  0  0  0  0  0  0  0
  -30.5680  -16.2860   20.7880 C   0  0  0  0  0  0  0  0  0  0  0  0
  -30.5300  -17.5000   23.0610 C   0  0  0  0  0  1  0  0  0  0  0  0
  -29.3960  -17.5450   17.3560 C   0  0  0  0  0  1  0  0  0  0  0  0
  -30.4810  -14.8360   18.5710 C   0  0  0  0  0  0  0  0  0  0  0  0
  -29.8020  -12.6330   17.4880 C   0  0  0  0  0  2  0  0  0  0  0  0
  -28.5370  -12.7900   16.6070 C   0  0  0  0  0  2  0  0  0  0  0  0
  -27.2630  -12.6110   17.4510 C   0  0  0  0  0  2  0  0  0  0  0  0
  -27.3260  -13.4160   18.7700 C   0  0  0  0  0  3  0  0  0  0  0  0
  -28.6630  -13.2450   19.5030 C   0  0  0  0  0  2  0  0  0  0  0  0
  -29.7500  -13.6400   18.5930 N   0  0  0  0  0  0  0  0  0  0  0  0
  -31.4310  -14.8650   17.7780 O   0  0  0  0  0  0  0  0  0  0  0  0
  -25.3970  -14.0220   20.3350 C   0  0  0  0  0  0  0  0  0  0  0  0
  -24.4390  -13.2670   20.9580 C   0  0  0  0  0  0  0  0  0  0  0  0
  -24.7300  -11.9080   20.6260 C   0  0  0  0  0  0  0  0  0  0  0  0
  -26.2010  -13.1270   19.6530 N   0  0  0  0  0  0  0  0  0  0  0  0
  -25.8340  -11.8410   19.8900 N   0  0  0  0  0  0  0  0  0  0  0  0
  -23.9810  -10.6770   20.9130 C   0  0  0  0  0  0  0  0  0  0  0  0
  -24.5140   -9.6640   21.7430 C   0  0  0  0  0  3  0  0  0  0  0  0
  -23.7660   -8.4990   22.0210 C   0  0  0  0  0  3  0  0  0  0  0  0
  -22.4700   -8.3410   21.4720 C   0  0  0  0  0  0  0  0  0  0  0  0
  -21.9530   -9.3430   20.6310 C   0  0  0  0  0  3  0  0  0  0  0  0
  -22.7020  -10.4980   20.3510 C   0  0  0  0  0  3  0  0  0  0  0  0
  -21.6810   -7.2320   21.6660 O   0  0  0  0  0  0  0  0  0  0  0  0
  -21.6570   -6.5660   22.8650 C   0  0  0  0  0  0  0  0  0  0  0  0
  -21.2740   -7.2060   24.0650 C   0  0  0  0  0  3  0  0  0  0  0  0
  -21.1950   -6.4660   25.2640 C   0  0  0  0  0  3  0  0  0  0  0  0
  -21.4890   -5.0890   25.2630 C   0  0  0  0  0  0  0  0  0  0  0  0
  -21.8660   -4.4510   24.0680 C   0  0  0  0  0  3  0  0  0  0  0  0
  -21.9460   -5.1860   22.8730 C   0  0  0  0  0  0  0  0  0  0  0  0
  -22.2880   -4.5630   21.7210 F   0  0  0  0  0  0  0  0  0  0  0  0
  -21.4060   -4.3780   26.4100 F   0  0  0  0  0  0  0  0  0  0  0  0
  -23.2640  -13.7870   21.7320 C   0  0  0  0  0  0  0  0  0  0  0  0
  -22.8460  -13.0710   22.7700 N   0  0  0  0  0  0  0  0  0  0  0  0
  -22.7380  -14.8620   21.4470 O   0  0  0  0  0  0  0  0  0  0  0  0
  -23.2910  -12.1990   23.0160 H   0  0  0  0  0  0  0  0  0  0  0  0
  -22.0690  -13.3980   23.3280 H   0  0  0  0  0  0  0  0  0  0  0  0
  -25.6340  -15.3910   20.2710 N   0  0  0  0  0  0  0  0  0  0  0  0
  -25.0290  -16.0650   20.7290 H   0  0  0  0  0  0  0  0  0  0  0  0
  -26.4020  -15.8200   19.7710 H   0  0  0  0  0  0  0  0  0  0  0  0
  -29.0040  -20.2510   19.0820 C   0  0  0  0  0  2  0  0  0  0  0  0
  -28.6920  -21.6130   20.0380 C   0  0  0  0  0  2  0  0  0  0  0  0
  -28.7000  -23.1940   19.5290 C   0  0  0  0  0  0  0  0  0  0  0  0
  -29.2770  -23.4430   18.4660 O   0  0  0  0  0  0  0  0  0  0  0  0
  -27.9960  -24.4550   20.3410 C   0  0  0  0  0  2  0  0  0  0  0  0
  -28.2530  -25.9560   20.0140 O   0  0  0  0  0  0  0  0  0  0  0  0
  -24.5120  -31.5640   23.0140 C   0  0  0  0  0  0  0  0  0  0  0  0
  -27.1630  -26.8980   19.9960 C   0  0  0  0  0  0  0  0  0  0  0  0
  -23.3160  -30.1020   21.4280 C   0  0  0  0  0  3  0  0  0  0  0  0
  -24.7780  -28.5550   19.9910 C   0  0  0  0  0  0  0  0  0  0  0  0
  -25.8510  -30.4570   21.1840 C   0  0  0  0  0  2  0  0  0  0  0  0
  -25.9570  -29.0560   20.5570 C   0  0  0  0  0  0  0  0  0  0  0  0
  -27.1540  -28.2460   20.5360 C   0  0  0  0  0  3  0  0  0  0  0  0
  -25.9550  -26.4920   19.3920 C   0  0  0  0  0  3  0  0  0  0  0  0
  -24.7880  -27.2870   19.3910 C   0  0  0  0  0  3  0  0  0  0  0  0
  -23.5220  -29.4090   20.0550 C   0  0  0  0  0  2  0  0  0  0  0  0
  -24.5810  -30.7310   21.9300 N   0  0  0  0  0  0  0  0  0  0  0  0
  -23.4320  -31.8190   23.5670 O   0  0  0  0  0  0  0  0  0  0  0  0
  -22.6980  -29.0890   22.4250 C   0  0  0  0  0  0  0  0  0  0  0  0
  -21.3870  -28.8170   22.2890 N   0  0  0  0  0  0  0  0  0  0  0  0
  -23.4010  -28.5470   23.2810 O   0  0  0  0  0  0  0  0  0  0  0  0
  -20.8740  -29.3080   21.5700 H   0  0  0  0  0  0  0  0  0  0  0  0
  -18.1100  -27.3430   22.7510 C   0  0  0  0  0  0  0  0  0  0  0  0
  -20.6230  -27.8560   23.0890 C   0  0  0  0  0  3  0  0  0  0  0  0
  -20.8760  -26.4080   22.6090 C   0  0  0  0  0  2  0  0  0  0  0  0
  -19.8480  -25.9240   21.5800 C   0  0  0  0  0  2  0  0  0  0  0  0
  -18.4350  -25.9790   22.1650 C   0  0  0  0  0  2  0  0  0  0  0  0
  -19.1370  -28.2300   23.1700 C   0  0  0  0  0  0  0  0  0  0  0  0
  -18.7810  -29.4990   23.6760 C   0  0  0  0  0  3  0  0  0  0  0  0
  -17.4290  -29.8840   23.7670 C   0  0  0  0  0  3  0  0  0  0  0  0
  -16.4170  -28.9970   23.3640 C   0  0  0  0  0  3  0  0  0  0  0  0
  -16.7580  -27.7280   22.8620 C   0  0  0  0  0  3  0  0  0  0  0  0
  -25.7840  -32.2500   23.5970 C   0  0  0  0  0  3  0  0  0  0  0  0
  -25.4240  -33.6310   23.9580 N   0  0  0  0  0  0  0  0  0  0  0  0
  -25.6590  -34.7060   23.1950 C   0  0  0  0  0  0  0  0  0  0  0  0
  -26.2680  -34.6430   22.1240 O   0  0  0  0  0  0  0  0  0  0  0  0
  -24.8710  -33.7490   24.7950 H   0  0  0  0  0  0  0  0  0  0  0  0
  -23.8120  -36.4030   22.9940 C   0  0  0  0  0  1  0  0  0  0  0  0
  -25.1370  -36.0660   23.6970 C   0  0  0  0  0  3  0  0  0  0  0  0
  -27.2770  -37.0740   24.3610 C   0  0  0  0  0  1  0  0  0  0  0  0
  -26.0970  -37.1760   23.5050 N   0  0  0  0  0  0  0  0  0  0  0  0
  -25.6530  -38.0720   23.6830 H   0  0  0  0  0  0  0  0  0  0  0  0
  -26.3800  -31.4920   24.8470 C   0  0  1  0  0  0  0  0  0  0  0  0
  -25.3270  -31.1500   25.9280 C   0  0  0  0  0  1  0  0  0  0  0  0
  -27.0540  -30.1690   24.4160 C   0  0  0  0  0  1  0  0  0  0  0  0
  -27.4810  -32.3540   25.5080 C   0  0  0  0  0  1  0  0  0  0  0  0
  -31.4280  -15.2000   21.4670 C   0  0  0  0  0  2  0  0  0  0  0  0
  -33.6350  -13.9190   21.4260 C   0  0  0  0  0  1  0  0  0  0  0  0
  -32.8560  -15.1310   20.9000 C   0  0  0  0  0  2  0  0  0  0  0  0
  1  3  1  0
  2  6  1  0
  3  7  1  0
  4  1  2  0
  5  2  2  0
  5  4  1  0
  6 91  1  0
  6  3  2  0
  8  5  1  0
  9 15  1  0
  9  2  1  0
 10 15  1  0
 11 12  1  0
 11 10  1  0
 13 12  1  0
 13 14  1  0
 13 20  1  0
 15 14  1  0
 16  9  2  0
 17 18  2  0
 18 37  1  0
 19 22  1  0
 19 18  1  0
 20 21  1  0
 20 17  1  0
 21 19  2  0
 22 23  1  0
 23 24  2  0
 25 28  1  0
 25 24  1  0
 26 25  2  0
 27 26  1  0
 27 22  2  0
 28 29  1  0
 29 34  2  0
 29 30  1  0
 30 31  2  0
 32 31  1  0
 32 36  1  0
 33 32  2  0
 34 33  1  0
 35 34  1  0
 37 38  1  0
 38 40  1  0
 38 41  1  0
 39 37  2  0
 42 17  1  0
 42 43  1  0
 44 42  1  0
 45  4  1  0
 45 46  1  0
 47 46  1  0
 47 49  1  0
 48 47  2  0
 50 49  1  0
 51 62  2  0
 52 50  1  0
 52 57  1  0
 53 61  1  0
 53 63  1  0
 54 60  1  0
 54 56  1  0
 55 61  1  0
 56 55  1  0
 57 56  2  0
 58 52  2  0
 59 58  1  0
 59 54  2  0
 60 53  1  0
 61 51  1  0
 63 65  2  0
 64 63  1  0
 66 64  1  0
 67 76  2  0
 67 72  1  0
 68 64  1  0
 68 72  1  0
 69 68  1  0
 70 71  1  0
 70 69  1  0
 71 67  1  0
 72 73  2  0
 73 74  1  0
 75 74  2  0
 76 75  1  0
 77 51  1  0
 77 78  1  0
 77 87  1  0
 78 81  1  0
 79 83  1  0
 79 78  1  0
 80 79  2  0
 83 82  1  0
 85 86  1  0
 85 83  1  0
 85 84  1  0
 87 90  1  1
 87 88  1  0
 89 87  1  0
 93 92  1  0
 93 91  1  0
M  ISO  4   2 100   9 100  49 101  50 101
M  END
>  <TORSDO>  (67) 
F 22

>  <SCORE>  (67) 
-4.568

>  <name>  (67) 
66

>  <ligand_id>  (67) 
66

>  <original_smiles>  (67) 
[H]c1c([H])c([H])c2c(c1[H])C([H])([H])C([H])([H])C([H])([H])C2([H])N([H])C(=O)C1([H])N(C(=O)C([H])(N([H])C(=O)C([H])(N([H])C([H])([H])[H])C([H])([H])[H])C(C([H])([H])[H])(C([H])([H])[H])C([H])([H])[H])C([H])([H])c2c([H])c(OC([H])([H])C(=O)C([H])([H])C([H])([H])c3c([H])c(C([H])([H])[H])c(C([H])([H])C([H])([H])C([H])([H])[H])c(C(=O)N4C([H])([H])C([H])([H])C([H])([H])C([H])(n5nc(-c6c([H])c([H])c(Oc7c([H])c([H])c(F)c([H])c7F)c([H])c6[H])c(C(=O)N([H])[H])c5N([H])[H])C4([H])[H])c3C([H])([H])[H])c([H])c([H])c2C1([H])[H]

>  <smiles>  (67) 
[H]c1c([H])c([H])c2c(c1[H])C([H])([H])C([H])([H])C([H])([H])C2([H])N([H])C(=O)C1([H])N(C(=O)C([H])(N([H])C(=O)C([H])(N([H])C([H])([H])[H])C([H])([H])[H])C(C([H])([H])[H])(C([H])([H])[H])C([H])([H])[H])C([H])([H])c2c([H])c(OC([H])([H])C(=O)C([H])([H])C([H])([H])c3c([H])c(C([H])([H])[H])c(C([H])([H])C([H])([H])C([H])([H])[H])c(C(=O)N4C([H])([H])C([H])([H])C([H])([H])C([H])(n5nc(-c6c([H])c([H])c(Oc7c([H])c([H])c(F)c([H])c7F)c([H])c6[H])c(C(=O)N([H])[H])c5N([H])[H])C4([H])[H])c3C([H])([H])[H])c([H])c([H])c2C1([H])[H]

$$$$
67:0:0
     RDKit          3D

 92101  0  0  1  0  0  0  0  0999 V2000
  -30.5860  -22.0310   19.3690 C   0  0  0  0  0  3  0  0  0  0  0  0
  -28.4680  -22.9760   20.1130 C   0  0  0  0  0  3  0  0  0  0  0  0
  -30.1160  -24.4960   19.2560 C   0  0  0  0  0  3  0  0  0  0  0  0
  -29.3210  -21.6760   19.8920 C   0  0  0  0  0  0  0  0  0  0  0  0
  -30.9710  -23.3720   19.1020 C   0  0  0  0  0  0  0  0  0  0  0  0
  -28.7970  -24.4680   19.7750 C   0  0  0  0  0  0  0  0  0  0  0  0
  -30.5800  -19.4500   22.0040 C   0  0  0  0  0  2  0  0  0  0  0  0
  -29.0960  -19.6920   21.6570 C   0  0  0  0  0  2  0  0  0  0  0  0
  -31.2220  -18.7500   20.7770 C   0  0  0  0  0  2  0  0  0  0  0  0
  -29.0890  -19.9290   20.1520 C   0  0  0  0  0  3  0  0  0  0  0  0
  -30.1020  -18.4600   19.7590 C   0  0  0  0  0  3  0  0  0  0  0  0
  -30.6250  -15.4870   19.7370 C   0  0  0  0  0  0  0  0  0  0  0  0
  -30.6090  -13.0020   18.9210 C   0  0  0  0  0  2  0  0  0  0  0  0
  -29.6140  -12.6680   17.7780 C   0  0  0  0  0  2  0  0  0  0  0  0
  -28.2190  -12.3700   18.3510 C   0  0  0  0  0  2  0  0  0  0  0  0
  -27.8120  -13.3980   19.4350 C   0  0  0  0  0  3  0  0  0  0  0  0
  -28.9250  -13.6300   20.4770 C   0  0  0  0  0  2  0  0  0  0  0  0
  -30.0800  -14.1620   19.7370 N   0  0  0  0  0  0  0  0  0  0  0  0
  -31.8400  -15.4750   19.4700 O   0  0  0  0  0  0  0  0  0  0  0  0
  -29.8520  -16.7730   19.8290 N   0  0  0  0  0  0  0  0  0  0  0  0
  -28.8670  -16.5550   19.9470 H   0  0  0  0  0  0  0  0  0  0  0  0
  -25.5350  -13.9640   20.4190 C   0  0  0  0  0  0  0  0  0  0  0  0
  -24.4890  -13.1960   20.8440 C   0  0  0  0  0  0  0  0  0  0  0  0
  -24.9200  -11.8390   20.7110 C   0  0  0  0  0  0  0  0  0  0  0  0
  -26.5300  -13.0820   20.0460 N   0  0  0  0  0  0  0  0  0  0  0  0
  -26.1790  -11.7930   20.2890 N   0  0  0  0  0  0  0  0  0  0  0  0
  -24.1840  -10.5820   20.8950 C   0  0  0  0  0  0  0  0  0  0  0  0
  -24.5900   -9.6190   21.8470 C   0  0  0  0  0  3  0  0  0  0  0  0
  -23.8520   -8.4270   22.0150 C   0  0  0  0  0  3  0  0  0  0  0  0
  -22.6930   -8.1880   21.2360 C   0  0  0  0  0  0  0  0  0  0  0  0
  -22.3120   -9.1410   20.2760 C   0  0  0  0  0  3  0  0  0  0  0  0
  -23.0490  -10.3260   20.1030 C   0  0  0  0  0  3  0  0  0  0  0  0
  -21.9300   -7.0500   21.3180 O   0  0  0  0  0  0  0  0  0  0  0  0
  -21.7470   -6.3950   22.5080 C   0  0  0  0  0  0  0  0  0  0  0  0
  -21.1520   -7.0240   23.6230 C   0  0  0  0  0  3  0  0  0  0  0  0
  -20.9160   -6.2880   24.8000 C   0  0  0  0  0  3  0  0  0  0  0  0
  -21.2650   -4.9260   24.8670 C   0  0  0  0  0  0  0  0  0  0  0  0
  -21.8520   -4.2990   23.7550 C   0  0  0  0  0  3  0  0  0  0  0  0
  -22.0900   -5.0290   22.5780 C   0  0  0  0  0  0  0  0  0  0  0  0
  -22.6370   -4.4090   21.5030 F   0  0  0  0  0  0  0  0  0  0  0  0
  -21.0290   -4.2220   25.9990 F   0  0  0  0  0  0  0  0  0  0  0  0
  -23.1310  -13.6910   21.2490 C   0  0  0  0  0  0  0  0  0  0  0  0
  -22.4560  -12.9750   22.1400 N   0  0  0  0  0  0  0  0  0  0  0  0
  -22.6810  -14.7470   20.8060 O   0  0  0  0  0  0  0  0  0  0  0  0
  -22.8350  -12.1200   22.5240 H   0  0  0  0  0  0  0  0  0  0  0  0
  -21.5530  -13.2970   22.4570 H   0  0  0  0  0  0  0  0  0  0  0  0
  -25.7180  -15.3380   20.2840 N   0  0  0  0  0  0  0  0  0  0  0  0
  -24.9770  -16.0010   20.4640 H   0  0  0  0  0  0  0  0  0  0  0  0
  -26.4860  -15.7440   19.7690 H   0  0  0  0  0  0  0  0  0  0  0  0
  -32.2560  -23.6140   18.7040 O   0  0  0  0  0  0  0  0  0  0  0  0
  -32.8630  -22.9270   18.9560 H   0  0  0  0  0  0  0  0  0  0  0  0
  -28.3800  -25.9320   20.1090 O   0  0  0  0  0  0  0  0  0  0  0  0
  -24.5460  -31.7210   23.0070 C   0  0  0  0  0  0  0  0  0  0  0  0
  -27.3030  -26.9640   19.9300 C   0  0  0  0  0  0  0  0  0  0  0  0
  -23.4150  -30.3000   21.3410 C   0  0  0  0  0  3  0  0  0  0  0  0
  -24.9330  -28.7700   19.8910 C   0  0  0  0  0  0  0  0  0  0  0  0
  -25.9700  -30.6090   21.2120 C   0  0  0  0  0  2  0  0  0  0  0  0
  -26.0940  -29.2080   20.5340 C   0  0  0  0  0  0  0  0  0  0  0  0
  -27.2660  -28.3260   20.5260 C   0  0  0  0  0  3  0  0  0  0  0  0
  -26.1130  -26.6800   19.2290 C   0  0  0  0  0  3  0  0  0  0  0  0
  -24.9680  -27.5330   19.2180 C   0  0  0  0  0  3  0  0  0  0  0  0
  -23.6770  -29.6420   19.9540 C   0  0  0  0  0  2  0  0  0  0  0  0
  -24.6650  -30.9050   21.9080 N   0  0  0  0  0  0  0  0  0  0  0  0
  -23.4430  -31.9610   23.5270 O   0  0  0  0  0  0  0  0  0  0  0  0
  -22.7540  -29.2710   22.2920 C   0  0  0  0  0  0  0  0  0  0  0  0
  -21.4280  -29.0750   22.1770 N   0  0  0  0  0  0  0  0  0  0  0  0
  -23.4430  -28.6480   23.1040 O   0  0  0  0  0  0  0  0  0  0  0  0
  -20.9250  -29.6340   21.5000 H   0  0  0  0  0  0  0  0  0  0  0  0
  -18.0820  -27.7720   22.6980 C   0  0  0  0  0  0  0  0  0  0  0  0
  -20.6380  -28.0970   22.9330 C   0  0  0  0  0  3  0  0  0  0  0  0
  -20.7660  -26.6820   22.3150 C   0  0  0  0  0  2  0  0  0  0  0  0
  -19.6570  -26.3610   21.3070 C   0  0  0  0  0  2  0  0  0  0  0  0
  -18.2830  -26.4500   21.9760 C   0  0  0  0  0  2  0  0  0  0  0  0
  -19.1880  -28.5530   23.1330 C   0  0  0  0  0  0  0  0  0  0  0  0
  -18.9390  -29.7880   23.7720 C   0  0  0  0  0  3  0  0  0  0  0  0
  -17.6230  -30.2400   23.9810 C   0  0  0  0  0  3  0  0  0  0  0  0
  -16.5340  -29.4590   23.5560 C   0  0  0  0  0  3  0  0  0  0  0  0
  -16.7660  -28.2280   22.9180 C   0  0  0  0  0  3  0  0  0  0  0  0
  -25.7870  -32.4020   23.6600 C   0  0  0  0  0  3  0  0  0  0  0  0
  -25.4090  -33.7780   24.0270 N   0  0  0  0  0  0  0  0  0  0  0  0
  -25.6970  -34.8730   23.3060 C   0  0  0  0  0  0  0  0  0  0  0  0
  -26.3620  -34.8310   22.2700 O   0  0  0  0  0  0  0  0  0  0  0  0
  -24.8080  -33.8810   24.8300 H   0  0  0  0  0  0  0  0  0  0  0  0
  -23.8910  -36.6110   23.0340 C   0  0  0  0  0  1  0  0  0  0  0  0
  -25.1600  -36.2290   23.8120 C   0  0  0  0  0  3  0  0  0  0  0  0
  -27.2590  -37.1970   24.6420 C   0  0  0  0  0  1  0  0  0  0  0  0
  -26.1440  -37.3280   23.7100 N   0  0  0  0  0  0  0  0  0  0  0  0
  -25.6990  -38.2260   23.8720 H   0  0  0  0  0  0  0  0  0  0  0  0
  -26.3180  -31.6330   24.9330 C   0  0  1  0  0  0  0  0  0  0  0  0
  -25.2250  -31.3310   25.9860 C   0  0  0  0  0  1  0  0  0  0  0  0
  -26.9650  -30.2900   24.5340 C   0  0  0  0  0  1  0  0  0  0  0  0
  -27.4280  -32.4650   25.6190 C   0  0  0  0  0  1  0  0  0  0  0  0
  1  4  1  0
  3  6  2  0
  4  2  2  0
  5  3  1  0
  5  1  2  0
  6 52  1  0
  6  2  1  0
  8  7  1  0
  9  7  1  0
 10  4  1  0
 10  8  1  0
 11 20  1  0
 11 10  1  0
 11  9  1  0
 12 20  1  0
 13 18  1  0
 14 15  1  0
 14 13  1  0
 16 15  1  0
 16 25  1  0
 16 17  1  0
 18 12  1  0
 18 17  1  0
 19 12  2  0
 20 21  1  0
 22 23  2  0
 23 42  1  0
 24 23  1  0
 24 27  1  0
 25 26  1  0
 25 22  1  0
 26 24  2  0
 27 28  1  0
 28 29  2  0
 30 33  1  0
 30 29  1  0
 31 30  2  0
 32 31  1  0
 32 27  2  0
 33 34  1  0
 34 39  2  0
 34 35  1  0
 35 36  2  0
 36 37  1  0
 37 41  1  0
 38 37  2  0
 39 38  1  0
 40 39  1  0
 42 43  1  0
 43 46  1  0
 43 45  1  0
 44 42  2  0
 47 22  1  0
 47 48  1  0
 49 47  1  0
 50 51  1  0
 50  5  1  0
 53 64  2  0
 54 52  1  0
 54 59  1  0
 55 63  1  0
 55 65  1  0
 56 62  1  0
 56 58  1  0
 57 63  1  0
 58 57  1  0
 59 58  2  0
 60 54  2  0
 61 60  1  0
 61 56  2  0
 62 55  1  0
 63 53  1  0
 65 67  2  0
 66 65  1  0
 68 66  1  0
 69 78  2  0
 69 74  1  0
 70 66  1  0
 70 74  1  0
 71 70  1  0
 72 73  1  0
 72 71  1  0
 73 69  1  0
 74 75  2  0
 75 76  1  0
 77 76  2  0
 78 77  1  0
 79 53  1  0
 79 80  1  0
 79 89  1  0
 80 83  1  0
 81 85  1  0
 81 80  1  0
 82 81  2  0
 85 84  1  0
 87 85  1  0
 87 88  1  0
 87 86  1  0
 89 92  1  1
 89 90  1  0
 91 89  1  0
M  ISO  4   6 101  12 100  20 100  52 101
M  END
>  <TORSDO>  (68) 
F 18

>  <SCORE>  (68) 
-14.140

>  <name>  (68) 
67

>  <ligand_id>  (68) 
67

>  <original_smiles>  (68) 
[H]Oc1c([H])c(Oc2c([H])c([H])c3c(c2[H])C([H])([H])N(C(=O)C([H])(N([H])C(=O)C([H])(N([H])C([H])([H])[H])C([H])([H])[H])C(C([H])([H])[H])(C([H])([H])[H])C([H])([H])[H])C([H])(C(=O)N([H])C2([H])c4c([H])c([H])c([H])c([H])c4C([H])([H])C([H])([H])C2([H])[H])C3([H])[H])c([H])c(C2([H])C([H])([H])C([H])([H])C([H])([H])C2([H])N([H])C(=O)N2C([H])([H])C([H])([H])C([H])([H])C([H])(n3nc(-c4c([H])c([H])c(Oc5c([H])c([H])c(F)c([H])c5F)c([H])c4[H])c(C(=O)N([H])[H])c3N([H])[H])C2([H])[H])c1[H]

>  <smiles>  (68) 
[H]Oc1c([H])c(Oc2c([H])c([H])c3c(c2[H])C([H])([H])N(C(=O)C([H])(N([H])C(=O)C([H])(N([H])C([H])([H])[H])C([H])([H])[H])C(C([H])([H])[H])(C([H])([H])[H])C([H])([H])[H])C([H])(C(=O)N([H])C2([H])c4c([H])c([H])c([H])c([H])c4C([H])([H])C([H])([H])C2([H])[H])C3([H])[H])c([H])c(C2([H])C([H])([H])C([H])([H])C([H])([H])C2([H])N([H])C(=O)N2C([H])([H])C([H])([H])C([H])([H])C([H])(n3nc(-c4c([H])c([H])c(Oc5c([H])c([H])c(F)c([H])c5F)c([H])c4[H])c(C(=O)N([H])[H])c3N([H])[H])C2([H])[H])c1[H]

$$$$
68:0:0
     RDKit          3D

 95103  0  0  1  0  0  0  0  0999 V2000
  -30.9250  -22.0950   21.2670 C   0  0  0  0  0  3  0  0  0  0  0  0
  -29.9190  -23.0740   21.1570 C   0  0  0  0  0  3  0  0  0  0  0  0
  -28.5850  -21.3180   20.1410 C   0  0  0  0  0  3  0  0  0  0  0  0
  -30.8200  -20.7490   20.8120 C   0  0  0  0  0  0  0  0  0  0  0  0
  -28.6980  -22.8120   20.5280 C   0  0  0  0  0  0  0  0  0  0  0  0
  -29.6130  -20.1720   20.2870 C   0  0  0  0  0  0  0  0  0  0  0  0
  -32.1650  -20.1440   20.6710 C   0  0  0  0  0  0  0  0  0  0  0  0
  -33.1460  -20.8420   20.3900 O   0  0  0  0  0  0  0  0  0  0  0  0
  -32.3700  -18.6690   20.9860 C   0  0  0  0  0  2  0  0  0  0  0  0
  -33.0990  -17.9920   19.8110 C   0  0  0  0  0  2  0  0  0  0  0  0
  -33.4570  -16.5190   20.0180 C   0  0  0  0  0  2  0  0  0  0  0  0
  -34.2820  -16.0090   18.8250 C   0  0  0  0  0  2  0  0  0  0  0  0
  -35.1430  -14.0330   17.4890 C   0  0  0  0  0  1  0  0  0  0  0  0
  -34.4150  -14.4850   18.7620 C   0  0  0  0  0  2  0  0  0  0  0  0
  -29.6690  -18.5200   19.6710 C   0  0  0  0  0  2  0  0  0  0  0  0
  -28.2740  -16.6970   20.9710 C   0  0  0  0  0  1  0  0  0  0  0  0
  -29.6750  -16.8530   20.3740 C   0  0  0  0  0  3  0  0  0  0  0  0
  -30.2900  -15.2740   19.8390 C   0  0  0  0  0  0  0  0  0  0  0  0
  -30.2010  -12.8310   18.9190 C   0  0  0  0  0  2  0  0  0  0  0  0
  -29.1760  -12.6480   17.7670 C   0  0  0  0  0  2  0  0  0  0  0  0
  -27.7850  -12.3200   18.3350 C   0  0  0  0  0  2  0  0  0  0  0  0
  -27.4190  -13.2680   19.5030 C   0  0  0  0  0  3  0  0  0  0  0  0
  -28.5630  -13.3970   20.5350 C   0  0  0  0  0  2  0  0  0  0  0  0
  -29.7400  -13.9480   19.8340 N   0  0  0  0  0  0  0  0  0  0  0  0
  -31.4320  -15.2600   19.3620 O   0  0  0  0  0  0  0  0  0  0  0  0
  -25.1250  -13.7890   20.5030 C   0  0  0  0  0  0  0  0  0  0  0  0
  -24.1020  -12.9950   20.9280 C   0  0  0  0  0  0  0  0  0  0  0  0
  -24.5590  -11.6490   20.7820 C   0  0  0  0  0  0  0  0  0  0  0  0
  -26.1420  -12.9320   20.1200 N   0  0  0  0  0  0  0  0  0  0  0  0
  -25.8170  -11.6340   20.3540 N   0  0  0  0  0  0  0  0  0  0  0  0
  -23.8500  -10.3800   20.9720 C   0  0  0  0  0  0  0  0  0  0  0  0
  -24.3530   -9.3770   21.8260 C   0  0  0  0  0  3  0  0  0  0  0  0
  -23.6400   -8.1720   22.0120 C   0  0  0  0  0  3  0  0  0  0  0  0
  -22.4140   -7.9620   21.3390 C   0  0  0  0  0  0  0  0  0  0  0  0
  -21.9280   -8.9560   20.4730 C   0  0  0  0  0  3  0  0  0  0  0  0
  -22.6400  -10.1520   20.2850 C   0  0  0  0  0  3  0  0  0  0  0  0
  -21.6690   -6.8100   21.4310 O   0  0  0  0  0  0  0  0  0  0  0  0
  -21.6990   -6.0230   22.5540 C   0  0  0  0  0  0  0  0  0  0  0  0
  -21.3860   -6.5350   23.8310 C   0  0  0  0  0  3  0  0  0  0  0  0
  -21.3610   -5.6760   24.9480 C   0  0  0  0  0  3  0  0  0  0  0  0
  -21.6380   -4.3050   24.7880 C   0  0  0  0  0  0  0  0  0  0  0  0
  -21.9440   -3.7920   23.5140 C   0  0  0  0  0  3  0  0  0  0  0  0
  -21.9710   -4.6490   22.4010 C   0  0  0  0  0  0  0  0  0  0  0  0
  -22.2450   -4.1470   21.1720 F   0  0  0  0  0  0  0  0  0  0  0  0
  -21.6060   -3.4770   25.8570 F   0  0  0  0  0  0  0  0  0  0  0  0
  -22.7360  -13.4550   21.3460 C   0  0  0  0  0  0  0  0  0  0  0  0
  -22.0960  -12.7300   22.2550 N   0  0  0  0  0  0  0  0  0  0  0  0
  -22.2510  -14.4970   20.9060 O   0  0  0  0  0  0  0  0  0  0  0  0
  -22.4990  -11.8850   22.6310 H   0  0  0  0  0  0  0  0  0  0  0  0
  -21.1880  -13.0280   22.5830 H   0  0  0  0  0  0  0  0  0  0  0  0
  -25.2590  -15.1660   20.3800 N   0  0  0  0  0  0  0  0  0  0  0  0
  -24.5080  -15.8050   20.6200 H   0  0  0  0  0  0  0  0  0  0  0  0
  -26.0840  -15.6350   20.0300 H   0  0  0  0  0  0  0  0  0  0  0  0
  -27.6710  -24.1990   20.3770 C   0  0  0  0  0  2  0  0  0  0  0  0
  -27.9840  -25.7960   20.5670 O   0  0  0  0  0  0  0  0  0  0  0  0
  -24.5220  -31.9010   23.2890 C   0  0  0  0  0  0  0  0  0  0  0  0
  -27.0010  -26.9040   20.4450 C   0  0  0  0  0  0  0  0  0  0  0  0
  -23.3090  -30.4710   21.6940 C   0  0  0  0  0  3  0  0  0  0  0  0
  -24.7320  -28.8020   20.3280 C   0  0  0  0  0  0  0  0  0  0  0  0
  -25.8760  -30.6450   21.5430 C   0  0  0  0  0  2  0  0  0  0  0  0
  -25.9260  -29.2150   20.9340 C   0  0  0  0  0  0  0  0  0  0  0  0
  -27.0570  -28.2860   20.9670 C   0  0  0  0  0  3  0  0  0  0  0  0
  -25.7820  -26.6380   19.7850 C   0  0  0  0  0  3  0  0  0  0  0  0
  -24.6850  -27.5340   19.7290 C   0  0  0  0  0  3  0  0  0  0  0  0
  -23.5250  -29.7340   20.3440 C   0  0  0  0  0  2  0  0  0  0  0  0
  -24.5910  -31.0340   22.2290 N   0  0  0  0  0  0  0  0  0  0  0  0
  -23.4360  -32.2250   23.7980 O   0  0  0  0  0  0  0  0  0  0  0  0
  -22.5980  -29.5210   22.6930 C   0  0  0  0  0  0  0  0  0  0  0  0
  -21.2830  -29.3000   22.5130 N   0  0  0  0  0  0  0  0  0  0  0  0
  -23.2390  -28.9760   23.5960 O   0  0  0  0  0  0  0  0  0  0  0  0
  -20.8200  -29.7870   21.7580 H   0  0  0  0  0  0  0  0  0  0  0  0
  -17.9400  -27.9400   22.8710 C   0  0  0  0  0  0  0  0  0  0  0  0
  -20.4510  -28.3890   23.3050 C   0  0  0  0  0  3  0  0  0  0  0  0
  -20.6780  -26.9200   22.8820 C   0  0  0  0  0  2  0  0  0  0  0  0
  -19.6840  -26.4360   21.8220 C   0  0  0  0  0  2  0  0  0  0  0  0
  -18.2480  -26.5510   22.3400 C   0  0  0  0  0  2  0  0  0  0  0  0
  -18.9750  -28.8100   23.3090 C   0  0  0  0  0  0  0  0  0  0  0  0
  -18.6340  -30.1010   23.7650 C   0  0  0  0  0  3  0  0  0  0  0  0
  -17.2920  -30.5280   23.7860 C   0  0  0  0  0  3  0  0  0  0  0  0
  -16.2710  -29.6590   23.3640 C   0  0  0  0  0  3  0  0  0  0  0  0
  -16.5950  -28.3680   22.9110 C   0  0  0  0  0  3  0  0  0  0  0  0
  -25.8020  -32.5430   23.9030 C   0  0  0  0  0  3  0  0  0  0  0  0
  -26.2890  -31.8150   25.2160 C   0  0  1  0  0  0  0  0  0  0  0  0
  -25.1750  -31.6230   26.2720 C   0  0  0  0  0  1  0  0  0  0  0  0
  -26.8680  -30.4190   24.8920 C   0  0  0  0  0  1  0  0  0  0  0  0
  -27.4360  -32.6240   25.8670 C   0  0  0  0  0  1  0  0  0  0  0  0
  -25.5050  -33.9590   24.1880 N   0  0  0  0  0  0  0  0  0  0  0  0
  -25.8520  -34.9880   23.4030 C   0  0  0  0  0  0  0  0  0  0  0  0
  -26.5160  -34.8460   22.3740 O   0  0  0  0  0  0  0  0  0  0  0  0
  -24.9080  -34.1420   24.9800 H   0  0  0  0  0  0  0  0  0  0  0  0
  -24.1450  -36.8000   23.0250 C   0  0  0  0  0  1  0  0  0  0  0  0
  -25.3930  -36.3990   23.8270 C   0  0  0  0  0  3  0  0  0  0  0  0
  -27.5570  -37.2810   24.5860 C   0  0  0  0  0  1  0  0  0  0  0  0
  -26.4380  -37.4340   23.6610 N   0  0  0  0  0  0  0  0  0  0  0  0
  -26.0470  -38.3640   23.7830 H   0  0  0  0  0  0  0  0  0  0  0  0
  2  1  1  0
  3  6  2  0
  3  5  1  0
  4  1  2  0
  5  2  2  0
  6  4  1  0
  7  4  1  0
  7  9  1  0
  8  7  2  0
 10 11  1  0
 10  9  1  0
 12 11  1  0
 13 14  1  0
 14 12  1  0
 15  6  1  0
 15 17  1  0
 17 16  1  0
 18 17  1  0
 19 24  1  0
 20 21  1  0
 20 19  1  0
 22 21  1  0
 22 29  1  0
 22 23  1  0
 24 18  1  0
 24 23  1  0
 25 18  2  0
 26 27  2  0
 27 46  1  0
 28 27  1  0
 28 31  1  0
 29 30  1  0
 29 26  1  0
 30 28  2  0
 31 32  1  0
 32 33  2  0
 34 37  1  0
 34 33  1  0
 35 34  2  0
 36 35  1  0
 36 31  2  0
 37 38  1  0
 38 39  1  0
 39 40  2  0
 41 40  1  0
 41 45  1  0
 42 41  2  0
 43 38  2  0
 43 42  1  0
 44 43  1  0
 46 47  1  0
 47 50  1  0
 47 49  1  0
 48 46  2  0
 51 26  1  0
 51 52  1  0
 53 51  1  0
 54  5  1  0
 54 55  1  0
 56 67  2  0
 57 55  1  0
 57 62  1  0
 58 66  1  0
 58 68  1  0
 59 65  1  0
 59 61  1  0
 60 66  1  0
 61 62  2  0
 61 60  1  0
 63 57  2  0
 64 63  1  0
 64 59  2  0
 65 58  1  0
 66 56  1  0
 68 70  2  0
 69 68  1  0
 71 69  1  0
 72 81  2  0
 72 77  1  0
 73 69  1  0
 73 77  1  0
 74 73  1  0
 75 76  1  0
 75 74  1  0
 76 72  1  0
 77 78  2  0
 78 79  1  0
 80 79  2  0
 81 80  1  0
 82 56  1  0
 82 87  1  0
 82 83  1  0
 83 86  1  1
 83 84  1  0
 85 83  1  0
 87 90  1  0
 88 92  1  0
 88 87  1  0
 89 88  2  0
 92 91  1  0
 94 95  1  0
 94 92  1  0
 94 93  1  0
M  ISO  4  17 100  18 100  54 101  55 101
M  END
>  <TORSDO>  (69) 
F 25

>  <SCORE>  (69) 
-12.937

>  <name>  (69) 
68

>  <ligand_id>  (69) 
68

>  <original_smiles>  (69) 
[H]c1c([H])c([H])c2c(c1[H])C([H])([H])C([H])([H])C([H])([H])C2([H])N([H])C(=O)C1([H])N(C(=O)C([H])(N([H])C(=O)C([H])(N([H])C([H])([H])[H])C([H])([H])[H])C(C([H])([H])[H])(C([H])([H])[H])C([H])([H])[H])C([H])([H])c2c([H])c(OC([H])([H])c3c([H])c([H])c(C(=O)C([H])([H])C([H])([H])C([H])([H])C([H])([H])C([H])([H])C([H])([H])[H])c(C([H])([H])C([H])(C(=O)N4C([H])([H])C([H])([H])C([H])([H])C([H])(n5nc(-c6c([H])c([H])c(Oc7c([H])c([H])c(F)c([H])c7F)c([H])c6[H])c(C(=O)N([H])[H])c5N([H])[H])C4([H])[H])C([H])([H])[H])c3[H])c([H])c([H])c2C1([H])[H]

>  <smiles>  (69) 
[H]c1c([H])c([H])c2c(c1[H])C([H])([H])C([H])([H])C([H])([H])C2([H])N([H])C(=O)C1([H])N(C(=O)C([H])(N([H])C(=O)C([H])(N([H])C([H])([H])[H])C([H])([H])[H])C(C([H])([H])[H])(C([H])([H])[H])C([H])([H])[H])C([H])([H])c2c([H])c(OC([H])([H])c3c([H])c([H])c(C(=O)C([H])([H])C([H])([H])C([H])([H])C([H])([H])C([H])([H])C([H])([H])[H])c(C([H])([H])C([H])(C(=O)N4C([H])([H])C([H])([H])C([H])([H])C([H])(n5nc(-c6c([H])c([H])c(Oc7c([H])c([H])c(F)c([H])c7F)c([H])c6[H])c(C(=O)N([H])[H])c5N([H])[H])C4([H])[H])C([H])([H])[H])c3[H])c([H])c([H])c2C1([H])[H]

$$$$
69:0:0
     RDKit          3D

 92100  0  0  1  0  0  0  0  0999 V2000
  -28.0810  -17.4940   17.5960 C   0  0  0  0  0  3  0  0  0  0  0  0
  -28.0870  -18.8560   17.2930 C   0  0  0  0  0  3  0  0  0  0  0  0
  -28.7640  -17.0400   18.7260 C   0  0  0  0  0  3  0  0  0  0  0  0
  -28.7640  -19.7680   18.1240 C   0  0  0  0  0  0  0  0  0  0  0  0
  -29.4190  -17.9190   19.6240 C   0  0  0  0  0  0  0  0  0  0  0  0
  -29.3930  -19.3440   19.3370 C   0  0  0  0  0  0  0  0  0  0  0  0
  -28.8450  -21.1930   17.6000 C   0  0  0  0  0  1  0  0  0  0  0  0
  -30.1210  -20.4100   20.2130 C   0  0  0  0  0  2  0  0  0  0  0  0
  -29.3540  -21.7280   20.6610 C   0  0  0  0  0  3  0  0  0  0  0  0
  -30.0100  -23.0950   20.2220 C   0  0  0  0  0  3  0  0  0  0  0  0
  -29.5560  -24.4590   20.8660 C   0  0  0  0  0  2  0  0  0  0  0  0
  -28.4570  -25.3100   20.1490 C   0  0  0  0  0  2  0  0  0  0  0  0
  -28.5220  -26.7370   20.4600 O   0  0  0  0  0  0  0  0  0  0  0  0
  -24.6710  -32.0140   23.3910 C   0  0  0  0  0  0  0  0  0  0  0  0
  -27.3650  -27.5110   20.3800 C   0  0  0  0  0  0  0  0  0  0  0  0
  -23.4980  -30.6090   21.7320 C   0  0  0  0  0  3  0  0  0  0  0  0
  -24.9780  -29.0640   20.3340 C   0  0  0  0  0  0  0  0  0  0  0  0
  -26.0330  -30.9500   21.5870 C   0  0  0  0  0  2  0  0  0  0  0  0
  -26.1280  -29.5740   20.9480 C   0  0  0  0  0  0  0  0  0  0  0  0
  -27.3220  -28.8060   20.9650 C   0  0  0  0  0  3  0  0  0  0  0  0
  -26.1950  -27.0410   19.7390 C   0  0  0  0  0  3  0  0  0  0  0  0
  -25.0100  -27.8010   19.7250 C   0  0  0  0  0  3  0  0  0  0  0  0
  -23.7350  -29.9280   20.3580 C   0  0  0  0  0  2  0  0  0  0  0  0
  -24.7520  -31.2080   22.2930 N   0  0  0  0  0  0  0  0  0  0  0  0
  -23.5790  -32.2870   23.9090 O   0  0  0  0  0  0  0  0  0  0  0  0
  -22.8260  -29.5910   22.6820 C   0  0  0  0  0  0  0  0  0  0  0  0
  -21.5080  -29.3910   22.5140 N   0  0  0  0  0  0  0  0  0  0  0  0
  -23.4910  -28.9840   23.5270 O   0  0  0  0  0  0  0  0  0  0  0  0
  -21.0340  -29.9370   21.8080 H   0  0  0  0  0  0  0  0  0  0  0  0
  -18.1400  -28.1310   22.8930 C   0  0  0  0  0  0  0  0  0  0  0  0
  -20.6790  -28.4510   23.2670 C   0  0  0  0  0  3  0  0  0  0  0  0
  -20.8350  -27.0120   22.7240 C   0  0  0  0  0  2  0  0  0  0  0  0
  -19.7860  -26.6450   21.6700 C   0  0  0  0  0  2  0  0  0  0  0  0
  -18.3740  -26.7730   22.2510 C   0  0  0  0  0  2  0  0  0  0  0  0
  -19.2230  -28.9250   23.3540 C   0  0  0  0  0  0  0  0  0  0  0  0
  -18.9540  -30.1950   23.9090 C   0  0  0  0  0  3  0  0  0  0  0  0
  -17.6340  -30.6710   24.0100 C   0  0  0  0  0  3  0  0  0  0  0  0
  -16.5640  -29.8760   23.5650 C   0  0  0  0  0  3  0  0  0  0  0  0
  -16.8180  -28.6070   23.0120 C   0  0  0  0  0  3  0  0  0  0  0  0
  -25.9440  -32.6490   24.0360 C   0  0  0  0  0  3  0  0  0  0  0  0
  -25.6450  -34.0610   24.3080 N   0  0  0  0  0  0  0  0  0  0  0  0
  -26.0200  -35.0830   23.5270 C   0  0  0  0  0  0  0  0  0  0  0  0
  -26.7260  -34.9360   22.5240 O   0  0  0  0  0  0  0  0  0  0  0  0
  -25.0270  -34.2500   25.0820 H   0  0  0  0  0  0  0  0  0  0  0  0
  -24.3370  -36.8900   23.0460 C   0  0  0  0  0  1  0  0  0  0  0  0
  -25.5370  -36.4930   23.9190 C   0  0  0  0  0  3  0  0  0  0  0  0
  -27.6490  -37.3760   24.8090 C   0  0  0  0  0  1  0  0  0  0  0  0
  -26.5910  -37.5270   23.8140 N   0  0  0  0  0  0  0  0  0  0  0  0
  -26.1930  -38.4560   23.9100 H   0  0  0  0  0  0  0  0  0  0  0  0
  -26.4050  -31.9140   25.3550 C   0  0  1  0  0  0  0  0  0  0  0  0
  -25.2720  -31.7210   26.3900 C   0  0  0  0  0  1  0  0  0  0  0  0
  -26.9880  -30.5190   25.0280 C   0  0  0  0  0  1  0  0  0  0  0  0
  -27.5380  -32.7190   26.0340 C   0  0  0  0  0  1  0  0  0  0  0  0
  -30.1670  -17.2460   20.8140 C   0  0  0  0  0  2  0  0  0  0  0  0
  -30.7300  -14.7310   20.6720 C   0  0  0  0  0  0  0  0  0  0  0  0
  -30.5240  -12.5380   19.5480 C   0  0  0  0  0  2  0  0  0  0  0  0
  -29.6140  -12.7280   18.3160 C   0  0  0  0  0  2  0  0  0  0  0  0
  -28.1300  -12.5580   18.7000 C   0  0  0  0  0  2  0  0  0  0  0  0
  -27.7410  -13.3640   19.9670 C   0  0  0  0  0  3  0  0  0  0  0  0
  -28.7760  -13.1800   21.1000 C   0  0  0  0  0  2  0  0  0  0  0  0
  -30.1030  -13.5210   20.5610 N   0  0  0  0  0  0  0  0  0  0  0  0
  -31.8900  -14.9080   20.2950 O   0  0  0  0  0  0  0  0  0  0  0  0
  -29.9340  -15.7790   21.0100 N   0  0  0  0  0  0  0  0  0  0  0  0
  -29.0120  -15.5290   21.3330 H   0  0  0  0  0  0  0  0  0  0  0  0
  -25.3130  -13.9310   20.5920 C   0  0  0  0  0  0  0  0  0  0  0  0
  -24.2510  -13.1410   20.9360 C   0  0  0  0  0  0  0  0  0  0  0  0
  -24.7400  -11.7980   20.9360 C   0  0  0  0  0  0  0  0  0  0  0  0
  -26.3820  -13.0660   20.4060 N   0  0  0  0  0  0  0  0  0  0  0  0
  -26.0400  -11.7800   20.6690 N   0  0  0  0  0  0  0  0  0  0  0  0
  -24.0340  -10.5230   21.1140 C   0  0  0  0  0  0  0  0  0  0  0  0
  -24.4510   -9.5800   22.0780 C   0  0  0  0  0  3  0  0  0  0  0  0
  -23.7460   -8.3680   22.2440 C   0  0  0  0  0  3  0  0  0  0  0  0
  -22.6110   -8.0940   21.4450 C   0  0  0  0  0  0  0  0  0  0  0  0
  -22.2140   -9.0270   20.4710 C   0  0  0  0  0  3  0  0  0  0  0  0
  -22.9200  -10.2300   20.3030 C   0  0  0  0  0  3  0  0  0  0  0  0
  -21.8770   -6.9340   21.5200 O   0  0  0  0  0  0  0  0  0  0  0  0
  -21.7930   -6.2100   22.6820 C   0  0  0  0  0  0  0  0  0  0  0  0
  -21.2810   -6.7690   23.8730 C   0  0  0  0  0  3  0  0  0  0  0  0
  -21.1470   -5.9690   25.0250 C   0  0  0  0  0  3  0  0  0  0  0  0
  -21.5140   -4.6100   24.9870 C   0  0  0  0  0  0  0  0  0  0  0  0
  -22.0180   -4.0510   23.7980 C   0  0  0  0  0  3  0  0  0  0  0  0
  -22.1550   -4.8480   22.6500 C   0  0  0  0  0  0  0  0  0  0  0  0
  -22.6210   -4.2980   21.5020 F   0  0  0  0  0  0  0  0  0  0  0  0
  -21.3780   -3.8390   26.0900 F   0  0  0  0  0  0  0  0  0  0  0  0
  -22.8360  -13.5910   21.1580 C   0  0  0  0  0  0  0  0  0  0  0  0
  -22.0960  -12.8900   22.0090 N   0  0  0  0  0  0  0  0  0  0  0  0
  -22.3930  -14.6000   20.6110 O   0  0  0  0  0  0  0  0  0  0  0  0
  -22.4640  -12.0710   22.4700 H   0  0  0  0  0  0  0  0  0  0  0  0
  -21.1460  -13.1740   22.2000 H   0  0  0  0  0  0  0  0  0  0  0  0
  -25.4540  -15.3030   20.4030 N   0  0  0  0  0  0  0  0  0  0  0  0
  -24.6630  -15.9340   20.4700 H   0  0  0  0  0  0  0  0  0  0  0  0
  -26.2940  -15.7600   20.0700 H   0  0  0  0  0  0  0  0  0  0  0  0
  1  3  1  0
  2  1  2  0
  2  4  1  0
  3  5  2  0
  4  6  2  0
  5 54  1  0
  6  5  1  0
  6  8  1  0
  7  4  1  0
  8  9  1  0
 10  9  2  0
 10 11  1  0
 12 13  1  0
 12 11  1  0
 14 25  2  0
 15 13  1  0
 15 20  1  0
 16 24  1  0
 16 26  1  0
 17 23  1  0
 17 19  1  0
 18 24  1  0
 19 20  2  0
 19 18  1  0
 21 15  2  0
 22 21  1  0
 22 17  2  0
 23 16  1  0
 24 14  1  0
 26 28  2  0
 27 26  1  0
 29 27  1  0
 30 39  2  0
 30 35  1  0
 31 27  1  0
 31 35  1  0
 32 31  1  0
 33 34  1  0
 33 32  1  0
 34 30  1  0
 35 36  2  0
 36 37  1  0
 38 37  2  0
 39 38  1  0
 40 14  1  0
 40 41  1  0
 40 50  1  0
 41 44  1  0
 42 46  1  0
 42 41  1  0
 43 42  2  0
 46 45  1  0
 48 49  1  0
 48 46  1  0
 48 47  1  0
 50 53  1  1
 50 51  1  0
 52 50  1  0
 54 63  1  0
 55 63  1  0
 56 61  1  0
 57 58  1  0
 57 56  1  0
 59 58  1  0
 59 68  1  0
 59 60  1  0
 61 55  1  0
 61 60  1  0
 62 55  2  0
 63 64  1  0
 65 66  2  0
 66 85  1  0
 67 66  1  0
 67 70  1  0
 68 65  1  0
 68 69  1  0
 69 67  2  0
 70 71  1  0
 71 72  2  0
 73 76  1  0
 73 72  1  0
 74 73  2  0
 75 74  1  0
 75 70  2  0
 76 77  1  0
 77 78  1  0
 78 79  2  0
 80 79  1  0
 80 84  1  0
 81 80  2  0
 82 77  2  0
 82 81  1  0
 83 82  1  0
 85 86  1  0
 86 89  1  0
 86 88  1  0
 87 85  2  0
 90 91  1  0
 90 65  1  0
 92 90  1  0
M  ISO  4  12 101  13 101  55 100  63 100
M  END
>  <TORSDO>  (70) 
F 22

>  <SCORE>  (70) 
-12.658

>  <name>  (70) 
69

>  <ligand_id>  (70) 
69

>  <original_smiles>  (70) 
[H]c1c([H])c(C([H])([H])[H])c(C([H])([H])C([H])([H])C([H])([H])C([H])([H])C([H])([H])Oc2c([H])c([H])c3c(c2[H])C([H])([H])N(C(=O)C([H])(N([H])C(=O)C([H])(N([H])C([H])([H])[H])C([H])([H])[H])C(C([H])([H])[H])(C([H])([H])[H])C([H])([H])[H])C([H])(C(=O)N([H])C2([H])c4c([H])c([H])c([H])c([H])c4C([H])([H])C([H])([H])C2([H])[H])C3([H])[H])c(C([H])([H])N([H])C(=O)N2C([H])([H])C([H])([H])C([H])([H])C([H])(n3nc(-c4c([H])c([H])c(Oc5c([H])c([H])c(F)c([H])c5F)c([H])c4[H])c(C(=O)N([H])[H])c3N([H])[H])C2([H])[H])c1[H]

>  <smiles>  (70) 
[H]c1c([H])c(C([H])([H])[H])c(C([H])([H])C([H])([H])C([H])([H])C([H])([H])C([H])([H])Oc2c([H])c([H])c3c(c2[H])C([H])([H])N(C(=O)C([H])(N([H])C(=O)C([H])(N([H])C([H])([H])[H])C([H])([H])[H])C(C([H])([H])[H])(C([H])([H])[H])C([H])([H])[H])C([H])(C(=O)N([H])C2([H])c4c([H])c([H])c([H])c([H])c4C([H])([H])C([H])([H])C2([H])[H])C3([H])[H])c(C([H])([H])N([H])C(=O)N2C([H])([H])C([H])([H])C([H])([H])C([H])(n3nc(-c4c([H])c([H])c(Oc5c([H])c([H])c(F)c([H])c5F)c([H])c4[H])c(C(=O)N([H])[H])c3N([H])[H])C2([H])[H])c1[H]

$$$$
70:0:0
     RDKit          3D

 90 98  0  0  1  0  0  0  0  0999 V2000
  -30.2020  -17.9350   17.8920 C   0  0  0  0  0  3  0  0  0  0  0  0
  -30.3590  -16.4940   19.9040 C   0  0  0  0  0  0  0  0  0  0  0  0
  -30.4180  -16.6850   18.4880 C   0  0  0  0  0  0  0  0  0  0  0  0
  -30.0240  -19.1230   18.6080 C   0  0  0  0  0  0  0  0  0  0  0  0
  -30.1130  -17.7700   20.6530 C   0  0  0  0  0  0  0  0  0  0  0  0
  -29.9240  -19.1270   20.0240 C   0  0  0  0  0  0  0  0  0  0  0  0
  -30.8430  -15.6250   17.4780 C   0  0  0  0  0  1  0  0  0  0  0  0
  -30.0750  -20.3820   17.7580 C   0  0  0  0  0  1  0  0  0  0  0  0
  -30.1050  -17.6580   22.1730 C   0  0  0  0  0  1  0  0  0  0  0  0
  -30.8800  -15.0670   20.4490 C   0  0  0  0  0  0  0  0  0  0  0  0
  -30.7010  -12.7040   19.5660 C   0  0  0  0  0  2  0  0  0  0  0  0
  -29.7780  -12.5400   18.3350 C   0  0  0  0  0  2  0  0  0  0  0  0
  -28.3110  -12.3810   18.7490 C   0  0  0  0  0  2  0  0  0  0  0  0
  -27.8810  -13.3650   19.8660 C   0  0  0  0  0  3  0  0  0  0  0  0
  -28.9220  -13.4780   20.9940 C   0  0  0  0  0  2  0  0  0  0  0  0
  -30.1990  -13.8530   20.3690 N   0  0  0  0  0  0  0  0  0  0  0  0
  -32.1090  -14.9910   20.4750 O   0  0  0  0  0  0  0  0  0  0  0  0
  -25.4940  -13.9240   20.5940 C   0  0  0  0  0  0  0  0  0  0  0  0
  -24.4270  -13.1360   20.9310 C   0  0  0  0  0  0  0  0  0  0  0  0
  -24.9030  -11.7890   20.9030 C   0  0  0  0  0  0  0  0  0  0  0  0
  -26.5460  -13.0540   20.3620 N   0  0  0  0  0  0  0  0  0  0  0  0
  -26.1990  -11.7650   20.6240 N   0  0  0  0  0  0  0  0  0  0  0  0
  -24.1840  -10.5170   21.0660 C   0  0  0  0  0  0  0  0  0  0  0  0
  -24.5770   -9.5620   22.0290 C   0  0  0  0  0  3  0  0  0  0  0  0
  -23.8580   -8.3560   22.1780 C   0  0  0  0  0  3  0  0  0  0  0  0
  -22.7290   -8.0980   21.3650 C   0  0  0  0  0  0  0  0  0  0  0  0
  -22.3570   -9.0410   20.3910 C   0  0  0  0  0  3  0  0  0  0  0  0
  -23.0770  -10.2380   20.2400 C   0  0  0  0  0  3  0  0  0  0  0  0
  -21.9810   -6.9470   21.4260 O   0  0  0  0  0  0  0  0  0  0  0  0
  -21.8320   -6.2460   22.5950 C   0  0  0  0  0  0  0  0  0  0  0  0
  -21.2580   -6.8290   23.7470 C   0  0  0  0  0  3  0  0  0  0  0  0
  -21.0640   -6.0510   24.9060 C   0  0  0  0  0  3  0  0  0  0  0  0
  -21.4300   -4.6930   24.9130 C   0  0  0  0  0  0  0  0  0  0  0  0
  -21.9950   -4.1100   23.7650 C   0  0  0  0  0  3  0  0  0  0  0  0
  -22.1920   -4.8850   22.6090 C   0  0  0  0  0  0  0  0  0  0  0  0
  -22.7190   -4.3120   21.5000 F   0  0  0  0  0  0  0  0  0  0  0  0
  -21.2350   -3.9440   26.0230 F   0  0  0  0  0  0  0  0  0  0  0  0
  -23.0210  -13.5980   21.1730 C   0  0  0  0  0  0  0  0  0  0  0  0
  -22.2800  -12.8880   22.0170 N   0  0  0  0  0  0  0  0  0  0  0  0
  -22.5860  -14.6220   20.6480 O   0  0  0  0  0  0  0  0  0  0  0  0
  -22.6470  -12.0580   22.4560 H   0  0  0  0  0  0  0  0  0  0  0  0
  -21.3360  -13.1780   22.2290 H   0  0  0  0  0  0  0  0  0  0  0  0
  -25.6610  -15.2950   20.4380 N   0  0  0  0  0  0  0  0  0  0  0  0
  -24.9180  -15.9650   20.6060 H   0  0  0  0  0  0  0  0  0  0  0  0
  -26.5340  -15.7330   20.1670 H   0  0  0  0  0  0  0  0  0  0  0  0
  -29.8290  -20.6130   20.7490 C   0  0  0  0  0  2  0  0  0  0  0  0
  -28.8960  -21.9420   20.2930 C   0  0  0  0  0  2  0  0  0  0  0  0
  -29.2070  -23.5380   20.6790 C   0  0  0  0  0  3  0  0  0  0  0  0
  -28.2500  -24.8160   20.1920 C   0  0  0  0  0  3  0  0  0  0  0  0
  -28.4810  -26.3260   20.4250 O   0  0  0  0  0  0  0  0  0  0  0  0
  -24.7210  -31.9120   23.3120 C   0  0  0  0  0  0  0  0  0  0  0  0
  -27.4110  -27.2760   20.3110 C   0  0  0  0  0  0  0  0  0  0  0  0
  -23.5650  -30.5140   21.6410 C   0  0  0  0  0  3  0  0  0  0  0  0
  -25.0580  -28.9720   20.2320 C   0  0  0  0  0  0  0  0  0  0  0  0
  -26.1140  -30.8190   21.5220 C   0  0  0  0  0  2  0  0  0  0  0  0
  -26.2170  -29.4350   20.8680 C   0  0  0  0  0  0  0  0  0  0  0  0
  -27.3950  -28.6020   20.8910 C   0  0  0  0  0  3  0  0  0  0  0  0
  -26.2290  -26.9080   19.6280 C   0  0  0  0  0  3  0  0  0  0  0  0
  -25.0770  -27.7210   19.5950 C   0  0  0  0  0  3  0  0  0  0  0  0
  -23.8170  -29.8500   20.2620 C   0  0  0  0  0  2  0  0  0  0  0  0
  -24.8190  -31.1040   22.2150 N   0  0  0  0  0  0  0  0  0  0  0  0
  -23.6230  -32.1810   23.8230 O   0  0  0  0  0  0  0  0  0  0  0  0
  -22.8840  -29.4910   22.5840 C   0  0  0  0  0  0  0  0  0  0  0  0
  -21.5570  -29.3170   22.4460 N   0  0  0  0  0  0  0  0  0  0  0  0
  -23.5510  -28.8580   23.4070 O   0  0  0  0  0  0  0  0  0  0  0  0
  -21.0730  -29.8910   21.7690 H   0  0  0  0  0  0  0  0  0  0  0  0
  -18.1760  -28.1190   22.9040 C   0  0  0  0  0  0  0  0  0  0  0  0
  -20.7330  -28.3670   23.1940 C   0  0  0  0  0  3  0  0  0  0  0  0
  -20.8340  -26.9450   22.5940 C   0  0  0  0  0  2  0  0  0  0  0  0
  -19.7340  -26.6440   21.5700 C   0  0  0  0  0  2  0  0  0  0  0  0
  -18.3540  -26.7780   22.2160 C   0  0  0  0  0  2  0  0  0  0  0  0
  -19.2940  -28.8700   23.3520 C   0  0  0  0  0  0  0  0  0  0  0  0
  -19.0760  -30.1240   23.9590 C   0  0  0  0  0  3  0  0  0  0  0  0
  -17.7720  -30.6270   24.1290 C   0  0  0  0  0  3  0  0  0  0  0  0
  -16.6680  -29.8720   23.6990 C   0  0  0  0  0  3  0  0  0  0  0  0
  -16.8700  -28.6210   23.0890 C   0  0  0  0  0  3  0  0  0  0  0  0
  -25.9810  -32.5580   23.9650 C   0  0  0  0  0  3  0  0  0  0  0  0
  -26.4520  -31.8080   25.2710 C   0  0  1  0  0  0  0  0  0  0  0  0
  -25.3230  -31.5900   26.3060 C   0  0  0  0  0  1  0  0  0  0  0  0
  -27.0450  -30.4220   24.9250 C   0  0  0  0  0  1  0  0  0  0  0  0
  -27.5790  -32.6130   25.9590 C   0  0  0  0  0  1  0  0  0  0  0  0
  -25.6610  -33.9610   24.2660 N   0  0  0  0  0  0  0  0  0  0  0  0
  -26.0160  -35.0060   23.5040 C   0  0  0  0  0  0  0  0  0  0  0  0
  -26.7120  -34.8880   22.4930 O   0  0  0  0  0  0  0  0  0  0  0  0
  -25.0440  -34.1250   25.0470 H   0  0  0  0  0  0  0  0  0  0  0  0
  -24.3060  -36.8050   23.0790 C   0  0  0  0  0  1  0  0  0  0  0  0
  -25.5210  -36.4020   23.9310 C   0  0  0  0  0  3  0  0  0  0  0  0
  -27.6280  -37.2950   24.8220 C   0  0  0  0  0  1  0  0  0  0  0  0
  -26.5590  -37.4510   23.8380 N   0  0  0  0  0  0  0  0  0  0  0  0
  -26.1520  -38.3750   23.9570 H   0  0  0  0  0  0  0  0  0  0  0  0
  1  3  2  0
  1  4  1  0
  2 10  1  0
  2  5  2  0
  3  2  1  0
  4  6  2  0
  5  9  1  0
  6  5  1  0
  6 46  1  0
  7  3  1  0
  8  4  1  0
 10 17  2  0
 11 16  1  0
 12 13  1  0
 12 11  1  0
 14 13  1  0
 14 21  1  0
 14 15  1  0
 16 10  1  0
 16 15  1  0
 18 19  2  0
 19 38  1  0
 20 19  1  0
 20 23  1  0
 21 18  1  0
 21 22  1  0
 22 20  2  0
 23 24  1  0
 24 25  2  0
 26 29  1  0
 26 25  1  0
 27 26  2  0
 28 27  1  0
 28 23  2  0
 29 30  1  0
 30 35  2  0
 30 31  1  0
 31 32  2  0
 32 33  1  0
 33 37  1  0
 34 33  2  0
 35 34  1  0
 36 35  1  0
 38 39  1  0
 39 42  1  0
 39 41  1  0
 40 38  2  0
 43 18  1  0
 43 44  1  0
 45 43  1  0
 47 48  1  0
 47 46  1  0
 49 50  1  0
 49 48  2  0
 51 62  2  0
 52 50  1  0
 52 57  1  0
 53 61  1  0
 53 63  1  0
 54 60  1  0
 54 56  1  0
 55 61  1  0
 56 57  2  0
 56 55  1  0
 58 52  2  0
 59 58  1  0
 59 54  2  0
 60 53  1  0
 61 51  1  0
 63 65  2  0
 64 63  1  0
 66 64  1  0
 67 76  2  0
 67 72  1  0
 68 64  1  0
 68 72  1  0
 69 68  1  0
 70 71  1  0
 70 69  1  0
 71 67  1  0
 72 73  2  0
 73 74  1  0
 75 74  2  0
 76 75  1  0
 77 51  1  0
 77 82  1  0
 77 78  1  0
 78 81  1  1
 78 79  1  0
 80 78  1  0
 82 85  1  0
 83 87  1  0
 83 82  1  0
 84 83  2  0
 87 86  1  0
 89 87  1  0
 89 90  1  0
 89 88  1  0
M  ISO  4   2 100  10 100  49 101  50 101
M  END
>  <TORSDO>  (71) 
F 20

>  <SCORE>  (71) 
-12.498

>  <name>  (71) 
70

>  <ligand_id>  (71) 
70

>  <original_smiles>  (71) 
[H]c1c([H])c([H])c2c(c1[H])C([H])([H])C([H])([H])C([H])([H])C2([H])N([H])C(=O)C1([H])N(C(=O)C([H])(N([H])C(=O)C([H])(N([H])C([H])([H])[H])C([H])([H])[H])C(C([H])([H])[H])(C([H])([H])[H])C([H])([H])[H])C([H])([H])c2c([H])c(OC([H])([H])C([H])([H])C([H])([H])C([H])([H])c3c(C([H])([H])[H])c([H])c(C([H])([H])[H])c(C(=O)N4C([H])([H])C([H])([H])C([H])([H])C([H])(n5nc(-c6c([H])c([H])c(Oc7c([H])c([H])c(F)c([H])c7F)c([H])c6[H])c(C(=O)N([H])[H])c5N([H])[H])C4([H])[H])c3C([H])([H])[H])c([H])c([H])c2C1([H])[H]

>  <smiles>  (71) 
[H]c1c([H])c([H])c2c(c1[H])C([H])([H])C([H])([H])C([H])([H])C2([H])N([H])C(=O)C1([H])N(C(=O)C([H])(N([H])C(=O)C([H])(N([H])C([H])([H])[H])C([H])([H])[H])C(C([H])([H])[H])(C([H])([H])[H])C([H])([H])[H])C([H])([H])c2c([H])c(OC([H])([H])C([H])([H])C([H])([H])C([H])([H])c3c(C([H])([H])[H])c([H])c(C([H])([H])[H])c(C(=O)N4C([H])([H])C([H])([H])C([H])([H])C([H])(n5nc(-c6c([H])c([H])c(Oc7c([H])c([H])c(F)c([H])c7F)c([H])c6[H])c(C(=O)N([H])[H])c5N([H])[H])C4([H])[H])c3C([H])([H])[H])c([H])c([H])c2C1([H])[H]

$$$$
71:0:0
     RDKit          3D

 93101  0  0  1  0  0  0  0  0999 V2000
  -29.6350  -23.8630   20.5670 C   0  0  0  0  0  3  0  0  0  0  0  0
  -29.8950  -22.4100   20.6280 C   0  0  0  0  0  0  0  0  0  0  0  0
  -28.9680  -21.3630   20.2450 C   0  0  0  0  0  0  0  0  0  0  0  0
  -27.7540  -22.0360   19.7930 C   0  0  0  0  0  0  0  0  0  0  0  0
  -28.4260  -24.5530   20.1570 C   0  0  0  0  0  0  0  0  0  0  0  0
  -27.4950  -23.5000   19.7690 C   0  0  0  0  0  0  0  0  0  0  0  0
  -31.2370  -21.9720   21.1840 C   0  0  0  0  0  1  0  0  0  0  0  0
  -26.6090  -21.1500   19.3290 C   0  0  0  0  0  1  0  0  0  0  0  0
  -26.2600  -23.8750   19.3670 F   0  0  0  0  0  0  0  0  0  0  0  0
  -28.3390  -26.0700   20.1430 O   0  0  0  0  0  0  0  0  0  0  0  0
  -24.6650  -31.8310   23.1870 C   0  0  0  0  0  0  0  0  0  0  0  0
  -27.2500  -27.0570   20.1350 C   0  0  0  0  0  0  0  0  0  0  0  0
  -23.4720  -30.4340   21.5470 C   0  0  0  0  0  3  0  0  0  0  0  0
  -24.9240  -28.8620   20.1070 C   0  0  0  0  0  0  0  0  0  0  0  0
  -26.0270  -30.6860   21.3860 C   0  0  0  0  0  2  0  0  0  0  0  0
  -26.1030  -29.2860   20.7320 C   0  0  0  0  0  0  0  0  0  0  0  0
  -27.2570  -28.3970   20.7340 C   0  0  0  0  0  3  0  0  0  0  0  0
  -26.0600  -26.7860   19.4280 C   0  0  0  0  0  3  0  0  0  0  0  0
  -24.9200  -27.6280   19.4380 C   0  0  0  0  0  3  0  0  0  0  0  0
  -23.6960  -29.7620   20.1640 C   0  0  0  0  0  2  0  0  0  0  0  0
  -24.7420  -31.0090   22.0940 N   0  0  0  0  0  0  0  0  0  0  0  0
  -23.5780  -32.1100   23.7170 O   0  0  0  0  0  0  0  0  0  0  0  0
  -22.7960  -29.4230   22.5080 C   0  0  0  0  0  0  0  0  0  0  0  0
  -21.4680  -29.2460   22.3860 N   0  0  0  0  0  0  0  0  0  0  0  0
  -23.4700  -28.7980   23.3310 O   0  0  0  0  0  0  0  0  0  0  0  0
  -20.9770  -29.8000   21.6970 H   0  0  0  0  0  0  0  0  0  0  0  0
  -18.0980  -28.0130   22.9000 C   0  0  0  0  0  0  0  0  0  0  0  0
  -20.6560  -28.2980   23.1570 C   0  0  0  0  0  3  0  0  0  0  0  0
  -20.7680  -26.8700   22.5750 C   0  0  0  0  0  2  0  0  0  0  0  0
  -19.6640  -26.5430   21.5640 C   0  0  0  0  0  2  0  0  0  0  0  0
  -18.2840  -26.6700   22.2140 C   0  0  0  0  0  2  0  0  0  0  0  0
  -19.2110  -28.7850   23.3280 C   0  0  0  0  0  0  0  0  0  0  0  0
  -18.9810  -30.0390   23.9340 C   0  0  0  0  0  3  0  0  0  0  0  0
  -17.6720  -30.5240   24.1110 C   0  0  0  0  0  3  0  0  0  0  0  0
  -16.5730  -29.7510   23.6980 C   0  0  0  0  0  3  0  0  0  0  0  0
  -16.7880  -28.4970   23.0980 C   0  0  0  0  0  3  0  0  0  0  0  0
  -25.9380  -32.4780   23.8130 C   0  0  0  0  0  3  0  0  0  0  0  0
  -26.4580  -31.7060   25.0900 C   0  0  1  0  0  0  0  0  0  0  0  0
  -25.3670  -31.4640   26.1590 C   0  0  0  0  0  1  0  0  0  0  0  0
  -27.0470  -30.3300   24.7050 C   0  0  0  0  0  1  0  0  0  0  0  0
  -27.6060  -32.5050   25.7530 C   0  0  0  0  0  1  0  0  0  0  0  0
  -25.6130  -33.8730   24.1570 N   0  0  0  0  0  0  0  0  0  0  0  0
  -25.9340  -34.9400   23.4140 C   0  0  0  0  0  0  0  0  0  0  0  0
  -26.6000  -34.8550   22.3780 O   0  0  0  0  0  0  0  0  0  0  0  0
  -25.0200  -34.0120   24.9620 H   0  0  0  0  0  0  0  0  0  0  0  0
  -24.1890  -36.7270   23.1040 C   0  0  0  0  0  1  0  0  0  0  0  0
  -25.4420  -36.3200   23.8940 C   0  0  0  0  0  3  0  0  0  0  0  0
  -27.5780  -37.2160   24.7110 C   0  0  0  0  0  1  0  0  0  0  0  0
  -26.4650  -37.3830   23.7820 N   0  0  0  0  0  0  0  0  0  0  0  0
  -26.0540  -38.2990   23.9430 H   0  0  0  0  0  0  0  0  0  0  0  0
  -29.1160  -19.6870   20.6050 C   0  0  0  0  0  3  0  0  0  0  0  0
  -29.8760  -18.2750   19.9050 C   0  0  0  0  0  3  0  0  0  0  0  0
  -29.8590  -16.6310   20.5360 C   0  0  0  0  0  3  0  0  0  0  0  0
  -30.5650  -15.1770   19.9520 C   0  0  0  0  0  0  0  0  0  0  0  0
  -30.4520  -12.7840   18.9980 C   0  0  0  0  0  2  0  0  0  0  0  0
  -29.4640  -12.7120   17.8040 C   0  0  0  0  0  2  0  0  0  0  0  0
  -28.0240  -12.4740   18.2960 C   0  0  0  0  0  2  0  0  0  0  0  0
  -27.6630  -13.3830   19.4980 C   0  0  0  0  0  3  0  0  0  0  0  0
  -28.7700  -13.4110   20.5710 C   0  0  0  0  0  2  0  0  0  0  0  0
  -30.0020  -13.8790   19.9210 N   0  0  0  0  0  0  0  0  0  0  0  0
  -31.7260  -15.2190   19.5220 O   0  0  0  0  0  0  0  0  0  0  0  0
  -25.3320  -13.9460   20.3770 C   0  0  0  0  0  0  0  0  0  0  0  0
  -24.2890  -13.1690   20.7950 C   0  0  0  0  0  0  0  0  0  0  0  0
  -24.7480  -11.8180   20.7200 C   0  0  0  0  0  0  0  0  0  0  0  0
  -26.3560  -13.0700   20.0640 N   0  0  0  0  0  0  0  0  0  0  0  0
  -26.0200  -11.7830   20.3380 N   0  0  0  0  0  0  0  0  0  0  0  0
  -24.0260  -10.5560   20.9320 C   0  0  0  0  0  0  0  0  0  0  0  0
  -24.4780   -9.5920   21.8590 C   0  0  0  0  0  3  0  0  0  0  0  0
  -23.7540   -8.3960   22.0590 C   0  0  0  0  0  3  0  0  0  0  0  0
  -22.5640   -8.1560   21.3330 C   0  0  0  0  0  0  0  0  0  0  0  0
  -22.1310   -9.1090   20.3940 C   0  0  0  0  0  3  0  0  0  0  0  0
  -22.8560  -10.2960   20.1920 C   0  0  0  0  0  3  0  0  0  0  0  0
  -21.8090   -7.0140   21.4430 O   0  0  0  0  0  0  0  0  0  0  0  0
  -21.7560   -6.2950   22.6100 C   0  0  0  0  0  0  0  0  0  0  0  0
  -21.3320   -6.8770   23.8250 C   0  0  0  0  0  3  0  0  0  0  0  0
  -21.2260   -6.0860   24.9860 C   0  0  0  0  0  3  0  0  0  0  0  0
  -21.5330   -4.7130   24.9340 C   0  0  0  0  0  0  0  0  0  0  0  0
  -21.9520   -4.1310   23.7240 C   0  0  0  0  0  3  0  0  0  0  0  0
  -22.0590   -4.9190   22.5650 C   0  0  0  0  0  0  0  0  0  0  0  0
  -22.4420   -4.3480   21.3970 F   0  0  0  0  0  0  0  0  0  0  0  0
  -21.4250   -3.9510   26.0470 F   0  0  0  0  0  0  0  0  0  0  0  0
  -22.9100  -13.6470   21.1430 C   0  0  0  0  0  0  0  0  0  0  0  0
  -22.2250  -12.9460   22.0390 N   0  0  0  0  0  0  0  0  0  0  0  0
  -22.4500  -14.6800   20.6550 O   0  0  0  0  0  0  0  0  0  0  0  0
  -22.6100  -12.1110   22.4550 H   0  0  0  0  0  0  0  0  0  0  0  0
  -21.3010  -13.2470   22.3130 H   0  0  0  0  0  0  0  0  0  0  0  0
  -25.4890  -15.3200   20.2080 N   0  0  0  0  0  0  0  0  0  0  0  0
  -24.7150  -15.9620   20.3480 H   0  0  0  0  0  0  0  0  0  0  0  0
  -26.2870  -15.7570   19.7680 H   0  0  0  0  0  0  0  0  0  0  0  0
  -30.3330  -16.7250   21.9270 N   0  0  0  0  0  4  0  0  0  0  0  0
  -31.3060  -16.9730   21.9410 H   0  0  0  0  0  0  0  0  0  0  0  0
  -30.2410  -15.8340   22.3800 H   0  0  0  0  0  0  0  0  0  0  0  0
  -29.8070  -17.3990   22.4500 H   0  0  0  0  0  0  0  0  0  0  0  0
  1  2  1  0
  2  7  1  0
  3 51  1  0
  3  2  2  0
  4  3  1  0
  5  1  2  0
  6  4  2  0
  6  5  1  0
  8  4  1  0
  9  6  1  0
 10  5  1  0
 11 22  2  0
 12 10  1  0
 12 17  1  0
 13 21  1  0
 13 23  1  0
 14 20  1  0
 14 16  1  0
 15 21  1  0
 16 17  2  0
 16 15  1  0
 18 19  1  0
 18 12  2  0
 19 14  2  0
 20 13  1  0
 21 11  1  0
 23 25  2  0
 24 23  1  0
 26 24  1  0
 27 36  2  0
 27 32  1  0
 28 24  1  0
 28 32  1  0
 29 28  1  0
 30 31  1  0
 30 29  1  0
 31 27  1  0
 32 33  2  0
 33 34  1  0
 35 34  2  0
 36 35  1  0
 37 11  1  0
 37 42  1  0
 37 38  1  0
 38 41  1  1
 38 39  1  0
 40 38  1  0
 42 45  1  0
 43 47  1  0
 43 42  1  0
 44 43  2  0
 47 46  1  0
 49 47  1  0
 49 50  1  0
 49 48  1  0
 52 51  2  0
 53 52  1  0
 53 90  1  0
 54 53  1  0
 55 60  1  0
 56 57  1  0
 56 55  1  0
 58 57  1  0
 58 65  1  0
 58 59  1  0
 60 54  1  0
 60 59  1  0
 61 54  2  0
 62 63  2  0
 63 82  1  0
 64 63  1  0
 64 67  1  0
 65 66  1  0
 65 62  1  0
 66 64  2  0
 67 68  1  0
 68 69  2  0
 70 73  1  0
 70 69  1  0
 71 70  2  0
 72 71  1  0
 72 67  2  0
 73 74  1  0
 74 75  1  0
 75 76  2  0
 77 76  1  0
 77 81  1  0
 78 77  2  0
 79 74  2  0
 79 78  1  0
 80 79  1  0
 82 83  1  0
 83 86  1  0
 83 85  1  0
 84 82  2  0
 87 88  1  0
 87 62  1  0
 89 87  1  0
 90 91  1  0
 90 92  1  0
 90 93  1  0
M  ISO  4   5 101  10 101  53 100  54 100
M  END
>  <TORSDO>  (72) 
F 20

>  <SCORE>  (72) 
-15.752

>  <name>  (72) 
71

>  <ligand_id>  (72) 
71

>  <original_smiles>  (72) 
[H]c1c([H])c([H])c2c(c1[H])C([H])([H])C([H])([H])C([H])([H])C2([H])N([H])C(=O)C1([H])N(C(=O)C([H])(N([H])C(=O)C([H])(N([H])C([H])([H])[H])C([H])([H])[H])C(C([H])([H])[H])(C([H])([H])[H])C([H])([H])[H])C([H])([H])c2c([H])c(Oc3c([H])c(C([H])([H])[H])c(C([H])([H])C([H])([H])C([H])(C(=O)N4C([H])([H])C([H])([H])C([H])([H])C([H])(n5nc(-c6c([H])c([H])c(Oc7c([H])c([H])c(F)c([H])c7F)c([H])c6[H])c(C(=O)N([H])[H])c5N([H])[H])C4([H])[H])[N+]([H])([H])[H])c(C([H])([H])[H])c3F)c([H])c([H])c2C1([H])[H]

>  <smiles>  (72) 
[H]c1c([H])c([H])c2c(c1[H])C([H])([H])C([H])([H])C([H])([H])C2([H])N([H])C(=O)C1([H])N(C(=O)C([H])(N([H])C(=O)C([H])(N([H])C([H])([H])[H])C([H])([H])[H])C(C([H])([H])[H])(C([H])([H])[H])C([H])([H])[H])C([H])([H])c2c([H])c(Oc3c([H])c(C([H])([H])[H])c(C([H])([H])C([H])([H])C([H])(C(=O)N4C([H])([H])C([H])([H])C([H])([H])C([H])(n5nc(-c6c([H])c([H])c(Oc7c([H])c([H])c(F)c([H])c7F)c([H])c6[H])c(C(=O)N([H])[H])c5N([H])[H])C4([H])[H])[N+]([H])([H])[H])c(C([H])([H])[H])c3F)c([H])c([H])c2C1([H])[H]

$$$$
72:0:0
     RDKit          3D

 98106  0  0  1  0  0  0  0  0999 V2000
  -29.1070  -17.0760   19.3330 C   0  0  0  0  0  3  0  0  0  0  0  0
  -29.9920  -16.0700   19.8600 C   0  0  0  0  0  0  0  0  0  0  0  0
  -30.7800  -16.4830   20.9830 C   0  0  0  0  0  0  0  0  0  0  0  0
  -29.0070  -18.3820   19.9200 C   0  0  0  0  0  0  0  0  0  0  0  0
  -30.5170  -17.7530   21.5820 C   0  0  0  0  0  0  0  0  0  0  0  0
  -29.6520  -18.6440   21.0620 N   0  0  0  0  0  0  0  0  0  0  0  0
  -30.3180  -14.7670   19.0700 C   0  0  0  0  0  0  0  0  0  0  0  0
  -29.7160  -12.6000   18.0010 C   0  0  0  0  0  2  0  0  0  0  0  0
  -28.5940  -12.7920   16.9630 C   0  0  0  0  0  2  0  0  0  0  0  0
  -27.2230  -12.6430   17.6380 C   0  0  0  0  0  2  0  0  0  0  0  0
  -27.1070  -13.4970   18.9300 C   0  0  0  0  0  3  0  0  0  0  0  0
  -28.3430  -13.3510   19.8510 C   0  0  0  0  0  2  0  0  0  0  0  0
  -29.5480  -13.6260   19.0580 N   0  0  0  0  0  0  0  0  0  0  0  0
  -31.3250  -14.8220   18.3640 O   0  0  0  0  0  0  0  0  0  0  0  0
  -24.8810  -14.1190   20.0380 C   0  0  0  0  0  0  0  0  0  0  0  0
  -23.8840  -13.3620   20.5860 C   0  0  0  0  0  0  0  0  0  0  0  0
  -24.3220  -12.0030   20.4980 C   0  0  0  0  0  0  0  0  0  0  0  0
  -25.8610  -13.2270   19.6400 N   0  0  0  0  0  0  0  0  0  0  0  0
  -25.5440  -11.9500   19.9800 N   0  0  0  0  0  0  0  0  0  0  0  0
  -23.6240  -10.7540   20.8240 C   0  0  0  0  0  0  0  0  0  0  0  0
  -24.1900   -9.7970   21.6960 C   0  0  0  0  0  3  0  0  0  0  0  0
  -23.4900   -8.6140   22.0150 C   0  0  0  0  0  3  0  0  0  0  0  0
  -22.2080   -8.3770   21.4620 C   0  0  0  0  0  0  0  0  0  0  0  0
  -21.6570   -9.3230   20.5780 C   0  0  0  0  0  3  0  0  0  0  0  0
  -22.3590  -10.4970   20.2590 C   0  0  0  0  0  3  0  0  0  0  0  0
  -21.4670   -7.2440   21.6930 O   0  0  0  0  0  0  0  0  0  0  0  0
  -21.6130   -6.5060   22.8420 C   0  0  0  0  0  0  0  0  0  0  0  0
  -21.4680   -7.0850   24.1210 C   0  0  0  0  0  3  0  0  0  0  0  0
  -21.5600   -6.2770   25.2730 C   0  0  0  0  0  3  0  0  0  0  0  0
  -21.7860   -4.8930   25.1460 C   0  0  0  0  0  0  0  0  0  0  0  0
  -21.9280   -4.3160   23.8720 C   0  0  0  0  0  3  0  0  0  0  0  0
  -21.8390   -5.1200   22.7230 C   0  0  0  0  0  0  0  0  0  0  0  0
  -21.9540   -4.5550   21.4960 F   0  0  0  0  0  0  0  0  0  0  0  0
  -21.8650   -4.1160   26.2500 F   0  0  0  0  0  0  0  0  0  0  0  0
  -22.5580  -13.8580   21.0820 C   0  0  0  0  0  0  0  0  0  0  0  0
  -22.0060  -13.2190   22.1070 N   0  0  0  0  0  0  0  0  0  0  0  0
  -22.0260  -14.8560   20.5940 O   0  0  0  0  0  0  0  0  0  0  0  0
  -22.4480  -12.4110   22.5190 H   0  0  0  0  0  0  0  0  0  0  0  0
  -21.1280  -13.5440   22.4840 H   0  0  0  0  0  0  0  0  0  0  0  0
  -25.0260  -15.4870   19.8230 N   0  0  0  0  0  0  0  0  0  0  0  0
  -24.3000  -16.1470   20.0770 H   0  0  0  0  0  0  0  0  0  0  0  0
  -25.8470  -15.9340   19.4290 H   0  0  0  0  0  0  0  0  0  0  0  0
  -31.2550  -18.3440   22.7910 C   0  0  0  0  0  2  0  0  0  0  0  0
  -30.4020  -18.4140   24.0820 C   0  0  0  0  0  2  0  0  0  0  0  0
  -29.8610  -19.8280   24.3880 C   0  0  0  0  0  2  0  0  0  0  0  0
  -30.9440  -20.8730   24.7030 C   0  0  0  0  0  2  0  0  0  0  0  0
  -31.4100  -23.3580   25.1270 C   0  0  0  0  0  1  0  0  0  0  0  0
  -30.3700  -22.3010   24.7310 C   0  0  0  0  0  2  0  0  0  0  0  0
  -28.1180  -19.5710   19.3970 C   0  0  0  0  0  3  0  0  0  0  0  0
  -28.6750  -21.0750   19.5130 C   0  0  0  0  0  3  0  0  0  0  0  0
  -27.7580  -22.2990   19.0500 C   0  0  0  0  0  2  0  0  0  0  0  0
  -28.4130  -23.7470   18.8780 C   0  0  0  0  0  3  0  0  0  0  0  0
  -27.3960  -24.9650   18.8430 C   0  0  0  0  0  3  0  0  0  0  0  0
  -27.8310  -26.3840   18.9000 O   0  0  0  0  0  0  0  0  0  0  0  0
  -24.9980  -31.4470   23.2100 C   0  0  0  0  0  0  0  0  0  0  0  0
  -26.8280  -27.3490   19.1140 C   0  0  0  0  0  0  0  0  0  0  0  0
  -23.5110  -30.4730   21.4970 C   0  0  0  0  0  3  0  0  0  0  0  0
  -24.6590  -29.1250   19.6630 C   0  0  0  0  0  0  0  0  0  0  0  0
  -26.0470  -30.6140   21.0990 C   0  0  0  0  0  2  0  0  0  0  0  0
  -25.9240  -29.3920   20.1990 C   0  0  0  0  0  0  0  0  0  0  0  0
  -27.0160  -28.5160   19.9180 C   0  0  0  0  0  3  0  0  0  0  0  0
  -25.5440  -27.1640   18.5490 C   0  0  0  0  0  3  0  0  0  0  0  0
  -24.4690  -28.0170   18.8300 C   0  0  0  0  0  3  0  0  0  0  0  0
  -23.5320  -30.0690   20.0020 C   0  0  0  0  0  2  0  0  0  0  0  0
  -24.8770  -30.8480   21.9890 N   0  0  0  0  0  0  0  0  0  0  0  0
  -24.0040  -31.7160   23.8960 O   0  0  0  0  0  0  0  0  0  0  0  0
  -22.8440  -29.3490   22.3240 C   0  0  0  0  0  0  0  0  0  0  0  0
  -21.5070  -29.2480   22.2390 N   0  0  0  0  0  0  0  0  0  0  0  0
  -23.5270  -28.5850   23.0120 O   0  0  0  0  0  0  0  0  0  0  0  0
  -21.0160  -29.9150   21.6620 H   0  0  0  0  0  0  0  0  0  0  0  0
  -18.1200  -28.0290   22.5900 C   0  0  0  0  0  0  0  0  0  0  0  0
  -20.6770  -28.2460   22.9090 C   0  0  0  0  0  3  0  0  0  0  0  0
  -20.7780  -26.8790   22.1910 C   0  0  0  0  0  2  0  0  0  0  0  0
  -19.6850  -26.6650   21.1410 C   0  0  0  0  0  2  0  0  0  0  0  0
  -18.2990  -26.7520   21.7860 C   0  0  0  0  0  2  0  0  0  0  0  0
  -19.2380  -28.7390   23.1040 C   0  0  0  0  0  0  0  0  0  0  0  0
  -19.0180  -29.9390   23.8170 C   0  0  0  0  0  3  0  0  0  0  0  0
  -17.7140  -30.4260   24.0250 C   0  0  0  0  0  3  0  0  0  0  0  0
  -16.6100  -29.7110   23.5280 C   0  0  0  0  0  3  0  0  0  0  0  0
  -16.8140  -28.5150   22.8160 C   0  0  0  0  0  3  0  0  0  0  0  0
  -26.3920  -31.8430   23.7860 C   0  0  0  0  0  3  0  0  0  0  0  0
  -26.2430  -33.1450   24.4520 N   0  0  0  0  0  0  0  0  0  0  0  0
  -26.6910  -34.3060   23.9560 C   0  0  0  0  0  0  0  0  0  0  0  0
  -27.3480  -34.3820   22.9160 O   0  0  0  0  0  0  0  0  0  0  0  0
  -25.6690  -33.1700   25.2810 H   0  0  0  0  0  0  0  0  0  0  0  0
  -25.2090  -36.3350   24.0570 C   0  0  0  0  0  1  0  0  0  0  0  0
  -26.3610  -35.5860   24.7480 C   0  0  0  0  0  3  0  0  0  0  0  0
  -28.5490  -35.9500   25.7940 C   0  0  0  0  0  1  0  0  0  0  0  0
  -27.5180  -36.4890   24.9130 N   0  0  0  0  0  0  0  0  0  0  0  0
  -27.2230  -37.3850   25.2890 H   0  0  0  0  0  0  0  0  0  0  0  0
  -26.9860  -30.7720   24.7830 C   0  0  1  0  0  0  0  0  0  0  0  0
  -26.0000  -30.3610   25.8990 C   0  0  0  0  0  1  0  0  0  0  0  0
  -27.3960  -29.4810   24.0360 C   0  0  0  0  0  1  0  0  0  0  0  0
  -28.2760  -31.3190   25.4400 C   0  0  0  0  0  1  0  0  0  0  0  0
  -31.9500  -15.6190   21.4660 C   0  0  0  0  0  2  0  0  0  0  0  0
  -33.1490  -15.5250   20.4840 C   0  0  0  0  0  2  0  0  0  0  0  0
  -32.7000  -16.8720   18.2920 C   0  0  0  0  0  1  0  0  0  0  0  0
  -33.4830  -16.7560   19.6110 C   0  0  0  0  0  2  0  0  0  0  0  0
  1  2  2  0
  1  4  1  0
  2  3  1  0
  3 95  1  0
  3  5  2  0
  4  6  2  0
  5 43  1  0
  6  5  1  0
  7  2  1  0
  8 13  1  0
  9 10  1  0
  9  8  1  0
 11 10  1  0
 11 18  1  0
 11 12  1  0
 13  7  1  0
 13 12  1  0
 14  7  2  0
 15 16  2  0
 16 35  1  0
 17 16  1  0
 17 20  1  0
 18 19  1  0
 18 15  1  0
 19 17  2  0
 20 21  1  0
 21 22  2  0
 23 26  1  0
 23 22  1  0
 24 23  2  0
 25 24  1  0
 25 20  2  0
 26 27  1  0
 27 28  1  0
 28 29  2  0
 30 29  1  0
 30 34  1  0
 31 30  2  0
 32 27  2  0
 32 31  1  0
 33 32  1  0
 35 36  1  0
 36 39  1  0
 36 38  1  0
 37 35  2  0
 40 15  1  0
 40 41  1  0
 42 40  1  0
 43 44  1  0
 44 45  1  0
 45 46  1  0
 46 48  1  0
 48 47  1  0
 49 50  2  0
 49  4  1  0
 51 50  1  0
 52 51  1  0
 53 52  2  0
 53 54  1  0
 54 56  1  0
 55 66  2  0
 56 61  1  0
 57 65  1  0
 57 67  1  0
 58 64  1  0
 58 60  1  0
 59 65  1  0
 60 59  1  0
 61 60  2  0
 62 63  1  0
 62 56  2  0
 63 58  2  0
 64 57  1  0
 65 55  1  0
 67 69  2  0
 68 67  1  0
 70 68  1  0
 71 80  2  0
 71 76  1  0
 72 68  1  0
 72 76  1  0
 73 72  1  0
 74 75  1  0
 74 73  1  0
 75 71  1  0
 76 77  2  0
 77 78  1  0
 79 78  2  0
 80 79  1  0
 81 55  1  0
 81 82  1  0
 81 91  1  0
 82 85  1  0
 83 82  1  0
 83 87  1  0
 84 83  2  0
 87 86  1  0
 87 89  1  0
 89 90  1  0
 89 88  1  0
 91 94  1  1
 91 92  1  0
 93 91  1  0
 96 95  1  0
 97 98  1  0
 98 96  1  0
M  ISO  4   2 100   7 100  53 101  54 101
M  END
>  <TORSDO>  (73) 
F 29

>  <SCORE>  (73) 
-2.712

>  <name>  (73) 
72

>  <ligand_id>  (73) 
72

>  <original_smiles>  (73) 
[H]c1c([H])c([H])c2c(c1[H])C([H])([H])C([H])([H])C([H])([H])C2([H])N([H])C(=O)C1([H])N(C(=O)C([H])(N([H])C(=O)C([H])(N([H])C([H])([H])[H])C([H])([H])[H])C(C([H])([H])[H])(C([H])([H])[H])C([H])([H])[H])C([H])([H])c2c([H])c(OC([H])([H])C([H])([H])C([H])([H])C([H])([H])C([H])([H])c3nc(C([H])([H])C([H])([H])C([H])([H])C([H])([H])C([H])([H])C([H])([H])[H])c(C([H])([H])C([H])([H])C([H])([H])C([H])([H])[H])c(C(=O)N4C([H])([H])C([H])([H])C([H])([H])C([H])(n5nc(-c6c([H])c([H])c(Oc7c([H])c([H])c(F)c([H])c7F)c([H])c6[H])c(C(=O)N([H])[H])c5N([H])[H])C4([H])[H])c3[H])c([H])c([H])c2C1([H])[H]

>  <smiles>  (73) 
[H]c1c([H])c([H])c2c(c1[H])C([H])([H])C([H])([H])C([H])([H])C2([H])N([H])C(=O)C1([H])N(C(=O)C([H])(N([H])C(=O)C([H])(N([H])C([H])([H])[H])C([H])([H])[H])C(C([H])([H])[H])(C([H])([H])[H])C([H])([H])[H])C([H])([H])c2c([H])c(OC([H])([H])C([H])([H])C([H])([H])C([H])([H])C([H])([H])c3nc(C([H])([H])C([H])([H])C([H])([H])C([H])([H])C([H])([H])C([H])([H])[H])c(C([H])([H])C([H])([H])C([H])([H])C([H])([H])[H])c(C(=O)N4C([H])([H])C([H])([H])C([H])([H])C([H])(n5nc(-c6c([H])c([H])c(Oc7c([H])c([H])c(F)c([H])c7F)c([H])c6[H])c(C(=O)N([H])[H])c5N([H])[H])C4([H])[H])c3[H])c([H])c([H])c2C1([H])[H]

$$$$
73:0:0
     RDKit          3D

 90 98  0  0  1  0  0  0  0  0999 V2000
  -27.9340  -22.5430   21.6990 C   0  0  0  0  0  3  0  0  0  0  0  0
  -27.2760  -23.6190   22.3200 C   0  0  0  0  0  3  0  0  0  0  0  0
  -28.6870  -24.0820   19.9730 C   0  0  0  0  0  3  0  0  0  0  0  0
  -28.6350  -22.7380   20.4860 C   0  0  0  0  0  0  0  0  0  0  0  0
  -27.2970  -24.9250   21.7780 C   0  0  0  0  0  0  0  0  0  0  0  0
  -28.0700  -25.2000   20.6170 C   0  0  0  0  0  0  0  0  0  0  0  0
  -25.2280  -25.6640   22.7090 C   0  0  0  0  0  1  0  0  0  0  0  0
  -26.5910  -25.9410   22.3870 O   0  0  0  0  0  0  0  0  0  0  0  0
  -28.2420  -26.5130   20.1130 O   0  0  0  0  0  0  0  0  0  0  0  0
  -24.5350  -31.8530   23.1550 C   0  0  0  0  0  0  0  0  0  0  0  0
  -27.1580  -27.3770   20.0420 C   0  0  0  0  0  0  0  0  0  0  0  0
  -23.3430  -30.4630   21.4850 C   0  0  0  0  0  3  0  0  0  0  0  0
  -24.8050  -28.9530   20.0270 C   0  0  0  0  0  0  0  0  0  0  0  0
  -25.8650  -30.8160   21.3140 C   0  0  0  0  0  2  0  0  0  0  0  0
  -25.9590  -29.4540   20.6410 C   0  0  0  0  0  0  0  0  0  0  0  0
  -27.1480  -28.6680   20.6510 C   0  0  0  0  0  3  0  0  0  0  0  0
  -25.9880  -26.9250   19.4050 C   0  0  0  0  0  3  0  0  0  0  0  0
  -24.8130  -27.6970   19.3990 C   0  0  0  0  0  3  0  0  0  0  0  0
  -23.5530  -29.8020   20.0940 C   0  0  0  0  0  2  0  0  0  0  0  0
  -24.5960  -31.0630   22.0410 N   0  0  0  0  0  0  0  0  0  0  0  0
  -23.4500  -32.1120   23.6980 O   0  0  0  0  0  0  0  0  0  0  0  0
  -22.6830  -29.4340   22.4320 C   0  0  0  0  0  0  0  0  0  0  0  0
  -21.3570  -29.2460   22.2950 N   0  0  0  0  0  0  0  0  0  0  0  0
  -23.3610  -28.8090   23.2510 O   0  0  0  0  0  0  0  0  0  0  0  0
  -20.8640  -29.7450   21.5620 H   0  0  0  0  0  0  0  0  0  0  0  0
  -17.9630  -28.1220   22.9010 C   0  0  0  0  0  0  0  0  0  0  0  0
  -20.5380  -28.3160   23.0740 C   0  0  0  0  0  3  0  0  0  0  0  0
  -20.5660  -26.9030   22.4620 C   0  0  0  0  0  2  0  0  0  0  0  0
  -19.4160  -26.6550   21.4750 C   0  0  0  0  0  2  0  0  0  0  0  0
  -18.0740  -26.7760   22.1990 C   0  0  0  0  0  2  0  0  0  0  0  0
  -19.1160  -28.8480   23.3020 C   0  0  0  0  0  0  0  0  0  0  0  0
  -18.9530  -30.1030   23.9410 C   0  0  0  0  0  3  0  0  0  0  0  0
  -17.6700  -30.6250   24.1840 C   0  0  0  0  0  3  0  0  0  0  0  0
  -16.5350  -29.8980   23.7810 C   0  0  0  0  0  3  0  0  0  0  0  0
  -16.6810  -28.6550   23.1440 C   0  0  0  0  0  3  0  0  0  0  0  0
  -25.8170  -32.4710   23.7870 C   0  0  0  0  0  3  0  0  0  0  0  0
  -25.5090  -33.8650   24.1360 N   0  0  0  0  0  0  0  0  0  0  0  0
  -25.8450  -34.9280   23.3920 C   0  0  0  0  0  0  0  0  0  0  0  0
  -26.5210  -34.8360   22.3630 O   0  0  0  0  0  0  0  0  0  0  0  0
  -24.9070  -34.0070   24.9350 H   0  0  0  0  0  0  0  0  0  0  0  0
  -24.1150  -36.7180   23.0420 C   0  0  0  0  0  1  0  0  0  0  0  0
  -25.3520  -36.3070   23.8560 C   0  0  0  0  0  3  0  0  0  0  0  0
  -27.4750  -37.1880   24.7250 C   0  0  0  0  0  1  0  0  0  0  0  0
  -26.3830  -37.3640   23.7660 N   0  0  0  0  0  0  0  0  0  0  0  0
  -25.9740  -38.2770   23.9220 H   0  0  0  0  0  0  0  0  0  0  0  0
  -26.3410  -31.6850   25.0540 C   0  0  1  0  0  0  0  0  0  0  0  0
  -25.2410  -31.4110   26.1050 C   0  0  0  0  0  1  0  0  0  0  0  0
  -26.9550  -30.3210   24.6520 C   0  0  0  0  0  1  0  0  0  0  0  0
  -27.4720  -32.4850   25.7430 C   0  0  0  0  0  1  0  0  0  0  0  0
  -29.2070  -21.5090   19.7050 C   0  0  0  0  0  2  0  0  0  0  0  0
  -29.9540  -20.2930   20.4560 C   0  0  0  0  0  2  0  0  0  0  0  0
  -29.4490  -18.7490   20.4010 C   0  0  0  0  0  2  0  0  0  0  0  0
  -30.4930  -17.5310   20.2600 C   0  0  0  0  0  2  0  0  0  0  0  0
  -30.0720  -16.0790   20.8320 C   0  0  0  0  0  2  0  0  0  0  0  0
  -30.6780  -14.7370   20.2210 C   0  0  0  0  0  0  0  0  0  0  0  0
  -30.3480  -12.4680   19.2050 C   0  0  0  0  0  2  0  0  0  0  0  0
  -29.4020  -12.5810   17.9880 C   0  0  0  0  0  2  0  0  0  0  0  0
  -27.9450  -12.3930   18.4400 C   0  0  0  0  0  2  0  0  0  0  0  0
  -27.5910  -13.3030   19.6430 C   0  0  0  0  0  3  0  0  0  0  0  0
  -28.6740  -13.2570   20.7530 C   0  0  0  0  0  2  0  0  0  0  0  0
  -29.9840  -13.5450   20.1530 N   0  0  0  0  0  0  0  0  0  0  0  0
  -31.8060  -14.8100   19.7310 O   0  0  0  0  0  0  0  0  0  0  0  0
  -25.2090  -13.8990   20.4100 C   0  0  0  0  0  0  0  0  0  0  0  0
  -24.1520  -13.1300   20.7990 C   0  0  0  0  0  0  0  0  0  0  0  0
  -24.6140  -11.7750   20.7710 C   0  0  0  0  0  0  0  0  0  0  0  0
  -26.2530  -13.0190   20.1620 N   0  0  0  0  0  0  0  0  0  0  0  0
  -25.9010  -11.7390   20.4450 N   0  0  0  0  0  0  0  0  0  0  0  0
  -23.8900  -10.5150   20.9770 C   0  0  0  0  0  0  0  0  0  0  0  0
  -24.3350   -9.5530   21.9110 C   0  0  0  0  0  3  0  0  0  0  0  0
  -23.6120   -8.3570   22.1070 C   0  0  0  0  0  3  0  0  0  0  0  0
  -22.4320   -8.1120   21.3690 C   0  0  0  0  0  0  0  0  0  0  0  0
  -22.0050   -9.0600   20.4230 C   0  0  0  0  0  3  0  0  0  0  0  0
  -22.7270  -10.2480   20.2250 C   0  0  0  0  0  3  0  0  0  0  0  0
  -21.6780   -6.9690   21.4750 O   0  0  0  0  0  0  0  0  0  0  0  0
  -21.6430   -6.2340   22.6330 C   0  0  0  0  0  0  0  0  0  0  0  0
  -21.2280   -6.7920   23.8620 C   0  0  0  0  0  3  0  0  0  0  0  0
  -21.1390   -5.9790   25.0100 C   0  0  0  0  0  3  0  0  0  0  0  0
  -21.4610   -4.6110   24.9310 C   0  0  0  0  0  0  0  0  0  0  0  0
  -21.8760   -4.0530   23.7090 C   0  0  0  0  0  3  0  0  0  0  0  0
  -21.9640   -4.8630   22.5630 C   0  0  0  0  0  0  0  0  0  0  0  0
  -22.3400   -4.3150   21.3820 F   0  0  0  0  0  0  0  0  0  0  0  0
  -21.3720   -3.8280   26.0330 F   0  0  0  0  0  0  0  0  0  0  0  0
  -22.7580  -13.6030   21.0940 C   0  0  0  0  0  0  0  0  0  0  0  0
  -22.0420  -12.9060   21.9700 N   0  0  0  0  0  0  0  0  0  0  0  0
  -22.3100  -14.6290   20.5800 O   0  0  0  0  0  0  0  0  0  0  0  0
  -22.4170  -12.0770   22.4090 H   0  0  0  0  0  0  0  0  0  0  0  0
  -21.1060  -13.2020   22.2060 H   0  0  0  0  0  0  0  0  0  0  0  0
  -25.3710  -15.2690   20.2180 N   0  0  0  0  0  0  0  0  0  0  0  0
  -24.5980  -15.9230   20.2990 H   0  0  0  0  0  0  0  0  0  0  0  0
  -26.2160  -15.6920   19.8520 H   0  0  0  0  0  0  0  0  0  0  0  0
  1  2  1  0
  3  4  1  0
  3  6  2  0
  4  1  2  0
  5  2  2  0
  5  8  1  0
  6  5  1  0
  8  7  1  0
  9  6  1  0
 10 21  2  0
 11  9  1  0
 11 16  1  0
 12 20  1  0
 12 22  1  0
 13 19  1  0
 13 15  1  0
 14 20  1  0
 15 16  2  0
 15 14  1  0
 17 11  2  0
 18 17  1  0
 18 13  2  0
 19 12  1  0
 20 10  1  0
 22 24  2  0
 23 22  1  0
 25 23  1  0
 26 35  2  0
 26 31  1  0
 27 23  1  0
 27 31  1  0
 28 27  1  0
 29 30  1  0
 29 28  1  0
 30 26  1  0
 31 32  2  0
 32 33  1  0
 34 33  2  0
 35 34  1  0
 36 10  1  0
 36 37  1  0
 36 46  1  0
 37 40  1  0
 38 42  1  0
 38 37  1  0
 39 38  2  0
 42 41  1  0
 44 42  1  0
 44 45  1  0
 44 43  1  0
 46 49  1  1
 46 47  1  0
 48 46  1  0
 50 51  1  0
 50  4  1  0
 52 51  1  0
 53 52  1  0
 53 54  1  0
 55 54  1  0
 56 61  1  0
 57 58  1  0
 57 56  1  0
 59 58  1  0
 59 66  1  0
 59 60  1  0
 61 55  1  0
 61 60  1  0
 62 55  2  0
 63 64  2  0
 64 83  1  0
 65 64  1  0
 65 68  1  0
 66 63  1  0
 66 67  1  0
 67 65  2  0
 68 69  1  0
 69 70  2  0
 71 74  1  0
 71 70  1  0
 72 71  2  0
 73 72  1  0
 73 68  2  0
 74 75  1  0
 75 76  1  0
 76 77  2  0
 78 77  1  0
 78 82  1  0
 79 78  2  0
 80 75  2  0
 80 79  1  0
 81 80  1  0
 83 84  1  0
 84 87  1  0
 84 86  1  0
 85 83  2  0
 88 89  1  0
 88 63  1  0
 90 88  1  0
M  ISO  4   6 101   9 101  54 100  55 100
M  END
>  <TORSDO>  (74) 
F 22

>  <SCORE>  (74) 
-12.873

>  <name>  (74) 
73

>  <ligand_id>  (74) 
73

>  <original_smiles>  (74) 
[H]c1c([H])c([H])c2c(c1[H])C([H])([H])C([H])([H])C([H])([H])C2([H])N([H])C(=O)C1([H])N(C(=O)C([H])(N([H])C(=O)C([H])(N([H])C([H])([H])[H])C([H])([H])[H])C(C([H])([H])[H])(C([H])([H])[H])C([H])([H])[H])C([H])([H])c2c([H])c(Oc3c([H])c(C([H])([H])C([H])([H])C([H])([H])C([H])([H])C([H])([H])C(=O)N4C([H])([H])C([H])([H])C([H])([H])C([H])(n5nc(-c6c([H])c([H])c(Oc7c([H])c([H])c(F)c([H])c7F)c([H])c6[H])c(C(=O)N([H])[H])c5N([H])[H])C4([H])[H])c([H])c([H])c3OC([H])([H])[H])c([H])c([H])c2C1([H])[H]

>  <smiles>  (74) 
[H]c1c([H])c([H])c2c(c1[H])C([H])([H])C([H])([H])C([H])([H])C2([H])N([H])C(=O)C1([H])N(C(=O)C([H])(N([H])C(=O)C([H])(N([H])C([H])([H])[H])C([H])([H])[H])C(C([H])([H])[H])(C([H])([H])[H])C([H])([H])[H])C([H])([H])c2c([H])c(Oc3c([H])c(C([H])([H])C([H])([H])C([H])([H])C([H])([H])C([H])([H])C(=O)N4C([H])([H])C([H])([H])C([H])([H])C([H])(n5nc(-c6c([H])c([H])c(Oc7c([H])c([H])c(F)c([H])c7F)c([H])c6[H])c(C(=O)N([H])[H])c5N([H])[H])C4([H])[H])c([H])c([H])c3OC([H])([H])[H])c([H])c([H])c2C1([H])[H]

$$$$
74:0:0
     RDKit          3D

 91100  0  0  1  0  0  0  0  0999 V2000
  -28.6080  -21.6860   20.7600 C   0  0  0  0  0  3  0  0  0  0  0  0
  -28.5550  -23.1520   18.4860 C   0  0  0  0  0  3  0  0  0  0  0  0
  -28.2970  -23.1990   20.7130 C   0  0  0  0  0  0  0  0  0  0  0  0
  -28.9420  -20.7310   19.6660 C   0  0  0  0  0  0  0  0  0  0  0  0
  -28.8980  -21.6550   18.5500 C   0  0  0  0  0  0  0  0  0  0  0  0
  -28.1750  -24.1470   19.5500 C   0  0  0  0  0  0  0  0  0  0  0  0
  -29.4340  -20.8180   17.3880 C   0  0  0  0  0  2  0  0  0  0  0  0
  -29.6420  -19.2920   17.8110 C   0  0  0  0  0  2  0  0  0  0  0  0
  -29.6320  -19.0570   19.3590 C   0  0  0  0  0  3  0  0  0  0  0  0
  -30.3010  -15.9730   19.7710 C   0  0  0  0  0  0  0  0  0  0  0  0
  -30.5200  -13.3570   19.2510 C   0  0  0  0  0  2  0  0  0  0  0  0
  -29.6430  -12.7640   18.1100 C   0  0  0  0  0  2  0  0  0  0  0  0
  -28.2490  -12.3890   18.6280 C   0  0  0  0  0  2  0  0  0  0  0  0
  -27.6920  -13.4800   19.5690 C   0  0  0  0  0  3  0  0  0  0  0  0
  -28.7100  -13.9850   20.6190 C   0  0  0  0  0  2  0  0  0  0  0  0
  -29.8420  -14.5840   19.8750 N   0  0  0  0  0  0  0  0  0  0  0  0
  -31.5300  -15.9410   19.5740 O   0  0  0  0  0  0  0  0  0  0  0  0
  -29.4890  -17.3100   19.7010 N   0  0  0  0  0  0  0  0  0  0  0  0
  -28.5180  -17.0900   19.8690 H   0  0  0  0  0  0  0  0  0  0  0  0
  -25.3740  -13.9900   20.4720 C   0  0  0  0  0  0  0  0  0  0  0  0
  -24.3330  -13.2010   20.8680 C   0  0  0  0  0  0  0  0  0  0  0  0
  -24.7980  -11.8530   20.7700 C   0  0  0  0  0  0  0  0  0  0  0  0
  -26.4020  -13.1270   20.1460 N   0  0  0  0  0  0  0  0  0  0  0  0
  -26.0740  -11.8310   20.3920 N   0  0  0  0  0  0  0  0  0  0  0  0
  -24.0770  -10.5860   20.9560 C   0  0  0  0  0  0  0  0  0  0  0  0
  -24.4940   -9.6280   21.9060 C   0  0  0  0  0  3  0  0  0  0  0  0
  -23.7670   -8.4300   22.0810 C   0  0  0  0  0  3  0  0  0  0  0  0
  -22.6100   -8.1810   21.3060 C   0  0  0  0  0  0  0  0  0  0  0  0
  -22.2130   -9.1270   20.3450 C   0  0  0  0  0  3  0  0  0  0  0  0
  -22.9390  -10.3160   20.1680 C   0  0  0  0  0  3  0  0  0  0  0  0
  -21.8580   -7.0340   21.3890 O   0  0  0  0  0  0  0  0  0  0  0  0
  -21.7230   -6.3460   22.5680 C   0  0  0  0  0  0  0  0  0  0  0  0
  -21.1100   -6.9240   23.7020 C   0  0  0  0  0  3  0  0  0  0  0  0
  -20.9300   -6.1570   24.8700 C   0  0  0  0  0  3  0  0  0  0  0  0
  -21.3510   -4.8140   24.9060 C   0  0  0  0  0  0  0  0  0  0  0  0
  -21.9550   -4.2360   23.7750 C   0  0  0  0  0  3  0  0  0  0  0  0
  -22.1380   -5.0000   22.6090 C   0  0  0  0  0  0  0  0  0  0  0  0
  -22.7020   -4.4330   21.5160 F   0  0  0  0  0  0  0  0  0  0  0  0
  -21.1700   -4.0750   26.0240 F   0  0  0  0  0  0  0  0  0  0  0  0
  -22.9520  -13.6710   21.2160 C   0  0  0  0  0  0  0  0  0  0  0  0
  -22.2720  -12.9630   22.1090 N   0  0  0  0  0  0  0  0  0  0  0  0
  -22.4900  -14.7030   20.7300 O   0  0  0  0  0  0  0  0  0  0  0  0
  -22.6630  -12.1280   22.5200 H   0  0  0  0  0  0  0  0  0  0  0  0
  -21.3480  -13.2630   22.3900 H   0  0  0  0  0  0  0  0  0  0  0  0
  -25.5280  -15.3660   20.3310 N   0  0  0  0  0  0  0  0  0  0  0  0
  -24.7640  -16.0130   20.5040 H   0  0  0  0  0  0  0  0  0  0  0  0
  -26.3430  -15.8170   19.9380 H   0  0  0  0  0  0  0  0  0  0  0  0
  -28.1370  -23.8470   22.0410 C   0  0  0  0  0  0  0  0  0  0  0  0
  -29.4130  -24.0760   22.8470 C   0  0  0  0  0  1  0  0  0  0  0  0
  -27.0610  -24.2430   22.4910 O   0  0  0  0  0  0  0  0  0  0  0  0
  -28.0740  -25.7740   19.4520 O   0  0  0  0  0  0  0  0  0  0  0  0
  -24.7750  -31.8310   23.0820 C   0  0  0  0  0  0  0  0  0  0  0  0
  -27.0640  -26.9560   19.5920 C   0  0  0  0  0  0  0  0  0  0  0  0
  -23.4710  -30.5570   21.4310 C   0  0  0  0  0  3  0  0  0  0  0  0
  -24.8090  -29.0020   19.8190 C   0  0  0  0  0  0  0  0  0  0  0  0
  -26.0360  -30.6930   21.1550 C   0  0  0  0  0  2  0  0  0  0  0  0
  -26.0450  -29.3070   20.4020 C   0  0  0  0  0  0  0  0  0  0  0  0
  -27.1500  -28.3130   20.2620 C   0  0  0  0  0  3  0  0  0  0  0  0
  -25.7940  -26.8680   18.9650 C   0  0  0  0  0  3  0  0  0  0  0  0
  -24.7220  -27.8110   19.0770 C   0  0  0  0  0  3  0  0  0  0  0  0
  -23.6170  -29.9550   20.0030 C   0  0  0  0  0  2  0  0  0  0  0  0
  -24.7870  -31.0580   21.9420 N   0  0  0  0  0  0  0  0  0  0  0  0
  -23.7190  -32.0980   23.6840 O   0  0  0  0  0  0  0  0  0  0  0  0
  -22.8100  -29.5180   22.3770 C   0  0  0  0  0  0  0  0  0  0  0  0
  -21.4790  -29.3330   22.2830 N   0  0  0  0  0  0  0  0  0  0  0  0
  -23.5070  -28.8760   23.1670 O   0  0  0  0  0  0  0  0  0  0  0  0
  -20.9650  -29.9000   21.6240 H   0  0  0  0  0  0  0  0  0  0  0  0
  -18.1440  -27.9920   22.8230 C   0  0  0  0  0  0  0  0  0  0  0  0
  -20.7010  -28.3400   23.0340 C   0  0  0  0  0  3  0  0  0  0  0  0
  -20.8360  -26.9360   22.3990 C   0  0  0  0  0  2  0  0  0  0  0  0
  -19.7210  -26.6180   21.3980 C   0  0  0  0  0  2  0  0  0  0  0  0
  -18.3510  -26.6820   22.0810 C   0  0  0  0  0  2  0  0  0  0  0  0
  -19.2470  -28.7780   23.2570 C   0  0  0  0  0  0  0  0  0  0  0  0
  -18.9960  -29.9990   23.9200 C   0  0  0  0  0  3  0  0  0  0  0  0
  -17.6780  -30.4380   24.1460 C   0  0  0  0  0  3  0  0  0  0  0  0
  -16.5910  -29.6510   23.7250 C   0  0  0  0  0  3  0  0  0  0  0  0
  -16.8270  -28.4290   23.0700 C   0  0  0  0  0  3  0  0  0  0  0  0
  -26.0810  -32.4300   23.6850 C   0  0  0  0  0  3  0  0  0  0  0  0
  -25.7860  -33.7960   24.1620 N   0  0  0  0  0  0  0  0  0  0  0  0
  -26.0390  -34.9230   23.4820 C   0  0  0  0  0  0  0  0  0  0  0  0
  -26.5990  -34.9220   22.3840 O   0  0  0  0  0  0  0  0  0  0  0  0
  -25.2700  -33.8670   25.0270 H   0  0  0  0  0  0  0  0  0  0  0  0
  -24.2740  -36.7250   23.4960 C   0  0  0  0  0  1  0  0  0  0  0  0
  -25.6040  -36.2640   24.1150 C   0  0  0  0  0  3  0  0  0  0  0  0
  -27.8040  -37.1260   24.7890 C   0  0  0  0  0  1  0  0  0  0  0  0
  -26.6130  -37.3370   23.9720 N   0  0  0  0  0  0  0  0  0  0  0  0
  -26.2170  -38.2410   24.2130 H   0  0  0  0  0  0  0  0  0  0  0  0
  -26.6660  -31.5650   24.8720 C   0  0  1  0  0  0  0  0  0  0  0  0
  -25.6350  -31.2540   25.9840 C   0  0  0  0  0  1  0  0  0  0  0  0
  -27.2160  -30.2160   24.3600 C   0  0  0  0  0  1  0  0  0  0  0  0
  -27.8590  -32.3080   25.5210 C   0  0  0  0  0  1  0  0  0  0  0  0
  2  5  2  0
  2  6  1  0
  3  1  1  0
  3 48  1  0
  4  1  2  0
  5  4  1  0
  6  3  2  0
  7  8  1  0
  7  5  1  0
  8  9  1  0
  9  4  1  0
  9 18  1  0
 10 16  1  0
 11 16  1  0
 12 13  1  0
 12 11  1  0
 14 13  1  0
 14 23  1  0
 14 15  1  0
 16 15  1  0
 17 10  2  0
 18 10  1  0
 18 19  1  0
 20 21  2  0
 21 40  1  0
 22 21  1  0
 22 25  1  0
 23 24  1  0
 23 20  1  0
 24 22  2  0
 25 26  1  0
 26 27  2  0
 28 31  1  0
 28 27  1  0
 29 28  2  0
 30 29  1  0
 30 25  2  0
 31 32  1  0
 32 37  2  0
 32 33  1  0
 33 34  2  0
 34 35  1  0
 35 39  1  0
 36 35  2  0
 37 36  1  0
 38 37  1  0
 40 41  1  0
 41 44  1  0
 41 43  1  0
 42 40  2  0
 45 20  1  0
 45 46  1  0
 47 45  1  0
 48 50  2  0
 48 49  1  0
 51  6  1  0
 51 53  1  0
 52 63  2  0
 53 58  1  0
 54 62  1  0
 54 64  1  0
 55 61  1  0
 55 57  1  0
 56 62  1  0
 57 56  1  0
 58 57  2  0
 59 60  1  0
 59 53  2  0
 60 55  2  0
 61 54  1  0
 62 52  1  0
 64 66  2  0
 65 64  1  0
 67 65  1  0
 68 77  2  0
 68 73  1  0
 69 65  1  0
 69 73  1  0
 70 69  1  0
 71 72  1  0
 71 70  1  0
 72 68  1  0
 73 74  2  0
 74 75  1  0
 76 75  2  0
 77 76  1  0
 78 52  1  0
 78 79  1  0
 78 88  1  0
 79 82  1  0
 80 84  1  0
 80 79  1  0
 81 80  2  0
 84 83  1  0
 86 84  1  0
 86 87  1  0
 86 85  1  0
 88 91  1  1
 88 89  1  0
 90 88  1  0
M  ISO  4   6 101  10 100  18 100  51 101
M  END
>  <TORSDO>  (75) 
F 17

>  <SCORE>  (75) 
-14.748

>  <name>  (75) 
74

>  <ligand_id>  (75) 
74

>  <original_smiles>  (75) 
[H]c1c([H])c([H])c2c(c1[H])C([H])([H])C([H])([H])C([H])([H])C2([H])N([H])C(=O)C1([H])N(C(=O)C([H])(N([H])C(=O)C([H])(N([H])C([H])([H])[H])C([H])([H])[H])C(C([H])([H])[H])(C([H])([H])[H])C([H])([H])[H])C([H])([H])c2c([H])c(Oc3c([H])c4c(c([H])c3C(=O)C([H])([H])[H])C([H])(N([H])C(=O)N3C([H])([H])C([H])([H])C([H])([H])C([H])(n5nc(-c6c([H])c([H])c(Oc7c([H])c([H])c(F)c([H])c7F)c([H])c6[H])c(C(=O)N([H])[H])c5N([H])[H])C3([H])[H])C([H])([H])C4([H])[H])c([H])c([H])c2C1([H])[H]

>  <smiles>  (75) 
[H]c1c([H])c([H])c2c(c1[H])C([H])([H])C([H])([H])C([H])([H])C2([H])N([H])C(=O)C1([H])N(C(=O)C([H])(N([H])C(=O)C([H])(N([H])C([H])([H])[H])C([H])([H])[H])C(C([H])([H])[H])(C([H])([H])[H])C([H])([H])[H])C([H])([H])c2c([H])c(Oc3c([H])c4c(c([H])c3C(=O)C([H])([H])[H])C([H])(N([H])C(=O)N3C([H])([H])C([H])([H])C([H])([H])C([H])(n5nc(-c6c([H])c([H])c(Oc7c([H])c([H])c(F)c([H])c7F)c([H])c6[H])c(C(=O)N([H])[H])c5N([H])[H])C3([H])[H])C([H])([H])C4([H])[H])c([H])c([H])c2C1([H])[H]

$$$$
75:0:0
     RDKit          3D

 94102  0  0  1  0  0  0  0  0999 V2000
  -29.9310  -25.0420   21.3480 C   0  0  0  0  0  3  0  0  0  0  0  0
  -32.2170  -24.3970   20.8030 C   0  0  0  0  0  3  0  0  0  0  0  0
  -31.3200  -26.5080   19.9860 C   0  0  0  0  0  3  0  0  0  0  0  0
  -30.9860  -24.1150   21.4430 C   0  0  0  0  0  0  0  0  0  0  0  0
  -30.0910  -26.2330   20.6170 C   0  0  0  0  0  0  0  0  0  0  0  0
  -32.3930  -25.5980   20.0720 C   0  0  0  0  0  0  0  0  0  0  0  0
  -30.7950  -22.8960   22.2720 C   0  0  0  0  0  0  0  0  0  0  0  0
  -29.9530  -22.8220   23.1730 O   0  0  0  0  0  0  0  0  0  0  0  0
  -31.6620  -21.6790   21.9330 C   0  0  0  0  0  2  0  0  0  0  0  0
  -30.9440  -20.3400   22.1720 C   0  0  0  0  0  2  0  0  0  0  0  0
  -31.6840  -19.1700   21.5160 C   0  0  0  0  0  2  0  0  0  0  0  0
  -30.9140  -17.8530   21.6400 C   0  0  0  0  0  2  0  0  0  0  0  0
  -31.5750  -16.7260   20.8340 C   0  0  0  0  0  2  0  0  0  0  0  0
  -30.7700  -15.4180   20.9100 C   0  0  0  0  0  2  0  0  0  0  0  0
  -31.2720  -14.3110   19.9700 C   0  0  0  0  0  0  0  0  0  0  0  0
  -30.8210  -12.1560   18.8480 C   0  0  0  0  0  2  0  0  0  0  0  0
  -29.8320  -12.3530   17.6840 C   0  0  0  0  0  2  0  0  0  0  0  0
  -28.3750  -12.2970   18.1840 C   0  0  0  0  0  2  0  0  0  0  0  0
  -28.1330  -13.2130   19.4120 C   0  0  0  0  0  3  0  0  0  0  0  0
  -29.2170  -12.9720   20.4840 C   0  0  0  0  0  2  0  0  0  0  0  0
  -30.5320  -13.1810   19.8600 N   0  0  0  0  0  0  0  0  0  0  0  0
  -32.3080  -14.4950   19.3190 O   0  0  0  0  0  0  0  0  0  0  0  0
  -25.8180  -13.9820   20.2460 C   0  0  0  0  0  0  0  0  0  0  0  0
  -24.7190  -13.2790   20.6640 C   0  0  0  0  0  0  0  0  0  0  0  0
  -25.0830  -11.9000   20.5940 C   0  0  0  0  0  0  0  0  0  0  0  0
  -26.7870  -13.0330   19.9540 N   0  0  0  0  0  0  0  0  0  0  0  0
  -26.3480  -11.7760   20.2160 N   0  0  0  0  0  0  0  0  0  0  0  0
  -24.2820  -10.6870   20.8090 C   0  0  0  0  0  0  0  0  0  0  0  0
  -24.6850   -9.6900   21.7260 C   0  0  0  0  0  3  0  0  0  0  0  0
  -23.8900   -8.5420   21.9280 C   0  0  0  0  0  3  0  0  0  0  0  0
  -22.6790   -8.3830   21.2150 C   0  0  0  0  0  0  0  0  0  0  0  0
  -22.2940   -9.3670   20.2880 C   0  0  0  0  0  3  0  0  0  0  0  0
  -23.0880  -10.5070   20.0830 C   0  0  0  0  0  3  0  0  0  0  0  0
  -21.8550   -7.2890   21.3280 O   0  0  0  0  0  0  0  0  0  0  0  0
  -21.7770   -6.5640   22.4900 C   0  0  0  0  0  0  0  0  0  0  0  0
  -21.4180   -7.1620   23.7180 C   0  0  0  0  0  3  0  0  0  0  0  0
  -21.2800   -6.3680   24.8740 C   0  0  0  0  0  3  0  0  0  0  0  0
  -21.4920   -4.9780   24.8040 C   0  0  0  0  0  0  0  0  0  0  0  0
  -21.8460   -4.3810   23.5810 C   0  0  0  0  0  3  0  0  0  0  0  0
  -21.9840   -5.1720   22.4270 C   0  0  0  0  0  0  0  0  0  0  0  0
  -22.3040   -4.5880   21.2470 F   0  0  0  0  0  0  0  0  0  0  0  0
  -21.3540   -4.2140   25.9120 F   0  0  0  0  0  0  0  0  0  0  0  0
  -23.3750  -13.8470   21.0170 C   0  0  0  0  0  0  0  0  0  0  0  0
  -22.6550  -13.1960   21.9250 N   0  0  0  0  0  0  0  0  0  0  0  0
  -22.9750  -14.9020   20.5250 O   0  0  0  0  0  0  0  0  0  0  0  0
  -22.9900  -12.3400   22.3420 H   0  0  0  0  0  0  0  0  0  0  0  0
  -21.7560  -13.5590   22.2090 H   0  0  0  0  0  0  0  0  0  0  0  0
  -26.0700  -15.3390   20.0740 N   0  0  0  0  0  0  0  0  0  0  0  0
  -25.3600  -16.0480   20.2330 H   0  0  0  0  0  0  0  0  0  0  0  0
  -26.9370  -15.7210   19.7200 H   0  0  0  0  0  0  0  0  0  0  0  0
  -34.6440  -25.0310   19.4380 C   0  0  0  0  0  1  0  0  0  0  0  0
  -33.5660  -25.9630   19.4470 O   0  0  0  0  0  0  0  0  0  0  0  0
  -28.9900  -27.2690   20.6480 C   0  0  0  0  0  2  0  0  0  0  0  0
  -27.7440  -26.7840   20.1340 O   0  0  0  0  0  0  0  0  0  0  0  0
  -24.4620  -32.1210   23.5000 C   0  0  0  0  0  0  0  0  0  0  0  0
  -26.6540  -27.6290   20.2110 C   0  0  0  0  0  0  0  0  0  0  0  0
  -23.0690  -30.8550   21.8860 C   0  0  0  0  0  3  0  0  0  0  0  0
  -24.3360  -29.2490   20.3610 C   0  0  0  0  0  0  0  0  0  0  0  0
  -25.5900  -31.0590   21.5550 C   0  0  0  0  0  2  0  0  0  0  0  0
  -25.5460  -29.7040   20.8890 C   0  0  0  0  0  0  0  0  0  0  0  0
  -26.7020  -28.9110   20.8050 C   0  0  0  0  0  3  0  0  0  0  0  0
  -25.4260  -27.1770   19.6810 C   0  0  0  0  0  3  0  0  0  0  0  0
  -24.2680  -27.9810   19.7480 C   0  0  0  0  0  3  0  0  0  0  0  0
  -23.1560  -30.1850   20.4860 C   0  0  0  0  0  2  0  0  0  0  0  0
  -24.3960  -31.3550   22.3750 N   0  0  0  0  0  0  0  0  0  0  0  0
  -23.4360  -32.4560   24.1060 O   0  0  0  0  0  0  0  0  0  0  0  0
  -22.3960  -29.8630   22.8620 C   0  0  0  0  0  0  0  0  0  0  0  0
  -21.0810  -29.6600   22.6860 N   0  0  0  0  0  0  0  0  0  0  0  0
  -23.0530  -29.2770   23.7260 O   0  0  0  0  0  0  0  0  0  0  0  0
  -20.6150  -30.1830   21.9570 H   0  0  0  0  0  0  0  0  0  0  0  0
  -17.7490  -28.3000   22.9400 C   0  0  0  0  0  0  0  0  0  0  0  0
  -20.2420  -28.7440   23.4550 C   0  0  0  0  0  3  0  0  0  0  0  0
  -20.4890  -27.2780   23.0300 C   0  0  0  0  0  2  0  0  0  0  0  0
  -19.5250  -26.7960   21.9410 C   0  0  0  0  0  2  0  0  0  0  0  0
  -18.0750  -26.9070   22.4200 C   0  0  0  0  0  2  0  0  0  0  0  0
  -18.7690  -29.1660   23.4120 C   0  0  0  0  0  0  0  0  0  0  0  0
  -18.4190  -30.4600   23.8530 C   0  0  0  0  0  3  0  0  0  0  0  0
  -17.0800  -30.8900   23.8290 C   0  0  0  0  0  3  0  0  0  0  0  0
  -16.0710  -30.0210   23.3790 C   0  0  0  0  0  3  0  0  0  0  0  0
  -16.4050  -28.7280   22.9390 C   0  0  0  0  0  3  0  0  0  0  0  0
  -25.8250  -32.6330   24.0680 C   0  0  0  0  0  3  0  0  0  0  0  0
  -26.3540  -31.7760   25.2830 C   0  0  1  0  0  0  0  0  0  0  0  0
  -25.3050  -31.5730   26.4010 C   0  0  0  0  0  1  0  0  0  0  0  0
  -26.8170  -30.3820   24.8000 C   0  0  0  0  0  1  0  0  0  0  0  0
  -27.5870  -32.4630   25.9140 C   0  0  0  0  0  1  0  0  0  0  0  0
  -25.6450  -34.0360   24.4580 N   0  0  0  0  0  0  0  0  0  0  0  0
  -26.0420  -35.0840   23.7250 C   0  0  0  0  0  0  0  0  0  0  0  0
  -26.6710  -34.9640   22.6690 O   0  0  0  0  0  0  0  0  0  0  0  0
  -25.0890  -34.2080   25.2830 H   0  0  0  0  0  0  0  0  0  0  0  0
  -24.4610  -37.0190   23.4770 C   0  0  0  0  0  1  0  0  0  0  0  0
  -25.6820  -36.4860   24.2450 C   0  0  0  0  0  3  0  0  0  0  0  0
  -27.9020  -37.1580   25.0500 C   0  0  0  0  0  1  0  0  0  0  0  0
  -26.7950  -37.4560   24.1460 N   0  0  0  0  0  0  0  0  0  0  0  0
  -26.4700  -38.3980   24.3440 H   0  0  0  0  0  0  0  0  0  0  0  0
  1  4  1  0
  2  4  2  0
  3  6  2  0
  3  5  1  0
  4  7  1  0
  5 53  1  0
  5  1  2  0
  6  2  1  0
  7  8  2  0
  9 10  1  0
  9  7  1  0
 11 12  1  0
 11 10  1  0
 13 14  1  0
 13 12  1  0
 15 14  1  0
 16 21  1  0
 17 18  1  0
 17 16  1  0
 19 18  1  0
 19 26  1  0
 19 20  1  0
 21 15  1  0
 21 20  1  0
 22 15  2  0
 23 24  2  0
 24 43  1  0
 25 24  1  0
 25 28  1  0
 26 27  1  0
 26 23  1  0
 27 25  2  0
 28 29  1  0
 29 30  2  0
 31 34  1  0
 31 30  1  0
 32 31  2  0
 33 32  1  0
 33 28  2  0
 34 35  1  0
 35 36  1  0
 36 37  2  0
 38 37  1  0
 38 42  1  0
 39 38  2  0
 40 35  2  0
 40 39  1  0
 41 40  1  0
 43 44  1  0
 44 47  1  0
 44 46  1  0
 45 43  2  0
 48 49  1  0
 48 23  1  0
 50 48  1  0
 51 52  1  0
 52  6  1  0
 54 56  1  0
 54 53  1  0
 55 66  2  0
 56 61  1  0
 57 65  1  0
 57 67  1  0
 58 64  1  0
 58 60  1  0
 59 65  1  0
 60 59  1  0
 61 60  2  0
 62 63  1  0
 62 56  2  0
 63 58  2  0
 64 57  1  0
 65 55  1  0
 67 69  2  0
 68 67  1  0
 70 68  1  0
 71 76  1  0
 72 68  1  0
 73 72  1  0
 74 75  1  0
 74 73  1  0
 75 71  1  0
 76 72  1  0
 76 77  2  0
 78 77  1  0
 79 78  2  0
 80 71  2  0
 80 79  1  0
 81 55  1  0
 81 86  1  0
 81 82  1  0
 82 85  1  1
 82 83  1  0
 84 82  1  0
 86 89  1  0
 87 91  1  0
 87 86  1  0
 88 87  2  0
 91 90  1  0
 93 91  1  0
 93 94  1  0
 93 92  1  0
M  ISO  4  14 100  15 100  53 101  54 101
M  END
>  <TORSDO>  (76) 
F 25

>  <SCORE>  (76) 
-10.853

>  <name>  (76) 
75

>  <ligand_id>  (76) 
75

>  <original_smiles>  (76) 
[H]c1c([H])c([H])c2c(c1[H])C([H])([H])C([H])([H])C([H])([H])C2([H])N([H])C(=O)C1([H])N(C(=O)C([H])(N([H])C(=O)C([H])(N([H])C([H])([H])[H])C([H])([H])[H])C(C([H])([H])[H])(C([H])([H])[H])C([H])([H])[H])C([H])([H])c2c([H])c(OC([H])([H])c3c([H])c(OC([H])([H])[H])c([H])c(C(=O)C([H])([H])C([H])([H])C([H])([H])C([H])([H])C([H])([H])C([H])([H])C(=O)N4C([H])([H])C([H])([H])C([H])([H])C([H])(n5nc(-c6c([H])c([H])c(Oc7c([H])c([H])c(F)c([H])c7F)c([H])c6[H])c(C(=O)N([H])[H])c5N([H])[H])C4([H])[H])c3[H])c([H])c([H])c2C1([H])[H]

>  <smiles>  (76) 
[H]c1c([H])c([H])c2c(c1[H])C([H])([H])C([H])([H])C([H])([H])C2([H])N([H])C(=O)C1([H])N(C(=O)C([H])(N([H])C(=O)C([H])(N([H])C([H])([H])[H])C([H])([H])[H])C(C([H])([H])[H])(C([H])([H])[H])C([H])([H])[H])C([H])([H])c2c([H])c(OC([H])([H])c3c([H])c(OC([H])([H])[H])c([H])c(C(=O)C([H])([H])C([H])([H])C([H])([H])C([H])([H])C([H])([H])C([H])([H])C(=O)N4C([H])([H])C([H])([H])C([H])([H])C([H])(n5nc(-c6c([H])c([H])c(Oc7c([H])c([H])c(F)c([H])c7F)c([H])c6[H])c(C(=O)N([H])[H])c5N([H])[H])C4([H])[H])c3[H])c([H])c([H])c2C1([H])[H]

$$$$
76:0:0
     RDKit          3D

 92100  0  0  1  0  0  0  0  0999 V2000
  -29.5900  -24.2690   16.8840 C   0  0  0  0  0  3  0  0  0  0  0  0
  -29.4770  -25.6570   16.6770 C   0  0  0  0  0  3  0  0  0  0  0  0
  -28.8840  -24.5550   19.1920 C   0  0  0  0  0  3  0  0  0  0  0  0
  -29.2870  -23.6960   18.1390 C   0  0  0  0  0  0  0  0  0  0  0  0
  -29.0780  -26.5070   17.7280 C   0  0  0  0  0  0  0  0  0  0  0  0
  -28.7740  -25.9540   18.9970 C   0  0  0  0  0  0  0  0  0  0  0  0
  -28.9930  -28.0020   17.4760 C   0  0  0  0  0  1  0  0  0  0  0  0
  -29.4390  -22.2120   18.3140 C   0  0  0  0  0  0  0  0  0  0  0  0
  -30.0940  -21.5170   17.5310 O   0  0  0  0  0  0  0  0  0  0  0  0
  -28.6920  -21.5450   19.4820 C   0  0  0  0  0  2  0  0  0  0  0  0
  -28.6230  -19.9910   19.4600 C   0  0  0  0  0  2  0  0  0  0  0  0
  -29.7720  -19.2490   20.1840 C   0  0  0  0  0  2  0  0  0  0  0  0
  -29.5310  -17.7220   20.2620 C   0  0  0  0  0  2  0  0  0  0  0  0
  -30.4680  -16.9830   21.2460 C   0  0  0  0  0  2  0  0  0  0  0  0
  -30.0580  -15.5100   21.5230 C   0  0  0  0  0  2  0  0  0  0  0  0
  -30.6650  -14.4320   20.5950 C   0  0  0  0  0  0  0  0  0  0  0  0
  -30.3640  -12.3220   19.3330 C   0  0  0  0  0  2  0  0  0  0  0  0
  -29.4120  -12.5530   18.1430 C   0  0  0  0  0  2  0  0  0  0  0  0
  -27.9370  -12.4270   18.5770 C   0  0  0  0  0  2  0  0  0  0  0  0
  -27.6160  -13.2330   19.8640 C   0  0  0  0  0  3  0  0  0  0  0  0
  -28.6710  -12.9410   20.9550 C   0  0  0  0  0  2  0  0  0  0  0  0
  -29.9930  -13.2660   20.3980 N   0  0  0  0  0  0  0  0  0  0  0  0
  -31.7400  -14.6700   20.0350 O   0  0  0  0  0  0  0  0  0  0  0  0
  -25.2110  -13.8550   20.5490 C   0  0  0  0  0  0  0  0  0  0  0  0
  -24.1390  -13.0880   20.9160 C   0  0  0  0  0  0  0  0  0  0  0  0
  -24.5970  -11.7350   20.8930 C   0  0  0  0  0  0  0  0  0  0  0  0
  -26.2560  -12.9700   20.3330 N   0  0  0  0  0  0  0  0  0  0  0  0
  -25.8890  -11.6900   20.5940 N   0  0  0  0  0  0  0  0  0  0  0  0
  -23.8670  -10.4760   21.0860 C   0  0  0  0  0  0  0  0  0  0  0  0
  -24.3100   -9.4990   22.0020 C   0  0  0  0  0  3  0  0  0  0  0  0
  -23.5820   -8.3040   22.1820 C   0  0  0  0  0  3  0  0  0  0  0  0
  -22.3960   -8.0780   21.4430 C   0  0  0  0  0  0  0  0  0  0  0  0
  -21.9730   -9.0430   20.5130 C   0  0  0  0  0  3  0  0  0  0  0  0
  -22.7010  -10.2300   20.3320 C   0  0  0  0  0  3  0  0  0  0  0  0
  -21.6370   -6.9360   21.5320 O   0  0  0  0  0  0  0  0  0  0  0  0
  -21.6210   -6.1700   22.6700 C   0  0  0  0  0  0  0  0  0  0  0  0
  -21.2540   -6.7090   23.9230 C   0  0  0  0  0  3  0  0  0  0  0  0
  -21.1830   -5.8710   25.0540 C   0  0  0  0  0  3  0  0  0  0  0  0
  -21.4680   -4.4980   24.9340 C   0  0  0  0  0  0  0  0  0  0  0  0
  -21.8270   -3.9600   23.6850 C   0  0  0  0  0  3  0  0  0  0  0  0
  -21.8990   -4.7940   22.5550 C   0  0  0  0  0  0  0  0  0  0  0  0
  -22.2250   -4.2670   21.3500 F   0  0  0  0  0  0  0  0  0  0  0  0
  -21.3930   -3.6910   26.0170 F   0  0  0  0  0  0  0  0  0  0  0  0
  -22.7400  -13.5680   21.1800 C   0  0  0  0  0  0  0  0  0  0  0  0
  -22.0100  -12.8760   22.0480 N   0  0  0  0  0  0  0  0  0  0  0  0
  -22.3040  -14.5910   20.6550 O   0  0  0  0  0  0  0  0  0  0  0  0
  -22.3780  -12.0500   22.4940 H   0  0  0  0  0  0  0  0  0  0  0  0
  -21.0710  -13.1780   22.2690 H   0  0  0  0  0  0  0  0  0  0  0  0
  -25.3760  -15.2250   20.3680 N   0  0  0  0  0  0  0  0  0  0  0  0
  -24.6070  -15.8780   20.4660 H   0  0  0  0  0  0  0  0  0  0  0  0
  -26.2310  -15.6660   20.0500 H   0  0  0  0  0  0  0  0  0  0  0  0
  -28.4390  -26.7570   20.0660 O   0  0  0  0  0  0  0  0  0  0  0  0
  -24.6200  -31.8850   23.1890 C   0  0  0  0  0  0  0  0  0  0  0  0
  -27.2530  -27.4610   20.0750 C   0  0  0  0  0  0  0  0  0  0  0  0
  -23.3990  -30.4750   21.5630 C   0  0  0  0  0  3  0  0  0  0  0  0
  -24.8420  -28.9350   20.1280 C   0  0  0  0  0  0  0  0  0  0  0  0
  -25.9170  -30.8480   21.3290 C   0  0  0  0  0  2  0  0  0  0  0  0
  -26.0030  -29.4730   20.6980 C   0  0  0  0  0  0  0  0  0  0  0  0
  -27.2090  -28.7390   20.6750 C   0  0  0  0  0  3  0  0  0  0  0  0
  -26.0720  -26.9230   19.5180 C   0  0  0  0  0  3  0  0  0  0  0  0
  -24.8690  -27.6580   19.5400 C   0  0  0  0  0  3  0  0  0  0  0  0
  -23.5920  -29.7840   20.1860 C   0  0  0  0  0  2  0  0  0  0  0  0
  -24.6660  -31.0840   22.0860 N   0  0  0  0  0  0  0  0  0  0  0  0
  -23.5460  -32.1550   23.7420 O   0  0  0  0  0  0  0  0  0  0  0  0
  -22.7620  -29.4580   22.5360 C   0  0  0  0  0  0  0  0  0  0  0  0
  -21.4360  -29.2720   22.4230 N   0  0  0  0  0  0  0  0  0  0  0  0
  -23.4570  -28.8360   23.3450 O   0  0  0  0  0  0  0  0  0  0  0  0
  -20.9390  -29.8220   21.7370 H   0  0  0  0  0  0  0  0  0  0  0  0
  -18.0720  -28.0700   22.9540 C   0  0  0  0  0  0  0  0  0  0  0  0
  -20.6310  -28.3360   23.2040 C   0  0  0  0  0  3  0  0  0  0  0  0
  -20.7330  -26.9030   22.6310 C   0  0  0  0  0  2  0  0  0  0  0  0
  -19.6240  -26.5740   21.6280 C   0  0  0  0  0  2  0  0  0  0  0  0
  -18.2460  -26.7190   22.2820 C   0  0  0  0  0  2  0  0  0  0  0  0
  -19.1930  -28.8360   23.3740 C   0  0  0  0  0  0  0  0  0  0  0  0
  -18.9780  -30.1000   23.9620 C   0  0  0  0  0  3  0  0  0  0  0  0
  -17.6730  -30.6010   24.1350 C   0  0  0  0  0  3  0  0  0  0  0  0
  -16.5670  -29.8330   23.7320 C   0  0  0  0  0  3  0  0  0  0  0  0
  -16.7680  -28.5690   23.1490 C   0  0  0  0  0  3  0  0  0  0  0  0
  -25.9130  -32.5190   23.7940 C   0  0  0  0  0  3  0  0  0  0  0  0
  -25.6010  -33.9110   24.1450 N   0  0  0  0  0  0  0  0  0  0  0  0
  -25.9210  -34.9740   23.3940 C   0  0  0  0  0  0  0  0  0  0  0  0
  -26.5810  -34.8860   22.3550 O   0  0  0  0  0  0  0  0  0  0  0  0
  -25.0080  -34.0550   24.9500 H   0  0  0  0  0  0  0  0  0  0  0  0
  -24.1810  -36.7590   23.0710 C   0  0  0  0  0  1  0  0  0  0  0  0
  -25.4300  -36.3540   23.8690 C   0  0  0  0  0  3  0  0  0  0  0  0
  -27.5690  -37.2360   24.6910 C   0  0  0  0  0  1  0  0  0  0  0  0
  -26.4570  -37.4140   23.7610 N   0  0  0  0  0  0  0  0  0  0  0  0
  -26.0490  -38.3310   23.9250 H   0  0  0  0  0  0  0  0  0  0  0  0
  -26.4600  -31.7360   25.0500 C   0  0  1  0  0  0  0  0  0  0  0  0
  -25.3890  -31.4780   26.1350 C   0  0  0  0  0  1  0  0  0  0  0  0
  -27.0420  -30.3680   24.6270 C   0  0  0  0  0  1  0  0  0  0  0  0
  -27.6200  -32.5280   25.6980 C   0  0  0  0  0  1  0  0  0  0  0  0
  1  4  1  0
  2  1  2  0
  2  5  1  0
  4  8  1  0
  4  3  2  0
  5  6  2  0
  6  3  1  0
  6 52  1  0
  7  5  1  0
  8 10  1  0
  9  8  2  0
 11 10  1  0
 11 12  1  0
 12 13  1  0
 13 14  1  0
 14 15  1  0
 16 15  1  0
 17 22  1  0
 18 19  1  0
 18 17  1  0
 20 19  1  0
 20 27  1  0
 20 21  1  0
 22 16  1  0
 22 21  1  0
 23 16  2  0
 24 25  2  0
 25 44  1  0
 26 25  1  0
 26 29  1  0
 27 24  1  0
 27 28  1  0
 28 26  2  0
 29 30  1  0
 30 31  2  0
 32 35  1  0
 32 31  1  0
 33 32  2  0
 34 33  1  0
 34 29  2  0
 35 36  1  0
 36 37  1  0
 37 38  2  0
 39 38  1  0
 39 43  1  0
 40 39  2  0
 41 36  2  0
 41 40  1  0
 42 41  1  0
 44 45  1  0
 45 48  1  0
 45 47  1  0
 46 44  2  0
 49 50  1  0
 49 24  1  0
 51 49  1  0
 52 54  1  0
 53 64  2  0
 54 59  1  0
 55 63  1  0
 55 65  1  0
 56 62  1  0
 56 58  1  0
 57 63  1  0
 58 57  1  0
 59 58  2  0
 60 61  1  0
 60 54  2  0
 61 56  2  0
 62 55  1  0
 63 53  1  0
 65 67  2  0
 66 65  1  0
 68 66  1  0
 69 78  2  0
 69 74  1  0
 70 66  1  0
 70 74  1  0
 71 70  1  0
 72 73  1  0
 72 71  1  0
 73 69  1  0
 74 75  2  0
 75 76  1  0
 77 76  2  0
 78 77  1  0
 79 53  1  0
 79 80  1  0
 79 89  1  0
 80 83  1  0
 81 85  1  0
 81 80  1  0
 82 81  2  0
 85 84  1  0
 87 85  1  0
 87 88  1  0
 87 86  1  0
 89 92  1  1
 89 90  1  0
 91 89  1  0
M  ISO  4   6 101  15 100  16 100  52 101
M  END
>  <TORSDO>  (77) 
F 23

>  <SCORE>  (77) 
-12.637

>  <name>  (77) 
76

>  <ligand_id>  (77) 
76

>  <original_smiles>  (77) 
[H]c1c([H])c([H])c2c(c1[H])C([H])([H])C([H])([H])C([H])([H])C2([H])N([H])C(=O)C1([H])N(C(=O)C([H])(N([H])C(=O)C([H])(N([H])C([H])([H])[H])C([H])([H])[H])C(C([H])([H])[H])(C([H])([H])[H])C([H])([H])[H])C([H])([H])c2c([H])c(Oc3c([H])c(C(=O)C([H])([H])C([H])([H])C([H])([H])C([H])([H])C([H])([H])C([H])([H])C(=O)N4C([H])([H])C([H])([H])C([H])([H])C([H])(n5nc(-c6c([H])c([H])c(Oc7c([H])c([H])c(F)c([H])c7F)c([H])c6[H])c(C(=O)N([H])[H])c5N([H])[H])C4([H])[H])c([H])c([H])c3C([H])([H])[H])c([H])c([H])c2C1([H])[H]

>  <smiles>  (77) 
[H]c1c([H])c([H])c2c(c1[H])C([H])([H])C([H])([H])C([H])([H])C2([H])N([H])C(=O)C1([H])N(C(=O)C([H])(N([H])C(=O)C([H])(N([H])C([H])([H])[H])C([H])([H])[H])C(C([H])([H])[H])(C([H])([H])[H])C([H])([H])[H])C([H])([H])c2c([H])c(Oc3c([H])c(C(=O)C([H])([H])C([H])([H])C([H])([H])C([H])([H])C([H])([H])C([H])([H])C(=O)N4C([H])([H])C([H])([H])C([H])([H])C([H])(n5nc(-c6c([H])c([H])c(Oc7c([H])c([H])c(F)c([H])c7F)c([H])c6[H])c(C(=O)N([H])[H])c5N([H])[H])C4([H])[H])c([H])c([H])c3C([H])([H])[H])c([H])c([H])c2C1([H])[H]

$$$$
77:0:0
     RDKit          3D

 96105  0  0  1  0  0  0  0  0999 V2000
  -28.9070  -25.4140   18.1370 C   0  0  0  0  0  3  0  0  0  0  0  0
  -27.8940  -24.4220   20.1160 C   0  0  0  0  0  3  0  0  0  0  0  0
  -28.7740  -24.1880   17.4520 C   0  0  0  0  0  0  0  0  0  0  0  0
  -27.7220  -23.2020   19.4300 C   0  0  0  0  0  0  0  0  0  0  0  0
  -28.4390  -25.5380   19.4570 C   0  0  0  0  0  0  0  0  0  0  0  0
  -28.1680  -23.0810   18.0930 C   0  0  0  0  0  0  0  0  0  0  0  0
  -29.2610  -24.0840   16.0220 C   0  0  0  0  0  1  0  0  0  0  0  0
  -28.0130  -21.9080   17.4120 O   0  0  0  0  0  0  0  0  0  0  0  0
  -27.6510  -21.2100   17.9460 H   0  0  0  0  0  0  0  0  0  0  0  0
  -28.4250  -26.7650   20.0660 O   0  0  0  0  0  0  0  0  0  0  0  0
  -24.6110  -31.8740   23.2200 C   0  0  0  0  0  0  0  0  0  0  0  0
  -27.2380  -27.4710   20.0760 C   0  0  0  0  0  0  0  0  0  0  0  0
  -23.3960  -30.5060   21.5530 C   0  0  0  0  0  3  0  0  0  0  0  0
  -24.8430  -28.9770   20.1160 C   0  0  0  0  0  0  0  0  0  0  0  0
  -25.9240  -30.8490   21.3690 C   0  0  0  0  0  2  0  0  0  0  0  0
  -26.0020  -29.4860   20.7150 C   0  0  0  0  0  0  0  0  0  0  0  0
  -27.1990  -28.7350   20.7010 C   0  0  0  0  0  3  0  0  0  0  0  0
  -26.0550  -26.9800   19.4650 C   0  0  0  0  0  3  0  0  0  0  0  0
  -24.8620  -27.7220   19.4900 C   0  0  0  0  0  3  0  0  0  0  0  0
  -23.6020  -29.8380   20.1680 C   0  0  0  0  0  2  0  0  0  0  0  0
  -24.6620  -31.0880   22.1050 N   0  0  0  0  0  0  0  0  0  0  0  0
  -23.5330  -32.1500   23.7600 O   0  0  0  0  0  0  0  0  0  0  0  0
  -22.7350  -29.4780   22.4970 C   0  0  0  0  0  0  0  0  0  0  0  0
  -21.4100  -29.3160   22.3660 N   0  0  0  0  0  0  0  0  0  0  0  0
  -23.4130  -28.8310   23.3030 O   0  0  0  0  0  0  0  0  0  0  0  0
  -20.9260  -29.8840   21.6830 H   0  0  0  0  0  0  0  0  0  0  0  0
  -18.0310  -28.1400   22.8530 C   0  0  0  0  0  0  0  0  0  0  0  0
  -20.5880  -28.3760   23.1280 C   0  0  0  0  0  3  0  0  0  0  0  0
  -20.6850  -26.9530   22.5350 C   0  0  0  0  0  2  0  0  0  0  0  0
  -19.5790  -26.6460   21.5200 C   0  0  0  0  0  2  0  0  0  0  0  0
  -18.2000  -26.7910   22.1720 C   0  0  0  0  0  2  0  0  0  0  0  0
  -19.1540  -28.8890   23.2900 C   0  0  0  0  0  0  0  0  0  0  0  0
  -18.9470  -30.1500   23.8900 C   0  0  0  0  0  3  0  0  0  0  0  0
  -17.6490  -30.6640   24.0570 C   0  0  0  0  0  3  0  0  0  0  0  0
  -16.5390  -29.9130   23.6360 C   0  0  0  0  0  3  0  0  0  0  0  0
  -16.7300  -28.6530   23.0390 C   0  0  0  0  0  3  0  0  0  0  0  0
  -25.9000  -32.4830   23.8490 C   0  0  0  0  0  3  0  0  0  0  0  0
  -25.5870  -33.8640   24.2380 N   0  0  0  0  0  0  0  0  0  0  0  0
  -25.9010  -34.9480   23.5160 C   0  0  0  0  0  0  0  0  0  0  0  0
  -26.5570  -34.8910   22.4710 O   0  0  0  0  0  0  0  0  0  0  0  0
  -25.0000  -33.9800   25.0510 H   0  0  0  0  0  0  0  0  0  0  0  0
  -24.1490  -36.7370   23.2640 C   0  0  0  0  0  1  0  0  0  0  0  0
  -25.4100  -36.3140   24.0350 C   0  0  0  0  0  3  0  0  0  0  0  0
  -27.5590  -37.1830   24.8450 C   0  0  0  0  0  1  0  0  0  0  0  0
  -26.4310  -37.3810   23.9390 N   0  0  0  0  0  0  0  0  0  0  0  0
  -26.0210  -38.2910   24.1360 H   0  0  0  0  0  0  0  0  0  0  0  0
  -26.4460  -31.6610   25.0790 C   0  0  1  0  0  0  0  0  0  0  0  0
  -25.3770  -31.3660   26.1570 C   0  0  0  0  0  1  0  0  0  0  0  0
  -27.0270  -30.3060   24.6100 C   0  0  0  0  0  1  0  0  0  0  0  0
  -27.6040  -32.4340   25.7550 C   0  0  0  0  0  1  0  0  0  0  0  0
  -27.0230  -22.0680   20.1630 C   0  0  0  0  0  2  0  0  0  0  0  0
  -28.0250  -21.1670   20.8960 C   0  0  0  0  0  2  0  0  0  0  0  0
  -27.3450  -20.1980   21.8790 C   0  0  0  0  0  2  0  0  0  0  0  0
  -28.3140  -19.2840   22.6530 C   0  0  0  0  0  2  0  0  0  0  0  0
  -30.6930  -14.4030   20.6370 C   0  0  0  0  0  0  0  0  0  0  0  0
  -30.4400  -12.2710   19.4030 C   0  0  0  0  0  2  0  0  0  0  0  0
  -29.4910  -12.4910   18.2020 C   0  0  0  0  0  2  0  0  0  0  0  0
  -28.0100  -12.3690   18.6190 C   0  0  0  0  0  2  0  0  0  0  0  0
  -27.6830  -13.1680   19.9070 C   0  0  0  0  0  3  0  0  0  0  0  0
  -28.7300  -12.8170   20.9880 C   0  0  0  0  0  2  0  0  0  0  0  0
  -30.0500  -13.2100   20.4670 N   0  0  0  0  0  0  0  0  0  0  0  0
  -31.8010  -14.6190   20.1190 O   0  0  0  0  0  0  0  0  0  0  0  0
  -29.1950  -16.9110   22.9960 C   0  0  0  0  0  2  0  0  0  0  0  0
  -29.5580  -17.9610   20.8030 C   0  0  0  0  0  2  0  0  0  0  0  0
  -29.2710  -15.5130   22.3690 C   0  0  0  0  0  2  0  0  0  0  0  0
  -29.7510  -16.5930   20.1230 C   0  0  0  0  0  2  0  0  0  0  0  0
  -28.5990  -17.9100   21.9980 C   0  0  0  0  0  3  0  0  0  0  0  0
  -29.9170  -15.4440   21.0380 N   0  0  0  0  0  0  0  0  0  0  0  0
  -25.2760  -13.8090   20.5680 C   0  0  0  0  0  0  0  0  0  0  0  0
  -24.1940  -13.0460   20.9170 C   0  0  0  0  0  0  0  0  0  0  0  0
  -24.6420  -11.6900   20.8750 C   0  0  0  0  0  0  0  0  0  0  0  0
  -26.3190  -12.9180   20.3590 N   0  0  0  0  0  0  0  0  0  0  0  0
  -25.9350  -11.6390   20.5920 N   0  0  0  0  0  0  0  0  0  0  0  0
  -23.9020  -10.4340   21.0420 C   0  0  0  0  0  0  0  0  0  0  0  0
  -24.3560   -9.4250   21.9200 C   0  0  0  0  0  3  0  0  0  0  0  0
  -23.6270   -8.2260   22.0720 C   0  0  0  0  0  3  0  0  0  0  0  0
  -22.4260   -8.0290   21.3510 C   0  0  0  0  0  0  0  0  0  0  0  0
  -21.9910   -9.0270   20.4620 C   0  0  0  0  0  3  0  0  0  0  0  0
  -22.7210  -10.2170   20.3060 C   0  0  0  0  0  3  0  0  0  0  0  0
  -21.6650   -6.8880   21.4220 O   0  0  0  0  0  0  0  0  0  0  0  0
  -21.6880   -6.0740   22.5280 C   0  0  0  0  0  0  0  0  0  0  0  0
  -21.4030   -6.5630   23.8210 C   0  0  0  0  0  3  0  0  0  0  0  0
  -21.3630   -5.6780   24.9170 C   0  0  0  0  0  3  0  0  0  0  0  0
  -21.6020   -4.3040   24.7240 C   0  0  0  0  0  0  0  0  0  0  0  0
  -21.8830   -3.8150   23.4360 C   0  0  0  0  0  3  0  0  0  0  0  0
  -21.9220   -4.6970   22.3420 C   0  0  0  0  0  0  0  0  0  0  0  0
  -22.1690   -4.2130   21.1000 F   0  0  0  0  0  0  0  0  0  0  0  0
  -21.5600   -3.4540   25.7760 F   0  0  0  0  0  0  0  0  0  0  0  0
  -22.7960  -13.5280   21.1830 C   0  0  0  0  0  0  0  0  0  0  0  0
  -22.0590  -12.8250   22.0340 N   0  0  0  0  0  0  0  0  0  0  0  0
  -22.3670  -14.5650   20.6760 O   0  0  0  0  0  0  0  0  0  0  0  0
  -22.4220  -11.9870   22.4650 H   0  0  0  0  0  0  0  0  0  0  0  0
  -21.1250  -13.1340   22.2620 H   0  0  0  0  0  0  0  0  0  0  0  0
  -25.4590  -15.1780   20.3930 N   0  0  0  0  0  0  0  0  0  0  0  0
  -24.6910  -15.8400   20.4340 H   0  0  0  0  0  0  0  0  0  0  0  0
  -26.3250  -15.5970   20.0800 H   0  0  0  0  0  0  0  0  0  0  0  0
  1  5  1  0
  3  6  1  0
  3  1  2  0
  4  2  1  0
  4 51  1  0
  5 10  1  0
  5  2  2  0
  6  4  2  0
  7  3  1  0
  8  9  1  0
  8  6  1  0
 10 12  1  0
 11 22  2  0
 12 17  1  0
 13 21  1  0
 13 23  1  0
 14 20  1  0
 14 16  1  0
 15 21  1  0
 16 15  1  0
 17 16  2  0
 18 19  1  0
 18 12  2  0
 19 14  2  0
 20 13  1  0
 21 11  1  0
 23 25  2  0
 24 23  1  0
 26 24  1  0
 27 36  2  0
 27 32  1  0
 28 24  1  0
 28 32  1  0
 29 28  1  0
 30 31  1  0
 30 29  1  0
 31 27  1  0
 32 33  2  0
 33 34  1  0
 35 34  2  0
 36 35  1  0
 37 11  1  0
 37 38  1  0
 37 47  1  0
 38 41  1  0
 39 43  1  0
 39 38  1  0
 40 39  2  0
 43 42  1  0
 45 43  1  0
 45 46  1  0
 45 44  1  0
 47 50  1  1
 47 48  1  0
 49 47  1  0
 51 52  1  0
 52 53  1  0
 53 54  1  0
 55 68  1  0
 56 61  1  0
 57 58  1  0
 57 56  1  0
 59 58  1  0
 59 72  1  0
 59 60  1  0
 61 55  1  0
 61 60  1  0
 62 55  2  0
 64 67  1  0
 65 63  1  0
 66 64  1  0
 66 68  1  0
 67 54  1  0
 67 63  1  0
 68 65  1  0
 69 70  2  0
 70 89  1  0
 71 70  1  0
 71 74  1  0
 72 69  1  0
 72 73  1  0
 73 71  2  0
 74 75  1  0
 75 76  2  0
 77 80  1  0
 77 76  1  0
 78 77  2  0
 79 78  1  0
 79 74  2  0
 80 81  1  0
 81 82  1  0
 82 83  2  0
 84 83  1  0
 84 88  1  0
 85 84  2  0
 86 81  2  0
 86 85  1  0
 87 86  1  0
 89 90  1  0
 90 93  1  0
 90 92  1  0
 91 89  2  0
 94 95  1  0
 94 69  1  0
 96 94  1  0
M  ISO  4   5 101  10 101  55 100  68 100
M  END
>  <TORSDO>  (78) 
F 21

>  <SCORE>  (78) 
1.997

>  <name>  (78) 
77

>  <ligand_id>  (78) 
77

>  <original_smiles>  (78) 
[H]Oc1c(C([H])([H])[H])c([H])c(Oc2c([H])c([H])c3c(c2[H])C([H])([H])N(C(=O)C([H])(N([H])C(=O)C([H])(N([H])C([H])([H])[H])C([H])([H])[H])C(C([H])([H])[H])(C([H])([H])[H])C([H])([H])[H])C([H])(C(=O)N([H])C2([H])c4c([H])c([H])c([H])c([H])c4C([H])([H])C([H])([H])C2([H])[H])C3([H])[H])c([H])c1C([H])([H])C([H])([H])C([H])([H])C([H])([H])C1([H])C([H])([H])C([H])([H])N(C(=O)N2C([H])([H])C([H])([H])C([H])([H])C([H])(n3nc(-c4c([H])c([H])c(Oc5c([H])c([H])c(F)c([H])c5F)c([H])c4[H])c(C(=O)N([H])[H])c3N([H])[H])C2([H])[H])C([H])([H])C1([H])[H]

>  <smiles>  (78) 
[H]Oc1c(C([H])([H])[H])c([H])c(Oc2c([H])c([H])c3c(c2[H])C([H])([H])N(C(=O)C([H])(N([H])C(=O)C([H])(N([H])C([H])([H])[H])C([H])([H])[H])C(C([H])([H])[H])(C([H])([H])[H])C([H])([H])[H])C([H])(C(=O)N([H])C2([H])c4c([H])c([H])c([H])c([H])c4C([H])([H])C([H])([H])C2([H])[H])C3([H])[H])c([H])c1C([H])([H])C([H])([H])C([H])([H])C([H])([H])C1([H])C([H])([H])C([H])([H])N(C(=O)N2C([H])([H])C([H])([H])C([H])([H])C([H])(n3nc(-c4c([H])c([H])c(Oc5c([H])c([H])c(F)c([H])c5F)c([H])c4[H])c(C(=O)N([H])[H])c3N([H])[H])C2([H])[H])C([H])([H])C1([H])[H]

$$$$
78:0:0
     RDKit          3D

 91 99  0  0  1  0  0  0  0  0999 V2000
  -28.1600  -22.8760   20.9460 C   0  0  0  0  0  3  0  0  0  0  0  0
  -28.0860  -24.2930   21.1130 C   0  0  0  0  0  3  0  0  0  0  0  0
  -28.6620  -23.2080   18.6120 C   0  0  0  0  0  3  0  0  0  0  0  0
  -28.4560  -22.2980   19.6840 C   0  0  0  0  0  0  0  0  0  0  0  0
  -28.3020  -25.1950   20.0370 C   0  0  0  0  0  0  0  0  0  0  0  0
  -28.5920  -24.6290   18.7720 C   0  0  0  0  0  0  0  0  0  0  0  0
  -29.2900  -25.0610   16.5050 C   0  0  0  0  0  1  0  0  0  0  0  0
  -28.7740  -25.5280   17.7430 O   0  0  0  0  0  0  0  0  0  0  0  0
  -28.3330  -26.5930   20.2020 O   0  0  0  0  0  0  0  0  0  0  0  0
  -24.5970  -31.8940   23.2840 C   0  0  0  0  0  0  0  0  0  0  0  0
  -27.1810  -27.3770   20.1960 C   0  0  0  0  0  0  0  0  0  0  0  0
  -23.3760  -30.5040   21.6460 C   0  0  0  0  0  3  0  0  0  0  0  0
  -24.8110  -28.9550   20.2100 C   0  0  0  0  0  0  0  0  0  0  0  0
  -25.9130  -30.8270   21.4480 C   0  0  0  0  0  2  0  0  0  0  0  0
  -25.9810  -29.4560   20.7920 C   0  0  0  0  0  0  0  0  0  0  0  0
  -27.1690  -28.6750   20.7800 C   0  0  0  0  0  3  0  0  0  0  0  0
  -25.9890  -26.9080   19.6050 C   0  0  0  0  0  3  0  0  0  0  0  0
  -24.8110  -27.6820   19.6150 C   0  0  0  0  0  3  0  0  0  0  0  0
  -23.5810  -29.8340   20.2630 C   0  0  0  0  0  2  0  0  0  0  0  0
  -24.6470  -31.0920   22.1830 N   0  0  0  0  0  0  0  0  0  0  0  0
  -23.5190  -32.1750   23.8260 O   0  0  0  0  0  0  0  0  0  0  0  0
  -22.7240  -29.4840   22.6080 C   0  0  0  0  0  0  0  0  0  0  0  0
  -21.3990  -29.2980   22.4800 N   0  0  0  0  0  0  0  0  0  0  0  0
  -23.4050  -28.8660   23.4280 O   0  0  0  0  0  0  0  0  0  0  0  0
  -20.9120  -29.8420   21.7820 H   0  0  0  0  0  0  0  0  0  0  0  0
  -18.0290  -28.0820   22.9650 C   0  0  0  0  0  0  0  0  0  0  0  0
  -20.5830  -28.3610   23.2540 C   0  0  0  0  0  3  0  0  0  0  0  0
  -20.7030  -26.9270   22.6890 C   0  0  0  0  0  2  0  0  0  0  0  0
  -19.6100  -26.5870   21.6710 C   0  0  0  0  0  2  0  0  0  0  0  0
  -18.2210  -26.7280   22.3010 C   0  0  0  0  0  2  0  0  0  0  0  0
  -19.1380  -28.8560   23.3980 C   0  0  0  0  0  0  0  0  0  0  0  0
  -18.9060  -30.1210   23.9770 C   0  0  0  0  0  3  0  0  0  0  0  0
  -17.5960  -30.6140   24.1320 C   0  0  0  0  0  3  0  0  0  0  0  0
  -16.5010  -29.8360   23.7210 C   0  0  0  0  0  3  0  0  0  0  0  0
  -16.7170  -28.5740   23.1390 C   0  0  0  0  0  3  0  0  0  0  0  0
  -25.8870  -32.5200   23.9000 C   0  0  0  0  0  3  0  0  0  0  0  0
  -25.5800  -33.9200   24.2150 N   0  0  0  0  0  0  0  0  0  0  0  0
  -25.9100  -34.9670   23.4480 C   0  0  0  0  0  0  0  0  0  0  0  0
  -26.5700  -34.8580   22.4100 O   0  0  0  0  0  0  0  0  0  0  0  0
  -24.9950  -34.0820   25.0210 H   0  0  0  0  0  0  0  0  0  0  0  0
  -24.1800  -36.7660   23.1120 C   0  0  0  0  0  1  0  0  0  0  0  0
  -25.4310  -36.3580   23.9050 C   0  0  0  0  0  3  0  0  0  0  0  0
  -27.5770  -37.2500   24.6990 C   0  0  0  0  0  1  0  0  0  0  0  0
  -26.4610  -37.4070   23.7720 N   0  0  0  0  0  0  0  0  0  0  0  0
  -26.0540  -38.3270   23.9170 H   0  0  0  0  0  0  0  0  0  0  0  0
  -26.4020  -31.7580   25.1830 C   0  0  1  0  0  0  0  0  0  0  0  0
  -25.3110  -31.5340   26.2600 C   0  0  0  0  0  1  0  0  0  0  0  0
  -26.9830  -30.3750   24.8070 C   0  0  0  0  0  1  0  0  0  0  0  0
  -27.5550  -32.5610   25.8360 C   0  0  0  0  0  1  0  0  0  0  0  0
  -28.4170  -20.7520   19.4070 C   0  0  0  0  0  3  0  0  0  0  0  0
  -29.4000  -19.7640   20.1540 C   0  0  0  0  0  3  0  0  0  0  0  0
  -29.2250  -18.2120   19.8420 C   0  0  0  0  0  3  0  0  0  0  0  0
  -30.1370  -17.2100   20.6710 C   0  0  0  0  0  3  0  0  0  0  0  0
  -30.5850  -14.6640   20.4080 C   0  0  0  0  0  0  0  0  0  0  0  0
  -30.3710  -12.4220   19.3790 C   0  0  0  0  0  2  0  0  0  0  0  0
  -29.4560  -12.5610   18.1430 C   0  0  0  0  0  2  0  0  0  0  0  0
  -27.9740  -12.4110   18.5470 C   0  0  0  0  0  2  0  0  0  0  0  0
  -27.5940  -13.2800   19.7750 C   0  0  0  0  0  3  0  0  0  0  0  0
  -28.6340  -13.1410   20.9100 C   0  0  0  0  0  2  0  0  0  0  0  0
  -29.9550  -13.4540   20.3440 N   0  0  0  0  0  0  0  0  0  0  0  0
  -31.7690  -14.7940   20.0890 O   0  0  0  0  0  0  0  0  0  0  0  0
  -29.7860  -15.7520   20.6290 N   0  0  0  0  0  0  0  0  0  0  0  0
  -28.8290  -15.5340   20.8550 H   0  0  0  0  0  0  0  0  0  0  0  0
  -25.1870  -13.8820   20.4460 C   0  0  0  0  0  0  0  0  0  0  0  0
  -24.1170  -13.1130   20.8090 C   0  0  0  0  0  0  0  0  0  0  0  0
  -24.5820  -11.7610   20.8030 C   0  0  0  0  0  0  0  0  0  0  0  0
  -26.2390  -13.0020   20.2420 N   0  0  0  0  0  0  0  0  0  0  0  0
  -25.8790  -11.7210   20.5160 N   0  0  0  0  0  0  0  0  0  0  0  0
  -23.8530  -10.5010   20.9990 C   0  0  0  0  0  0  0  0  0  0  0  0
  -24.2770   -9.5390   21.9430 C   0  0  0  0  0  3  0  0  0  0  0  0
  -23.5480   -8.3450   22.1230 C   0  0  0  0  0  3  0  0  0  0  0  0
  -22.3810   -8.1020   21.3610 C   0  0  0  0  0  0  0  0  0  0  0  0
  -21.9780   -9.0510   20.4050 C   0  0  0  0  0  3  0  0  0  0  0  0
  -22.7050  -10.2390   20.2220 C   0  0  0  0  0  3  0  0  0  0  0  0
  -21.6250   -6.9590   21.4500 O   0  0  0  0  0  0  0  0  0  0  0  0
  -21.5750   -6.2180   22.6030 C   0  0  0  0  0  0  0  0  0  0  0  0
  -21.1500   -6.7760   23.8280 C   0  0  0  0  0  3  0  0  0  0  0  0
  -21.0440   -5.9640   24.9740 C   0  0  0  0  0  3  0  0  0  0  0  0
  -21.3550   -4.5930   24.8980 C   0  0  0  0  0  0  0  0  0  0  0  0
  -21.7720   -4.0330   23.6780 C   0  0  0  0  0  3  0  0  0  0  0  0
  -21.8770   -4.8430   22.5330 C   0  0  0  0  0  0  0  0  0  0  0  0
  -22.2600   -4.2940   21.3560 F   0  0  0  0  0  0  0  0  0  0  0  0
  -21.2450   -3.8110   25.9980 F   0  0  0  0  0  0  0  0  0  0  0  0
  -22.7140  -13.5890   21.0510 C   0  0  0  0  0  0  0  0  0  0  0  0
  -21.9720  -12.9050   21.9150 N   0  0  0  0  0  0  0  0  0  0  0  0
  -22.2840  -14.6100   20.5120 O   0  0  0  0  0  0  0  0  0  0  0  0
  -22.3300  -12.0760   22.3700 H   0  0  0  0  0  0  0  0  0  0  0  0
  -21.0330  -13.2110   22.1280 H   0  0  0  0  0  0  0  0  0  0  0  0
  -25.3520  -15.2520   20.2560 N   0  0  0  0  0  0  0  0  0  0  0  0
  -24.5750  -15.9020   20.3190 H   0  0  0  0  0  0  0  0  0  0  0  0
  -26.2060  -15.6930   19.9420 H   0  0  0  0  0  0  0  0  0  0  0  0
  1  2  1  0
  3  6  2  0
  3  4  1  0
  4  1  2  0
  5  9  1  0
  5  2  2  0
  6  5  1  0
  7  8  1  0
  8  6  1  0
 10 21  2  0
 11  9  1  0
 11 16  1  0
 12 20  1  0
 12 22  1  0
 13 19  1  0
 13 15  1  0
 14 20  1  0
 15 14  1  0
 16 15  2  0
 17 18  1  0
 17 11  2  0
 18 13  2  0
 19 12  1  0
 20 10  1  0
 22 24  2  0
 23 22  1  0
 25 23  1  0
 26 35  2  0
 26 31  1  0
 27 23  1  0
 27 31  1  0
 28 27  1  0
 29 30  1  0
 29 28  1  0
 30 26  1  0
 31 32  2  0
 32 33  1  0
 34 33  2  0
 35 34  1  0
 36 10  1  0
 36 37  1  0
 36 46  1  0
 37 40  1  0
 38 42  1  0
 38 37  1  0
 39 38  2  0
 42 41  1  0
 44 42  1  0
 44 45  1  0
 44 43  1  0
 46 49  1  1
 46 47  1  0
 48 46  1  0
 50  4  1  0
 50 51  2  0
 52 51  1  0
 52 53  2  0
 54 62  1  0
 55 60  1  0
 56 57  1  0
 56 55  1  0
 58 57  1  0
 58 67  1  0
 58 59  1  0
 60 54  1  0
 60 59  1  0
 61 54  2  0
 62 53  1  0
 62 63  1  0
 64 65  2  0
 65 84  1  0
 66 65  1  0
 66 69  1  0
 67 64  1  0
 67 68  1  0
 68 66  2  0
 69 70  1  0
 70 71  2  0
 72 75  1  0
 72 71  1  0
 73 72  2  0
 74 73  1  0
 74 69  2  0
 75 76  1  0
 76 77  1  0
 77 78  2  0
 79 78  1  0
 79 83  1  0
 80 79  2  0
 81 76  2  0
 81 80  1  0
 82 81  1  0
 84 85  1  0
 85 88  1  0
 85 87  1  0
 86 84  2  0
 89 90  1  0
 89 64  1  0
 91 89  1  0
M  ISO  4   5 101   9 101  54 100  62 100
M  END
>  <TORSDO>  (79) 
F 21

>  <SCORE>  (79) 
-13.362

>  <name>  (79) 
78

>  <ligand_id>  (79) 
78

>  <original_smiles>  (79) 
[H]c1c([H])c([H])c2c(c1[H])C([H])([H])C([H])([H])C([H])([H])C2([H])N([H])C(=O)C1([H])N(C(=O)C([H])(N([H])C(=O)C([H])(N([H])C([H])([H])[H])C([H])([H])[H])C(C([H])([H])[H])(C([H])([H])[H])C([H])([H])[H])C([H])([H])c2c([H])c(Oc3c([H])c([H])c(C([H])([H])C([H])([H])C([H])([H])C([H])([H])N([H])C(=O)N4C([H])([H])C([H])([H])C([H])([H])C([H])(n5nc(-c6c([H])c([H])c(Oc7c([H])c([H])c(F)c([H])c7F)c([H])c6[H])c(C(=O)N([H])[H])c5N([H])[H])C4([H])[H])c([H])c3OC([H])([H])[H])c([H])c([H])c2C1([H])[H]

>  <smiles>  (79) 
[H]c1c([H])c([H])c2c(c1[H])C([H])([H])C([H])([H])C([H])([H])C2([H])N([H])C(=O)C1([H])N(C(=O)C([H])(N([H])C(=O)C([H])(N([H])C([H])([H])[H])C([H])([H])[H])C(C([H])([H])[H])(C([H])([H])[H])C([H])([H])[H])C([H])([H])c2c([H])c(Oc3c([H])c([H])c(C([H])([H])C([H])([H])C([H])([H])C([H])([H])N([H])C(=O)N4C([H])([H])C([H])([H])C([H])([H])C([H])(n5nc(-c6c([H])c([H])c(Oc7c([H])c([H])c(F)c([H])c7F)c([H])c6[H])c(C(=O)N([H])[H])c5N([H])[H])C4([H])[H])c([H])c3OC([H])([H])[H])c([H])c([H])c2C1([H])[H]

$$$$
79:0:0
     RDKit          3D

 92100  0  0  1  0  0  0  0  0999 V2000
  -28.7760  -20.8620   20.7960 C   0  0  0  0  0  3  0  0  0  0  0  0
  -28.3090  -22.1220   20.6390 C   0  0  0  0  0  3  0  0  0  0  0  0
  -28.2680  -24.5030   20.9670 C   0  0  0  0  0  3  0  0  0  0  0  0
  -28.9710  -23.3520   21.0630 C   0  0  0  0  0  0  0  0  0  0  0  0
  -30.4080  -23.3460   21.5720 C   0  0  0  0  0  1  0  0  0  0  0  0
  -28.7220  -25.9110   21.3340 C   0  0  0  0  0  2  0  0  0  0  0  0
  -28.5650  -26.8070   20.2370 O   0  0  0  0  0  0  0  0  0  0  0  0
  -24.5230  -31.8410   23.2340 C   0  0  0  0  0  0  0  0  0  0  0  0
  -27.3790  -27.4980   20.2340 C   0  0  0  0  0  0  0  0  0  0  0  0
  -23.4070  -30.4200   21.5420 C   0  0  0  0  0  3  0  0  0  0  0  0
  -24.9480  -28.9200   20.1670 C   0  0  0  0  0  0  0  0  0  0  0  0
  -25.9240  -30.8430   21.4330 C   0  0  0  0  0  2  0  0  0  0  0  0
  -26.0650  -29.4750   20.8030 C   0  0  0  0  0  0  0  0  0  0  0  0
  -27.2850  -28.7670   20.8410 C   0  0  0  0  0  3  0  0  0  0  0  0
  -26.2530  -26.9490   19.5910 C   0  0  0  0  0  3  0  0  0  0  0  0
  -25.0340  -27.6540   19.5600 C   0  0  0  0  0  3  0  0  0  0  0  0
  -23.6810  -29.7480   20.1690 C   0  0  0  0  0  2  0  0  0  0  0  0
  -24.6340  -31.0490   22.1300 N   0  0  0  0  0  0  0  0  0  0  0  0
  -23.4180  -32.0860   23.7380 O   0  0  0  0  0  0  0  0  0  0  0  0
  -22.7450  -29.3810   22.4750 C   0  0  0  0  0  0  0  0  0  0  0  0
  -21.4280  -29.1820   22.3070 N   0  0  0  0  0  0  0  0  0  0  0  0
  -23.4140  -28.7550   23.3010 O   0  0  0  0  0  0  0  0  0  0  0  0
  -20.9510  -29.7410   21.6120 H   0  0  0  0  0  0  0  0  0  0  0  0
  -18.0530  -27.9630   22.7090 C   0  0  0  0  0  0  0  0  0  0  0  0
  -20.6010  -28.2280   23.0440 C   0  0  0  0  0  3  0  0  0  0  0  0
  -20.7250  -26.8080   22.4430 C   0  0  0  0  0  2  0  0  0  0  0  0
  -19.6470  -26.4990   21.3990 C   0  0  0  0  0  2  0  0  0  0  0  0
  -18.2510  -26.6260   22.0160 C   0  0  0  0  0  2  0  0  0  0  0  0
  -19.1560  -28.7220   23.1780 C   0  0  0  0  0  0  0  0  0  0  0  0
  -18.9190  -29.9740   23.7840 C   0  0  0  0  0  3  0  0  0  0  0  0
  -17.6080  -30.4680   23.9280 C   0  0  0  0  0  3  0  0  0  0  0  0
  -16.5180  -29.7050   23.4750 C   0  0  0  0  0  3  0  0  0  0  0  0
  -16.7410  -28.4540   22.8720 C   0  0  0  0  0  3  0  0  0  0  0  0
  -25.7740  -32.4920   23.9040 C   0  0  0  0  0  3  0  0  0  0  0  0
  -26.2550  -31.7290   25.1980 C   0  0  1  0  0  0  0  0  0  0  0  0
  -25.1270  -31.4750   26.2240 C   0  0  0  0  0  1  0  0  0  0  0  0
  -26.8720  -30.3600   24.8240 C   0  0  0  0  0  1  0  0  0  0  0  0
  -27.3670  -32.5400   25.9050 C   0  0  0  0  0  1  0  0  0  0  0  0
  -25.4350  -33.8860   24.2150 N   0  0  0  0  0  0  0  0  0  0  0  0
  -25.7780  -34.9390   23.4600 C   0  0  0  0  0  0  0  0  0  0  0  0
  -26.4830  -34.8390   22.4520 O   0  0  0  0  0  0  0  0  0  0  0  0
  -24.8110  -34.0360   24.9940 H   0  0  0  0  0  0  0  0  0  0  0  0
  -24.0310  -36.6960   23.0310 C   0  0  0  0  0  1  0  0  0  0  0  0
  -25.2510  -36.3210   23.8870 C   0  0  0  0  0  3  0  0  0  0  0  0
  -27.3420  -37.2470   24.7820 C   0  0  0  0  0  1  0  0  0  0  0  0
  -26.2680  -37.3890   23.8010 N   0  0  0  0  0  0  0  0  0  0  0  0
  -25.8430  -38.3040   23.9280 H   0  0  0  0  0  0  0  0  0  0  0  0
  -28.0300  -19.7020   20.2610 C   0  0  0  0  0  0  0  0  0  0  0  0
  -26.9130  -19.8310   19.7460 O   0  0  0  0  0  0  0  0  0  0  0  0
  -28.4940  -17.5080   19.1860 C   0  0  0  0  0  3  0  0  0  0  0  0
  -29.1390  -16.2610   19.1290 C   0  0  0  0  0  3  0  0  0  0  0  0
  -29.5380  -17.9380   21.3370 C   0  0  0  0  0  3  0  0  0  0  0  0
  -28.6960  -18.3670   20.2840 C   0  0  0  0  0  0  0  0  0  0  0  0
  -29.9480  -15.8020   20.1910 C   0  0  0  0  0  0  0  0  0  0  0  0
  -30.1530  -16.6600   21.3070 C   0  0  0  0  0  0  0  0  0  0  0  0
  -31.0410  -16.2440   22.4690 C   0  0  0  0  0  1  0  0  0  0  0  0
  -30.6990  -14.5040   19.9950 C   0  0  0  0  0  0  0  0  0  0  0  0
  -30.3070  -12.3330   18.9200 C   0  0  0  0  0  2  0  0  0  0  0  0
  -29.3140  -12.5420   17.7570 C   0  0  0  0  0  2  0  0  0  0  0  0
  -27.8620  -12.4050   18.2610 C   0  0  0  0  0  2  0  0  0  0  0  0
  -27.5800  -13.2600   19.5240 C   0  0  0  0  0  3  0  0  0  0  0  0
  -28.6960  -13.1000   20.5820 C   0  0  0  0  0  2  0  0  0  0  0  0
  -29.9950  -13.3420   19.9410 N   0  0  0  0  0  0  0  0  0  0  0  0
  -31.8620  -14.6050   19.6040 O   0  0  0  0  0  0  0  0  0  0  0  0
  -25.2400  -13.8940   20.3780 C   0  0  0  0  0  0  0  0  0  0  0  0
  -24.1820  -13.1300   20.7870 C   0  0  0  0  0  0  0  0  0  0  0  0
  -24.6240  -11.7730   20.7160 C   0  0  0  0  0  0  0  0  0  0  0  0
  -26.2570  -12.9990   20.0790 N   0  0  0  0  0  0  0  0  0  0  0  0
  -25.8950  -11.7200   20.3440 N   0  0  0  0  0  0  0  0  0  0  0  0
  -23.8930  -10.5170   20.9230 C   0  0  0  0  0  0  0  0  0  0  0  0
  -24.3350   -9.5530   21.8550 C   0  0  0  0  0  3  0  0  0  0  0  0
  -23.6070   -8.3600   22.0480 C   0  0  0  0  0  3  0  0  0  0  0  0
  -22.4230   -8.1250   21.3090 C   0  0  0  0  0  0  0  0  0  0  0  0
  -22.0010   -9.0780   20.3660 C   0  0  0  0  0  3  0  0  0  0  0  0
  -22.7300  -10.2620   20.1700 C   0  0  0  0  0  3  0  0  0  0  0  0
  -21.6630   -6.9830   21.4140 O   0  0  0  0  0  0  0  0  0  0  0  0
  -21.5890   -6.2730   22.5850 C   0  0  0  0  0  0  0  0  0  0  0  0
  -21.1520   -6.8650   23.7900 C   0  0  0  0  0  3  0  0  0  0  0  0
  -21.0260   -6.0800   24.9530 C   0  0  0  0  0  3  0  0  0  0  0  0
  -21.3280   -4.7060   24.9130 C   0  0  0  0  0  0  0  0  0  0  0  0
  -21.7610   -4.1140   23.7120 C   0  0  0  0  0  3  0  0  0  0  0  0
  -21.8890   -4.8960   22.5510 C   0  0  0  0  0  0  0  0  0  0  0  0
  -22.2850   -4.3170   21.3920 F   0  0  0  0  0  0  0  0  0  0  0  0
  -21.2000   -3.9500   26.0280 F   0  0  0  0  0  0  0  0  0  0  0  0
  -22.8050  -13.6210   21.1350 C   0  0  0  0  0  0  0  0  0  0  0  0
  -22.1130  -12.9230   22.0280 N   0  0  0  0  0  0  0  0  0  0  0  0
  -22.3530  -14.6560   20.6490 O   0  0  0  0  0  0  0  0  0  0  0  0
  -22.4920  -12.0840   22.4430 H   0  0  0  0  0  0  0  0  0  0  0  0
  -21.1910  -13.2310   22.3030 H   0  0  0  0  0  0  0  0  0  0  0  0
  -25.4190  -15.2650   20.2140 N   0  0  0  0  0  0  0  0  0  0  0  0
  -24.6810  -15.9370   20.3910 H   0  0  0  0  0  0  0  0  0  0  0  0
  -26.2860  -15.6970   19.9160 H   0  0  0  0  0  0  0  0  0  0  0  0
  2  1  2  0
  2  4  1  0
  3  4  2  0
  3  6  1  0
  4  5  1  0
  7  6  1  0
  8 19  2  0
  9  7  1  0
  9 14  1  0
 10 18  1  0
 10 20  1  0
 11 17  1  0
 11 13  1  0
 12 18  1  0
 13 14  2  0
 13 12  1  0
 15  9  2  0
 16 15  1  0
 16 11  2  0
 17 10  1  0
 18  8  1  0
 20 22  2  0
 21 20  1  0
 23 21  1  0
 24 33  2  0
 24 29  1  0
 25 21  1  0
 25 29  1  0
 26 25  1  0
 27 28  1  0
 27 26  1  0
 28 24  1  0
 29 30  2  0
 30 31  1  0
 32 31  2  0
 33 32  1  0
 34  8  1  0
 34 39  1  0
 34 35  1  0
 35 38  1  1
 35 36  1  0
 37 35  1  0
 39 42  1  0
 40 44  1  0
 40 39  1  0
 41 40  2  0
 44 43  1  0
 46 44  1  0
 46 47  1  0
 46 45  1  0
 48 53  1  0
 48  1  1  0
 49 48  2  0
 50 53  1  0
 51 50  2  0
 51 54  1  0
 53 52  2  0
 54 55  2  0
 55 52  1  0
 55 56  1  0
 57 54  1  0
 58 63  1  0
 59 60  1  0
 59 58  1  0
 61 60  1  0
 61 68  1  0
 61 62  1  0
 63 57  1  0
 63 62  1  0
 64 57  2  0
 65 66  2  0
 66 85  1  0
 67 66  1  0
 67 70  1  0
 68 69  1  0
 68 65  1  0
 69 67  2  0
 70 71  1  0
 71 72  2  0
 73 76  1  0
 73 72  1  0
 74 73  2  0
 75 74  1  0
 75 70  2  0
 76 77  1  0
 77 78  1  0
 78 79  2  0
 80 79  1  0
 80 84  1  0
 81 80  2  0
 82 77  2  0
 82 81  1  0
 83 82  1  0
 85 86  1  0
 86 89  1  0
 86 88  1  0
 87 85  2  0
 90 65  1  0
 90 91  1  0
 92 90  1  0
M  ISO  4   6 101   7 101  54 100  57 100
M  END
>  <TORSDO>  (80) 
F 20

>  <SCORE>  (80) 
-13.410

>  <name>  (80) 
79

>  <ligand_id>  (80) 
79

>  <original_smiles>  (80) 
[H]C(C(=O)c1c([H])c([H])c(C(=O)N2C([H])([H])C([H])([H])C([H])([H])C([H])(n3nc(-c4c([H])c([H])c(Oc5c([H])c([H])c(F)c([H])c5F)c([H])c4[H])c(C(=O)N([H])[H])c3N([H])[H])C2([H])[H])c(C([H])([H])[H])c1[H])=C([H])C(=C([H])C([H])([H])Oc1c([H])c([H])c2c(c1[H])C([H])([H])N(C(=O)C([H])(N([H])C(=O)C([H])(N([H])C([H])([H])[H])C([H])([H])[H])C(C([H])([H])[H])(C([H])([H])[H])C([H])([H])[H])C([H])(C(=O)N([H])C1([H])c3c([H])c([H])c([H])c([H])c3C([H])([H])C([H])([H])C1([H])[H])C2([H])[H])C([H])([H])[H]

>  <smiles>  (80) 
[H]C(C(=O)c1c([H])c([H])c(C(=O)N2C([H])([H])C([H])([H])C([H])([H])C([H])(n3nc(-c4c([H])c([H])c(Oc5c([H])c([H])c(F)c([H])c5F)c([H])c4[H])c(C(=O)N([H])[H])c3N([H])[H])C2([H])[H])c(C([H])([H])[H])c1[H])=C([H])C(=C([H])C([H])([H])Oc1c([H])c([H])c2c(c1[H])C([H])([H])N(C(=O)C([H])(N([H])C(=O)C([H])(N([H])C([H])([H])[H])C([H])([H])[H])C(C([H])([H])[H])(C([H])([H])[H])C([H])([H])[H])C([H])(C(=O)N([H])C1([H])c3c([H])c([H])c([H])c([H])c3C([H])([H])C([H])([H])C1([H])[H])C2([H])[H])C([H])([H])[H]

$$$$
80:0:0
     RDKit          3D

 92101  0  0  1  0  0  0  0  0999 V2000
  -29.5310  -21.4620   18.5900 C   0  0  0  0  0  3  0  0  0  0  0  0
  -29.3190  -22.6720   17.8990 C   0  0  0  0  0  3  0  0  0  0  0  0
  -28.9740  -22.6040   20.6540 C   0  0  0  0  0  3  0  0  0  0  0  0
  -29.3770  -21.3920   19.9880 C   0  0  0  0  0  0  0  0  0  0  0  0
  -28.9400  -23.8610   18.5670 C   0  0  0  0  0  0  0  0  0  0  0  0
  -28.7480  -23.8560   19.9740 C   0  0  0  0  0  0  0  0  0  0  0  0
  -28.7640  -25.1150   17.7280 C   0  0  0  0  0  1  0  0  0  0  0  0
  -29.7530  -20.0740   20.7590 C   0  0  0  0  0  3  0  0  0  0  0  0
  -29.5560  -18.6260   20.0970 C   0  0  0  0  0  3  0  0  0  0  0  0
  -31.6800  -17.9470   22.3320 C   0  0  0  0  0  2  0  0  0  0  0  0
  -31.8410  -17.5440   20.8680 C   0  0  0  0  0  2  0  0  0  0  0  0
  -30.2990  -17.3030   22.2790 C   0  0  0  0  0  2  0  0  0  0  0  0
  -30.3040  -17.3510   20.7310 C   0  0  1  0  0  0  0  0  0  0  0  0
  -29.7590  -15.9900   20.0750 C   0  0  0  0  0  2  0  0  0  0  0  0
  -30.5900  -14.6290   19.9600 C   0  0  0  0  0  0  0  0  0  0  0  0
  -30.2890  -12.3910   18.9310 C   0  0  0  0  0  2  0  0  0  0  0  0
  -29.2810  -12.5560   17.7710 C   0  0  0  0  0  2  0  0  0  0  0  0
  -27.8340  -12.4040   18.2810 C   0  0  0  0  0  2  0  0  0  0  0  0
  -27.5580  -13.2530   19.5480 C   0  0  0  0  0  3  0  0  0  0  0  0
  -28.6800  -13.0890   20.5960 C   0  0  0  0  0  2  0  0  0  0  0  0
  -29.9600  -13.4080   19.9510 N   0  0  0  0  0  0  0  0  0  0  0  0
  -31.7600  -14.7030   19.5760 O   0  0  0  0  0  0  0  0  0  0  0  0
  -25.2210  -13.8600   20.4250 C   0  0  0  0  0  0  0  0  0  0  0  0
  -24.1710  -13.0900   20.8460 C   0  0  0  0  0  0  0  0  0  0  0  0
  -24.6170  -11.7360   20.7670 C   0  0  0  0  0  0  0  0  0  0  0  0
  -26.2410  -12.9740   20.1130 N   0  0  0  0  0  0  0  0  0  0  0  0
  -25.8870  -11.6920   20.3810 N   0  0  0  0  0  0  0  0  0  0  0  0
  -23.8920  -10.4760   20.9820 C   0  0  0  0  0  0  0  0  0  0  0  0
  -24.3540   -9.5020   21.8940 C   0  0  0  0  0  3  0  0  0  0  0  0
  -23.6290   -8.3090   22.0950 C   0  0  0  0  0  3  0  0  0  0  0  0
  -22.4260   -8.0800   21.3850 C   0  0  0  0  0  0  0  0  0  0  0  0
  -21.9820   -9.0430   20.4630 C   0  0  0  0  0  3  0  0  0  0  0  0
  -22.7090  -10.2290   20.2590 C   0  0  0  0  0  3  0  0  0  0  0  0
  -21.6690   -6.9390   21.4980 O   0  0  0  0  0  0  0  0  0  0  0  0
  -21.6470   -6.2010   22.6550 C   0  0  0  0  0  0  0  0  0  0  0  0
  -21.2460   -6.7600   23.8880 C   0  0  0  0  0  3  0  0  0  0  0  0
  -21.1700   -5.9480   25.0370 C   0  0  0  0  0  3  0  0  0  0  0  0
  -21.4870   -4.5790   24.9550 C   0  0  0  0  0  0  0  0  0  0  0  0
  -21.8830   -4.0210   23.7270 C   0  0  0  0  0  3  0  0  0  0  0  0
  -21.9600   -4.8290   22.5790 C   0  0  0  0  0  0  0  0  0  0  0  0
  -22.3210   -4.2810   21.3940 F   0  0  0  0  0  0  0  0  0  0  0  0
  -21.4090   -3.7980   26.0570 F   0  0  0  0  0  0  0  0  0  0  0  0
  -22.7960  -13.5750   21.2070 C   0  0  0  0  0  0  0  0  0  0  0  0
  -22.1140  -12.8690   22.1030 N   0  0  0  0  0  0  0  0  0  0  0  0
  -22.3390  -14.6120   20.7320 O   0  0  0  0  0  0  0  0  0  0  0  0
  -22.5000  -12.0300   22.5090 H   0  0  0  0  0  0  0  0  0  0  0  0
  -21.1940  -13.1730   22.3880 H   0  0  0  0  0  0  0  0  0  0  0  0
  -25.3890  -15.2320   20.2590 N   0  0  0  0  0  0  0  0  0  0  0  0
  -24.6370  -15.8920   20.4270 H   0  0  0  0  0  0  0  0  0  0  0  0
  -26.2260  -15.6690   19.8950 H   0  0  0  0  0  0  0  0  0  0  0  0
  -28.2280  -25.1110   20.7750 C   0  0  0  0  0  2  0  0  0  0  0  0
  -28.4250  -26.4890   20.2780 O   0  0  0  0  0  0  0  0  0  0  0  0
  -24.5770  -31.8540   23.2080 C   0  0  0  0  0  0  0  0  0  0  0  0
  -27.2990  -27.3190   20.2430 C   0  0  0  0  0  0  0  0  0  0  0  0
  -23.4290  -30.4540   21.5270 C   0  0  0  0  0  3  0  0  0  0  0  0
  -24.9300  -28.9050   20.1540 C   0  0  0  0  0  0  0  0  0  0  0  0
  -25.9710  -30.7850   21.4240 C   0  0  0  0  0  2  0  0  0  0  0  0
  -26.0770  -29.4080   20.7810 C   0  0  0  0  0  0  0  0  0  0  0  0
  -27.2710  -28.6280   20.8090 C   0  0  0  0  0  3  0  0  0  0  0  0
  -26.1260  -26.8560   19.6090 C   0  0  0  0  0  3  0  0  0  0  0  0
  -24.9540  -27.6340   19.5610 C   0  0  0  0  0  3  0  0  0  0  0  0
  -23.6900  -29.7780   20.1570 C   0  0  0  0  0  2  0  0  0  0  0  0
  -24.6770  -31.0470   22.1110 N   0  0  0  0  0  0  0  0  0  0  0  0
  -23.4770  -32.1300   23.7070 O   0  0  0  0  0  0  0  0  0  0  0  0
  -22.7380  -29.4370   22.4650 C   0  0  0  0  0  0  0  0  0  0  0  0
  -21.4150  -29.2660   22.3010 N   0  0  0  0  0  0  0  0  0  0  0  0
  -23.3910  -28.8040   23.2980 O   0  0  0  0  0  0  0  0  0  0  0  0
  -20.9490  -29.8280   21.6020 H   0  0  0  0  0  0  0  0  0  0  0  0
  -18.0150  -28.1010   22.7150 C   0  0  0  0  0  0  0  0  0  0  0  0
  -20.5700  -28.3310   23.0460 C   0  0  0  0  0  3  0  0  0  0  0  0
  -20.6700  -26.9040   22.4590 C   0  0  0  0  0  2  0  0  0  0  0  0
  -19.5880  -26.6020   21.4170 C   0  0  0  0  0  2  0  0  0  0  0  0
  -18.1940  -26.7560   22.0310 C   0  0  0  0  0  2  0  0  0  0  0  0
  -19.1330  -28.8480   23.1770 C   0  0  0  0  0  0  0  0  0  0  0  0
  -18.9140  -30.1080   23.7750 C   0  0  0  0  0  3  0  0  0  0  0  0
  -17.6110  -30.6230   23.9150 C   0  0  0  0  0  3  0  0  0  0  0  0
  -16.5080  -29.8730   23.4700 C   0  0  0  0  0  3  0  0  0  0  0  0
  -16.7110  -28.6150   22.8760 C   0  0  0  0  0  3  0  0  0  0  0  0
  -25.8390  -32.4870   23.8720 C   0  0  0  0  0  3  0  0  0  0  0  0
  -25.5190  -33.8850   24.1910 N   0  0  0  0  0  0  0  0  0  0  0  0
  -25.8710  -34.9360   23.4400 C   0  0  0  0  0  0  0  0  0  0  0  0
  -26.5690  -34.8320   22.4270 O   0  0  0  0  0  0  0  0  0  0  0  0
  -24.8990  -34.0400   24.9720 H   0  0  0  0  0  0  0  0  0  0  0  0
  -24.1470  -36.7250   23.0420 C   0  0  0  0  0  1  0  0  0  0  0  0
  -25.3720  -36.3250   23.8800 C   0  0  0  0  0  3  0  0  0  0  0  0
  -27.4840  -37.2220   24.7530 C   0  0  0  0  0  1  0  0  0  0  0  0
  -26.4030  -37.3810   23.7850 N   0  0  0  0  0  0  0  0  0  0  0  0
  -25.9910  -38.3010   23.9190 H   0  0  0  0  0  0  0  0  0  0  0  0
  -26.3120  -31.7140   25.1660 C   0  0  1  0  0  0  0  0  0  0  0  0
  -25.1840  -31.4730   26.1960 C   0  0  0  0  0  1  0  0  0  0  0  0
  -26.9090  -30.3370   24.7920 C   0  0  0  0  0  1  0  0  0  0  0  0
  -27.4390  -32.5100   25.8650 C   0  0  0  0  0  1  0  0  0  0  0  0
  1  4  1  0
  2  5  1  0
  2  1  2  0
  4  3  2  0
  4  8  1  0
  5  6  2  0
  6  3  1  0
  6 51  1  0
  7  5  1  0
  9 13  1  0
  9  8  2  0
 11 10  1  0
 12 10  1  0
 13 11  1  0
 13 12  1  0
 13 14  1  6
 15 14  1  0
 16 21  1  0
 17 18  1  0
 17 16  1  0
 19 18  1  0
 19 26  1  0
 19 20  1  0
 21 15  1  0
 21 20  1  0
 22 15  2  0
 23 24  2  0
 24 43  1  0
 25 24  1  0
 25 28  1  0
 26 27  1  0
 26 23  1  0
 27 25  2  0
 28 29  1  0
 29 30  2  0
 31 34  1  0
 31 30  1  0
 32 31  2  0
 33 32  1  0
 33 28  2  0
 34 35  1  0
 35 36  1  0
 36 37  2  0
 38 37  1  0
 38 42  1  0
 39 38  2  0
 40 35  2  0
 40 39  1  0
 41 40  1  0
 43 44  1  0
 44 47  1  0
 44 46  1  0
 45 43  2  0
 48 23  1  0
 48 49  1  0
 50 48  1  0
 52 51  1  0
 53 64  2  0
 54 52  1  0
 54 59  1  0
 55 63  1  0
 55 65  1  0
 56 62  1  0
 56 58  1  0
 57 63  1  0
 58 59  2  0
 58 57  1  0
 60 54  2  0
 61 60  1  0
 61 56  2  0
 62 55  1  0
 63 53  1  0
 65 67  2  0
 66 65  1  0
 68 66  1  0
 69 78  2  0
 69 74  1  0
 70 66  1  0
 70 74  1  0
 71 70  1  0
 72 73  1  0
 72 71  1  0
 73 69  1  0
 74 75  2  0
 75 76  1  0
 77 76  2  0
 78 77  1  0
 79 53  1  0
 79 80  1  0
 79 89  1  0
 80 83  1  0
 81 85  1  0
 81 80  1  0
 82 81  2  0
 85 84  1  0
 87 85  1  0
 87 88  1  0
 87 86  1  0
 89 92  1  1
 89 90  1  0
 91 89  1  0
M  ISO  4  14 100  15 100  51 101  52 101
M  END
>  <TORSDO>  (81) 
F 21

>  <SCORE>  (81) 
-13.070

>  <name>  (81) 
80

>  <ligand_id>  (81) 
80

>  <original_smiles>  (81) 
[H]c1c([H])c([H])c2c(c1[H])C([H])([H])C([H])([H])C([H])([H])C2([H])N([H])C(=O)C1([H])N(C(=O)C([H])(N([H])C(=O)C([H])(N([H])C([H])([H])[H])C([H])([H])[H])C(C([H])([H])[H])(C([H])([H])[H])C([H])([H])[H])C([H])([H])c2c([H])c(OC([H])([H])c3c([H])c(C([H])([H])C([H])([H])C4(C([H])([H])C(=O)N5C([H])([H])C([H])([H])C([H])([H])C([H])(n6nc(-c7c([H])c([H])c(Oc8c([H])c([H])c(F)c([H])c8F)c([H])c7[H])c(C(=O)N([H])[H])c6N([H])[H])C5([H])[H])C([H])([H])C([H])([H])C4([H])[H])c([H])c([H])c3C([H])([H])[H])c([H])c([H])c2C1([H])[H]

>  <smiles>  (81) 
[H]c1c([H])c([H])c2c(c1[H])C([H])([H])C([H])([H])C([H])([H])C2([H])N([H])C(=O)C1([H])N(C(=O)C([H])(N([H])C(=O)C([H])(N([H])C([H])([H])[H])C([H])([H])[H])C(C([H])([H])[H])(C([H])([H])[H])C([H])([H])[H])C([H])([H])c2c([H])c(OC([H])([H])c3c([H])c(C([H])([H])C([H])([H])C4(C([H])([H])C(=O)N5C([H])([H])C([H])([H])C([H])([H])C([H])(n6nc(-c7c([H])c([H])c(Oc8c([H])c([H])c(F)c([H])c8F)c([H])c7[H])c(C(=O)N([H])[H])c6N([H])[H])C5([H])[H])C([H])([H])C([H])([H])C4([H])[H])c([H])c([H])c3C([H])([H])[H])c([H])c([H])c2C1([H])[H]

$$$$
81:0:0
     RDKit          3D

 90 98  0  0  1  0  0  0  0  0999 V2000
  -28.5810  -21.6730   18.6640 C   0  0  0  0  0  3  0  0  0  0  0  0
  -28.0640  -24.1380   18.6660 C   0  0  0  0  0  3  0  0  0  0  0  0
  -28.7990  -21.5670   20.0560 C   0  0  0  0  0  0  0  0  0  0  0  0
  -28.2230  -22.8870   18.0100 C   0  0  0  0  0  0  0  0  0  0  0  0
  -28.2310  -24.3400   20.0530 C   0  0  0  0  0  0  0  0  0  0  0  0
  -28.6100  -22.9730   20.7070 C   0  0  0  0  0  0  0  0  0  0  0  0
  -28.8010  -23.0120   22.0490 F   0  0  0  0  0  0  0  0  0  0  0  0
  -28.0340  -22.8710   16.6570 O   0  0  0  0  0  0  0  0  0  0  0  0
  -28.2030  -22.0250   16.2520 H   0  0  0  0  0  0  0  0  0  0  0  0
  -28.1690  -25.8210   20.5150 O   0  0  0  0  0  0  0  0  0  0  0  0
  -24.5950  -31.8930   23.2890 C   0  0  0  0  0  0  0  0  0  0  0  0
  -27.1670  -26.9360   20.3650 C   0  0  0  0  0  0  0  0  0  0  0  0
  -23.4150  -30.4790   21.6570 C   0  0  0  0  0  3  0  0  0  0  0  0
  -24.8740  -28.8450   20.2680 C   0  0  0  0  0  0  0  0  0  0  0  0
  -25.9830  -30.6690   21.5370 C   0  0  0  0  0  2  0  0  0  0  0  0
  -26.0550  -29.2470   20.9010 C   0  0  0  0  0  0  0  0  0  0  0  0
  -27.1880  -28.3110   20.9300 C   0  0  0  0  0  3  0  0  0  0  0  0
  -25.9580  -26.6990   19.6700 C   0  0  0  0  0  3  0  0  0  0  0  0
  -24.8510  -27.5900   19.6330 C   0  0  0  0  0  3  0  0  0  0  0  0
  -23.6580  -29.7730   20.2930 C   0  0  0  0  0  2  0  0  0  0  0  0
  -24.6860  -31.0420   22.2150 N   0  0  0  0  0  0  0  0  0  0  0  0
  -23.5020  -32.1930   23.7960 O   0  0  0  0  0  0  0  0  0  0  0  0
  -22.7060  -29.5010   22.6290 C   0  0  0  0  0  0  0  0  0  0  0  0
  -21.3790  -29.3280   22.4840 N   0  0  0  0  0  0  0  0  0  0  0  0
  -23.3570  -28.8950   23.4850 O   0  0  0  0  0  0  0  0  0  0  0  0
  -20.9010  -29.8660   21.7740 H   0  0  0  0  0  0  0  0  0  0  0  0
  -17.9990  -28.0970   22.9530 C   0  0  0  0  0  0  0  0  0  0  0  0
  -20.5500  -28.4010   23.2600 C   0  0  0  0  0  3  0  0  0  0  0  0
  -20.6780  -26.9560   22.7240 C   0  0  0  0  0  2  0  0  0  0  0  0
  -19.6020  -26.5960   21.6940 C   0  0  0  0  0  2  0  0  0  0  0  0
  -18.2060  -26.7370   22.3080 C   0  0  0  0  0  2  0  0  0  0  0  0
  -19.1000  -28.8840   23.3870 C   0  0  0  0  0  0  0  0  0  0  0  0
  -18.8550  -30.1500   23.9580 C   0  0  0  0  0  3  0  0  0  0  0  0
  -17.5410  -30.6370   24.0960 C   0  0  0  0  0  3  0  0  0  0  0  0
  -16.4530  -29.8510   23.6760 C   0  0  0  0  0  3  0  0  0  0  0  0
  -16.6820  -28.5840   23.1110 C   0  0  0  0  0  3  0  0  0  0  0  0
  -25.8620  -32.5420   23.9260 C   0  0  0  0  0  3  0  0  0  0  0  0
  -26.3400  -31.8070   25.2410 C   0  0  1  0  0  0  0  0  0  0  0  0
  -25.2180  -31.6160   26.2880 C   0  0  0  0  0  1  0  0  0  0  0  0
  -26.9180  -30.4100   24.9170 C   0  0  0  0  0  1  0  0  0  0  0  0
  -27.4800  -32.6140   25.9060 C   0  0  0  0  0  1  0  0  0  0  0  0
  -25.5490  -33.9540   24.2190 N   0  0  0  0  0  0  0  0  0  0  0  0
  -25.9000  -34.9950   23.4520 C   0  0  0  0  0  0  0  0  0  0  0  0
  -26.5840  -34.8700   22.4330 O   0  0  0  0  0  0  0  0  0  0  0  0
  -24.9440  -34.1250   25.0080 H   0  0  0  0  0  0  0  0  0  0  0  0
  -24.2000  -36.8090   23.0490 C   0  0  0  0  0  1  0  0  0  0  0  0
  -25.4230  -36.3970   23.8830 C   0  0  0  0  0  3  0  0  0  0  0  0
  -27.5490  -37.2840   24.7400 C   0  0  0  0  0  1  0  0  0  0  0  0
  -26.4690  -37.4380   23.7700 N   0  0  0  0  0  0  0  0  0  0  0  0
  -26.0670  -38.3650   23.8870 H   0  0  0  0  0  0  0  0  0  0  0  0
  -29.0980  -19.9230   20.6670 C   0  0  0  0  0  3  0  0  0  0  0  0
  -29.7400  -18.3560   19.9610 C   0  0  0  0  0  3  0  0  0  0  0  0
  -30.4370  -15.4190   20.2410 C   0  0  0  0  0  0  0  0  0  0  0  0
  -30.4340  -12.9560   19.3830 C   0  0  0  0  0  2  0  0  0  0  0  0
  -29.5170  -12.7520   18.1470 C   0  0  0  0  0  2  0  0  0  0  0  0
  -28.0710  -12.4550   18.5800 C   0  0  0  0  0  2  0  0  0  0  0  0
  -27.6170  -13.3970   19.7230 C   0  0  0  0  0  3  0  0  0  0  0  0
  -28.6650  -13.5640   20.8470 C   0  0  0  0  0  2  0  0  0  0  0  0
  -29.8890  -14.0960   20.2190 N   0  0  0  0  0  0  0  0  0  0  0  0
  -31.6470  -15.4180   19.9640 O   0  0  0  0  0  0  0  0  0  0  0  0
  -29.6650  -16.7010   20.3730 N   0  0  0  0  0  0  0  0  0  0  0  0
  -28.7180  -16.4630   20.6340 H   0  0  0  0  0  0  0  0  0  0  0  0
  -25.2480  -13.9210   20.4910 C   0  0  0  0  0  0  0  0  0  0  0  0
  -24.1970  -13.1320   20.8620 C   0  0  0  0  0  0  0  0  0  0  0  0
  -24.6780  -11.7860   20.8220 C   0  0  0  0  0  0  0  0  0  0  0  0
  -26.2980  -13.0590   20.2390 N   0  0  0  0  0  0  0  0  0  0  0  0
  -25.9690  -11.7670   20.5080 N   0  0  0  0  0  0  0  0  0  0  0  0
  -23.9620  -10.5170   21.0060 C   0  0  0  0  0  0  0  0  0  0  0  0
  -24.3880   -9.5600   21.9540 C   0  0  0  0  0  3  0  0  0  0  0  0
  -23.6710   -8.3580   22.1300 C   0  0  0  0  0  3  0  0  0  0  0  0
  -22.5100   -8.1040   21.3620 C   0  0  0  0  0  0  0  0  0  0  0  0
  -22.1030   -9.0490   20.4050 C   0  0  0  0  0  3  0  0  0  0  0  0
  -22.8220  -10.2430   20.2250 C   0  0  0  0  0  3  0  0  0  0  0  0
  -21.7620   -6.9550   21.4480 O   0  0  0  0  0  0  0  0  0  0  0  0
  -21.6880   -6.2270   22.6100 C   0  0  0  0  0  0  0  0  0  0  0  0
  -21.1910   -6.7840   23.8090 C   0  0  0  0  0  3  0  0  0  0  0  0
  -21.0720   -5.9810   24.9620 C   0  0  0  0  0  3  0  0  0  0  0  0
  -21.4360   -4.6220   24.9150 C   0  0  0  0  0  0  0  0  0  0  0  0
  -21.9260   -4.0660   23.7210 C   0  0  0  0  0  3  0  0  0  0  0  0
  -22.0490   -4.8650   22.5710 C   0  0  0  0  0  0  0  0  0  0  0  0
  -22.5010   -4.3180   21.4180 F   0  0  0  0  0  0  0  0  0  0  0  0
  -21.3140   -3.8500   26.0190 F   0  0  0  0  0  0  0  0  0  0  0  0
  -22.7950  -13.5920   21.1360 C   0  0  0  0  0  0  0  0  0  0  0  0
  -22.0710  -12.8870   21.9950 N   0  0  0  0  0  0  0  0  0  0  0  0
  -22.3530  -14.6180   20.6200 O   0  0  0  0  0  0  0  0  0  0  0  0
  -22.4400  -12.0560   22.4340 H   0  0  0  0  0  0  0  0  0  0  0  0
  -21.1320  -13.1820   22.2190 H   0  0  0  0  0  0  0  0  0  0  0  0
  -25.3970  -15.2950   20.3140 N   0  0  0  0  0  0  0  0  0  0  0  0
  -24.6290  -15.9470   20.4290 H   0  0  0  0  0  0  0  0  0  0  0  0
  -26.2330  -15.7350   19.9540 H   0  0  0  0  0  0  0  0  0  0  0  0
  1  3  1  0
  2  5  2  0
  3 51  1  0
  3  6  2  0
  4  1  2  0
  4  2  1  0
  5 10  1  0
  5  6  1  0
  6  7  1  0
  8  4  1  0
  9  8  1  0
 11 22  2  0
 12 10  1  0
 12 17  1  0
 13 21  1  0
 13 23  1  0
 14 20  1  0
 14 16  1  0
 15 21  1  0
 16 17  2  0
 16 15  1  0
 18 12  2  0
 19 18  1  0
 19 14  2  0
 20 13  1  0
 21 11  1  0
 23 25  2  0
 24 23  1  0
 26 24  1  0
 27 36  2  0
 27 32  1  0
 28 24  1  0
 28 32  1  0
 29 28  1  0
 30 31  1  0
 30 29  1  0
 31 27  1  0
 32 33  2  0
 33 34  1  0
 35 34  2  0
 36 35  1  0
 37 11  1  0
 37 42  1  0
 37 38  1  0
 38 41  1  1
 38 39  1  0
 40 38  1  0
 42 45  1  0
 43 47  1  0
 43 42  1  0
 44 43  2  0
 47 46  1  0
 49 47  1  0
 49 50  1  0
 49 48  1  0
 52 61  1  0
 52 51  2  0
 53 61  1  0
 54 59  1  0
 55 56  1  0
 55 54  1  0
 57 56  1  0
 57 66  1  0
 57 58  1  0
 59 53  1  0
 59 58  1  0
 60 53  2  0
 61 62  1  0
 63 64  2  0
 64 83  1  0
 65 64  1  0
 65 68  1  0
 66 63  1  0
 66 67  1  0
 67 65  2  0
 68 69  1  0
 69 70  2  0
 71 74  1  0
 71 70  1  0
 72 71  2  0
 73 72  1  0
 73 68  2  0
 74 75  1  0
 75 76  1  0
 76 77  2  0
 78 77  1  0
 78 82  1  0
 79 78  2  0
 80 75  2  0
 80 79  1  0
 81 80  1  0
 83 84  1  0
 84 87  1  0
 84 86  1  0
 85 83  2  0
 88 89  1  0
 88 63  1  0
 90 88  1  0
M  ISO  4   5 101  10 101  53 100  61 100
M  END
>  <TORSDO>  (82) 
F 19

>  <SCORE>  (82) 
-15.338

>  <name>  (82) 
81

>  <ligand_id>  (82) 
81

>  <original_smiles>  (82) 
[H]Oc1c([H])c(Oc2c([H])c([H])c3c(c2[H])C([H])([H])N(C(=O)C([H])(N([H])C(=O)C([H])(N([H])C([H])([H])[H])C([H])([H])[H])C(C([H])([H])[H])(C([H])([H])[H])C([H])([H])[H])C([H])(C(=O)N([H])C2([H])c4c([H])c([H])c([H])c([H])c4C([H])([H])C([H])([H])C2([H])[H])C3([H])[H])c(F)c(C([H])([H])C([H])([H])N([H])C(=O)N2C([H])([H])C([H])([H])C([H])([H])C([H])(n3nc(-c4c([H])c([H])c(Oc5c([H])c([H])c(F)c([H])c5F)c([H])c4[H])c(C(=O)N([H])[H])c3N([H])[H])C2([H])[H])c1[H]

>  <smiles>  (82) 
[H]Oc1c([H])c(Oc2c([H])c([H])c3c(c2[H])C([H])([H])N(C(=O)C([H])(N([H])C(=O)C([H])(N([H])C([H])([H])[H])C([H])([H])[H])C(C([H])([H])[H])(C([H])([H])[H])C([H])([H])[H])C([H])(C(=O)N([H])C2([H])c4c([H])c([H])c([H])c([H])c4C([H])([H])C([H])([H])C2([H])[H])C3([H])[H])c(F)c(C([H])([H])C([H])([H])N([H])C(=O)N2C([H])([H])C([H])([H])C([H])([H])C([H])(n3nc(-c4c([H])c([H])c(Oc5c([H])c([H])c(F)c([H])c5F)c([H])c4[H])c(C(=O)N([H])[H])c3N([H])[H])C2([H])[H])c1[H]

$$$$
82:0:0
     RDKit          3D

 92100  0  0  1  0  0  0  0  0999 V2000
  -28.8630  -24.2170   19.8300 C   0  0  0  0  0  3  0  0  0  0  0  0
  -28.7790  -22.8500   20.2920 C   0  0  0  0  0  0  0  0  0  0  0  0
  -26.9640  -24.8900   21.2050 C   0  0  0  0  0  0  0  0  0  0  0  0
  -26.7950  -23.5270   21.5840 C   0  0  0  0  0  0  0  0  0  0  0  0
  -27.9650  -25.2670   20.2540 C   0  0  0  0  0  0  0  0  0  0  0  0
  -27.7120  -22.5360   21.1580 C   0  0  0  0  0  0  0  0  0  0  0  0
  -26.0970  -25.9490   21.8880 C   0  0  0  0  0  1  0  0  0  0  0  0
  -25.6410  -23.1170   22.5000 C   0  0  0  0  0  1  0  0  0  0  0  0
  -27.6020  -21.2660   21.6490 O   0  0  0  0  0  0  0  0  0  0  0  0
  -26.8890  -21.1730   22.2710 H   0  0  0  0  0  0  0  0  0  0  0  0
  -28.1260  -26.6160   19.8200 O   0  0  0  0  0  0  0  0  0  0  0  0
  -24.4650  -31.8480   23.1400 C   0  0  0  0  0  0  0  0  0  0  0  0
  -27.0440  -27.5080   19.7820 C   0  0  0  0  0  0  0  0  0  0  0  0
  -23.2520  -30.5800   21.4000 C   0  0  0  0  0  3  0  0  0  0  0  0
  -24.6940  -29.1260   19.8630 C   0  0  0  0  0  0  0  0  0  0  0  0
  -25.7910  -30.8980   21.2400 C   0  0  0  0  0  2  0  0  0  0  0  0
  -25.8630  -29.5720   20.4950 C   0  0  0  0  0  0  0  0  0  0  0  0
  -27.0440  -28.7780   20.4400 C   0  0  0  0  0  3  0  0  0  0  0  0
  -25.8640  -27.1180   19.1200 C   0  0  0  0  0  3  0  0  0  0  0  0
  -24.6960  -27.9070   19.1630 C   0  0  0  0  0  3  0  0  0  0  0  0
  -23.4610  -30.0020   19.9750 C   0  0  0  0  0  2  0  0  0  0  0  0
  -24.5210  -31.1220   21.9850 N   0  0  0  0  0  0  0  0  0  0  0  0
  -23.3830  -32.0960   23.6920 O   0  0  0  0  0  0  0  0  0  0  0  0
  -22.5770  -29.5060   22.2850 C   0  0  0  0  0  0  0  0  0  0  0  0
  -21.2460  -29.3740   22.1650 N   0  0  0  0  0  0  0  0  0  0  0  0
  -23.2510  -28.7990   23.0400 O   0  0  0  0  0  0  0  0  0  0  0  0
  -20.7630  -29.9970   21.5330 H   0  0  0  0  0  0  0  0  0  0  0  0
  -17.8360  -28.2920   22.6980 C   0  0  0  0  0  0  0  0  0  0  0  0
  -20.4140  -28.3950   22.8670 C   0  0  0  0  0  3  0  0  0  0  0  0
  -20.4140  -27.0350   22.1330 C   0  0  0  0  0  2  0  0  0  0  0  0
  -19.2530  -26.8820   21.1450 C   0  0  0  0  0  2  0  0  0  0  0  0
  -17.9110  -27.0200   21.8690 C   0  0  0  0  0  2  0  0  0  0  0  0
  -19.0120  -28.9460   23.1530 C   0  0  0  0  0  0  0  0  0  0  0  0
  -18.8870  -30.1430   23.8910 C   0  0  0  0  0  3  0  0  0  0  0  0
  -17.6200  -30.6860   24.1750 C   0  0  0  0  0  3  0  0  0  0  0  0
  -16.4590  -30.0270   23.7350 C   0  0  0  0  0  3  0  0  0  0  0  0
  -16.5690  -28.8310   23.0030 C   0  0  0  0  0  3  0  0  0  0  0  0
  -25.7520  -32.4200   23.8100 C   0  0  0  0  0  3  0  0  0  0  0  0
  -25.4820  -33.8220   24.1650 N   0  0  0  0  0  0  0  0  0  0  0  0
  -25.8650  -34.8790   23.4360 C   0  0  0  0  0  0  0  0  0  0  0  0
  -26.5500  -34.7740   22.4140 O   0  0  0  0  0  0  0  0  0  0  0  0
  -24.8780  -33.9800   24.9580 H   0  0  0  0  0  0  0  0  0  0  0  0
  -24.1980  -36.7320   23.0980 C   0  0  0  0  0  1  0  0  0  0  0  0
  -25.4160  -36.2740   23.9150 C   0  0  0  0  0  3  0  0  0  0  0  0
  -27.5660  -37.0760   24.7880 C   0  0  0  0  0  1  0  0  0  0  0  0
  -26.4840  -37.2950   23.8320 N   0  0  0  0  0  0  0  0  0  0  0  0
  -26.1050  -38.2250   23.9880 H   0  0  0  0  0  0  0  0  0  0  0  0
  -26.2070  -31.6010   25.0810 C   0  0  1  0  0  0  0  0  0  0  0  0
  -25.0780  -31.3800   26.1140 C   0  0  0  0  0  1  0  0  0  0  0  0
  -26.7500  -30.2120   24.6710 C   0  0  0  0  0  1  0  0  0  0  0  0
  -27.3670  -32.3370   25.7920 C   0  0  0  0  0  1  0  0  0  0  0  0
  -29.9000  -21.7680   20.0260 C   0  0  0  0  0  2  0  0  0  0  0  0
  -29.5800  -20.2560   19.5810 C   0  0  0  0  0  2  0  0  0  0  0  0
  -30.1530  -19.0290   20.4400 C   0  0  0  0  0  3  0  0  0  0  0  0
  -30.2890  -17.5740   19.7780 C   0  0  0  0  0  3  0  0  0  0  0  0
  -30.4340  -16.2850   20.7220 C   0  0  0  0  0  2  0  0  0  0  0  0
  -31.0840  -14.9490   20.1510 C   0  0  0  0  0  0  0  0  0  0  0  0
  -30.8260  -12.6710   19.1620 C   0  0  0  0  0  2  0  0  0  0  0  0
  -29.8750  -12.7620   17.9500 C   0  0  0  0  0  2  0  0  0  0  0  0
  -28.4040  -12.6340   18.3970 C   0  0  0  0  0  2  0  0  0  0  0  0
  -28.0710  -13.5480   19.6090 C   0  0  0  0  0  3  0  0  0  0  0  0
  -29.1390  -13.4180   20.7160 C   0  0  0  0  0  2  0  0  0  0  0  0
  -30.4420  -13.7330   20.1180 N   0  0  0  0  0  0  0  0  0  0  0  0
  -32.2170  -15.0470   19.6680 O   0  0  0  0  0  0  0  0  0  0  0  0
  -25.7190  -14.2120   20.3960 C   0  0  0  0  0  0  0  0  0  0  0  0
  -24.6330  -13.4670   20.7700 C   0  0  0  0  0  0  0  0  0  0  0  0
  -25.0450  -12.1010   20.6950 C   0  0  0  0  0  0  0  0  0  0  0  0
  -26.7250  -13.3010   20.1170 N   0  0  0  0  0  0  0  0  0  0  0  0
  -26.3270  -12.0240   20.3570 N   0  0  0  0  0  0  0  0  0  0  0  0
  -24.2770  -10.8620   20.8720 C   0  0  0  0  0  0  0  0  0  0  0  0
  -24.6710   -9.8760   21.8040 C   0  0  0  0  0  3  0  0  0  0  0  0
  -23.9060   -8.7010   21.9690 C   0  0  0  0  0  3  0  0  0  0  0  0
  -22.7320   -8.5040   21.2020 C   0  0  0  0  0  0  0  0  0  0  0  0
  -22.3580   -9.4780   20.2610 C   0  0  0  0  0  3  0  0  0  0  0  0
  -23.1230  -10.6440   20.0940 C   0  0  0  0  0  3  0  0  0  0  0  0
  -21.9420   -7.3830   21.2770 O   0  0  0  0  0  0  0  0  0  0  0  0
  -21.8300   -6.6560   22.4360 C   0  0  0  0  0  0  0  0  0  0  0  0
  -21.3610   -7.2360   23.6350 C   0  0  0  0  0  3  0  0  0  0  0  0
  -21.1950   -6.4360   24.7840 C   0  0  0  0  0  3  0  0  0  0  0  0
  -21.4880   -5.0610   24.7330 C   0  0  0  0  0  0  0  0  0  0  0  0
  -21.9480   -4.4820   23.5380 C   0  0  0  0  0  3  0  0  0  0  0  0
  -22.1150   -5.2770   22.3910 C   0  0  0  0  0  0  0  0  0  0  0  0
  -22.5400   -4.7110   21.2360 F   0  0  0  0  0  0  0  0  0  0  0  0
  -21.3210   -4.2910   25.8340 F   0  0  0  0  0  0  0  0  0  0  0  0
  -23.2600  -13.9880   21.0850 C   0  0  0  0  0  0  0  0  0  0  0  0
  -22.5270  -13.2990   21.9530 N   0  0  0  0  0  0  0  0  0  0  0  0
  -22.8480  -15.0390   20.5990 O   0  0  0  0  0  0  0  0  0  0  0  0
  -22.8730  -12.4460   22.3710 H   0  0  0  0  0  0  0  0  0  0  0  0
  -21.6070  -13.6300   22.2060 H   0  0  0  0  0  0  0  0  0  0  0  0
  -25.9310  -15.5790   20.2500 N   0  0  0  0  0  0  0  0  0  0  0  0
  -25.1970  -16.2620   20.4040 H   0  0  0  0  0  0  0  0  0  0  0  0
  -26.7980  -15.9960   19.9320 H   0  0  0  0  0  0  0  0  0  0  0  0
  1  5  2  0
  1  2  1  0
  2  6  2  0
  3  4  2  0
  3  7  1  0
  4  8  1  0
  5  3  1  0
  6  4  1  0
  6  9  1  0
  9 10  1  0
 11  5  1  0
 12 23  2  0
 13 11  1  0
 13 18  1  0
 14 22  1  0
 14 24  1  0
 15 21  1  0
 15 17  1  0
 16 22  1  0
 17 16  1  0
 18 17  2  0
 19 20  1  0
 19 13  2  0
 20 15  2  0
 21 14  1  0
 22 12  1  0
 24 26  2  0
 25 24  1  0
 27 25  1  0
 28 37  2  0
 28 33  1  0
 29 25  1  0
 29 33  1  0
 30 29  1  0
 31 32  1  0
 31 30  1  0
 32 28  1  0
 33 34  2  0
 34 35  1  0
 36 35  2  0
 37 36  1  0
 38 12  1  0
 38 39  1  0
 38 48  1  0
 39 42  1  0
 40 44  1  0
 40 39  1  0
 41 40  2  0
 44 43  1  0
 46 44  1  0
 46 47  1  0
 46 45  1  0
 48 51  1  1
 48 49  1  0
 50 48  1  0
 52  2  1  0
 53 52  1  0
 53 54  1  0
 55 54  2  0
 55 56  1  0
 57 56  1  0
 58 63  1  0
 59 60  1  0
 59 58  1  0
 61 60  1  0
 61 68  1  0
 61 62  1  0
 63 57  1  0
 63 62  1  0
 64 57  2  0
 65 66  2  0
 66 85  1  0
 67 66  1  0
 67 70  1  0
 68 69  1  0
 68 65  1  0
 69 67  2  0
 70 71  1  0
 71 72  2  0
 73 76  1  0
 73 72  1  0
 74 73  2  0
 75 74  1  0
 75 70  2  0
 76 77  1  0
 77 78  1  0
 78 79  2  0
 80 79  1  0
 80 84  1  0
 81 80  2  0
 82 77  2  0
 82 81  1  0
 83 82  1  0
 85 86  1  0
 86 89  1  0
 86 88  1  0
 87 85  2  0
 90 65  1  0
 90 91  1  0
 92 90  1  0
M  ISO  4   5 101  11 101  56 100  57 100
M  END
>  <TORSDO>  (83) 
F 22

>  <SCORE>  (83) 
-12.029

>  <name>  (83) 
82

>  <ligand_id>  (83) 
82

>  <original_smiles>  (83) 
[H]Oc1c(C([H])([H])[H])c(C([H])([H])[H])c(Oc2c([H])c([H])c3c(c2[H])C([H])([H])N(C(=O)C([H])(N([H])C(=O)C([H])(N([H])C([H])([H])[H])C([H])([H])[H])C(C([H])([H])[H])(C([H])([H])[H])C([H])([H])[H])C([H])(C(=O)N([H])C2([H])c4c([H])c([H])c([H])c([H])c4C([H])([H])C([H])([H])C2([H])[H])C3([H])[H])c([H])c1C([H])([H])C([H])([H])C([H])([H])C([H])([H])C([H])([H])C(=O)N1C([H])([H])C([H])([H])C([H])([H])C([H])(n2nc(-c3c([H])c([H])c(Oc4c([H])c([H])c(F)c([H])c4F)c([H])c3[H])c(C(=O)N([H])[H])c2N([H])[H])C1([H])[H]

>  <smiles>  (83) 
[H]Oc1c(C([H])([H])[H])c(C([H])([H])[H])c(Oc2c([H])c([H])c3c(c2[H])C([H])([H])N(C(=O)C([H])(N([H])C(=O)C([H])(N([H])C([H])([H])[H])C([H])([H])[H])C(C([H])([H])[H])(C([H])([H])[H])C([H])([H])[H])C([H])(C(=O)N([H])C2([H])c4c([H])c([H])c([H])c([H])c4C([H])([H])C([H])([H])C2([H])[H])C3([H])[H])c([H])c1C([H])([H])C([H])([H])C([H])([H])C([H])([H])C([H])([H])C(=O)N1C([H])([H])C([H])([H])C([H])([H])C([H])(n2nc(-c3c([H])c([H])c(Oc4c([H])c([H])c(F)c([H])c4F)c([H])c3[H])c(C(=O)N([H])[H])c2N([H])[H])C1([H])[H]

$$$$
83:0:0
     RDKit          3D

 92101  0  0  1  0  0  0  0  0999 V2000
  -30.1750  -22.9070   20.5160 C   0  0  0  0  0  3  0  0  0  0  0  0
  -29.2580  -22.9000   22.7740 C   0  0  0  0  0  3  0  0  0  0  0  0
  -29.9480  -24.2930   20.4240 C   0  0  0  0  0  3  0  0  0  0  0  0
  -29.0380  -24.2890   22.6850 C   0  0  0  0  0  3  0  0  0  0  0  0
  -29.8310  -22.2040   21.6890 C   0  0  0  0  0  0  0  0  0  0  0  0
  -29.3780  -24.9920   21.5090 C   0  0  0  0  0  0  0  0  0  0  0  0
  -30.1190  -20.7140   21.7900 C   0  0  0  0  0  2  0  0  0  0  0  0
  -29.2990  -19.8560   20.8070 C   0  0  0  0  0  2  0  0  0  0  0  0
  -31.0830  -14.4580   19.9960 C   0  0  0  0  0  0  0  0  0  0  0  0
  -30.7030  -12.2660   18.9520 C   0  0  0  0  0  2  0  0  0  0  0  0
  -29.7050  -12.4440   17.7900 C   0  0  0  0  0  2  0  0  0  0  0  0
  -28.2530  -12.3440   18.2990 C   0  0  0  0  0  2  0  0  0  0  0  0
  -27.9880  -13.2330   19.5420 C   0  0  0  0  0  3  0  0  0  0  0  0
  -29.0940  -13.0420   20.6030 C   0  0  0  0  0  2  0  0  0  0  0  0
  -30.3890  -13.2910   19.9550 N   0  0  0  0  0  0  0  0  0  0  0  0
  -32.2170  -14.5840   19.5160 O   0  0  0  0  0  0  0  0  0  0  0  0
  -29.1590  -17.6380   19.5380 C   0  0  0  0  0  2  0  0  0  0  0  0
  -30.0200  -17.5860   21.8390 C   0  0  0  0  0  2  0  0  0  0  0  0
  -29.9880  -16.3990   19.1740 C   0  0  0  0  0  2  0  0  0  0  0  0
  -30.7790  -16.2700   21.5540 C   0  0  0  0  0  2  0  0  0  0  0  0
  -29.9140  -18.4590   20.5810 C   0  0  0  0  0  3  0  0  0  0  0  0
  -30.3610  -15.5540   20.3300 N   0  0  0  0  0  0  0  0  0  0  0  0
  -25.6670  -13.9160   20.4150 C   0  0  0  0  0  0  0  0  0  0  0  0
  -24.5930  -13.1750   20.8250 C   0  0  0  0  0  0  0  0  0  0  0  0
  -24.9940  -11.8070   20.7250 C   0  0  0  0  0  0  0  0  0  0  0  0
  -26.6590  -13.0000   20.0950 N   0  0  0  0  0  0  0  0  0  0  0  0
  -26.2600  -11.7260   20.3380 N   0  0  0  0  0  0  0  0  0  0  0  0
  -24.2300  -10.5700   20.9180 C   0  0  0  0  0  0  0  0  0  0  0  0
  -24.6300   -9.5960   21.8590 C   0  0  0  0  0  3  0  0  0  0  0  0
  -23.8690   -8.4210   22.0400 C   0  0  0  0  0  3  0  0  0  0  0  0
  -22.6950   -8.2120   21.2790 C   0  0  0  0  0  0  0  0  0  0  0  0
  -22.3130   -9.1750   20.3270 C   0  0  0  0  0  3  0  0  0  0  0  0
  -23.0750  -10.3410   20.1440 C   0  0  0  0  0  3  0  0  0  0  0  0
  -21.9060   -7.0910   21.3700 O   0  0  0  0  0  0  0  0  0  0  0  0
  -21.7500   -6.4150   22.5530 C   0  0  0  0  0  0  0  0  0  0  0  0
  -21.2300   -7.0430   23.7060 C   0  0  0  0  0  3  0  0  0  0  0  0
  -21.0210   -6.2940   24.8820 C   0  0  0  0  0  3  0  0  0  0  0  0
  -21.3220   -4.9190   24.9030 C   0  0  0  0  0  0  0  0  0  0  0  0
  -21.8340   -4.2910   23.7550 C   0  0  0  0  0  3  0  0  0  0  0  0
  -22.0450   -5.0370   22.5820 C   0  0  0  0  0  0  0  0  0  0  0  0
  -22.5200   -4.4240   21.4710 F   0  0  0  0  0  0  0  0  0  0  0  0
  -21.1140   -4.1970   26.0300 F   0  0  0  0  0  0  0  0  0  0  0  0
  -23.2360  -13.6980   21.1980 C   0  0  0  0  0  0  0  0  0  0  0  0
  -22.5380  -13.0070   22.0930 N   0  0  0  0  0  0  0  0  0  0  0  0
  -22.8050  -14.7520   20.7320 O   0  0  0  0  0  0  0  0  0  0  0  0
  -22.8990  -12.1520   22.4900 H   0  0  0  0  0  0  0  0  0  0  0  0
  -21.6290  -13.3380   22.3870 H   0  0  0  0  0  0  0  0  0  0  0  0
  -25.8810  -15.2830   20.2710 N   0  0  0  0  0  0  0  0  0  0  0  0
  -25.1580  -15.9710   20.4540 H   0  0  0  0  0  0  0  0  0  0  0  0
  -26.7470  -15.6940   19.9440 H   0  0  0  0  0  0  0  0  0  0  0  0
  -29.1550  -26.4920   21.4180 C   0  0  0  0  0  2  0  0  0  0  0  0
  -28.6760  -26.8700   20.1260 O   0  0  0  0  0  0  0  0  0  0  0  0
  -24.6300  -31.8110   23.2600 C   0  0  0  0  0  0  0  0  0  0  0  0
  -27.5040  -27.5830   20.1350 C   0  0  0  0  0  0  0  0  0  0  0  0
  -23.5090  -30.4110   21.5550 C   0  0  0  0  0  3  0  0  0  0  0  0
  -25.0510  -28.9670   20.1230 C   0  0  0  0  0  0  0  0  0  0  0  0
  -26.0170  -30.8790   21.4190 C   0  0  0  0  0  2  0  0  0  0  0  0
  -26.1700  -29.5290   20.7540 C   0  0  0  0  0  0  0  0  0  0  0  0
  -27.4000  -28.8410   20.7640 C   0  0  0  0  0  3  0  0  0  0  0  0
  -26.3810  -27.0330   19.4870 C   0  0  0  0  0  3  0  0  0  0  0  0
  -25.1490  -27.7170   19.4860 C   0  0  0  0  0  3  0  0  0  0  0  0
  -23.7710  -29.7710   20.1630 C   0  0  0  0  0  2  0  0  0  0  0  0
  -24.7350  -31.0470   22.1380 N   0  0  0  0  0  0  0  0  0  0  0  0
  -23.5300  -32.0290   23.7850 O   0  0  0  0  0  0  0  0  0  0  0  0
  -22.8770  -29.3400   22.4740 C   0  0  0  0  0  0  0  0  0  0  0  0
  -21.5660  -29.1100   22.3060 N   0  0  0  0  0  0  0  0  0  0  0  0
  -23.5670  -28.7220   23.2890 O   0  0  0  0  0  0  0  0  0  0  0  0
  -21.0730  -29.6610   21.6170 H   0  0  0  0  0  0  0  0  0  0  0  0
  -18.2320  -27.7680   22.6670 C   0  0  0  0  0  0  0  0  0  0  0  0
  -20.7670  -28.1240   23.0320 C   0  0  0  0  0  3  0  0  0  0  0  0
  -20.9490  -26.7110   22.4310 C   0  0  0  0  0  2  0  0  0  0  0  0
  -19.8950  -26.3650   21.3740 C   0  0  0  0  0  2  0  0  0  0  0  0
  -18.4870  -26.4400   21.9730 C   0  0  0  0  0  2  0  0  0  0  0  0
  -19.3040  -28.5650   23.1490 C   0  0  0  0  0  0  0  0  0  0  0  0
  -19.0150  -29.8060   23.7560 C   0  0  0  0  0  3  0  0  0  0  0  0
  -17.6860  -30.2530   23.8870 C   0  0  0  0  0  3  0  0  0  0  0  0
  -16.6280  -29.4530   23.4230 C   0  0  0  0  0  3  0  0  0  0  0  0
  -16.9020  -28.2120   22.8200 C   0  0  0  0  0  3  0  0  0  0  0  0
  -25.8820  -32.4690   23.9230 C   0  0  0  0  0  3  0  0  0  0  0  0
  -26.3790  -31.7010   25.2080 C   0  0  1  0  0  0  0  0  0  0  0  0
  -25.2580  -31.4220   26.2370 C   0  0  0  0  0  1  0  0  0  0  0  0
  -27.0150  -30.3450   24.8210 C   0  0  0  0  0  1  0  0  0  0  0  0
  -27.4850  -32.5230   25.9140 C   0  0  0  0  0  1  0  0  0  0  0  0
  -25.5300  -33.8570   24.2470 N   0  0  0  0  0  0  0  0  0  0  0  0
  -25.8470  -34.9160   23.4890 C   0  0  0  0  0  0  0  0  0  0  0  0
  -26.5380  -34.8280   22.4690 O   0  0  0  0  0  0  0  0  0  0  0  0
  -24.9180  -33.9960   25.0370 H   0  0  0  0  0  0  0  0  0  0  0  0
  -24.0720  -36.6530   23.1070 C   0  0  0  0  0  1  0  0  0  0  0  0
  -25.3150  -36.2910   23.9340 C   0  0  0  0  0  3  0  0  0  0  0  0
  -27.4110  -37.2450   24.7870 C   0  0  0  0  0  1  0  0  0  0  0  0
  -26.3170  -37.3730   23.8260 N   0  0  0  0  0  0  0  0  0  0  0  0
  -25.8810  -38.2820   23.9630 H   0  0  0  0  0  0  0  0  0  0  0  0
  1  5  1  0
  3  1  2  0
  3  6  1  0
  4  2  1  0
  5  7  1  0
  5  2  2  0
  6  4  2  0
  8  7  1  0
  9 22  1  0
 10 15  1  0
 11 12  1  0
 11 10  1  0
 13 12  1  0
 13 26  1  0
 13 14  1  0
 15  9  1  0
 15 14  1  0
 16  9  2  0
 17 21  1  0
 19 17  1  0
 19 22  1  0
 20 18  1  0
 21  8  1  0
 21 18  1  0
 22 20  1  0
 23 24  2  0
 24 43  1  0
 25 24  1  0
 25 28  1  0
 26 27  1  0
 26 23  1  0
 27 25  2  0
 28 29  1  0
 29 30  2  0
 31 34  1  0
 31 30  1  0
 32 31  2  0
 33 32  1  0
 33 28  2  0
 34 35  1  0
 35 40  2  0
 35 36  1  0
 36 37  2  0
 37 38  1  0
 38 42  1  0
 39 38  2  0
 40 39  1  0
 41 40  1  0
 43 44  1  0
 44 47  1  0
 44 46  1  0
 45 43  2  0
 48 23  1  0
 48 49  1  0
 50 48  1  0
 51  6  1  0
 52 54  1  0
 52 51  1  0
 53 64  2  0
 54 59  1  0
 55 63  1  0
 55 65  1  0
 56 62  1  0
 56 58  1  0
 57 63  1  0
 58 59  2  0
 58 57  1  0
 60 54  2  0
 61 60  1  0
 61 56  2  0
 62 55  1  0
 63 53  1  0
 65 67  2  0
 66 65  1  0
 68 66  1  0
 69 78  2  0
 69 74  1  0
 70 66  1  0
 70 74  1  0
 71 70  1  0
 72 73  1  0
 72 71  1  0
 73 69  1  0
 74 75  2  0
 75 76  1  0
 77 76  2  0
 78 77  1  0
 79 53  1  0
 79 84  1  0
 79 80  1  0
 80 83  1  1
 80 81  1  0
 82 80  1  0
 84 87  1  0
 85 89  1  0
 85 84  1  0
 86 85  2  0
 89 88  1  0
 91 89  1  0
 91 92  1  0
 91 90  1  0
M  ISO  4   9 100  22 100  51 101  52 101
M  END
>  <TORSDO>  (84) 
F 19

>  <SCORE>  (84) 
-13.862

>  <name>  (84) 
83

>  <ligand_id>  (84) 
83

>  <original_smiles>  (84) 
[H]c1c([H])c([H])c2c(c1[H])C([H])([H])C([H])([H])C([H])([H])C2([H])N([H])C(=O)C1([H])N(C(=O)C([H])(N([H])C(=O)C([H])(N([H])C([H])([H])[H])C([H])([H])[H])C(C([H])([H])[H])(C([H])([H])[H])C([H])([H])[H])C([H])([H])c2c([H])c(OC([H])([H])c3c([H])c([H])c(C([H])([H])C([H])([H])C4([H])C([H])([H])C([H])([H])N(C(=O)N5C([H])([H])C([H])([H])C([H])([H])C([H])(n6nc(-c7c([H])c([H])c(Oc8c([H])c([H])c(F)c([H])c8F)c([H])c7[H])c(C(=O)N([H])[H])c6N([H])[H])C5([H])[H])C([H])([H])C4([H])[H])c([H])c3[H])c([H])c([H])c2C1([H])[H]

>  <smiles>  (84) 
[H]c1c([H])c([H])c2c(c1[H])C([H])([H])C([H])([H])C([H])([H])C2([H])N([H])C(=O)C1([H])N(C(=O)C([H])(N([H])C(=O)C([H])(N([H])C([H])([H])[H])C([H])([H])[H])C(C([H])([H])[H])(C([H])([H])[H])C([H])([H])[H])C([H])([H])c2c([H])c(OC([H])([H])c3c([H])c([H])c(C([H])([H])C([H])([H])C4([H])C([H])([H])C([H])([H])N(C(=O)N5C([H])([H])C([H])([H])C([H])([H])C([H])(n6nc(-c7c([H])c([H])c(Oc8c([H])c([H])c(F)c([H])c8F)c([H])c7[H])c(C(=O)N([H])[H])c6N([H])[H])C5([H])[H])C([H])([H])C4([H])[H])c([H])c3[H])c([H])c([H])c2C1([H])[H]

$$$$
84:0:0
     RDKit          3D

 93101  0  0  1  0  0  0  0  0999 V2000
  -28.5380  -22.8380   21.7810 C   0  0  0  0  0  3  0  0  0  0  0  0
  -28.3800  -22.6850   20.3920 C   0  0  0  0  0  0  0  0  0  0  0  0
  -28.5900  -24.1070   22.3960 C   0  0  0  0  0  0  0  0  0  0  0  0
  -28.2260  -23.8990   19.6120 C   0  0  0  0  0  0  0  0  0  0  0  0
  -28.4690  -25.2830   21.6160 C   0  0  0  0  0  0  0  0  0  0  0  0
  -28.2570  -25.2170   20.2170 C   0  0  0  0  0  0  0  0  0  0  0  0
  -28.0130  -23.7860   18.1140 C   0  0  0  0  0  1  0  0  0  0  0  0
  -28.5790  -26.5050   22.2170 O   0  0  0  0  0  0  0  0  0  0  0  0
  -28.4520  -27.2000   21.5810 H   0  0  0  0  0  0  0  0  0  0  0  0
  -30.1510  -23.6570   24.3520 C   0  0  0  0  0  1  0  0  0  0  0  0
  -28.7710  -24.1610   23.9090 C   0  0  0  0  0  2  0  0  0  0  0  0
  -28.1690  -26.4300   19.4890 O   0  0  0  0  0  0  0  0  0  0  0  0
  -24.6480  -31.6660   23.0040 C   0  0  0  0  0  0  0  0  0  0  0  0
  -27.0510  -27.2640   19.5960 C   0  0  0  0  0  0  0  0  0  0  0  0
  -23.3350  -30.3300   21.3900 C   0  0  0  0  0  3  0  0  0  0  0  0
  -24.6870  -28.8470   19.8050 C   0  0  0  0  0  0  0  0  0  0  0  0
  -25.8530  -30.6750   21.0470 C   0  0  0  0  0  2  0  0  0  0  0  0
  -25.8910  -29.3240   20.3420 C   0  0  0  0  0  0  0  0  0  0  0  0
  -27.0780  -28.5450   20.2250 C   0  0  0  0  0  3  0  0  0  0  0  0
  -25.8300  -26.8280   19.0470 C   0  0  0  0  0  3  0  0  0  0  0  0
  -24.6580  -27.6050   19.1460 C   0  0  0  0  0  3  0  0  0  0  0  0
  -23.4540  -29.7100   19.9720 C   0  0  0  0  0  2  0  0  0  0  0  0
  -24.6340  -30.9050   21.8690 N   0  0  0  0  0  0  0  0  0  0  0  0
  -23.6040  -31.9170   23.6220 O   0  0  0  0  0  0  0  0  0  0  0  0
  -22.7390  -29.2750   22.3500 C   0  0  0  0  0  0  0  0  0  0  0  0
  -21.4190  -29.0480   22.2550 N   0  0  0  0  0  0  0  0  0  0  0  0
  -23.4630  -28.6620   23.1400 O   0  0  0  0  0  0  0  0  0  0  0  0
  -20.8930  -29.5930   21.5870 H   0  0  0  0  0  0  0  0  0  0  0  0
  -18.1200  -27.6500   22.7530 C   0  0  0  0  0  0  0  0  0  0  0  0
  -20.6570  -28.0680   23.0300 C   0  0  0  0  0  3  0  0  0  0  0  0
  -20.8490  -26.6420   22.4660 C   0  0  0  0  0  2  0  0  0  0  0  0
  -19.7730  -26.2460   21.4500 C   0  0  0  0  0  2  0  0  0  0  0  0
  -18.3820  -26.3100   22.0880 C   0  0  0  0  0  2  0  0  0  0  0  0
  -19.1880  -28.4830   23.1810 C   0  0  0  0  0  0  0  0  0  0  0  0
  -18.8870  -29.7350   23.7600 C   0  0  0  0  0  3  0  0  0  0  0  0
  -17.5530  -30.1560   23.9160 C   0  0  0  0  0  3  0  0  0  0  0  0
  -16.5010  -29.3200   23.5050 C   0  0  0  0  0  3  0  0  0  0  0  0
  -16.7850  -28.0700   22.9280 C   0  0  0  0  0  3  0  0  0  0  0  0
  -25.9710  -32.2720   23.5650 C   0  0  0  0  0  3  0  0  0  0  0  0
  -25.6700  -33.6310   24.0390 N   0  0  0  0  0  0  0  0  0  0  0  0
  -25.9300  -34.7500   23.3530 C   0  0  0  0  0  0  0  0  0  0  0  0
  -26.5210  -34.7490   22.2690 O   0  0  0  0  0  0  0  0  0  0  0  0
  -25.1320  -33.7030   24.8900 H   0  0  0  0  0  0  0  0  0  0  0  0
  -24.1520  -36.5280   23.2930 C   0  0  0  0  0  1  0  0  0  0  0  0
  -25.4610  -36.0840   23.9650 C   0  0  0  0  0  3  0  0  0  0  0  0
  -27.6430  -36.9410   24.6970 C   0  0  0  0  0  1  0  0  0  0  0  0
  -26.4660  -37.1650   23.8610 N   0  0  0  0  0  0  0  0  0  0  0  0
  -26.0600  -38.0600   24.1180 H   0  0  0  0  0  0  0  0  0  0  0  0
  -26.6090  -31.4090   24.7220 C   0  0  1  0  0  0  0  0  0  0  0  0
  -25.6160  -31.0680   25.8590 C   0  0  0  0  0  1  0  0  0  0  0  0
  -27.1680  -30.0780   24.1700 C   0  0  0  0  0  1  0  0  0  0  0  0
  -27.8060  -32.1670   25.3420 C   0  0  0  0  0  1  0  0  0  0  0  0
  -28.2470  -21.2060   19.8530 C   0  0  0  0  0  2  0  0  0  0  0  0
  -29.3570  -20.1020   20.1880 C   0  0  0  0  0  3  0  0  0  0  0  0
  -28.9250  -18.5630   20.1720 C   0  0  0  0  0  3  0  0  0  0  0  0
  -30.0300  -17.4060   20.1690 C   0  0  0  0  0  2  0  0  0  0  0  0
  -29.5390  -15.9190   20.4960 C   0  0  0  0  0  2  0  0  0  0  0  0
  -30.3800  -14.6470   20.0460 C   0  0  0  0  0  0  0  0  0  0  0  0
  -30.1470  -12.4290   18.9360 C   0  0  0  0  0  2  0  0  0  0  0  0
  -29.1320  -12.5840   17.7810 C   0  0  0  0  0  2  0  0  0  0  0  0
  -27.6880  -12.3830   18.2870 C   0  0  0  0  0  2  0  0  0  0  0  0
  -27.3880  -13.2090   19.5640 C   0  0  0  0  0  3  0  0  0  0  0  0
  -28.5120  -13.0550   20.6110 C   0  0  0  0  0  2  0  0  0  0  0  0
  -29.7870  -13.4120   19.9760 N   0  0  0  0  0  0  0  0  0  0  0  0
  -31.5220  -14.8150   19.6090 O   0  0  0  0  0  0  0  0  0  0  0  0
  -25.0360  -13.7670   20.4380 C   0  0  0  0  0  0  0  0  0  0  0  0
  -24.0030  -12.9730   20.8580 C   0  0  0  0  0  0  0  0  0  0  0  0
  -24.4820  -11.6290   20.7790 C   0  0  0  0  0  0  0  0  0  0  0  0
  -26.0750  -12.9040   20.1240 N   0  0  0  0  0  0  0  0  0  0  0  0
  -25.7520  -11.6130   20.3910 N   0  0  0  0  0  0  0  0  0  0  0  0
  -23.7860  -10.3540   20.9890 C   0  0  0  0  0  0  0  0  0  0  0  0
  -24.2720   -9.3880   21.8990 C   0  0  0  0  0  3  0  0  0  0  0  0
  -23.5720   -8.1780   22.0970 C   0  0  0  0  0  3  0  0  0  0  0  0
  -22.3760   -7.9240   21.3870 C   0  0  0  0  0  0  0  0  0  0  0  0
  -21.9080   -8.8790   20.4680 C   0  0  0  0  0  3  0  0  0  0  0  0
  -22.6070  -10.0820   20.2670 C   0  0  0  0  0  3  0  0  0  0  0  0
  -21.6450   -6.7660   21.4960 O   0  0  0  0  0  0  0  0  0  0  0  0
  -21.6480   -6.0200   22.6470 C   0  0  0  0  0  0  0  0  0  0  0  0
  -21.2410   -6.5580   23.8870 C   0  0  0  0  0  3  0  0  0  0  0  0
  -21.1940   -5.7370   25.0300 C   0  0  0  0  0  3  0  0  0  0  0  0
  -21.5410   -4.3760   24.9360 C   0  0  0  0  0  0  0  0  0  0  0  0
  -21.9400   -3.8350   23.7010 C   0  0  0  0  0  3  0  0  0  0  0  0
  -21.9900   -4.6550   22.5590 C   0  0  0  0  0  0  0  0  0  0  0  0
  -22.3560   -4.1240   21.3680 F   0  0  0  0  0  0  0  0  0  0  0  0
  -21.4880   -3.5840   26.0320 F   0  0  0  0  0  0  0  0  0  0  0  0
  -22.6180  -13.4260   21.2170 C   0  0  0  0  0  0  0  0  0  0  0  0
  -21.9530  -12.7120   22.1190 N   0  0  0  0  0  0  0  0  0  0  0  0
  -22.1320  -14.4480   20.7310 O   0  0  0  0  0  0  0  0  0  0  0  0
  -22.3580  -11.8870   22.5340 H   0  0  0  0  0  0  0  0  0  0  0  0
  -21.0270  -12.9990   22.4000 H   0  0  0  0  0  0  0  0  0  0  0  0
  -25.1700  -15.1410   20.2790 N   0  0  0  0  0  0  0  0  0  0  0  0
  -24.4030  -15.7820   20.4580 H   0  0  0  0  0  0  0  0  0  0  0  0
  -25.9980  -15.6040   19.9250 H   0  0  0  0  0  0  0  0  0  0  0  0
  1  3  1  0
  2  1  2  0
  3 11  1  0
  4  6  2  0
  4  2  1  0
  5  8  1  0
  5  3  2  0
  6  5  1  0
  7  4  1  0
  9  8  1  0
 11 10  1  0
 12 14  1  0
 12  6  1  0
 13 24  2  0
 14 19  1  0
 15 23  1  0
 15 25  1  0
 16 22  1  0
 16 18  1  0
 17 23  1  0
 18 17  1  0
 19 18  2  0
 20 21  1  0
 20 14  2  0
 21 16  2  0
 22 15  1  0
 23 13  1  0
 25 27  2  0
 26 25  1  0
 28 26  1  0
 29 38  2  0
 29 34  1  0
 30 26  1  0
 30 34  1  0
 31 30  1  0
 32 33  1  0
 32 31  1  0
 33 29  1  0
 34 35  2  0
 35 36  1  0
 37 36  2  0
 38 37  1  0
 39 13  1  0
 39 40  1  0
 39 49  1  0
 40 43  1  0
 41 45  1  0
 41 40  1  0
 42 41  2  0
 45 44  1  0
 47 45  1  0
 47 48  1  0
 47 46  1  0
 49 52  1  1
 49 50  1  0
 51 49  1  0
 53 54  1  0
 53  2  1  0
 55 54  2  0
 56 55  1  0
 56 57  1  0
 58 57  1  0
 59 64  1  0
 60 61  1  0
 60 59  1  0
 62 61  1  0
 62 69  1  0
 62 63  1  0
 64 58  1  0
 64 63  1  0
 65 58  2  0
 66 67  2  0
 67 86  1  0
 68 67  1  0
 68 71  1  0
 69 70  1  0
 69 66  1  0
 70 68  2  0
 71 72  1  0
 72 73  2  0
 74 77  1  0
 74 73  1  0
 75 74  2  0
 76 75  1  0
 76 71  2  0
 77 78  1  0
 78 79  1  0
 79 80  2  0
 81 80  1  0
 81 85  1  0
 82 81  2  0
 83 78  2  0
 83 82  1  0
 84 83  1  0
 86 87  1  0
 87 90  1  0
 87 89  1  0
 88 86  2  0
 91 66  1  0
 91 92  1  0
 93 91  1  0
M  ISO  4   6 101  12 101  57 100  58 100
M  END
>  <TORSDO>  (85) 
F 23

>  <SCORE>  (85) 
-10.959

>  <name>  (85) 
84

>  <ligand_id>  (85) 
84

>  <original_smiles>  (85) 
[H]Oc1c(Oc2c([H])c([H])c3c(c2[H])C([H])([H])N(C(=O)C([H])(N([H])C(=O)C([H])(N([H])C([H])([H])[H])C([H])([H])[H])C(C([H])([H])[H])(C([H])([H])[H])C([H])([H])[H])C([H])(C(=O)N([H])C2([H])c4c([H])c([H])c([H])c([H])c4C([H])([H])C([H])([H])C2([H])[H])C3([H])[H])c(C([H])([H])[H])c(C([H])([H])C([H])([H])C([H])([H])C([H])([H])C([H])([H])C(=O)N2C([H])([H])C([H])([H])C([H])([H])C([H])(n3nc(-c4c([H])c([H])c(Oc5c([H])c([H])c(F)c([H])c5F)c([H])c4[H])c(C(=O)N([H])[H])c3N([H])[H])C2([H])[H])c([H])c1C([H])([H])C([H])([H])[H]

>  <smiles>  (85) 
[H]Oc1c(Oc2c([H])c([H])c3c(c2[H])C([H])([H])N(C(=O)C([H])(N([H])C(=O)C([H])(N([H])C([H])([H])[H])C([H])([H])[H])C(C([H])([H])[H])(C([H])([H])[H])C([H])([H])[H])C([H])(C(=O)N([H])C2([H])c4c([H])c([H])c([H])c([H])c4C([H])([H])C([H])([H])C2([H])[H])C3([H])[H])c(C([H])([H])[H])c(C([H])([H])C([H])([H])C([H])([H])C([H])([H])C([H])([H])C(=O)N2C([H])([H])C([H])([H])C([H])([H])C([H])(n3nc(-c4c([H])c([H])c(Oc5c([H])c([H])c(F)c([H])c5F)c([H])c4[H])c(C(=O)N([H])[H])c3N([H])[H])C2([H])[H])c([H])c1C([H])([H])C([H])([H])[H]

$$$$
85:0:0
     RDKit          3D

 92100  0  0  1  0  0  0  0  0999 V2000
  -31.2180  -23.9040   21.7380 C   0  0  0  0  0  3  0  0  0  0  0  0
  -30.3490  -24.7670   21.0500 C   0  0  0  0  0  3  0  0  0  0  0  0
  -30.8960  -22.5430   21.9180 C   0  0  0  0  0  0  0  0  0  0  0  0
  -29.1520  -24.2760   20.4990 C   0  0  0  0  0  0  0  0  0  0  0  0
  -28.8520  -22.8820   20.6090 C   0  0  0  0  0  0  0  0  0  0  0  0
  -29.7000  -22.0120   21.3620 C   0  0  0  0  0  0  0  0  0  0  0  0
  -31.8590  -21.6870   22.7290 C   0  0  0  0  0  1  0  0  0  0  0  0
  -27.6010  -22.3190   19.9390 C   0  0  0  0  0  1  0  0  0  0  0  0
  -29.2900  -20.5480   21.6570 C   0  0  0  0  0  2  0  0  0  0  0  0
  -29.9640  -19.4590   20.7860 C   0  0  0  0  0  2  0  0  0  0  0  0
  -29.5250  -18.0080   21.1350 C   0  0  0  0  0  2  0  0  0  0  0  0
  -30.3940  -16.9380   20.4330 C   0  0  0  0  0  2  0  0  0  0  0  0
  -30.6040  -14.4970   20.0850 C   0  0  0  0  0  0  0  0  0  0  0  0
  -30.2310  -12.3570   18.9270 C   0  0  0  0  0  2  0  0  0  0  0  0
  -29.2330  -12.5840   17.7730 C   0  0  0  0  0  2  0  0  0  0  0  0
  -27.7830  -12.4370   18.2730 C   0  0  0  0  0  2  0  0  0  0  0  0
  -27.5090  -13.2480   19.5680 C   0  0  0  0  0  3  0  0  0  0  0  0
  -28.6200  -13.0240   20.6190 C   0  0  0  0  0  2  0  0  0  0  0  0
  -29.9140  -13.3290   19.9870 N   0  0  0  0  0  0  0  0  0  0  0  0
  -31.7040  -14.6660   19.5530 O   0  0  0  0  0  0  0  0  0  0  0  0
  -29.9520  -15.5440   20.6290 N   0  0  0  0  0  0  0  0  0  0  0  0
  -29.0440  -15.3740   21.0350 H   0  0  0  0  0  0  0  0  0  0  0  0
  -25.1390  -13.8260   20.3910 C   0  0  0  0  0  0  0  0  0  0  0  0
  -24.0970  -13.0410   20.8060 C   0  0  0  0  0  0  0  0  0  0  0  0
  -24.5700  -11.6940   20.7480 C   0  0  0  0  0  0  0  0  0  0  0  0
  -26.1820  -12.9570   20.1090 N   0  0  0  0  0  0  0  0  0  0  0  0
  -25.8460  -11.6690   20.3800 N   0  0  0  0  0  0  0  0  0  0  0  0
  -23.8670  -10.4240   20.9670 C   0  0  0  0  0  0  0  0  0  0  0  0
  -24.3380   -9.4680   21.8930 C   0  0  0  0  0  3  0  0  0  0  0  0
  -23.6340   -8.2620   22.0990 C   0  0  0  0  0  3  0  0  0  0  0  0
  -22.4440   -8.0030   21.3790 C   0  0  0  0  0  0  0  0  0  0  0  0
  -21.9920   -8.9470   20.4410 C   0  0  0  0  0  3  0  0  0  0  0  0
  -22.6960  -10.1440   20.2330 C   0  0  0  0  0  3  0  0  0  0  0  0
  -21.7080   -6.8490   21.4950 O   0  0  0  0  0  0  0  0  0  0  0  0
  -21.6860   -6.1230   22.6600 C   0  0  0  0  0  0  0  0  0  0  0  0
  -21.2710   -6.6930   23.8840 C   0  0  0  0  0  3  0  0  0  0  0  0
  -21.1970   -5.8940   25.0430 C   0  0  0  0  0  3  0  0  0  0  0  0
  -21.5250   -4.5260   24.9780 C   0  0  0  0  0  0  0  0  0  0  0  0
  -21.9310   -3.9570   23.7580 C   0  0  0  0  0  3  0  0  0  0  0  0
  -22.0090   -4.7520   22.6020 C   0  0  0  0  0  0  0  0  0  0  0  0
  -22.3790   -4.1940   21.4250 F   0  0  0  0  0  0  0  0  0  0  0  0
  -21.4450   -3.7560   26.0880 F   0  0  0  0  0  0  0  0  0  0  0  0
  -22.7100  -13.5030   21.1460 C   0  0  0  0  0  0  0  0  0  0  0  0
  -22.0330  -12.7970   22.0450 N   0  0  0  0  0  0  0  0  0  0  0  0
  -22.2360  -14.5230   20.6500 O   0  0  0  0  0  0  0  0  0  0  0  0
  -22.4290  -11.9710   22.4690 H   0  0  0  0  0  0  0  0  0  0  0  0
  -21.1030  -13.0860   22.3140 H   0  0  0  0  0  0  0  0  0  0  0  0
  -25.2810  -15.1980   20.2100 N   0  0  0  0  0  0  0  0  0  0  0  0
  -24.5140  -15.8450   20.3590 H   0  0  0  0  0  0  0  0  0  0  0  0
  -26.1100  -15.6480   19.8410 H   0  0  0  0  0  0  0  0  0  0  0  0
  -28.1770  -25.2490   19.8190 C   0  0  0  0  0  2  0  0  0  0  0  0
  -28.3680  -26.6630   20.0710 O   0  0  0  0  0  0  0  0  0  0  0  0
  -24.6220  -31.8510   23.2180 C   0  0  0  0  0  0  0  0  0  0  0  0
  -27.2230  -27.4470   20.0240 C   0  0  0  0  0  0  0  0  0  0  0  0
  -23.4030  -30.4930   21.5510 C   0  0  0  0  0  3  0  0  0  0  0  0
  -24.8430  -28.9930   20.0770 C   0  0  0  0  0  0  0  0  0  0  0  0
  -25.9330  -30.8390   21.3520 C   0  0  0  0  0  2  0  0  0  0  0  0
  -26.0090  -29.4850   20.6760 C   0  0  0  0  0  0  0  0  0  0  0  0
  -27.2020  -28.7200   20.6470 C   0  0  0  0  0  3  0  0  0  0  0  0
  -26.0380  -26.9970   19.3910 C   0  0  0  0  0  3  0  0  0  0  0  0
  -24.8540  -27.7500   19.4290 C   0  0  0  0  0  3  0  0  0  0  0  0
  -23.6030  -29.8540   20.1540 C   0  0  0  0  0  2  0  0  0  0  0  0
  -24.6720  -31.0750   22.0980 N   0  0  0  0  0  0  0  0  0  0  0  0
  -23.5440  -32.1140   23.7690 O   0  0  0  0  0  0  0  0  0  0  0  0
  -22.7530  -29.4490   22.4890 C   0  0  0  0  0  0  0  0  0  0  0  0
  -21.4270  -29.2760   22.3660 N   0  0  0  0  0  0  0  0  0  0  0  0
  -23.4390  -28.8000   23.2830 O   0  0  0  0  0  0  0  0  0  0  0  0
  -20.9350  -29.8520   21.6980 H   0  0  0  0  0  0  0  0  0  0  0  0
  -18.0490  -28.0880   22.8590 C   0  0  0  0  0  0  0  0  0  0  0  0
  -20.6110  -28.3240   23.1200 C   0  0  0  0  0  3  0  0  0  0  0  0
  -20.7010  -26.9070   22.5080 C   0  0  0  0  0  2  0  0  0  0  0  0
  -19.5910  -26.6160   21.4940 C   0  0  0  0  0  2  0  0  0  0  0  0
  -18.2140  -26.7540   22.1510 C   0  0  0  0  0  2  0  0  0  0  0  0
  -19.1750  -28.8320   23.3000 C   0  0  0  0  0  0  0  0  0  0  0  0
  -18.9690  -30.0830   23.9220 C   0  0  0  0  0  3  0  0  0  0  0  0
  -17.6680  -30.5890   24.1080 C   0  0  0  0  0  3  0  0  0  0  0  0
  -16.5570  -29.8400   23.6840 C   0  0  0  0  0  3  0  0  0  0  0  0
  -16.7480  -28.5920   23.0650 C   0  0  0  0  0  3  0  0  0  0  0  0
  -25.9130  -32.4640   23.8440 C   0  0  0  0  0  3  0  0  0  0  0  0
  -25.6130  -33.8570   24.2000 N   0  0  0  0  0  0  0  0  0  0  0  0
  -25.9390  -34.9200   23.4530 C   0  0  0  0  0  0  0  0  0  0  0  0
  -26.5970  -34.8320   22.4130 O   0  0  0  0  0  0  0  0  0  0  0  0
  -25.0300  -34.0010   25.0120 H   0  0  0  0  0  0  0  0  0  0  0  0
  -24.2060  -36.7170   23.1520 C   0  0  0  0  0  1  0  0  0  0  0  0
  -25.4590  -36.3020   23.9370 C   0  0  0  0  0  3  0  0  0  0  0  0
  -27.6070  -37.1740   24.7460 C   0  0  0  0  0  1  0  0  0  0  0  0
  -26.4910  -37.3570   23.8220 N   0  0  0  0  0  0  0  0  0  0  0  0
  -26.0870  -38.2740   23.9900 H   0  0  0  0  0  0  0  0  0  0  0  0
  -26.4330  -31.6660   25.1020 C   0  0  1  0  0  0  0  0  0  0  0  0
  -25.3440  -31.4120   26.1710 C   0  0  0  0  0  1  0  0  0  0  0  0
  -27.0070  -30.2940   24.6780 C   0  0  0  0  0  1  0  0  0  0  0  0
  -27.5900  -32.4420   25.7740 C   0  0  0  0  0  1  0  0  0  0  0  0
  1  3  1  0
  2  1  2  0
  3  7  1  0
  4  5  2  0
  4  2  1  0
  5  6  1  0
  6  9  1  0
  6  3  2  0
  8  5  1  0
 10 11  1  0
 10  9  1  0
 12 21  1  0
 12 11  1  0
 13 21  1  0
 14 19  1  0
 15 16  1  0
 15 14  1  0
 17 16  1  0
 17 26  1  0
 17 18  1  0
 19 13  1  0
 19 18  1  0
 20 13  2  0
 21 22  1  0
 23 24  2  0
 24 43  1  0
 25 24  1  0
 25 28  1  0
 26 27  1  0
 26 23  1  0
 27 25  2  0
 28 29  1  0
 29 30  2  0
 31 34  1  0
 31 30  1  0
 32 31  2  0
 33 32  1  0
 33 28  2  0
 34 35  1  0
 35 36  1  0
 36 37  2  0
 38 37  1  0
 38 42  1  0
 39 38  2  0
 40 35  2  0
 40 39  1  0
 41 40  1  0
 43 44  1  0
 44 47  1  0
 44 46  1  0
 45 43  2  0
 48 49  1  0
 48 23  1  0
 50 48  1  0
 51 52  1  0
 51  4  1  0
 53 64  2  0
 54 52  1  0
 54 59  1  0
 55 63  1  0
 55 65  1  0
 56 62  1  0
 56 58  1  0
 57 63  1  0
 58 57  1  0
 59 58  2  0
 60 61  1  0
 60 54  2  0
 61 56  2  0
 62 55  1  0
 63 53  1  0
 65 67  2  0
 66 65  1  0
 68 66  1  0
 69 78  2  0
 69 74  1  0
 70 66  1  0
 70 74  1  0
 71 70  1  0
 72 73  1  0
 72 71  1  0
 73 69  1  0
 74 75  2  0
 75 76  1  0
 77 76  2  0
 78 77  1  0
 79 53  1  0
 79 80  1  0
 79 89  1  0
 80 83  1  0
 81 85  1  0
 81 80  1  0
 82 81  2  0
 85 84  1  0
 87 85  1  0
 87 88  1  0
 87 86  1  0
 89 92  1  1
 89 90  1  0
 91 89  1  0
M  ISO  4  13 100  21 100  51 101  52 101
M  END
>  <TORSDO>  (86) 
F 21

>  <SCORE>  (86) 
-12.348

>  <name>  (86) 
85

>  <ligand_id>  (86) 
85

>  <original_smiles>  (86) 
[H]c1c([H])c([H])c2c(c1[H])C([H])([H])C([H])([H])C([H])([H])C2([H])N([H])C(=O)C1([H])N(C(=O)C([H])(N([H])C(=O)C([H])(N([H])C([H])([H])[H])C([H])([H])[H])C(C([H])([H])[H])(C([H])([H])[H])C([H])([H])[H])C([H])([H])c2c([H])c(OC([H])([H])c3c([H])c([H])c(C([H])([H])[H])c(C([H])([H])C([H])([H])C([H])([H])C([H])([H])N([H])C(=O)N4C([H])([H])C([H])([H])C([H])([H])C([H])(n5nc(-c6c([H])c([H])c(Oc7c([H])c([H])c(F)c([H])c7F)c([H])c6[H])c(C(=O)N([H])[H])c5N([H])[H])C4([H])[H])c3C([H])([H])[H])c([H])c([H])c2C1([H])[H]

>  <smiles>  (86) 
[H]c1c([H])c([H])c2c(c1[H])C([H])([H])C([H])([H])C([H])([H])C2([H])N([H])C(=O)C1([H])N(C(=O)C([H])(N([H])C(=O)C([H])(N([H])C([H])([H])[H])C([H])([H])[H])C(C([H])([H])[H])(C([H])([H])[H])C([H])([H])[H])C([H])([H])c2c([H])c(OC([H])([H])c3c([H])c([H])c(C([H])([H])[H])c(C([H])([H])C([H])([H])C([H])([H])C([H])([H])N([H])C(=O)N4C([H])([H])C([H])([H])C([H])([H])C([H])(n5nc(-c6c([H])c([H])c(Oc7c([H])c([H])c(F)c([H])c7F)c([H])c6[H])c(C(=O)N([H])[H])c5N([H])[H])C4([H])[H])c3C([H])([H])[H])c([H])c([H])c2C1([H])[H]

$$$$
86:0:0
     RDKit          3D

 93101  0  0  1  0  0  0  0  0999 V2000
  -28.3720  -22.3960   21.0570 C   0  0  0  0  0  0  0  0  0  0  0  0
  -29.3180  -23.2820   20.7160 N   0  0  0  0  0  0  0  0  0  0  0  0
  -27.1690  -22.6410   20.9650 O   0  0  0  0  0  0  0  0  0  0  0  0
  -30.2840  -23.0080   20.8330 H   0  0  0  0  0  0  0  0  0  0  0  0
  -28.8380  -21.0090   21.5150 C   0  0  0  0  0  2  0  0  0  0  0  0
  -28.8680  -20.0610   20.3020 C   0  0  0  0  0  2  0  0  0  0  0  0
  -28.7880  -16.2700   20.4350 C   0  0  0  0  0  3  0  0  0  0  0  0
  -28.3960  -17.6110   20.5530 C   0  0  0  0  0  3  0  0  0  0  0  0
  -30.1460  -15.8880   20.3390 C   0  0  0  0  0  0  0  0  0  0  0  0
  -29.3550  -18.6330   20.5520 C   0  0  0  0  0  0  0  0  0  0  0  0
  -31.1130  -16.9100   20.6240 C   0  0  0  0  0  0  0  0  0  0  0  0
  -30.7250  -18.2840   20.6650 C   0  0  0  0  0  0  0  0  0  0  0  0
  -32.5910  -16.5720   20.8380 C   0  0  0  0  0  1  0  0  0  0  0  0
  -31.7920  -19.3720   20.7710 C   0  0  0  0  0  1  0  0  0  0  0  0
  -30.5700  -14.5800   19.6500 C   0  0  0  0  0  0  0  0  0  0  0  0
  -30.0600  -12.4590   18.4960 C   0  0  0  0  0  2  0  0  0  0  0  0
  -28.9920  -12.6920   17.4070 C   0  0  0  0  0  2  0  0  0  0  0  0
  -27.5860  -12.4920   18.0000 C   0  0  0  0  0  2  0  0  0  0  0  0
  -27.3880  -13.3020   19.3030 C   0  0  0  0  0  3  0  0  0  0  0  0
  -28.5760  -13.1040   20.2870 C   0  0  0  0  0  2  0  0  0  0  0  0
  -29.8220  -13.4350   19.5840 N   0  0  0  0  0  0  0  0  0  0  0  0
  -31.6100  -14.6570   18.9920 O   0  0  0  0  0  0  0  0  0  0  0  0
  -25.0990  -13.8890   20.3280 C   0  0  0  0  0  0  0  0  0  0  0  0
  -24.0900  -13.0980   20.8070 C   0  0  0  0  0  0  0  0  0  0  0  0
  -24.5490  -11.7510   20.6800 C   0  0  0  0  0  0  0  0  0  0  0  0
  -26.1090  -13.0180   19.9400 N   0  0  0  0  0  0  0  0  0  0  0  0
  -25.7900  -11.7280   20.2150 N   0  0  0  0  0  0  0  0  0  0  0  0
  -23.8580  -10.4790   20.9170 C   0  0  0  0  0  0  0  0  0  0  0  0
  -24.3650   -9.5200   21.8210 C   0  0  0  0  0  3  0  0  0  0  0  0
  -23.6720   -8.3100   22.0430 C   0  0  0  0  0  3  0  0  0  0  0  0
  -22.4600   -8.0520   21.3600 C   0  0  0  0  0  0  0  0  0  0  0  0
  -21.9720   -8.9990   20.4420 C   0  0  0  0  0  3  0  0  0  0  0  0
  -22.6660  -10.2000   20.2190 C   0  0  0  0  0  3  0  0  0  0  0  0
  -21.7330   -6.8930   21.4930 O   0  0  0  0  0  0  0  0  0  0  0  0
  -21.7170   -6.1850   22.6680 C   0  0  0  0  0  0  0  0  0  0  0  0
  -21.3020   -6.7700   23.8840 C   0  0  0  0  0  3  0  0  0  0  0  0
  -21.2350   -5.9880   25.0550 C   0  0  0  0  0  3  0  0  0  0  0  0
  -21.5730   -4.6220   25.0100 C   0  0  0  0  0  0  0  0  0  0  0  0
  -21.9820   -4.0380   23.7990 C   0  0  0  0  0  3  0  0  0  0  0  0
  -22.0510   -4.8170   22.6310 C   0  0  0  0  0  0  0  0  0  0  0  0
  -22.4250   -4.2430   21.4610 F   0  0  0  0  0  0  0  0  0  0  0  0
  -21.5000   -3.8690   26.1320 F   0  0  0  0  0  0  0  0  0  0  0  0
  -22.7330  -13.5550   21.2610 C   0  0  0  0  0  0  0  0  0  0  0  0
  -22.1220  -12.8340   22.1950 N   0  0  0  0  0  0  0  0  0  0  0  0
  -22.2260  -14.5870   20.8220 O   0  0  0  0  0  0  0  0  0  0  0  0
  -22.5470  -11.9990   22.5710 H   0  0  0  0  0  0  0  0  0  0  0  0
  -21.2170  -13.1220   22.5370 H   0  0  0  0  0  0  0  0  0  0  0  0
  -25.2300  -15.2650   20.1670 N   0  0  0  0  0  0  0  0  0  0  0  0
  -24.4740  -15.9040   20.3900 H   0  0  0  0  0  0  0  0  0  0  0  0
  -26.0080  -15.7210   19.7100 H   0  0  0  0  0  0  0  0  0  0  0  0
  -29.0820  -24.5460   20.0200 C   0  0  0  0  0  2  0  0  0  0  0  0
  -28.4970  -25.6380   20.9280 C   0  0  0  0  0  2  0  0  0  0  0  0
  -28.5070  -26.8750   20.2170 O   0  0  0  0  0  0  0  0  0  0  0  0
  -24.5500  -31.9330   23.2460 C   0  0  0  0  0  0  0  0  0  0  0  0
  -27.3170  -27.5540   20.2220 C   0  0  0  0  0  0  0  0  0  0  0  0
  -23.3900  -30.5030   21.5930 C   0  0  0  0  0  3  0  0  0  0  0  0
  -24.8890  -28.9840   20.1980 C   0  0  0  0  0  0  0  0  0  0  0  0
  -25.9060  -30.9170   21.4200 C   0  0  0  0  0  2  0  0  0  0  0  0
  -26.0270  -29.5440   20.7950 C   0  0  0  0  0  0  0  0  0  0  0  0
  -27.2450  -28.8350   20.8030 C   0  0  0  0  0  3  0  0  0  0  0  0
  -26.1690  -26.9950   19.6230 C   0  0  0  0  0  3  0  0  0  0  0  0
  -24.9520  -27.7060   19.6120 C   0  0  0  0  0  3  0  0  0  0  0  0
  -23.6270  -29.8170   20.2210 C   0  0  0  0  0  2  0  0  0  0  0  0
  -24.6330  -31.1310   22.1470 N   0  0  0  0  0  0  0  0  0  0  0  0
  -23.4580  -32.1890   23.7720 O   0  0  0  0  0  0  0  0  0  0  0  0
  -22.7450  -29.4750   22.5500 C   0  0  0  0  0  0  0  0  0  0  0  0
  -21.4290  -29.2620   22.3980 N   0  0  0  0  0  0  0  0  0  0  0  0
  -23.4280  -28.8710   23.3800 O   0  0  0  0  0  0  0  0  0  0  0  0
  -20.9400  -29.8030   21.6990 H   0  0  0  0  0  0  0  0  0  0  0  0
  -18.0760  -27.9870   22.8200 C   0  0  0  0  0  0  0  0  0  0  0  0
  -20.6180  -28.3130   23.1590 C   0  0  0  0  0  3  0  0  0  0  0  0
  -20.7730  -26.8790   22.6020 C   0  0  0  0  0  2  0  0  0  0  0  0
  -19.7070  -26.5180   21.5630 C   0  0  0  0  0  2  0  0  0  0  0  0
  -18.3050  -26.6350   22.1670 C   0  0  0  0  0  2  0  0  0  0  0  0
  -19.1630  -28.7830   23.2700 C   0  0  0  0  0  0  0  0  0  0  0  0
  -18.8960  -30.0480   23.8380 C   0  0  0  0  0  3  0  0  0  0  0  0
  -17.5760  -30.5180   23.9600 C   0  0  0  0  0  3  0  0  0  0  0  0
  -16.5020  -29.7200   23.5280 C   0  0  0  0  0  3  0  0  0  0  0  0
  -16.7540  -28.4570   22.9620 C   0  0  0  0  0  3  0  0  0  0  0  0
  -25.8180  -32.5860   23.8810 C   0  0  0  0  0  3  0  0  0  0  0  0
  -25.4840  -33.9800   24.1990 N   0  0  0  0  0  0  0  0  0  0  0  0
  -25.8110  -35.0320   23.4350 C   0  0  0  0  0  0  0  0  0  0  0  0
  -26.4950  -34.9310   22.4120 O   0  0  0  0  0  0  0  0  0  0  0  0
  -24.8740  -34.1320   24.9880 H   0  0  0  0  0  0  0  0  0  0  0  0
  -24.0600  -36.7940   23.0440 C   0  0  0  0  0  1  0  0  0  0  0  0
  -25.2960  -36.4150   23.8750 C   0  0  0  0  0  3  0  0  0  0  0  0
  -27.4070  -37.3370   24.7250 C   0  0  0  0  0  1  0  0  0  0  0  0
  -26.3150  -37.4830   23.7680 N   0  0  0  0  0  0  0  0  0  0  0  0
  -25.8940  -38.3970   23.9040 H   0  0  0  0  0  0  0  0  0  0  0  0
  -26.3330  -31.8270   25.1650 C   0  0  1  0  0  0  0  0  0  0  0  0
  -25.2300  -31.5710   26.2180 C   0  0  0  0  0  1  0  0  0  0  0  0
  -26.9480  -30.4610   24.7800 C   0  0  0  0  0  1  0  0  0  0  0  0
  -27.4610  -32.6420   25.8410 C   0  0  0  0  0  1  0  0  0  0  0  0
  1  5  1  0
  2  4  1  0
  2  1  1  0
  3  1  2  0
  6 10  1  0
  6  5  1  0
  7  8  1  0
  9  7  2  0
  9 11  1  0
 10  8  2  0
 10 12  1  0
 11 12  2  0
 11 13  1  0
 12 14  1  0
 15  9  1  0
 16 21  1  0
 17 18  1  0
 17 16  1  0
 19 18  1  0
 19 26  1  0
 19 20  1  0
 21 15  1  0
 21 20  1  0
 22 15  2  0
 23 24  2  0
 24 43  1  0
 25 24  1  0
 25 28  1  0
 26 27  1  0
 26 23  1  0
 27 25  2  0
 28 29  1  0
 29 30  2  0
 31 34  1  0
 31 30  1  0
 32 31  2  0
 33 32  1  0
 33 28  2  0
 34 35  1  0
 35 36  1  0
 36 37  2  0
 38 37  1  0
 38 42  1  0
 39 38  2  0
 40 35  2  0
 40 39  1  0
 41 40  1  0
 43 44  1  0
 44 47  1  0
 44 46  1  0
 45 43  2  0
 48 23  1  0
 48 49  1  0
 50 48  1  0
 51  2  1  0
 51 52  1  0
 53 55  1  0
 53 52  1  0
 54 65  2  0
 55 60  1  0
 56 64  1  0
 56 66  1  0
 57 63  1  0
 57 59  1  0
 58 64  1  0
 59 60  2  0
 59 58  1  0
 61 55  2  0
 62 61  1  0
 62 57  2  0
 63 56  1  0
 64 54  1  0
 66 68  2  0
 67 66  1  0
 69 67  1  0
 70 79  2  0
 70 75  1  0
 71 67  1  0
 71 75  1  0
 72 71  1  0
 73 74  1  0
 73 72  1  0
 74 70  1  0
 75 76  2  0
 76 77  1  0
 78 77  2  0
 79 78  1  0
 80 54  1  0
 80 81  1  0
 80 90  1  0
 81 84  1  0
 82 86  1  0
 82 81  1  0
 83 82  2  0
 86 85  1  0
 88 86  1  0
 88 89  1  0
 88 87  1  0
 90 93  1  1
 90 91  1  0
 92 90  1  0
M  ISO  4   9 100  15 100  52 101  53 101
M  END
>  <TORSDO>  (87) 
F 21

>  <SCORE>  (87) 
-12.494

>  <name>  (87) 
86

>  <ligand_id>  (87) 
86

>  <original_smiles>  (87) 
[H]c1c([H])c([H])c2c(c1[H])C([H])([H])C([H])([H])C([H])([H])C2([H])N([H])C(=O)C1([H])N(C(=O)C([H])(N([H])C(=O)C([H])(N([H])C([H])([H])[H])C([H])([H])[H])C(C([H])([H])[H])(C([H])([H])[H])C([H])([H])[H])C([H])([H])c2c([H])c(OC([H])([H])C([H])([H])N([H])C(=O)C([H])([H])C([H])([H])c3c([H])c([H])c(C(=O)N4C([H])([H])C([H])([H])C([H])([H])C([H])(n5nc(-c6c([H])c([H])c(Oc7c([H])c([H])c(F)c([H])c7F)c([H])c6[H])c(C(=O)N([H])[H])c5N([H])[H])C4([H])[H])c(C([H])([H])[H])c3C([H])([H])[H])c([H])c([H])c2C1([H])[H]

>  <smiles>  (87) 
[H]c1c([H])c([H])c2c(c1[H])C([H])([H])C([H])([H])C([H])([H])C2([H])N([H])C(=O)C1([H])N(C(=O)C([H])(N([H])C(=O)C([H])(N([H])C([H])([H])[H])C([H])([H])[H])C(C([H])([H])[H])(C([H])([H])[H])C([H])([H])[H])C([H])([H])c2c([H])c(OC([H])([H])C([H])([H])N([H])C(=O)C([H])([H])C([H])([H])c3c([H])c([H])c(C(=O)N4C([H])([H])C([H])([H])C([H])([H])C([H])(n5nc(-c6c([H])c([H])c(Oc7c([H])c([H])c(F)c([H])c7F)c([H])c6[H])c(C(=O)N([H])[H])c5N([H])[H])C4([H])[H])c(C([H])([H])[H])c3C([H])([H])[H])c([H])c([H])c2C1([H])[H]

$$$$
87:0:0
     RDKit          3D

 90 98  0  0  1  0  0  0  0  0999 V2000
  -29.9180  -18.4800   21.9300 C   0  0  0  0  0  3  0  0  0  0  0  0
  -29.5490  -19.6810   21.2810 C   0  0  0  0  0  3  0  0  0  0  0  0
  -29.8290  -17.0200   19.8920 C   0  0  0  0  0  0  0  0  0  0  0  0
  -30.0680  -17.2180   21.2910 C   0  0  0  0  0  0  0  0  0  0  0  0
  -29.2720  -19.7580   19.9020 C   0  0  0  0  0  0  0  0  0  0  0  0
  -29.4180  -18.3640   19.2380 C   0  0  0  0  0  0  0  0  0  0  0  0
  -30.2900  -15.5160   19.2710 C   0  0  0  0  0  0  0  0  0  0  0  0
  -30.1270  -13.0520   18.4670 C   0  0  0  0  0  2  0  0  0  0  0  0
  -29.0390  -12.8310   17.3800 C   0  0  0  0  0  2  0  0  0  0  0  0
  -27.6910  -12.5230   18.0480 C   0  0  0  0  0  2  0  0  0  0  0  0
  -27.3940  -13.5150   19.1970 C   0  0  0  0  0  3  0  0  0  0  0  0
  -28.5910  -13.7210   20.1580 C   0  0  0  0  0  2  0  0  0  0  0  0
  -29.7260  -14.2090   19.3640 N   0  0  0  0  0  0  0  0  0  0  0  0
  -31.3810  -15.4870   18.6790 O   0  0  0  0  0  0  0  0  0  0  0  0
  -25.2230  -14.0710   20.4060 C   0  0  0  0  0  0  0  0  0  0  0  0
  -24.2090  -13.2950   20.8890 C   0  0  0  0  0  0  0  0  0  0  0  0
  -24.6050  -11.9390   20.6710 C   0  0  0  0  0  0  0  0  0  0  0  0
  -26.1660  -13.1920   19.9080 N   0  0  0  0  0  0  0  0  0  0  0  0
  -25.8220  -11.8970   20.1370 N   0  0  0  0  0  0  0  0  0  0  0  0
  -23.8730  -10.6840   20.8830 C   0  0  0  0  0  0  0  0  0  0  0  0
  -24.3480   -9.6990   21.7730 C   0  0  0  0  0  3  0  0  0  0  0  0
  -23.6170   -8.5110   21.9860 C   0  0  0  0  0  3  0  0  0  0  0  0
  -22.3940   -8.2990   21.3060 C   0  0  0  0  0  0  0  0  0  0  0  0
  -21.9350   -9.2740   20.4070 C   0  0  0  0  0  3  0  0  0  0  0  0
  -22.6650  -10.4560   20.1950 C   0  0  0  0  0  3  0  0  0  0  0  0
  -21.6320   -7.1600   21.4270 O   0  0  0  0  0  0  0  0  0  0  0  0
  -21.5590   -6.4660   22.6060 C   0  0  0  0  0  0  0  0  0  0  0  0
  -21.0730   -7.0610   23.7930 C   0  0  0  0  0  3  0  0  0  0  0  0
  -20.9440   -6.2910   24.9650 C   0  0  0  0  0  3  0  0  0  0  0  0
  -21.2940   -4.9260   24.9530 C   0  0  0  0  0  0  0  0  0  0  0  0
  -21.7780   -4.3330   23.7740 C   0  0  0  0  0  3  0  0  0  0  0  0
  -21.9070   -5.1000   22.6040 C   0  0  0  0  0  0  0  0  0  0  0  0
  -22.3480   -4.5190   21.4620 F   0  0  0  0  0  0  0  0  0  0  0  0
  -21.1660   -4.1830   26.0750 F   0  0  0  0  0  0  0  0  0  0  0  0
  -22.9000  -13.7820   21.4360 C   0  0  0  0  0  0  0  0  0  0  0  0
  -22.3090  -13.0290   22.3540 N   0  0  0  0  0  0  0  0  0  0  0  0
  -22.4190  -14.8570   21.0850 O   0  0  0  0  0  0  0  0  0  0  0  0
  -22.7240  -12.1590   22.6560 H   0  0  0  0  0  0  0  0  0  0  0  0
  -21.4340  -13.3280   22.7620 H   0  0  0  0  0  0  0  0  0  0  0  0
  -25.4090  -15.4490   20.3170 N   0  0  0  0  0  0  0  0  0  0  0  0
  -24.7050  -16.1060   20.6370 H   0  0  0  0  0  0  0  0  0  0  0  0
  -26.2250  -15.8990   19.9230 H   0  0  0  0  0  0  0  0  0  0  0  0
  -32.1230  -15.9110   22.0430 C   0  0  0  0  0  1  0  0  0  0  0  0
  -30.6010  -16.0900   22.1800 C   0  0  0  0  0  2  0  0  0  0  0  0
  -30.2650  -18.4590   16.8150 C   0  0  0  0  0  1  0  0  0  0  0  0
  -29.0590  -18.2940   17.7530 C   0  0  0  0  0  2  0  0  0  0  0  0
  -28.7600  -21.3320   19.3360 C   0  0  0  0  0  2  0  0  0  0  0  0
  -28.8740  -23.0070   19.9910 C   0  0  0  0  0  3  0  0  0  0  0  0
  -28.0480  -24.5650   19.6000 C   0  0  0  0  0  3  0  0  0  0  0  0
  -28.2170  -26.1400   20.0480 O   0  0  0  0  0  0  0  0  0  0  0  0
  -24.6460  -31.9260   23.2630 C   0  0  0  0  0  0  0  0  0  0  0  0
  -27.1990  -27.2250   20.0070 C   0  0  0  0  0  0  0  0  0  0  0  0
  -23.4350  -30.5820   21.5940 C   0  0  0  0  0  3  0  0  0  0  0  0
  -24.8740  -29.0600   20.0690 C   0  0  0  0  0  0  0  0  0  0  0  0
  -25.9920  -30.8360   21.4020 C   0  0  0  0  0  2  0  0  0  0  0  0
  -26.0670  -29.4590   20.6880 C   0  0  0  0  0  0  0  0  0  0  0  0
  -27.2180  -28.5600   20.6380 C   0  0  0  0  0  3  0  0  0  0  0  0
  -25.9830  -26.9770   19.3350 C   0  0  0  0  0  3  0  0  0  0  0  0
  -24.8540  -27.8380   19.3760 C   0  0  0  0  0  3  0  0  0  0  0  0
  -23.6410  -29.9600   20.1860 C   0  0  0  0  0  2  0  0  0  0  0  0
  -24.7140  -31.1410   22.1370 N   0  0  0  0  0  0  0  0  0  0  0  0
  -23.5690  -32.1770   23.8220 O   0  0  0  0  0  0  0  0  0  0  0  0
  -22.7770  -29.5330   22.5310 C   0  0  0  0  0  0  0  0  0  0  0  0
  -21.4680  -29.2750   22.3500 N   0  0  0  0  0  0  0  0  0  0  0  0
  -23.4500  -28.9500   23.3840 O   0  0  0  0  0  0  0  0  0  0  0  0
  -20.9710  -29.8000   21.6420 H   0  0  0  0  0  0  0  0  0  0  0  0
  -18.1810  -27.7800   22.6800 C   0  0  0  0  0  0  0  0  0  0  0  0
  -20.6870  -28.2800   23.0890 C   0  0  0  0  0  3  0  0  0  0  0  0
  -20.9490  -26.8560   22.5480 C   0  0  0  0  0  2  0  0  0  0  0  0
  -19.9430  -26.4200   21.4740 C   0  0  0  0  0  2  0  0  0  0  0  0
  -18.5170  -26.4460   22.0330 C   0  0  0  0  0  2  0  0  0  0  0  0
  -19.1980  -28.6460   23.1630 C   0  0  0  0  0  0  0  0  0  0  0  0
  -18.8320  -29.8860   23.7310 C   0  0  0  0  0  3  0  0  0  0  0  0
  -17.4800  -30.2710   23.8070 C   0  0  0  0  0  3  0  0  0  0  0  0
  -16.4760  -29.4050   23.3420 C   0  0  0  0  0  3  0  0  0  0  0  0
  -16.8260  -28.1600   22.7890 C   0  0  0  0  0  3  0  0  0  0  0  0
  -25.9260  -32.5510   23.8940 C   0  0  0  0  0  3  0  0  0  0  0  0
  -25.6210  -33.9520   24.2350 N   0  0  0  0  0  0  0  0  0  0  0  0
  -25.9250  -35.0120   23.4760 C   0  0  0  0  0  0  0  0  0  0  0  0
  -26.5620  -34.9130   22.4240 O   0  0  0  0  0  0  0  0  0  0  0  0
  -25.0510  -34.0990   25.0540 H   0  0  0  0  0  0  0  0  0  0  0  0
  -24.1750  -36.7980   23.2100 C   0  0  0  0  0  1  0  0  0  0  0  0
  -25.4570  -36.4000   23.9560 C   0  0  0  0  0  3  0  0  0  0  0  0
  -27.6150  -37.3080   24.6950 C   0  0  0  0  0  1  0  0  0  0  0  0
  -26.4780  -37.4590   23.7900 N   0  0  0  0  0  0  0  0  0  0  0  0
  -26.0730  -38.3820   23.9360 H   0  0  0  0  0  0  0  0  0  0  0  0
  -26.4210  -31.7820   25.1810 C   0  0  1  0  0  0  0  0  0  0  0  0
  -25.2990  -31.5230   26.2150 C   0  0  0  0  0  1  0  0  0  0  0  0
  -27.0420  -30.4190   24.8000 C   0  0  0  0  0  1  0  0  0  0  0  0
  -27.5450  -32.5910   25.8730 C   0  0  0  0  0  1  0  0  0  0  0  0
  2  1  2  0
  3  4  2  0
  4  1  1  0
  4 44  1  0
  5  2  1  0
  6  3  1  0
  6  5  2  0
  7 13  1  0
  7  3  1  0
  8 13  1  0
  9 10  1  0
  9  8  1  0
 11 10  1  0
 11 18  1  0
 11 12  1  0
 13 12  1  0
 14  7  2  0
 15 16  2  0
 16 35  1  0
 17 20  1  0
 17 16  1  0
 18 19  1  0
 18 15  1  0
 19 17  2  0
 20 21  1  0
 21 22  2  0
 23 26  1  0
 23 22  1  0
 24 23  2  0
 25 24  1  0
 25 20  2  0
 26 27  1  0
 27 28  1  0
 28 29  2  0
 30 29  1  0
 30 34  1  0
 31 30  2  0
 32 27  2  0
 32 31  1  0
 33 32  1  0
 35 36  1  0
 36 38  1  0
 36 39  1  0
 37 35  2  0
 40 15  1  0
 40 41  1  0
 42 40  1  0
 43 44  1  0
 45 46  1  0
 46  6  1  0
 47  5  1  0
 47 48  1  0
 49 48  2  0
 49 50  1  0
 51 62  2  0
 52 50  1  0
 52 57  1  0
 53 61  1  0
 53 63  1  0
 54 60  1  0
 54 56  1  0
 55 61  1  0
 56 55  1  0
 57 56  2  0
 58 59  1  0
 58 52  2  0
 59 54  2  0
 60 53  1  0
 61 51  1  0
 63 65  2  0
 64 63  1  0
 66 64  1  0
 67 76  2  0
 67 72  1  0
 68 64  1  0
 68 72  1  0
 69 68  1  0
 70 71  1  0
 70 69  1  0
 71 67  1  0
 72 73  2  0
 73 74  1  0
 75 74  2  0
 76 75  1  0
 77 51  1  0
 77 78  1  0
 77 87  1  0
 78 81  1  0
 79 83  1  0
 79 78  1  0
 80 79  2  0
 83 82  1  0
 85 86  1  0
 85 83  1  0
 85 84  1  0
 87 90  1  1
 87 88  1  0
 89 87  1  0
M  ISO  4   3 100   7 100  49 101  50 101
M  END
>  <TORSDO>  (88) 
F 21

>  <SCORE>  (88) 
-10.972

>  <name>  (88) 
87

>  <ligand_id>  (88) 
87

>  <original_smiles>  (88) 
[H]c1c([H])c([H])c2c(c1[H])C([H])([H])C([H])([H])C([H])([H])C2([H])N([H])C(=O)C1([H])N(C(=O)C([H])(N([H])C(=O)C([H])(N([H])C([H])([H])[H])C([H])([H])[H])C(C([H])([H])[H])(C([H])([H])[H])C([H])([H])[H])C([H])([H])c2c([H])c(OC([H])([H])C([H])([H])C([H])([H])c3c([H])c([H])c(C([H])([H])C([H])([H])[H])c(C(=O)N4C([H])([H])C([H])([H])C([H])([H])C([H])(n5nc(-c6c([H])c([H])c(Oc7c([H])c([H])c(F)c([H])c7F)c([H])c6[H])c(C(=O)N([H])[H])c5N([H])[H])C4([H])[H])c3C([H])([H])C([H])([H])[H])c([H])c([H])c2C1([H])[H]

>  <smiles>  (88) 
[H]c1c([H])c([H])c2c(c1[H])C([H])([H])C([H])([H])C([H])([H])C2([H])N([H])C(=O)C1([H])N(C(=O)C([H])(N([H])C(=O)C([H])(N([H])C([H])([H])[H])C([H])([H])[H])C(C([H])([H])[H])(C([H])([H])[H])C([H])([H])[H])C([H])([H])c2c([H])c(OC([H])([H])C([H])([H])C([H])([H])c3c([H])c([H])c(C([H])([H])C([H])([H])[H])c(C(=O)N4C([H])([H])C([H])([H])C([H])([H])C([H])(n5nc(-c6c([H])c([H])c(Oc7c([H])c([H])c(F)c([H])c7F)c([H])c6[H])c(C(=O)N([H])[H])c5N([H])[H])C4([H])[H])c3C([H])([H])C([H])([H])[H])c([H])c([H])c2C1([H])[H]

$$$$
88:0:0
     RDKit          3D

 90 98  0  0  1  0  0  0  0  0999 V2000
  -29.0390  -19.5130   19.0650 C   0  0  0  0  0  3  0  0  0  0  0  0
  -30.3350  -18.7120   21.3340 C   0  0  0  0  0  3  0  0  0  0  0  0
  -29.2760  -20.5800   20.0000 C   0  0  0  0  0  0  0  0  0  0  0  0
  -29.3950  -18.1140   19.2480 C   0  0  0  0  0  0  0  0  0  0  0  0
  -29.9720  -20.1060   21.1520 C   0  0  0  0  0  0  0  0  0  0  0  0
  -30.0530  -17.6220   20.4280 C   0  0  0  0  0  0  0  0  0  0  0  0
  -28.9860  -17.1370   18.1620 C   0  0  0  0  0  1  0  0  0  0  0  0
  -30.3040  -21.0920   22.2550 C   0  0  0  0  0  1  0  0  0  0  0  0
  -30.9130  -15.0690   20.1320 C   0  0  0  0  0  0  0  0  0  0  0  0
  -30.7530  -12.7490   19.1210 C   0  0  0  0  0  2  0  0  0  0  0  0
  -29.7690  -12.7270   17.9300 C   0  0  0  0  0  2  0  0  0  0  0  0
  -28.3270  -12.4900   18.4140 C   0  0  0  0  0  2  0  0  0  0  0  0
  -27.9610  -13.3810   19.6280 C   0  0  0  0  0  3  0  0  0  0  0  0
  -29.0590  -13.3680   20.7060 C   0  0  0  0  0  2  0  0  0  0  0  0
  -30.3170  -13.8080   20.0770 N   0  0  0  0  0  0  0  0  0  0  0  0
  -32.0100  -15.2100   19.5810 O   0  0  0  0  0  0  0  0  0  0  0  0
  -30.3890  -15.9430   22.2720 C   0  0  0  0  0  1  0  0  0  0  0  0
  -30.3050  -16.1530   20.8150 N   0  0  0  0  0  0  0  0  0  0  0  0
  -25.6230  -13.9110   20.5240 C   0  0  0  0  0  0  0  0  0  0  0  0
  -24.5850  -13.1110   20.9180 C   0  0  0  0  0  0  0  0  0  0  0  0
  -25.0550  -11.7670   20.8000 C   0  0  0  0  0  0  0  0  0  0  0  0
  -26.6530  -13.0520   20.1830 N   0  0  0  0  0  0  0  0  0  0  0  0
  -26.3260  -11.7550   20.4130 N   0  0  0  0  0  0  0  0  0  0  0  0
  -24.3490  -10.4920   20.9720 C   0  0  0  0  0  0  0  0  0  0  0  0
  -24.7700   -9.5370   21.9260 C   0  0  0  0  0  3  0  0  0  0  0  0
  -24.0620   -8.3270   22.0850 C   0  0  0  0  0  3  0  0  0  0  0  0
  -22.9190   -8.0620   21.2940 C   0  0  0  0  0  0  0  0  0  0  0  0
  -22.5190   -9.0050   20.3310 C   0  0  0  0  0  3  0  0  0  0  0  0
  -23.2270  -10.2070   20.1690 C   0  0  0  0  0  3  0  0  0  0  0  0
  -22.1840   -6.9030   21.3640 O   0  0  0  0  0  0  0  0  0  0  0  0
  -22.0000   -6.2380   22.5500 C   0  0  0  0  0  0  0  0  0  0  0  0
  -21.3900   -6.8550   23.6640 C   0  0  0  0  0  3  0  0  0  0  0  0
  -21.1560   -6.1120   24.8400 C   0  0  0  0  0  3  0  0  0  0  0  0
  -21.5240   -4.7550   24.9000 C   0  0  0  0  0  0  0  0  0  0  0  0
  -22.1260   -4.1370   23.7900 C   0  0  0  0  0  3  0  0  0  0  0  0
  -22.3600   -4.8770   22.6170 C   0  0  0  0  0  0  0  0  0  0  0  0
  -22.9220   -4.2720   21.5430 F   0  0  0  0  0  0  0  0  0  0  0  0
  -21.2930   -4.0380   26.0260 F   0  0  0  0  0  0  0  0  0  0  0  0
  -23.2020  -13.5630   21.2880 C   0  0  0  0  0  0  0  0  0  0  0  0
  -22.5350  -12.8330   22.1740 N   0  0  0  0  0  0  0  0  0  0  0  0
  -22.7230  -14.5990   20.8270 O   0  0  0  0  0  0  0  0  0  0  0  0
  -22.9370  -11.9970   22.5730 H   0  0  0  0  0  0  0  0  0  0  0  0
  -21.6110  -13.1190   22.4640 H   0  0  0  0  0  0  0  0  0  0  0  0
  -25.7690  -15.2900   20.4050 N   0  0  0  0  0  0  0  0  0  0  0  0
  -25.0140  -15.9350   20.6140 H   0  0  0  0  0  0  0  0  0  0  0  0
  -26.6110  -15.7550   20.0880 H   0  0  0  0  0  0  0  0  0  0  0  0
  -28.5900  -22.0580   19.7930 C   0  0  0  0  0  2  0  0  0  0  0  0
  -29.1160  -23.5840   20.1870 C   0  0  0  0  0  3  0  0  0  0  0  0
  -28.1390  -24.9010   19.9000 C   0  0  0  0  0  3  0  0  0  0  0  0
  -28.4090  -26.3890   20.1910 O   0  0  0  0  0  0  0  0  0  0  0  0
  -24.7560  -31.9190   23.3310 C   0  0  0  0  0  0  0  0  0  0  0  0
  -27.3380  -27.3420   20.1490 C   0  0  0  0  0  0  0  0  0  0  0  0
  -23.5470  -30.5550   21.6720 C   0  0  0  0  0  3  0  0  0  0  0  0
  -24.9910  -29.0400   20.1900 C   0  0  0  0  0  0  0  0  0  0  0  0
  -26.0960  -30.8580   21.4830 C   0  0  0  0  0  2  0  0  0  0  0  0
  -26.1730  -29.4880   20.7940 C   0  0  0  0  0  0  0  0  0  0  0  0
  -27.3480  -28.6560   20.7580 C   0  0  0  0  0  3  0  0  0  0  0  0
  -26.1300  -26.9890   19.5060 C   0  0  0  0  0  3  0  0  0  0  0  0
  -24.9800  -27.8030   19.5320 C   0  0  0  0  0  3  0  0  0  0  0  0
  -23.7550  -29.9200   20.2730 C   0  0  0  0  0  2  0  0  0  0  0  0
  -24.8190  -31.1290   22.2170 N   0  0  0  0  0  0  0  0  0  0  0  0
  -23.6730  -32.1800   23.8790 O   0  0  0  0  0  0  0  0  0  0  0  0
  -22.8910  -29.5150   22.6130 C   0  0  0  0  0  0  0  0  0  0  0  0
  -21.5680  -29.3170   22.4780 N   0  0  0  0  0  0  0  0  0  0  0  0
  -23.5740  -28.8900   23.4290 O   0  0  0  0  0  0  0  0  0  0  0  0
  -21.0730  -29.8730   21.7930 H   0  0  0  0  0  0  0  0  0  0  0  0
  -18.2140  -28.0310   22.9340 C   0  0  0  0  0  0  0  0  0  0  0  0
  -20.7630  -28.3510   23.2310 C   0  0  0  0  0  3  0  0  0  0  0  0
  -20.9060  -26.9280   22.6420 C   0  0  0  0  0  2  0  0  0  0  0  0
  -19.8210  -26.5880   21.6140 C   0  0  0  0  0  2  0  0  0  0  0  0
  -18.4300  -26.6940   22.2450 C   0  0  0  0  0  2  0  0  0  0  0  0
  -19.3100  -28.8160   23.3830 C   0  0  0  0  0  0  0  0  0  0  0  0
  -19.0530  -30.0660   23.9870 C   0  0  0  0  0  3  0  0  0  0  0  0
  -17.7340  -30.5320   24.1460 C   0  0  0  0  0  3  0  0  0  0  0  0
  -16.6530  -29.7450   23.7140 C   0  0  0  0  0  3  0  0  0  0  0  0
  -16.8940  -28.4960   23.1120 C   0  0  0  0  0  3  0  0  0  0  0  0
  -26.0370  -32.5490   23.9580 C   0  0  0  0  0  3  0  0  0  0  0  0
  -26.5380  -31.7820   25.2440 C   0  0  1  0  0  0  0  0  0  0  0  0
  -25.4350  -31.5570   26.3040 C   0  0  0  0  0  1  0  0  0  0  0  0
  -27.1140  -30.3980   24.8680 C   0  0  0  0  0  1  0  0  0  0  0  0
  -27.6890  -32.5720   25.9080 C   0  0  0  0  0  1  0  0  0  0  0  0
  -25.7320  -33.9510   24.2840 N   0  0  0  0  0  0  0  0  0  0  0  0
  -26.0430  -34.9990   23.5100 C   0  0  0  0  0  0  0  0  0  0  0  0
  -26.6850  -34.8880   22.4610 O   0  0  0  0  0  0  0  0  0  0  0  0
  -25.1590  -34.1110   25.0990 H   0  0  0  0  0  0  0  0  0  0  0  0
  -24.2920  -36.7820   23.2100 C   0  0  0  0  0  1  0  0  0  0  0  0
  -25.5700  -36.3920   23.9710 C   0  0  0  0  0  3  0  0  0  0  0  0
  -27.7320  -37.3010   24.7000 C   0  0  0  0  0  1  0  0  0  0  0  0
  -26.5910  -37.4490   23.7990 N   0  0  0  0  0  0  0  0  0  0  0  0
  -26.1880  -38.3690   23.9480 H   0  0  0  0  0  0  0  0  0  0  0  0
  1  4  2  0
  1  3  1  0
  3  5  2  0
  4  6  1  0
  5  2  1  0
  5  8  1  0
  6 18  1  0
  6  2  2  0
  7  4  1  0
  9 18  1  0
 10 15  1  0
 11 12  1  0
 11 10  1  0
 13 12  1  0
 13 22  1  0
 13 14  1  0
 15  9  1  0
 15 14  1  0
 16  9  2  0
 18 17  1  0
 19 20  2  0
 20 39  1  0
 21 20  1  0
 21 24  1  0
 22 23  1  0
 22 19  1  0
 23 21  2  0
 24 25  1  0
 25 26  2  0
 27 30  1  0
 27 26  1  0
 28 27  2  0
 29 28  1  0
 29 24  2  0
 30 31  1  0
 31 36  2  0
 31 32  1  0
 32 33  2  0
 33 34  1  0
 34 38  1  0
 35 34  2  0
 36 35  1  0
 37 36  1  0
 39 40  1  0
 40 43  1  0
 40 42  1  0
 41 39  2  0
 44 19  1  0
 44 45  1  0
 46 44  1  0
 47  3  1  0
 47 48  1  0
 49 48  2  0
 49 50  1  0
 51 62  2  0
 52 50  1  0
 52 57  1  0
 53 61  1  0
 53 63  1  0
 54 60  1  0
 54 56  1  0
 55 61  1  0
 56 55  1  0
 57 56  2  0
 58 59  1  0
 58 52  2  0
 59 54  2  0
 60 53  1  0
 61 51  1  0
 63 65  2  0
 64 63  1  0
 66 64  1  0
 67 76  2  0
 67 72  1  0
 68 64  1  0
 68 72  1  0
 69 68  1  0
 70 71  1  0
 70 69  1  0
 71 67  1  0
 72 73  2  0
 73 74  1  0
 75 74  2  0
 76 75  1  0
 77 51  1  0
 77 82  1  0
 77 78  1  0
 78 81  1  1
 78 79  1  0
 80 78  1  0
 82 85  1  0
 83 87  1  0
 83 82  1  0
 84 83  2  0
 87 86  1  0
 89 90  1  0
 89 87  1  0
 89 88  1  0
M  ISO  4   9 100  18 100  49 101  50 101
M  END
>  <TORSDO>  (89) 
F 19

>  <SCORE>  (89) 
-13.151

>  <name>  (89) 
88

>  <ligand_id>  (89) 
88

>  <original_smiles>  (89) 
[H]c1c([H])c([H])c2c(c1[H])C([H])([H])C([H])([H])C([H])([H])C2([H])N([H])C(=O)C1([H])N(C(=O)C([H])(N([H])C(=O)C([H])(N([H])C([H])([H])[H])C([H])([H])[H])C(C([H])([H])[H])(C([H])([H])[H])C([H])([H])[H])C([H])([H])c2c([H])c(OC([H])([H])C([H])([H])C([H])([H])c3c([H])c(C([H])([H])[H])c(N(C(=O)N4C([H])([H])C([H])([H])C([H])([H])C([H])(n5nc(-c6c([H])c([H])c(Oc7c([H])c([H])c(F)c([H])c7F)c([H])c6[H])c(C(=O)N([H])[H])c5N([H])[H])C4([H])[H])C([H])([H])[H])c([H])c3C([H])([H])[H])c([H])c([H])c2C1([H])[H]

>  <smiles>  (89) 
[H]c1c([H])c([H])c2c(c1[H])C([H])([H])C([H])([H])C([H])([H])C2([H])N([H])C(=O)C1([H])N(C(=O)C([H])(N([H])C(=O)C([H])(N([H])C([H])([H])[H])C([H])([H])[H])C(C([H])([H])[H])(C([H])([H])[H])C([H])([H])[H])C([H])([H])c2c([H])c(OC([H])([H])C([H])([H])C([H])([H])c3c([H])c(C([H])([H])[H])c(N(C(=O)N4C([H])([H])C([H])([H])C([H])([H])C([H])(n5nc(-c6c([H])c([H])c(Oc7c([H])c([H])c(F)c([H])c7F)c([H])c6[H])c(C(=O)N([H])[H])c5N([H])[H])C4([H])[H])C([H])([H])[H])c([H])c3C([H])([H])[H])c([H])c([H])c2C1([H])[H]

$$$$
89:0:0
     RDKit          3D

 89 97  0  0  1  0  0  0  0  0999 V2000
  -28.5190  -22.1870   21.3970 C   0  0  0  0  0  3  0  0  0  0  0  0
  -28.4430  -23.6130   19.0780 C   0  0  0  0  0  3  0  0  0  0  0  0
  -28.7320  -21.2790   20.2750 C   0  0  0  0  0  0  0  0  0  0  0  0
  -28.2980  -23.6600   21.3760 C   0  0  0  0  0  0  0  0  0  0  0  0
  -28.6630  -22.1390   19.0970 C   0  0  0  0  0  0  0  0  0  0  0  0
  -28.2150  -24.5170   20.2000 C   0  0  0  0  0  0  0  0  0  0  0  0
  -28.1520  -24.3580   22.7140 C   0  0  0  0  0  1  0  0  0  0  0  0
  -28.8050  -21.4510   17.7520 C   0  0  0  0  0  1  0  0  0  0  0  0
  -28.2000  -26.0460   20.1670 O   0  0  0  0  0  0  0  0  0  0  0  0
  -24.6330  -31.9170   23.2350 C   0  0  0  0  0  0  0  0  0  0  0  0
  -27.1330  -27.0700   20.1760 C   0  0  0  0  0  0  0  0  0  0  0  0
  -23.4080  -30.5290   21.6090 C   0  0  0  0  0  3  0  0  0  0  0  0
  -24.8290  -28.9210   20.1670 C   0  0  0  0  0  0  0  0  0  0  0  0
  -25.9690  -30.7410   21.4250 C   0  0  0  0  0  2  0  0  0  0  0  0
  -26.0230  -29.3340   20.7710 C   0  0  0  0  0  0  0  0  0  0  0  0
  -27.1680  -28.4280   20.7530 C   0  0  0  0  0  3  0  0  0  0  0  0
  -25.9110  -26.7930   19.5290 C   0  0  0  0  0  3  0  0  0  0  0  0
  -24.7940  -27.6690   19.5280 C   0  0  0  0  0  3  0  0  0  0  0  0
  -23.6130  -29.8440   20.2300 C   0  0  0  0  0  2  0  0  0  0  0  0
  -24.6920  -31.0890   22.1430 N   0  0  0  0  0  0  0  0  0  0  0  0
  -23.5530  -32.2100   23.7730 O   0  0  0  0  0  0  0  0  0  0  0  0
  -22.7270  -29.5340   22.5840 C   0  0  0  0  0  0  0  0  0  0  0  0
  -21.3980  -29.3550   22.4580 N   0  0  0  0  0  0  0  0  0  0  0  0
  -23.3980  -28.9210   23.4180 O   0  0  0  0  0  0  0  0  0  0  0  0
  -20.9100  -29.8980   21.7610 H   0  0  0  0  0  0  0  0  0  0  0  0
  -18.0310  -28.1020   22.9570 C   0  0  0  0  0  0  0  0  0  0  0  0
  -20.5840  -28.4150   23.2360 C   0  0  0  0  0  3  0  0  0  0  0  0
  -20.7140  -26.9770   22.6830 C   0  0  0  0  0  2  0  0  0  0  0  0
  -19.6250  -26.6220   21.6660 C   0  0  0  0  0  2  0  0  0  0  0  0
  -18.2370  -26.7500   22.2970 C   0  0  0  0  0  2  0  0  0  0  0  0
  -19.1330  -28.8910   23.3830 C   0  0  0  0  0  0  0  0  0  0  0  0
  -18.8860  -30.1540   23.9640 C   0  0  0  0  0  3  0  0  0  0  0  0
  -17.5710  -30.6310   24.1200 C   0  0  0  0  0  3  0  0  0  0  0  0
  -16.4830  -29.8410   23.7070 C   0  0  0  0  0  3  0  0  0  0  0  0
  -16.7150  -28.5780   23.1320 C   0  0  0  0  0  3  0  0  0  0  0  0
  -25.9170  -32.5510   23.8520 C   0  0  0  0  0  3  0  0  0  0  0  0
  -25.6100  -33.9510   24.1960 N   0  0  0  0  0  0  0  0  0  0  0  0
  -25.9180  -35.0120   23.4390 C   0  0  0  0  0  0  0  0  0  0  0  0
  -26.5530  -34.9170   22.3860 O   0  0  0  0  0  0  0  0  0  0  0  0
  -25.0400  -34.0980   25.0160 H   0  0  0  0  0  0  0  0  0  0  0  0
  -24.1750  -36.8110   23.1700 C   0  0  0  0  0  1  0  0  0  0  0  0
  -25.4490  -36.4000   23.9240 C   0  0  0  0  0  3  0  0  0  0  0  0
  -27.6120  -37.2910   24.6750 C   0  0  0  0  0  1  0  0  0  0  0  0
  -26.4760  -37.4550   23.7730 N   0  0  0  0  0  0  0  0  0  0  0  0
  -26.0740  -38.3750   23.9340 H   0  0  0  0  0  0  0  0  0  0  0  0
  -26.4360  -31.7800   25.1280 C   0  0  1  0  0  0  0  0  0  0  0  0
  -25.3490  -31.5500   26.2040 C   0  0  0  0  0  1  0  0  0  0  0  0
  -27.0110  -30.3980   24.7420 C   0  0  0  0  0  1  0  0  0  0  0  0
  -27.5950  -32.5700   25.7810 C   0  0  0  0  0  1  0  0  0  0  0  0
  -28.7090  -19.5350   20.3540 C   0  0  0  0  0  3  0  0  0  0  0  0
  -29.8630  -18.1860   20.2480 C   0  0  0  0  0  3  0  0  0  0  0  0
  -30.3730  -15.3040   20.1790 C   0  0  0  0  0  0  0  0  0  0  0  0
  -30.3190  -12.8870   19.2650 C   0  0  0  0  0  2  0  0  0  0  0  0
  -29.3580  -12.7250   18.0620 C   0  0  0  0  0  2  0  0  0  0  0  0
  -27.9210  -12.4550   18.5430 C   0  0  0  0  0  2  0  0  0  0  0  0
  -27.5120  -13.3920   19.7070 C   0  0  0  0  0  3  0  0  0  0  0  0
  -28.5980  -13.5010   20.7990 C   0  0  0  0  0  2  0  0  0  0  0  0
  -29.8090  -14.0040   20.1360 N   0  0  0  0  0  0  0  0  0  0  0  0
  -31.5800  -15.3310   19.9030 O   0  0  0  0  0  0  0  0  0  0  0  0
  -29.5980  -16.5490   20.3300 N   0  0  0  0  0  0  0  0  0  0  0  0
  -28.6280  -16.3400   20.5130 H   0  0  0  0  0  0  0  0  0  0  0  0
  -25.1670  -13.9280   20.5550 C   0  0  0  0  0  0  0  0  0  0  0  0
  -24.1200  -13.1400   20.9430 C   0  0  0  0  0  0  0  0  0  0  0  0
  -24.5890  -11.7930   20.8630 C   0  0  0  0  0  0  0  0  0  0  0  0
  -26.2030  -13.0630   20.2530 N   0  0  0  0  0  0  0  0  0  0  0  0
  -25.8690  -11.7700   20.5070 N   0  0  0  0  0  0  0  0  0  0  0  0
  -23.8710  -10.5240   21.0450 C   0  0  0  0  0  0  0  0  0  0  0  0
  -24.3230   -9.5440   21.9550 C   0  0  0  0  0  3  0  0  0  0  0  0
  -23.6020   -8.3410   22.1290 C   0  0  0  0  0  3  0  0  0  0  0  0
  -22.4160   -8.1130   21.3920 C   0  0  0  0  0  0  0  0  0  0  0  0
  -21.9840   -9.0820   20.4680 C   0  0  0  0  0  3  0  0  0  0  0  0
  -22.7050  -10.2740   20.2930 C   0  0  0  0  0  3  0  0  0  0  0  0
  -21.6660   -6.9640   21.4750 O   0  0  0  0  0  0  0  0  0  0  0  0
  -21.6210   -6.2160   22.6240 C   0  0  0  0  0  0  0  0  0  0  0  0
  -21.1550   -6.7510   23.8450 C   0  0  0  0  0  3  0  0  0  0  0  0
  -21.0610   -5.9270   24.9850 C   0  0  0  0  0  3  0  0  0  0  0  0
  -21.4210   -4.5690   24.9030 C   0  0  0  0  0  0  0  0  0  0  0  0
  -21.8770   -4.0320   23.6870 C   0  0  0  0  0  3  0  0  0  0  0  0
  -21.9740   -4.8540   22.5500 C   0  0  0  0  0  0  0  0  0  0  0  0
  -22.3950   -4.3260   21.3750 F   0  0  0  0  0  0  0  0  0  0  0  0
  -21.3220   -3.7750   25.9950 F   0  0  0  0  0  0  0  0  0  0  0  0
  -22.7320  -13.6060   21.2680 C   0  0  0  0  0  0  0  0  0  0  0  0
  -22.0330  -12.8910   22.1410 N   0  0  0  0  0  0  0  0  0  0  0  0
  -22.2760  -14.6410   20.7820 O   0  0  0  0  0  0  0  0  0  0  0  0
  -22.4150  -12.0540   22.5560 H   0  0  0  0  0  0  0  0  0  0  0  0
  -21.1020  -13.1850   22.4020 H   0  0  0  0  0  0  0  0  0  0  0  0
  -25.3180  -15.3040   20.4020 N   0  0  0  0  0  0  0  0  0  0  0  0
  -24.5470  -15.9460   20.5510 H   0  0  0  0  0  0  0  0  0  0  0  0
  -26.1340  -15.7530   20.0100 H   0  0  0  0  0  0  0  0  0  0  0  0
  2  5  2  0
  2  6  1  0
  3 50  1  0
  3  1  2  0
  4  1  1  0
  4  7  1  0
  5  3  1  0
  6  4  2  0
  8  5  1  0
  9 11  1  0
  9  6  1  0
 10 21  2  0
 11 16  1  0
 12 20  1  0
 12 22  1  0
 13 19  1  0
 13 15  1  0
 14 20  1  0
 15 14  1  0
 16 15  2  0
 17 11  2  0
 18 17  1  0
 18 13  2  0
 19 12  1  0
 20 10  1  0
 22 24  2  0
 23 22  1  0
 25 23  1  0
 26 35  2  0
 26 31  1  0
 27 23  1  0
 27 31  1  0
 28 27  1  0
 29 30  1  0
 29 28  1  0
 30 26  1  0
 31 32  2  0
 32 33  1  0
 34 33  2  0
 35 34  1  0
 36 10  1  0
 36 37  1  0
 36 46  1  0
 37 40  1  0
 38 42  1  0
 38 37  1  0
 39 38  2  0
 42 41  1  0
 44 42  1  0
 44 45  1  0
 44 43  1  0
 46 49  1  1
 46 47  1  0
 48 46  1  0
 51 60  1  0
 51 50  2  0
 52 60  1  0
 53 58  1  0
 54 55  1  0
 54 53  1  0
 56 55  1  0
 56 65  1  0
 56 57  1  0
 58 52  1  0
 58 57  1  0
 59 52  2  0
 60 61  1  0
 62 63  2  0
 63 82  1  0
 64 63  1  0
 64 67  1  0
 65 66  1  0
 65 62  1  0
 66 64  2  0
 67 68  1  0
 68 69  2  0
 70 73  1  0
 70 69  1  0
 71 70  2  0
 72 71  1  0
 72 67  2  0
 73 74  1  0
 74 75  1  0
 75 76  2  0
 77 76  1  0
 77 81  1  0
 78 77  2  0
 79 74  2  0
 79 78  1  0
 80 79  1  0
 82 83  1  0
 83 86  1  0
 83 85  1  0
 84 82  2  0
 87 88  1  0
 87 62  1  0
 89 87  1  0
M  ISO  4   6 101   9 101  52 100  60 100
M  END
>  <TORSDO>  (90) 
F 18

>  <SCORE>  (90) 
-15.499

>  <name>  (90) 
89

>  <ligand_id>  (90) 
89

>  <original_smiles>  (90) 
[H]c1c([H])c([H])c2c(c1[H])C([H])([H])C([H])([H])C([H])([H])C2([H])N([H])C(=O)C1([H])N(C(=O)C([H])(N([H])C(=O)C([H])(N([H])C([H])([H])[H])C([H])([H])[H])C(C([H])([H])[H])(C([H])([H])[H])C([H])([H])[H])C([H])([H])c2c([H])c(Oc3c([H])c(C([H])([H])[H])c(C([H])([H])C([H])([H])N([H])C(=O)N4C([H])([H])C([H])([H])C([H])([H])C([H])(n5nc(-c6c([H])c([H])c(Oc7c([H])c([H])c(F)c([H])c7F)c([H])c6[H])c(C(=O)N([H])[H])c5N([H])[H])C4([H])[H])c([H])c3C([H])([H])[H])c([H])c([H])c2C1([H])[H]

>  <smiles>  (90) 
[H]c1c([H])c([H])c2c(c1[H])C([H])([H])C([H])([H])C([H])([H])C2([H])N([H])C(=O)C1([H])N(C(=O)C([H])(N([H])C(=O)C([H])(N([H])C([H])([H])[H])C([H])([H])[H])C(C([H])([H])[H])(C([H])([H])[H])C([H])([H])[H])C([H])([H])c2c([H])c(Oc3c([H])c(C([H])([H])[H])c(C([H])([H])C([H])([H])N([H])C(=O)N4C([H])([H])C([H])([H])C([H])([H])C([H])(n5nc(-c6c([H])c([H])c(Oc7c([H])c([H])c(F)c([H])c7F)c([H])c6[H])c(C(=O)N([H])[H])c5N([H])[H])C4([H])[H])c([H])c3C([H])([H])[H])c([H])c([H])c2C1([H])[H]

$$$$
90:0:0
     RDKit          3D

 96 99  0  0  1  0  0  0  0  0999 V2000
  -26.3110  -15.8260   18.9740 C   0  0  0  0  0  2  0  0  0  0  0  0
  -26.5790  -13.9220   18.8400 C   0  0  0  0  0  1  0  0  0  0  0  0
  -26.8480  -17.1160   20.1880 C   0  0  0  0  0  2  0  0  0  0  0  0
  -27.6190  -13.0820   20.2880 C   0  0  0  0  0  3  0  0  0  0  0  0
  -27.5010  -16.1160   21.5040 C   0  0  0  0  0  3  0  0  0  0  0  0
  -27.9320  -14.3110   21.7220 C   0  0  0  0  0  0  0  0  0  0  0  0
  -27.0580  -19.4480   19.9740 C   0  0  0  0  0  2  0  0  0  0  0  0
  -27.7600  -19.5180   18.9630 O   0  0  0  0  0  0  0  0  0  0  0  0
  -26.7570  -21.7480   20.4250 C   0  0  0  0  0 15  0  0  0  0  0  0
  -27.2700  -23.9360   20.2760 O   0  0  0  0  0  1  0  0  0  0  0  0
  -24.7580  -31.6930   23.0900 C   0  0  0  0  0  0  0  0  0  0  0  0
  -26.7440  -25.6700   20.2910 C   0  0  0  0  0  0  0  0  0  0  0  0
  -23.5900  -30.2890   21.4720 C   0  0  0  0  0  3  0  0  0  0  0  0
  -24.9480  -28.4410   20.1130 C   0  0  0  0  0  0  0  0  0  0  0  0
  -26.1710  -30.0560   21.5050 C   0  0  0  0  0  2  0  0  0  0  0  0
  -26.1240  -28.5250   20.8540 C   0  0  0  0  0  0  0  0  0  0  0  0
  -26.9970  -27.1910   20.8910 C   0  0  0  0  0  3  0  0  0  0  0  0
  -25.6610  -26.0720   19.4320 C   0  0  0  0  0  3  0  0  0  0  0  0
  -24.8240  -27.2560   19.3640 C   0  0  0  0  0  3  0  0  0  0  0  0
  -23.8570  -29.5560   20.1180 C   0  0  0  0  0  2  0  0  0  0  0  0
  -24.8830  -30.7430   22.0690 N   0  0  0  0  0  0  0  0  0  0  0  0
  -23.6470  -32.0530   23.5320 O   0  0  0  0  0  0  0  0  0  0  0  0
  -22.7940  -29.3810   22.4520 C   0  0  0  0  0  0  0  0  0  0  0  0
  -21.4550  -29.2920   22.3260 N   0  0  0  0  0  0  0  0  0  0  0  0
  -23.4050  -28.7530   23.3190 O   0  0  0  0  0  0  0  0  0  0  0  0
  -20.9980  -29.8470   21.6140 H   0  0  0  0  0  0  0  0  0  0  0  0
  -18.0330  -28.1460   22.8400 C   0  0  0  0  0  0  0  0  0  0  0  0
  -20.5990  -28.3820   23.1040 C   0  0  0  0  0  3  0  0  0  0  0  0
  -20.6770  -26.9430   22.5430 C   0  0  0  0  0  2  0  0  0  0  0  0
  -19.5780  -26.6350   21.5220 C   0  0  0  0  0  2  0  0  0  0  0  0
  -18.1950  -26.7970   22.1590 C   0  0  0  0  0  2  0  0  0  0  0  0
  -19.1610  -28.8980   23.2690 C   0  0  0  0  0  0  0  0  0  0  0  0
  -18.9530  -30.1550   23.8750 C   0  0  0  0  0  3  0  0  0  0  0  0
  -17.6530  -30.6640   24.0540 C   0  0  0  0  0  3  0  0  0  0  0  0
  -16.5410  -29.9120   23.6390 C   0  0  0  0  0  3  0  0  0  0  0  0
  -16.7310  -28.6550   23.0370 C   0  0  0  0  0  3  0  0  0  0  0  0
  -25.9790  -32.3920   23.7660 C   0  0  0  0  0  3  0  0  0  0  0  0
  -26.4730  -31.6370   25.0650 C   0  0  1  0  0  0  0  0  0  0  0  0
  -25.3600  -31.3950   26.1130 C   0  0  0  0  0  1  0  0  0  0  0  0
  -27.0830  -30.2640   24.7250 C   0  0  0  0  0  1  0  0  0  0  0  0
  -27.6020  -32.4470   25.7490 C   0  0  0  0  0  1  0  0  0  0  0  0
  -25.6060  -33.7820   24.1430 N   0  0  0  0  0  0  0  0  0  0  0  0
  -25.9220  -34.9000   23.4720 C   0  0  0  0  0  0  0  0  0  0  0  0
  -26.6010  -34.8750   22.4440 O   0  0  0  0  0  0  0  0  0  0  0  0
  -24.9940  -33.8730   24.9400 H   0  0  0  0  0  0  0  0  0  0  0  0
  -24.1520  -36.6910   23.2670 C   0  0  0  0  0  1  0  0  0  0  0  0
  -25.4200  -36.2580   24.0200 C   0  0  0  0  0  3  0  0  0  0  0  0
  -27.5540  -37.1610   24.8460 C   0  0  0  0  0  1  0  0  0  0  0  0
  -26.4240  -37.3450   23.9400 N   0  0  0  0  0  0  0  0  0  0  0  0
  -25.9980  -38.2450   24.1450 H   0  0  0  0  0  0  0  0  0  0  0  0
  -28.3830  -16.8690   23.9510 C   0  0  0  0  0  1  0  0  0  0  0  0
  -27.9350  -17.1840   22.5260 C   0  0  0  0  0  2  0  0  0  0  0  0
  -28.3180  -13.7890   23.1240 C   0  0  0  0  0  2  0  0  0  0  0  0
  -27.5150  -12.5850   23.6910 C   0  0  0  0  0  2  0  0  0  0  0  0
  -27.9020  -10.6140   25.2750 C   0  0  0  0  0  1  0  0  0  0  0  0
  -27.9590  -12.1430   25.0980 C   0  0  0  0  0  2  0  0  0  0  0  0
  -27.8780  -11.5290   20.4800 C   0  0  0  0  0  2  0  0  0  0  0  0
  -29.2000  -10.8270   21.0590 C   0  0  0  0  0  2  0  0  0  0  0  0
  -30.2590  -11.3610   22.1230 C   0  0  0  0  0  2  0  0  0  0  0  0
  -31.5390  -12.2660   21.8580 C   0  0  0  0  0  2  0  0  0  0  0  0
  -31.3830  -13.4890   20.9400 C   0  0  0  0  0  0  0  0  0  0  0  0
  -30.5800  -12.6070   19.0150 C   0  0  0  0  0  2  0  0  0  0  0  0
  -29.4340  -12.7310   18.0440 C   0  0  0  0  0  2  0  0  0  0  0  0
  -28.8960  -14.1790   18.1230 C   0  0  0  0  0  2  0  0  0  0  0  0
  -28.3840  -15.0350   19.5830 C   0  0  0  0  0  2  0  0  0  0  0  0
  -29.7980  -14.7360   20.1710 C   0  0  0  0  0  2  0  0  0  0  0  0
  -30.3200  -13.3910   20.2270 N   0  0  0  0  0  0  0  0  0  0  0  0
  -32.2420  -14.3590   20.7060 O   0  0  0  0  0  0  0  0  0  0  0  0
  -24.5630  -14.5770   20.7530 C   0  0  0  0  0  0  0  0  0  0  0  0
  -23.7610  -13.4510   20.8970 C   0  0  0  0  0  0  0  0  0  0  0  0
  -24.4290  -12.2290   20.9740 C   0  0  0  0  0  3  0  0  0  0  0  0
  -25.8660  -14.3720   20.8840 N   0  0  0  0  0  2  0  0  0  0  0  0
  -25.5160  -12.8890   21.3600 N   0  0  0  0  0  2  0  0  0  0  0  0
  -23.9270  -10.7360   21.0750 C   0  0  0  0  0  0  0  0  0  0  0  0
  -24.3930   -9.6860   21.9380 C   0  0  0  0  0  3  0  0  0  0  0  0
  -23.7140   -8.4270   22.0800 C   0  0  0  0  0  3  0  0  0  0  0  0
  -22.5260   -8.1390   21.3570 C   0  0  0  0  0  0  0  0  0  0  0  0
  -22.0950   -9.1220   20.4480 C   0  0  0  0  0  3  0  0  0  0  0  0
  -22.7780  -10.3600   20.3090 C   0  0  0  0  0  3  0  0  0  0  0  0
  -21.7890   -6.9600   21.4180 O   0  0  0  0  0  0  0  0  0  0  0  0
  -21.7550   -6.1250   22.5160 C   0  0  0  0  0  0  0  0  0  0  0  0
  -21.4510   -6.5990   23.8120 C   0  0  0  0  0  3  0  0  0  0  0  0
  -21.3790   -5.7050   24.9020 C   0  0  0  0  0  3  0  0  0  0  0  0
  -21.6000   -4.3280   24.7040 C   0  0  0  0  0  0  0  0  0  0  0  0
  -21.8760   -3.8430   23.4140 C   0  0  0  0  0  3  0  0  0  0  0  0
  -21.9440   -4.7350   22.3250 C   0  0  0  0  0  0  0  0  0  0  0  0
  -22.1820   -4.2450   21.0840 F   0  0  0  0  0  0  0  0  0  0  0  0
  -21.5460   -3.4690   25.7520 F   0  0  0  0  0  0  0  0  0  0  0  0
  -22.3430  -13.5930   21.1180 C   0  0  0  0  0  0  0  0  0  0  0  0
  -21.7910  -12.7980   22.0230 N   0  0  0  0  0  0  0  0  0  0  0  0
  -21.7680  -14.5220   20.5760 O   0  0  0  0  0  0  0  0  0  0  0  0
  -22.3370  -12.0870   22.4850 H   0  0  0  0  0  0  0  0  0  0  0  0
  -20.8120  -12.8950   22.2510 H   0  0  0  0  0  0  0  0  0  0  0  0
  -24.2840  -15.8920   20.6600 N   0  0  0  0  0  0  0  0  0  0  0  0
  -23.3520  -16.2330   20.4420 H   0  0  0  0  0  0  0  0  0  0  0  0
  -25.0350  -16.5460   20.4620 H   0  0  0  0  0  0  0  0  0  0  0  0
  1  3  1  0
  2  1  1  0
  4 57  1  0
  4  6  2  0
  5  3  1  0
  5  6  1  0
  5 52  1  0
  6 53  1  0
  8  7  2  0
 10 12  1  0
 11 22  2  0
 12 17  1  0
 13 21  1  0
 13 23  1  0
 14 20  1  0
 14 16  1  0
 15 21  1  0
 16 17  2  0
 16 15  1  0
 18 12  2  0
 19 18  1  0
 19 14  2  0
 20 13  1  0
 21 11  1  0
 23 25  2  0
 24 23  1  0
 26 24  1  0
 27 36  2  0
 27 32  1  0
 28 24  1  0
 28 32  1  0
 29 28  1  0
 30 31  1  0
 30 29  1  0
 31 27  1  0
 32 33  2  0
 33 34  1  0
 35 34  2  0
 36 35  1  0
 37 11  1  0
 37 42  1  0
 37 38  1  0
 38 41  1  1
 38 39  1  0
 40 38  1  0
 42 45  1  0
 43 47  1  0
 43 42  1  0
 44 43  2  0
 47 46  1  0
 49 47  1  0
 49 50  1  0
 49 48  1  0
 52 51  1  0
 53 54  1  0
 54 56  1  0
 56 55  1  0
 57 58  1  0
 58 59  1  0
 60 59  1  0
 61 60  1  0
 62 67  1  0
 63 64  1  0
 63 62  1  0
 64 65  1  0
 65 66  1  0
 66 67  1  0
 67 61  1  0
 68 61  2  0
 69 72  1  0
 69 70  2  0
 70 71  1  0
 70 89  1  0
 71 74  1  0
 71 73  1  0
 72 73  1  0
 74 75  1  0
 75 76  2  0
 77 80  1  0
 77 76  1  0
 78 77  2  0
 79 78  1  0
 79 74  2  0
 80 81  1  0
 81 82  1  0
 82 83  2  0
 84 83  1  0
 84 88  1  0
 85 84  2  0
 86 81  2  0
 86 85  1  0
 87 86  1  0
 89 90  1  0
 90 93  1  0
 90 92  1  0
 91 89  2  0
 94 69  1  0
 95 94  1  0
 96 94  1  0
M  ISO  4   9 101  10 101  60 100  61 100
M  END
>  <TORSDO>  (91) 
F 26

>  <SCORE>  (91) 
15.787

>  <name>  (91) 
90

>  <ligand_id>  (91) 
90

>  <original_smiles>  (91) 
[H]c1c([H])c([H])c2c(c1[H])C([H])([H])C([H])([H])C([H])([H])C2([H])N([H])C(=O)C1([H])N(C(=O)C([H])(N([H])C(=O)C([H])(N([H])C([H])([H])[H])C([H])([H])[H])C(C([H])([H])[H])(C([H])([H])[H])C([H])([H])[H])C([H])([H])c2c([H])c(OC([H])([H])C(=O)c3c([H])c([H])c(C([H])([H])C([H])([H])C([H])([H])C([H])([H])C(=O)N4C([H])([H])C([H])([H])C([H])([H])C([H])(n5nc(-c6c([H])c([H])c(Oc7c([H])c([H])c(F)c([H])c7F)c([H])c6[H])c(C(=O)N([H])[H])c5N([H])[H])C4([H])[H])c(C([H])([H])C([H])([H])C([H])([H])C([H])([H])[H])c3C([H])([H])C([H])([H])[H])c([H])c([H])c2C1([H])[H]

>  <smiles>  (91) 
[H]c1c([H])c([H])c2c(c1[H])C([H])([H])C([H])([H])C([H])([H])C2([H])N([H])C(=O)C1([H])N(C(=O)C([H])(N([H])C(=O)C([H])(N([H])C([H])([H])[H])C([H])([H])[H])C(C([H])([H])[H])(C([H])([H])[H])C([H])([H])[H])C([H])([H])c2c([H])c(OC([H])([H])C(=O)c3c([H])c([H])c(C([H])([H])C([H])([H])C([H])([H])C([H])([H])C(=O)N4C([H])([H])C([H])([H])C([H])([H])C([H])(n5nc(-c6c([H])c([H])c(Oc7c([H])c([H])c(F)c([H])c7F)c([H])c6[H])c(C(=O)N([H])[H])c5N([H])[H])C4([H])[H])c(C([H])([H])C([H])([H])C([H])([H])C([H])([H])[H])c3C([H])([H])C([H])([H])[H])c([H])c([H])c2C1([H])[H]

$$$$
91:0:0
     RDKit          3D

 92100  0  0  1  0  0  0  0  0999 V2000
  -28.6900  -19.0190   20.3590 C   0  0  0  0  0  2  0  0  0  0  0  0
  -30.5710  -16.5460   22.6220 C   0  0  0  0  0  3  0  0  0  0  0  0
  -29.8640  -17.6640   22.1550 C   0  0  0  0  0  3  0  0  0  0  0  0
  -30.4390  -15.5130   20.4090 C   0  0  0  0  0  0  0  0  0  0  0  0
  -30.8820  -15.4790   21.7600 C   0  0  0  0  0  0  0  0  0  0  0  0
  -29.4440  -17.7520   20.8110 C   0  0  0  0  0  0  0  0  0  0  0  0
  -29.7090  -16.6530   19.9340 C   0  0  0  0  0  0  0  0  0  0  0  0
  -31.7190  -14.3290   22.3050 C   0  0  0  0  0  1  0  0  0  0  0  0
  -30.8470  -14.4000   19.4620 C   0  0  0  0  0  0  0  0  0  0  0  0
  -30.2390  -12.3630   18.2180 C   0  0  0  0  0  2  0  0  0  0  0  0
  -29.1440  -12.6850   17.1840 C   0  0  0  0  0  2  0  0  0  0  0  0
  -27.7470  -12.5590   17.8230 C   0  0  0  0  0  2  0  0  0  0  0  0
  -27.6360  -13.3190   19.1710 C   0  0  0  0  0  3  0  0  0  0  0  0
  -28.8370  -13.0150   20.0950 C   0  0  0  0  0  2  0  0  0  0  0  0
  -30.0760  -13.2830   19.3530 N   0  0  0  0  0  0  0  0  0  0  0  0
  -31.8450  -14.5910   18.7640 O   0  0  0  0  0  0  0  0  0  0  0  0
  -25.3750  -13.9330   20.2330 C   0  0  0  0  0  0  0  0  0  0  0  0
  -24.3540  -13.1630   20.7230 C   0  0  0  0  0  0  0  0  0  0  0  0
  -24.7810  -11.8070   20.5860 C   0  0  0  0  0  0  0  0  0  0  0  0
  -26.3620  -13.0460   19.8310 N   0  0  0  0  0  0  0  0  0  0  0  0
  -26.0140  -11.7610   20.0970 N   0  0  0  0  0  0  0  0  0  0  0  0
  -24.0660  -10.5490   20.8390 C   0  0  0  0  0  0  0  0  0  0  0  0
  -24.5540   -9.5920   21.7570 C   0  0  0  0  0  3  0  0  0  0  0  0
  -23.8390   -8.3990   21.9940 C   0  0  0  0  0  3  0  0  0  0  0  0
  -22.6210   -8.1530   21.3160 C   0  0  0  0  0  0  0  0  0  0  0  0
  -22.1510   -9.0980   20.3880 C   0  0  0  0  0  3  0  0  0  0  0  0
  -22.8670  -10.2830   20.1470 C   0  0  0  0  0  3  0  0  0  0  0  0
  -21.8730   -7.0110   21.4660 O   0  0  0  0  0  0  0  0  0  0  0  0
  -21.8380   -6.3230   22.6530 C   0  0  0  0  0  0  0  0  0  0  0  0
  -21.4380   -6.9380   23.8590 C   0  0  0  0  0  3  0  0  0  0  0  0
  -21.3490   -6.1760   25.0410 C   0  0  0  0  0  3  0  0  0  0  0  0
  -21.6530   -4.8010   25.0190 C   0  0  0  0  0  0  0  0  0  0  0  0
  -22.0470   -4.1870   23.8180 C   0  0  0  0  0  3  0  0  0  0  0  0
  -22.1370   -4.9460   22.6370 C   0  0  0  0  0  0  0  0  0  0  0  0
  -22.4970   -4.3440   21.4780 F   0  0  0  0  0  0  0  0  0  0  0  0
  -21.5600   -4.0670   26.1530 F   0  0  0  0  0  0  0  0  0  0  0  0
  -23.0190  -13.6500   21.2080 C   0  0  0  0  0  0  0  0  0  0  0  0
  -22.4490  -12.9820   22.2040 N   0  0  0  0  0  0  0  0  0  0  0  0
  -22.4960  -14.6600   20.7370 O   0  0  0  0  0  0  0  0  0  0  0  0
  -22.8860  -12.1650   22.6050 H   0  0  0  0  0  0  0  0  0  0  0  0
  -21.5630  -13.2940   22.5770 H   0  0  0  0  0  0  0  0  0  0  0  0
  -25.5400  -15.3060   20.0780 N   0  0  0  0  0  0  0  0  0  0  0  0
  -24.8220  -15.9740   20.3390 H   0  0  0  0  0  0  0  0  0  0  0  0
  -26.3780  -15.7430   19.7170 H   0  0  0  0  0  0  0  0  0  0  0  0
  -30.1630  -17.4800   17.5560 C   0  0  0  0  0  1  0  0  0  0  0  0
  -29.2150  -16.7030   18.4810 C   0  0  0  0  0  2  0  0  0  0  0  0
  -29.2050  -20.3680   20.9300 C   0  0  0  0  0  2  0  0  0  0  0  0
  -28.5850  -21.6000   20.2190 C   0  0  0  0  0  2  0  0  0  0  0  0
  -28.9760  -22.9660   20.8300 C   0  0  0  0  0  2  0  0  0  0  0  0
  -28.4290  -24.1770   20.0330 C   0  0  0  0  0  2  0  0  0  0  0  0
  -28.6970  -25.5390   20.7130 C   0  0  0  0  0  2  0  0  0  0  0  0
  -28.5410  -26.6450   19.8180 O   0  0  0  0  0  0  0  0  0  0  0  0
  -24.6130  -31.6600   23.0280 C   0  0  0  0  0  0  0  0  0  0  0  0
  -27.3450  -27.3210   19.8870 C   0  0  0  0  0  0  0  0  0  0  0  0
  -23.4480  -30.2460   21.3900 C   0  0  0  0  0  3  0  0  0  0  0  0
  -24.9120  -28.7510   19.9350 C   0  0  0  0  0  0  0  0  0  0  0  0
  -25.9470  -30.6720   21.1640 C   0  0  0  0  0  2  0  0  0  0  0  0
  -26.0590  -29.3060   20.5150 C   0  0  0  0  0  0  0  0  0  0  0  0
  -27.2790  -28.5970   20.4890 C   0  0  0  0  0  3  0  0  0  0  0  0
  -26.1840  -26.7720   19.3060 C   0  0  0  0  0  3  0  0  0  0  0  0
  -24.9660  -27.4820   19.3290 C   0  0  0  0  0  3  0  0  0  0  0  0
  -23.6490  -29.5780   20.0010 C   0  0  0  0  0  2  0  0  0  0  0  0
  -24.6900  -30.8730   21.9190 N   0  0  0  0  0  0  0  0  0  0  0  0
  -23.5260  -31.8970   23.5760 O   0  0  0  0  0  0  0  0  0  0  0  0
  -22.8320  -29.2090   22.3500 C   0  0  0  0  0  0  0  0  0  0  0  0
  -21.5130  -29.1170   22.2260 N   0  0  0  0  0  0  0  0  0  0  0  0
  -23.5100  -28.5160   23.1100 O   0  0  0  0  0  0  0  0  0  0  0  0
  -21.1050  -29.8100   21.6170 H   0  0  0  0  0  0  0  0  0  0  0  0
  -18.1070  -27.6780   22.7590 C   0  0  0  0  0  0  0  0  0  0  0  0
  -20.5780  -28.0930   22.6150 C   0  0  0  0  0  3  0  0  0  0  0  0
  -20.8280  -26.6080   22.3270 C   0  0  0  0  0  2  0  0  0  0  0  0
  -19.6840  -26.0910   21.4310 C   0  0  0  0  0  2  0  0  0  0  0  0
  -18.2940  -26.3280   22.0620 C   0  0  0  0  0  2  0  0  0  0  0  0
  -19.2140  -28.4820   23.1280 C   0  0  0  0  0  0  0  0  0  0  0  0
  -19.0130  -29.7130   23.7830 C   0  0  0  0  0  3  0  0  0  0  0  0
  -17.7060  -30.1710   24.0290 C   0  0  0  0  0  3  0  0  0  0  0  0
  -16.6020  -29.3920   23.6360 C   0  0  0  0  0  3  0  0  0  0  0  0
  -16.8030  -28.1430   23.0170 C   0  0  0  0  0  3  0  0  0  0  0  0
  -25.8830  -32.3140   23.6460 C   0  0  0  0  0  3  0  0  0  0  0  0
  -25.5280  -33.6850   24.0310 N   0  0  0  0  0  0  0  0  0  0  0  0
  -25.8260  -34.7750   23.3120 C   0  0  0  0  0  0  0  0  0  0  0  0
  -26.5020  -34.7330   22.2810 O   0  0  0  0  0  0  0  0  0  0  0  0
  -24.9290  -33.7890   24.8380 H   0  0  0  0  0  0  0  0  0  0  0  0
  -24.0770  -36.5500   22.9790 C   0  0  0  0  0  1  0  0  0  0  0  0
  -25.2920  -36.1280   23.8200 C   0  0  0  0  0  3  0  0  0  0  0  0
  -27.3690  -37.0080   24.7890 C   0  0  0  0  0  1  0  0  0  0  0  0
  -26.3070  -37.2030   23.8050 N   0  0  0  0  0  0  0  0  0  0  0  0
  -25.8760  -38.1070   23.9780 H   0  0  0  0  0  0  0  0  0  0  0  0
  -26.4490  -31.5110   24.8790 C   0  0  1  0  0  0  0  0  0  0  0  0
  -25.3820  -31.1780   25.9470 C   0  0  0  0  0  1  0  0  0  0  0  0
  -27.0880  -30.1790   24.4170 C   0  0  0  0  0  1  0  0  0  0  0  0
  -27.5720  -32.3270   25.5610 C   0  0  0  0  0  1  0  0  0  0  0  0
  1  6  1  0
  1 47  1  0
  3  2  1  0
  4  5  1  0
  5  8  1  0
  5  2  2  0
  6  3  2  0
  7  4  2  0
  7  6  1  0
  9  4  1  0
 10 15  1  0
 11 12  1  0
 11 10  1  0
 13 12  1  0
 13 20  1  0
 13 14  1  0
 15  9  1  0
 15 14  1  0
 16  9  2  0
 17 18  2  0
 18 37  1  0
 19 18  1  0
 19 22  1  0
 20 21  1  0
 20 17  1  0
 21 19  2  0
 22 23  1  0
 23 24  2  0
 25 28  1  0
 25 24  1  0
 26 25  2  0
 27 26  1  0
 27 22  2  0
 28 29  1  0
 29 30  1  0
 30 31  2  0
 32 31  1  0
 32 36  1  0
 33 32  2  0
 34 29  2  0
 34 33  1  0
 35 34  1  0
 37 38  1  0
 38 41  1  0
 38 40  1  0
 39 37  2  0
 42 17  1  0
 42 43  1  0
 44 42  1  0
 45 46  1  0
 46  7  1  0
 48 49  1  0
 48 47  1  0
 50 51  1  0
 50 49  1  0
 52 54  1  0
 52 51  1  0
 53 64  2  0
 54 59  1  0
 55 63  1  0
 55 65  1  0
 56 62  1  0
 56 58  1  0
 57 63  1  0
 58 57  1  0
 59 58  2  0
 60 61  1  0
 60 54  2  0
 61 56  2  0
 62 55  1  0
 63 53  1  0
 65 67  2  0
 66 65  1  0
 68 66  1  0
 69 78  2  0
 69 74  1  0
 70 66  1  0
 70 74  1  0
 71 70  1  0
 72 73  1  0
 72 71  1  0
 73 69  1  0
 74 75  2  0
 75 76  1  0
 77 76  2  0
 78 77  1  0
 79 53  1  0
 79 80  1  0
 79 89  1  0
 80 83  1  0
 81 85  1  0
 81 80  1  0
 82 81  2  0
 85 84  1  0
 87 85  1  0
 87 88  1  0
 87 86  1  0
 89 92  1  1
 89 90  1  0
 91 89  1  0
M  ISO  4   4 100   9 100  51 101  52 101
M  END
>  <TORSDO>  (92) 
F 23

>  <SCORE>  (92) 
-9.476

>  <name>  (92) 
91

>  <ligand_id>  (92) 
91

>  <original_smiles>  (92) 
[H]c1c([H])c([H])c2c(c1[H])C([H])([H])C([H])([H])C([H])([H])C2([H])N([H])C(=O)C1([H])N(C(=O)C([H])(N([H])C(=O)C([H])(N([H])C([H])([H])[H])C([H])([H])[H])C(C([H])([H])[H])(C([H])([H])[H])C([H])([H])[H])C([H])([H])c2c([H])c(OC([H])([H])C([H])([H])C([H])([H])C([H])([H])C([H])([H])C([H])([H])c3c([H])c([H])c(C([H])([H])[H])c(C(=O)N4C([H])([H])C([H])([H])C([H])([H])C([H])(n5nc(-c6c([H])c([H])c(Oc7c([H])c([H])c(F)c([H])c7F)c([H])c6[H])c(C(=O)N([H])[H])c5N([H])[H])C4([H])[H])c3C([H])([H])C([H])([H])[H])c([H])c([H])c2C1([H])[H]

>  <smiles>  (92) 
[H]c1c([H])c([H])c2c(c1[H])C([H])([H])C([H])([H])C([H])([H])C2([H])N([H])C(=O)C1([H])N(C(=O)C([H])(N([H])C(=O)C([H])(N([H])C([H])([H])[H])C([H])([H])[H])C(C([H])([H])[H])(C([H])([H])[H])C([H])([H])[H])C([H])([H])c2c([H])c(OC([H])([H])C([H])([H])C([H])([H])C([H])([H])C([H])([H])C([H])([H])c3c([H])c([H])c(C([H])([H])[H])c(C(=O)N4C([H])([H])C([H])([H])C([H])([H])C([H])(n5nc(-c6c([H])c([H])c(Oc7c([H])c([H])c(F)c([H])c7F)c([H])c6[H])c(C(=O)N([H])[H])c5N([H])[H])C4([H])[H])c3C([H])([H])C([H])([H])[H])c([H])c([H])c2C1([H])[H]

$$$$
92:0:0
     RDKit          3D

 91 99  0  0  1  0  0  0  0  0999 V2000
  -28.5190  -20.6440   21.4490 C   0  0  0  0  0  3  0  0  0  0  0  0
  -28.9130  -19.2790   21.4440 C   0  0  0  0  0  3  0  0  0  0  0  0
  -30.7280  -19.8250   19.9760 C   0  0  0  0  0  3  0  0  0  0  0  0
  -29.2110  -21.6520   20.7290 C   0  0  0  0  0  0  0  0  0  0  0  0
  -30.0310  -18.8130   20.7080 C   0  0  0  0  0  0  0  0  0  0  0  0
  -30.3350  -21.2020   19.9830 C   0  0  0  0  0  0  0  0  0  0  0  0
  -31.0690  -22.0930   19.2760 F   0  0  0  0  0  0  0  0  0  0  0  0
  -28.7110  -23.0820   20.8730 C   0  0  0  0  0  3  0  0  0  0  0  0
  -29.1220  -24.3060   20.4160 C   0  0  0  0  0  3  0  0  0  0  0  0
  -28.4240  -25.6370   20.8450 C   0  0  0  0  0  2  0  0  0  0  0  0
  -28.5470  -26.8350   20.0050 O   0  0  0  0  0  0  0  0  0  0  0  0
  -24.7070  -31.9940   23.2530 C   0  0  0  0  0  0  0  0  0  0  0  0
  -27.4230  -27.6570   20.0160 C   0  0  0  0  0  0  0  0  0  0  0  0
  -23.5260  -30.6150   21.5780 C   0  0  0  0  0  3  0  0  0  0  0  0
  -25.0060  -29.1590   20.0860 C   0  0  0  0  0  0  0  0  0  0  0  0
  -26.0470  -31.0280   21.3740 C   0  0  0  0  0  2  0  0  0  0  0  0
  -26.1640  -29.6760   20.6860 C   0  0  0  0  0  0  0  0  0  0  0  0
  -27.3780  -28.9340   20.6440 C   0  0  0  0  0  3  0  0  0  0  0  0
  -26.2510  -27.1830   19.3940 C   0  0  0  0  0  3  0  0  0  0  0  0
  -25.0490  -27.9160   19.4340 C   0  0  0  0  0  3  0  0  0  0  0  0
  -23.7420  -29.9880   20.1740 C   0  0  0  0  0  2  0  0  0  0  0  0
  -24.7790  -31.2290   22.1260 N   0  0  0  0  0  0  0  0  0  0  0  0
  -23.6230  -32.2200   23.8100 O   0  0  0  0  0  0  0  0  0  0  0  0
  -22.9060  -29.5490   22.5120 C   0  0  0  0  0  0  0  0  0  0  0  0
  -21.5880  -29.3240   22.3780 N   0  0  0  0  0  0  0  0  0  0  0  0
  -23.6100  -28.9280   23.3120 O   0  0  0  0  0  0  0  0  0  0  0  0
  -21.0760  -29.8820   21.7100 H   0  0  0  0  0  0  0  0  0  0  0  0
  -18.2580  -27.9950   22.8540 C   0  0  0  0  0  0  0  0  0  0  0  0
  -20.8070  -28.3350   23.1230 C   0  0  0  0  0  3  0  0  0  0  0  0
  -20.9570  -26.9250   22.5040 C   0  0  0  0  0  2  0  0  0  0  0  0
  -19.8610  -26.5950   21.4850 C   0  0  0  0  0  2  0  0  0  0  0  0
  -18.4780  -26.6740   22.1370 C   0  0  0  0  0  2  0  0  0  0  0  0
  -19.3520  -28.7820   23.3030 C   0  0  0  0  0  0  0  0  0  0  0  0
  -19.0930  -30.0190   23.9320 C   0  0  0  0  0  3  0  0  0  0  0  0
  -17.7720  -30.4700   24.1170 C   0  0  0  0  0  3  0  0  0  0  0  0
  -16.6930  -29.6800   23.6830 C   0  0  0  0  0  3  0  0  0  0  0  0
  -16.9370  -28.4450   23.0570 C   0  0  0  0  0  3  0  0  0  0  0  0
  -25.9800  -32.6420   23.8830 C   0  0  0  0  0  3  0  0  0  0  0  0
  -26.5000  -31.8750   25.1610 C   0  0  1  0  0  0  0  0  0  0  0  0
  -25.3950  -31.5870   26.2050 C   0  0  0  0  0  1  0  0  0  0  0  0
  -27.1390  -30.5250   24.7650 C   0  0  0  0  0  1  0  0  0  0  0  0
  -27.6090  -32.7020   25.8530 C   0  0  0  0  0  1  0  0  0  0  0  0
  -25.6530  -34.0360   24.2130 N   0  0  0  0  0  0  0  0  0  0  0  0
  -25.9770  -35.0940   23.4570 C   0  0  0  0  0  0  0  0  0  0  0  0
  -26.6540  -34.9980   22.4290 O   0  0  0  0  0  0  0  0  0  0  0  0
  -25.0520  -34.1830   25.0110 H   0  0  0  0  0  0  0  0  0  0  0  0
  -24.2310  -36.8660   23.0920 C   0  0  0  0  0  1  0  0  0  0  0  0
  -25.4710  -36.4760   23.9120 C   0  0  0  0  0  3  0  0  0  0  0  0
  -27.5830  -37.3940   24.7670 C   0  0  0  0  0  1  0  0  0  0  0  0
  -26.4930  -37.5410   23.8060 N   0  0  0  0  0  0  0  0  0  0  0  0
  -26.0740  -38.4570   23.9380 H   0  0  0  0  0  0  0  0  0  0  0  0
  -30.4450  -17.2820   20.8350 C   0  0  0  0  0  2  0  0  0  0  0  0
  -31.3240  -15.0520   20.0270 C   0  0  0  0  0  0  0  0  0  0  0  0
  -31.0380  -12.8010   19.0420 C   0  0  0  0  0  2  0  0  0  0  0  0
  -30.0540  -12.8810   17.8550 C   0  0  0  0  0  2  0  0  0  0  0  0
  -28.5950  -12.7670   18.3380 C   0  0  0  0  0  2  0  0  0  0  0  0
  -28.2830  -13.6560   19.5720 C   0  0  0  0  0  3  0  0  0  0  0  0
  -29.3810  -13.5530   20.6490 C   0  0  0  0  0  2  0  0  0  0  0  0
  -30.6560  -13.8590   19.9950 N   0  0  0  0  0  0  0  0  0  0  0  0
  -32.5350  -15.0990   19.7890 O   0  0  0  0  0  0  0  0  0  0  0  0
  -30.5720  -16.1900   19.7910 N   0  0  0  0  0  0  0  0  0  0  0  0
  -25.9490  -14.2850   20.4330 C   0  0  0  0  0  0  0  0  0  0  0  0
  -24.8750  -13.5230   20.8060 C   0  0  0  0  0  0  0  0  0  0  0  0
  -25.2940  -12.1630   20.6870 C   0  0  0  0  0  0  0  0  0  0  0  0
  -26.9540  -13.3880   20.1090 N   0  0  0  0  0  0  0  0  0  0  0  0
  -26.5690  -12.1030   20.3240 N   0  0  0  0  0  0  0  0  0  0  0  0
  -24.5390  -10.9140   20.8370 C   0  0  0  0  0  0  0  0  0  0  0  0
  -24.9240   -9.9260   21.7710 C   0  0  0  0  0  3  0  0  0  0  0  0
  -24.1700   -8.7420   21.9110 C   0  0  0  0  0  3  0  0  0  0  0  0
  -23.0180   -8.5360   21.1170 C   0  0  0  0  0  0  0  0  0  0  0  0
  -22.6520   -9.5110   20.1720 C   0  0  0  0  0  3  0  0  0  0  0  0
  -23.4070  -10.6880   20.0300 C   0  0  0  0  0  3  0  0  0  0  0  0
  -22.2380   -7.4050   21.1670 O   0  0  0  0  0  0  0  0  0  0  0  0
  -22.0410   -6.7170   22.3380 C   0  0  0  0  0  0  0  0  0  0  0  0
  -21.4310   -7.3180   23.4610 C   0  0  0  0  0  3  0  0  0  0  0  0
  -21.1840   -6.5550   24.6200 C   0  0  0  0  0  3  0  0  0  0  0  0
  -21.5370   -5.1930   24.6550 C   0  0  0  0  0  0  0  0  0  0  0  0
  -22.1420   -4.5940   23.5360 C   0  0  0  0  0  3  0  0  0  0  0  0
  -22.3900   -5.3540   22.3800 C   0  0  0  0  0  0  0  0  0  0  0  0
  -22.9530   -4.7650   21.2970 F   0  0  0  0  0  0  0  0  0  0  0  0
  -21.2930   -4.4570   25.7650 F   0  0  0  0  0  0  0  0  0  0  0  0
  -23.5060  -14.0250   21.1610 C   0  0  0  0  0  0  0  0  0  0  0  0
  -22.7930  -13.3070   22.0220 N   0  0  0  0  0  0  0  0  0  0  0  0
  -23.0780  -15.0870   20.7110 O   0  0  0  0  0  0  0  0  0  0  0  0
  -23.1520  -12.4460   22.4090 H   0  0  0  0  0  0  0  0  0  0  0  0
  -21.8760  -13.6250   22.2990 H   0  0  0  0  0  0  0  0  0  0  0  0
  -26.1520  -15.6570   20.3220 N   0  0  0  0  0  0  0  0  0  0  0  0
  -25.4180  -16.3310   20.5090 H   0  0  0  0  0  0  0  0  0  0  0  0
  -27.0090  -16.0880   20.0010 H   0  0  0  0  0  0  0  0  0  0  0  0
  -29.3150  -17.3340   17.8910 C   0  0  0  0  0  1  0  0  0  0  0  0
  -30.6210  -16.6770   18.3840 C   0  0  0  0  0  2  0  0  0  0  0  0
  2  1  1  0
  3  6  2  0
  3  5  1  0
  4  8  1  0
  4  1  2  0
  5 52  1  0
  5  2  2  0
  6  4  1  0
  7  6  1  0
  9 10  1  0
  9  8  2  0
 11 13  1  0
 11 10  1  0
 12 23  2  0
 13 18  1  0
 14 22  1  0
 14 24  1  0
 15 21  1  0
 15 17  1  0
 16 22  1  0
 17 16  1  0
 18 17  2  0
 19 20  1  0
 19 13  2  0
 20 15  2  0
 21 14  1  0
 22 12  1  0
 24 26  2  0
 25 24  1  0
 27 25  1  0
 28 37  2  0
 28 33  1  0
 29 25  1  0
 29 33  1  0
 30 29  1  0
 31 32  1  0
 31 30  1  0
 32 28  1  0
 33 34  2  0
 34 35  1  0
 36 35  2  0
 37 36  1  0
 38 12  1  0
 38 43  1  0
 38 39  1  0
 39 42  1  1
 39 40  1  0
 41 39  1  0
 43 46  1  0
 44 48  1  0
 44 43  1  0
 45 44  2  0
 48 47  1  0
 50 48  1  0
 50 51  1  0
 50 49  1  0
 54 59  1  0
 55 56  1  0
 55 54  1  0
 57 56  1  0
 57 65  1  0
 57 58  1  0
 59 53  1  0
 59 58  1  0
 60 53  2  0
 61 53  1  0
 61 52  1  0
 62 63  2  0
 63 82  1  0
 64 63  1  0
 64 67  1  0
 65 66  1  0
 65 62  1  0
 66 64  2  0
 67 68  1  0
 68 69  2  0
 70 73  1  0
 70 69  1  0
 71 70  2  0
 72 71  1  0
 72 67  2  0
 73 74  1  0
 74 79  2  0
 74 75  1  0
 75 76  2  0
 76 77  1  0
 77 81  1  0
 78 77  2  0
 79 78  1  0
 80 79  1  0
 82 83  1  0
 83 86  1  0
 83 85  1  0
 84 82  2  0
 87 62  1  0
 87 88  1  0
 89 87  1  0
 90 91  1  0
 91 61  1  0
M  ISO  4  10 101  11 101  53 100  61 100
M  END
>  <TORSDO>  (93) 
F 20

>  <SCORE>  (93) 
-11.351

>  <name>  (93) 
92

>  <ligand_id>  (93) 
92

>  <original_smiles>  (93) 
[H]C(=C([H])C([H])([H])Oc1c([H])c([H])c2c(c1[H])C([H])([H])N(C(=O)C([H])(N([H])C(=O)C([H])(N([H])C([H])([H])[H])C([H])([H])[H])C(C([H])([H])[H])(C([H])([H])[H])C([H])([H])[H])C([H])(C(=O)N([H])C1([H])c3c([H])c([H])c([H])c([H])c3C([H])([H])C([H])([H])C1([H])[H])C2([H])[H])c1c([H])c([H])c(C([H])([H])N(C(=O)N2C([H])([H])C([H])([H])C([H])([H])C([H])(n3nc(-c4c([H])c([H])c(Oc5c([H])c([H])c(F)c([H])c5F)c([H])c4[H])c(C(=O)N([H])[H])c3N([H])[H])C2([H])[H])C([H])([H])C([H])([H])[H])c([H])c1F

>  <smiles>  (93) 
[H]C(=C([H])C([H])([H])Oc1c([H])c([H])c2c(c1[H])C([H])([H])N(C(=O)C([H])(N([H])C(=O)C([H])(N([H])C([H])([H])[H])C([H])([H])[H])C(C([H])([H])[H])(C([H])([H])[H])C([H])([H])[H])C([H])(C(=O)N([H])C1([H])c3c([H])c([H])c([H])c([H])c3C([H])([H])C([H])([H])C1([H])[H])C2([H])[H])c1c([H])c([H])c(C([H])([H])N(C(=O)N2C([H])([H])C([H])([H])C([H])([H])C([H])(n3nc(-c4c([H])c([H])c(Oc5c([H])c([H])c(F)c([H])c5F)c([H])c4[H])c(C(=O)N([H])[H])c3N([H])[H])C2([H])[H])C([H])([H])C([H])([H])[H])c([H])c1F

$$$$
93:0:0
     RDKit          3D

 98106  0  0  1  0  0  0  0  0999 V2000
  -29.8520  -22.0320   18.4550 C   0  0  0  0  0  2  0  0  0  0  0  0
  -30.7210  -23.2220   17.9820 C   0  0  0  0  0  2  0  0  0  0  0  0
  -30.6720  -24.4630   18.8850 C   0  0  0  0  0  0  0  0  0  0  0  0
  -30.3490  -25.6250   18.3010 N   0  0  0  0  0  0  0  0  0  0  0  0
  -30.9820  -24.3750   20.0730 O   0  0  0  0  0  0  0  0  0  0  0  0
  -30.0740  -25.5860   17.3290 H   0  0  0  0  0  0  0  0  0  0  0  0
  -30.4810  -26.9700   18.8740 C   0  0  0  0  0  2  0  0  0  0  0  0
  -29.6810  -27.2100   20.1700 C   0  0  0  0  0  2  0  0  0  0  0  0
  -28.3690  -26.6810   20.0050 O   0  0  0  0  0  0  0  0  0  0  0  0
  -24.6070  -31.8720   23.2150 C   0  0  0  0  0  0  0  0  0  0  0  0
  -27.2550  -27.4890   20.0810 C   0  0  0  0  0  0  0  0  0  0  0  0
  -23.3950  -30.4970   21.5520 C   0  0  0  0  0  3  0  0  0  0  0  0
  -24.8480  -28.9720   20.1160 C   0  0  0  0  0  0  0  0  0  0  0  0
  -25.9160  -30.8550   21.3610 C   0  0  0  0  0  2  0  0  0  0  0  0
  -26.0010  -29.4910   20.7150 C   0  0  0  0  0  0  0  0  0  0  0  0
  -27.2050  -28.7560   20.7100 C   0  0  0  0  0  3  0  0  0  0  0  0
  -26.0810  -26.9710   19.4980 C   0  0  0  0  0  3  0  0  0  0  0  0
  -24.8780  -27.7040   19.5090 C   0  0  0  0  0  3  0  0  0  0  0  0
  -23.6060  -29.8350   20.1650 C   0  0  0  0  0  2  0  0  0  0  0  0
  -24.6580  -31.0880   22.1040 N   0  0  0  0  0  0  0  0  0  0  0  0
  -23.5280  -32.1440   23.7590 O   0  0  0  0  0  0  0  0  0  0  0  0
  -22.7390  -29.4670   22.4980 C   0  0  0  0  0  0  0  0  0  0  0  0
  -21.4110  -29.3040   22.3740 N   0  0  0  0  0  0  0  0  0  0  0  0
  -23.4180  -28.8190   23.2980 O   0  0  0  0  0  0  0  0  0  0  0  0
  -20.9240  -29.8860   21.7070 H   0  0  0  0  0  0  0  0  0  0  0  0
  -18.0260  -28.1370   22.8500 C   0  0  0  0  0  0  0  0  0  0  0  0
  -20.5850  -28.3660   23.1330 C   0  0  0  0  0  3  0  0  0  0  0  0
  -20.6730  -26.9400   22.5410 C   0  0  0  0  0  2  0  0  0  0  0  0
  -19.5720  -26.6380   21.5210 C   0  0  0  0  0  2  0  0  0  0  0  0
  -18.1900  -26.7920   22.1620 C   0  0  0  0  0  2  0  0  0  0  0  0
  -19.1510  -28.8830   23.2910 C   0  0  0  0  0  0  0  0  0  0  0  0
  -18.9440  -30.1430   23.8940 C   0  0  0  0  0  3  0  0  0  0  0  0
  -17.6450  -30.6580   24.0580 C   0  0  0  0  0  3  0  0  0  0  0  0
  -16.5340  -29.9100   23.6310 C   0  0  0  0  0  3  0  0  0  0  0  0
  -16.7260  -28.6510   23.0350 C   0  0  0  0  0  3  0  0  0  0  0  0
  -25.8980  -32.4860   23.8460 C   0  0  0  0  0  3  0  0  0  0  0  0
  -26.4460  -31.6620   25.0750 C   0  0  1  0  0  0  0  0  0  0  0  0
  -25.3750  -31.3670   26.1520 C   0  0  0  0  0  1  0  0  0  0  0  0
  -27.0270  -30.3090   24.6030 C   0  0  0  0  0  1  0  0  0  0  0  0
  -27.6050  -32.4320   25.7490 C   0  0  0  0  0  1  0  0  0  0  0  0
  -25.5860  -33.8660   24.2390 N   0  0  0  0  0  0  0  0  0  0  0  0
  -25.9010  -34.9500   23.5170 C   0  0  0  0  0  0  0  0  0  0  0  0
  -26.5580  -34.8950   22.4730 O   0  0  0  0  0  0  0  0  0  0  0  0
  -25.0020  -33.9850   25.0530 H   0  0  0  0  0  0  0  0  0  0  0  0
  -24.1470  -36.7340   23.2640 C   0  0  0  0  0  1  0  0  0  0  0  0
  -25.4090  -36.3150   24.0360 C   0  0  0  0  0  3  0  0  0  0  0  0
  -27.5580  -37.1820   24.8470 C   0  0  0  0  0  1  0  0  0  0  0  0
  -26.4290  -37.3820   23.9420 N   0  0  0  0  0  0  0  0  0  0  0  0
  -26.0200  -38.2910   24.1430 H   0  0  0  0  0  0  0  0  0  0  0  0
  -30.6130  -20.6910   18.5520 C   0  0  0  0  0  2  0  0  0  0  0  0
  -29.6830  -19.4890   18.8190 C   0  0  0  0  0  2  0  0  0  0  0  0
  -30.4090  -18.2510   19.3990 C   0  0  0  0  0  2  0  0  0  0  0  0
  -29.4950  -17.0230   19.6540 C   0  0  0  0  0  2  0  0  0  0  0  0
  -29.3560  -16.0100   23.9090 C   0  0  0  0  0  3  0  0  0  0  0  0
  -28.6300  -17.0930   23.4100 C   0  0  0  0  0  3  0  0  0  0  0  0
  -30.0780  -15.4250   21.6350 C   0  0  0  0  0  0  0  0  0  0  0  0
  -30.0710  -15.1660   23.0400 C   0  0  0  0  0  0  0  0  0  0  0  0
  -28.6450  -17.3960   22.0390 C   0  0  0  0  0  0  0  0  0  0  0  0
  -29.4150  -16.6010   21.1370 C   0  0  0  0  0  0  0  0  0  0  0  0
  -27.7940  -18.5770   21.6000 C   0  0  0  0  0  1  0  0  0  0  0  0
  -30.7170  -14.4240   20.6890 C   0  0  0  0  0  0  0  0  0  0  0  0
  -30.4380  -12.3230   19.4040 C   0  0  0  0  0  2  0  0  0  0  0  0
  -29.5070  -12.5450   18.1960 C   0  0  0  0  0  2  0  0  0  0  0  0
  -28.0230  -12.3910   18.5960 C   0  0  0  0  0  2  0  0  0  0  0  0
  -27.6700  -13.2050   19.8700 C   0  0  0  0  0  3  0  0  0  0  0  0
  -28.7050  -12.9400   20.9820 C   0  0  0  0  0  2  0  0  0  0  0  0
  -30.0430  -13.2640   20.4590 N   0  0  0  0  0  0  0  0  0  0  0  0
  -31.7790  -14.7070   20.1220 O   0  0  0  0  0  0  0  0  0  0  0  0
  -25.2640  -13.8170   20.5640 C   0  0  0  0  0  0  0  0  0  0  0  0
  -24.1880  -13.0460   20.9150 C   0  0  0  0  0  0  0  0  0  0  0  0
  -24.6440  -11.6910   20.8710 C   0  0  0  0  0  0  0  0  0  0  0  0
  -26.3070  -12.9340   20.3310 N   0  0  0  0  0  0  0  0  0  0  0  0
  -25.9360  -11.6500   20.5730 N   0  0  0  0  0  0  0  0  0  0  0  0
  -23.9080  -10.4310   21.0380 C   0  0  0  0  0  0  0  0  0  0  0  0
  -24.3630   -9.4230   21.9150 C   0  0  0  0  0  3  0  0  0  0  0  0
  -23.6310   -8.2270   22.0740 C   0  0  0  0  0  3  0  0  0  0  0  0
  -22.4290   -8.0290   21.3550 C   0  0  0  0  0  0  0  0  0  0  0  0
  -21.9920   -9.0270   20.4650 C   0  0  0  0  0  3  0  0  0  0  0  0
  -22.7250  -10.2140   20.3020 C   0  0  0  0  0  3  0  0  0  0  0  0
  -21.6650   -6.8890   21.4250 O   0  0  0  0  0  0  0  0  0  0  0  0
  -21.6860   -6.0750   22.5290 C   0  0  0  0  0  0  0  0  0  0  0  0
  -21.4020   -6.5650   23.8220 C   0  0  0  0  0  3  0  0  0  0  0  0
  -21.3650   -5.6790   24.9180 C   0  0  0  0  0  3  0  0  0  0  0  0
  -21.6020   -4.3060   24.7230 C   0  0  0  0  0  0  0  0  0  0  0  0
  -21.8820   -3.8160   23.4340 C   0  0  0  0  0  3  0  0  0  0  0  0
  -21.9200   -4.6980   22.3400 C   0  0  0  0  0  0  0  0  0  0  0  0
  -22.1650   -4.2160   21.0980 F   0  0  0  0  0  0  0  0  0  0  0  0
  -21.5630   -3.4530   25.7740 F   0  0  0  0  0  0  0  0  0  0  0  0
  -22.7910  -13.5230   21.1800 C   0  0  0  0  0  0  0  0  0  0  0  0
  -22.0520  -12.8260   22.0360 N   0  0  0  0  0  0  0  0  0  0  0  0
  -22.3580  -14.5520   20.6610 O   0  0  0  0  0  0  0  0  0  0  0  0
  -22.4100  -11.9970   22.4830 H   0  0  0  0  0  0  0  0  0  0  0  0
  -21.1120  -13.1330   22.2440 H   0  0  0  0  0  0  0  0  0  0  0  0
  -25.4430  -15.1870   20.4090 N   0  0  0  0  0  0  0  0  0  0  0  0
  -24.7030  -15.8630   20.5580 H   0  0  0  0  0  0  0  0  0  0  0  0
  -26.3330  -15.6210   20.1910 H   0  0  0  0  0  0  0  0  0  0  0  0
  -32.2760  -14.2900   23.9610 C   0  0  0  0  0  1  0  0  0  0  0  0
  -30.7980  -13.9880   23.6880 C   0  0  0  0  0  2  0  0  0  0  0  0
  1 50  1  0
  2  1  1  0
  2  3  1  0
  3  5  2  0
  4  7  1  0
  4  3  1  0
  6  4  1  0
  7  8  1  0
  9 11  1  0
  9  8  1  0
 10 21  2  0
 11 16  1  0
 12 20  1  0
 12 22  1  0
 13 19  1  0
 13 15  1  0
 14 20  1  0
 15 14  1  0
 16 15  2  0
 17 18  1  0
 17 11  2  0
 18 13  2  0
 19 12  1  0
 20 10  1  0
 22 24  2  0
 23 22  1  0
 25 23  1  0
 26 35  2  0
 26 31  1  0
 27 23  1  0
 27 31  1  0
 28 27  1  0
 29 30  1  0
 29 28  1  0
 30 26  1  0
 31 32  2  0
 32 33  1  0
 34 33  2  0
 35 34  1  0
 36 10  1  0
 36 41  1  0
 36 37  1  0
 37 40  1  1
 37 38  1  0
 39 37  1  0
 41 44  1  0
 42 46  1  0
 42 41  1  0
 43 42  2  0
 46 45  1  0
 48 46  1  0
 48 49  1  0
 48 47  1  0
 50 51  1  0
 51 52  1  0
 52 53  1  0
 53 59  1  0
 55 54  1  0
 56 57  1  0
 57 98  1  0
 57 54  2  0
 58 55  2  0
 59 56  2  0
 59 58  1  0
 60 58  1  0
 61 56  1  0
 62 67  1  0
 63 64  1  0
 63 62  1  0
 65 64  1  0
 65 72  1  0
 65 66  1  0
 67 61  1  0
 67 66  1  0
 68 61  2  0
 69 70  2  0
 70 89  1  0
 71 70  1  0
 71 74  1  0
 72 69  1  0
 72 73  1  0
 73 71  2  0
 74 75  1  0
 75 76  2  0
 77 80  1  0
 77 76  1  0
 78 77  2  0
 79 78  1  0
 79 74  2  0
 80 81  1  0
 81 82  1  0
 82 83  2  0
 84 83  1  0
 84 88  1  0
 85 84  2  0
 86 81  2  0
 86 85  1  0
 87 86  1  0
 89 90  1  0
 90 93  1  0
 90 92  1  0
 91 89  2  0
 94 95  1  0
 94 69  1  0
 96 94  1  0
 98 97  1  0
M  ISO  4   8 101   9 101  56 100  61 100
M  END
>  <TORSDO>  (94) 
F 26

>  <SCORE>  (94) 
14.329

>  <name>  (94) 
93

>  <ligand_id>  (94) 
93

>  <original_smiles>  (94) 
[H]c1c([H])c([H])c2c(c1[H])C([H])([H])C([H])([H])C([H])([H])C2([H])N([H])C(=O)C1([H])N(C(=O)C([H])(N([H])C(=O)C([H])(N([H])C([H])([H])[H])C([H])([H])[H])C(C([H])([H])[H])(C([H])([H])[H])C([H])([H])[H])C([H])([H])c2c([H])c(OC([H])([H])C([H])([H])N([H])C(=O)C([H])([H])C([H])([H])C([H])([H])C([H])([H])C([H])([H])C([H])([H])c3c(C(=O)N4C([H])([H])C([H])([H])C([H])([H])C([H])(n5nc(-c6c([H])c([H])c(Oc7c([H])c([H])c(F)c([H])c7F)c([H])c6[H])c(C(=O)N([H])[H])c5N([H])[H])C4([H])[H])c(C([H])([H])C([H])([H])[H])c([H])c([H])c3C([H])([H])[H])c([H])c([H])c2C1([H])[H]

>  <smiles>  (94) 
[H]c1c([H])c([H])c2c(c1[H])C([H])([H])C([H])([H])C([H])([H])C2([H])N([H])C(=O)C1([H])N(C(=O)C([H])(N([H])C(=O)C([H])(N([H])C([H])([H])[H])C([H])([H])[H])C(C([H])([H])[H])(C([H])([H])[H])C([H])([H])[H])C([H])([H])c2c([H])c(OC([H])([H])C([H])([H])N([H])C(=O)C([H])([H])C([H])([H])C([H])([H])C([H])([H])C([H])([H])C([H])([H])c3c(C(=O)N4C([H])([H])C([H])([H])C([H])([H])C([H])(n5nc(-c6c([H])c([H])c(Oc7c([H])c([H])c(F)c([H])c7F)c([H])c6[H])c(C(=O)N([H])[H])c5N([H])[H])C4([H])[H])c(C([H])([H])C([H])([H])[H])c([H])c([H])c3C([H])([H])[H])c([H])c([H])c2C1([H])[H]

$$$$
94:0:0
     RDKit          3D

 98 98  0  0  1  0  0  0  0  0999 V2000
  -25.5740  -28.5820   20.6150 C   0  0  0  0  0  3  0  0  0  0  0  0
  -24.7750  -29.1410   19.6130 C   0  0  0  0  0  3  0  0  0  0  0  0
  -26.5710  -29.0410   17.9420 C   0  0  0  0  0  3  0  0  0  0  0  0
  -26.9060  -28.1750   20.4060 C   0  0  0  0  0  3  0  0  0  0  0  0
  -27.5170  -28.4240   18.7900 C   0  0  0  0  0  3  0  0  0  0  0  0
  -25.2590  -29.3770   18.3190 C   0  0  0  0  0  0  0  0  0  0  0  0
  -24.4260  -29.9620   17.4070 O   0  0  0  0  0  0  0  0  0  0  0  0
  -24.8600  -30.1890   16.5900 H   0  0  0  0  0  0  0  0  0  0  0  0
  -27.7610  -27.4750   22.1500 C   0  0  0  0  0 15  0  0  0  0  0  0
  -29.5560  -26.5510   22.6400 C   0  0  0  0  0 15  0  0  0  0  0  0
  -31.1920  -25.4740   22.0960 C   0  0  0  0  0 15  0  0  0  0  0  0
  -32.9290  -25.3840   21.1590 C   0  0  0  0  0 15  0  0  0  0  0  0
  -33.7850  -24.8250   19.4630 C   0  0  0  0  0 15  0  0  0  0  0  0
  -36.0200  -23.3530   18.8010 C   0  0  0  0  0  1  0  0  0  0  0  0
  -35.5230  -24.7780   18.5200 C   0  0  0  0  0  2  0  0  0  0  0  0
  -36.1860  -25.1770   16.9040 N   0  0  0  0  0  4  0  0  0  0  0  0
  -35.6990  -24.5440   16.2910 H   0  0  0  0  0  0  0  0  0  0  0  0
  -35.7720  -26.0760   16.7120 H   0  0  0  0  0  0  0  0  0  0  0  0
  -37.8010  -25.3140   16.1340 C   0  0  0  0  0  1  0  0  0  0  0  0
  -38.6420  -26.2380   14.6080 C   0  0  0  0  0  1  0  0  0  0  0  0
  -40.2910  -26.6850   13.7550 C   0  0  0  0  0  0  0  0  0  0  0  0
  -41.9380  -28.3780   12.3930 C   0  0  0  0  0  2  0  0  0  0  0  0
  -42.0000  -29.8680   12.8770 C   0  0  0  0  0  2  0  0  0  0  0  0
  -40.7750  -30.6690   12.4030 C   0  0  0  0  0  2  0  0  0  0  0  0
  -39.4990  -29.8110   12.5430 C   0  0  0  0  0  3  0  0  0  0  0  0
  -39.6300  -28.4100   11.9280 C   0  0  0  0  0  2  0  0  0  0  0  0
  -40.5990  -27.6980   12.7500 N   0  0  0  0  0  0  0  0  0  0  0  0
  -41.3940  -26.1490   14.0290 O   0  0  0  0  0  0  0  0  0  0  0  0
  -37.1380  -30.6820   12.7610 C   0  0  0  0  0  0  0  0  0  0  0  0
  -36.3190  -31.3570   11.9030 C   0  0  0  0  0  0  0  0  0  0  0  0
  -37.0500  -31.4950   10.6830 C   0  0  0  0  0  0  0  0  0  0  0  0
  -38.3050  -30.4600   12.0580 N   0  0  0  0  0  0  0  0  0  0  0  0
  -38.2280  -30.8890   10.7750 N   0  0  0  0  0  0  0  0  0  0  0  0
  -36.7210  -32.2250    9.4550 C   0  0  0  0  0  0  0  0  0  0  0  0
  -36.3670  -31.5520    8.2650 C   0  0  0  0  0  3  0  0  0  0  0  0
  -36.0340  -32.2840    7.1050 C   0  0  0  0  0  3  0  0  0  0  0  0
  -36.0520  -33.6990    7.1290 C   0  0  0  0  0  0  0  0  0  0  0  0
  -36.4300  -34.3620    8.3100 C   0  0  0  0  0  3  0  0  0  0  0  0
  -36.7650  -33.6320    9.4620 C   0  0  0  0  0  3  0  0  0  0  0  0
  -35.7690  -34.4920    6.0430 O   0  0  0  0  0  0  0  0  0  0  0  0
  -34.7460  -34.1900    5.1810 C   0  0  0  0  0  0  0  0  0  0  0  0
  -33.3980  -34.1680    5.6010 C   0  0  0  0  0  3  0  0  0  0  0  0
  -32.3740  -33.9230    4.6640 C   0  0  0  0  0  3  0  0  0  0  0  0
  -32.6930  -33.7100    3.3100 C   0  0  0  0  0  0  0  0  0  0  0  0
  -34.0340  -33.7360    2.8890 C   0  0  0  0  0  3  0  0  0  0  0  0
  -35.0580  -33.9800    3.8230 C   0  0  0  0  0  0  0  0  0  0  0  0
  -36.3470  -34.0260    3.4090 F   0  0  0  0  0  0  0  0  0  0  0  0
  -31.7090  -33.4810    2.4100 F   0  0  0  0  0  0  0  0  0  0  0  0
  -34.9740  -31.9250   12.2340 C   0  0  0  0  0  0  0  0  0  0  0  0
  -34.0120  -31.7890   11.3290 N   0  0  0  0  0  0  0  0  0  0  0  0
  -34.7570  -32.4540   13.3240 O   0  0  0  0  0  0  0  0  0  0  0  0
  -34.1890  -31.3370   10.4440 H   0  0  0  0  0  0  0  0  0  0  0  0
  -33.0850  -32.1420   11.5230 H   0  0  0  0  0  0  0  0  0  0  0  0
  -37.0040  -30.2620   14.0820 N   0  0  0  0  0  0  0  0  0  0  0  0
  -36.1830  -30.4840   14.6350 H   0  0  0  0  0  0  0  0  0  0  0  0
  -37.7500  -29.8490   14.6260 H   0  0  0  0  0  0  0  0  0  0  0  0
  -29.1600  -28.1200   17.7180 C   0  0  0  0  0  1  0  0  0  0  0  0
  -29.8890  -27.5540   16.1030 O   0  0  0  0  0  0  0  0  0  0  0  0
  -32.1000  -27.9680   20.0920 C   0  0  0  0  0  0  0  0  0  0  0  0
  -30.5380  -26.4650   15.3180 C   0  0  0  0  0  3  0  0  0  0  0  0
  -29.6500  -26.1580   19.2630 C   0  0  0  0  0  3  0  0  0  0  0  0
  -29.7190  -25.4240   17.3410 C   0  0  0  0  0  3  0  0  0  0  0  0
  -31.8640  -26.8630   18.0470 C   0  0  0  0  0  2  0  0  0  0  0  0
  -31.1050  -25.9110   17.2170 C   0  0  0  0  0  3  0  0  0  0  0  0
  -31.6320  -26.0030   15.9590 C   0  0  0  0  0  2  0  0  0  0  0  0
  -29.6600  -25.3580   15.0770 C   0  0  0  0  0  2  0  0  0  0  0  0
  -29.0750  -24.8860   16.2410 C   0  0  0  0  0  2  0  0  0  0  0  0
  -28.7510  -26.0820   18.1400 C   0  0  0  0  0  2  0  0  0  0  0  0
  -31.2480  -27.0360   19.2490 N   0  0  0  0  0  0  0  0  0  0  0  0
  -31.9230  -28.3410   21.2800 O   0  0  0  0  0  0  0  0  0  0  0  0
  -29.0630  -25.0270   20.1320 C   0  0  0  0  0  0  0  0  0  0  0  0
  -27.7920  -24.9310   20.5860 N   0  0  0  0  0  0  0  0  0  0  0  0
  -29.8990  -24.3280   20.5610 O   0  0  0  0  0  0  0  0  0  0  0  0
  -27.0930  -25.5980   20.2890 H   0  0  0  0  0  0  0  0  0  0  0  0
  -25.2140  -23.8660   22.7180 C   0  0  0  0  0  0  0  0  0  0  0  0
  -27.5650  -24.1630   21.8090 C   0  0  0  0  0  3  0  0  0  0  0  0
  -27.4600  -22.6520   21.5060 C   0  0  0  0  0  2  0  0  0  0  0  0
  -26.1200  -22.3400   20.9000 C   0  0  0  0  0  2  0  0  0  0  0  0
  -25.0960  -22.5240   22.0110 C   0  0  0  0  0  2  0  0  0  0  0  0
  -26.3720  -24.6730   22.6070 C   0  0  0  0  0  0  0  0  0  0  0  0
  -26.4100  -25.9250   23.2620 C   0  0  0  0  0  3  0  0  0  0  0  0
  -25.3010  -26.3730   24.0060 C   0  0  0  0  0  3  0  0  0  0  0  0
  -24.1640  -25.5550   24.1300 C   0  0  0  0  0  3  0  0  0  0  0  0
  -24.1280  -24.3000   23.4970 C   0  0  0  0  0  3  0  0  0  0  0  0
  -33.4370  -28.6930   19.8210 C   0  0  0  0  0  3  0  0  0  0  0  0
  -33.2680  -30.2020   19.9370 N   0  0  0  0  0  0  0  0  0  0  0  0
  -33.4350  -31.1470   19.0080 C   0  0  0  0  0  0  0  0  0  0  0  0
  -33.9410  -30.8910   17.9190 O   0  0  0  0  0  0  0  0  0  0  0  0
  -32.8020  -30.4960   20.7810 H   0  0  0  0  0  0  0  0  0  0  0  0
  -32.0920  -33.1940   18.2990 C   0  0  0  0  0  1  0  0  0  0  0  0
  -33.0550  -32.6120   19.3500 C   0  0  0  0  0  3  0  0  0  0  0  0
  -35.0800  -33.1870   20.6090 C   0  0  0  0  0  1  0  0  0  0  0  0
  -34.2540  -33.4750   19.4410 N   0  0  0  0  0  0  0  0  0  0  0  0
  -34.8230  -33.3380   18.6080 H   0  0  0  0  0  0  0  0  0  0  0  0
  -34.4280  -28.2820   20.9760 C   0  0  1  0  0  0  0  0  0  0  0  0
  -33.8370  -28.2000   22.4180 C   0  0  0  0  0  1  0  0  0  0  0  0
  -35.1590  -26.9670   20.6500 C   0  0  0  0  0  1  0  0  0  0  0  0
  -35.5600  -29.3240   21.0190 C   0  0  0  0  0  1  0  0  0  0  0  0
  2  1  2  0
  3  6  2  0
  3  5  1  0
  4  1  1  0
  5  4  2  0
  6  2  1  0
  7  6  1  0
  8  7  1  0
 15 14  1  0
 16 15  1  0
 17 16  1  0
 18 16  1  0
 19 16  1  0
 21 28  2  0
 21 20  1  0
 22 27  1  0
 22 23  1  0
 24 25  1  0
 24 23  1  0
 25 26  1  0
 26 27  1  0
 27 21  1  0
 29 54  1  0
 30 49  1  0
 30 29  2  0
 31 33  2  0
 31 30  1  0
 32 25  1  0
 32 29  1  0
 33 32  1  0
 34 39  1  0
 34 31  1  0
 35 34  2  0
 36 37  2  0
 36 35  1  0
 37 38  1  0
 38 39  2  0
 40 37  1  0
 41 42  1  0
 41 40  1  0
 43 42  2  0
 44 43  1  0
 45 44  2  0
 45 46  1  0
 46 41  2  0
 47 46  1  0
 48 44  1  0
 49 51  2  0
 50 53  1  0
 50 49  1  0
 52 50  1  0
 54 56  1  0
 54 55  1  0
 58 57  1  0
 59 70  2  0
 60 65  1  0
 60 58  1  0
 61 71  1  0
 62 67  1  0
 62 68  1  0
 63 69  1  0
 64 65  1  0
 64 62  1  0
 64 63  1  0
 66 60  1  0
 66 67  1  0
 68 61  1  0
 69 61  1  0
 69 59  1  0
 71 73  2  0
 71 72  1  0
 74 72  1  0
 75 84  1  0
 76 72  1  0
 76 80  1  0
 77 76  1  0
 78 77  1  0
 78 79  1  0
 79 75  1  0
 80 75  2  0
 80 81  1  0
 81 82  2  0
 82 83  1  0
 84 83  2  0
 85 86  1  0
 85 59  1  0
 85 95  1  0
 86 89  1  0
 87 91  1  0
 87 86  1  0
 88 87  2  0
 91 90  1  0
 91 93  1  0
 93 92  1  0
 94 93  1  0
 95 98  1  1
 95 96  1  0
 97 95  1  0
M  ISO  4  20 100  21 100  57 101  58 101
M  END
>  <TORSDO>  (95) 
F 27

>  <SCORE>  (95) 
3.390

>  <name>  (95) 
94

>  <ligand_id>  (95) 
94

>  <original_smiles>  (95) 
[H]Oc1c([H])c([H])c(C([H])([H])C([H])([H])C([H])([H])C([H])([H])C([H])([H])C([H])(C([H])([H])[H])[N+]([H])([H])C([H])([H])C([H])([H])C(=O)N2C([H])([H])C([H])([H])C([H])([H])C([H])(n3nc(-c4c([H])c([H])c(Oc5c([H])c([H])c(F)c([H])c5F)c([H])c4[H])c(C(=O)N([H])[H])c3N([H])[H])C2([H])[H])c(C([H])([H])Oc2c([H])c([H])c3c(c2[H])C([H])([H])N(C(=O)C([H])(N([H])C(=O)C([H])(N([H])C([H])([H])[H])C([H])([H])[H])C(C([H])([H])[H])(C([H])([H])[H])C([H])([H])[H])C([H])(C(=O)N([H])C2([H])c4c([H])c([H])c([H])c([H])c4C([H])([H])C([H])([H])C2([H])[H])C3([H])[H])c1[H]

>  <smiles>  (95) 
[H]Oc1c([H])c([H])c(C([H])([H])C([H])([H])C([H])([H])C([H])([H])C([H])([H])C([H])(C([H])([H])[H])[N+]([H])([H])C([H])([H])C([H])([H])C(=O)N2C([H])([H])C([H])([H])C([H])([H])C([H])(n3nc(-c4c([H])c([H])c(Oc5c([H])c([H])c(F)c([H])c5F)c([H])c4[H])c(C(=O)N([H])[H])c3N([H])[H])C2([H])[H])c(C([H])([H])Oc2c([H])c([H])c3c(c2[H])C([H])([H])N(C(=O)C([H])(N([H])C(=O)C([H])(N([H])C([H])([H])[H])C([H])([H])[H])C(C([H])([H])[H])(C([H])([H])[H])C([H])([H])[H])C([H])(C(=O)N([H])C2([H])c4c([H])c([H])c([H])c([H])c4C([H])([H])C([H])([H])C2([H])[H])C3([H])[H])c1[H]

$$$$
95:0:0
     RDKit          3D

 92 99  0  0  1  0  0  0  0  0999 V2000
  -27.6740  -19.7270   20.2590 C   0  0  0  0  0  3  0  0  0  0  0  0
  -28.9750  -20.5580   18.4330 C   0  0  0  0  0  3  0  0  0  0  0  0
  -28.3260  -19.2690   19.0970 C   0  0  0  0  0  0  0  0  0  0  0  0
  -27.6170  -21.0920   20.6940 C   0  0  0  0  0  0  0  0  0  0  0  0
  -29.0230  -22.0930   18.8500 C   0  0  0  0  0  0  0  0  0  0  0  0
  -28.2730  -22.2110   20.0550 C   0  0  0  0  0  0  0  0  0  0  0  0
  -26.7280  -21.3420   21.9070 C   0  0  0  0  0  1  0  0  0  0  0  0
  -28.1180  -23.6110   20.6460 C   0  0  0  0  0  1  0  0  0  0  0  0
  -27.9900  -17.5280   18.6370 C   0  0  0  0  0  2  0  0  0  0  0  0
  -27.7700  -14.7240   18.1390 C   0  0  0  0  0  2  0  0  0  0  0  0
  -26.7180  -14.1570   19.1290 C   0  0  0  0  0  1  0  0  0  0  0  0
  -28.1060  -15.7320   19.2170 C   0  0  0  0  0  3  0  0  0  0  0  0
  -30.8920  -15.0410   20.3820 C   0  0  0  0  0  0  0  0  0  0  0  0
  -31.6290  -12.6510   20.1270 C   0  0  0  0  0  2  0  0  0  0  0  0
  -30.7860  -12.2270   18.9070 C   0  0  0  0  0  2  0  0  0  0  0  0
  -29.3630  -11.9450   19.3970 C   0  0  0  0  0  2  0  0  0  0  0  0
  -28.9800  -13.0500   20.4420 C   0  0  0  0  0  3  0  0  0  0  0  0
  -29.8350  -13.2800   21.5920 C   0  0  0  0  0  2  0  0  0  0  0  0
  -30.9020  -13.7480   20.8180 N   0  0  0  0  0  0  0  0  0  0  0  0
  -32.0610  -15.4800   20.4070 O   0  0  0  0  0  0  0  0  0  0  0  0
  -29.6650  -15.7680   19.8920 N   0  0  0  0  0  0  0  0  0  0  0  0
  -29.9890  -16.7200   19.7810 H   0  0  0  0  0  0  0  0  0  0  0  0
  -26.3230  -14.6620   21.2440 C   0  0  0  0  0  2  0  0  0  0  0  0
  -24.9090  -13.9300   20.5680 C   0  0  0  0  0  3  0  0  0  0  0  0
  -25.2640  -12.3290   19.9360 C   0  0  0  0  0  3  0  0  0  0  0  0
  -27.7360  -13.2930   20.8610 N   0  0  0  0  0  2  0  0  0  0  0  0
  -26.8680  -12.0190   20.0210 N   0  0  0  0  0  2  0  0  0  0  0  0
  -24.5200  -11.0760   20.5010 C   0  0  0  0  0  0  0  0  0  0  0  0
  -24.8760  -10.2430   21.6400 C   0  0  0  0  0  3  0  0  0  0  0  0
  -24.1230   -9.0770   22.0220 C   0  0  0  0  0  3  0  0  0  0  0  0
  -22.9690   -8.7130   21.2830 C   0  0  0  0  0  0  0  0  0  0  0  0
  -22.6010   -9.5500   20.2160 C   0  0  0  0  0  3  0  0  0  0  0  0
  -23.3430  -10.6930   19.8510 C   0  0  0  0  0  3  0  0  0  0  0  0
  -22.1990   -7.5700   21.4220 O   0  0  0  0  0  0  0  0  0  0  0  0
  -22.0080   -6.8830   22.6000 C   0  0  0  0  0  0  0  0  0  0  0  0
  -21.4910   -7.5050   23.7560 C   0  0  0  0  0  3  0  0  0  0  0  0
  -21.2270   -6.7390   24.9130 C   0  0  0  0  0  3  0  0  0  0  0  0
  -21.4730   -5.3530   24.9160 C   0  0  0  0  0  0  0  0  0  0  0  0
  -21.9670   -4.7260   23.7600 C   0  0  0  0  0  3  0  0  0  0  0  0
  -22.2230   -5.4870   22.6040 C   0  0  0  0  0  0  0  0  0  0  0  0
  -22.6620   -4.8620   21.4840 F   0  0  0  0  0  0  0  0  0  0  0  0
  -21.2310   -4.6200   26.0310 F   0  0  0  0  0  0  0  0  0  0  0  0
  -23.5070  -14.3410   20.6090 C   0  0  0  0  0  0  0  0  0  0  0  0
  -22.7140  -13.6490   21.4220 N   0  0  0  0  0  0  0  0  0  0  0  0
  -23.1140  -15.2040   19.8430 O   0  0  0  0  0  0  0  0  0  0  0  0
  -23.0890  -12.9270   22.0180 H   0  0  0  0  0  0  0  0  0  0  0  0
  -21.7260  -13.8590   21.4610 H   0  0  0  0  0  0  0  0  0  0  0  0
  -26.4990  -16.0120   21.3440 N   0  0  0  0  0  0  0  0  0  0  0  0
  -25.7430  -16.6820   21.3800 H   0  0  0  0  0  0  0  0  0  0  0  0
  -27.4190  -16.4330   21.3720 H   0  0  0  0  0  0  0  0  0  0  0  0
  -29.6020  -23.6420   18.0620 C   0  0  0  0  0  2  0  0  0  0  0  0
  -30.3330  -25.1700   18.4730 O   0  0  0  0  0  0  0  0  0  0  0  0
  -27.8290  -30.1290   23.8220 C   0  0  0  0  0  0  0  0  0  0  0  0
  -29.7300  -26.4860   18.9460 C   0  0  0  0  0  0  0  0  0  0  0  0
  -26.5760  -29.6900   21.7660 C   0  0  0  0  0  3  0  0  0  0  0  0
  -27.8670  -28.6560   19.7840 C   0  0  0  0  0  0  0  0  0  0  0  0
  -29.1550  -29.5110   21.7130 C   0  0  0  0  0  2  0  0  0  0  0  0
  -29.0540  -28.5110   20.5080 C   0  0  0  0  0  0  0  0  0  0  0  0
  -29.9920  -27.4410   20.0840 C   0  0  0  0  0  3  0  0  0  0  0  0
  -28.5890  -26.8840   18.2370 C   0  0  0  0  0  3  0  0  0  0  0  0
  -27.6780  -27.8780   18.6410 C   0  0  0  0  0  3  0  0  0  0  0  0
  -26.8010  -29.6500   20.2340 C   0  0  0  0  0  2  0  0  0  0  0  0
  -27.8810  -29.7850   22.4920 N   0  0  0  0  0  0  0  0  0  0  0  0
  -26.7510  -30.3330   24.4050 O   0  0  0  0  0  0  0  0  0  0  0  0
  -25.7170  -28.4800   22.2220 C   0  0  0  0  0  0  0  0  0  0  0  0
  -24.3880  -28.5400   22.0130 N   0  0  0  0  0  0  0  0  0  0  0  0
  -26.2530  -27.4990   22.7450 O   0  0  0  0  0  0  0  0  0  0  0  0
  -24.0110  -29.3800   21.5950 H   0  0  0  0  0  0  0  0  0  0  0  0
  -20.8780  -27.6190   21.8880 C   0  0  0  0  0  0  0  0  0  0  0  0
  -23.4240  -27.4800   22.3270 C   0  0  0  0  0  3  0  0  0  0  0  0
  -23.4430  -26.3760   21.2450 C   0  0  0  0  0  2  0  0  0  0  0  0
  -22.4010  -26.5920   20.1440 C   0  0  0  0  0  2  0  0  0  0  0  0
  -20.9900  -26.6280   20.7410 C   0  0  0  0  0  2  0  0  0  0  0  0
  -22.0220  -28.0310   22.6210 C   0  0  0  0  0  0  0  0  0  0  0  0
  -21.8660  -28.9750   23.6590 C   0  0  0  0  0  3  0  0  0  0  0  0
  -20.5990  -29.5040   23.9670 C   0  0  0  0  0  3  0  0  0  0  0  0
  -19.4670  -29.0850   23.2460 C   0  0  0  0  0  3  0  0  0  0  0  0
  -19.6080  -28.1420   22.2120 C   0  0  0  0  0  3  0  0  0  0  0  0
  -29.1220  -30.3010   24.6760 C   0  0  0  0  0  3  0  0  0  0  0  0
  -29.7210  -28.9290   25.1760 C   0  0  1  0  0  0  0  0  0  0  0  0
  -28.6930  -28.0240   25.8990 C   0  0  0  0  0  1  0  0  0  0  0  0
  -30.3110  -28.1170   24.0030 C   0  0  0  0  0  1  0  0  0  0  0  0
  -30.8920  -29.1940   26.1530 C   0  0  0  0  0  1  0  0  0  0  0  0
  -28.7870  -31.1490   25.8370 N   0  0  0  0  0  0  0  0  0  0  0  0
  -29.1890  -32.4160   26.0160 C   0  0  0  0  0  0  0  0  0  0  0  0
  -29.9400  -32.9890   25.2240 O   0  0  0  0  0  0  0  0  0  0  0  0
  -28.1260  -30.7640   26.4960 H   0  0  0  0  0  0  0  0  0  0  0  0
  -27.5600  -34.1410   26.8730 C   0  0  0  0  0  1  0  0  0  0  0  0
  -28.6810  -33.1650   27.2680 C   0  0  0  0  0  3  0  0  0  0  0  0
  -30.7100  -33.0250   28.6470 C   0  0  0  0  0  1  0  0  0  0  0  0
  -29.7440  -33.9010   27.9880 N   0  0  0  0  0  0  0  0  0  0  0  0
  -29.3460  -34.5180   28.6910 H   0  0  0  0  0  0  0  0  0  0  0  0
  1  4  1  0
  2  5  2  0
  2  3  1  0
  3  1  2  0
  4  7  1  0
  5  6  1  0
  6  8  1  0
  6  4  2  0
  9  3  1  0
  9 12  1  0
 10 11  1  0
 12 10  1  0
 12 21  1  0
 13 20  2  0
 13 19  1  0
 14 19  1  0
 15 16  1  0
 15 14  1  0
 16 17  1  0
 17 26  1  0
 17 18  1  0
 19 18  1  0
 21 13  1  0
 22 21  1  0
 23 48  1  0
 24 43  1  0
 24 23  1  0
 25 27  1  0
 25 28  1  0
 25 24  1  0
 27 26  1  0
 28 29  1  0
 29 30  2  0
 31 34  1  0
 31 30  1  0
 32 31  2  0
 33 32  1  0
 33 28  2  0
 34 35  1  0
 35 40  2  0
 35 36  1  0
 36 37  2  0
 37 38  1  0
 38 42  1  0
 39 38  2  0
 40 39  1  0
 41 40  1  0
 43 44  1  0
 44 47  1  0
 44 46  1  0
 45 43  2  0
 48 50  1  0
 48 49  1  0
 51 52  1  0
 51  5  1  0
 52 54  1  0
 53 64  2  0
 54 59  1  0
 55 65  1  0
 55 63  1  0
 56 62  1  0
 56 58  1  0
 57 63  1  0
 58 57  1  0
 59 58  2  0
 60 61  1  0
 60 54  2  0
 61 56  2  0
 62 55  1  0
 63 53  1  0
 65 67  2  0
 66 65  1  0
 68 66  1  0
 69 78  2  0
 69 74  1  0
 70 66  1  0
 70 74  1  0
 71 70  1  0
 72 73  1  0
 72 71  1  0
 73 69  1  0
 74 75  2  0
 75 76  1  0
 77 76  2  0
 78 77  1  0
 79 53  1  0
 79 80  1  0
 79 84  1  0
 80 81  1  1
 80 83  1  0
 82 80  1  0
 84 85  1  0
 84 87  1  0
 85 89  1  0
 86 85  2  0
 89 88  1  0
 89 91  1  0
 91 90  1  0
 91 92  1  0
M  ISO  4  13 100  21 100  51 101  52 101
M  END
>  <TORSDO>  (96) 
F 19

>  <SCORE>  (96) 
-1.529

>  <name>  (96) 
95

>  <ligand_id>  (96) 
95

>  <original_smiles>  (96) 
[H]c1c([H])c([H])c2c(c1[H])C([H])([H])C([H])([H])C([H])([H])C2([H])N([H])C(=O)C1([H])N(C(=O)C([H])(N([H])C(=O)C([H])(N([H])C([H])([H])[H])C([H])([H])[H])C(C([H])([H])[H])(C([H])([H])[H])C([H])([H])[H])C([H])([H])c2c([H])c(OC([H])([H])c3c([H])c(C([H])([H])C4(N([H])C(=O)N5C([H])([H])C([H])([H])C([H])([H])C([H])(n6nc(-c7c([H])c([H])c(Oc8c([H])c([H])c(F)c([H])c8F)c([H])c7[H])c(C(=O)N([H])[H])c6N([H])[H])C5([H])[H])C([H])([H])C4([H])[H])c([H])c(C([H])([H])[H])c3C([H])([H])[H])c([H])c([H])c2C1([H])[H]

>  <smiles>  (96) 
[H]c1c([H])c([H])c2c(c1[H])C([H])([H])C([H])([H])C([H])([H])C2([H])N([H])C(=O)C1([H])N(C(=O)C([H])(N([H])C(=O)C([H])(N([H])C([H])([H])[H])C([H])([H])[H])C(C([H])([H])[H])(C([H])([H])[H])C([H])([H])[H])C([H])([H])c2c([H])c(OC([H])([H])c3c([H])c(C([H])([H])C4(N([H])C(=O)N5C([H])([H])C([H])([H])C([H])([H])C([H])(n6nc(-c7c([H])c([H])c(Oc8c([H])c([H])c(F)c([H])c8F)c([H])c7[H])c(C(=O)N([H])[H])c6N([H])[H])C5([H])[H])C([H])([H])C4([H])[H])c([H])c(C([H])([H])[H])c3C([H])([H])[H])c([H])c([H])c2C1([H])[H]

$$$$
96:0:0
     RDKit          3D

 92100  0  0  1  0  0  0  0  0999 V2000
  -28.5930  -23.1090   22.1340 C   0  0  0  0  0  3  0  0  0  0  0  0
  -28.0760  -24.2130   22.8200 C   0  0  0  0  0  3  0  0  0  0  0  0
  -29.0780  -23.2220   20.8070 C   0  0  0  0  0  0  0  0  0  0  0  0
  -28.0170  -25.4700   22.1970 C   0  0  0  0  0  0  0  0  0  0  0  0
  -28.9770  -24.4910   20.1530 C   0  0  0  0  0  0  0  0  0  0  0  0
  -28.4380  -25.6090   20.8440 C   0  0  0  0  0  0  0  0  0  0  0  0
  -27.5180  -26.6330   23.0370 C   0  0  0  0  0  1  0  0  0  0  0  0
  -29.4590  -24.6920   18.7160 C   0  0  0  0  0  1  0  0  0  0  0  0
  -29.6970  -22.0050   20.1700 C   0  0  0  0  0  0  0  0  0  0  0  0
  -30.2230  -21.9820   19.0530 O   0  0  0  0  0  0  0  0  0  0  0  0
  -29.6620  -20.7110   20.9940 C   0  0  0  0  0  2  0  0  0  0  0  0
  -30.2760  -19.4810   20.3150 C   0  0  0  0  0  2  0  0  0  0  0  0
  -29.8780  -18.1980   21.0550 C   0  0  0  0  0  2  0  0  0  0  0  0
  -30.5580  -16.9670   20.4620 C   0  0  0  0  0  2  0  0  0  0  0  0
  -30.0340  -15.6340   21.0310 C   0  0  0  0  0  2  0  0  0  0  0  0
  -30.6900  -14.4350   20.3290 C   0  0  0  0  0  0  0  0  0  0  0  0
  -30.3340  -12.3260   19.1180 C   0  0  0  0  0  2  0  0  0  0  0  0
  -29.3770  -12.6020   17.9410 C   0  0  0  0  0  2  0  0  0  0  0  0
  -27.9090  -12.4780   18.3980 C   0  0  0  0  0  2  0  0  0  0  0  0
  -27.6090  -13.2750   19.6950 C   0  0  0  0  0  3  0  0  0  0  0  0
  -28.6830  -12.9920   20.7710 C   0  0  0  0  0  2  0  0  0  0  0  0
  -30.0000  -13.2780   20.1870 N   0  0  0  0  0  0  0  0  0  0  0  0
  -31.7970  -14.6110   19.8090 O   0  0  0  0  0  0  0  0  0  0  0  0
  -25.2120  -13.8860   20.4150 C   0  0  0  0  0  0  0  0  0  0  0  0
  -24.1500  -13.1130   20.8050 C   0  0  0  0  0  0  0  0  0  0  0  0
  -24.6150  -11.7630   20.7820 C   0  0  0  0  0  0  0  0  0  0  0  0
  -26.2580  -13.0040   20.1870 N   0  0  0  0  0  0  0  0  0  0  0  0
  -25.9010  -11.7240   20.4610 N   0  0  0  0  0  0  0  0  0  0  0  0
  -23.8950  -10.5000   20.9940 C   0  0  0  0  0  0  0  0  0  0  0  0
  -24.3510   -9.5380   21.9220 C   0  0  0  0  0  3  0  0  0  0  0  0
  -23.6340   -8.3390   22.1220 C   0  0  0  0  0  3  0  0  0  0  0  0
  -22.4480   -8.0920   21.3910 C   0  0  0  0  0  0  0  0  0  0  0  0
  -22.0100   -9.0420   20.4520 C   0  0  0  0  0  3  0  0  0  0  0  0
  -22.7270  -10.2330   20.2510 C   0  0  0  0  0  3  0  0  0  0  0  0
  -21.7020   -6.9420   21.4990 O   0  0  0  0  0  0  0  0  0  0  0  0
  -21.6890   -6.1980   22.6510 C   0  0  0  0  0  0  0  0  0  0  0  0
  -21.3070   -6.7540   23.8920 C   0  0  0  0  0  3  0  0  0  0  0  0
  -21.2440   -5.9380   25.0390 C   0  0  0  0  0  3  0  0  0  0  0  0
  -21.5480   -4.5660   24.9470 C   0  0  0  0  0  0  0  0  0  0  0  0
  -21.9230   -4.0100   23.7110 C   0  0  0  0  0  3  0  0  0  0  0  0
  -21.9920   -4.8230   22.5670 C   0  0  0  0  0  0  0  0  0  0  0  0
  -22.3320   -4.2780   21.3740 F   0  0  0  0  0  0  0  0  0  0  0  0
  -21.4780   -3.7800   26.0470 F   0  0  0  0  0  0  0  0  0  0  0  0
  -22.7530  -13.5880   21.0900 C   0  0  0  0  0  0  0  0  0  0  0  0
  -22.0400  -12.8980   21.9730 N   0  0  0  0  0  0  0  0  0  0  0  0
  -22.3050  -14.6070   20.5640 O   0  0  0  0  0  0  0  0  0  0  0  0
  -22.4140  -12.0740   22.4200 H   0  0  0  0  0  0  0  0  0  0  0  0
  -21.1040  -13.2010   22.2060 H   0  0  0  0  0  0  0  0  0  0  0  0
  -25.3730  -15.2550   20.2210 N   0  0  0  0  0  0  0  0  0  0  0  0
  -24.6130  -15.9160   20.3390 H   0  0  0  0  0  0  0  0  0  0  0  0
  -26.2250  -15.6870   19.8870 H   0  0  0  0  0  0  0  0  0  0  0  0
  -28.4030  -26.8220   20.1800 O   0  0  0  0  0  0  0  0  0  0  0  0
  -24.5250  -31.8830   23.1920 C   0  0  0  0  0  0  0  0  0  0  0  0
  -27.2250  -27.5190   20.1190 C   0  0  0  0  0  0  0  0  0  0  0  0
  -23.3290  -30.4680   21.5460 C   0  0  0  0  0  3  0  0  0  0  0  0
  -24.8030  -28.9540   20.1170 C   0  0  0  0  0  0  0  0  0  0  0  0
  -25.8430  -30.8810   21.3350 C   0  0  0  0  0  2  0  0  0  0  0  0
  -25.9490  -29.5160   20.6910 C   0  0  0  0  0  0  0  0  0  0  0  0
  -27.1680  -28.8130   20.6740 C   0  0  0  0  0  3  0  0  0  0  0  0
  -26.0710  -26.9570   19.5340 C   0  0  0  0  0  3  0  0  0  0  0  0
  -24.8570  -27.6750   19.5280 C   0  0  0  0  0  3  0  0  0  0  0  0
  -23.5410  -29.7840   20.1650 C   0  0  0  0  0  2  0  0  0  0  0  0
  -24.5830  -31.0930   22.0830 N   0  0  0  0  0  0  0  0  0  0  0  0
  -23.4410  -32.1390   23.7400 O   0  0  0  0  0  0  0  0  0  0  0  0
  -22.6940  -29.4390   22.5070 C   0  0  0  0  0  0  0  0  0  0  0  0
  -21.3680  -29.2590   22.3920 N   0  0  0  0  0  0  0  0  0  0  0  0
  -23.3880  -28.8090   23.3090 O   0  0  0  0  0  0  0  0  0  0  0  0
  -20.8690  -29.8180   21.7150 H   0  0  0  0  0  0  0  0  0  0  0  0
  -18.0000  -28.0700   22.9180 C   0  0  0  0  0  0  0  0  0  0  0  0
  -20.5620  -28.3160   23.1640 C   0  0  0  0  0  3  0  0  0  0  0  0
  -20.6520  -26.8900   22.5710 C   0  0  0  0  0  2  0  0  0  0  0  0
  -19.5370  -26.5820   21.5660 C   0  0  0  0  0  2  0  0  0  0  0  0
  -18.1630  -26.7250   22.2260 C   0  0  0  0  0  2  0  0  0  0  0  0
  -19.1250  -28.8240   23.3450 C   0  0  0  0  0  0  0  0  0  0  0  0
  -18.9180  -30.0820   23.9510 C   0  0  0  0  0  3  0  0  0  0  0  0
  -17.6150  -30.5880   24.1300 C   0  0  0  0  0  3  0  0  0  0  0  0
  -16.5050  -29.8310   23.7180 C   0  0  0  0  0  3  0  0  0  0  0  0
  -16.6970  -28.5730   23.1210 C   0  0  0  0  0  3  0  0  0  0  0  0
  -25.8040  -32.5260   23.8140 C   0  0  0  0  0  3  0  0  0  0  0  0
  -25.4810  -33.9180   24.1500 N   0  0  0  0  0  0  0  0  0  0  0  0
  -25.8130  -34.9770   23.4000 C   0  0  0  0  0  0  0  0  0  0  0  0
  -26.4930  -34.8870   22.3750 O   0  0  0  0  0  0  0  0  0  0  0  0
  -24.8760  -34.0600   24.9450 H   0  0  0  0  0  0  0  0  0  0  0  0
  -24.0740  -36.7550   23.0360 C   0  0  0  0  0  1  0  0  0  0  0  0
  -25.3090  -36.3580   23.8600 C   0  0  0  0  0  3  0  0  0  0  0  0
  -27.4290  -37.2480   24.7220 C   0  0  0  0  0  1  0  0  0  0  0  0
  -26.3350  -37.4200   23.7690 N   0  0  0  0  0  0  0  0  0  0  0  0
  -25.9210  -38.3350   23.9230 H   0  0  0  0  0  0  0  0  0  0  0  0
  -26.3380  -31.7510   25.0820 C   0  0  1  0  0  0  0  0  0  0  0  0
  -25.2550  -31.4960   26.1570 C   0  0  0  0  0  1  0  0  0  0  0  0
  -26.9250  -30.3780   24.6730 C   0  0  0  0  0  1  0  0  0  0  0  0
  -27.4850  -32.5490   25.7440 C   0  0  0  0  0  1  0  0  0  0  0  0
  1  2  1  0
  3  1  2  0
  4  2  2  0
  4  7  1  0
  5  3  1  0
  5  6  2  0
  6  4  1  0
  8  5  1  0
  9  3  1  0
  9 11  1  0
 10  9  2  0
 12 11  1  0
 12 13  1  0
 14 15  1  0
 14 13  1  0
 16 15  1  0
 17 22  1  0
 18 19  1  0
 18 17  1  0
 20 19  1  0
 20 27  1  0
 20 21  1  0
 22 16  1  0
 22 21  1  0
 23 16  2  0
 24 25  2  0
 25 44  1  0
 26 25  1  0
 26 29  1  0
 27 24  1  0
 27 28  1  0
 28 26  2  0
 29 30  1  0
 30 31  2  0
 32 35  1  0
 32 31  1  0
 33 32  2  0
 34 33  1  0
 34 29  2  0
 35 36  1  0
 36 37  1  0
 37 38  2  0
 39 38  1  0
 39 43  1  0
 40 39  2  0
 41 36  2  0
 41 40  1  0
 42 41  1  0
 44 45  1  0
 45 48  1  0
 45 47  1  0
 46 44  2  0
 49 50  1  0
 49 24  1  0
 51 49  1  0
 52  6  1  0
 53 64  2  0
 54 52  1  0
 54 59  1  0
 55 63  1  0
 55 65  1  0
 56 62  1  0
 56 58  1  0
 57 63  1  0
 58 57  1  0
 59 58  2  0
 60 54  2  0
 61 60  1  0
 61 56  2  0
 62 55  1  0
 63 53  1  0
 65 67  2  0
 66 65  1  0
 68 66  1  0
 69 78  2  0
 69 74  1  0
 70 66  1  0
 70 74  1  0
 71 70  1  0
 72 73  1  0
 72 71  1  0
 73 69  1  0
 74 75  2  0
 75 76  1  0
 77 76  2  0
 78 77  1  0
 79 53  1  0
 79 80  1  0
 79 89  1  0
 80 83  1  0
 81 85  1  0
 81 80  1  0
 82 81  2  0
 85 84  1  0
 87 85  1  0
 87 88  1  0
 87 86  1  0
 89 92  1  1
 89 90  1  0
 91 89  1  0
M  ISO  4   6 101  15 100  16 100  52 101
M  END
>  <TORSDO>  (97) 
F 22

>  <SCORE>  (97) 
-12.748

>  <name>  (97) 
96

>  <ligand_id>  (97) 
96

>  <original_smiles>  (97) 
[H]c1c([H])c([H])c2c(c1[H])C([H])([H])C([H])([H])C([H])([H])C2([H])N([H])C(=O)C1([H])N(C(=O)C([H])(N([H])C(=O)C([H])(N([H])C([H])([H])[H])C([H])([H])[H])C(C([H])([H])[H])(C([H])([H])[H])C([H])([H])[H])C([H])([H])c2c([H])c(Oc3c(C([H])([H])[H])c([H])c([H])c(C(=O)C([H])([H])C([H])([H])C([H])([H])C([H])([H])C([H])([H])C(=O)N4C([H])([H])C([H])([H])C([H])([H])C([H])(n5nc(-c6c([H])c([H])c(Oc7c([H])c([H])c(F)c([H])c7F)c([H])c6[H])c(C(=O)N([H])[H])c5N([H])[H])C4([H])[H])c3C([H])([H])[H])c([H])c([H])c2C1([H])[H]

>  <smiles>  (97) 
[H]c1c([H])c([H])c2c(c1[H])C([H])([H])C([H])([H])C([H])([H])C2([H])N([H])C(=O)C1([H])N(C(=O)C([H])(N([H])C(=O)C([H])(N([H])C([H])([H])[H])C([H])([H])[H])C(C([H])([H])[H])(C([H])([H])[H])C([H])([H])[H])C([H])([H])c2c([H])c(Oc3c(C([H])([H])[H])c([H])c([H])c(C(=O)C([H])([H])C([H])([H])C([H])([H])C([H])([H])C([H])([H])C(=O)N4C([H])([H])C([H])([H])C([H])([H])C([H])(n5nc(-c6c([H])c([H])c(Oc7c([H])c([H])c(F)c([H])c7F)c([H])c6[H])c(C(=O)N([H])[H])c5N([H])[H])C4([H])[H])c3C([H])([H])[H])c([H])c([H])c2C1([H])[H]

$$$$
97:0:0
     RDKit          3D

 94103  0  0  1  0  0  0  0  0999 V2000
  -30.2420  -24.5320   22.3350 C   0  0  0  0  0  3  0  0  0  0  0  0
  -30.6840  -23.1970   22.3880 C   0  0  0  0  0  3  0  0  0  0  0  0
  -28.9080  -24.0080   20.3660 C   0  0  0  0  0  3  0  0  0  0  0  0
  -29.3710  -24.9500   21.3110 C   0  0  0  0  0  0  0  0  0  0  0  0
  -30.2600  -22.2670   21.4170 C   0  0  0  0  0  0  0  0  0  0  0  0
  -29.3560  -22.6620   20.4020 C   0  0  0  0  0  0  0  0  0  0  0  0
  -28.1630  -22.0920   18.3890 C   0  0  0  0  0  1  0  0  0  0  0  0
  -28.9800  -21.7030   19.4850 O   0  0  0  0  0  0  0  0  0  0  0  0
  -30.8590  -20.8670   21.4070 C   0  0  0  0  0  2  0  0  0  0  0  0
  -30.0520  -19.7880   22.1630 C   0  0  0  0  0  2  0  0  0  0  0  0
  -31.1700  -14.5340   20.1710 C   0  0  0  0  0  0  0  0  0  0  0  0
  -30.7760  -12.4090   18.9940 C   0  0  0  0  0  2  0  0  0  0  0  0
  -29.7740  -12.6340   17.8440 C   0  0  0  0  0  2  0  0  0  0  0  0
  -28.3300  -12.4750   18.3550 C   0  0  0  0  0  2  0  0  0  0  0  0
  -28.0560  -13.2940   19.6440 C   0  0  0  0  0  3  0  0  0  0  0  0
  -29.1700  -13.0790   20.6920 C   0  0  0  0  0  2  0  0  0  0  0  0
  -30.4600  -13.3810   20.0530 N   0  0  0  0  0  0  0  0  0  0  0  0
  -32.2620  -14.6950   19.6160 O   0  0  0  0  0  0  0  0  0  0  0  0
  -29.8090  -18.0320   20.3290 C   0  0  0  0  0  2  0  0  0  0  0  0
  -30.1110  -17.2210   22.6200 C   0  0  0  0  0  2  0  0  0  0  0  0
  -30.4350  -16.7590   19.7500 C   0  0  0  0  0  2  0  0  0  0  0  0
  -30.7400  -15.9030   22.1100 C   0  0  0  0  0  2  0  0  0  0  0  0
  -30.4510  -18.3770   21.6740 C   0  0  0  0  0  3  0  0  0  0  0  0
  -30.5110  -15.6050   20.6770 N   0  0  0  0  0  0  0  0  0  0  0  0
  -25.6980  -13.8590   20.5080 C   0  0  0  0  0  0  0  0  0  0  0  0
  -24.6590  -13.0650   20.9130 C   0  0  0  0  0  0  0  0  0  0  0  0
  -25.1270  -11.7200   20.8170 C   0  0  0  0  0  0  0  0  0  0  0  0
  -26.7340  -12.9940   20.1920 N   0  0  0  0  0  0  0  0  0  0  0  0
  -26.3980  -11.7020   20.4340 N   0  0  0  0  0  0  0  0  0  0  0  0
  -24.4230  -10.4460   21.0110 C   0  0  0  0  0  0  0  0  0  0  0  0
  -24.8440   -9.5100   21.9820 C   0  0  0  0  0  3  0  0  0  0  0  0
  -24.1400   -8.2990   22.1600 C   0  0  0  0  0  3  0  0  0  0  0  0
  -23.0010   -8.0170   21.3690 C   0  0  0  0  0  0  0  0  0  0  0  0
  -22.6010   -8.9410   20.3890 C   0  0  0  0  0  3  0  0  0  0  0  0
  -23.3060  -10.1430   20.2080 C   0  0  0  0  0  3  0  0  0  0  0  0
  -22.2710   -6.8560   21.4550 O   0  0  0  0  0  0  0  0  0  0  0  0
  -22.0960   -6.2030   22.6490 C   0  0  0  0  0  0  0  0  0  0  0  0
  -21.5180   -6.8410   23.7690 C   0  0  0  0  0  3  0  0  0  0  0  0
  -21.2930   -6.1130   24.9550 C   0  0  0  0  0  3  0  0  0  0  0  0
  -21.6350   -4.7500   25.0200 C   0  0  0  0  0  0  0  0  0  0  0  0
  -22.2040   -4.1110   23.9050 C   0  0  0  0  0  3  0  0  0  0  0  0
  -22.4310   -4.8360   22.7220 C   0  0  0  0  0  0  0  0  0  0  0  0
  -22.9610   -4.2110   21.6420 F   0  0  0  0  0  0  0  0  0  0  0  0
  -21.4110   -4.0480   26.1570 F   0  0  0  0  0  0  0  0  0  0  0  0
  -23.2770  -13.5210   21.2820 C   0  0  0  0  0  0  0  0  0  0  0  0
  -22.6240  -12.8170   22.2000 N   0  0  0  0  0  0  0  0  0  0  0  0
  -22.7850  -14.5360   20.7900 O   0  0  0  0  0  0  0  0  0  0  0  0
  -23.0360  -11.9950   22.6170 H   0  0  0  0  0  0  0  0  0  0  0  0
  -21.7000  -13.1050   22.4920 H   0  0  0  0  0  0  0  0  0  0  0  0
  -25.8460  -15.2360   20.3620 N   0  0  0  0  0  0  0  0  0  0  0  0
  -25.0940  -15.8890   20.5450 H   0  0  0  0  0  0  0  0  0  0  0  0
  -26.6920  -15.6850   20.0350 H   0  0  0  0  0  0  0  0  0  0  0  0
  -28.9230  -26.4040   21.2530 C   0  0  0  0  0  2  0  0  0  0  0  0
  -28.4360  -26.7720   19.9640 O   0  0  0  0  0  0  0  0  0  0  0  0
  -24.5850  -31.8410   23.1480 C   0  0  0  0  0  0  0  0  0  0  0  0
  -27.2880  -27.5200   19.9880 C   0  0  0  0  0  0  0  0  0  0  0  0
  -23.3970  -30.4570   21.4730 C   0  0  0  0  0  3  0  0  0  0  0  0
  -24.8730  -28.9700   20.0190 C   0  0  0  0  0  0  0  0  0  0  0  0
  -25.9140  -30.8600   21.2860 C   0  0  0  0  0  2  0  0  0  0  0  0
  -26.0180  -29.5040   20.6250 C   0  0  0  0  0  0  0  0  0  0  0  0
  -27.2290  -28.7820   20.6170 C   0  0  0  0  0  3  0  0  0  0  0  0
  -26.1370  -26.9970   19.3680 C   0  0  0  0  0  3  0  0  0  0  0  0
  -24.9250  -27.7140   19.3890 C   0  0  0  0  0  3  0  0  0  0  0  0
  -23.6160  -29.8070   20.0800 C   0  0  0  0  0  2  0  0  0  0  0  0
  -24.6490  -31.0650   22.0290 N   0  0  0  0  0  0  0  0  0  0  0  0
  -23.5000  -32.0880   23.6940 O   0  0  0  0  0  0  0  0  0  0  0  0
  -22.7580  -29.4080   22.4130 C   0  0  0  0  0  0  0  0  0  0  0  0
  -21.4360  -29.2150   22.2800 N   0  0  0  0  0  0  0  0  0  0  0  0
  -23.4490  -28.7710   23.2120 O   0  0  0  0  0  0  0  0  0  0  0  0
  -20.9420  -29.7790   21.6020 H   0  0  0  0  0  0  0  0  0  0  0  0
  -18.0760  -27.9710   22.7310 C   0  0  0  0  0  0  0  0  0  0  0  0
  -20.6270  -28.2560   23.0290 C   0  0  0  0  0  3  0  0  0  0  0  0
  -20.7530  -26.8370   22.4290 C   0  0  0  0  0  2  0  0  0  0  0  0
  -19.6640  -26.5170   21.4010 C   0  0  0  0  0  2  0  0  0  0  0  0
  -18.2750  -26.6350   22.0360 C   0  0  0  0  0  2  0  0  0  0  0  0
  -19.1810  -28.7400   23.1830 C   0  0  0  0  0  0  0  0  0  0  0  0
  -18.9430  -29.9910   23.7900 C   0  0  0  0  0  3  0  0  0  0  0  0
  -17.6310  -30.4740   23.9530 C   0  0  0  0  0  3  0  0  0  0  0  0
  -16.5390  -29.7030   23.5190 C   0  0  0  0  0  3  0  0  0  0  0  0
  -16.7630  -28.4530   22.9140 C   0  0  0  0  0  3  0  0  0  0  0  0
  -25.8630  -32.4700   23.7820 C   0  0  0  0  0  3  0  0  0  0  0  0
  -26.3910  -31.6770   25.0390 C   0  0  1  0  0  0  0  0  0  0  0  0
  -25.3000  -31.3990   26.1010 C   0  0  0  0  0  1  0  0  0  0  0  0
  -26.9930  -30.3180   24.6130 C   0  0  0  0  0  1  0  0  0  0  0  0
  -27.5330  -32.4690   25.7190 C   0  0  0  0  0  1  0  0  0  0  0  0
  -25.5410  -33.8580   24.1370 N   0  0  0  0  0  0  0  0  0  0  0  0
  -25.8690  -34.9260   23.3980 C   0  0  0  0  0  0  0  0  0  0  0  0
  -26.5450  -34.8480   22.3690 O   0  0  0  0  0  0  0  0  0  0  0  0
  -24.9400  -33.9920   24.9370 H   0  0  0  0  0  0  0  0  0  0  0  0
  -24.1270  -36.7090   23.0620 C   0  0  0  0  0  1  0  0  0  0  0  0
  -25.3640  -36.3010   23.8760 C   0  0  0  0  0  3  0  0  0  0  0  0
  -27.4830  -37.1890   24.7420 C   0  0  0  0  0  1  0  0  0  0  0  0
  -26.3890  -37.3660   23.7920 N   0  0  0  0  0  0  0  0  0  0  0  0
  -25.9740  -38.2800   23.9520 H   0  0  0  0  0  0  0  0  0  0  0  0
  1  2  1  0
  3  6  2  0
  3  4  1  0
  4  1  2  0
  5  2  2  0
  6  5  1  0
  7  8  1  0
  8  6  1  0
  9  5  1  0
  9 10  1  0
 11 24  1  0
 12 17  1  0
 13 14  1  0
 13 12  1  0
 15 14  1  0
 15 28  1  0
 15 16  1  0
 17 11  1  0
 17 16  1  0
 18 11  2  0
 19 23  1  0
 21 19  1  0
 21 24  1  0
 22 20  1  0
 23 10  1  0
 23 20  1  0
 24 22  1  0
 25 26  2  0
 26 45  1  0
 27 26  1  0
 27 30  1  0
 28 29  1  0
 28 25  1  0
 29 27  2  0
 30 31  1  0
 31 32  2  0
 33 36  1  0
 33 32  1  0
 34 33  2  0
 35 34  1  0
 35 30  2  0
 36 37  1  0
 37 42  2  0
 37 38  1  0
 38 39  2  0
 39 40  1  0
 40 44  1  0
 41 40  2  0
 42 41  1  0
 43 42  1  0
 45 46  1  0
 46 49  1  0
 46 48  1  0
 47 45  2  0
 50 25  1  0
 50 51  1  0
 52 50  1  0
 53  4  1  0
 54 56  1  0
 54 53  1  0
 55 66  2  0
 56 61  1  0
 57 65  1  0
 57 67  1  0
 58 64  1  0
 58 60  1  0
 59 65  1  0
 60 59  1  0
 61 60  2  0
 62 63  1  0
 62 56  2  0
 63 58  2  0
 64 57  1  0
 65 55  1  0
 67 69  2  0
 68 67  1  0
 70 68  1  0
 71 80  2  0
 71 76  1  0
 72 68  1  0
 72 76  1  0
 73 72  1  0
 74 75  1  0
 74 73  1  0
 75 71  1  0
 76 77  2  0
 77 78  1  0
 79 78  2  0
 80 79  1  0
 81 55  1  0
 81 86  1  0
 81 82  1  0
 82 85  1  1
 82 83  1  0
 84 82  1  0
 86 89  1  0
 87 91  1  0
 87 86  1  0
 88 87  2  0
 91 90  1  0
 93 91  1  0
 93 94  1  0
 93 92  1  0
M  ISO  4  11 100  24 100  53 101  54 101
M  END
>  <TORSDO>  (98) 
F 20

>  <SCORE>  (98) 
-12.173

>  <name>  (98) 
97

>  <ligand_id>  (98) 
97

>  <original_smiles>  (98) 
[H]c1c([H])c([H])c2c(c1[H])C([H])([H])C([H])([H])C([H])([H])C2([H])N([H])C(=O)C1([H])N(C(=O)C([H])(N([H])C(=O)C([H])(N([H])C([H])([H])[H])C([H])([H])[H])C(C([H])([H])[H])(C([H])([H])[H])C([H])([H])[H])C([H])([H])c2c([H])c(OC([H])([H])c3c([H])c([H])c(C([H])([H])C([H])([H])C4([H])C([H])([H])C([H])([H])N(C(=O)N5C([H])([H])C([H])([H])C([H])([H])C([H])(n6nc(-c7c([H])c([H])c(Oc8c([H])c([H])c(F)c([H])c8F)c([H])c7[H])c(C(=O)N([H])[H])c6N([H])[H])C5([H])[H])C([H])([H])C4([H])[H])c(OC([H])([H])[H])c3[H])c([H])c([H])c2C1([H])[H]

>  <smiles>  (98) 
[H]c1c([H])c([H])c2c(c1[H])C([H])([H])C([H])([H])C([H])([H])C2([H])N([H])C(=O)C1([H])N(C(=O)C([H])(N([H])C(=O)C([H])(N([H])C([H])([H])[H])C([H])([H])[H])C(C([H])([H])[H])(C([H])([H])[H])C([H])([H])[H])C([H])([H])c2c([H])c(OC([H])([H])c3c([H])c([H])c(C([H])([H])C([H])([H])C4([H])C([H])([H])C([H])([H])N(C(=O)N5C([H])([H])C([H])([H])C([H])([H])C([H])(n6nc(-c7c([H])c([H])c(Oc8c([H])c([H])c(F)c([H])c8F)c([H])c7[H])c(C(=O)N([H])[H])c6N([H])[H])C5([H])[H])C([H])([H])C4([H])[H])c(OC([H])([H])[H])c3[H])c([H])c([H])c2C1([H])[H]

$$$$
